90866.cdx
  Mrv1902 05222410232D          

 39 42  0  0  0  0            999 V2000
    3.6418  -10.1876    0.0000 C   0  0  0  0  0  0  0  0  0  0  0  0
    3.6418  -11.0126    0.0000 C   0  0  1  0  0  0  0  0  0  0  0  0
    4.3563  -11.4251    0.0000 C   0  0  0  0  0  0  0  0  0  0  0  0
    5.0707  -11.0126    0.0000 C   0  0  1  0  0  0  0  0  0  0  0  0
    5.0707  -10.1876    0.0000 C   0  0  2  0  0  0  0  0  0  0  0  0
    4.3563   -9.7751    0.0000 C   0  0  0  0  0  0  0  0  0  0  0  0
    5.7852  -11.4251    0.0000 C   0  0  0  0  0  0  0  0  0  0  0  0
    6.4997  -11.0126    0.0000 C   0  0  0  0  0  0  0  0  0  0  0  0
    6.4997  -10.1876    0.0000 C   0  0  0  0  0  0  0  0  0  0  0  0
    5.7852   -9.7751    0.0000 C   0  0  0  0  0  0  0  0  0  0  0  0
    7.2142   -9.7751    0.0000 C   0  0  2  0  0  0  0  0  0  0  0  0
    7.2142   -8.9501    0.0000 C   0  0  1  0  0  0  0  0  0  0  0  0
    6.4997   -8.5376    0.0000 C   0  0  1  0  0  0  0  0  0  0  0  0
    5.7852   -8.9501    0.0000 C   0  0  0  0  0  0  0  0  0  0  0  0
    8.2640  -10.7710    0.0000 O   0  0  0  0  0  0  0  0  0  0  0  0
    5.0707   -8.5376    0.0000 O   0  0  0  0  0  0  0  0  0  0  0  0
    7.2142  -11.4251    0.0000 O   0  0  0  0  0  0  0  0  0  0  0  0
    3.9438  -12.1396    0.0000 C   0  0  0  0  0  0  0  0  0  0  0  0
    5.0707   -9.3626    0.0000 C   0  0  0  0  0  0  0  0  0  0  0  0
    6.4997   -7.7126    0.0000 O   0  0  0  0  0  0  0  0  0  0  0  0
    7.2142   -8.1251    0.0000 C   0  0  0  0  0  0  0  0  0  0  0  0
    7.2352  -10.5720    0.0000 C   0  0  0  0  0  0  0  0  0  0  0  0
    5.0707  -11.8376    0.0000 H   0  0  0  0  0  0  0  0  0  0  0  0
    4.7688  -12.1396    0.0000 C   0  0  0  0  0  0  0  0  0  0  0  0
    2.8993  -11.4251    0.0000 O   0  0  0  0  0  0  0  0  0  0  0  0
    5.7852   -6.4751    0.0000 O   0  0  0  0  0  0  0  0  0  0  0  0
    5.0707   -7.7126    0.0000 C   0  0  0  0  0  0  0  0  0  0  0  0
    5.7852   -7.3001    0.0000 C   0  0  0  0  0  0  0  0  0  0  0  0
    7.9988  -10.0301    0.0000 C   0  0  0  0  0  0  0  0  0  0  0  0
    8.4837   -9.3626    0.0000 C   0  0  0  0  0  0  0  0  0  0  0  0
    7.9988   -8.6952    0.0000 C   0  0  2  0  0  0  0  0  0  0  0  0
    8.2537   -7.9106    0.0000 C   0  0  1  0  0  0  0  0  0  0  0  0
    9.0607   -7.7391    0.0000 C   0  0  0  0  0  0  0  0  0  0  0  0
    9.3156   -6.9544    0.0000 C   0  0  0  0  0  0  0  0  0  0  0  0
   10.1226   -6.7829    0.0000 C   0  0  0  0  0  0  0  0  0  0  0  0
   10.6746   -7.3960    0.0000 O   0  0  0  0  0  0  0  0  0  0  0  0
   10.3775   -5.9983    0.0000 O   0  0  0  0  0  0  0  0  0  0  0  0
    7.7017   -7.2975    0.0000 C   0  0  0  0  0  0  0  0  0  0  0  0
    8.8136   -8.5662    0.0000 H   0  0  0  0  0  0  0  0  0  0  0  0
  1  2  1  0  0  0  0
  2  3  1  0  0  0  0
  3  4  1  0  0  0  0
  4  5  1  0  0  0  0
  5  6  1  0  0  0  0
  6  1  1  0  0  0  0
  4  7  1  0  0  0  0
  7  8  1  0  0  0  0
  8  9  1  0  0  0  0
  9 10  2  0  0  0  0
 10  5  1  0  0  0  0
  9 11  1  0  0  0  0
 11 12  1  0  0  0  0
 12 13  1  0  0  0  0
 13 14  1  0  0  0  0
 14 10  1  0  0  0  0
 14 16  2  0  0  0  0
  8 17  2  0  0  0  0
  3 18  1  0  0  0  0
  5 19  1  1  0  0  0
 13 20  1  1  0  0  0
 12 21  1  1  0  0  0
 11 22  1  6  0  0  0
  4 23  1  6  0  0  0
  3 24  1  0  0  0  0
  2 25  1  1  0  0  0
 28 26  2  0  0  0  0
 20 28  1  0  0  0  0
 28 27  1  0  0  0  0
 11 29  1  0  0  0  0
 29 30  1  0  0  0  0
 30 31  1  0  0  0  0
 31 12  1  0  0  0  0
 29 15  2  0  0  0  0
 31 32  1  0  0  0  0
 32 33  1  0  0  0  0
 33 34  1  0  0  0  0
 34 35  1  0  0  0  0
 35 36  2  0  0  0  0
 35 37  1  0  0  0  0
 32 38  1  6  0  0  0
 31 39  1  6  0  0  0
M  END
>  <cdx:fragmentId>
5

$$$$
