90868.cdx
  Mrv1902 05222410242D          

 41 45  0  0  0  0            999 V2000
    9.9889  -11.0390    0.0000 O   0  0  0  0  0  0  0  0  0  0  0  0
    8.5501  -11.8468    0.0000 O   0  0  0  0  0  0  0  0  0  0  0  0
    7.1213  -11.8296    0.0000 O   0  0  0  0  0  0  0  0  0  0  0  0
    7.1312  -11.0047    0.0000 C   0  0  0  0  0  0  0  0  0  0  0  0
   11.4475   -8.5814    0.0000 O   0  0  0  0  0  0  0  0  0  0  0  0
   12.8664   -9.4235    0.0000 O   0  0  0  0  0  0  0  0  0  0  0  0
   12.8466  -11.0734    0.0000 O   0  0  0  0  0  0  0  0  0  0  0  0
   11.4078  -11.8811    0.0000 C   0  0  0  0  0  0  0  0  0  0  0  0
   11.4177  -11.0562    0.0000 C   0  0  1  0  0  0  0  0  0  0  0  0
   12.1371  -10.6523    0.0000 C   0  0  1  0  0  0  0  0  0  0  0  0
   12.1470   -9.8274    0.0000 C   0  0  2  0  0  0  0  0  0  0  0  0
   11.4376   -9.4063    0.0000 C   0  0  2  0  0  0  0  0  0  0  0  0
   10.7182   -9.8102    0.0000 C   0  0  1  0  0  0  0  0  0  0  0  0
   10.7083  -10.6351    0.0000 O   0  0  0  0  0  0  0  0  0  0  0  0
   10.0087   -9.3892    0.0000 O   0  0  0  0  0  0  0  0  0  0  0  0
    7.8506  -10.6008    0.0000 C   0  0  2  0  0  0  0  0  0  0  0  0
    8.5601  -11.0219    0.0000 C   0  0  2  0  0  0  0  0  0  0  0  0
    9.2794  -10.6180    0.0000 C   0  0  1  0  0  0  0  0  0  0  0  0
    9.2893   -9.7930    0.0000 C   0  0  2  0  0  0  0  0  0  0  0  0
    8.5799   -9.3720    0.0000 C   0  0  1  0  0  0  0  0  0  0  0  0
    7.8605   -9.7759    0.0000 O   0  0  0  0  0  0  0  0  0  0  0  0
    8.5898   -8.5470    0.0000 O   0  0  0  0  0  0  0  0  0  0  0  0
    7.1609   -6.8970    0.0000 C   0  0  0  0  0  0  0  0  0  0  0  0
    7.8753   -7.3095    0.0000 C   0  0  0  0  0  0  0  0  0  0  0  0
    7.8753   -8.1345    0.0000 C   0  0  0  0  0  0  0  0  0  0  0  0
    7.1608   -8.5470    0.0000 C   0  0  0  0  0  0  0  0  0  0  0  0
    6.4464   -8.1345    0.0000 C   0  0  0  0  0  0  0  0  0  0  0  0
    6.4464   -7.3095    0.0000 C   0  0  0  0  0  0  0  0  0  0  0  0
    3.5885   -8.1345    0.0000 O   0  0  0  0  0  0  0  0  0  0  0  0
    2.1596   -5.6595    0.0000 O   0  0  0  0  0  0  0  0  0  0  0  0
    5.0174   -8.1345    0.0000 O   0  0  0  0  0  0  0  0  0  0  0  0
    5.0175   -5.6595    0.0000 O   0  0  0  0  0  0  0  0  0  0  0  0
    4.3030   -6.0720    0.0000 C   0  0  0  0  0  0  0  0  0  0  0  0
    3.5885   -5.6595    0.0000 C   0  0  0  0  0  0  0  0  0  0  0  0
    2.8740   -6.0720    0.0000 C   0  0  0  0  0  0  0  0  0  0  0  0
    2.8740   -6.8970    0.0000 C   0  0  0  0  0  0  0  0  0  0  0  0
    3.5885   -7.3095    0.0000 C   0  0  0  0  0  0  0  0  0  0  0  0
    4.3030   -6.8970    0.0000 C   0  0  0  0  0  0  0  0  0  0  0  0
    5.0174   -7.3095    0.0000 C   0  0  0  0  0  0  0  0  0  0  0  0
    5.7319   -6.8970    0.0000 C   0  0  0  0  0  0  0  0  0  0  0  0
    5.7319   -6.0720    0.0000 C   0  0  0  0  0  0  0  0  0  0  0  0
 40 28  1  0  0  0  0
 25 22  1  0  0  0  0
 20 22  1  1  0  0  0
 18  1  1  1  0  0  0
 17  2  1  6  0  0  0
 16  4  1  1  0  0  0
  4  3  1  0  0  0  0
 19 15  1  6  0  0  0
 13 15  1  1  0  0  0
 12  5  1  6  0  0  0
 11  6  1  6  0  0  0
 10  7  1  1  0  0  0
  9  8  1  6  0  0  0
 14  9  1  0  0  0  0
 10  9  1  0  0  0  0
 11 10  1  0  0  0  0
 12 11  1  0  0  0  0
 13 12  1  0  0  0  0
 14 13  1  0  0  0  0
 21 16  1  0  0  0  0
 17 16  1  0  0  0  0
 18 17  1  0  0  0  0
 19 18  1  0  0  0  0
 20 19  1  0  0  0  0
 21 20  1  0  0  0  0
 28 23  2  0  0  0  0
 24 23  1  0  0  0  0
 25 24  2  0  0  0  0
 26 25  1  0  0  0  0
 27 26  2  0  0  0  0
 28 27  1  0  0  0  0
 37 29  1  0  0  0  0
 35 30  1  0  0  0  0
 39 31  2  0  0  0  0
 41 32  1  0  0  0  0
 33 32  1  0  0  0  0
 38 33  2  0  0  0  0
 34 33  1  0  0  0  0
 35 34  2  0  0  0  0
 36 35  1  0  0  0  0
 37 36  2  0  0  0  0
 38 37  1  0  0  0  0
 39 38  1  0  0  0  0
 40 39  1  0  0  0  0
 41 40  2  0  0  0  0
M  END
>  <cdx:fragmentId>
84345

$$$$
