90860.cdx
  Mrv1902 05222410212D          

 38 40  0  0  0  0            999 V2000
    5.2363  -10.6144    0.0000 C   0  0  0  0  0  0  0  0  0  0  0  0
    4.8238  -11.3289    0.0000 C   0  0  0  0  0  0  0  0  0  0  0  0
    5.2363  -12.0434    0.0000 C   0  0  0  0  0  0  0  0  0  0  0  0
    6.0613  -12.0434    0.0000 C   0  0  0  0  0  0  0  0  0  0  0  0
    6.4738  -11.3289    0.0000 C   0  0  0  0  0  0  0  0  0  0  0  0
    6.0613  -10.6144    0.0000 C   0  0  0  0  0  0  0  0  0  0  0  0
    3.9988  -11.3289    0.0000 O   0  0  0  0  0  0  0  0  0  0  0  0
    4.8238   -9.9000    0.0000 O   0  0  0  0  0  0  0  0  0  0  0  0
    3.9988   -9.9000    0.0000 C   0  0  0  0  0  0  0  0  0  0  0  0
    4.8238  -12.7578    0.0000 O   0  0  0  0  0  0  0  0  0  0  0  0
    3.9988  -12.7578    0.0000 C   0  0  0  0  0  0  0  0  0  0  0  0
    7.2988  -11.3289    0.0000 C   0  0  0  0  0  0  0  0  0  0  0  0
    7.7113  -10.6144    0.0000 C   0  0  0  0  0  0  0  0  0  0  0  0
    8.5363  -10.6144    0.0000 C   0  0  0  0  0  0  0  0  0  0  0  0
    7.2988   -9.9000    0.0000 C   0  0  0  0  0  0  0  0  0  0  0  0
    6.4738   -9.9000    0.0000 O   0  0  0  0  0  0  0  0  0  0  0  0
    8.9488  -11.3289    0.0000 C   0  0  0  0  0  0  0  0  0  0  0  0
    9.7738  -11.3289    0.0000 C   0  0  0  0  0  0  0  0  0  0  0  0
   10.1863  -10.6144    0.0000 C   0  0  0  0  0  0  0  0  0  0  0  0
    9.7738   -9.9000    0.0000 C   0  0  0  0  0  0  0  0  0  0  0  0
    8.9488   -9.9000    0.0000 C   0  0  0  0  0  0  0  0  0  0  0  0
    8.5363  -12.0434    0.0000 O   0  0  0  0  0  0  0  0  0  0  0  0
   10.1863  -12.0434    0.0000 O   0  0  0  0  0  0  0  0  0  0  0  0
   11.0113  -12.0434    0.0000 C   0  0  0  0  0  0  0  0  0  0  0  0
   10.1863   -9.1855    0.0000 C   0  0  0  0  0  0  0  0  0  0  0  0
    9.7738   -8.4710    0.0000 C   0  0  0  0  0  0  0  0  0  0  0  0
   11.0113   -9.1855    0.0000 O   0  0  0  0  0  0  0  0  0  0  0  0
    6.0613   -9.1855    0.0000 C   0  0  1  0  0  0  0  0  0  0  0  0
    6.4738   -8.4710    0.0000 C   0  0  1  0  0  0  0  0  0  0  0  0
    6.0613   -7.7565    0.0000 C   0  0  2  0  0  0  0  0  0  0  0  0
    5.2363   -7.7565    0.0000 C   0  0  1  0  0  0  0  0  0  0  0  0
    4.8238   -8.4710    0.0000 C   0  0  2  0  0  0  0  0  0  0  0  0
    5.2363   -9.1855    0.0000 O   0  0  0  0  0  0  0  0  0  0  0  0
    3.9988   -8.4710    0.0000 C   0  0  0  0  0  0  0  0  0  0  0  0
    6.4738   -7.0421    0.0000 O   0  0  0  0  0  0  0  0  0  0  0  0
    4.8238   -7.0421    0.0000 O   0  0  0  0  0  0  0  0  0  0  0  0
    7.2988   -8.4710    0.0000 O   0  0  0  0  0  0  0  0  0  0  0  0
    3.4154   -9.0544    0.0000 O   0  0  0  0  0  0  0  0  0  0  0  0
  1  2  2  0  0  0  0
  2  3  1  0  0  0  0
  3  4  2  0  0  0  0
  4  5  1  0  0  0  0
  5  6  2  0  0  0  0
  6  1  1  0  0  0  0
  2  7  1  0  0  0  0
  1  8  1  0  0  0  0
  8  9  1  0  0  0  0
  3 10  1  0  0  0  0
 10 11  1  0  0  0  0
  5 12  1  0  0  0  0
 12 13  1  0  0  0  0
 13 14  1  0  0  0  0
 13 15  1  0  0  0  0
 15 16  1  0  0  0  0
 14 17  2  0  0  0  0
 17 18  1  0  0  0  0
 18 19  2  0  0  0  0
 19 20  1  0  0  0  0
 20 21  2  0  0  0  0
 21 14  1  0  0  0  0
 17 22  1  0  0  0  0
 18 23  1  0  0  0  0
 23 24  1  0  0  0  0
 20 25  1  0  0  0  0
 25 26  1  0  0  0  0
 25 27  1  0  0  0  0
 28 16  1  6  0  0  0
 28 29  1  0  0  0  0
 29 30  1  0  0  0  0
 30 31  1  0  0  0  0
 31 32  1  0  0  0  0
 32 33  1  0  0  0  0
 33 28  1  0  0  0  0
 32 34  1  6  0  0  0
 30 35  1  6  0  0  0
 31 36  1  1  0  0  0
 29 37  1  1  0  0  0
 34 38  1  0  0  0  0
M  END
>  <cdx:fragmentId>
5

$$$$
