90861.cdx
  Mrv1902 05222410212D          

 38 41  0  0  0  0            999 V2000
    9.2243  -10.5864    0.0000 C   0  0  0  0  0  0  0  0  0  0  0  0
    9.2243  -11.4114    0.0000 C   0  0  0  0  0  0  0  0  0  0  0  0
    9.9388  -11.8239    0.0000 C   0  0  0  0  0  0  0  0  0  0  0  0
   10.6532  -11.4114    0.0000 C   0  0  0  0  0  0  0  0  0  0  0  0
   10.6532  -10.5864    0.0000 C   0  0  0  0  0  0  0  0  0  0  0  0
    9.9388  -10.1739    0.0000 C   0  0  0  0  0  0  0  0  0  0  0  0
    9.9388  -12.6489    0.0000 O   0  0  0  0  0  0  0  0  0  0  0  0
   10.6532  -13.0614    0.0000 C   0  0  0  0  0  0  0  0  0  0  0  0
   11.3677  -10.1739    0.0000 C   0  0  0  0  0  0  0  0  0  0  0  0
   11.3677   -9.3489    0.0000 C   0  0  0  0  0  0  0  0  0  0  0  0
    8.4397  -10.3315    0.0000 C   0  0  2  0  0  0  0  0  0  0  0  0
    7.9548  -10.9989    0.0000 C   0  0  1  0  0  0  0  0  0  0  0  0
    8.4397  -11.6663    0.0000 O   0  0  0  0  0  0  0  0  0  0  0  0
   12.0822  -10.5864    0.0000 O   0  0  0  0  0  0  0  0  0  0  0  0
    7.1298  -10.9989    0.0000 C   0  0  0  0  0  0  0  0  0  0  0  0
    8.1847   -9.5468    0.0000 C   0  0  0  0  0  0  0  0  0  0  0  0
    8.7368   -8.9337    0.0000 O   0  0  0  0  0  0  0  0  0  0  0  0
    6.7173  -10.2844    0.0000 C   0  0  0  0  0  0  0  0  0  0  0  0
    5.8923  -10.2844    0.0000 C   0  0  0  0  0  0  0  0  0  0  0  0
    5.4798  -10.9989    0.0000 C   0  0  0  0  0  0  0  0  0  0  0  0
    5.8923  -11.7134    0.0000 C   0  0  0  0  0  0  0  0  0  0  0  0
    6.7173  -11.7134    0.0000 C   0  0  0  0  0  0  0  0  0  0  0  0
    5.4798   -9.5700    0.0000 O   0  0  0  0  0  0  0  0  0  0  0  0
    5.8923   -8.8555    0.0000 C   0  0  0  0  0  0  0  0  0  0  0  0
    5.4798  -12.4278    0.0000 O   0  0  0  0  0  0  0  0  0  0  0  0
    4.6548  -12.4278    0.0000 C   0  0  0  0  0  0  0  0  0  0  0  0
    4.6548  -10.9989    0.0000 O   0  0  0  0  0  0  0  0  0  0  0  0
    3.9403  -10.5864    0.0000 C   0  0  2  0  0  0  0  0  0  0  0  0
    3.9403   -9.7614    0.0000 O   0  0  0  0  0  0  0  0  0  0  0  0
    3.2258   -9.3489    0.0000 C   0  0  1  0  0  0  0  0  0  0  0  0
    2.5113   -9.7614    0.0000 C   0  0  2  0  0  0  0  0  0  0  0  0
    2.5113  -10.5864    0.0000 C   0  0  1  0  0  0  0  0  0  0  0  0
    3.2258  -10.9989    0.0000 C   0  0  1  0  0  0  0  0  0  0  0  0
    3.2258   -8.5239    0.0000 C   0  0  0  0  0  0  0  0  0  0  0  0
    3.9403   -8.1114    0.0000 O   0  0  0  0  0  0  0  0  0  0  0  0
    1.7969  -10.9989    0.0000 O   0  0  0  0  0  0  0  0  0  0  0  0
    1.7969   -9.3489    0.0000 O   0  0  0  0  0  0  0  0  0  0  0  0
    3.2258  -11.8239    0.0000 O   0  0  0  0  0  0  0  0  0  0  0  0
  1  2  2  0  0  0  0
  2  3  1  0  0  0  0
  3  4  2  0  0  0  0
  4  5  1  0  0  0  0
  5  6  2  0  0  0  0
  6  1  1  0  0  0  0
  3  7  1  0  0  0  0
  7  8  1  0  0  0  0
  5  9  1  0  0  0  0
  9 10  1  0  0  0  0
  1 11  1  0  0  0  0
 11 12  1  0  0  0  0
 12 13  1  0  0  0  0
 13  2  1  0  0  0  0
  9 14  1  0  0  0  0
 12 15  1  1  0  0  0
 11 16  1  6  0  0  0
 16 17  1  0  0  0  0
 15 18  2  0  0  0  0
 18 19  1  0  0  0  0
 19 20  2  0  0  0  0
 20 21  1  0  0  0  0
 21 22  2  0  0  0  0
 22 15  1  0  0  0  0
 19 23  1  0  0  0  0
 23 24  1  0  0  0  0
 21 25  1  0  0  0  0
 25 26  1  0  0  0  0
 20 27  1  0  0  0  0
 28 27  1  1  0  0  0
 28 29  1  0  0  0  0
 29 30  1  0  0  0  0
 30 31  1  0  0  0  0
 31 32  1  0  0  0  0
 32 33  1  0  0  0  0
 33 28  1  0  0  0  0
 30 34  1  1  0  0  0
 34 35  1  0  0  0  0
 32 36  1  1  0  0  0
 31 37  1  6  0  0  0
 33 38  1  6  0  0  0
M  END
>  <cdx:fragmentId>
5

$$$$
