90873.cdx
  Mrv1902 05222410222D          

 58 64  0  0  0  0            999 V2000
    6.1646  -12.2249    0.0000 H   0  0  0  0  0  0  0  0  0  0  0  0
    8.4370  -10.6946    0.0000 H   0  0  0  0  0  0  0  0  0  0  0  0
   10.0477   -8.8314    0.0000 H   0  0  0  0  0  0  0  0  0  0  0  0
   10.2181   -7.4127    0.0000 H   0  0  0  0  0  0  0  0  0  0  0  0
    7.5904   -8.5362    0.0000 H   0  0  0  0  0  0  0  0  0  0  0  0
    8.7338   -9.3932    0.0000 H   0  0  0  0  0  0  0  0  0  0  0  0
    7.5812  -13.0710    0.0000 C   0  0  0  0  0  0  0  0  0  0  0  0
    9.0099  -13.0922    0.0000 O   0  0  0  0  0  0  0  0  0  0  0  0
    8.3017  -12.6691    0.0000 C   0  0  0  0  0  0  0  0  0  0  0  0
    8.3139  -11.8442    0.0000 O   0  0  0  0  0  0  0  0  0  0  0  0
   10.3835   -8.5676    0.0000 O   0  0  0  0  0  0  0  0  0  0  0  0
   10.3720   -9.5900    0.0000 O   0  0  0  0  0  0  0  0  0  0  0  0
    7.4199   -9.9550    0.0000 O   0  0  0  0  0  0  0  0  0  0  0  0
    5.4441  -12.6267    0.0000 O   0  0  0  0  0  0  0  0  0  0  0  0
    8.4260   -5.0386    0.0000 C   0  0  0  0  0  0  0  0  0  0  0  0
   10.4819   -7.7485    0.0000 C   0  0  0  0  0  0  0  0  0  0  0  0
    6.8973  -10.9981    0.0000 C   0  0  0  0  0  0  0  0  0  0  0  0
   10.0312  -12.4275    0.0000 C   0  0  0  0  0  0  0  0  0  0  0  0
   10.6964  -10.3485    0.0000 O   0  0  0  0  0  0  0  0  0  0  0  0
   11.6694  -12.6242    0.0000 C   0  0  0  0  0  0  0  0  0  0  0  0
   11.3451  -11.8657    0.0000 C   0  0  0  0  0  0  0  0  0  0  0  0
   10.5260  -11.7673    0.0000 C   0  0  2  0  0  0  0  0  0  0  0  0
   10.2016  -11.0087    0.0000 C   0  0  0  0  0  0  0  0  0  0  0  0
    9.3825  -10.9103    0.0000 O   0  0  0  0  0  0  0  0  0  0  0  0
    7.0930   -9.3689    0.0000 C   0  0  0  0  0  0  0  0  0  0  0  0
    6.9096  -10.1732    0.0000 C   0  0  2  0  0  0  0  0  0  0  0  0
    5.6803  -10.5385    0.0000 O   0  0  0  0  0  0  0  0  0  0  0  0
    5.4563  -11.8018    0.0000 C   0  0  2  0  0  0  0  0  0  0  0  0
    4.7480  -11.3788    0.0000 C   0  0  2  0  0  0  0  0  0  0  0  0
    4.7603  -10.5539    0.0000 C   0  0  0  0  0  0  0  0  0  0  0  0
    5.4808  -10.1520    0.0000 C   0  0  0  0  0  0  0  0  0  0  0  0
    6.1891  -10.5751    0.0000 C   0  0  2  0  0  0  0  0  0  0  0  0
    6.1768  -11.4000    0.0000 C   0  0  2  0  0  0  0  0  0  0  0  0
    6.8851  -11.8230    0.0000 C   0  0  0  0  0  0  0  0  0  0  0  0
    7.6056  -11.4212    0.0000 C   0  0  2  0  0  0  0  0  0  0  0  0
    7.6178  -10.5962    0.0000 C   0  0  1  0  0  0  0  0  0  0  0  0
    8.2391  -10.0534    0.0000 C   0  0  1  0  0  0  0  0  0  0  0  0
    9.0582  -10.1518    0.0000 C   0  0  2  0  0  0  0  0  0  0  0  0
    9.5529   -9.4916    0.0000 C   0  0  1  0  0  0  0  0  0  0  0  0
    9.2286   -8.7330    0.0000 C   0  0  2  0  0  0  0  0  0  0  0  0
    9.7233   -8.0728    0.0000 C   0  0  1  0  0  0  0  0  0  0  0  0
    9.3990   -7.3143    0.0000 C   0  0  2  0  0  0  0  0  0  0  0  0
    9.8938   -6.6541    0.0000 C   0  0  0  0  0  0  0  0  0  0  0  0
    9.5694   -5.8955    0.0000 C   0  0  0  0  0  0  0  0  0  0  0  0
    8.7503   -5.7971    0.0000 C   0  0  1  0  0  0  0  0  0  0  0  0
    8.2555   -6.4573    0.0000 C   0  0  0  0  0  0  0  0  0  0  0  0
    8.5799   -7.2159    0.0000 N   0  0  0  0  0  0  0  0  0  0  0  0
    8.0851   -7.8761    0.0000 C   0  0  0  0  0  0  0  0  0  0  0  0
    8.4095   -8.6346    0.0000 C   0  0  1  0  0  0  0  0  0  0  0  0
    7.9147   -9.2948    0.0000 C   0  0  2  0  0  0  0  0  0  0  0  0
    2.8929  -12.2869    0.0000 O   0  0  0  0  0  0  0  0  0  0  0  0
    2.4699  -12.9952    0.0000 C   0  0  0  0  0  0  0  0  0  0  0  0
    4.0275  -11.7807    0.0000 O   0  0  0  0  0  0  0  0  0  0  0  0
    4.7236  -13.0286    0.0000 O   0  0  0  0  0  0  0  0  0  0  0  0
    2.5621  -14.2342    0.0000 C   0  0  0  0  0  0  0  0  0  0  0  0
    3.2826  -13.8323    0.0000 C   0  0  0  0  0  0  0  0  0  0  0  0
    3.2948  -13.0074    0.0000 C   0  0  1  0  0  0  0  0  0  0  0  0
    4.0153  -12.6056    0.0000 C   0  0  0  0  0  0  0  0  0  0  0  0
 33  1  1  1  0  0  0
 36  2  1  1  0  0  0
 40  3  1  6  0  0  0
 42  4  1  6  0  0  0
 49  5  1  1  0  0  0
 50  6  1  6  0  0  0
 29 53  1  1  0  0  0
 35 10  1  6  0  0  0
 10  9  1  0  0  0  0
  9  7  1  0  0  0  0
  9  8  2  0  0  0  0
 41 11  1  1  0  0  0
 39 12  1  1  0  0  0
 37 13  1  6  0  0  0
 28 14  1  1  0  0  0
 45 15  1  1  0  0  0
 41 16  1  6  0  0  0
 32 17  1  1  0  0  0
 38 24  1  6  0  0  0
 24 23  1  0  0  0  0
 22 18  1  1  0  0  0
 23 19  2  0  0  0  0
 21 20  1  0  0  0  0
 22 21  1  0  0  0  0
 23 22  1  0  0  0  0
 47 42  1  0  0  0  0
 49 40  1  0  0  0  0
 33 28  1  0  0  0  0
 36 26  1  0  0  0  0
 32 26  1  0  0  0  0
 50 37  1  0  0  0  0
 50 25  1  0  0  0  0
 26 25  1  1  0  0  0
 26 27  1  0  0  0  0
 28 27  1  0  0  0  0
 29 28  1  0  0  0  0
 30 29  1  0  0  0  0
 31 30  1  0  0  0  0
 32 31  1  0  0  0  0
 33 32  1  0  0  0  0
 34 33  1  0  0  0  0
 35 34  1  0  0  0  0
 36 35  1  0  0  0  0
 37 36  1  0  0  0  0
 38 37  1  0  0  0  0
 39 38  1  0  0  0  0
 40 39  1  0  0  0  0
 41 40  1  0  0  0  0
 42 41  1  0  0  0  0
 43 42  1  0  0  0  0
 44 43  1  0  0  0  0
 45 44  1  0  0  0  0
 46 45  1  0  0  0  0
 47 46  1  0  0  0  0
 48 47  1  0  0  0  0
 49 48  1  0  0  0  0
 50 49  1  0  0  0  0
 57 51  1  6  0  0  0
 57 52  1  1  0  0  0
 58 53  1  0  0  0  0
 58 54  2  0  0  0  0
 56 55  1  0  0  0  0
 57 56  1  0  0  0  0
 58 57  1  0  0  0  0
M  END
>  <cdx:fragmentId>
220

$$$$
