90875.cdx
  Mrv1902 05222410212D          

 36 41  0  0  0  0            999 V2000
    5.0288   -8.2715    0.0000 C   0  0  2  0  0  0  0  0  0  0  0  0
    4.8394   -9.0744    0.0000 C   0  0  0  0  0  0  0  0  0  0  0  0
    5.3490   -9.7232    0.0000 C   0  0  0  0  0  0  0  0  0  0  0  0
    6.1740   -9.7293    0.0000 C   0  0  2  0  0  0  0  0  0  0  0  0
    6.6931   -9.0880    0.0000 C   0  0  2  0  0  0  0  0  0  0  0  0
    6.5154   -8.2824    0.0000 C   0  0  1  0  0  0  0  0  0  0  0  0
    5.7747   -7.9190    0.0000 C   0  0  1  0  0  0  0  0  0  0  0  0
    7.2004   -7.8227    0.0000 C   0  0  2  0  0  0  0  0  0  0  0  0
    7.1448   -6.9995    0.0000 C   0  0  0  0  0  0  0  0  0  0  0  0
    6.4042   -6.6361    0.0000 C   0  0  0  0  0  0  0  0  0  0  0  0
    5.7191   -7.0959    0.0000 C   0  0  1  0  0  0  0  0  0  0  0  0
    6.6234  -10.4211    0.0000 C   0  0  2  0  0  0  0  0  0  0  0  0
    7.4202  -10.2075    0.0000 C   0  0  2  0  0  0  0  0  0  0  0  0
    7.4633   -9.3836    0.0000 C   0  0  0  0  0  0  0  0  0  0  0  0
    7.9411   -8.1861    0.0000 O   0  0  0  0  0  0  0  0  0  0  0  0
    8.6261   -7.7263    0.0000 C   0  0  0  0  0  0  0  0  0  0  0  0
    5.7200  -10.3125    0.0000 C   0  0  2  0  0  0  0  0  0  0  0  0
    6.8060   -9.9707    0.0000 C   0  0  2  0  0  0  0  0  0  0  0  0
    5.3075  -11.0270    0.0000 O   0  0  0  0  0  0  0  0  0  0  0  0
    6.9025   -9.4600    0.0000 O   0  0  0  0  0  0  0  0  0  0  0  0
    7.9745   -9.6525    0.0000 C   0  0  0  0  0  0  0  0  0  0  0  0
    5.1150   -7.2325    0.0000 C   0  0  0  0  0  0  0  0  0  0  0  0
    5.8009   -8.6949    0.0000 C   0  0  0  0  0  0  0  0  0  0  0  0
    5.1150   -7.7825    0.0000 N   0  0  0  0  0  0  0  0  0  0  0  0
    4.4741   -8.4797    0.0000 C   0  0  0  0  0  0  0  0  0  0  0  0
    3.7415   -8.1004    0.0000 C   0  0  0  0  0  0  0  0  0  0  0  0
    5.3900   -8.9925    0.0000 O   0  0  0  0  0  0  0  0  0  0  0  0
    8.0036  -10.7908    0.0000 H   0  0  0  0  0  0  0  0  0  0  0  0
    6.6234  -11.2461    0.0000 O   0  0  0  0  0  0  0  0  0  0  0  0
    7.2764   -8.5047    0.0000 H   0  0  0  0  0  0  0  0  0  0  0  0
    6.1740  -10.5543    0.0000 H   0  0  0  0  0  0  0  0  0  0  0  0
    4.4455   -7.6881    0.0000 H   0  0  0  0  0  0  0  0  0  0  0  0
    5.2828   -6.3957    0.0000 C   0  0  0  0  0  0  0  0  0  0  0  0
    5.6709   -5.6677    0.0000 O   0  0  0  0  0  0  0  0  0  0  0  0
    5.2346   -4.9676    0.0000 C   0  0  0  0  0  0  0  0  0  0  0  0
    6.4892   -7.5065    0.0000 H   0  0  0  0  0  0  0  0  0  0  0  0
  1  2  1  0  0  0  0
  2  3  2  0  0  0  0
  3  4  1  0  0  0  0
  4  5  1  0  0  0  0
  5  6  1  0  0  0  0
  6  7  1  0  0  0  0
  6  8  1  0  0  0  0
  8  9  1  0  0  0  0
  9 10  1  0  0  0  0
 10 11  1  0  0  0  0
 11  7  1  0  0  0  0
  4 12  1  0  0  0  0
 12 13  1  0  0  0  0
 13 14  1  0  0  0  0
 14  5  1  0  0  0  0
  8 15  1  6  0  0  0
 15 16  1  0  0  0  0
  3 17  1  0  0  0  0
 18 13  1  0  0  0  0
 17 19  1  6  0  0  0
 18 20  1  6  0  0  0
 20 21  1  0  0  0  0
 11 22  1  0  0  0  0
  6 23  1  6  0  0  0
 23 24  1  0  0  0  0
 24 22  1  0  0  0  0
 25 26  1  0  0  0  0
 23 27  1  0  0  0  0
  1 27  1  0  0  0  0
 13 28  1  6  0  0  0
 12 29  1  6  0  0  0
  5 30  1  1  0  0  0
  4 31  1  1  0  0  0
 17 18  1  0  0  0  0
 24 25  1  0  0  0  0
 11 33  1  1  0  0  0
 33 34  1  0  0  0  0
 34 35  1  0  0  0  0
  1  7  1  0  0  0  0
  7 36  1  1  0  0  0
  1 32  1  1  0  0  0
M  END
>  <cdx:fragmentId>
5

$$$$
