90872.cdx
  Mrv1902 05222410232D          

 18 18  0  0  0  0            999 V2000
    7.1094   -8.6060    0.0000 C   0  0  0  0  0  0  0  0  0  0  0  0
    6.3947   -9.0181    0.0000 C   0  0  0  0  0  0  0  0  0  0  0  0
    6.3943   -9.8431    0.0000 C   0  0  0  0  0  0  0  0  0  0  0  0
    7.1085  -10.2560    0.0000 C   0  0  0  0  0  0  0  0  0  0  0  0
    7.8232   -9.8439    0.0000 C   0  0  0  0  0  0  0  0  0  0  0  0
    7.8237   -9.0189    0.0000 C   0  0  0  0  0  0  0  0  0  0  0  0
    7.1099   -7.7810    0.0000 C   0  0  0  0  0  0  0  0  0  0  0  0
    7.1081  -11.0810    0.0000 C   0  0  0  0  0  0  0  0  0  0  0  0
    5.6805   -8.6053    0.0000 C   0  0  0  0  0  0  0  0  0  0  0  0
    4.9658   -9.0174    0.0000 C   0  0  0  0  0  0  0  0  0  0  0  0
    4.2515   -8.6045    0.0000 C   0  0  0  0  0  0  0  0  0  0  0  0
    3.5369   -9.0166    0.0000 C   0  0  0  0  0  0  0  0  0  0  0  0
    4.2520   -7.7795    0.0000 C   0  0  0  0  0  0  0  0  0  0  0  0
    3.5369   -9.8416    0.0000 C   0  0  0  0  0  0  0  0  0  0  0  0
    4.2513  -10.2541    0.0000 C   0  0  0  0  0  0  0  0  0  0  0  0
    4.2513  -11.0791    0.0000 C   0  0  0  0  0  0  0  0  0  0  0  0
    4.9658  -11.4916    0.0000 C   0  0  0  0  0  0  0  0  0  0  0  0
    3.5369  -11.4916    0.0000 C   0  0  0  0  0  0  0  0  0  0  0  0
  1  2  2  0  0  0  0
  2  3  1  0  0  0  0
  3  4  2  0  0  0  0
  4  5  1  0  0  0  0
  5  6  2  0  0  0  0
  6  1  1  0  0  0  0
  1  7  1  0  0  0  0
  4  8  1  0  0  0  0
  2  9  1  0  0  0  0
  9 10  1  0  0  0  0
 10 11  2  0  0  0  0
 11 12  1  0  0  0  0
 11 13  1  0  0  0  0
 12 14  1  0  0  0  0
 14 15  1  0  0  0  0
 15 16  2  0  0  0  0
 16 17  1  0  0  0  0
 16 18  1  0  0  0  0
M  END
>  <cdx:fragmentId>
44

$$$$
