90878.cdx
  Mrv1902 05222410252D          

 33 36  0  0  0  0            999 V2000
    5.6911  -10.7101    0.0000 O   0  0  0  0  0  0  0  0  0  0  0  0
    7.1200   -9.8851    0.0000 O   0  0  0  0  0  0  0  0  0  0  0  0
   12.1213   -9.4726    0.0000 O   0  0  0  0  0  0  0  0  0  0  0  0
   11.4069  -10.7101    0.0000 C   0  0  0  0  0  0  0  0  0  0  0  0
   11.4069   -9.8851    0.0000 C   0  0  0  0  0  0  0  0  0  0  0  0
   10.6924   -9.4726    0.0000 C   0  0  0  0  0  0  0  0  0  0  0  0
    9.9779   -9.8851    0.0000 C   0  0  0  0  0  0  0  0  0  0  0  0
    9.9779  -12.3601    0.0000 O   0  0  0  0  0  0  0  0  0  0  0  0
   10.6924  -11.1226    0.0000 C   0  0  0  0  0  0  0  0  0  0  0  0
    9.9779  -10.7101    0.0000 C   0  0  0  0  0  0  0  0  0  0  0  0
    7.1200  -13.1851    0.0000 O   0  0  0  0  0  0  0  0  0  0  0  0
    8.5490  -13.1851    0.0000 O   0  0  0  0  0  0  0  0  0  0  0  0
    8.5490  -12.3601    0.0000 C   0  0  0  0  0  0  0  0  0  0  0  0
    9.2634  -11.9476    0.0000 C   0  0  0  0  0  0  0  0  0  0  0  0
    9.2634  -11.1226    0.0000 C   0  0  0  0  0  0  0  0  0  0  0  0
    8.5490  -10.7101    0.0000 O   0  0  0  0  0  0  0  0  0  0  0  0
    7.1200  -12.3601    0.0000 C   0  0  0  0  0  0  0  0  0  0  0  0
    7.8345  -11.9476    0.0000 C   0  0  0  0  0  0  0  0  0  0  0  0
    7.8345  -11.1226    0.0000 C   0  0  0  0  0  0  0  0  0  0  0  0
    7.1200  -10.7101    0.0000 C   0  0  0  0  0  0  0  0  0  0  0  0
    6.4056  -11.1226    0.0000 C   0  0  0  0  0  0  0  0  0  0  0  0
    6.4056  -11.9476    0.0000 C   0  0  0  0  0  0  0  0  0  0  0  0
    4.9766  -11.1226    0.0000 C   0  0  2  0  0  0  0  0  0  0  0  0
    4.2621  -10.7101    0.0000 O   0  0  0  0  0  0  0  0  0  0  0  0
    3.5477  -11.1226    0.0000 C   0  0  1  0  0  0  0  0  0  0  0  0
    3.5477  -11.9476    0.0000 C   0  0  2  0  0  0  0  0  0  0  0  0
    4.2621  -12.3601    0.0000 C   0  0  1  0  0  0  0  0  0  0  0  0
    4.9766  -11.9476    0.0000 C   0  0  1  0  0  0  0  0  0  0  0  0
    2.8332  -10.7101    0.0000 C   0  0  0  0  0  0  0  0  0  0  0  0
    4.2621  -13.1851    0.0000 O   0  0  0  0  0  0  0  0  0  0  0  0
    5.6911  -12.3601    0.0000 O   0  0  0  0  0  0  0  0  0  0  0  0
    2.8332  -12.3601    0.0000 O   0  0  0  0  0  0  0  0  0  0  0  0
    2.1187  -11.1226    0.0000 O   0  0  0  0  0  0  0  0  0  0  0  0
 21  1  1  0  0  0  0
 20  2  1  0  0  0  0
  5  3  1  0  0  0  0
  4  9  1  0  0  0  0
  5  4  2  0  0  0  0
  6  5  1  0  0  0  0
  7  6  2  0  0  0  0
 10  7  1  0  0  0  0
  8 14  1  0  0  0  0
 10  9  2  0  0  0  0
 15 10  1  0  0  0  0
 11 17  1  0  0  0  0
 13 12  2  0  0  0  0
 13 18  1  0  0  0  0
 14 13  1  0  0  0  0
 15 14  2  0  0  0  0
 16 15  1  0  0  0  0
 19 16  1  0  0  0  0
 17 22  1  0  0  0  0
 18 17  2  0  0  0  0
 19 18  1  0  0  0  0
 20 19  2  0  0  0  0
 21 20  1  0  0  0  0
 22 21  2  0  0  0  0
 23  1  1  1  0  0  0
 23 24  1  0  0  0  0
 24 25  1  0  0  0  0
 25 26  1  0  0  0  0
 26 27  1  0  0  0  0
 27 28  1  0  0  0  0
 28 23  1  0  0  0  0
 25 29  1  1  0  0  0
 27 30  1  1  0  0  0
 28 31  1  6  0  0  0
 26 32  1  6  0  0  0
 29 33  1  0  0  0  0
M  END
>  <cdx:fragmentId>
5

$$$$
