90877.cdx
  Mrv1902 05222410212D          

 54 59  0  0  0  0            999 V2000
    5.4553  -10.6337    0.0000 O   0  0  0  0  0  0  0  0  0  0  0  0
    8.3025   -7.3276    0.0000 O   0  0  0  0  0  0  0  0  0  0  0  0
   13.3038   -6.9151    0.0000 O   0  0  0  0  0  0  0  0  0  0  0  0
   12.5894   -8.1526    0.0000 C   0  0  0  0  0  0  0  0  0  0  0  0
   12.5894   -7.3276    0.0000 C   0  0  0  0  0  0  0  0  0  0  0  0
   11.8749   -6.9151    0.0000 C   0  0  0  0  0  0  0  0  0  0  0  0
   11.1604   -7.3276    0.0000 C   0  0  0  0  0  0  0  0  0  0  0  0
   11.1604   -9.8026    0.0000 O   0  0  0  0  0  0  0  0  0  0  0  0
   11.8749   -8.5651    0.0000 C   0  0  0  0  0  0  0  0  0  0  0  0
   11.1604   -8.1526    0.0000 C   0  0  0  0  0  0  0  0  0  0  0  0
    8.3025  -10.6276    0.0000 O   0  0  0  0  0  0  0  0  0  0  0  0
    9.7315  -10.6276    0.0000 O   0  0  0  0  0  0  0  0  0  0  0  0
    9.7315   -9.8026    0.0000 C   0  0  0  0  0  0  0  0  0  0  0  0
   10.4459   -9.3901    0.0000 C   0  0  0  0  0  0  0  0  0  0  0  0
   10.4459   -8.5651    0.0000 C   0  0  0  0  0  0  0  0  0  0  0  0
    9.7315   -8.1526    0.0000 O   0  0  0  0  0  0  0  0  0  0  0  0
    8.3025   -9.8026    0.0000 C   0  0  0  0  0  0  0  0  0  0  0  0
    9.0170   -9.3901    0.0000 C   0  0  0  0  0  0  0  0  0  0  0  0
    9.0170   -8.5651    0.0000 C   0  0  0  0  0  0  0  0  0  0  0  0
    8.3025   -8.1526    0.0000 C   0  0  0  0  0  0  0  0  0  0  0  0
    7.5881   -8.5651    0.0000 C   0  0  0  0  0  0  0  0  0  0  0  0
    7.5881   -9.3901    0.0000 C   0  0  0  0  0  0  0  0  0  0  0  0
    4.7441  -11.0519    0.0000 C   0  0  2  0  0  0  0  0  0  0  0  0
    4.0264  -10.6451    0.0000 O   0  0  0  0  0  0  0  0  0  0  0  0
    3.3152  -11.0632    0.0000 C   0  0  1  0  0  0  0  0  0  0  0  0
    3.3217  -11.8882    0.0000 C   0  0  2  0  0  0  0  0  0  0  0  0
    4.0394  -12.2950    0.0000 C   0  0  1  0  0  0  0  0  0  0  0  0
    4.7506  -11.8769    0.0000 C   0  0  1  0  0  0  0  0  0  0  0  0
    2.5975  -10.6564    0.0000 C   0  0  0  0  0  0  0  0  0  0  0  0
    4.0460  -13.1200    0.0000 O   0  0  0  0  0  0  0  0  0  0  0  0
    5.4683  -12.2837    0.0000 O   0  0  0  0  0  0  0  0  0  0  0  0
    2.6105  -12.3064    0.0000 O   0  0  0  0  0  0  0  0  0  0  0  0
    1.8863  -11.0746    0.0000 O   0  0  0  0  0  0  0  0  0  0  0  0
    6.8806   -9.8026    0.0000 O   0  0  0  0  0  0  0  0  0  0  0  0
    4.0157   -8.1649    0.0000 C   0  0  0  0  0  0  0  0  0  0  0  0
    4.0228   -9.8149    0.0000 O   0  0  0  0  0  0  0  0  0  0  0  0
    5.4447   -8.1588    0.0000 O   0  0  0  0  0  0  0  0  0  0  0  0
    4.7320   -8.5743    0.0000 C   0  0  2  0  0  0  0  0  0  0  0  0
    4.7355   -9.3993    0.0000 C   0  0  1  0  0  0  0  0  0  0  0  0
    5.4517   -9.8088    0.0000 C   0  0  2  0  0  0  0  0  0  0  0  0
    6.1644   -9.3932    0.0000 C   0  0  2  0  0  0  0  0  0  0  0  0
    6.1609   -8.5682    0.0000 C   0  0  2  0  0  0  0  0  0  0  0  0
    6.8736   -8.1526    0.0000 O   0  0  0  0  0  0  0  0  0  0  0  0
   11.1604  -10.6276    0.0000 C   0  0  2  0  0  0  0  0  0  0  0  0
   10.4459  -11.0401    0.0000 O   0  0  0  0  0  0  0  0  0  0  0  0
   10.4459  -11.8651    0.0000 C   0  0  1  0  0  0  0  0  0  0  0  0
   11.1604  -12.2776    0.0000 C   0  0  2  0  0  0  0  0  0  0  0  0
   11.8749  -11.8651    0.0000 C   0  0  1  0  0  0  0  0  0  0  0  0
   11.8749  -11.0401    0.0000 C   0  0  1  0  0  0  0  0  0  0  0  0
    9.7315  -12.2776    0.0000 C   0  0  0  0  0  0  0  0  0  0  0  0
   12.5894  -12.2776    0.0000 O   0  0  0  0  0  0  0  0  0  0  0  0
   11.1604  -13.1026    0.0000 O   0  0  0  0  0  0  0  0  0  0  0  0
   12.5894  -10.6276    0.0000 O   0  0  0  0  0  0  0  0  0  0  0  0
    9.7315  -13.1026    0.0000 O   0  0  0  0  0  0  0  0  0  0  0  0
 21 43  1  0  0  0  0
 20  2  1  0  0  0  0
  5  3  1  0  0  0  0
  4  9  1  0  0  0  0
  5  4  2  0  0  0  0
  6  5  1  0  0  0  0
  7  6  2  0  0  0  0
 10  7  1  0  0  0  0
  8 14  1  0  0  0  0
 10  9  2  0  0  0  0
 15 10  1  0  0  0  0
 11 17  1  0  0  0  0
 13 12  2  0  0  0  0
 13 18  1  0  0  0  0
 14 13  1  0  0  0  0
 15 14  2  0  0  0  0
 16 15  1  0  0  0  0
 19 16  1  0  0  0  0
 17 22  1  0  0  0  0
 18 17  2  0  0  0  0
 19 18  1  0  0  0  0
 20 19  2  0  0  0  0
 21 20  1  0  0  0  0
 22 21  2  0  0  0  0
 23  1  1  1  0  0  0
 23 24  1  0  0  0  0
 24 25  1  0  0  0  0
 25 26  1  0  0  0  0
 26 27  1  0  0  0  0
 27 28  1  0  0  0  0
 28 23  1  0  0  0  0
 25 29  1  1  0  0  0
 27 30  1  1  0  0  0
 28 31  1  6  0  0  0
 26 32  1  6  0  0  0
 41 34  1  6  0  0  0
 40  1  1  6  0  0  0
 29 33  1  0  0  0  0
 38 35  1  6  0  0  0
 39 36  1  1  0  0  0
 37 42  1  0  0  0  0
 38 37  1  0  0  0  0
 39 38  1  0  0  0  0
 40 39  1  0  0  0  0
 41 40  1  0  0  0  0
 42 41  1  0  0  0  0
 42 43  1  1  0  0  0
 44  8  1  1  0  0  0
 44 45  1  0  0  0  0
 45 46  1  0  0  0  0
 46 47  1  0  0  0  0
 47 48  1  0  0  0  0
 48 49  1  0  0  0  0
 49 44  1  0  0  0  0
 46 50  1  1  0  0  0
 48 51  1  1  0  0  0
 47 52  1  6  0  0  0
 49 53  1  6  0  0  0
 50 54  1  0  0  0  0
M  END
>  <cdx:fragmentId>
5

$$$$
