908794.cdx
  Mrv1902 05222410252D          

 44 48  0  0  0  0            999 V2000
    9.9033  -10.1973    0.0000 O   0  0  0  0  0  0  0  0  0  0  0  0
    8.4745  -10.1769    0.0000 O   0  0  0  0  0  0  0  0  0  0  0  0
    2.8275   -5.1480    0.0000 C   0  0  2  0  0  0  0  0  0  0  0  0
    2.1078   -5.5513    0.0000 C   0  0  2  0  0  0  0  0  0  0  0  0
    5.6169  -10.1362    0.0000 O   0  0  0  0  0  0  0  0  0  0  0  0
    2.0972   -6.3763    0.0000 C   0  0  1  0  0  0  0  0  0  0  0  0
    2.8064   -6.7979    0.0000 C   0  0  2  0  0  0  0  0  0  0  0  0
    3.5261   -6.3945    0.0000 C   0  0  1  0  0  0  0  0  0  0  0  0
    3.5366   -5.5696    0.0000 O   0  0  0  0  0  0  0  0  0  0  0  0
    4.1999   -9.2909    0.0000 O   0  0  0  0  0  0  0  0  0  0  0  0
   13.5283   -6.5362    0.0000 O   0  0  0  0  0  0  0  0  0  0  0  0
   12.8315   -5.2886    0.0000 C   0  0  0  0  0  0  0  0  0  0  0  0
   12.1113   -5.6909    0.0000 O   0  0  0  0  0  0  0  0  0  0  0  0
   12.0759   -8.1656    0.0000 C   0  0  0  0  0  0  0  0  0  0  0  0
   12.7962   -7.7633    0.0000 C   0  0  0  0  0  0  0  0  0  0  0  0
   12.8080   -6.9384    0.0000 C   0  0  0  0  0  0  0  0  0  0  0  0
   12.0995   -6.5158    0.0000 C   0  0  0  0  0  0  0  0  0  0  0  0
   11.3674   -7.7430    0.0000 C   0  0  0  0  0  0  0  0  0  0  0  0
   11.3792   -6.9180    0.0000 C   0  0  0  0  0  0  0  0  0  0  0  0
    9.9151   -9.3724    0.0000 C   0  0  0  0  0  0  0  0  0  0  0  0
   10.6354   -8.9701    0.0000 C   0  0  0  0  0  0  0  0  0  0  0  0
   10.6471   -8.1452    0.0000 C   0  0  0  0  0  0  0  0  0  0  0  0
    9.9386   -7.7226    0.0000 O   0  0  0  0  0  0  0  0  0  0  0  0
    8.4863   -9.3520    0.0000 C   0  0  0  0  0  0  0  0  0  0  0  0
    9.2066   -8.9498    0.0000 C   0  0  0  0  0  0  0  0  0  0  0  0
    9.2183   -8.1248    0.0000 C   0  0  0  0  0  0  0  0  0  0  0  0
    8.5098   -7.7022    0.0000 C   0  0  0  0  0  0  0  0  0  0  0  0
    7.0575   -9.3316    0.0000 O   0  0  0  0  0  0  0  0  0  0  0  0
    7.7778   -8.9294    0.0000 C   0  0  0  0  0  0  0  0  0  0  0  0
    7.7896   -8.1045    0.0000 C   0  0  0  0  0  0  0  0  0  0  0  0
    7.0810   -7.6818    0.0000 O   0  0  0  0  0  0  0  0  0  0  0  0
    4.9202   -8.8886    0.0000 C   0  0  1  0  0  0  0  0  0  0  0  0
    5.6287   -9.3112    0.0000 C   0  0  1  0  0  0  0  0  0  0  0  0
    6.3490   -8.9090    0.0000 C   0  0  2  0  0  0  0  0  0  0  0  0
    6.3608   -8.0841    0.0000 C   0  0  1  0  0  0  0  0  0  0  0  0
    4.9320   -8.0637    0.0000 C   0  0  2  0  0  0  0  0  0  0  0  0
    5.6522   -7.6614    0.0000 O   0  0  0  0  0  0  0  0  0  0  0  0
    4.2234   -7.6410    0.0000 C   0  0  0  0  0  0  0  0  0  0  0  0
    4.2352   -6.8161    0.0000 O   0  0  0  0  0  0  0  0  0  0  0  0
    2.8380   -4.3231    0.0000 C   0  0  0  0  0  0  0  0  0  0  0  0
    1.3776   -6.7796    0.0000 O   0  0  0  0  0  0  0  0  0  0  0  0
    1.3986   -5.1297    0.0000 O   0  0  0  0  0  0  0  0  0  0  0  0
    2.7959   -7.6228    0.0000 O   0  0  0  0  0  0  0  0  0  0  0  0
    2.1235   -3.9106    0.0000 O   0  0  0  0  0  0  0  0  0  0  0  0
 20  1  2  0  0  0  0
 24  2  1  0  0  0  0
 33  5  1  1  0  0  0
 32 10  1  6  0  0  0
  3  4  1  0  0  0  0
  4  6  1  0  0  0  0
  6  7  1  0  0  0  0
  7  8  1  0  0  0  0
 11 16  1  0  0  0  0
 13 12  1  0  0  0  0
 17 13  1  0  0  0  0
 14 18  1  0  0  0  0
 15 14  2  0  0  0  0
 16 15  1  0  0  0  0
 17 16  2  0  0  0  0
 19 17  1  0  0  0  0
 18 22  1  0  0  0  0
 19 18  2  0  0  0  0
 20 25  1  0  0  0  0
 21 20  1  0  0  0  0
 22 21  2  0  0  0  0
 23 22  1  0  0  0  0
 26 23  1  0  0  0  0
 24 29  1  0  0  0  0
 25 24  2  0  0  0  0
 26 25  1  0  0  0  0
 27 26  2  0  0  0  0
 30 27  1  0  0  0  0
 34 28  1  6  0  0  0
 30 29  2  0  0  0  0
 31 30  1  0  0  0  0
 35 31  1  1  0  0  0
 32 36  1  0  0  0  0
 33 32  1  0  0  0  0
 34 33  1  0  0  0  0
 35 34  1  0  0  0  0
 37 35  1  0  0  0  0
 36 38  1  1  0  0  0
 37 36  1  0  0  0  0
 39 38  1  0  0  0  0
  8  9  1  0  0  0  0
  9  3  1  0  0  0  0
  8 39  1  1  0  0  0
  3 40  1  1  0  0  0
  6 41  1  1  0  0  0
  4 42  1  6  0  0  0
  7 43  1  6  0  0  0
 40 44  1  0  0  0  0
M  END
>  <cdx:fragmentId>
5

$$$$
