90870.cdx
  Mrv1902 05222410222D          

 17 16  0  0  0  0            999 V2000
    5.2101   -6.0549    0.0000 C   0  0  0  0  0  0  0  0  0  0  0  0
    4.4956   -6.4674    0.0000 C   0  0  0  0  0  0  0  0  0  0  0  0
    3.7811   -6.0549    0.0000 C   0  0  0  0  0  0  0  0  0  0  0  0
    3.0667   -6.4674    0.0000 C   0  0  0  0  0  0  0  0  0  0  0  0
    5.2101   -5.2299    0.0000 O   0  0  0  0  0  0  0  0  0  0  0  0
    5.9246   -6.4674    0.0000 O   0  0  0  0  0  0  0  0  0  0  0  0
    4.4956   -7.2924    0.0000 C   0  0  0  0  0  0  0  0  0  0  0  0
    6.6390   -6.0549    0.0000 C   0  0  0  0  0  0  0  0  0  0  0  0
    7.3535   -6.4674    0.0000 C   0  0  0  0  0  0  0  0  0  0  0  0
    8.0680   -6.0549    0.0000 C   0  0  0  0  0  0  0  0  0  0  0  0
    8.7824   -6.4674    0.0000 C   0  0  0  0  0  0  0  0  0  0  0  0
    9.4969   -6.0549    0.0000 C   0  0  0  0  0  0  0  0  0  0  0  0
   10.2114   -6.4674    0.0000 C   0  0  0  0  0  0  0  0  0  0  0  0
   10.9259   -6.0549    0.0000 C   0  0  0  0  0  0  0  0  0  0  0  0
   10.9259   -5.2299    0.0000 C   0  0  0  0  0  0  0  0  0  0  0  0
   11.6403   -6.4674    0.0000 C   0  0  0  0  0  0  0  0  0  0  0  0
    8.0680   -5.2299    0.0000 C   0  0  0  0  0  0  0  0  0  0  0  0
  1  2  1  0  0  0  0
  2  3  1  0  0  0  0
  3  4  1  0  0  0  0
  1  5  2  0  0  0  0
  1  6  1  0  0  0  0
  2  7  1  0  0  0  0
  8  9  1  0  0  0  0
  9 10  2  0  0  0  0
 10 11  1  0  0  0  0
 11 12  1  0  0  0  0
 12 13  1  0  0  0  0
 13 14  2  0  0  0  0
 14 15  1  0  0  0  0
 14 16  1  0  0  0  0
 10 17  1  0  0  0  0
  6  8  1  0  0  0  0
M  END
>  <cdx:fragmentId>
16164

$$$$
