90871.cdx
  Mrv1902 05222410222D          

 16 15  0  0  0  0            999 V2000
   12.0224   -8.1664    0.0000 C   0  0  0  0  0  0  0  0  0  0  0  0
   11.3080   -8.5789    0.0000 C   0  0  0  0  0  0  0  0  0  0  0  0
   10.5935   -8.1664    0.0000 C   0  0  0  0  0  0  0  0  0  0  0  0
    9.8790   -8.5789    0.0000 C   0  0  0  0  0  0  0  0  0  0  0  0
    9.1645   -8.1664    0.0000 O   0  0  0  0  0  0  0  0  0  0  0  0
    8.4501   -8.5789    0.0000 C   0  0  0  0  0  0  0  0  0  0  0  0
    7.7356   -8.1664    0.0000 C   0  0  0  0  0  0  0  0  0  0  0  0
    7.0211   -8.5789    0.0000 C   0  0  0  0  0  0  0  0  0  0  0  0
    6.3067   -8.1664    0.0000 C   0  0  0  0  0  0  0  0  0  0  0  0
    5.5922   -8.5789    0.0000 C   0  0  0  0  0  0  0  0  0  0  0  0
    4.8777   -8.1664    0.0000 C   0  0  0  0  0  0  0  0  0  0  0  0
    4.1632   -8.5789    0.0000 C   0  0  0  0  0  0  0  0  0  0  0  0
    3.4488   -8.1664    0.0000 C   0  0  0  0  0  0  0  0  0  0  0  0
    4.1632   -9.4039    0.0000 C   0  0  0  0  0  0  0  0  0  0  0  0
    7.0211   -9.4039    0.0000 C   0  0  0  0  0  0  0  0  0  0  0  0
    9.8790   -9.4039    0.0000 O   0  0  0  0  0  0  0  0  0  0  0  0
  2  1  1  0  0  0  0
  3  2  1  0  0  0  0
  4  3  1  0  0  0  0
  5  4  1  0  0  0  0
  6  5  1  0  0  0  0
  7  6  1  0  0  0  0
  8  7  2  0  0  0  0
  9  8  1  0  0  0  0
 10  9  1  0  0  0  0
 11 10  1  0  0  0  0
 12 11  2  0  0  0  0
 13 12  1  0  0  0  0
 12 14  1  0  0  0  0
  8 15  1  0  0  0  0
  4 16  2  0  0  0  0
M  END
>  <cdx:fragmentId>
3

$$$$
