90886.cdx
  Mrv1902 05222410252D          

 44 48  0  0  0  0            999 V2000
    3.6333   -8.3036    0.0000 C   0  0  0  0  0  0  0  0  0  0  0  0
    4.3439   -8.7228    0.0000 C   0  0  0  0  0  0  0  0  0  0  0  0
    5.0622   -8.3171    0.0000 C   0  0  0  0  0  0  0  0  0  0  0  0
    5.0700   -7.4921    0.0000 C   0  0  0  0  0  0  0  0  0  0  0  0
    4.3595   -7.0729    0.0000 C   0  0  0  0  0  0  0  0  0  0  0  0
    3.6412   -7.4786    0.0000 C   0  0  0  0  0  0  0  0  0  0  0  0
    5.7728   -8.7363    0.0000 C   0  0  0  0  0  0  0  0  0  0  0  0
    6.4911   -8.3306    0.0000 C   0  0  0  0  0  0  0  0  0  0  0  0
    6.4989   -7.5056    0.0000 C   0  0  0  0  0  0  0  0  0  0  0  0
    5.7884   -7.0864    0.0000 O   0  0  0  0  0  0  0  0  0  0  0  0
    4.3361   -9.5478    0.0000 O   0  0  0  0  0  0  0  0  0  0  0  0
    5.7649   -9.5613    0.0000 O   0  0  0  0  0  0  0  0  0  0  0  0
    6.4755   -9.9805    0.0000 O   0  0  0  0  0  0  0  0  0  0  0  0
    7.1938   -9.5748    0.0000 C   0  0  1  0  0  0  0  0  0  0  0  0
    7.2016   -8.7499    0.0000 O   0  0  0  0  0  0  0  0  0  0  0  0
    7.9278   -7.5192    0.0000 C   0  0  0  0  0  0  0  0  0  0  0  0
    7.2172   -7.0999    0.0000 C   0  0  0  0  0  0  0  0  0  0  0  0
    8.6461   -7.1135    0.0000 C   0  0  0  0  0  0  0  0  0  0  0  0
    8.6539   -6.2885    0.0000 C   0  0  0  0  0  0  0  0  0  0  0  0
    7.9434   -5.8692    0.0000 C   0  0  0  0  0  0  0  0  0  0  0  0
    7.2251   -6.2750    0.0000 C   0  0  0  0  0  0  0  0  0  0  0  0
    9.3723   -5.8828    0.0000 O   0  0  0  0  0  0  0  0  0  0  0  0
    7.9512   -5.0443    0.0000 O   0  0  0  0  0  0  0  0  0  0  0  0
    6.4677  -10.8055    0.0000 C   0  0  1  0  0  0  0  0  0  0  0  0
    7.1782  -11.2247    0.0000 C   0  0  2  0  0  0  0  0  0  0  0  0
    7.8966  -10.8190    0.0000 C   0  0  1  0  0  0  0  0  0  0  0  0
    7.9044   -9.9941    0.0000 C   0  0  1  0  0  0  0  0  0  0  0  0
    5.7493  -11.2112    0.0000 C   0  0  0  0  0  0  0  0  0  0  0  0
    5.7415  -12.0362    0.0000 O   0  0  0  0  0  0  0  0  0  0  0  0
    7.1704  -12.0497    0.0000 O   0  0  0  0  0  0  0  0  0  0  0  0
    8.6071  -11.2383    0.0000 O   0  0  0  0  0  0  0  0  0  0  0  0
    9.3254  -10.8326    0.0000 O   0  0  0  0  0  0  0  0  0  0  0  0
    9.3332  -10.0076    0.0000 C   0  0  1  0  0  0  0  0  0  0  0  0
    8.6227   -9.5883    0.0000 O   0  0  0  0  0  0  0  0  0  0  0  0
   10.0360  -11.2518    0.0000 C   0  0  2  0  0  0  0  0  0  0  0  0
   10.7543  -10.8461    0.0000 C   0  0  1  0  0  0  0  0  0  0  0  0
   10.7621  -10.0211    0.0000 C   0  0  2  0  0  0  0  0  0  0  0  0
   10.0516   -9.6019    0.0000 C   0  0  1  0  0  0  0  0  0  0  0  0
    2.9306   -7.0594    0.0000 O   0  0  0  0  0  0  0  0  0  0  0  0
    8.6657   -4.6318    0.0000 C   0  0  0  0  0  0  0  0  0  0  0  0
   10.0282  -12.0768    0.0000 C   0  0  0  0  0  0  0  0  0  0  0  0
   11.4648  -11.2653    0.0000 O   0  0  0  0  0  0  0  0  0  0  0  0
   11.4805   -9.6154    0.0000 O   0  0  0  0  0  0  0  0  0  0  0  0
   10.0594   -8.7769    0.0000 O   0  0  0  0  0  0  0  0  0  0  0  0
  1  2  1  0  0  0  0
  2  3  2  0  0  0  0
  3  4  1  0  0  0  0
  4  5  2  0  0  0  0
  5  6  1  0  0  0  0
  6  1  2  0  0  0  0
  3  7  1  0  0  0  0
  7  8  1  0  0  0  0
  8  9  2  0  0  0  0
  9 10  1  0  0  0  0
 10  4  1  0  0  0  0
  2 11  1  0  0  0  0
 12  7  2  0  0  0  0
 13 14  1  0  0  0  0
 14 15  1  1  0  0  0
 15  8  1  0  0  0  0
 16 17  1  0  0  0  0
 17  9  1  0  0  0  0
 16 18  2  0  0  0  0
 18 19  1  0  0  0  0
 19 20  2  0  0  0  0
 20 21  1  0  0  0  0
 21 17  2  0  0  0  0
 19 22  1  0  0  0  0
 23 20  1  0  0  0  0
 13 24  1  0  0  0  0
 24 25  1  0  0  0  0
 25 26  1  0  0  0  0
 26 27  1  0  0  0  0
 27 14  1  0  0  0  0
 24 28  1  1  0  0  0
 28 29  1  0  0  0  0
 25 30  1  6  0  0  0
 26 31  1  1  0  0  0
 32 33  1  0  0  0  0
 33 34  1  1  0  0  0
 27 34  1  6  0  0  0
 32 35  1  0  0  0  0
 35 36  1  0  0  0  0
 36 37  1  0  0  0  0
 37 38  1  0  0  0  0
 38 33  1  0  0  0  0
  6 39  1  0  0  0  0
 23 40  1  0  0  0  0
 35 41  1  6  0  0  0
 36 42  1  1  0  0  0
 37 43  1  6  0  0  0
 38 44  1  6  0  0  0
M  END
>  <cdx:fragmentId>
5

$$$$
