90881.cdx
  Mrv1902 05222410232D          

 15 16  0  0  0  0            999 V2000
    9.1857   -7.5831    0.0000 C   0  0  0  0  0  0  0  0  0  0  0  0
    6.1629   -6.6633    0.0000 C   0  0  0  0  0  0  0  0  0  0  0  0
    6.9654   -6.8547    0.0000 C   0  0  0  0  0  0  0  0  0  0  0  0
    6.5560  -10.1137    0.0000 C   0  0  0  0  0  0  0  0  0  0  0  0
    7.7568   -7.5691    0.0000 C   0  0  0  0  0  0  0  0  0  0  0  0
    8.4672   -7.9886    0.0000 C   0  0  0  0  0  0  0  0  0  0  0  0
    8.4591   -8.8136    0.0000 C   0  0  0  0  0  0  0  0  0  0  0  0
    7.7407   -9.2191    0.0000 C   0  0  0  0  0  0  0  0  0  0  0  0
    6.3984   -7.4540    0.0000 C   0  0  0  0  0  0  0  0  0  0  0  0
    5.5923   -7.6297    0.0000 C   0  0  0  0  0  0  0  0  0  0  0  0
    5.2271   -8.3695    0.0000 C   0  0  0  0  0  0  0  0  0  0  0  0
    5.5778   -9.1162    0.0000 C   0  0  0  0  0  0  0  0  0  0  0  0
    6.3803   -9.3077    0.0000 C   0  0  0  0  0  0  0  0  0  0  0  0
    7.0303   -8.7996    0.0000 C   0  0  0  0  0  0  0  0  0  0  0  0
    7.0383   -7.9746    0.0000 C   0  0  0  0  0  0  0  0  0  0  0  0
  6  1  2  0  0  0  0
  9  2  1  0  0  0  0
  9  3  1  0  0  0  0
 13  4  1  0  0  0  0
  8 14  1  0  0  0  0
  5 15  2  0  0  0  0
  6  5  1  0  0  0  0
  7  6  1  0  0  0  0
  8  7  1  0  0  0  0
 15  9  1  0  0  0  0
 10  9  1  0  0  0  0
 11 10  1  0  0  0  0
 12 11  1  0  0  0  0
 13 12  1  0  0  0  0
 14 13  1  0  0  0  0
 15 14  1  0  0  0  0
M  END
>  <cdx:fragmentId>
5

$$$$
