90884.cdx
  Mrv1902 05222410252D          

 45 49  0  0  0  0            999 V2000
   10.5401  -13.4051    0.0000 O   0  0  0  0  0  0  0  0  0  0  0  0
   11.2545  -12.9926    0.0000 C   0  0  0  0  0  0  0  0  0  0  0  0
    9.1111  -13.4051    0.0000 C   0  0  0  0  0  0  0  0  0  0  0  0
    9.8256  -12.9926    0.0000 C   0  0  0  0  0  0  0  0  0  0  0  0
    9.8256  -12.1676    0.0000 C   0  0  0  0  0  0  0  0  0  0  0  0
    9.1111  -11.7551    0.0000 C   0  0  0  0  0  0  0  0  0  0  0  0
    8.3967  -12.9926    0.0000 C   0  0  0  0  0  0  0  0  0  0  0  0
    8.3967  -12.1676    0.0000 C   0  0  0  0  0  0  0  0  0  0  0  0
    7.6822  -11.7551    0.0000 C   0  0  0  0  0  0  0  0  0  0  0  0
    7.6822  -10.9301    0.0000 C   0  0  0  0  0  0  0  0  0  0  0  0
    6.9677  -10.5176    0.0000 O   0  0  0  0  0  0  0  0  0  0  0  0
    5.5388  -12.9926    0.0000 O   0  0  0  0  0  0  0  0  0  0  0  0
    6.9677  -12.9926    0.0000 O   0  0  0  0  0  0  0  0  0  0  0  0
    6.9677  -12.1676    0.0000 C   0  0  0  0  0  0  0  0  0  0  0  0
    4.1098  -10.5176    0.0000 O   0  0  0  0  0  0  0  0  0  0  0  0
    3.3954  -11.7551    0.0000 C   0  0  0  0  0  0  0  0  0  0  0  0
    4.1098  -12.1676    0.0000 O   0  0  0  0  0  0  0  0  0  0  0  0
    5.5388  -12.1676    0.0000 C   0  0  0  0  0  0  0  0  0  0  0  0
    6.2532  -11.7551    0.0000 C   0  0  0  0  0  0  0  0  0  0  0  0
    6.2532  -10.9301    0.0000 C   0  0  0  0  0  0  0  0  0  0  0  0
    5.5388  -10.5176    0.0000 C   0  0  0  0  0  0  0  0  0  0  0  0
    4.8243  -10.9301    0.0000 C   0  0  0  0  0  0  0  0  0  0  0  0
    4.8243  -11.7551    0.0000 C   0  0  0  0  0  0  0  0  0  0  0  0
    4.1098   -9.6926    0.0000 C   0  0  2  0  0  0  0  0  0  0  0  0
    4.8243   -9.2801    0.0000 O   0  0  0  0  0  0  0  0  0  0  0  0
    4.8243   -8.4551    0.0000 C   0  0  1  0  0  0  0  0  0  0  0  0
    4.1098   -8.0426    0.0000 C   0  0  2  0  0  0  0  0  0  0  0  0
    3.3954   -8.4551    0.0000 C   0  0  1  0  0  0  0  0  0  0  0  0
    3.3954   -9.2801    0.0000 C   0  0  1  0  0  0  0  0  0  0  0  0
    5.5388   -8.0426    0.0000 C   0  0  0  0  0  0  0  0  0  0  0  0
    2.6809   -8.0426    0.0000 O   0  0  0  0  0  0  0  0  0  0  0  0
    2.6809   -9.6926    0.0000 O   0  0  0  0  0  0  0  0  0  0  0  0
    4.1098   -7.2176    0.0000 O   0  0  0  0  0  0  0  0  0  0  0  0
    5.5388   -7.2176    0.0000 O   0  0  0  0  0  0  0  0  0  0  0  0
    6.2504   -6.8003    0.0000 C   0  0  2  0  0  0  0  0  0  0  0  0
    6.9677   -7.2079    0.0000 O   0  0  0  0  0  0  0  0  0  0  0  0
    7.6793   -6.7905    0.0000 C   0  0  1  0  0  0  0  0  0  0  0  0
    7.6737   -5.9655    0.0000 C   0  0  2  0  0  0  0  0  0  0  0  0
    6.9564   -5.5579    0.0000 C   0  0  1  0  0  0  0  0  0  0  0  0
    6.2448   -5.9753    0.0000 C   0  0  1  0  0  0  0  0  0  0  0  0
    6.9507   -4.7329    0.0000 O   0  0  0  0  0  0  0  0  0  0  0  0
    8.3966   -7.1981    0.0000 C   0  0  0  0  0  0  0  0  0  0  0  0
    5.5275   -5.5677    0.0000 O   0  0  0  0  0  0  0  0  0  0  0  0
    8.3853   -5.5481    0.0000 O   0  0  0  0  0  0  0  0  0  0  0  0
    9.1082   -6.7807    0.0000 O   0  0  0  0  0  0  0  0  0  0  0  0
  1  4  1  0  0  0  0
  2  1  1  0  0  0  0
  3  7  1  0  0  0  0
  4  3  2  0  0  0  0
  5  4  1  0  0  0  0
  6  5  2  0  0  0  0
  8  6  1  0  0  0  0
  8  7  2  0  0  0  0
  9  8  1  0  0  0  0
  9 14  1  0  0  0  0
 10  9  2  0  0  0  0
 11 10  1  0  0  0  0
 20 11  1  0  0  0  0
 12 18  1  0  0  0  0
 14 13  2  0  0  0  0
 19 14  1  0  0  0  0
 15 22  1  0  0  0  0
 17 16  1  0  0  0  0
 23 17  1  0  0  0  0
 18 23  1  0  0  0  0
 19 18  2  0  0  0  0
 20 19  1  0  0  0  0
 21 20  2  0  0  0  0
 22 21  1  0  0  0  0
 23 22  2  0  0  0  0
 24 15  1  1  0  0  0
 24 25  1  0  0  0  0
 25 26  1  0  0  0  0
 26 27  1  0  0  0  0
 27 28  1  0  0  0  0
 28 29  1  0  0  0  0
 29 24  1  0  0  0  0
 26 30  1  1  0  0  0
 28 31  1  1  0  0  0
 29 32  1  6  0  0  0
 27 33  1  6  0  0  0
 30 34  1  0  0  0  0
 35 34  1  1  0  0  0
 35 36  1  0  0  0  0
 36 37  1  0  0  0  0
 37 38  1  0  0  0  0
 38 39  1  0  0  0  0
 39 40  1  0  0  0  0
 40 35  1  0  0  0  0
 39 41  1  1  0  0  0
 37 42  1  1  0  0  0
 40 43  1  6  0  0  0
 38 44  1  6  0  0  0
 42 45  1  0  0  0  0
M  END
>  <cdx:fragmentId>
5

$$$$
