90885.cdx
  Mrv1902 05222410252D          

 13 14  0  0  0  0            999 V2000
    5.5393   -7.8639    0.0000 C   0  0  0  0  0  0  0  0  0  0  0  0
    5.5393   -8.6889    0.0000 C   0  0  0  0  0  0  0  0  0  0  0  0
    6.2538   -9.1014    0.0000 C   0  0  0  0  0  0  0  0  0  0  0  0
    6.9682   -8.6889    0.0000 C   0  0  0  0  0  0  0  0  0  0  0  0
    6.9682   -7.8639    0.0000 C   0  0  0  0  0  0  0  0  0  0  0  0
    6.2538   -7.4514    0.0000 C   0  0  0  0  0  0  0  0  0  0  0  0
    7.6827   -9.1014    0.0000 C   0  0  1  0  0  0  0  0  0  0  0  0
    8.3972   -8.6889    0.0000 N   0  0  0  0  0  0  0  0  0  0  0  0
    8.3972   -7.8639    0.0000 C   0  0  0  0  0  0  0  0  0  0  0  0
    7.6827   -7.4514    0.0000 C   0  0  0  0  0  0  0  0  0  0  0  0
    4.8248   -7.4514    0.0000 O   0  0  0  0  0  0  0  0  0  0  0  0
    4.8248   -9.1014    0.0000 O   0  0  0  0  0  0  0  0  0  0  0  0
    7.6827   -9.9264    0.0000 C   0  0  0  0  0  0  0  0  0  0  0  0
  1  2  2  0  0  0  0
  2  3  1  0  0  0  0
  3  4  2  0  0  0  0
  4  5  1  0  0  0  0
  5  6  2  0  0  0  0
  6  1  1  0  0  0  0
  4  7  1  0  0  0  0
  7  8  1  0  0  0  0
  8  9  1  0  0  0  0
  9 10  1  0  0  0  0
 10  5  1  0  0  0  0
  1 11  1  0  0  0  0
  2 12  1  0  0  0  0
  7 13  1  1  0  0  0
M  END
>  <cdx:fragmentId>
5

$$$$
