908841.cdx
  Mrv1902 05222410182D          

 53 56  0  0  0  0            999 V2000
    9.7441  -13.9007    0.0000 C   0  0  0  0  0  0  0  0  0  0  0  0
    6.1718  -11.0132    0.0000 C   0  0  0  0  0  0  0  0  0  0  0  0
    6.8863  -11.4257    0.0000 C   0  0  0  0  0  0  0  0  0  0  0  0
   11.1731   -9.7757    0.0000 C   0  0  0  0  0  0  0  0  0  0  0  0
   10.4586  -10.1882    0.0000 C   0  0  0  0  0  0  0  0  0  0  0  0
    6.1718  -10.1882    0.0000 C   0  0  0  0  0  0  0  0  0  0  0  0
    6.8863   -9.7757    0.0000 O   0  0  0  0  0  0  0  0  0  0  0  0
    7.6007  -11.0132    0.0000 O   0  0  0  0  0  0  0  0  0  0  0  0
    7.6007  -10.1882    0.0000 C   0  0  0  0  0  0  0  0  0  0  0  0
    9.0297   -7.7132    0.0000 O   0  0  0  0  0  0  0  0  0  0  0  0
    9.0297   -6.0632    0.0000 O   0  0  0  0  0  0  0  0  0  0  0  0
   10.4586   -5.2382    0.0000 O   0  0  0  0  0  0  0  0  0  0  0  0
   11.8876   -5.2382    0.0000 O   0  0  0  0  0  0  0  0  0  0  0  0
   11.8876   -6.0632    0.0000 C   0  0  0  0  0  0  0  0  0  0  0  0
   11.1731   -6.4757    0.0000 C   0  0  2  0  0  0  0  0  0  0  0  0
   10.4586   -6.0632    0.0000 C   0  0  2  0  0  0  0  0  0  0  0  0
    9.7441   -6.4757    0.0000 C   0  0  1  0  0  0  0  0  0  0  0  0
    9.7441   -7.3007    0.0000 C   0  0  2  0  0  0  0  0  0  0  0  0
   10.4586   -7.7132    0.0000 C   0  0  1  0  0  0  0  0  0  0  0  0
   11.1731   -7.3007    0.0000 O   0  0  0  0  0  0  0  0  0  0  0  0
   10.4586   -8.5382    0.0000 O   0  0  0  0  0  0  0  0  0  0  0  0
    9.0297   -8.5382    0.0000 O   0  0  0  0  0  0  0  0  0  0  0  0
    8.3152   -8.9507    0.0000 C   0  0  0  0  0  0  0  0  0  0  0  0
    8.3152   -9.7757    0.0000 C   0  0  0  0  0  0  0  0  0  0  0  0
    9.0297  -10.1882    0.0000 C   0  0  2  0  0  0  0  0  0  0  0  0
    9.7441   -9.7757    0.0000 C   0  0  2  0  0  0  0  0  0  0  0  0
    9.7441   -8.9507    0.0000 C   0  0  2  0  0  0  0  0  0  0  0  0
   10.4586  -11.0132    0.0000 O   0  0  0  0  0  0  0  0  0  0  0  0
    9.7441  -11.4257    0.0000 C   0  0  0  0  0  0  0  0  0  0  0  0
    9.0297  -11.0132    0.0000 C   0  0  0  0  0  0  0  0  0  0  0  0
    8.3152  -11.4257    0.0000 C   0  0  0  0  0  0  0  0  0  0  0  0
    8.3152  -12.2507    0.0000 C   0  0  0  0  0  0  0  0  0  0  0  0
    5.4573  -13.9007    0.0000 O   0  0  0  0  0  0  0  0  0  0  0  0
    4.0284  -14.7257    0.0000 O   0  0  0  0  0  0  0  0  0  0  0  0
    2.5994  -13.9007    0.0000 O   0  0  0  0  0  0  0  0  0  0  0  0
    1.8850  -12.6632    0.0000 O   0  0  0  0  0  0  0  0  0  0  0  0
    2.5994  -12.2507    0.0000 C   0  0  0  0  0  0  0  0  0  0  0  0
    3.3139  -12.6632    0.0000 C   0  0  2  0  0  0  0  0  0  0  0  0
    3.3139  -13.4882    0.0000 C   0  0  2  0  0  0  0  0  0  0  0  0
    4.0284  -13.9007    0.0000 C   0  0  1  0  0  0  0  0  0  0  0  0
    4.7429  -13.4882    0.0000 C   0  0  2  0  0  0  0  0  0  0  0  0
    4.7429  -12.6632    0.0000 C   0  0  1  0  0  0  0  0  0  0  0  0
    4.0284  -12.2507    0.0000 O   0  0  0  0  0  0  0  0  0  0  0  0
    5.4573  -12.2507    0.0000 O   0  0  0  0  0  0  0  0  0  0  0  0
    9.0297  -13.4882    0.0000 O   0  0  0  0  0  0  0  0  0  0  0  0
    8.3152  -14.7257    0.0000 O   0  0  0  0  0  0  0  0  0  0  0  0
    8.3152  -13.9007    0.0000 C   0  0  0  0  0  0  0  0  0  0  0  0
    6.1718  -13.4882    0.0000 O   0  0  0  0  0  0  0  0  0  0  0  0
    6.8863  -13.9007    0.0000 C   0  0  0  0  0  0  0  0  0  0  0  0
    7.6007  -13.4882    0.0000 C   0  0  0  0  0  0  0  0  0  0  0  0
    7.6007  -12.6632    0.0000 C   0  0  2  0  0  0  0  0  0  0  0  0
    6.8863  -12.2507    0.0000 C   0  0  2  0  0  0  0  0  0  0  0  0
    6.1718  -12.6632    0.0000 C   0  0  2  0  0  0  0  0  0  0  0  0
 45  1  1  0  0  0  0
 52  3  1  6  0  0  0
  3  2  2  0  0  0  0
 51 32  1  6  0  0  0
 25 30  1  6  0  0  0
 26  5  1  6  0  0  0
  5  4  2  0  0  0  0
 24  9  1  0  0  0  0
  9  7  1  0  0  0  0
  7  6  1  0  0  0  0
  9  8  2  0  0  0  0
 27 21  1  1  0  0  0
 19 21  1  1  0  0  0
 18 10  1  6  0  0  0
 17 11  1  1  0  0  0
 16 12  1  6  0  0  0
 15 14  1  1  0  0  0
 14 13  1  0  0  0  0
 20 15  1  0  0  0  0
 16 15  1  0  0  0  0
 17 16  1  0  0  0  0
 18 17  1  0  0  0  0
 19 18  1  0  0  0  0
 20 19  1  0  0  0  0
 27 22  1  0  0  0  0
 23 22  1  0  0  0  0
 24 23  2  0  0  0  0
 25 24  1  0  0  0  0
 26 25  1  0  0  0  0
 27 26  1  0  0  0  0
 29 28  2  0  0  0  0
 30 29  1  0  0  0  0
 31 30  2  0  0  0  0
 32 31  1  0  0  0  0
 53 44  1  1  0  0  0
 42 44  1  1  0  0  0
 41 33  1  6  0  0  0
 40 34  1  1  0  0  0
 39 35  1  6  0  0  0
 38 37  1  1  0  0  0
 37 36  1  0  0  0  0
 43 38  1  0  0  0  0
 39 38  1  0  0  0  0
 40 39  1  0  0  0  0
 41 40  1  0  0  0  0
 42 41  1  0  0  0  0
 43 42  1  0  0  0  0
 50 47  1  0  0  0  0
 47 45  1  0  0  0  0
 47 46  2  0  0  0  0
 53 48  1  0  0  0  0
 49 48  1  0  0  0  0
 50 49  2  0  0  0  0
 51 50  1  0  0  0  0
 52 51  1  0  0  0  0
 53 52  1  0  0  0  0
M  END
>  <cdx:fragmentId>
62813

$$$$
