90883.cdx
  Mrv1902 05222410242D          

 28 30  0  0  0  0            999 V2000
    5.5365   -9.9711    0.0000 O   0  0  0  0  0  0  0  0  0  0  0  0
    6.5752   -8.1060    0.0000 C   0  0  2  0  0  0  0  0  0  0  0  0
    7.1582   -7.5224    0.0000 C   0  0  0  0  0  0  0  0  0  0  0  0
    7.9832   -7.5220    0.0000 C   0  0  0  0  0  0  0  0  0  0  0  0
    8.5669   -8.1051    0.0000 C   0  0  0  0  0  0  0  0  0  0  0  0
    9.3514   -7.8498    0.0000 C   0  0  1  0  0  0  0  0  0  0  0  0
   10.1718   -7.7632    0.0000 C   0  0  0  0  0  0  0  0  0  0  0  0
    9.8366   -8.5170    0.0000 C   0  0  1  0  0  0  0  0  0  0  0  0
    9.3520   -9.1847    0.0000 C   0  0  0  0  0  0  0  0  0  0  0  0
    8.5673   -8.9301    0.0000 C   0  0  1  0  0  0  0  0  0  0  0  0
    7.9842   -9.5137    0.0000 C   0  0  0  0  0  0  0  0  0  0  0  0
    7.1592   -9.5141    0.0000 C   0  0  1  0  0  0  0  0  0  0  0  0
    6.5755   -8.9310    0.0000 C   0  0  1  0  0  0  0  0  0  0  0  0
    5.7910   -9.1863    0.0000 C   0  0  2  0  0  0  0  0  0  0  0  0
    5.3058   -8.5191    0.0000 C   0  0  2  0  0  0  0  0  0  0  0  0
    5.7904   -7.8515    0.0000 C   0  0  0  0  0  0  0  0  0  0  0  0
    6.8422   -6.7603    0.0000 O   0  0  0  0  0  0  0  0  0  0  0  0
    8.3003  -10.2758    0.0000 C   0  0  0  0  0  0  0  0  0  0  0  0
    4.4808   -8.5195    0.0000 C   0  0  0  0  0  0  0  0  0  0  0  0
   10.5070   -7.0093    0.0000 C   0  0  0  0  0  0  0  0  0  0  0  0
   10.9923   -7.6765    0.0000 C   0  0  0  0  0  0  0  0  0  0  0  0
    8.2986   -6.7597    0.0000 C   0  0  0  0  0  0  0  0  0  0  0  0
    6.8438  -10.2765    0.0000 O   0  0  0  0  0  0  0  0  0  0  0  0
    6.3822   -7.3039    0.0000 O   0  0  0  0  0  0  0  0  0  0  0  0
    9.1795   -7.0429    0.0000 H   0  0  0  0  0  0  0  0  0  0  0  0
   10.5513   -8.9292    0.0000 H   0  0  0  0  0  0  0  0  0  0  0  0
    6.3833   -9.7333    0.0000 H   0  0  0  0  0  0  0  0  0  0  0  0
    8.9798   -9.6446    0.0000 O   0  0  0  0  0  0  0  0  0  0  0  0
  2  3  1  0  0  0  0
  3  4  1  0  0  0  0
  4  5  2  0  0  0  0
  5  6  1  0  0  0  0
  6  7  1  0  0  0  0
  7  8  1  0  0  0  0
  8  9  1  0  0  0  0
  9 10  1  0  0  0  0
 10 11  1  0  0  0  0
 11 12  1  0  0  0  0
 12 13  1  0  0  0  0
 13 14  1  0  0  0  0
 14 15  1  0  0  0  0
 15 16  1  0  0  0  0
  2 16  1  0  0  0  0
  2 13  1  0  0  0  0
  6  8  1  0  0  0  0
  3 17  2  0  0  0  0
 11 18  2  0  0  0  0
 15 19  1  1  0  0  0
  7 20  1  0  0  0  0
  7 21  1  0  0  0  0
  4 22  1  0  0  0  0
 12 23  1  6  0  0  0
  2 24  1  1  0  0  0
 14  1  1  1  0  0  0
  6 25  1  6  0  0  0
  8 26  1  6  0  0  0
 13 27  1  6  0  0  0
 10 28  1  1  0  0  0
M  END
>  <cdx:fragmentId>
23

$$$$
