90880.cdx
  Mrv1902 05222410232D          

 15 16  0  0  0  0            999 V2000
    7.2150   -9.1596    0.0000 C   0  0  0  0  0  0  0  0  0  0  0  0
    7.2139   -8.3346    0.0000 C   0  0  0  0  0  0  0  0  0  0  0  0
    6.5683   -7.8210    0.0000 C   0  0  0  0  0  0  0  0  0  0  0  0
    5.7642   -8.0056    0.0000 C   0  0  0  0  0  0  0  0  0  0  0  0
    5.4072   -8.7493    0.0000 C   0  0  0  0  0  0  0  0  0  0  0  0
    5.7661   -9.4922    0.0000 C   0  0  0  0  0  0  0  0  0  0  0  0
    6.5706   -9.6747    0.0000 C   0  0  0  0  0  0  0  0  0  0  0  0
    7.9300   -9.5712    0.0000 C   0  0  0  0  0  0  0  0  0  0  0  0
    8.6439   -9.1578    0.0000 C   0  0  0  0  0  0  0  0  0  0  0  0
    8.6429   -8.3328    0.0000 C   0  0  0  0  0  0  0  0  0  0  0  0
    7.9279   -7.9212    0.0000 C   0  0  0  0  0  0  0  0  0  0  0  0
    9.3568   -7.9194    0.0000 C   0  0  0  0  0  0  0  0  0  0  0  0
    7.1509   -7.2369    0.0000 C   0  0  0  0  0  0  0  0  0  0  0  0
    6.3537   -7.0244    0.0000 C   0  0  0  0  0  0  0  0  0  0  0  0
    6.5716  -10.4997    0.0000 C   0  0  0  0  0  0  0  0  0  0  0  0
  1  2  1  0  0  0  0
  2  3  1  0  0  0  0
  3  4  1  0  0  0  0
  4  5  1  0  0  0  0
  5  6  1  0  0  0  0
  6  7  1  0  0  0  0
  7  1  1  0  0  0  0
  1  8  1  0  0  0  0
  8  9  2  0  0  0  0
  9 10  1  0  0  0  0
 10 11  2  0  0  0  0
 11  2  1  0  0  0  0
 10 12  1  0  0  0  0
  3 13  1  0  0  0  0
  3 14  1  0  0  0  0
  7 15  1  0  0  0  0
M  END
>  <cdx:fragmentId>
5

$$$$
