90887.cdx
  Mrv1902 05222410252D          

 36 39  0  0  0  0            999 V2000
    4.2715   -8.4222    0.0000 C   0  0  0  0  0  0  0  0  0  0  0  0
    4.9887   -8.8300    0.0000 C   0  0  0  0  0  0  0  0  0  0  0  0
    5.7004   -8.4128    0.0000 C   0  0  0  0  0  0  0  0  0  0  0  0
    5.6950   -7.5878    0.0000 C   0  0  0  0  0  0  0  0  0  0  0  0
    4.9778   -7.1800    0.0000 C   0  0  0  0  0  0  0  0  0  0  0  0
    4.2661   -7.5972    0.0000 C   0  0  0  0  0  0  0  0  0  0  0  0
    6.4176   -8.8206    0.0000 C   0  0  0  0  0  0  0  0  0  0  0  0
    7.1293   -8.4034    0.0000 C   0  0  0  0  0  0  0  0  0  0  0  0
    7.1239   -7.5785    0.0000 C   0  0  0  0  0  0  0  0  0  0  0  0
    6.4067   -7.1707    0.0000 O   0  0  0  0  0  0  0  0  0  0  0  0
    4.9941   -9.6550    0.0000 O   0  0  0  0  0  0  0  0  0  0  0  0
    6.4230   -9.6456    0.0000 O   0  0  0  0  0  0  0  0  0  0  0  0
    7.1402  -10.0534    0.0000 O   0  0  0  0  0  0  0  0  0  0  0  0
    7.8519   -9.6362    0.0000 C   0  0  1  0  0  0  0  0  0  0  0  0
    7.8465   -8.8112    0.0000 O   0  0  0  0  0  0  0  0  0  0  0  0
    7.1456  -10.8784    0.0000 C   0  0  1  0  0  0  0  0  0  0  0  0
    7.8627  -11.2862    0.0000 C   0  0  2  0  0  0  0  0  0  0  0  0
    8.5745  -10.8690    0.0000 C   0  0  1  0  0  0  0  0  0  0  0  0
    8.5691  -10.0440    0.0000 C   0  0  1  0  0  0  0  0  0  0  0  0
    6.4338  -11.2956    0.0000 C   0  0  0  0  0  0  0  0  0  0  0  0
    6.4392  -12.1206    0.0000 O   0  0  0  0  0  0  0  0  0  0  0  0
    7.8682  -12.1112    0.0000 O   0  0  0  0  0  0  0  0  0  0  0  0
    8.5528   -7.5691    0.0000 C   0  0  0  0  0  0  0  0  0  0  0  0
    7.8357   -7.1613    0.0000 C   0  0  0  0  0  0  0  0  0  0  0  0
    9.2646   -7.1519    0.0000 C   0  0  0  0  0  0  0  0  0  0  0  0
    9.2591   -6.3269    0.0000 C   0  0  0  0  0  0  0  0  0  0  0  0
    8.5420   -5.9191    0.0000 C   0  0  0  0  0  0  0  0  0  0  0  0
    7.8302   -6.3363    0.0000 C   0  0  0  0  0  0  0  0  0  0  0  0
    3.5489   -7.1894    0.0000 O   0  0  0  0  0  0  0  0  0  0  0  0
    5.7167  -10.8878    0.0000 O   0  0  0  0  0  0  0  0  0  0  0  0
    9.9709   -5.9097    0.0000 O   0  0  0  0  0  0  0  0  0  0  0  0
    9.2916  -11.2768    0.0000 O   0  0  0  0  0  0  0  0  0  0  0  0
    9.2808   -9.6268    0.0000 O   0  0  0  0  0  0  0  0  0  0  0  0
    9.2754   -8.8019    0.0000 C   0  0  0  0  0  0  0  0  0  0  0  0
    9.9871   -8.3847    0.0000 C   0  0  0  0  0  0  0  0  0  0  0  0
    8.5582   -8.3941    0.0000 O   0  0  0  0  0  0  0  0  0  0  0  0
  1  2  1  0  0  0  0
  2  3  2  0  0  0  0
  3  4  1  0  0  0  0
  4  5  2  0  0  0  0
  5  6  1  0  0  0  0
  6  1  2  0  0  0  0
  3  7  1  0  0  0  0
  7  8  1  0  0  0  0
  8  9  2  0  0  0  0
  9 10  1  0  0  0  0
 10  4  1  0  0  0  0
  2 11  1  0  0  0  0
 12  7  2  0  0  0  0
 13 14  1  0  0  0  0
 14 15  1  1  0  0  0
 15  8  1  0  0  0  0
 13 16  1  0  0  0  0
 16 17  1  0  0  0  0
 17 18  1  0  0  0  0
 18 19  1  0  0  0  0
 19 14  1  0  0  0  0
 16 20  1  1  0  0  0
 20 21  1  0  0  0  0
 17 22  1  6  0  0  0
 23 24  2  0  0  0  0
 24  9  1  0  0  0  0
 23 25  1  0  0  0  0
 25 26  2  0  0  0  0
 26 27  1  0  0  0  0
 27 28  2  0  0  0  0
 28 24  1  0  0  0  0
  6 29  1  0  0  0  0
 20 30  2  0  0  0  0
 26 31  1  0  0  0  0
 18 32  1  1  0  0  0
 19 33  1  6  0  0  0
 33 34  1  0  0  0  0
 34 35  1  0  0  0  0
 34 36  2  0  0  0  0
M  END
>  <cdx:fragmentId>
5

$$$$
