90889.cdx
  Mrv1902 05222410202D          

 25 26  0  0  0  0            999 V2000
    2.1166   -8.7439    0.0000 O   0  0  0  0  0  0  0  0  0  0  0  0
    3.5456   -7.0939    0.0000 C   0  0  0  0  0  0  0  0  0  0  0  0
    2.8311   -7.5064    0.0000 C   0  0  0  0  0  0  0  0  0  0  0  0
    2.8311   -8.3314    0.0000 C   0  0  0  0  0  0  0  0  0  0  0  0
    3.5456   -8.7439    0.0000 C   0  0  0  0  0  0  0  0  0  0  0  0
    4.2600   -8.3314    0.0000 C   0  0  0  0  0  0  0  0  0  0  0  0
   12.1192   -8.7439    0.0000 O   0  0  0  0  0  0  0  0  0  0  0  0
    9.9758   -8.3314    0.0000 C   0  0  0  0  0  0  0  0  0  0  0  0
   10.6903   -8.7439    0.0000 C   0  0  0  0  0  0  0  0  0  0  0  0
   11.4047   -8.3314    0.0000 C   0  0  0  0  0  0  0  0  0  0  0  0
   11.4047   -7.5064    0.0000 C   0  0  0  0  0  0  0  0  0  0  0  0
   10.6903   -7.0939    0.0000 C   0  0  0  0  0  0  0  0  0  0  0  0
    6.4034   -6.2689    0.0000 O   0  0  0  0  0  0  0  0  0  0  0  0
    7.8324   -6.2689    0.0000 O   0  0  0  0  0  0  0  0  0  0  0  0
    4.2600   -7.5064    0.0000 C   0  0  0  0  0  0  0  0  0  0  0  0
    4.9745   -7.0939    0.0000 C   0  0  0  0  0  0  0  0  0  0  0  0
    5.6890   -7.5064    0.0000 C   0  0  0  0  0  0  0  0  0  0  0  0
    6.4034   -7.0939    0.0000 C   0  0  0  0  0  0  0  0  0  0  0  0
    7.1179   -7.5064    0.0000 C   0  0  0  0  0  0  0  0  0  0  0  0
    7.8324   -7.0939    0.0000 C   0  0  0  0  0  0  0  0  0  0  0  0
    8.5469   -7.5064    0.0000 C   0  0  0  0  0  0  0  0  0  0  0  0
    9.2613   -7.0939    0.0000 C   0  0  0  0  0  0  0  0  0  0  0  0
    9.9758   -7.5064    0.0000 C   0  0  0  0  0  0  0  0  0  0  0  0
    2.1166   -7.0939    0.0000 O   0  0  0  0  0  0  0  0  0  0  0  0
    1.4021   -7.5064    0.0000 C   0  0  0  0  0  0  0  0  0  0  0  0
  4  1  1  0  0  0  0
  2 15  1  0  0  0  0
  3  2  2  0  0  0  0
  4  3  1  0  0  0  0
  5  4  2  0  0  0  0
  6  5  1  0  0  0  0
 15  6  2  0  0  0  0
 10  7  1  0  0  0  0
  8 23  1  0  0  0  0
  9  8  2  0  0  0  0
 10  9  1  0  0  0  0
 11 10  2  0  0  0  0
 12 11  1  0  0  0  0
 23 12  2  0  0  0  0
 18 13  2  0  0  0  0
 20 14  2  0  0  0  0
 16 15  1  0  0  0  0
 17 16  1  0  0  0  0
 18 17  1  0  0  0  0
 19 18  1  0  0  0  0
 20 19  1  0  0  0  0
 21 20  1  0  0  0  0
 22 21  2  0  0  0  0
 23 22  1  0  0  0  0
  3 24  1  0  0  0  0
 24 25  1  0  0  0  0
M  END
>  <cdx:fragmentId>
3

$$$$
