90895.cdx
  Mrv1902 05222410232D          

 25 28  0  0  0  0            999 V2000
    4.2078   -8.1400    0.0000 C   0  0  1  0  0  0  0  0  0  0  0  0
    4.2078   -8.9650    0.0000 C   0  0  0  0  0  0  0  0  0  0  0  0
    4.8528   -9.4794    0.0000 C   0  0  0  0  0  0  0  0  0  0  0  0
    5.6572   -9.2958    0.0000 C   0  0  2  0  0  0  0  0  0  0  0  0
    6.0151   -8.5525    0.0000 C   0  0  1  0  0  0  0  0  0  0  0  0
    5.6572   -7.8092    0.0000 C   0  0  0  0  0  0  0  0  0  0  0  0
    4.8528   -7.6256    0.0000 C   0  0  0  0  0  0  0  0  0  0  0  0
    6.8401   -8.5525    0.0000 C   0  0  0  0  0  0  0  0  0  0  0  0
    3.4645   -7.7820    0.0000 H   0  0  0  0  0  0  0  0  0  0  0  0
    6.1715   -9.9408    0.0000 H   0  0  0  0  0  0  0  0  0  0  0  0
    6.2183   -7.2044    0.0000 C   0  0  0  0  0  0  0  0  0  0  0  0
    5.9751   -6.4161    0.0000 C   0  0  0  0  0  0  0  0  0  0  0  0
    5.1708   -6.2325    0.0000 C   0  0  0  0  0  0  0  0  0  0  0  0
    4.6097   -6.8373    0.0000 C   0  0  0  0  0  0  0  0  0  0  0  0
    7.2526   -9.2670    0.0000 C   0  0  0  0  0  0  0  0  0  0  0  0
    8.0776   -9.2670    0.0000 C   0  0  0  0  0  0  0  0  0  0  0  0
    8.4901   -8.5525    0.0000 C   0  0  0  0  0  0  0  0  0  0  0  0
    8.0776   -7.8380    0.0000 C   0  0  0  0  0  0  0  0  0  0  0  0
    7.2526   -7.8380    0.0000 C   0  0  0  0  0  0  0  0  0  0  0  0
    4.9276   -5.4442    0.0000 O   0  0  0  0  0  0  0  0  0  0  0  0
    6.5363   -5.8113    0.0000 O   0  0  0  0  0  0  0  0  0  0  0  0
    8.4901   -7.1236    0.0000 O   0  0  0  0  0  0  0  0  0  0  0  0
    9.3151   -8.5525    0.0000 O   0  0  0  0  0  0  0  0  0  0  0  0
    6.4276   -7.8380    0.0000 O   0  0  0  0  0  0  0  0  0  0  0  0
    5.3353   -8.2912    0.0000 O   0  0  0  0  0  0  0  0  0  0  0  0
  1  2  1  0  0  0  0
  2  3  1  0  0  0  0
  3  4  1  0  0  0  0
  4  5  1  0  0  0  0
  5  6  1  0  0  0  0
  6  7  2  0  0  0  0
  7  1  1  0  0  0  0
  5  8  1  0  0  0  0
  1  9  1  6  0  0  0
  4 10  1  6  0  0  0
  6 11  1  0  0  0  0
 11 12  2  0  0  0  0
 12 13  1  0  0  0  0
 13 14  2  0  0  0  0
 14  7  1  0  0  0  0
  8 15  2  0  0  0  0
 15 16  1  0  0  0  0
 16 17  2  0  0  0  0
 17 18  1  0  0  0  0
 18 19  2  0  0  0  0
 19  8  1  0  0  0  0
 13 20  1  0  0  0  0
 12 21  1  0  0  0  0
 18 22  1  0  0  0  0
 17 23  1  0  0  0  0
  5 24  1  6  0  0  0
  1 25  1  1  0  0  0
  4 25  1  1  0  0  0
M  END
>  <cdx:fragmentId>
5

$$$$
