90896.cdx
  Mrv1902 05222410242D          

 23 25  0  0  0  0            999 V2000
    4.0686   -6.3367    0.0000 C   0  0  0  0  0  0  0  0  0  0  0  0
    3.4453   -6.8771    0.0000 C   0  0  0  0  0  0  0  0  0  0  0  0
    3.6016   -7.6871    0.0000 C   0  0  0  0  0  0  0  0  0  0  0  0
    4.3813   -7.9568    0.0000 C   0  0  0  0  0  0  0  0  0  0  0  0
    5.0046   -7.4163    0.0000 C   0  0  0  0  0  0  0  0  0  0  0  0
    4.8483   -6.6063    0.0000 C   0  0  0  0  0  0  0  0  0  0  0  0
    3.9123   -5.5266    0.0000 O   0  0  0  0  0  0  0  0  0  0  0  0
    2.6656   -6.6075    0.0000 O   0  0  0  0  0  0  0  0  0  0  0  0
    5.7843   -7.6860    0.0000 C   0  0  0  0  0  0  0  0  0  0  0  0
    6.0245   -8.4752    0.0000 C   0  0  0  0  0  0  0  0  0  0  0  0
    6.8494   -8.4907    0.0000 C   0  0  0  0  0  0  0  0  0  0  0  0
    7.1190   -7.7110    0.0000 C   0  0  0  0  0  0  0  0  0  0  0  0
    6.4608   -7.2136    0.0000 O   0  0  0  0  0  0  0  0  0  0  0  0
    7.9083   -7.4709    0.0000 C   0  0  0  0  0  0  0  0  0  0  0  0
    8.5109   -8.0343    0.0000 C   0  0  0  0  0  0  0  0  0  0  0  0
    9.3001   -7.7941    0.0000 C   0  0  0  0  0  0  0  0  0  0  0  0
    9.4868   -6.9905    0.0000 C   0  0  0  0  0  0  0  0  0  0  0  0
    8.8842   -6.4271    0.0000 C   0  0  0  0  0  0  0  0  0  0  0  0
    8.0949   -6.6672    0.0000 C   0  0  0  0  0  0  0  0  0  0  0  0
    7.3217   -9.1671    0.0000 C   0  0  0  0  0  0  0  0  0  0  0  0
    9.0708   -5.6235    0.0000 O   0  0  0  0  0  0  0  0  0  0  0  0
   10.2761   -6.7504    0.0000 O   0  0  0  0  0  0  0  0  0  0  0  0
    6.9720   -9.9144    0.0000 O   0  0  0  0  0  0  0  0  0  0  0  0
  1  2  2  0  0  0  0
  2  3  1  0  0  0  0
  3  4  2  0  0  0  0
  4  5  1  0  0  0  0
  5  6  2  0  0  0  0
  6  1  1  0  0  0  0
  1  7  1  0  0  0  0
  2  8  1  0  0  0  0
  5  9  1  0  0  0  0
  9 10  2  0  0  0  0
 10 11  1  0  0  0  0
 11 12  2  0  0  0  0
 12 13  1  0  0  0  0
 13  9  1  0  0  0  0
 12 14  1  0  0  0  0
 14 15  2  0  0  0  0
 15 16  1  0  0  0  0
 16 17  2  0  0  0  0
 17 18  1  0  0  0  0
 18 19  2  0  0  0  0
 19 14  1  0  0  0  0
 11 20  1  0  0  0  0
 18 21  1  0  0  0  0
 17 22  1  0  0  0  0
 20 23  2  0  0  0  0
M  END
>  <cdx:fragmentId>
5

$$$$
