90891.cdx
  Mrv1902 05222410252D          

 11 12  0  0  0  0            999 V2000
    8.1128   -7.8387    0.0000 N   0  0  0  0  0  0  0  0  0  0  0  0
    7.3983   -7.4262    0.0000 C   0  0  0  0  0  0  0  0  0  0  0  0
    6.6838   -7.8387    0.0000 C   0  0  0  0  0  0  0  0  0  0  0  0
    6.6838   -8.6637    0.0000 N   0  0  0  0  0  0  0  0  0  0  0  0
    7.3983   -9.0762    0.0000 C   0  0  0  0  0  0  0  0  0  0  0  0
    8.1128   -8.6637    0.0000 C   0  0  0  0  0  0  0  0  0  0  0  0
    5.8992   -7.5838    0.0000 C   0  0  0  0  0  0  0  0  0  0  0  0
    5.4143   -8.2512    0.0000 C   0  0  0  0  0  0  0  0  0  0  0  0
    5.8992   -8.9187    0.0000 C   0  0  0  0  0  0  0  0  0  0  0  0
    7.3983   -6.6012    0.0000 O   0  0  0  0  0  0  0  0  0  0  0  0
    7.3983   -9.9012    0.0000 O   0  0  0  0  0  0  0  0  0  0  0  0
  1  2  1  0  0  0  0
  2  3  1  0  0  0  0
  3  4  1  0  0  0  0
  4  5  1  0  0  0  0
  5  6  1  0  0  0  0
  6  1  1  0  0  0  0
  3  7  1  0  0  0  0
  7  8  1  0  0  0  0
  8  9  1  0  0  0  0
  9  4  1  0  0  0  0
  2 10  2  0  0  0  0
  5 11  2  0  0  0  0
M  END
>  <cdx:fragmentId>
5

$$$$
