90899.cdx
  Mrv1902 05222410232D          

 22 24  0  0  0  0            999 V2000
    3.9856  -11.0814    0.0000 C   0  0  0  0  0  0  0  0  0  0  0  0
    3.9856  -11.9064    0.0000 C   0  0  0  0  0  0  0  0  0  0  0  0
    4.7000  -12.3189    0.0000 C   0  0  1  0  0  0  0  0  0  0  0  0
    5.4145  -11.9064    0.0000 C   0  0  0  0  0  0  0  0  0  0  0  0
    5.4145  -11.0814    0.0000 C   0  0  2  0  0  0  0  0  0  0  0  0
    4.7000  -10.6689    0.0000 C   0  0  0  0  0  0  0  0  0  0  0  0
    6.1290  -12.3189    0.0000 C   0  0  0  0  0  0  0  0  0  0  0  0
    6.8434  -11.9064    0.0000 C   0  0  0  0  0  0  0  0  0  0  0  0
    6.8434  -11.0814    0.0000 C   0  0  2  0  0  0  0  0  0  0  0  0
    6.1290  -10.6689    0.0000 C   0  0  0  0  0  0  0  0  0  0  0  0
    7.5579  -10.6689    0.0000 C   0  0  0  0  0  0  0  0  0  0  0  0
    7.5579   -9.8439    0.0000 C   0  0  1  0  0  0  0  0  0  0  0  0
    6.8434   -9.4314    0.0000 C   0  0  0  0  0  0  0  0  0  0  0  0
    6.1290   -9.8439    0.0000 C   0  0  0  0  0  0  0  0  0  0  0  0
    4.2875  -13.0334    0.0000 C   0  0  0  0  0  0  0  0  0  0  0  0
    5.4145  -10.2564    0.0000 C   0  0  0  0  0  0  0  0  0  0  0  0
    7.5579  -11.4939    0.0000 O   0  0  0  0  0  0  0  0  0  0  0  0
    7.9704   -9.1294    0.0000 C   0  0  0  0  0  0  0  0  0  0  0  0
    8.3829   -9.8439    0.0000 C   0  0  0  0  0  0  0  0  0  0  0  0
    5.1125  -13.0334    0.0000 C   0  0  0  0  0  0  0  0  0  0  0  0
    8.7954  -10.5584    0.0000 C   0  0  0  0  0  0  0  0  0  0  0  0
    4.7000  -13.7478    0.0000 O   0  0  0  0  0  0  0  0  0  0  0  0
  1  2  1  0  0  0  0
  2  3  1  0  0  0  0
  3  4  1  0  0  0  0
  4  5  1  0  0  0  0
  5  6  1  0  0  0  0
  6  1  1  0  0  0  0
  4  7  1  0  0  0  0
  7  8  1  0  0  0  0
  8  9  1  0  0  0  0
  9 10  1  0  0  0  0
 10  5  1  0  0  0  0
  9 11  1  0  0  0  0
 11 12  1  0  0  0  0
 12 13  1  0  0  0  0
 13 14  1  0  0  0  0
 14 10  1  0  0  0  0
  3 15  1  1  0  0  0
  5 16  1  1  0  0  0
  9 17  1  1  0  0  0
 12 18  1  1  0  0  0
 12 19  1  6  0  0  0
  3 20  1  6  0  0  0
 19 21  2  0  0  0  0
 15 22  1  0  0  0  0
M  END
>  <cdx:fragmentId>
5

$$$$
