90897.cdx
  Mrv1902 05222410242D          

 22 24  0  0  0  0            999 V2000
    4.4898   -5.8564    0.0000 O   0  0  0  0  0  0  0  0  0  0  0  0
    4.0773   -6.5709    0.0000 C   0  0  0  0  0  0  0  0  0  0  0  0
    4.0773   -9.4288    0.0000 O   0  0  0  0  0  0  0  0  0  0  0  0
    3.2523   -7.9998    0.0000 O   0  0  0  0  0  0  0  0  0  0  0  0
    5.7273   -9.4288    0.0000 O   0  0  0  0  0  0  0  0  0  0  0  0
    5.3148   -7.2853    0.0000 O   0  0  0  0  0  0  0  0  0  0  0  0
    4.4898   -7.2853    0.0000 C   0  0  1  0  0  0  0  0  0  0  0  0
    4.0773   -7.9998    0.0000 C   0  0  2  0  0  0  0  0  0  0  0  0
    4.4898   -8.7143    0.0000 C   0  0  1  0  0  0  0  0  0  0  0  0
    5.3148   -8.7143    0.0000 C   0  0  2  0  0  0  0  0  0  0  0  0
    9.1402   -9.6498    0.0000 O   0  0  0  0  0  0  0  0  0  0  0  0
    9.8547   -8.4123    0.0000 O   0  0  0  0  0  0  0  0  0  0  0  0
    9.1402   -8.8248    0.0000 C   0  0  0  0  0  0  0  0  0  0  0  0
    6.2122   -7.3324    0.0000 O   0  0  0  0  0  0  0  0  0  0  0  0
    5.7273   -7.9998    0.0000 C   0  0  0  0  0  0  0  0  0  0  0  0
    6.2122   -8.6673    0.0000 O   0  0  0  0  0  0  0  0  0  0  0  0
    7.7113   -8.8248    0.0000 C   0  0  0  0  0  0  0  0  0  0  0  0
    8.4257   -8.4123    0.0000 C   0  0  0  0  0  0  0  0  0  0  0  0
    8.4257   -7.5873    0.0000 C   0  0  0  0  0  0  0  0  0  0  0  0
    7.7113   -7.1748    0.0000 C   0  0  0  0  0  0  0  0  0  0  0  0
    6.9968   -7.5873    0.0000 C   0  0  0  0  0  0  0  0  0  0  0  0
    6.9968   -8.4123    0.0000 C   0  0  0  0  0  0  0  0  0  0  0  0
  2  1  1  0  0  0  0
  7  2  1  1  0  0  0
  9  3  1  1  0  0  0
  8  4  1  6  0  0  0
 10  5  1  6  0  0  0
  6 15  1  0  0  0  0
  7  6  1  0  0  0  0
  8  7  1  0  0  0  0
  9  8  1  0  0  0  0
 10  9  1  0  0  0  0
 15 10  1  0  0  0  0
 13 11  2  0  0  0  0
 13 12  1  0  0  0  0
 18 13  1  0  0  0  0
 14 21  1  0  0  0  0
 15 14  1  0  0  0  0
 16 15  1  0  0  0  0
 22 16  1  0  0  0  0
 17 22  1  0  0  0  0
 18 17  2  0  0  0  0
 19 18  1  0  0  0  0
 20 19  2  0  0  0  0
 21 20  1  0  0  0  0
 22 21  2  0  0  0  0
M  END
>  <cdx:fragmentId>
5

$$$$
