90893.cdx
  Mrv1902 05222410252D          

 35 38  0  0  0  0            999 V2000
    4.7006   -8.5101    0.0000 C   0  0  0  0  0  0  0  0  0  0  0  0
    4.7006   -9.3351    0.0000 C   0  0  0  0  0  0  0  0  0  0  0  0
    5.4150   -9.7476    0.0000 C   0  0  0  0  0  0  0  0  0  0  0  0
    6.1295   -9.3351    0.0000 C   0  0  0  0  0  0  0  0  0  0  0  0
    6.1295   -8.5101    0.0000 C   0  0  0  0  0  0  0  0  0  0  0  0
    5.4150   -8.0976    0.0000 C   0  0  0  0  0  0  0  0  0  0  0  0
    6.8440   -9.7476    0.0000 C   0  0  0  0  0  0  0  0  0  0  0  0
    7.5584   -9.3351    0.0000 C   0  0  0  0  0  0  0  0  0  0  0  0
    7.5584   -8.5101    0.0000 C   0  0  0  0  0  0  0  0  0  0  0  0
    6.8440   -8.0976    0.0000 O   0  0  0  0  0  0  0  0  0  0  0  0
    5.4150  -10.5726    0.0000 O   0  0  0  0  0  0  0  0  0  0  0  0
    6.8440  -10.5726    0.0000 O   0  0  0  0  0  0  0  0  0  0  0  0
    8.2729   -9.7476    0.0000 O   0  0  0  0  0  0  0  0  0  0  0  0
    8.9874   -8.5101    0.0000 C   0  0  0  0  0  0  0  0  0  0  0  0
    8.2729   -8.0976    0.0000 C   0  0  0  0  0  0  0  0  0  0  0  0
    9.7019   -8.0976    0.0000 C   0  0  0  0  0  0  0  0  0  0  0  0
    9.7019   -7.2726    0.0000 C   0  0  0  0  0  0  0  0  0  0  0  0
    8.9874   -6.8601    0.0000 C   0  0  0  0  0  0  0  0  0  0  0  0
    8.2729   -7.2726    0.0000 C   0  0  0  0  0  0  0  0  0  0  0  0
    3.9861   -8.0976    0.0000 O   0  0  0  0  0  0  0  0  0  0  0  0
   10.4163   -6.8601    0.0000 O   0  0  0  0  0  0  0  0  0  0  0  0
    8.9874   -6.0351    0.0000 O   0  0  0  0  0  0  0  0  0  0  0  0
    3.2716   -8.5101    0.0000 C   0  0  0  0  0  0  0  0  0  0  0  0
    8.2729  -10.5726    0.0000 C   0  0  2  0  0  0  0  0  0  0  0  0
    7.5584  -10.9851    0.0000 O   0  0  0  0  0  0  0  0  0  0  0  0
    7.5584  -11.8101    0.0000 C   0  0  1  0  0  0  0  0  0  0  0  0
    8.2729  -12.2226    0.0000 C   0  0  2  0  0  0  0  0  0  0  0  0
    8.9874  -11.8101    0.0000 C   0  0  1  0  0  0  0  0  0  0  0  0
    8.9874  -10.9851    0.0000 C   0  0  1  0  0  0  0  0  0  0  0  0
    9.7019  -12.2226    0.0000 O   0  0  0  0  0  0  0  0  0  0  0  0
    8.2729  -13.0476    0.0000 O   0  0  0  0  0  0  0  0  0  0  0  0
    9.7019  -10.5726    0.0000 O   0  0  0  0  0  0  0  0  0  0  0  0
    6.1295  -11.8101    0.0000 O   0  0  0  0  0  0  0  0  0  0  0  0
    6.8440  -13.0476    0.0000 O   0  0  0  0  0  0  0  0  0  0  0  0
    6.8440  -12.2226    0.0000 C   0  0  0  0  0  0  0  0  0  0  0  0
  1  2  2  0  0  0  0
  2  3  1  0  0  0  0
  3  4  2  0  0  0  0
  4  5  1  0  0  0  0
  5  6  2  0  0  0  0
  6  1  1  0  0  0  0
  4  7  1  0  0  0  0
  7  8  1  0  0  0  0
  8  9  2  0  0  0  0
  9 10  1  0  0  0  0
 10  5  1  0  0  0  0
  3 11  1  0  0  0  0
 12  7  2  0  0  0  0
  8 13  1  0  0  0  0
 14 15  2  0  0  0  0
 15  9  1  0  0  0  0
 14 16  1  0  0  0  0
 16 17  2  0  0  0  0
 17 18  1  0  0  0  0
 18 19  2  0  0  0  0
 19 15  1  0  0  0  0
  1 20  1  0  0  0  0
 17 21  1  0  0  0  0
 18 22  1  0  0  0  0
 20 23  1  0  0  0  0
 24 13  1  1  0  0  0
 24 25  1  0  0  0  0
 25 26  1  0  0  0  0
 26 27  1  0  0  0  0
 27 28  1  0  0  0  0
 28 29  1  0  0  0  0
 29 24  1  0  0  0  0
 35 33  2  0  0  0  0
 26 35  1  1  0  0  0
 28 30  1  1  0  0  0
 27 31  1  6  0  0  0
 29 32  1  6  0  0  0
 35 34  1  0  0  0  0
M  END
>  <cdx:fragmentId>
5

$$$$
