90898.cdx
  Mrv1902 05222410232D          

 15 17  0  0  0  0            999 V2000
    6.1718   -7.0551    0.0000 C   0  0  0  0  0  0  0  0  0  0  0  0
    5.6916   -7.7259    0.0000 C   0  0  0  0  0  0  0  0  0  0  0  0
    6.1812   -8.3899    0.0000 C   0  0  0  0  0  0  0  0  0  0  0  0
    6.9641   -8.1295    0.0000 C   0  0  0  0  0  0  0  0  0  0  0  0
    6.9582   -7.3045    0.0000 C   0  0  0  0  0  0  0  0  0  0  0  0
    7.7890   -8.1236    0.0000 C   0  0  0  0  0  0  0  0  0  0  0  0
    7.7832   -7.2987    0.0000 C   0  0  0  0  0  0  0  0  0  0  0  0
    8.5754   -8.3730    0.0000 C   0  0  0  0  0  0  0  0  0  0  0  0
    9.0556   -7.7022    0.0000 C   0  0  0  0  0  0  0  0  0  0  0  0
    8.5754   -7.0382    0.0000 C   0  0  0  0  0  0  0  0  0  0  0  0
    5.9114   -6.2723    0.0000 C   0  0  0  0  0  0  0  0  0  0  0  0
    6.4591   -5.6553    0.0000 C   0  0  0  0  0  0  0  0  0  0  0  0
    5.1032   -6.1064    0.0000 C   0  0  0  0  0  0  0  0  0  0  0  0
    7.0988   -8.9434    0.0000 C   0  0  0  0  0  0  0  0  0  0  0  0
    8.8299   -6.2534    0.0000 C   0  0  0  0  0  0  0  0  0  0  0  0
  1  2  1  0  0  0  0
  2  3  1  0  0  0  0
  3  4  1  0  0  0  0
  4  5  1  0  0  0  0
  5  1  1  0  0  0  0
  4  6  1  0  0  0  0
  6  7  1  0  0  0  0
  7  5  1  0  0  0  0
  6  8  1  0  0  0  0
  8  9  1  0  0  0  0
  9 10  1  0  0  0  0
 10  7  1  0  0  0  0
  1 11  1  0  0  0  0
 11 12  1  0  0  0  0
 11 13  1  0  0  0  0
  4 14  1  0  0  0  0
 10 15  2  0  0  0  0
M  END
>  <cdx:fragmentId>
5

$$$$
