90901.cdx
  Mrv1902 05222410212D          

 25 29  0  0  0  0            999 V2000
    6.0017   -7.6342    0.0000 C   0  0  1  0  0  0  0  0  0  0  0  0
    5.8065   -8.4357    0.0000 C   0  0  1  0  0  0  0  0  0  0  0  0
    6.3116   -9.0881    0.0000 C   0  0  2  0  0  0  0  0  0  0  0  0
    7.1365   -9.1000    0.0000 C   0  0  0  0  0  0  0  0  0  0  0  0
    7.6601   -8.4625    0.0000 C   0  0  2  0  0  0  0  0  0  0  0  0
    7.4882   -7.6556    0.0000 C   0  0  0  0  0  0  0  0  0  0  0  0
    6.7501   -7.2870    0.0000 C   0  0  2  0  0  0  0  0  0  0  0  0
    5.2997   -7.2008    0.0000 C   0  0  1  0  0  0  0  0  0  0  0  0
    4.6706   -7.7346    0.0000 C   0  0  1  0  0  0  0  0  0  0  0  0
    4.9839   -8.4978    0.0000 C   0  0  2  0  0  0  0  0  0  0  0  0
    6.0260   -6.8095    0.0000 O   0  0  0  0  0  0  0  0  0  0  0  0
    4.1663   -8.3875    0.0000 O   0  0  0  0  0  0  0  0  0  0  0  0
    6.0453   -9.8690    0.0000 O   0  0  0  0  0  0  0  0  0  0  0  0
    6.7057  -10.3635    0.0000 C   0  0  0  0  0  0  0  0  0  0  0  0
    7.3801   -9.8882    0.0000 C   0  0  1  0  0  0  0  0  0  0  0  0
    6.5366   -6.4901    0.0000 C   0  0  0  0  0  0  0  0  0  0  0  0
    7.3335   -6.7036    0.0000 O   0  0  0  0  0  0  0  0  0  0  0  0
    4.9596   -9.3225    0.0000 C   0  0  0  0  0  0  0  0  0  0  0  0
    5.5930   -9.2326    0.0000 H   0  0  0  0  0  0  0  0  0  0  0  0
    8.1609  -10.1545    0.0000 C   0  0  0  0  0  0  0  0  0  0  0  0
    8.4617   -8.6577    0.0000 O   0  0  0  0  0  0  0  0  0  0  0  0
    6.6938  -11.1884    0.0000 O   0  0  0  0  0  0  0  0  0  0  0  0
    9.0315   -8.0611    0.0000 C   0  0  0  0  0  0  0  0  0  0  0  0
    9.8331   -8.2562    0.0000 C   0  0  0  0  0  0  0  0  0  0  0  0
    8.7997   -7.2693    0.0000 O   0  0  0  0  0  0  0  0  0  0  0  0
  1  2  1  0  0  0  0
  2  3  1  0  0  0  0
  3  4  1  0  0  0  0
  4  5  1  0  0  0  0
  5  6  1  0  0  0  0
  6  7  1  0  0  0  0
  7  1  1  0  0  0  0
  1  8  1  0  0  0  0
  8  9  1  0  0  0  0
  9 10  1  0  0  0  0
 10  2  1  0  0  0  0
  1 11  1  1  0  0  0
  8 11  1  1  0  0  0
  9 12  1  1  0  0  0
 10 12  1  1  0  0  0
  3 13  1  6  0  0  0
 13 14  1  0  0  0  0
 14 15  1  0  0  0  0
 15  4  1  0  0  0  0
  7 16  1  1  0  0  0
  7 17  1  6  0  0  0
 10 18  1  6  0  0  0
  2 19  1  6  0  0  0
 15 20  1  6  0  0  0
  5 21  1  6  0  0  0
 14 22  2  0  0  0  0
 21 23  1  0  0  0  0
 23 24  1  0  0  0  0
 23 25  2  0  0  0  0
M  END
>  <cdx:fragmentId>
5

$$$$
