90906.cdx
  Mrv1902 05222410232D          

 36 40  0  0  0  0            999 V2000
    3.4631  -10.1326    0.0000 C   0  0  0  0  0  0  0  0  0  0  0  0
    3.4631  -10.9576    0.0000 C   0  0  1  0  0  0  0  0  0  0  0  0
    4.1775  -11.3701    0.0000 C   0  0  0  0  0  0  0  0  0  0  0  0
    4.8920  -10.9576    0.0000 C   0  0  0  0  0  0  0  0  0  0  0  0
    4.8920  -10.1326    0.0000 C   0  0  2  0  0  0  0  0  0  0  0  0
    4.1775   -9.7201    0.0000 C   0  0  0  0  0  0  0  0  0  0  0  0
    5.6065  -11.3701    0.0000 C   0  0  0  0  0  0  0  0  0  0  0  0
    6.3209  -10.9576    0.0000 C   0  0  0  0  0  0  0  0  0  0  0  0
    6.3209  -10.1326    0.0000 C   0  0  2  0  0  0  0  0  0  0  0  0
    5.6065   -9.7201    0.0000 C   0  0  0  0  0  0  0  0  0  0  0  0
    7.0354   -9.7201    0.0000 C   0  0  1  0  0  0  0  0  0  0  0  0
    7.0354   -8.8951    0.0000 C   0  0  0  0  0  0  0  0  0  0  0  0
    6.3209   -8.4826    0.0000 C   0  0  0  0  0  0  0  0  0  0  0  0
    5.6065   -8.8951    0.0000 C   0  0  0  0  0  0  0  0  0  0  0  0
    7.7499  -10.1326    0.0000 C   0  0  0  0  0  0  0  0  0  0  0  0
    8.4644   -9.7201    0.0000 C   0  0  0  0  0  0  0  0  0  0  0  0
    8.4644   -8.8951    0.0000 C   0  0  2  0  0  0  0  0  0  0  0  0
    7.7499   -8.4826    0.0000 C   0  0  0  0  0  0  0  0  0  0  0  0
    9.1788   -8.4826    0.0000 C   0  0  0  0  0  0  0  0  0  0  0  0
    9.1788   -7.6576    0.0000 C   0  0  0  0  0  0  0  0  0  0  0  0
    8.4644   -7.2451    0.0000 C   0  0  2  0  0  0  0  0  0  0  0  0
    7.7499   -7.6576    0.0000 C   0  0  2  0  0  0  0  0  0  0  0  0
    3.7650  -12.0846    0.0000 C   0  0  0  0  0  0  0  0  0  0  0  0
    4.5900  -12.0846    0.0000 C   0  0  0  0  0  0  0  0  0  0  0  0
    7.0354  -11.3701    0.0000 O   0  0  0  0  0  0  0  0  0  0  0  0
    9.1788   -9.3076    0.0000 C   0  0  0  0  0  0  0  0  0  0  0  0
    9.8933   -8.8951    0.0000 O   0  0  0  0  0  0  0  0  0  0  0  0
    9.1788  -10.1326    0.0000 O   0  0  0  0  0  0  0  0  0  0  0  0
    2.7486  -11.3701    0.0000 O   0  0  0  0  0  0  0  0  0  0  0  0
    4.8920   -9.3076    0.0000 C   0  0  0  0  0  0  0  0  0  0  0  0
    6.3209   -9.3076    0.0000 C   0  0  0  0  0  0  0  0  0  0  0  0
    7.0354   -7.2451    0.0000 C   0  0  0  0  0  0  0  0  0  0  0  0
    7.4479  -10.4346    0.0000 C   0  0  0  0  0  0  0  0  0  0  0  0
    7.4479  -11.2596    0.0000 O   0  0  0  0  0  0  0  0  0  0  0  0
    8.2729  -10.4346    0.0000 O   0  0  0  0  0  0  0  0  0  0  0  0
    8.4644   -6.4201    0.0000 C   0  0  0  0  0  0  0  0  0  0  0  0
  1  2  1  0  0  0  0
  2  3  1  0  0  0  0
  3  4  1  0  0  0  0
  4  5  1  0  0  0  0
  5  6  1  0  0  0  0
  6  1  1  0  0  0  0
  4  7  1  0  0  0  0
  7  8  1  0  0  0  0
  8  9  1  0  0  0  0
  9 10  1  0  0  0  0
 10  5  1  0  0  0  0
  9 11  1  0  0  0  0
 11 12  1  0  0  0  0
 12 13  2  0  0  0  0
 13 14  1  0  0  0  0
 14 10  1  0  0  0  0
 11 15  1  0  0  0  0
 15 16  1  0  0  0  0
 16 17  1  0  0  0  0
 17 18  1  0  0  0  0
 18 12  1  0  0  0  0
 17 19  1  0  0  0  0
 19 20  1  0  0  0  0
 20 21  1  0  0  0  0
 21 22  1  0  0  0  0
 22 18  1  0  0  0  0
  3 23  1  0  0  0  0
  3 24  1  0  0  0  0
  8 25  2  0  0  0  0
 17 26  1  1  0  0  0
 26 27  1  0  0  0  0
 26 28  2  0  0  0  0
  2 29  1  1  0  0  0
  5 30  1  1  0  0  0
  9 31  1  1  0  0  0
 22 32  1  1  0  0  0
 11 33  1  6  0  0  0
 33 34  2  0  0  0  0
 33 35  1  0  0  0  0
 21 36  1  6  0  0  0
M  END
>  <cdx:fragmentId>
5

$$$$
