90904.cdx
  Mrv1902 05222410222D          

 21 23  0  0  0  0            999 V2000
    5.5531   -8.7301    0.0000 C   0  0  0  0  0  0  0  0  0  0  0  0
    5.5531   -9.5551    0.0000 C   0  0  0  0  0  0  0  0  0  0  0  0
    6.2675   -9.9676    0.0000 C   0  0  0  0  0  0  0  0  0  0  0  0
    6.9820   -9.5551    0.0000 N   0  0  0  0  0  0  0  0  0  0  0  0
    6.9820   -8.7301    0.0000 C   0  0  0  0  0  0  0  0  0  0  0  0
    6.2675   -8.3176    0.0000 N   0  0  0  0  0  0  0  0  0  0  0  0
    7.5951   -8.1781    0.0000 N   0  0  0  0  0  0  0  0  0  0  0  0
    7.2595   -7.4244    0.0000 C   0  0  0  0  0  0  0  0  0  0  0  0
    6.4391   -7.5107    0.0000 C   0  0  0  0  0  0  0  0  0  0  0  0
    7.6720   -6.7100    0.0000 O   0  0  0  0  0  0  0  0  0  0  0  0
    5.8870   -6.8976    0.0000 C   0  0  0  0  0  0  0  0  0  0  0  0
    5.0901   -7.1111    0.0000 C   0  0  0  0  0  0  0  0  0  0  0  0
    4.5068   -6.5277    0.0000 C   0  0  0  0  0  0  0  0  0  0  0  0
    4.8766   -7.9080    0.0000 O   0  0  0  0  0  0  0  0  0  0  0  0
    3.7099   -6.7413    0.0000 C   0  0  0  0  0  0  0  0  0  0  0  0
    4.7203   -5.7309    0.0000 O   0  0  0  0  0  0  0  0  0  0  0  0
    3.4964   -7.5382    0.0000 O   0  0  0  0  0  0  0  0  0  0  0  0
    7.0645  -11.0676    0.0000 C   0  0  0  0  0  0  0  0  0  0  0  0
    6.2675  -10.7926    0.0000 O   0  0  0  0  0  0  0  0  0  0  0  0
    4.7006  -10.5446    0.0000 C   0  0  0  0  0  0  0  0  0  0  0  0
    5.7239  -11.4992    0.0000 C   0  0  0  0  0  0  0  0  0  0  0  0
  1  2  1  0  0  0  0
  2  3  1  0  0  0  0
  3  4  1  0  0  0  0
  4  5  1  0  0  0  0
  5  6  1  0  0  0  0
  6  1  1  0  0  0  0
  5  7  2  0  0  0  0
  7  8  1  0  0  0  0
  8  9  1  0  0  0  0
  9  6  1  0  0  0  0
  8 10  2  0  0  0  0
  9 11  1  0  0  0  0
 11 12  1  0  0  0  0
 12 13  1  0  0  0  0
 12 14  1  0  0  0  0
 13 15  1  0  0  0  0
 13 16  1  0  0  0  0
 15 17  1  0  0  0  0
  4 18  1  0  0  0  0
  3 19  2  0  0  0  0
  1 20  1  0  0  0  0
 20 21  1  0  0  0  0
 21 18  1  0  0  0  0
M  END
>  <cdx:fragmentId>
5

$$$$
