90903.cdx
  Mrv1902 05222410212D          

 47 53  0  0  0  0            999 V2000
    3.7243   -5.9664    0.0000 C   0  0  0  0  0  0  0  0  0  0  0  0
    3.7243   -6.7914    0.0000 N   0  0  0  0  0  0  0  0  0  0  0  0
    4.4388   -7.2039    0.0000 C   0  0  2  0  0  0  0  0  0  0  0  0
    5.1532   -6.7914    0.0000 C   0  0  0  0  0  0  0  0  0  0  0  0
    5.1532   -5.9664    0.0000 C   0  0  0  0  0  0  0  0  0  0  0  0
    4.4388   -5.5539    0.0000 C   0  0  0  0  0  0  0  0  0  0  0  0
    5.8677   -7.2039    0.0000 C   0  0  0  0  0  0  0  0  0  0  0  0
    6.5822   -6.7914    0.0000 C   0  0  0  0  0  0  0  0  0  0  0  0
    6.5822   -5.9664    0.0000 C   0  0  0  0  0  0  0  0  0  0  0  0
    5.8677   -5.5539    0.0000 C   0  0  0  0  0  0  0  0  0  0  0  0
    7.2967   -7.2039    0.0000 O   0  0  0  0  0  0  0  0  0  0  0  0
    8.0111   -6.7914    0.0000 C   0  0  0  0  0  0  0  0  0  0  0  0
    8.0111   -5.9664    0.0000 C   0  0  0  0  0  0  0  0  0  0  0  0
    8.7256   -7.2039    0.0000 C   0  0  0  0  0  0  0  0  0  0  0  0
    9.4401   -6.7914    0.0000 C   0  0  0  0  0  0  0  0  0  0  0  0
    9.4401   -5.9664    0.0000 C   0  0  0  0  0  0  0  0  0  0  0  0
    8.7256   -5.5539    0.0000 C   0  0  0  0  0  0  0  0  0  0  0  0
    8.7256   -8.0289    0.0000 C   0  0  1  0  0  0  0  0  0  0  0  0
    9.4401   -8.4414    0.0000 N   0  0  0  0  0  0  0  0  0  0  0  0
   10.1545   -8.0289    0.0000 C   0  0  0  0  0  0  0  0  0  0  0  0
   10.1545   -7.2039    0.0000 C   0  0  0  0  0  0  0  0  0  0  0  0
    8.0111   -8.4414    0.0000 C   0  0  0  0  0  0  0  0  0  0  0  0
    7.8065   -9.2406    0.0000 C   0  0  0  0  0  0  0  0  0  0  0  0
    8.3963   -9.8175    0.0000 C   0  0  0  0  0  0  0  0  0  0  0  0
    9.4401   -9.2664    0.0000 C   0  0  0  0  0  0  0  0  0  0  0  0
    7.0120   -9.4630    0.0000 C   0  0  0  0  0  0  0  0  0  0  0  0
    6.8073  -10.2622    0.0000 C   0  0  0  0  0  0  0  0  0  0  0  0
    7.3971  -10.8390    0.0000 C   0  0  0  0  0  0  0  0  0  0  0  0
    8.1916  -10.6167    0.0000 C   0  0  0  0  0  0  0  0  0  0  0  0
    5.6277   -9.1085    0.0000 C   0  0  0  0  0  0  0  0  0  0  0  0
    5.4231   -9.9077    0.0000 C   0  0  0  0  0  0  0  0  0  0  0  0
    6.0129  -10.4845    0.0000 O   0  0  0  0  0  0  0  0  0  0  0  0
    5.0379   -8.5316    0.0000 C   0  0  0  0  0  0  0  0  0  0  0  0
    4.2434   -8.7540    0.0000 C   0  0  0  0  0  0  0  0  0  0  0  0
    4.0388   -9.5532    0.0000 C   0  0  0  0  0  0  0  0  0  0  0  0
    4.6286  -10.1300    0.0000 C   0  0  0  0  0  0  0  0  0  0  0  0
    4.0263   -7.9184    0.0000 C   0  0  0  0  0  0  0  0  0  0  0  0
    3.0098   -7.2039    0.0000 C   0  0  0  0  0  0  0  0  0  0  0  0
    6.9947   -5.2519    0.0000 O   0  0  0  0  0  0  0  0  0  0  0  0
    6.7812   -4.4550    0.0000 C   0  0  0  0  0  0  0  0  0  0  0  0
    7.5986   -5.2519    0.0000 O   0  0  0  0  0  0  0  0  0  0  0  0
    8.7256   -4.7289    0.0000 O   0  0  0  0  0  0  0  0  0  0  0  0
    9.4401   -4.3164    0.0000 C   0  0  0  0  0  0  0  0  0  0  0  0
    7.1925  -11.6382    0.0000 O   0  0  0  0  0  0  0  0  0  0  0  0
    7.7823  -12.2151    0.0000 C   0  0  0  0  0  0  0  0  0  0  0  0
    3.7243   -7.6164    0.0000 H   0  0  0  0  0  0  0  0  0  0  0  0
    8.7256   -8.8539    0.0000 H   0  0  0  0  0  0  0  0  0  0  0  0
  1  2  1  0  0  0  0
  2  3  1  0  0  0  0
  3  4  1  0  0  0  0
  4  5  1  0  0  0  0
  5  6  1  0  0  0  0
  6  1  1  0  0  0  0
  4  7  2  0  0  0  0
  7  8  1  0  0  0  0
  8  9  2  0  0  0  0
  9 10  1  0  0  0  0
 10  5  2  0  0  0  0
  8 11  1  0  0  0  0
 11 12  1  0  0  0  0
 12 13  1  0  0  0  0
 12 14  2  0  0  0  0
 14 15  1  0  0  0  0
 15 16  2  0  0  0  0
 16 17  1  0  0  0  0
 17 13  2  0  0  0  0
 14 18  1  0  0  0  0
 18 19  1  0  0  0  0
 19 20  1  0  0  0  0
 20 21  1  0  0  0  0
 21 15  1  0  0  0  0
 18 22  1  0  0  0  0
 22 23  1  0  0  0  0
 23 24  1  0  0  0  0
 25 19  1  0  0  0  0
 23 26  2  0  0  0  0
 26 27  1  0  0  0  0
 27 28  2  0  0  0  0
 28 29  1  0  0  0  0
 29 24  2  0  0  0  0
 30 31  2  0  0  0  0
 31 32  1  0  0  0  0
 32 27  1  0  0  0  0
 30 33  1  0  0  0  0
 33 34  2  0  0  0  0
 34 35  1  0  0  0  0
 35 36  2  0  0  0  0
 36 31  1  0  0  0  0
  3 37  1  0  0  0  0
 37 34  1  0  0  0  0
  2 38  1  0  0  0  0
  9 39  1  0  0  0  0
 39 40  1  0  0  0  0
 13 41  1  0  0  0  0
 17 42  1  0  0  0  0
 42 43  1  0  0  0  0
 28 44  1  0  0  0  0
 44 45  1  0  0  0  0
  3 46  1  1  0  0  0
 18 47  1  6  0  0  0
M  END
>  <cdx:fragmentId>
5

$$$$
