90905.cdx
  Mrv1902 05222410222D          

 37 41  0  0  0  0            999 V2000
    3.6556  -10.0914    0.0000 C   0  0  0  0  0  0  0  0  0  0  0  0
    3.6556  -10.9164    0.0000 C   0  0  0  0  0  0  0  0  0  0  0  0
    4.3700  -11.3289    0.0000 C   0  0  0  0  0  0  0  0  0  0  0  0
    5.0845  -10.9164    0.0000 C   0  0  1  0  0  0  0  0  0  0  0  0
    5.0845  -10.0914    0.0000 C   0  0  2  0  0  0  0  0  0  0  0  0
    4.3700   -9.6789    0.0000 C   0  0  0  0  0  0  0  0  0  0  0  0
    5.7990  -11.3289    0.0000 C   0  0  0  0  0  0  0  0  0  0  0  0
    6.5134  -10.9164    0.0000 C   0  0  0  0  0  0  0  0  0  0  0  0
    6.5134  -10.0914    0.0000 C   0  0  2  0  0  0  0  0  0  0  0  0
    5.7990   -9.6789    0.0000 C   0  0  2  0  0  0  0  0  0  0  0  0
    7.2279   -9.6789    0.0000 C   0  0  1  0  0  0  0  0  0  0  0  0
    7.2279   -8.8539    0.0000 C   0  0  0  0  0  0  0  0  0  0  0  0
    6.5134   -8.4414    0.0000 C   0  0  0  0  0  0  0  0  0  0  0  0
    5.7990   -8.8539    0.0000 C   0  0  0  0  0  0  0  0  0  0  0  0
    7.9424  -10.0914    0.0000 C   0  0  0  0  0  0  0  0  0  0  0  0
    8.6569   -9.6789    0.0000 C   0  0  2  0  0  0  0  0  0  0  0  0
    8.6569   -8.8539    0.0000 C   0  0  2  0  0  0  0  0  0  0  0  0
    7.9424   -8.4414    0.0000 C   0  0  1  0  0  0  0  0  0  0  0  0
    9.3713   -8.4414    0.0000 C   0  0  0  0  0  0  0  0  0  0  0  0
    9.3713   -7.6164    0.0000 C   0  0  0  0  0  0  0  0  0  0  0  0
    8.6569   -7.2039    0.0000 C   0  0  0  0  0  0  0  0  0  0  0  0
    7.9424   -7.6164    0.0000 C   0  0  0  0  0  0  0  0  0  0  0  0
    2.9411  -11.3289    0.0000 O   0  0  0  0  0  0  0  0  0  0  0  0
    3.9575  -12.0434    0.0000 C   0  0  0  0  0  0  0  0  0  0  0  0
    4.7825  -12.0434    0.0000 C   0  0  0  0  0  0  0  0  0  0  0  0
    8.2444   -6.4894    0.0000 C   0  0  0  0  0  0  0  0  0  0  0  0
    9.0694   -6.4894    0.0000 C   0  0  0  0  0  0  0  0  0  0  0  0
    9.3713   -9.2664    0.0000 C   0  0  0  0  0  0  0  0  0  0  0  0
   10.0858   -8.8539    0.0000 O   0  0  0  0  0  0  0  0  0  0  0  0
    9.3713  -10.0914    0.0000 O   0  0  0  0  0  0  0  0  0  0  0  0
    5.0845   -9.2664    0.0000 C   0  0  0  0  0  0  0  0  0  0  0  0
    6.5134   -9.2664    0.0000 C   0  0  0  0  0  0  0  0  0  0  0  0
    5.0845  -11.7414    0.0000 H   0  0  0  0  0  0  0  0  0  0  0  0
    5.7990  -10.5039    0.0000 H   0  0  0  0  0  0  0  0  0  0  0  0
    7.2279  -10.5039    0.0000 C   0  0  0  0  0  0  0  0  0  0  0  0
    7.2279   -8.0289    0.0000 H   0  0  0  0  0  0  0  0  0  0  0  0
    8.6569  -10.5039    0.0000 O   0  0  0  0  0  0  0  0  0  0  0  0
  1  2  1  0  0  0  0
  2  3  1  0  0  0  0
  3  4  1  0  0  0  0
  4  5  1  0  0  0  0
  5  6  1  0  0  0  0
  6  1  1  0  0  0  0
  4  7  1  0  0  0  0
  7  8  1  0  0  0  0
  8  9  1  0  0  0  0
  9 10  1  0  0  0  0
 10  5  1  0  0  0  0
  9 11  1  0  0  0  0
 11 12  1  0  0  0  0
 12 13  2  0  0  0  0
 13 14  1  0  0  0  0
 14 10  1  0  0  0  0
 11 15  1  0  0  0  0
 15 16  1  0  0  0  0
 16 17  1  0  0  0  0
 17 18  1  0  0  0  0
 18 12  1  0  0  0  0
 17 19  1  0  0  0  0
 19 20  1  0  0  0  0
 20 21  1  0  0  0  0
 21 22  1  0  0  0  0
 22 18  1  0  0  0  0
  2 23  2  0  0  0  0
  3 24  1  0  0  0  0
  3 25  1  0  0  0  0
 21 26  1  0  0  0  0
 21 27  1  0  0  0  0
 17 28  1  1  0  0  0
 28 29  1  0  0  0  0
 28 30  2  0  0  0  0
  5 31  1  1  0  0  0
  9 32  1  1  0  0  0
  4 33  1  6  0  0  0
 10 34  1  6  0  0  0
 11 35  1  6  0  0  0
 18 36  1  1  0  0  0
 16 37  1  6  0  0  0
M  END
>  <cdx:fragmentId>
5

$$$$
