90909.cdx
  Mrv1902 05222410242D          

 33 36  0  0  0  0            999 V2000
    3.9605   -7.0400    0.0000 C   0  0  0  0  0  0  0  0  0  0  0  0
    3.9605   -7.8650    0.0000 C   0  0  0  0  0  0  0  0  0  0  0  0
    4.6750   -8.2775    0.0000 C   0  0  0  0  0  0  0  0  0  0  0  0
    5.3895   -7.8650    0.0000 C   0  0  0  0  0  0  0  0  0  0  0  0
    5.3895   -7.0400    0.0000 C   0  0  0  0  0  0  0  0  0  0  0  0
    4.6750   -6.6275    0.0000 C   0  0  0  0  0  0  0  0  0  0  0  0
    6.1039   -8.2775    0.0000 C   0  0  0  0  0  0  0  0  0  0  0  0
    6.8184   -7.8650    0.0000 C   0  0  0  0  0  0  0  0  0  0  0  0
    6.8184   -7.0400    0.0000 C   0  0  0  0  0  0  0  0  0  0  0  0
    6.1039   -6.6275    0.0000 O   0  0  0  0  0  0  0  0  0  0  0  0
    7.5329   -8.2775    0.0000 C   0  0  0  0  0  0  0  0  0  0  0  0
    7.5329   -9.1025    0.0000 C   0  0  0  0  0  0  0  0  0  0  0  0
    8.2474   -9.5150    0.0000 C   0  0  0  0  0  0  0  0  0  0  0  0
    8.9618   -9.1025    0.0000 C   0  0  0  0  0  0  0  0  0  0  0  0
    8.9618   -8.2775    0.0000 C   0  0  0  0  0  0  0  0  0  0  0  0
    8.2474   -7.8650    0.0000 C   0  0  0  0  0  0  0  0  0  0  0  0
    9.6763   -9.5150    0.0000 O   0  0  0  0  0  0  0  0  0  0  0  0
    9.6763   -7.8650    0.0000 O   0  0  0  0  0  0  0  0  0  0  0  0
    6.1039   -9.1025    0.0000 O   0  0  0  0  0  0  0  0  0  0  0  0
    4.6750   -9.1025    0.0000 O   0  0  0  0  0  0  0  0  0  0  0  0
    3.2461   -6.6275    0.0000 O   0  0  0  0  0  0  0  0  0  0  0  0
    2.5316   -7.0400    0.0000 C   0  0  0  0  0  0  0  0  0  0  0  0
    9.6763  -10.3400    0.0000 C   0  0  2  0  0  0  0  0  0  0  0  0
    8.9618  -10.7525    0.0000 O   0  0  0  0  0  0  0  0  0  0  0  0
    8.9618  -11.5775    0.0000 C   0  0  1  0  0  0  0  0  0  0  0  0
    9.6763  -11.9900    0.0000 C   0  0  2  0  0  0  0  0  0  0  0  0
   10.3908  -11.5775    0.0000 C   0  0  1  0  0  0  0  0  0  0  0  0
   10.3908  -10.7525    0.0000 C   0  0  1  0  0  0  0  0  0  0  0  0
    8.2474  -11.9900    0.0000 C   0  0  0  0  0  0  0  0  0  0  0  0
   11.1052  -11.9900    0.0000 O   0  0  0  0  0  0  0  0  0  0  0  0
   11.1052  -10.3400    0.0000 O   0  0  0  0  0  0  0  0  0  0  0  0
    9.6763  -12.8150    0.0000 O   0  0  0  0  0  0  0  0  0  0  0  0
    8.2474  -12.8150    0.0000 O   0  0  0  0  0  0  0  0  0  0  0  0
  1  2  2  0  0  0  0
  2  3  1  0  0  0  0
  3  4  2  0  0  0  0
  4  5  1  0  0  0  0
  5  6  2  0  0  0  0
  6  1  1  0  0  0  0
  4  7  1  0  0  0  0
  7  8  1  0  0  0  0
  8  9  2  0  0  0  0
  9 10  1  0  0  0  0
 10  5  1  0  0  0  0
  8 11  1  0  0  0  0
 11 12  2  0  0  0  0
 12 13  1  0  0  0  0
 13 14  2  0  0  0  0
 14 15  1  0  0  0  0
 15 16  2  0  0  0  0
 16 11  1  0  0  0  0
 14 17  1  0  0  0  0
 15 18  1  0  0  0  0
  7 19  2  0  0  0  0
  3 20  1  0  0  0  0
  1 21  1  0  0  0  0
 21 22  1  0  0  0  0
 23 17  1  1  0  0  0
 23 24  1  0  0  0  0
 24 25  1  0  0  0  0
 25 26  1  0  0  0  0
 26 27  1  0  0  0  0
 27 28  1  0  0  0  0
 28 23  1  0  0  0  0
 25 29  1  1  0  0  0
 27 30  1  1  0  0  0
 28 31  1  6  0  0  0
 26 32  1  6  0  0  0
 29 33  1  0  0  0  0
M  END
>  <cdx:fragmentId>
198

$$$$
