9016.cdx
  Mrv1902 05222410262D          

 24 25  0  0  0  0            999 V2000
    3.4889   -6.5587    0.0000 C   0  0  0  0  0  0  0  0  0  0  0  0
    3.4889   -7.3838    0.0000 C   0  0  0  0  0  0  0  0  0  0  0  0
    4.2034   -7.7963    0.0000 C   0  0  0  0  0  0  0  0  0  0  0  0
    4.9178   -7.3838    0.0000 C   0  0  0  0  0  0  0  0  0  0  0  0
    4.9178   -6.5587    0.0000 C   0  0  0  0  0  0  0  0  0  0  0  0
    4.2034   -6.1463    0.0000 C   0  0  0  0  0  0  0  0  0  0  0  0
    4.2034   -8.6212    0.0000 C   0  0  0  0  0  0  0  0  0  0  0  0
    4.9178   -9.0337    0.0000 C   0  0  0  0  0  0  0  0  0  0  0  0
    5.6323   -8.6212    0.0000 C   0  0  0  0  0  0  0  0  0  0  0  0
    5.6323   -7.7963    0.0000 O   0  0  0  0  0  0  0  0  0  0  0  0
    6.3468   -9.0337    0.0000 O   0  0  0  0  0  0  0  0  0  0  0  0
    7.0613   -8.6212    0.0000 C   0  0  2  0  0  0  0  0  0  0  0  0
    7.0613   -7.7963    0.0000 C   0  0  0  0  0  0  0  0  0  0  0  0
    7.7757   -9.0337    0.0000 C   0  0  1  0  0  0  0  0  0  0  0  0
    8.4902   -8.6212    0.0000 C   0  0  1  0  0  0  0  0  0  0  0  0
    8.4902   -7.7963    0.0000 C   0  0  0  0  0  0  0  0  0  0  0  0
    7.7757   -7.3838    0.0000 C   0  0  1  0  0  0  0  0  0  0  0  0
    4.2034   -5.3213    0.0000 O   0  0  0  0  0  0  0  0  0  0  0  0
    8.1882   -6.6693    0.0000 C   0  0  0  0  0  0  0  0  0  0  0  0
    9.0132   -6.6693    0.0000 O   0  0  0  0  0  0  0  0  0  0  0  0
    7.7757   -5.9548    0.0000 O   0  0  0  0  0  0  0  0  0  0  0  0
    7.3632   -6.6693    0.0000 O   0  0  0  0  0  0  0  0  0  0  0  0
    7.7757   -9.8588    0.0000 O   0  0  0  0  0  0  0  0  0  0  0  0
    9.2047   -9.0337    0.0000 O   0  0  0  0  0  0  0  0  0  0  0  0
  1  2  2  0  0  0  0
  2  3  1  0  0  0  0
  3  4  2  0  0  0  0
  4  5  1  0  0  0  0
  5  6  2  0  0  0  0
  6  1  1  0  0  0  0
  3  7  1  0  0  0  0
  7  8  2  0  0  0  0
  8  9  1  0  0  0  0
  9 10  2  0  0  0  0
  9 11  1  0  0  0  0
 12 11  1  6  0  0  0
 12 13  1  0  0  0  0
 12 14  1  0  0  0  0
 14 15  1  0  0  0  0
 15 16  1  0  0  0  0
 16 17  1  0  0  0  0
 17 13  1  0  0  0  0
  6 18  1  0  0  0  0
 17 19  1  0  0  0  0
 19 20  1  0  0  0  0
 19 21  2  0  0  0  0
 17 22  1  1  0  0  0
 14 23  1  1  0  0  0
 15 24  1  1  0  0  0
M  END
>  <cdx:fragmentId>
5

$$$$
