90915.cdx
  Mrv1902 05222410212D          

 10 10  0  0  0  0            999 V2000
    6.1718   -8.5651    0.0000 C   0  0  0  0  0  0  0  0  0  0  0  0
    6.1718   -9.3901    0.0000 C   0  0  0  0  0  0  0  0  0  0  0  0
    6.8863   -9.8026    0.0000 C   0  0  0  0  0  0  0  0  0  0  0  0
    7.6007   -9.3901    0.0000 C   0  0  0  0  0  0  0  0  0  0  0  0
    7.6007   -8.5651    0.0000 C   0  0  0  0  0  0  0  0  0  0  0  0
    6.8863   -8.1526    0.0000 C   0  0  0  0  0  0  0  0  0  0  0  0
    6.8863   -7.3276    0.0000 O   0  0  0  0  0  0  0  0  0  0  0  0
    6.8863  -10.6276    0.0000 C   0  0  0  0  0  0  0  0  0  0  0  0
    7.6007  -11.0401    0.0000 C   0  0  0  0  0  0  0  0  0  0  0  0
    6.1718  -11.0401    0.0000 C   0  0  0  0  0  0  0  0  0  0  0  0
  1  2  1  0  0  0  0
  2  3  1  0  0  0  0
  3  4  1  0  0  0  0
  4  5  2  0  0  0  0
  5  6  1  0  0  0  0
  6  1  1  0  0  0  0
  6  7  2  0  0  0  0
  3  8  1  0  0  0  0
  8  9  1  0  0  0  0
  8 10  1  0  0  0  0
M  END
>  <cdx:fragmentId>
5

$$$$
