9091.cdx
  Mrv1902 05222410212D          

 45 48  0  0  0  0            999 V2000
    8.9364   -7.0398    0.0000 O   0  0  0  0  0  0  0  0  0  0  0  0
    9.6487   -7.4561    0.0000 C   0  0  0  0  0  0  0  0  0  0  0  0
   10.3653   -7.0474    0.0000 C   0  0  0  0  0  0  0  0  0  0  0  0
   13.9354   -7.4789    0.0000 C   0  0  0  0  0  0  0  0  0  0  0  0
   13.2232   -7.0626    0.0000 O   0  0  0  0  0  0  0  0  0  0  0  0
   13.2144   -8.7126    0.0000 O   0  0  0  0  0  0  0  0  0  0  0  0
   11.0732   -8.2887    0.0000 C   0  0  0  0  0  0  0  0  0  0  0  0
   11.7855   -8.7050    0.0000 C   0  0  0  0  0  0  0  0  0  0  0  0
   12.5021   -8.2963    0.0000 C   0  0  0  0  0  0  0  0  0  0  0  0
   12.5065   -7.4713    0.0000 C   0  0  0  0  0  0  0  0  0  0  0  0
   11.7942   -7.0550    0.0000 C   0  0  0  0  0  0  0  0  0  0  0  0
    6.0829   -6.1996    0.0000 O   0  0  0  0  0  0  0  0  0  0  0  0
    7.4943   -9.5072    0.0000 O   0  0  0  0  0  0  0  0  0  0  0  0
    6.7777   -9.9159    0.0000 C   0  0  2  0  0  0  0  0  0  0  0  0
    6.0654   -9.4996    0.0000 O   0  0  0  0  0  0  0  0  0  0  0  0
    5.3488   -9.9083    0.0000 C   0  0  2  0  0  0  0  0  0  0  0  0
    5.3444  -10.7333    0.0000 C   0  0  1  0  0  0  0  0  0  0  0  0
    6.0566  -11.1496    0.0000 C   0  0  2  0  0  0  0  0  0  0  0  0
    6.7733  -10.7409    0.0000 C   0  0  1  0  0  0  0  0  0  0  0  0
    7.4856  -11.1572    0.0000 O   0  0  0  0  0  0  0  0  0  0  0  0
    4.6365   -9.4920    0.0000 C   0  0  0  0  0  0  0  0  0  0  0  0
    6.0523  -11.9746    0.0000 O   0  0  0  0  0  0  0  0  0  0  0  0
    4.6277  -11.1420    0.0000 O   0  0  0  0  0  0  0  0  0  0  0  0
   11.0776   -7.4637    0.0000 C   0  0  0  0  0  0  0  0  0  0  0  0
    6.0786   -7.0246    0.0000 C   0  0  0  0  0  0  0  0  0  0  0  0
    8.9276   -8.6898    0.0000 O   0  0  0  0  0  0  0  0  0  0  0  0
    7.4987   -8.6822    0.0000 C   0  0  2  0  0  0  0  0  0  0  0  0
    8.2154   -8.2735    0.0000 C   0  0  2  0  0  0  0  0  0  0  0  0
    8.2197   -7.4485    0.0000 C   0  0  1  0  0  0  0  0  0  0  0  0
    7.5075   -7.0322    0.0000 O   0  0  0  0  0  0  0  0  0  0  0  0
    6.7908   -7.4409    0.0000 C   0  0  1  0  0  0  0  0  0  0  0  0
    6.7864   -8.2659    0.0000 C   0  0  1  0  0  0  0  0  0  0  0  0
    5.3619   -7.4333    0.0000 O   0  0  0  0  0  0  0  0  0  0  0  0
    6.0698   -8.6746    0.0000 O   0  0  0  0  0  0  0  0  0  0  0  0
    5.3575   -8.2583    0.0000 C   0  0  0  0  0  0  0  0  0  0  0  0
    4.6409   -8.6670    0.0000 C   0  0  0  0  0  0  0  0  0  0  0  0
    3.9286   -8.2507    0.0000 C   0  0  0  0  0  0  0  0  0  0  0  0
    1.7786   -9.4768    0.0000 C   0  0  0  0  0  0  0  0  0  0  0  0
    2.4909   -9.8931    0.0000 C   0  0  0  0  0  0  0  0  0  0  0  0
    3.2076   -9.4844    0.0000 C   0  0  0  0  0  0  0  0  0  0  0  0
    3.2119   -8.6594    0.0000 C   0  0  0  0  0  0  0  0  0  0  0  0
    2.4997   -8.2431    0.0000 C   0  0  0  0  0  0  0  0  0  0  0  0
    1.7830   -8.6518    0.0000 C   0  0  0  0  0  0  0  0  0  0  0  0
    1.0620   -9.8855    0.0000 O   0  0  0  0  0  0  0  0  0  0  0  0
    1.0708   -8.2356    0.0000 O   0  0  0  0  0  0  0  0  0  0  0  0
  1  2  1  0  0  0  0
  2  3  1  0  0  0  0
  5  4  1  0  0  0  0
  3 24  1  0  0  0  0
 10  5  1  0  0  0  0
  9  6  1  0  0  0  0
  7 24  1  0  0  0  0
  8  7  2  0  0  0  0
  9  8  1  0  0  0  0
 10  9  2  0  0  0  0
 11 10  1  0  0  0  0
 24 11  2  0  0  0  0
 25 12  1  0  0  0  0
 14 13  1  1  0  0  0
 14 15  1  0  0  0  0
 15 16  1  0  0  0  0
 16 17  1  0  0  0  0
 17 18  1  0  0  0  0
 18 19  1  0  0  0  0
 19 14  1  0  0  0  0
 19 20  1  6  0  0  0
 16 21  1  6  0  0  0
 18 22  1  6  0  0  0
 27 13  1  1  0  0  0
 17 23  1  1  0  0  0
 29  1  1  1  0  0  0
 31 25  1  1  0  0  0
 28 26  1  6  0  0  0
 27 32  1  0  0  0  0
 28 27  1  0  0  0  0
 29 28  1  0  0  0  0
 30 29  1  0  0  0  0
 31 30  1  0  0  0  0
 32 31  1  0  0  0  0
 32 34  1  6  0  0  0
 35 33  2  0  0  0  0
 35 34  1  0  0  0  0
 36 35  1  0  0  0  0
 37 36  2  0  0  0  0
 41 37  1  0  0  0  0
 38 39  2  0  0  0  0
 39 40  1  0  0  0  0
 40 41  2  0  0  0  0
 41 42  1  0  0  0  0
 42 43  2  0  0  0  0
 43 38  1  0  0  0  0
 38 44  1  0  0  0  0
 43 45  1  0  0  0  0
M  END
>  <cdx:fragmentId>
5

$$$$
