90918.cdx
  Mrv1902 05222410252D          

 26 26  0  0  0  0            999 V2000
    1.3593   -9.5964    0.0000 C   0  0  0  0  0  0  0  0  0  0  0  0
    1.3593  -10.4214    0.0000 C   0  0  0  0  0  0  0  0  0  0  0  0
    2.0738  -10.8339    0.0000 C   0  0  0  0  0  0  0  0  0  0  0  0
    2.7882  -10.4214    0.0000 C   0  0  0  0  0  0  0  0  0  0  0  0
    2.7882   -9.5964    0.0000 C   0  0  0  0  0  0  0  0  0  0  0  0
    2.0738   -9.1839    0.0000 C   0  0  0  0  0  0  0  0  0  0  0  0
    0.6448  -10.8339    0.0000 O   0  0  0  0  0  0  0  0  0  0  0  0
    2.0738  -11.6589    0.0000 C   0  0  0  0  0  0  0  0  0  0  0  0
    3.5027  -10.8339    0.0000 C   0  0  0  0  0  0  0  0  0  0  0  0
    4.2172  -10.4214    0.0000 C   0  0  0  0  0  0  0  0  0  0  0  0
    4.9317  -10.8339    0.0000 C   0  0  0  0  0  0  0  0  0  0  0  0
    5.6461  -10.4214    0.0000 C   0  0  0  0  0  0  0  0  0  0  0  0
    6.3606  -10.8339    0.0000 C   0  0  0  0  0  0  0  0  0  0  0  0
    7.0751  -10.4214    0.0000 C   0  0  0  0  0  0  0  0  0  0  0  0
    7.7895  -10.8339    0.0000 C   0  0  0  0  0  0  0  0  0  0  0  0
    8.5040  -10.4214    0.0000 C   0  0  0  0  0  0  0  0  0  0  0  0
    9.2185  -10.8339    0.0000 C   0  0  0  0  0  0  0  0  0  0  0  0
    9.9330  -10.4214    0.0000 C   0  0  0  0  0  0  0  0  0  0  0  0
   10.6474  -10.8339    0.0000 C   0  0  0  0  0  0  0  0  0  0  0  0
   11.3619  -10.4214    0.0000 C   0  0  0  0  0  0  0  0  0  0  0  0
   12.0764  -10.8339    0.0000 C   0  0  0  0  0  0  0  0  0  0  0  0
   12.7908  -10.4214    0.0000 C   0  0  0  0  0  0  0  0  0  0  0  0
   13.5053  -10.8339    0.0000 C   0  0  0  0  0  0  0  0  0  0  0  0
    9.9330   -9.5964    0.0000 O   0  0  0  0  0  0  0  0  0  0  0  0
    2.7882  -12.0714    0.0000 O   0  0  0  0  0  0  0  0  0  0  0  0
    1.3593  -12.0714    0.0000 O   0  0  0  0  0  0  0  0  0  0  0  0
  1  2  2  0  0  0  0
  2  3  1  0  0  0  0
  3  4  2  0  0  0  0
  4  5  1  0  0  0  0
  5  6  2  0  0  0  0
  6  1  1  0  0  0  0
  2  7  1  0  0  0  0
  3  8  1  0  0  0  0
  4  9  1  0  0  0  0
  9 10  1  0  0  0  0
 10 11  1  0  0  0  0
 11 12  1  0  0  0  0
 12 13  1  0  0  0  0
 13 14  1  0  0  0  0
 14 15  1  0  0  0  0
 15 16  1  0  0  0  0
 16 17  1  0  0  0  0
 17 18  1  0  0  0  0
 18 19  1  0  0  0  0
 19 20  2  0  0  0  0
 20 21  1  0  0  0  0
 21 22  1  0  0  0  0
 22 23  1  0  0  0  0
 18 24  1  0  0  0  0
  8 25  2  0  0  0  0
  8 26  1  0  0  0  0
M  END
>  <cdx:fragmentId>
5

$$$$
