90913.cdx
  Mrv1902 05222410222D          

 49 54  0  0  0  0            999 V2000
    2.4593   -9.8301    0.0000 C   0  0  0  0  0  0  0  0  0  0  0  0
    2.4593  -10.6551    0.0000 C   0  0  1  0  0  0  0  0  0  0  0  0
    3.1738  -11.0676    0.0000 C   0  0  0  0  0  0  0  0  0  0  0  0
    3.8882  -10.6551    0.0000 C   0  0  1  0  0  0  0  0  0  0  0  0
    3.8882   -9.8301    0.0000 C   0  0  2  0  0  0  0  0  0  0  0  0
    3.1738   -9.4176    0.0000 C   0  0  0  0  0  0  0  0  0  0  0  0
    4.6027  -11.0676    0.0000 C   0  0  0  0  0  0  0  0  0  0  0  0
    5.3172  -10.6551    0.0000 C   0  0  1  0  0  0  0  0  0  0  0  0
    5.3172   -9.8301    0.0000 C   0  0  2  0  0  0  0  0  0  0  0  0
    4.6027   -9.4176    0.0000 C   0  0  2  0  0  0  0  0  0  0  0  0
    6.0317   -9.4176    0.0000 C   0  0  1  0  0  0  0  0  0  0  0  0
    6.0317   -8.5926    0.0000 C   0  0  2  0  0  0  0  0  0  0  0  0
    5.3172   -8.1801    0.0000 C   0  0  0  0  0  0  0  0  0  0  0  0
    4.6027   -8.5926    0.0000 C   0  0  0  0  0  0  0  0  0  0  0  0
    6.7461   -9.8301    0.0000 C   0  0  0  0  0  0  0  0  0  0  0  0
    7.4606   -9.4176    0.0000 C   0  0  0  0  0  0  0  0  0  0  0  0
    7.4606   -8.5926    0.0000 C   0  0  2  0  0  0  0  0  0  0  0  0
    6.7461   -8.1801    0.0000 C   0  0  2  0  0  0  0  0  0  0  0  0
    8.1751   -8.1801    0.0000 C   0  0  0  0  0  0  0  0  0  0  0  0
    8.1751   -7.3551    0.0000 C   0  0  0  0  0  0  0  0  0  0  0  0
    6.7461   -7.3551    0.0000 C   0  0  1  0  0  0  0  0  0  0  0  0
    6.1628   -6.7718    0.0000 C   0  0  0  0  0  0  0  0  0  0  0  0
    6.3763   -5.9749    0.0000 C   0  0  0  0  0  0  0  0  0  0  0  0
    5.3659   -6.9853    0.0000 C   0  0  0  0  0  0  0  0  0  0  0  0
    2.7613  -11.7821    0.0000 C   0  0  0  0  0  0  0  0  0  0  0  0
    3.5863  -11.7821    0.0000 C   0  0  0  0  0  0  0  0  0  0  0  0
    8.1751   -9.0051    0.0000 C   0  0  0  0  0  0  0  0  0  0  0  0
    8.8895   -8.5926    0.0000 O   0  0  0  0  0  0  0  0  0  0  0  0
    8.1751   -9.8301    0.0000 O   0  0  0  0  0  0  0  0  0  0  0  0
    9.6040   -9.0051    0.0000 C   0  0  2  0  0  0  0  0  0  0  0  0
    9.6040   -9.8301    0.0000 O   0  0  0  0  0  0  0  0  0  0  0  0
   10.3185  -10.2426    0.0000 C   0  0  1  0  0  0  0  0  0  0  0  0
   11.0330   -9.8301    0.0000 C   0  0  2  0  0  0  0  0  0  0  0  0
   11.0330   -9.0051    0.0000 C   0  0  1  0  0  0  0  0  0  0  0  0
   10.3185   -8.5926    0.0000 C   0  0  1  0  0  0  0  0  0  0  0  0
   10.3185  -11.0676    0.0000 C   0  0  0  0  0  0  0  0  0  0  0  0
   11.0330  -11.4801    0.0000 O   0  0  0  0  0  0  0  0  0  0  0  0
    1.7448  -11.0676    0.0000 O   0  0  0  0  0  0  0  0  0  0  0  0
    3.8882   -9.0051    0.0000 C   0  0  0  0  0  0  0  0  0  0  0  0
    5.3172   -9.0051    0.0000 C   0  0  0  0  0  0  0  0  0  0  0  0
    6.0317  -11.0676    0.0000 O   0  0  0  0  0  0  0  0  0  0  0  0
    6.0317   -7.7676    0.0000 H   0  0  0  0  0  0  0  0  0  0  0  0
   11.7474   -8.5926    0.0000 O   0  0  0  0  0  0  0  0  0  0  0  0
    3.8882  -11.4801    0.0000 H   0  0  0  0  0  0  0  0  0  0  0  0
    4.6027  -10.2426    0.0000 H   0  0  0  0  0  0  0  0  0  0  0  0
    6.0317  -10.2426    0.0000 C   0  0  0  0  0  0  0  0  0  0  0  0
    6.7461   -9.0051    0.0000 H   0  0  0  0  0  0  0  0  0  0  0  0
   10.3185   -7.7676    0.0000 O   0  0  0  0  0  0  0  0  0  0  0  0
   11.7474  -10.2426    0.0000 O   0  0  0  0  0  0  0  0  0  0  0  0
  1  2  1  0  0  0  0
  2  3  1  0  0  0  0
  3  4  1  0  0  0  0
  4  5  1  0  0  0  0
  5  6  1  0  0  0  0
  6  1  1  0  0  0  0
  4  7  1  0  0  0  0
  7  8  1  0  0  0  0
  8  9  1  0  0  0  0
  9 10  1  0  0  0  0
 10  5  1  0  0  0  0
  9 11  1  0  0  0  0
 11 12  1  0  0  0  0
 12 13  1  0  0  0  0
 13 14  1  0  0  0  0
 14 10  1  0  0  0  0
 11 15  1  0  0  0  0
 15 16  1  0  0  0  0
 16 17  1  0  0  0  0
 17 18  1  0  0  0  0
 18 12  1  0  0  0  0
 17 19  1  0  0  0  0
 19 20  1  0  0  0  0
 21 18  1  0  0  0  0
 21 20  1  0  0  0  0
 21 22  1  6  0  0  0
 22 23  1  0  0  0  0
 22 24  2  0  0  0  0
  3 25  1  0  0  0  0
  3 26  1  0  0  0  0
 17 27  1  1  0  0  0
 27 28  1  0  0  0  0
 27 29  2  0  0  0  0
 30 28  1  1  0  0  0
 30 31  1  0  0  0  0
 31 32  1  0  0  0  0
 32 33  1  0  0  0  0
 33 34  1  0  0  0  0
 34 35  1  0  0  0  0
 35 30  1  0  0  0  0
 32 36  1  1  0  0  0
 36 37  1  0  0  0  0
  2 38  1  1  0  0  0
  5 39  1  1  0  0  0
  9 40  1  1  0  0  0
  8 41  1  1  0  0  0
 12 42  1  1  0  0  0
 34 43  1  1  0  0  0
  4 44  1  6  0  0  0
 10 45  1  6  0  0  0
 11 46  1  6  0  0  0
 18 47  1  6  0  0  0
 35 48  1  6  0  0  0
 33 49  1  6  0  0  0
M  END
>  <cdx:fragmentId>
5

$$$$
