90917.cdx
  Mrv1902 05222410212D          

 26 26  0  0  0  0            999 V2000
    4.8793  -12.5801    0.0000 C   0  0  0  0  0  0  0  0  0  0  0  0
    4.8793  -13.4051    0.0000 C   0  0  0  0  0  0  0  0  0  0  0  0
    5.5938  -13.8176    0.0000 C   0  0  0  0  0  0  0  0  0  0  0  0
    6.3082  -13.4051    0.0000 C   0  0  0  0  0  0  0  0  0  0  0  0
    6.3082  -12.5801    0.0000 C   0  0  0  0  0  0  0  0  0  0  0  0
    5.5938  -12.1676    0.0000 C   0  0  0  0  0  0  0  0  0  0  0  0
    4.1648  -12.1676    0.0000 O   0  0  0  0  0  0  0  0  0  0  0  0
    7.0227  -12.1676    0.0000 O   0  0  0  0  0  0  0  0  0  0  0  0
    4.1648  -13.8176    0.0000 O   0  0  0  0  0  0  0  0  0  0  0  0
    7.0227  -13.8176    0.0000 O   0  0  0  0  0  0  0  0  0  0  0  0
    7.0227  -14.6426    0.0000 C   0  0  0  0  0  0  0  0  0  0  0  0
    5.5936  -11.3164    0.0000 C   0  0  0  0  0  0  0  0  0  0  0  0
    6.3078  -10.9035    0.0000 C   0  0  0  0  0  0  0  0  0  0  0  0
    6.3074  -10.0785    0.0000 C   0  0  0  0  0  0  0  0  0  0  0  0
    7.0217   -9.6657    0.0000 C   0  0  0  0  0  0  0  0  0  0  0  0
    7.0213   -8.8407    0.0000 C   0  0  0  0  0  0  0  0  0  0  0  0
    7.7356   -8.4278    0.0000 C   0  0  0  0  0  0  0  0  0  0  0  0
    7.7352   -7.6028    0.0000 C   0  0  0  0  0  0  0  0  0  0  0  0
    8.4494   -7.1900    0.0000 C   0  0  0  0  0  0  0  0  0  0  0  0
    8.4490   -6.3650    0.0000 C   0  0  0  0  0  0  0  0  0  0  0  0
    9.1633   -5.9521    0.0000 C   0  0  0  0  0  0  0  0  0  0  0  0
    9.1629   -5.1271    0.0000 C   0  0  0  0  0  0  0  0  0  0  0  0
    9.8772   -4.7143    0.0000 C   0  0  0  0  0  0  0  0  0  0  0  0
    9.8768   -3.8893    0.0000 C   0  0  0  0  0  0  0  0  0  0  0  0
   10.5910   -3.4764    0.0000 C   0  0  0  0  0  0  0  0  0  0  0  0
   10.5906   -2.6514    0.0000 C   0  0  0  0  0  0  0  0  0  0  0  0
  1  2  1  0  0  0  0
  2  3  1  0  0  0  0
  3  4  2  0  0  0  0
  4  5  1  0  0  0  0
  5  6  1  0  0  0  0
  6  1  2  0  0  0  0
  1  7  1  0  0  0  0
  5  8  2  0  0  0  0
  2  9  2  0  0  0  0
  4 10  1  0  0  0  0
 10 11  1  0  0  0  0
 12 13  1  0  0  0  0
 13 14  1  0  0  0  0
 14 15  1  0  0  0  0
 15 16  1  0  0  0  0
 16 17  1  0  0  0  0
 17 18  1  0  0  0  0
 18 19  1  0  0  0  0
 19 20  1  0  0  0  0
 20 21  1  0  0  0  0
 21 22  2  0  0  0  0
 22 23  1  0  0  0  0
 23 24  1  0  0  0  0
 24 25  1  0  0  0  0
 25 26  1  0  0  0  0
 12  6  1  0  0  0  0
M  END
>  <cdx:fragmentId>
31

$$$$
