90919.cdx
  Mrv1902 05222410242D          

 26 28  0  0  0  0            999 V2000
    9.2402   -9.6879    0.0000 O   0  0  0  0  0  0  0  0  0  0  0  0
   10.6863   -7.2230    0.0000 O   0  0  0  0  0  0  0  0  0  0  0  0
    7.0882  -10.9105    0.0000 O   0  0  0  0  0  0  0  0  0  0  0  0
    3.5074  -12.1231    0.0000 C   0  0  0  0  0  0  0  0  0  0  0  0
    4.2304  -10.8906    0.0000 C   0  0  0  0  0  0  0  0  0  0  0  0
    9.2460   -8.8630    0.0000 C   0  0  0  0  0  0  0  0  0  0  0  0
    9.9633   -8.4555    0.0000 C   0  0  0  0  0  0  0  0  0  0  0  0
    9.9690   -7.6305    0.0000 C   0  0  0  0  0  0  0  0  0  0  0  0
    9.2574   -7.2130    0.0000 C   0  0  0  0  0  0  0  0  0  0  0  0
    8.5344   -8.4455    0.0000 C   0  0  0  0  0  0  0  0  0  0  0  0
    8.5401   -7.6205    0.0000 C   0  0  0  0  0  0  0  0  0  0  0  0
    7.0940  -10.0855    0.0000 C   0  0  0  0  0  0  0  0  0  0  0  0
    7.8113   -9.6780    0.0000 C   0  0  0  0  0  0  0  0  0  0  0  0
    7.8170   -8.8530    0.0000 C   0  0  2  0  0  0  0  0  0  0  0  0
    7.1055   -8.4356    0.0000 O   0  0  0  0  0  0  0  0  0  0  0  0
    5.6651  -10.0756    0.0000 C   0  0  0  0  0  0  0  0  0  0  0  0
    6.3824   -9.6681    0.0000 C   0  0  0  0  0  0  0  0  0  0  0  0
    6.3881   -8.8431    0.0000 C   0  0  0  0  0  0  0  0  0  0  0  0
    5.6766   -8.4256    0.0000 C   0  0  0  0  0  0  0  0  0  0  0  0
    3.5131  -11.2981    0.0000 C   0  0  0  0  0  0  0  0  0  0  0  0
    4.9535   -9.6581    0.0000 C   0  0  0  0  0  0  0  0  0  0  0  0
    4.9592   -8.8331    0.0000 C   0  0  0  0  0  0  0  0  0  0  0  0
    4.2477   -8.4157    0.0000 O   0  0  0  0  0  0  0  0  0  0  0  0
    4.2362  -10.0656    0.0000 C   0  0  0  0  0  0  0  0  0  0  0  0
    2.8015  -10.8807    0.0000 C   0  0  0  0  0  0  0  0  0  0  0  0
    3.5303   -8.8232    0.0000 C   0  0  0  0  0  0  0  0  0  0  0  0
  6  1  1  0  0  0  0
  8  2  1  0  0  0  0
 12  3  2  0  0  0  0
  6 10  2  0  0  0  0
  7  6  1  0  0  0  0
  8  7  2  0  0  0  0
  9  8  1  0  0  0  0
 11  9  2  0  0  0  0
 14 10  1  6  0  0  0
 11 10  1  0  0  0  0
 12 17  1  0  0  0  0
 13 12  1  0  0  0  0
 14 13  1  0  0  0  0
 15 14  1  0  0  0  0
 18 15  1  0  0  0  0
 16 21  2  0  0  0  0
 17 16  1  0  0  0  0
 18 17  2  0  0  0  0
 19 18  1  0  0  0  0
 22 19  2  0  0  0  0
 21 24  1  0  0  0  0
 22 21  1  0  0  0  0
 23 22  1  0  0  0  0
 26 23  1  0  0  0  0
  5 20  2  0  0  0  0
 20  4  1  0  0  0  0
 24  5  1  0  0  0  0
 20 25  1  0  0  0  0
M  END
>  <cdx:fragmentId>
5

$$$$
