90926.cdx
  Mrv1902 05222410252D          

 38 42  0  0  0  0            999 V2000
    8.1585   -5.4296    0.0000 H   0  0  0  0  0  0  0  0  0  0  0  0
    6.7610   -7.9231    0.0000 H   0  0  0  0  0  0  0  0  0  0  0  0
    6.0628   -9.1698    0.0000 H   0  0  0  0  0  0  0  0  0  0  0  0
    4.6134   -7.5386    0.0000 C   0  0  1  0  0  0  0  0  0  0  0  0
    4.6242   -8.3636    0.0000 C   0  0  0  0  0  0  0  0  0  0  0  0
    5.3440   -8.7667    0.0000 C   0  0  0  0  0  0  0  0  0  0  0  0
    6.0530   -8.3449    0.0000 C   0  0  1  0  0  0  0  0  0  0  0  0
    6.0422   -7.5200    0.0000 C   0  0  2  0  0  0  0  0  0  0  0  0
    5.3224   -7.1168    0.0000 C   0  0  0  0  0  0  0  0  0  0  0  0
    6.7728   -8.7480    0.0000 C   0  0  0  0  0  0  0  0  0  0  0  0
    7.4818   -8.3262    0.0000 C   0  0  0  0  0  0  0  0  0  0  0  0
    7.4711   -7.5013    0.0000 C   0  0  2  0  0  0  0  0  0  0  0  0
    6.7513   -7.0982    0.0000 C   0  0  2  0  0  0  0  0  0  0  0  0
    8.1801   -7.0795    0.0000 C   0  0  1  0  0  0  0  0  0  0  0  0
    8.1693   -6.2546    0.0000 C   0  0  0  0  0  0  0  0  0  0  0  0
    7.4495   -5.8514    0.0000 C   0  0  0  0  0  0  0  0  0  0  0  0
    6.7405   -6.2732    0.0000 C   0  0  0  0  0  0  0  0  0  0  0  0
    8.8999   -7.4826    0.0000 C   0  0  0  0  0  0  0  0  0  0  0  0
    9.6089   -7.0608    0.0000 C   0  0  0  0  0  0  0  0  0  0  0  0
    9.5981   -6.2359    0.0000 C   0  0  2  0  0  0  0  0  0  0  0  0
    8.8783   -5.8328    0.0000 C   0  0  1  0  0  0  0  0  0  0  0  0
   10.3071   -5.8141    0.0000 C   0  0  0  0  0  0  0  0  0  0  0  0
   10.2964   -4.9892    0.0000 C   0  0  0  0  0  0  0  0  0  0  0  0
    9.5766   -4.5860    0.0000 C   0  0  2  0  0  0  0  0  0  0  0  0
    8.8675   -5.0078    0.0000 C   0  0  2  0  0  0  0  0  0  0  0  0
    3.9152   -8.7854    0.0000 O   0  0  0  0  0  0  0  0  0  0  0  0
    4.9409   -9.4865    0.0000 C   0  0  0  0  0  0  0  0  0  0  0  0
    5.7658   -9.4757    0.0000 C   0  0  0  0  0  0  0  0  0  0  0  0
   10.3179   -6.6390    0.0000 C   0  0  0  0  0  0  0  0  0  0  0  0
   11.0269   -6.2172    0.0000 O   0  0  0  0  0  0  0  0  0  0  0  0
   10.3287   -7.4640    0.0000 O   0  0  0  0  0  0  0  0  0  0  0  0
    8.0706   -4.7943    0.0000 C   0  0  0  0  0  0  0  0  0  0  0  0
    3.8936   -7.1355    0.0000 O   0  0  0  0  0  0  0  0  0  0  0  0
    8.6540   -4.2109    0.0000 O   0  0  0  0  0  0  0  0  0  0  0  0
    9.5658   -3.7611    0.0000 C   0  0  0  0  0  0  0  0  0  0  0  0
    8.1909   -7.9044    0.0000 C   0  0  0  0  0  0  0  0  0  0  0  0
    6.0315   -6.6950    0.0000 C   0  0  0  0  0  0  0  0  0  0  0  0
    7.4603   -6.6764    0.0000 C   0  0  0  0  0  0  0  0  0  0  0  0
 21  1  1  1  0  0  0
 13  2  1  6  0  0  0
  7  3  1  6  0  0  0
  4  5  1  0  0  0  0
  5  6  1  0  0  0  0
  6  7  1  0  0  0  0
  7  8  1  0  0  0  0
  8  9  1  0  0  0  0
  9  4  1  0  0  0  0
  7 10  1  0  0  0  0
 10 11  1  0  0  0  0
 11 12  1  0  0  0  0
 12 13  1  0  0  0  0
 13  8  1  0  0  0  0
 12 14  1  0  0  0  0
 14 15  1  0  0  0  0
 15 16  2  0  0  0  0
 16 17  1  0  0  0  0
 17 13  1  0  0  0  0
 14 18  1  0  0  0  0
 18 19  1  0  0  0  0
 19 20  1  0  0  0  0
 20 21  1  0  0  0  0
 21 15  1  0  0  0  0
 20 22  1  0  0  0  0
 22 23  1  0  0  0  0
 23 24  1  0  0  0  0
 24 25  1  0  0  0  0
 25 21  1  0  0  0  0
  5 26  2  0  0  0  0
  6 27  1  0  0  0  0
  6 28  1  0  0  0  0
 20 29  1  1  0  0  0
 29 30  2  0  0  0  0
 29 31  1  0  0  0  0
 25 32  1  0  0  0  0
  4 33  1  6  0  0  0
 25 34  1  6  0  0  0
 24 35  1  6  0  0  0
 14 36  1  6  0  0  0
  8 37  1  1  0  0  0
 12 38  1  1  0  0  0
M  END
>  <cdx:fragmentId>
5

$$$$
