90927.cdx
  Mrv1902 05222410262D          

 37 41  0  0  0  0            999 V2000
    2.8988   -8.9919    0.0000 C   0  0  0  0  0  0  0  0  0  0  0  0
    2.4863   -9.7064    0.0000 C   0  0  0  0  0  0  0  0  0  0  0  0
    2.8988  -10.4209    0.0000 C   0  0  2  0  0  0  0  0  0  0  0  0
    3.7238  -10.4209    0.0000 C   0  0  1  0  0  0  0  0  0  0  0  0
    4.1363   -9.7064    0.0000 C   0  0  2  0  0  0  0  0  0  0  0  0
    3.7238   -8.9919    0.0000 C   0  0  1  0  0  0  0  0  0  0  0  0
    4.9613   -9.7064    0.0000 C   0  0  0  0  0  0  0  0  0  0  0  0
    5.3738   -8.9919    0.0000 C   0  0  1  0  0  0  0  0  0  0  0  0
    4.9613   -8.2775    0.0000 C   0  0  0  0  0  0  0  0  0  0  0  0
    4.1363   -8.2775    0.0000 C   0  0  0  0  0  0  0  0  0  0  0  0
    5.3738  -10.4209    0.0000 C   0  0  0  0  0  0  0  0  0  0  0  0
    6.1988  -10.4209    0.0000 C   0  0  0  0  0  0  0  0  0  0  0  0
    6.6113   -9.7064    0.0000 C   0  0  0  0  0  0  0  0  0  0  0  0
    6.1988   -8.9919    0.0000 C   0  0  1  0  0  0  0  0  0  0  0  0
    7.4363   -9.7064    0.0000 C   0  0  2  0  0  0  0  0  0  0  0  0
    7.8488   -8.9919    0.0000 C   0  0  1  0  0  0  0  0  0  0  0  0
    7.4363   -8.2775    0.0000 C   0  0  0  0  0  0  0  0  0  0  0  0
    6.6113   -8.2775    0.0000 C   0  0  0  0  0  0  0  0  0  0  0  0
    7.8488  -10.4209    0.0000 C   0  0  0  0  0  0  0  0  0  0  0  0
    8.6738  -10.4209    0.0000 C   0  0  1  0  0  0  0  0  0  0  0  0
    9.0863   -9.7064    0.0000 C   0  0  1  0  0  0  0  0  0  0  0  0
    8.6738   -8.9919    0.0000 C   0  0  0  0  0  0  0  0  0  0  0  0
    3.3113   -8.2775    0.0000 C   0  0  0  0  0  0  0  0  0  0  0  0
    3.7238   -7.5630    0.0000 O   0  0  0  0  0  0  0  0  0  0  0  0
    2.4863   -8.2775    0.0000 O   0  0  0  0  0  0  0  0  0  0  0  0
    8.6738   -8.1669    0.0000 C   0  0  0  0  0  0  0  0  0  0  0  0
    9.4707   -8.7784    0.0000 C   0  0  0  0  0  0  0  0  0  0  0  0
    4.5207  -10.6344    0.0000 C   0  0  0  0  0  0  0  0  0  0  0  0
    4.7196  -10.2898    0.0000 H   0  0  0  0  0  0  0  0  0  0  0  0
    6.1988   -8.1669    0.0000 C   0  0  0  0  0  0  0  0  0  0  0  0
    7.0238  -10.4209    0.0000 C   0  0  0  0  0  0  0  0  0  0  0  0
    9.9113   -9.7064    0.0000 O   0  0  0  0  0  0  0  0  0  0  0  0
    9.0863  -11.1353    0.0000 O   0  0  0  0  0  0  0  0  0  0  0  0
    2.4863  -11.1353    0.0000 C   0  0  0  0  0  0  0  0  0  0  0  0
    3.7238  -11.2459    0.0000 O   0  0  0  0  0  0  0  0  0  0  0  0
    5.3738   -8.1669    0.0000 C   0  0  0  0  0  0  0  0  0  0  0  0
    7.8488   -8.1669    0.0000 H   0  0  0  0  0  0  0  0  0  0  0  0
  1  2  1  0  0  0  0
  2  3  1  0  0  0  0
  3  4  1  0  0  0  0
  4  5  1  0  0  0  0
  5  6  1  0  0  0  0
  6  1  1  0  0  0  0
  5  7  1  0  0  0  0
  7  8  1  0  0  0  0
  8  9  1  0  0  0  0
  9 10  1  0  0  0  0
 10  6  1  0  0  0  0
  7 11  2  0  0  0  0
 11 12  1  0  0  0  0
 12 13  1  0  0  0  0
 13 14  1  0  0  0  0
 14  8  1  0  0  0  0
 13 15  1  0  0  0  0
 15 16  1  0  0  0  0
 16 17  1  0  0  0  0
 17 18  1  0  0  0  0
 18 14  1  0  0  0  0
 15 19  1  0  0  0  0
 19 20  1  0  0  0  0
 20 21  1  0  0  0  0
 21 22  1  0  0  0  0
 22 16  1  0  0  0  0
  6 23  1  1  0  0  0
 23 24  1  0  0  0  0
 23 25  2  0  0  0  0
 22 26  1  0  0  0  0
 22 27  1  0  0  0  0
  4 28  1  1  0  0  0
  5 29  1  1  0  0  0
 14 30  1  1  0  0  0
 15 31  1  1  0  0  0
 21 32  1  1  0  0  0
 20 33  1  1  0  0  0
  3 34  1  6  0  0  0
  4 35  1  6  0  0  0
  8 36  1  6  0  0  0
 16 37  1  6  0  0  0
M  END
>  <cdx:fragmentId>
5

$$$$
