90924.cdx
  Mrv1902 05222410252D          

 34 36  0  0  0  0            999 V2000
    4.1324   -8.2202    0.0000 C   0  0  2  0  0  0  0  0  0  0  0  0
    4.1230   -9.0451    0.0000 C   0  0  2  0  0  0  0  0  0  0  0  0
    4.8327   -9.4658    0.0000 C   0  0  1  0  0  0  0  0  0  0  0  0
    5.5518   -9.0615    0.0000 C   0  0  2  0  0  0  0  0  0  0  0  0
    5.5613   -8.2365    0.0000 C   0  0  1  0  0  0  0  0  0  0  0  0
    4.8516   -7.8159    0.0000 O   0  0  0  0  0  0  0  0  0  0  0  0
    3.4227   -7.7995    0.0000 C   0  0  0  0  0  0  0  0  0  0  0  0
    2.7036   -8.2038    0.0000 O   0  0  0  0  0  0  0  0  0  0  0  0
    3.4038   -9.4494    0.0000 O   0  0  0  0  0  0  0  0  0  0  0  0
    6.2615   -9.4821    0.0000 O   0  0  0  0  0  0  0  0  0  0  0  0
    6.9807   -9.0778    0.0000 C   0  0  0  0  0  0  0  0  0  0  0  0
    6.9901   -8.2529    0.0000 O   0  0  0  0  0  0  0  0  0  0  0  0
    6.2804   -7.8322    0.0000 O   0  0  0  0  0  0  0  0  0  0  0  0
    6.2898   -7.0073    0.0000 C   0  0  0  0  0  0  0  0  0  0  0  0
    5.5801   -6.5866    0.0000 O   0  0  0  0  0  0  0  0  0  0  0  0
    7.0090   -6.6030    0.0000 C   0  0  0  0  0  0  0  0  0  0  0  0
    7.0184   -5.7781    0.0000 C   0  0  0  0  0  0  0  0  0  0  0  0
    7.7187   -7.0237    0.0000 C   0  0  0  0  0  0  0  0  0  0  0  0
    8.4378   -6.6194    0.0000 C   0  0  0  0  0  0  0  0  0  0  0  0
    8.4473   -5.7944    0.0000 C   0  0  0  0  0  0  0  0  0  0  0  0
    7.7376   -5.3738    0.0000 C   0  0  0  0  0  0  0  0  0  0  0  0
    7.6904   -9.4985    0.0000 C   0  0  0  0  0  0  0  0  0  0  0  0
    8.4095   -9.0942    0.0000 C   0  0  0  0  0  0  0  0  0  0  0  0
    9.1098  -10.3398    0.0000 C   0  0  0  0  0  0  0  0  0  0  0  0
    9.1192   -9.5149    0.0000 C   0  0  0  0  0  0  0  0  0  0  0  0
    9.8195  -10.7605    0.0000 C   0  0  0  0  0  0  0  0  0  0  0  0
   10.5386  -10.3562    0.0000 C   0  0  0  0  0  0  0  0  0  0  0  0
   10.5481   -9.5312    0.0000 C   0  0  0  0  0  0  0  0  0  0  0  0
    9.8384   -9.1106    0.0000 C   0  0  0  0  0  0  0  0  0  0  0  0
    9.1475   -7.0400    0.0000 O   0  0  0  0  0  0  0  0  0  0  0  0
    9.1664   -5.3901    0.0000 O   0  0  0  0  0  0  0  0  0  0  0  0
    7.7470   -4.5488    0.0000 O   0  0  0  0  0  0  0  0  0  0  0  0
   11.2483  -10.7768    0.0000 O   0  0  0  0  0  0  0  0  0  0  0  0
    4.8232  -10.2907    0.0000 O   0  0  0  0  0  0  0  0  0  0  0  0
  1  2  1  0  0  0  0
  2  3  1  0  0  0  0
  3  4  1  0  0  0  0
  4  5  1  0  0  0  0
  5  6  1  0  0  0  0
  6  1  1  0  0  0  0
  1  7  1  1  0  0  0
  7  8  1  0  0  0  0
  2  9  1  6  0  0  0
  4 10  1  6  0  0  0
 10 11  1  0  0  0  0
 11 12  2  0  0  0  0
  5 13  1  1  0  0  0
 13 14  1  0  0  0  0
 14 15  2  0  0  0  0
 14 16  1  0  0  0  0
 16 17  1  0  0  0  0
 16 18  2  0  0  0  0
 18 19  1  0  0  0  0
 19 20  2  0  0  0  0
 20 21  1  0  0  0  0
 21 17  2  0  0  0  0
 11 22  1  0  0  0  0
 22 23  2  0  0  0  0
 24 25  2  0  0  0  0
 25 23  1  0  0  0  0
 24 26  1  0  0  0  0
 26 27  2  0  0  0  0
 27 28  1  0  0  0  0
 28 29  2  0  0  0  0
 29 25  1  0  0  0  0
 19 30  1  0  0  0  0
 20 31  1  0  0  0  0
 21 32  1  0  0  0  0
 27 33  1  0  0  0  0
  3 34  1  1  0  0  0
M  END
>  <cdx:fragmentId>
5

$$$$
