90929.cdx
  Mrv1902 05222410212D          

 36 38  0  0  0  0            999 V2000
    4.1918  -13.9414    0.0000 C   0  0  1  0  0  0  0  0  0  0  0  0
    4.1918  -14.7664    0.0000 C   0  0  1  0  0  0  0  0  0  0  0  0
    4.9063  -15.1789    0.0000 C   0  0  2  0  0  0  0  0  0  0  0  0
    5.6207  -14.7664    0.0000 C   0  0  1  0  0  0  0  0  0  0  0  0
    5.6207  -13.9414    0.0000 O   0  0  0  0  0  0  0  0  0  0  0  0
    4.9063  -13.5289    0.0000 C   0  0  2  0  0  0  0  0  0  0  0  0
    4.9063  -16.0039    0.0000 O   0  0  0  0  0  0  0  0  0  0  0  0
    6.3352  -16.0039    0.0000 O   0  0  0  0  0  0  0  0  0  0  0  0
    6.3352  -15.1789    0.0000 C   0  0  0  0  0  0  0  0  0  0  0  0
    6.3352  -13.5289    0.0000 O   0  0  0  0  0  0  0  0  0  0  0  0
    6.3352  -12.7039    0.0000 C   0  0  0  0  0  0  0  0  0  0  0  0
    5.6207  -12.2914    0.0000 C   0  0  0  0  0  0  0  0  0  0  0  0
    4.9063  -12.7039    0.0000 O   0  0  0  0  0  0  0  0  0  0  0  0
    7.0497  -12.2914    0.0000 C   0  0  0  0  0  0  0  0  0  0  0  0
    7.0497  -11.4664    0.0000 C   0  0  0  0  0  0  0  0  0  0  0  0
    6.3352  -11.0539    0.0000 C   0  0  0  0  0  0  0  0  0  0  0  0
    5.6207  -11.4664    0.0000 C   0  0  0  0  0  0  0  0  0  0  0  0
    7.0497   -9.8164    0.0000 C   0  0  0  0  0  0  0  0  0  0  0  0
    6.3352  -10.2289    0.0000 C   0  0  0  0  0  0  0  0  0  0  0  0
    7.0497   -8.9914    0.0000 C   0  0  0  0  0  0  0  0  0  0  0  0
    6.3352   -8.5789    0.0000 O   0  0  0  0  0  0  0  0  0  0  0  0
    7.7642   -8.5789    0.0000 O   0  0  0  0  0  0  0  0  0  0  0  0
    7.7642   -7.7539    0.0000 C   0  0  1  0  0  0  0  0  0  0  0  0
    7.0497   -7.3414    0.0000 C   0  0  0  0  0  0  0  0  0  0  0  0
    6.3352   -7.7539    0.0000 O   0  0  0  0  0  0  0  0  0  0  0  0
    8.4786   -7.3414    0.0000 C   0  0  0  0  0  0  0  0  0  0  0  0
    8.4786   -6.5164    0.0000 C   0  0  0  0  0  0  0  0  0  0  0  0
    7.7642   -6.1039    0.0000 C   0  0  0  0  0  0  0  0  0  0  0  0
    7.0497   -6.5164    0.0000 O   0  0  0  0  0  0  0  0  0  0  0  0
    9.1931   -6.1039    0.0000 C   0  0  0  0  0  0  0  0  0  0  0  0
    9.1931   -5.2789    0.0000 C   0  0  0  0  0  0  0  0  0  0  0  0
    8.4786   -4.8664    0.0000 C   0  0  0  0  0  0  0  0  0  0  0  0
    7.7642   -5.2789    0.0000 C   0  0  0  0  0  0  0  0  0  0  0  0
    8.4786   -4.0414    0.0000 O   0  0  0  0  0  0  0  0  0  0  0  0
    3.4773  -15.1789    0.0000 O   0  0  0  0  0  0  0  0  0  0  0  0
    3.4773  -13.5289    0.0000 O   0  0  0  0  0  0  0  0  0  0  0  0
  1  2  1  0  0  0  0
  2  3  1  0  0  0  0
  3  4  1  0  0  0  0
  4  5  1  0  0  0  0
  5  6  1  0  0  0  0
  6  1  1  0  0  0  0
  3  7  1  6  0  0  0
  8  9  1  0  0  0  0
  4  9  1  1  0  0  0
 10 11  1  0  0  0  0
 11 12  2  0  0  0  0
 12 13  1  0  0  0  0
  6 13  1  1  0  0  0
 11 14  1  0  0  0  0
 14 15  2  0  0  0  0
 15 16  1  0  0  0  0
 16 17  2  0  0  0  0
 17 12  1  0  0  0  0
 18 19  2  0  0  0  0
 19 16  1  0  0  0  0
 18 20  1  0  0  0  0
 20 21  2  0  0  0  0
 20 22  1  0  0  0  0
 22 23  1  0  0  0  0
 23 24  1  1  0  0  0
 24 25  1  0  0  0  0
 23 26  1  0  0  0  0
 26 27  1  0  0  0  0
 27 28  2  0  0  0  0
 29 24  2  0  0  0  0
 27 30  1  0  0  0  0
 30 31  2  0  0  0  0
 31 32  1  0  0  0  0
 32 33  2  0  0  0  0
 33 28  1  0  0  0  0
 32 34  1  0  0  0  0
  2 35  1  1  0  0  0
  1 36  1  6  0  0  0
M  END
>  <cdx:fragmentId>
5

$$$$
