90928.cdx
  Mrv1902 05222410222D          

 36 38  0  0  0  0            999 V2000
    8.9729   -5.0155    0.0000 C   0  0  2  0  0  0  0  0  0  0  0  0
    8.2695   -5.4467    0.0000 C   0  0  0  0  0  0  0  0  0  0  0  0
    8.2914   -6.2715    0.0000 C   0  0  2  0  0  0  0  0  0  0  0  0
    9.0165   -6.6649    0.0000 C   0  0  1  0  0  0  0  0  0  0  0  0
    9.7198   -6.2337    0.0000 C   0  0  1  0  0  0  0  0  0  0  0  0
    9.6980   -5.4090    0.0000 C   0  0  0  0  0  0  0  0  0  0  0  0
    7.7408  -12.4757    0.0000 O   0  0  0  0  0  0  0  0  0  0  0  0
   10.4449   -6.6271    0.0000 O   0  0  0  0  0  0  0  0  0  0  0  0
    6.9720  -10.4328    0.0000 C   0  0  0  0  0  0  0  0  0  0  0  0
    6.9938  -11.2575    0.0000 C   0  0  0  0  0  0  0  0  0  0  0  0
    7.7190  -11.6510    0.0000 C   0  0  0  0  0  0  0  0  0  0  0  0
    8.4223  -11.2197    0.0000 C   0  0  0  0  0  0  0  0  0  0  0  0
    7.6753  -10.0016    0.0000 C   0  0  0  0  0  0  0  0  0  0  0  0
    8.4005  -10.3950    0.0000 C   0  0  0  0  0  0  0  0  0  0  0  0
    7.6535   -9.1768    0.0000 C   0  0  0  0  0  0  0  0  0  0  0  0
    8.3568   -8.7456    0.0000 C   0  0  0  0  0  0  0  0  0  0  0  0
    7.6099   -7.5274    0.0000 O   0  0  0  0  0  0  0  0  0  0  0  0
    4.0060   -6.3848    0.0000 C   0  0  0  0  0  0  0  0  0  0  0  0
    4.7312   -6.7783    0.0000 C   0  0  0  0  0  0  0  0  0  0  0  0
    3.3027   -6.8161    0.0000 C   0  0  0  0  0  0  0  0  0  0  0  0
    3.3245   -7.6408    0.0000 C   0  0  0  0  0  0  0  0  0  0  0  0
    4.0497   -8.0343    0.0000 C   0  0  0  0  0  0  0  0  0  0  0  0
    4.7530   -7.6030    0.0000 C   0  0  0  0  0  0  0  0  0  0  0  0
    2.5776   -6.4226    0.0000 O   0  0  0  0  0  0  0  0  0  0  0  0
    2.6212   -8.0721    0.0000 O   0  0  0  0  0  0  0  0  0  0  0  0
    5.4345   -6.3470    0.0000 C   0  0  0  0  0  0  0  0  0  0  0  0
    6.1596   -6.7405    0.0000 C   0  0  0  0  0  0  0  0  0  0  0  0
    6.8411   -5.4845    0.0000 O   0  0  0  0  0  0  0  0  0  0  0  0
    6.8629   -6.3093    0.0000 C   0  0  0  0  0  0  0  0  0  0  0  0
    7.5881   -6.7027    0.0000 O   0  0  0  0  0  0  0  0  0  0  0  0
    8.3350   -7.9209    0.0000 C   0  0  0  0  0  0  0  0  0  0  0  0
    9.0383   -7.4896    0.0000 O   0  0  0  0  0  0  0  0  0  0  0  0
    8.5604   -4.3010    0.0000 O   0  0  0  0  0  0  0  0  0  0  0  0
    9.3854   -4.3010    0.0000 C   0  0  0  0  0  0  0  0  0  0  0  0
    8.9729   -3.5866    0.0000 O   0  0  0  0  0  0  0  0  0  0  0  0
   10.2104   -4.3010    0.0000 O   0  0  0  0  0  0  0  0  0  0  0  0
  1  2  1  0  0  0  0
  2  3  1  0  0  0  0
  3  4  1  0  0  0  0
  4  5  1  0  0  0  0
  5  6  1  0  0  0  0
  6  1  1  0  0  0  0
 11  7  1  0  0  0  0
  9 13  2  0  0  0  0
  4 32  1  1  0  0  0
 10  9  1  0  0  0  0
 11 10  2  0  0  0  0
  5  8  1  1  0  0  0
 12 11  1  0  0  0  0
 14 12  2  0  0  0  0
 13 15  1  0  0  0  0
 14 13  1  0  0  0  0
 16 15  2  0  0  0  0
 31 16  1  0  0  0  0
 31 17  2  0  0  0  0
 32 31  1  0  0  0  0
 18 19  1  0  0  0  0
  3 30  1  6  0  0  0
 18 20  2  0  0  0  0
 20 21  1  0  0  0  0
 21 22  2  0  0  0  0
 22 23  1  0  0  0  0
 23 19  2  0  0  0  0
 19 26  1  0  0  0  0
 20 24  1  0  0  0  0
 25 21  1  0  0  0  0
 27 26  2  0  0  0  0
 29 27  1  0  0  0  0
 29 28  2  0  0  0  0
 30 29  1  0  0  0  0
  1 33  1  1  0  0  0
  1 34  1  0  0  0  0
 34 35  2  0  0  0  0
 34 36  1  0  0  0  0
M  END
>  <cdx:fragmentId>
5

$$$$
