90920.cdx
  Mrv1902 05222410242D          

 25 28  0  0  0  0            999 V2000
    3.9718   -8.9200    0.0000 C   0  0  0  0  0  0  0  0  0  0  0  0
    3.9718   -8.0950    0.0000 C   0  0  0  0  0  0  0  0  0  0  0  0
    4.6863   -7.6825    0.0000 O   0  0  0  0  0  0  0  0  0  0  0  0
    5.4007   -8.0950    0.0000 C   0  0  0  0  0  0  0  0  0  0  0  0
    5.4007   -8.9200    0.0000 C   0  0  0  0  0  0  0  0  0  0  0  0
    4.6863   -9.3325    0.0000 C   0  0  0  0  0  0  0  0  0  0  0  0
    6.1152   -7.6825    0.0000 C   0  0  0  0  0  0  0  0  0  0  0  0
    6.8297   -8.0950    0.0000 C   0  0  0  0  0  0  0  0  0  0  0  0
    6.8297   -8.9200    0.0000 C   0  0  0  0  0  0  0  0  0  0  0  0
    6.1152   -9.3325    0.0000 C   0  0  0  0  0  0  0  0  0  0  0  0
    7.5442   -7.6825    0.0000 O   0  0  0  0  0  0  0  0  0  0  0  0
    8.2586   -8.0950    0.0000 C   0  0  0  0  0  0  0  0  0  0  0  0
    8.2586   -8.9200    0.0000 C   0  0  0  0  0  0  0  0  0  0  0  0
    7.5442   -9.3325    0.0000 C   0  0  0  0  0  0  0  0  0  0  0  0
    8.9731   -9.3325    0.0000 C   0  0  0  0  0  0  0  0  0  0  0  0
    8.9731  -10.1575    0.0000 C   0  0  0  0  0  0  0  0  0  0  0  0
    7.5442  -10.1575    0.0000 O   0  0  0  0  0  0  0  0  0  0  0  0
    9.6876   -8.9200    0.0000 C   0  0  0  0  0  0  0  0  0  0  0  0
   10.4020   -9.3325    0.0000 C   0  0  0  0  0  0  0  0  0  0  0  0
   10.4020  -10.1575    0.0000 C   0  0  0  0  0  0  0  0  0  0  0  0
    9.6876  -10.5700    0.0000 C   0  0  0  0  0  0  0  0  0  0  0  0
    3.1468   -8.0950    0.0000 C   0  0  0  0  0  0  0  0  0  0  0  0
    3.7583   -7.2981    0.0000 C   0  0  0  0  0  0  0  0  0  0  0  0
   11.1165  -10.5700    0.0000 O   0  0  0  0  0  0  0  0  0  0  0  0
    9.6876   -8.0950    0.0000 O   0  0  0  0  0  0  0  0  0  0  0  0
  1  2  1  0  0  0  0
  2  3  1  0  0  0  0
  3  4  1  0  0  0  0
  4  5  1  0  0  0  0
  5  6  1  0  0  0  0
  6  1  2  0  0  0  0
  4  7  2  0  0  0  0
  7  8  1  0  0  0  0
  8  9  2  0  0  0  0
  9 10  1  0  0  0  0
 10  5  2  0  0  0  0
  8 11  1  0  0  0  0
 11 12  1  0  0  0  0
 12 13  2  0  0  0  0
 13 14  1  0  0  0  0
 14  9  1  0  0  0  0
 13 15  1  0  0  0  0
 15 16  2  0  0  0  0
 17 14  2  0  0  0  0
 15 18  1  0  0  0  0
 18 19  2  0  0  0  0
 19 20  1  0  0  0  0
 20 21  2  0  0  0  0
 21 16  1  0  0  0  0
  2 22  1  0  0  0  0
  2 23  1  0  0  0  0
 20 24  1  0  0  0  0
 18 25  1  0  0  0  0
M  END
>  <cdx:fragmentId>
5

$$$$
