90923.cdx
  Mrv1902 05222410232D          

 20 22  0  0  0  0            999 V2000
    4.2056  -11.0401    0.0000 C   0  0  0  0  0  0  0  0  0  0  0  0
    4.2056  -11.8651    0.0000 N   0  0  0  0  0  0  0  0  0  0  0  0
    4.9200  -12.2776    0.0000 C   0  0  0  0  0  0  0  0  0  0  0  0
    5.6345  -11.8651    0.0000 C   0  0  0  0  0  0  0  0  0  0  0  0
    5.6345  -11.0401    0.0000 C   0  0  0  0  0  0  0  0  0  0  0  0
    4.9200  -10.6276    0.0000 N   0  0  0  0  0  0  0  0  0  0  0  0
    6.4191  -12.1201    0.0000 N   0  0  0  0  0  0  0  0  0  0  0  0
    6.9040  -11.4526    0.0000 C   0  0  0  0  0  0  0  0  0  0  0  0
    6.4191  -10.7852    0.0000 N   0  0  0  0  0  0  0  0  0  0  0  0
    6.6741  -10.0006    0.0000 C   0  0  2  0  0  0  0  0  0  0  0  0
    7.4587   -9.7457    0.0000 O   0  0  0  0  0  0  0  0  0  0  0  0
    7.4587   -8.9207    0.0000 C   0  0  1  0  0  0  0  0  0  0  0  0
    6.6741   -8.6657    0.0000 C   0  0  2  0  0  0  0  0  0  0  0  0
    6.1891   -9.3332    0.0000 C   0  0  1  0  0  0  0  0  0  0  0  0
    3.4911  -10.6276    0.0000 O   0  0  0  0  0  0  0  0  0  0  0  0
    2.7766  -11.0401    0.0000 C   0  0  0  0  0  0  0  0  0  0  0  0
    8.1261   -8.4357    0.0000 C   0  0  0  0  0  0  0  0  0  0  0  0
    8.8798   -8.7713    0.0000 O   0  0  0  0  0  0  0  0  0  0  0  0
    5.3641   -9.3332    0.0000 O   0  0  0  0  0  0  0  0  0  0  0  0
    6.4191   -7.8811    0.0000 O   0  0  0  0  0  0  0  0  0  0  0  0
  1  2  2  0  0  0  0
  2  3  1  0  0  0  0
  3  4  2  0  0  0  0
  4  5  1  0  0  0  0
  5  6  2  0  0  0  0
  6  1  1  0  0  0  0
  4  7  1  0  0  0  0
  7  8  2  0  0  0  0
  8  9  1  0  0  0  0
  9  5  1  0  0  0  0
 10  9  1  1  0  0  0
 10 11  1  0  0  0  0
 11 12  1  0  0  0  0
 12 13  1  0  0  0  0
 13 14  1  0  0  0  0
 14 10  1  0  0  0  0
  1 15  1  0  0  0  0
 15 16  1  0  0  0  0
 12 17  1  1  0  0  0
 17 18  1  0  0  0  0
 14 19  1  6  0  0  0
 13 20  1  6  0  0  0
M  END
>  <cdx:fragmentId>
5

$$$$
