90939.cdx
  Mrv1902 05222410222D          

 43 47  0  0  0  0            999 V2000
    6.6531   -7.3689    0.0000 C   0  0  0  0  0  0  0  0  0  0  0  0
    6.6531   -8.1939    0.0000 C   0  0  0  0  0  0  0  0  0  0  0  0
    7.3675   -8.6064    0.0000 C   0  0  0  0  0  0  0  0  0  0  0  0
    8.0820   -8.1939    0.0000 C   0  0  0  0  0  0  0  0  0  0  0  0
    8.0820   -7.3689    0.0000 C   0  0  0  0  0  0  0  0  0  0  0  0
    7.3675   -6.9564    0.0000 C   0  0  0  0  0  0  0  0  0  0  0  0
    8.7965   -8.6064    0.0000 C   0  0  0  0  0  0  0  0  0  0  0  0
    9.5109   -8.1939    0.0000 C   0  0  0  0  0  0  0  0  0  0  0  0
    9.5109   -7.3689    0.0000 C   0  0  0  0  0  0  0  0  0  0  0  0
    8.7965   -6.9564    0.0000 O   0  0  0  0  0  0  0  0  0  0  0  0
   10.9399   -7.3689    0.0000 C   0  0  0  0  0  0  0  0  0  0  0  0
   10.2254   -6.9564    0.0000 C   0  0  0  0  0  0  0  0  0  0  0  0
   11.6544   -6.9564    0.0000 C   0  0  0  0  0  0  0  0  0  0  0  0
   11.6544   -6.1314    0.0000 C   0  0  0  0  0  0  0  0  0  0  0  0
   10.9399   -5.7189    0.0000 C   0  0  0  0  0  0  0  0  0  0  0  0
   10.2254   -6.1314    0.0000 C   0  0  0  0  0  0  0  0  0  0  0  0
    5.9386   -6.9564    0.0000 O   0  0  0  0  0  0  0  0  0  0  0  0
    5.9386   -8.6064    0.0000 C   0  0  2  0  0  0  0  0  0  0  0  0
    7.3675   -9.4314    0.0000 O   0  0  0  0  0  0  0  0  0  0  0  0
    8.7965   -9.4314    0.0000 O   0  0  0  0  0  0  0  0  0  0  0  0
   10.9399   -4.8939    0.0000 O   0  0  0  0  0  0  0  0  0  0  0  0
   12.3688   -5.7189    0.0000 O   0  0  0  0  0  0  0  0  0  0  0  0
    5.2241   -8.1939    0.0000 O   0  0  0  0  0  0  0  0  0  0  0  0
    4.5096   -8.6064    0.0000 C   0  0  0  0  0  0  0  0  0  0  0  0
    4.5096   -9.4314    0.0000 C   0  0  2  0  0  0  0  0  0  0  0  0
    5.2241   -9.8439    0.0000 C   0  0  1  0  0  0  0  0  0  0  0  0
    5.9386   -9.4314    0.0000 C   0  0  1  0  0  0  0  0  0  0  0  0
    5.2241  -10.6689    0.0000 O   0  0  0  0  0  0  0  0  0  0  0  0
    6.6531   -9.8439    0.0000 O   0  0  0  0  0  0  0  0  0  0  0  0
    3.7952   -9.8439    0.0000 O   0  0  0  0  0  0  0  0  0  0  0  0
    6.6531  -10.6689    0.0000 C   0  0  2  0  0  0  0  0  0  0  0  0
    5.9386  -11.0814    0.0000 O   0  0  0  0  0  0  0  0  0  0  0  0
    5.9386  -11.9064    0.0000 C   0  0  1  0  0  0  0  0  0  0  0  0
    6.6531  -12.3189    0.0000 C   0  0  2  0  0  0  0  0  0  0  0  0
    7.3675  -11.9064    0.0000 C   0  0  1  0  0  0  0  0  0  0  0  0
    7.3675  -11.0814    0.0000 C   0  0  1  0  0  0  0  0  0  0  0  0
    5.2241  -12.3189    0.0000 C   0  0  0  0  0  0  0  0  0  0  0  0
    8.0820  -12.3189    0.0000 O   0  0  0  0  0  0  0  0  0  0  0  0
    8.0820  -10.6689    0.0000 O   0  0  0  0  0  0  0  0  0  0  0  0
    6.6531  -13.1439    0.0000 O   0  0  0  0  0  0  0  0  0  0  0  0
    4.5096  -11.9064    0.0000 O   0  0  0  0  0  0  0  0  0  0  0  0
    5.2241  -13.1439    0.0000 O   0  0  0  0  0  0  0  0  0  0  0  0
    5.9386   -7.7814    0.0000 H   0  0  0  0  0  0  0  0  0  0  0  0
  1  2  1  0  0  0  0
  2  3  2  0  0  0  0
  3  4  1  0  0  0  0
  4  5  2  0  0  0  0
  5  6  1  0  0  0  0
  6  1  2  0  0  0  0
  4  7  1  0  0  0  0
  7  8  1  0  0  0  0
  8  9  2  0  0  0  0
  9 10  1  0  0  0  0
 10  5  1  0  0  0  0
 11 12  1  0  0  0  0
 12  9  1  0  0  0  0
 11 13  2  0  0  0  0
 13 14  1  0  0  0  0
 14 15  2  0  0  0  0
 15 16  1  0  0  0  0
 16 12  2  0  0  0  0
  1 17  1  0  0  0  0
  2 18  1  0  0  0  0
  3 19  1  0  0  0  0
  7 20  2  0  0  0  0
 15 21  1  0  0  0  0
 14 22  1  0  0  0  0
 18 23  1  0  0  0  0
 23 24  1  0  0  0  0
 24 25  1  0  0  0  0
 25 26  1  0  0  0  0
 26 27  1  0  0  0  0
 27 18  1  0  0  0  0
 26 28  1  1  0  0  0
 27 29  1  6  0  0  0
 25 30  1  6  0  0  0
 31 29  1  1  0  0  0
 31 32  1  0  0  0  0
 32 33  1  0  0  0  0
 33 34  1  0  0  0  0
 34 35  1  0  0  0  0
 35 36  1  0  0  0  0
 36 31  1  0  0  0  0
 33 37  1  1  0  0  0
 35 38  1  1  0  0  0
 36 39  1  6  0  0  0
 34 40  1  6  0  0  0
 37 41  2  0  0  0  0
 37 42  1  0  0  0  0
 18 43  1  6  0  0  0
M  END
>  <cdx:fragmentId>
5

$$$$
