90932.cdx
  Mrv1902 05222410252D          

 39 41  0  0  0  0            999 V2000
    0.7665   -9.3823    0.0000 O   0  0  0  0  0  0  0  0  0  0  0  0
    1.4753   -8.9601    0.0000 C   0  0  0  0  0  0  0  0  0  0  0  0
    1.4640   -8.1351    0.0000 C   0  0  0  0  0  0  0  0  0  0  0  0
    0.7440   -7.7324    0.0000 O   0  0  0  0  0  0  0  0  0  0  0  0
    2.1953   -9.3628    0.0000 C   0  0  0  0  0  0  0  0  0  0  0  0
    2.9041   -8.9406    0.0000 C   0  0  0  0  0  0  0  0  0  0  0  0
    2.8928   -8.1157    0.0000 C   0  0  0  0  0  0  0  0  0  0  0  0
    2.1728   -7.7129    0.0000 C   0  0  0  0  0  0  0  0  0  0  0  0
    4.3329   -8.9211    0.0000 O   0  0  0  0  0  0  0  0  0  0  0  0
    4.3217   -8.0962    0.0000 C   0  0  0  0  0  0  0  0  0  0  0  0
    3.6016   -7.6935    0.0000 C   0  0  0  0  0  0  0  0  0  0  0  0
    5.0304   -7.6740    0.0000 C   0  0  0  0  0  0  0  0  0  0  0  0
    5.0192   -6.8491    0.0000 O   0  0  0  0  0  0  0  0  0  0  0  0
    5.0529   -9.3238    0.0000 C   0  0  0  0  0  0  0  0  0  0  0  0
    5.7617   -8.9016    0.0000 C   0  0  0  0  0  0  0  0  0  0  0  0
    5.7505   -8.0767    0.0000 O   0  0  0  0  0  0  0  0  0  0  0  0
    5.0642  -10.1488    0.0000 C   0  0  0  0  0  0  0  0  0  0  0  0
    5.7842  -10.5515    0.0000 C   0  0  0  0  0  0  0  0  0  0  0  0
    6.4930  -10.1293    0.0000 C   0  0  0  0  0  0  0  0  0  0  0  0
    6.4817   -9.3044    0.0000 C   0  0  0  0  0  0  0  0  0  0  0  0
    7.9105   -9.2849    0.0000 C   0  0  0  0  0  0  0  0  0  0  0  0
    7.1905   -8.8822    0.0000 C   0  0  0  0  0  0  0  0  0  0  0  0
    8.6193   -8.8627    0.0000 C   0  0  0  0  0  0  0  0  0  0  0  0
    8.6081   -8.0378    0.0000 O   0  0  0  0  0  0  0  0  0  0  0  0
    9.3394   -9.2654    0.0000 O   0  0  0  0  0  0  0  0  0  0  0  0
   10.0481   -8.8432    0.0000 C   0  0  0  0  0  0  0  0  0  0  0  0
   10.0369   -8.0183    0.0000 C   0  0  0  0  0  0  0  0  0  0  0  0
    9.3169   -7.6156    0.0000 O   0  0  0  0  0  0  0  0  0  0  0  0
   10.7682   -9.2459    0.0000 C   0  0  0  0  0  0  0  0  0  0  0  0
   11.4769   -8.8237    0.0000 C   0  0  0  0  0  0  0  0  0  0  0  0
   11.4657   -7.9988    0.0000 C   0  0  0  0  0  0  0  0  0  0  0  0
   10.7457   -7.5961    0.0000 O   0  0  0  0  0  0  0  0  0  0  0  0
   12.1970   -9.2265    0.0000 C   0  0  0  0  0  0  0  0  0  0  0  0
   12.9058   -8.8043    0.0000 C   0  0  0  0  0  0  0  0  0  0  0  0
   12.8945   -7.9793    0.0000 C   0  0  0  0  0  0  0  0  0  0  0  0
   12.1745   -7.5766    0.0000 C   0  0  0  0  0  0  0  0  0  0  0  0
    4.3554  -10.5710    0.0000 O   0  0  0  0  0  0  0  0  0  0  0  0
   13.6258   -9.2070    0.0000 O   0  0  0  0  0  0  0  0  0  0  0  0
   13.6033   -7.5571    0.0000 O   0  0  0  0  0  0  0  0  0  0  0  0
  1  2  1  0  0  0  0
  2  3  2  0  0  0  0
  3  4  1  0  0  0  0
  2  5  1  0  0  0  0
  5  6  2  0  0  0  0
  6  7  1  0  0  0  0
  7  8  2  0  0  0  0
  8  3  1  0  0  0  0
  9 10  1  0  0  0  0
 10 11  2  0  0  0  0
 11  7  1  0  0  0  0
 10 12  1  0  0  0  0
 12 13  1  0  0  0  0
  9 14  1  0  0  0  0
 14 15  1  0  0  0  0
 16 12  2  0  0  0  0
 14 17  2  0  0  0  0
 17 18  1  0  0  0  0
 18 19  2  0  0  0  0
 19 20  1  0  0  0  0
 20 15  2  0  0  0  0
 21 22  2  0  0  0  0
 22 20  1  0  0  0  0
 21 23  1  0  0  0  0
 23 24  2  0  0  0  0
 23 25  1  0  0  0  0
 25 26  1  0  0  0  0
 26 27  1  0  0  0  0
 27 28  2  0  0  0  0
 26 29  1  0  0  0  0
 29 30  1  0  0  0  0
 30 31  1  0  0  0  0
 32 27  1  0  0  0  0
 30 33  2  0  0  0  0
 33 34  1  0  0  0  0
 34 35  2  0  0  0  0
 35 36  1  0  0  0  0
 36 31  2  0  0  0  0
 17 37  1  0  0  0  0
 34 38  1  0  0  0  0
 35 39  1  0  0  0  0
M  END
>  <cdx:fragmentId>
5

$$$$
