90934.cdx
  Mrv1902 05222410242D          

 43 47  0  0  0  0            999 V2000
   10.2048   -6.5466    0.0000 C   0  0  0  0  0  0  0  0  0  0  0  0
   10.2048   -7.3716    0.0000 C   0  0  0  0  0  0  0  0  0  0  0  0
    9.4903   -7.7841    0.0000 C   0  0  0  0  0  0  0  0  0  0  0  0
    9.4903   -8.6091    0.0000 O   0  0  0  0  0  0  0  0  0  0  0  0
    8.7758   -7.3716    0.0000 C   0  0  0  0  0  0  0  0  0  0  0  0
    8.0614   -7.7841    0.0000 C   0  0  0  0  0  0  0  0  0  0  0  0
    8.0614   -8.6091    0.0000 O   0  0  0  0  0  0  0  0  0  0  0  0
    7.3469   -7.3716    0.0000 C   0  0  0  0  0  0  0  0  0  0  0  0
    7.3469   -6.5466    0.0000 C   0  0  0  0  0  0  0  0  0  0  0  0
    6.6324   -6.1341    0.0000 O   0  0  0  0  0  0  0  0  0  0  0  0
    8.0614   -6.1341    0.0000 C   0  0  0  0  0  0  0  0  0  0  0  0
    8.7758   -6.5466    0.0000 C   0  0  0  0  0  0  0  0  0  0  0  0
    9.4903   -6.1341    0.0000 O   0  0  0  0  0  0  0  0  0  0  0  0
   10.9193   -6.1341    0.0000 C   0  0  0  0  0  0  0  0  0  0  0  0
   11.6337   -6.5466    0.0000 C   0  0  0  0  0  0  0  0  0  0  0  0
   12.3482   -6.1341    0.0000 C   0  0  0  0  0  0  0  0  0  0  0  0
   12.3482   -5.3091    0.0000 C   0  0  0  0  0  0  0  0  0  0  0  0
   13.0627   -4.8966    0.0000 O   0  0  0  0  0  0  0  0  0  0  0  0
   11.6337   -4.8966    0.0000 C   0  0  0  0  0  0  0  0  0  0  0  0
   10.9193   -5.3091    0.0000 C   0  0  0  0  0  0  0  0  0  0  0  0
    6.6366   -7.7813    0.0000 C   0  0  2  0  0  0  0  0  0  0  0  0
   11.6337   -4.0716    0.0000 O   0  0  0  0  0  0  0  0  0  0  0  0
    5.8831   -7.4455    0.0000 O   0  0  0  0  0  0  0  0  0  0  0  0
    5.3308   -8.0584    0.0000 C   0  0  1  0  0  0  0  0  0  0  0  0
    5.7430   -8.7730    0.0000 C   0  0  1  0  0  0  0  0  0  0  0  0
    6.5501   -8.6018    0.0000 C   0  0  1  0  0  0  0  0  0  0  0  0
    7.1629   -9.1541    0.0000 O   0  0  0  0  0  0  0  0  0  0  0  0
    5.4072   -9.5266    0.0000 O   0  0  0  0  0  0  0  0  0  0  0  0
    4.5103   -7.9718    0.0000 C   0  0  0  0  0  0  0  0  0  0  0  0
    4.0252   -8.6391    0.0000 O   0  0  0  0  0  0  0  0  0  0  0  0
    6.7231   -6.9609    0.0000 H   0  0  0  0  0  0  0  0  0  0  0  0
    3.2047   -8.5526    0.0000 C   0  0  2  0  0  0  0  0  0  0  0  0
    2.8694   -7.7988    0.0000 O   0  0  0  0  0  0  0  0  0  0  0  0
    2.0490   -7.7122    0.0000 C   0  0  1  0  0  0  0  0  0  0  0  0
    1.5638   -8.3795    0.0000 C   0  0  2  0  0  0  0  0  0  0  0  0
    1.8991   -9.1333    0.0000 C   0  0  1  0  0  0  0  0  0  0  0  0
    2.7195   -9.2198    0.0000 C   0  0  1  0  0  0  0  0  0  0  0  0
    1.7137   -6.9584    0.0000 C   0  0  0  0  0  0  0  0  0  0  0  0
    1.4139   -9.8005    0.0000 O   0  0  0  0  0  0  0  0  0  0  0  0
    3.0548   -9.9736    0.0000 O   0  0  0  0  0  0  0  0  0  0  0  0
    0.7434   -8.2929    0.0000 O   0  0  0  0  0  0  0  0  0  0  0  0
    2.1989   -6.2912    0.0000 O   0  0  0  0  0  0  0  0  0  0  0  0
    0.8933   -6.8719    0.0000 O   0  0  0  0  0  0  0  0  0  0  0  0
  1  2  2  0  0  0  0
  2  3  1  0  0  0  0
  3  4  2  0  0  0  0
  3  5  1  0  0  0  0
  5  6  1  0  0  0  0
  6  7  1  0  0  0  0
  6  8  2  0  0  0  0
  8  9  1  0  0  0  0
  9 10  1  0  0  0  0
  9 11  2  0  0  0  0
 11 12  1  0  0  0  0
  5 12  2  0  0  0  0
 12 13  1  0  0  0  0
  1 13  1  0  0  0  0
  1 14  1  0  0  0  0
 14 15  1  0  0  0  0
 15 16  2  0  0  0  0
 16 17  1  0  0  0  0
 17 18  1  0  0  0  0
 17 19  2  0  0  0  0
 19 20  1  0  0  0  0
 14 20  2  0  0  0  0
 21  8  1  0  0  0  0
 19 22  1  0  0  0  0
 21 23  1  0  0  0  0
 23 24  1  0  0  0  0
 24 25  1  0  0  0  0
 25 26  1  0  0  0  0
 26 21  1  0  0  0  0
 26 27  1  6  0  0  0
 25 28  1  1  0  0  0
 24 29  1  1  0  0  0
 29 30  1  0  0  0  0
 21 31  1  6  0  0  0
 32 30  1  1  0  0  0
 32 33  1  0  0  0  0
 33 34  1  0  0  0  0
 34 35  1  0  0  0  0
 35 36  1  0  0  0  0
 36 37  1  0  0  0  0
 37 32  1  0  0  0  0
 34 38  1  1  0  0  0
 36 39  1  1  0  0  0
 37 40  1  6  0  0  0
 35 41  1  6  0  0  0
 38 42  2  0  0  0  0
 38 43  1  0  0  0  0
M  END
>  <cdx:groupId>
138

>  <cdx:fragmentId>
140

$$$$
