90930.cdx
  Mrv1902 05222410252D          

 29 31  0  0  0  0            999 V2000
    5.7868  -10.6964    0.0000 C   0  0  2  0  0  0  0  0  0  0  0  0
    5.7868  -11.5214    0.0000 C   0  0  2  0  0  0  0  0  0  0  0  0
    6.5013  -11.9339    0.0000 C   0  0  1  0  0  0  0  0  0  0  0  0
    7.2157  -11.5214    0.0000 C   0  0  2  0  0  0  0  0  0  0  0  0
    7.2157  -10.6964    0.0000 C   0  0  1  0  0  0  0  0  0  0  0  0
    6.5013  -10.2839    0.0000 O   0  0  0  0  0  0  0  0  0  0  0  0
    4.3579  -10.6964    0.0000 O   0  0  0  0  0  0  0  0  0  0  0  0
    5.0723  -10.2839    0.0000 C   0  0  0  0  0  0  0  0  0  0  0  0
    7.9302  -10.2839    0.0000 S   0  0  0  0  0  0  0  0  0  0  0  0
    7.9302   -9.4589    0.0000 C   0  0  0  0  0  0  0  0  0  0  0  0
    7.2157   -9.0464    0.0000 C   0  0  0  0  0  0  0  0  0  0  0  0
    8.6447   -9.0464    0.0000 N   0  0  0  0  0  0  0  0  0  0  0  0
    7.9302   -7.8089    0.0000 C   0  0  0  0  0  0  0  0  0  0  0  0
    7.2157   -8.2214    0.0000 C   0  0  0  0  0  0  0  0  0  0  0  0
    7.7587   -7.0019    0.0000 N   0  0  0  0  0  0  0  0  0  0  0  0
    6.9382   -6.9157    0.0000 C   0  0  0  0  0  0  0  0  0  0  0  0
    6.6027   -7.6694    0.0000 C   0  0  0  0  0  0  0  0  0  0  0  0
    6.4533   -6.2483    0.0000 C   0  0  0  0  0  0  0  0  0  0  0  0
    5.6328   -6.3345    0.0000 C   0  0  0  0  0  0  0  0  0  0  0  0
    5.2972   -7.0882    0.0000 C   0  0  0  0  0  0  0  0  0  0  0  0
    5.7822   -7.7556    0.0000 C   0  0  0  0  0  0  0  0  0  0  0  0
    9.3592   -9.4589    0.0000 O   0  0  0  0  0  0  0  0  0  0  0  0
   10.0736   -9.0464    0.0000 S   0  0  0  0  0  0  0  0  0  0  0  0
   10.7881   -8.6339    0.0000 O   0  0  0  0  0  0  0  0  0  0  0  0
    9.6611   -8.3319    0.0000 O   0  0  0  0  0  0  0  0  0  0  0  0
   10.4861   -9.7609    0.0000 O   0  0  0  0  0  0  0  0  0  0  0  0
    6.5013  -12.7589    0.0000 O   0  0  0  0  0  0  0  0  0  0  0  0
    5.0723  -11.9339    0.0000 O   0  0  0  0  0  0  0  0  0  0  0  0
    7.9302  -11.9339    0.0000 O   0  0  0  0  0  0  0  0  0  0  0  0
  1  2  1  0  0  0  0
  2  3  1  0  0  0  0
  3  4  1  0  0  0  0
  4  5  1  0  0  0  0
  5  6  1  0  0  0  0
  6  1  1  0  0  0  0
  7  8  1  0  0  0  0
  1  8  1  1  0  0  0
  5  9  1  1  0  0  0
  9 10  1  0  0  0  0
 10 11  1  0  0  0  0
 10 12  2  0  0  0  0
 13 14  2  0  0  0  0
 14 11  1  0  0  0  0
 13 15  1  0  0  0  0
 15 16  1  0  0  0  0
 16 17  2  0  0  0  0
 17 14  1  0  0  0  0
 16 18  1  0  0  0  0
 18 19  2  0  0  0  0
 19 20  1  0  0  0  0
 20 21  2  0  0  0  0
 21 17  1  0  0  0  0
 12 22  1  0  0  0  0
 22 23  1  0  0  0  0
 23 24  2  0  0  0  0
 23 25  1  0  0  0  0
 23 26  2  0  0  0  0
  3 27  1  1  0  0  0
  2 28  1  6  0  0  0
  4 29  1  6  0  0  0
M  END
>  <cdx:fragmentId>
5

$$$$
