90931.cdx
  Mrv1902 05222410242D          

 42 45  0  0  0  0            999 V2000
    4.7307  -11.2699    0.0000 C   0  0  0  0  0  0  0  0  0  0  0  0
    4.4758  -12.0545    0.0000 C   0  0  0  0  0  0  0  0  0  0  0  0
    3.6688  -12.2260    0.0000 C   0  0  0  0  0  0  0  0  0  0  0  0
    3.4139  -13.0107    0.0000 C   0  0  0  0  0  0  0  0  0  0  0  0
    2.6069  -13.1822    0.0000 C   0  0  0  0  0  0  0  0  0  0  0  0
    9.8803   -7.4629    0.0000 H   0  0  0  0  0  0  0  0  0  0  0  0
   11.6309   -8.9674    0.0000 H   0  0  0  0  0  0  0  0  0  0  0  0
   11.5551   -9.6323    0.0000 H   0  0  0  0  0  0  0  0  0  0  0  0
    9.1480  -11.7537    0.0000 O   0  0  0  0  0  0  0  0  0  0  0  0
    9.7567  -12.2606    0.0000 O   0  0  0  0  0  0  0  0  0  0  0  0
   11.2590  -11.9178    0.0000 C   0  0  0  0  0  0  0  0  0  0  0  0
    7.2007  -10.5294    0.0000 C   0  0  0  0  0  0  0  0  0  0  0  0
   11.1376   -7.1377    0.0000 C   0  0  0  0  0  0  0  0  0  0  0  0
   11.7633   -7.6754    0.0000 C   0  0  0  0  0  0  0  0  0  0  0  0
    8.0073   -9.3125    0.0000 C   0  0  0  0  0  0  0  0  0  0  0  0
    9.7567   -8.7983    0.0000 O   0  0  0  0  0  0  0  0  0  0  0  0
    9.9403   -9.6026    0.0000 C   0  0  0  0  0  0  0  0  0  0  0  0
    8.8323   -9.3125    0.0000 C   0  0  2  0  0  0  0  0  0  0  0  0
    9.2041   -8.4621    0.0000 C   0  0  0  0  0  0  0  0  0  0  0  0
   10.1089   -8.2556    0.0000 C   0  0  1  0  0  0  0  0  0  0  0  0
   10.9848   -7.9484    0.0000 C   0  0  0  0  0  0  0  0  0  0  0  0
   10.8129   -8.8605    0.0000 C   0  0  1  0  0  0  0  0  0  0  0  0
   10.7446   -9.7861    0.0000 C   0  0  2  0  0  0  0  0  0  0  0  0
   11.1025  -10.5294    0.0000 C   0  0  0  0  0  0  0  0  0  0  0  0
   10.7446  -11.2727    0.0000 C   0  0  0  0  0  0  0  0  0  0  0  0
    9.9403  -11.4563    0.0000 C   0  0  2  0  0  0  0  0  0  0  0  0
    9.2953  -10.9419    0.0000 C   0  0  1  0  0  0  0  0  0  0  0  0
    8.5106  -11.1969    0.0000 C   0  0  2  0  0  0  0  0  0  0  0  0
    8.0257  -10.5294    0.0000 C   0  0  0  0  0  0  0  0  0  0  0  0
    8.5106   -9.8620    0.0000 C   0  0  0  0  0  0  0  0  0  0  0  0
    9.2953  -10.1169    0.0000 C   0  0  0  0  0  0  0  0  0  0  0  0
    8.2557  -11.9815    0.0000 O   0  0  0  0  0  0  0  0  0  0  0  0
    7.1938  -12.9377    0.0000 O   0  0  0  0  0  0  0  0  0  0  0  0
    2.3520  -13.9668    0.0000 C   0  0  0  0  0  0  0  0  0  0  0  0
    5.5377  -11.0984    0.0000 C   0  0  0  0  0  0  0  0  0  0  0  0
    6.0897  -11.7115    0.0000 C   0  0  0  0  0  0  0  0  0  0  0  0
    6.8967  -11.5399    0.0000 C   0  0  0  0  0  0  0  0  0  0  0  0
    7.4487  -12.1530    0.0000 C   0  0  0  0  0  0  0  0  0  0  0  0
   12.0748  -11.7948    0.0000 O   0  0  0  0  0  0  0  0  0  0  0  0
   10.3615  -12.8218    0.0000 C   0  0  0  0  0  0  0  0  0  0  0  0
   10.1779  -13.6261    0.0000 O   0  0  0  0  0  0  0  0  0  0  0  0
   11.1498  -12.5786    0.0000 C   0  0  0  0  0  0  0  0  0  0  0  0
 20  6  1  6  0  0  0
 22  7  1  6  0  0  0
 23  8  1  1  0  0  0
 28 32  1  1  0  0  0
 27  9  1  1  0  0  0
 26 10  1  1  0  0  0
 25 11  1  0  0  0  0
 29 12  1  0  0  0  0
 21 13  1  0  0  0  0
 21 14  1  0  0  0  0
 18 15  1  6  0  0  0
 17 16  2  0  0  0  0
 31 27  1  0  0  0  0
 22 20  1  0  0  0  0
 23 17  1  0  0  0  0
 31 17  1  0  0  0  0
 31 18  1  0  0  0  0
 19 18  1  0  0  0  0
 20 19  1  0  0  0  0
 21 20  1  0  0  0  0
 22 21  1  0  0  0  0
 23 22  1  0  0  0  0
 24 23  1  0  0  0  0
 25 24  2  0  0  0  0
 26 25  1  0  0  0  0
 27 26  1  0  0  0  0
 28 27  1  0  0  0  0
 29 28  1  0  0  0  0
 30 29  2  0  0  0  0
 31 30  1  0  0  0  0
 38 32  1  0  0  0  0
 38 33  2  0  0  0  0
 35  1  2  0  0  0  0
 36 35  1  0  0  0  0
 37 36  2  0  0  0  0
 38 37  1  0  0  0  0
  1  2  1  0  0  0  0
  2  3  1  0  0  0  0
  3  4  1  0  0  0  0
  4  5  1  0  0  0  0
  5 34  1  0  0  0  0
 11 39  1  0  0  0  0
 10 40  1  0  0  0  0
 40 41  2  0  0  0  0
 40 42  1  0  0  0  0
M  END
>  <cdx:groupId>
947

>  <cdx:fragmentId>
854

$$$$
