90937.cdx
  Mrv1902 05222410232D          

 31 34  0  0  0  0            999 V2000
    4.6904   -9.7961    0.0000 C   0  0  0  0  0  0  0  0  0  0  0  0
    5.4088  -10.2018    0.0000 C   0  0  0  0  0  0  0  0  0  0  0  0
    6.1193   -9.7825    0.0000 C   0  0  0  0  0  0  0  0  0  0  0  0
    6.1115   -8.9576    0.0000 C   0  0  0  0  0  0  0  0  0  0  0  0
    5.3931   -8.5519    0.0000 C   0  0  0  0  0  0  0  0  0  0  0  0
    4.6826   -8.9712    0.0000 C   0  0  0  0  0  0  0  0  0  0  0  0
    6.8377  -10.1882    0.0000 C   0  0  0  0  0  0  0  0  0  0  0  0
    7.5482   -9.7690    0.0000 C   0  0  0  0  0  0  0  0  0  0  0  0
    7.5404   -8.9440    0.0000 C   0  0  0  0  0  0  0  0  0  0  0  0
    6.8220   -8.5383    0.0000 O   0  0  0  0  0  0  0  0  0  0  0  0
    5.4166  -11.0268    0.0000 O   0  0  0  0  0  0  0  0  0  0  0  0
    6.8455  -11.0132    0.0000 O   0  0  0  0  0  0  0  0  0  0  0  0
    8.2509   -8.5247    0.0000 C   0  0  0  0  0  0  0  0  0  0  0  0
    8.2430   -7.6998    0.0000 C   0  0  0  0  0  0  0  0  0  0  0  0
    8.9692   -8.9304    0.0000 C   0  0  0  0  0  0  0  0  0  0  0  0
    9.6798   -8.5112    0.0000 C   0  0  0  0  0  0  0  0  0  0  0  0
    9.6719   -7.6862    0.0000 C   0  0  0  0  0  0  0  0  0  0  0  0
    8.9536   -7.2805    0.0000 C   0  0  0  0  0  0  0  0  0  0  0  0
   10.3981   -8.9168    0.0000 O   0  0  0  0  0  0  0  0  0  0  0  0
   10.3824   -7.2669    0.0000 O   0  0  0  0  0  0  0  0  0  0  0  0
    3.9643   -8.5655    0.0000 O   0  0  0  0  0  0  0  0  0  0  0  0
   10.4060   -9.7418    0.0000 C   0  0  2  0  0  0  0  0  0  0  0  0
    9.6954  -10.1611    0.0000 O   0  0  0  0  0  0  0  0  0  0  0  0
    9.7033  -10.9860    0.0000 C   0  0  2  0  0  0  0  0  0  0  0  0
   10.4216  -11.3917    0.0000 C   0  0  1  0  0  0  0  0  0  0  0  0
   11.1322  -10.9725    0.0000 C   0  0  2  0  0  0  0  0  0  0  0  0
   11.1243  -10.1475    0.0000 C   0  0  1  0  0  0  0  0  0  0  0  0
   10.4295  -12.2167    0.0000 O   0  0  0  0  0  0  0  0  0  0  0  0
    8.9928  -11.4053    0.0000 C   0  0  0  0  0  0  0  0  0  0  0  0
   11.8505  -11.3782    0.0000 O   0  0  0  0  0  0  0  0  0  0  0  0
   11.8348   -9.7282    0.0000 O   0  0  0  0  0  0  0  0  0  0  0  0
  1  2  1  0  0  0  0
  2  3  2  0  0  0  0
  3  4  1  0  0  0  0
  4  5  2  0  0  0  0
  5  6  1  0  0  0  0
  6  1  2  0  0  0  0
  3  7  1  0  0  0  0
  7  8  1  0  0  0  0
  8  9  2  0  0  0  0
  9 10  1  0  0  0  0
 10  4  1  0  0  0  0
  2 11  1  0  0  0  0
 12  7  2  0  0  0  0
  9 13  1  0  0  0  0
 13 14  1  0  0  0  0
 13 15  2  0  0  0  0
 15 16  1  0  0  0  0
 16 17  2  0  0  0  0
 17 18  1  0  0  0  0
 18 14  2  0  0  0  0
 16 19  1  0  0  0  0
 20 17  1  0  0  0  0
  6 21  1  0  0  0  0
 22 19  1  1  0  0  0
 22 23  1  0  0  0  0
 23 24  1  0  0  0  0
 24 25  1  0  0  0  0
 25 26  1  0  0  0  0
 26 27  1  0  0  0  0
 27 22  1  0  0  0  0
 25 28  1  1  0  0  0
 24 29  1  6  0  0  0
 26 30  1  6  0  0  0
 27 31  1  6  0  0  0
M  END
>  <cdx:fragmentId>
5

$$$$
