90936.cdx
  Mrv1902 05222410242D          

 40 43  0  0  0  0            999 V2000
    2.5413   -6.7644    0.0000 C   0  0  0  0  0  0  0  0  0  0  0  0
    2.1288   -7.4789    0.0000 C   0  0  0  0  0  0  0  0  0  0  0  0
    2.5413   -8.1934    0.0000 C   0  0  0  0  0  0  0  0  0  0  0  0
    3.3663   -8.1934    0.0000 C   0  0  0  0  0  0  0  0  0  0  0  0
    3.7788   -7.4789    0.0000 C   0  0  0  0  0  0  0  0  0  0  0  0
    3.3663   -6.7644    0.0000 C   0  0  0  0  0  0  0  0  0  0  0  0
    3.7788   -8.9078    0.0000 C   0  0  2  0  0  0  0  0  0  0  0  0
    4.6038   -8.9078    0.0000 C   0  0  0  0  0  0  0  0  0  0  0  0
    3.5238   -9.6925    0.0000 O   0  0  0  0  0  0  0  0  0  0  0  0
    4.1913  -10.1774    0.0000 C   0  0  0  0  0  0  0  0  0  0  0  0
    4.8587   -9.6925    0.0000 C   0  0  0  0  0  0  0  0  0  0  0  0
    4.2775  -10.9979    0.0000 C   0  0  0  0  0  0  0  0  0  0  0  0
    5.0312  -11.3334    0.0000 C   0  0  0  0  0  0  0  0  0  0  0  0
    5.6986  -10.8485    0.0000 C   0  0  0  0  0  0  0  0  0  0  0  0
    5.6124  -10.0280    0.0000 C   0  0  0  0  0  0  0  0  0  0  0  0
    7.0335   -9.8787    0.0000 C   0  0  0  0  0  0  0  0  0  0  0  0
    6.2798   -9.5431    0.0000 C   0  0  0  0  0  0  0  0  0  0  0  0
    8.4546   -9.7293    0.0000 O   0  0  0  0  0  0  0  0  0  0  0  0
    7.7009   -9.3937    0.0000 C   0  0  0  0  0  0  0  0  0  0  0  0
    9.1221   -9.2444    0.0000 C   0  0  0  0  0  0  0  0  0  0  0  0
    9.0358   -8.4239    0.0000 C   0  0  0  0  0  0  0  0  0  0  0  0
    8.2821   -8.0883    0.0000 O   0  0  0  0  0  0  0  0  0  0  0  0
    7.6147   -8.5733    0.0000 O   0  0  0  0  0  0  0  0  0  0  0  0
    9.8757   -9.5799    0.0000 C   0  0  0  0  0  0  0  0  0  0  0  0
   10.5432   -9.0950    0.0000 C   0  0  0  0  0  0  0  0  0  0  0  0
   10.4569   -8.2745    0.0000 C   0  0  0  0  0  0  0  0  0  0  0  0
    9.7033   -7.9390    0.0000 O   0  0  0  0  0  0  0  0  0  0  0  0
   11.2968   -9.4306    0.0000 C   0  0  0  0  0  0  0  0  0  0  0  0
   11.9643   -8.9456    0.0000 C   0  0  0  0  0  0  0  0  0  0  0  0
   11.8780   -8.1252    0.0000 C   0  0  0  0  0  0  0  0  0  0  0  0
   11.1244   -7.7896    0.0000 C   0  0  0  0  0  0  0  0  0  0  0  0
    3.6101  -11.4828    0.0000 O   0  0  0  0  0  0  0  0  0  0  0  0
   12.5455   -7.6402    0.0000 O   0  0  0  0  0  0  0  0  0  0  0  0
   12.7180   -9.2812    0.0000 O   0  0  0  0  0  0  0  0  0  0  0  0
    5.0887   -8.2404    0.0000 C   0  0  0  0  0  0  0  0  0  0  0  0
    4.7531   -7.4867    0.0000 O   0  0  0  0  0  0  0  0  0  0  0  0
    5.9092   -8.3266    0.0000 O   0  0  0  0  0  0  0  0  0  0  0  0
    1.3038   -7.4789    0.0000 O   0  0  0  0  0  0  0  0  0  0  0  0
    2.1288   -6.0500    0.0000 O   0  0  0  0  0  0  0  0  0  0  0  0
    9.7033   -7.1140    0.0000 C   0  0  0  0  0  0  0  0  0  0  0  0
  1  2  1  0  0  0  0
  2  3  2  0  0  0  0
  3  4  1  0  0  0  0
  4  5  2  0  0  0  0
  5  6  1  0  0  0  0
  7  4  1  6  0  0  0
  7  8  1  0  0  0  0
  7  9  1  0  0  0  0
  9 10  1  0  0  0  0
 10 11  2  0  0  0  0
 11  8  1  0  0  0  0
 10 12  1  0  0  0  0
 12 13  2  0  0  0  0
 13 14  1  0  0  0  0
 14 15  2  0  0  0  0
 15 11  1  0  0  0  0
 16 17  2  0  0  0  0
 17 15  1  0  0  0  0
 18 19  1  0  0  0  0
 19 16  1  0  0  0  0
 18 20  1  0  0  0  0
 20 21  1  0  0  0  0
 21 22  2  0  0  0  0
 23 19  2  0  0  0  0
 20 24  1  0  0  0  0
 24 25  1  0  0  0  0
 25 26  1  0  0  0  0
 27 21  1  0  0  0  0
 25 28  2  0  0  0  0
 28 29  1  0  0  0  0
 29 30  2  0  0  0  0
 30 31  1  0  0  0  0
 31 26  2  0  0  0  0
 12 32  1  0  0  0  0
 30 33  1  0  0  0  0
 29 34  1  0  0  0  0
  8 35  1  0  0  0  0
 35 36  2  0  0  0  0
 35 37  1  0  0  0  0
  1  6  2  0  0  0  0
  2 38  1  0  0  0  0
  1 39  1  0  0  0  0
 27 40  1  0  0  0  0
M  END
>  <cdx:fragmentId>
5

$$$$
