90949.cdx
  Mrv1902 05222410182D          

 70 77  0  0  0  0            999 V2000
   10.8487   -7.6597    0.0000 C   0  0  2  0  0  0  0  0  0  0  0  0
   10.8487   -8.4847    0.0000 C   0  0  1  0  0  0  0  0  0  0  0  0
   11.5632   -8.8972    0.0000 C   0  0  1  0  0  0  0  0  0  0  0  0
   12.2776   -8.4847    0.0000 C   0  0  1  0  0  0  0  0  0  0  0  0
   12.2776   -7.6597    0.0000 C   0  0  2  0  0  0  0  0  0  0  0  0
   11.5632   -7.2472    0.0000 C   0  0  0  0  0  0  0  0  0  0  0  0
   12.9921   -8.8972    0.0000 C   0  0  0  0  0  0  0  0  0  0  0  0
   13.7066   -8.4847    0.0000 C   0  0  0  0  0  0  0  0  0  0  0  0
   13.7066   -7.6597    0.0000 C   0  0  2  0  0  0  0  0  0  0  0  0
   12.9921   -7.2472    0.0000 C   0  0  2  0  0  0  0  0  0  0  0  0
   14.4211   -7.2472    0.0000 C   0  0  1  0  0  0  0  0  0  0  0  0
   14.4211   -6.4222    0.0000 C   0  0  0  0  0  0  0  0  0  0  0  0
   13.7066   -6.0097    0.0000 C   0  0  0  0  0  0  0  0  0  0  0  0
   12.9921   -6.4222    0.0000 C   0  0  0  0  0  0  0  0  0  0  0  0
   15.1355   -7.6597    0.0000 C   0  0  0  0  0  0  0  0  0  0  0  0
   15.8500   -7.2472    0.0000 C   0  0  0  0  0  0  0  0  0  0  0  0
   15.8500   -6.4222    0.0000 C   0  0  2  0  0  0  0  0  0  0  0  0
   15.1355   -6.0097    0.0000 C   0  0  1  0  0  0  0  0  0  0  0  0
   16.5645   -6.0097    0.0000 C   0  0  0  0  0  0  0  0  0  0  0  0
   16.5645   -5.1847    0.0000 C   0  0  0  0  0  0  0  0  0  0  0  0
   15.8500   -4.7722    0.0000 C   0  0  1  0  0  0  0  0  0  0  0  0
   15.1355   -5.1847    0.0000 C   0  0  0  0  0  0  0  0  0  0  0  0
   17.2789   -6.4222    0.0000 O   0  0  0  0  0  0  0  0  0  0  0  0
   17.9933   -6.8349    0.0000 C   0  0  2  0  0  0  0  0  0  0  0  0
   17.9931   -7.6599    0.0000 O   0  0  0  0  0  0  0  0  0  0  0  0
   18.7075   -8.0726    0.0000 C   0  0  1  0  0  0  0  0  0  0  0  0
   15.4375   -4.0578    0.0000 C   0  0  0  0  0  0  0  0  0  0  0  0
   13.7066   -6.8347    0.0000 C   0  0  0  0  0  0  0  0  0  0  0  0
   12.2776   -6.8347    0.0000 C   0  0  0  0  0  0  0  0  0  0  0  0
   10.1342   -7.2472    0.0000 O   0  0  0  0  0  0  0  0  0  0  0  0
   10.1342   -8.8972    0.0000 O   0  0  0  0  0  0  0  0  0  0  0  0
   11.1507   -9.6117    0.0000 C   0  0  0  0  0  0  0  0  0  0  0  0
   11.9757   -9.6117    0.0000 C   0  0  0  0  0  0  0  0  0  0  0  0
   14.4211   -8.0722    0.0000 C   0  0  0  0  0  0  0  0  0  0  0  0
   16.2625   -4.0578    0.0000 C   0  0  0  0  0  0  0  0  0  0  0  0
   19.4221   -7.6602    0.0000 C   0  0  2  0  0  0  0  0  0  0  0  0
   19.4223   -6.8352    0.0000 C   0  0  1  0  0  0  0  0  0  0  0  0
   18.7079   -6.4226    0.0000 C   0  0  1  0  0  0  0  0  0  0  0  0
   18.7074   -8.8976    0.0000 C   0  0  0  0  0  0  0  0  0  0  0  0
   20.1368   -6.4229    0.0000 O   0  0  0  0  0  0  0  0  0  0  0  0
   18.7081   -5.5976    0.0000 O   0  0  0  0  0  0  0  0  0  0  0  0
   20.1365   -8.0729    0.0000 O   0  0  0  0  0  0  0  0  0  0  0  0
   19.4217   -9.3102    0.0000 O   0  0  0  0  0  0  0  0  0  0  0  0
   16.5645   -7.6597    0.0000 O   0  0  0  0  0  0  0  0  0  0  0  0
   16.5645   -6.8347    0.0000 C   0  0  0  0  0  0  0  0  0  0  0  0
    9.4198   -8.4847    0.0000 C   0  0  2  0  0  0  0  0  0  0  0  0
    9.4198   -7.6597    0.0000 O   0  0  0  0  0  0  0  0  0  0  0  0
    8.7053   -7.2472    0.0000 C   0  0  1  0  0  0  0  0  0  0  0  0
    7.9908   -7.6597    0.0000 C   0  0  2  0  0  0  0  0  0  0  0  0
    7.9908   -8.4847    0.0000 C   0  0  1  0  0  0  0  0  0  0  0  0
    8.7053   -8.8972    0.0000 C   0  0  1  0  0  0  0  0  0  0  0  0
    8.7053   -9.7222    0.0000 O   0  0  0  0  0  0  0  0  0  0  0  0
    7.2763   -7.2472    0.0000 O   0  0  0  0  0  0  0  0  0  0  0  0
    8.7053   -6.4222    0.0000 C   0  0  0  0  0  0  0  0  0  0  0  0
    7.2763   -8.8972    0.0000 O   0  0  0  0  0  0  0  0  0  0  0  0
    6.5523   -8.4952    0.0000 C   0  0  2  0  0  0  0  0  0  0  0  0
    6.5537   -7.6702    0.0000 O   0  0  0  0  0  0  0  0  0  0  0  0
    5.8399   -7.2565    0.0000 C   0  0  0  0  0  0  0  0  0  0  0  0
    5.1247   -7.6678    0.0000 C   0  0  2  0  0  0  0  0  0  0  0  0
    5.1233   -8.4928    0.0000 C   0  0  1  0  0  0  0  0  0  0  0  0
    5.8371   -8.9065    0.0000 C   0  0  1  0  0  0  0  0  0  0  0  0
    4.4082   -8.9041    0.0000 O   0  0  0  0  0  0  0  0  0  0  0  0
    5.8357   -9.7315    0.0000 O   0  0  0  0  0  0  0  0  0  0  0  0
    4.4110   -7.2541    0.0000 O   0  0  0  0  0  0  0  0  0  0  0  0
    7.9908   -6.0097    0.0000 O   0  0  0  0  0  0  0  0  0  0  0  0
    9.4198   -6.0097    0.0000 O   0  0  0  0  0  0  0  0  0  0  0  0
   11.5632  -10.3262    0.0000 O   0  0  0  0  0  0  0  0  0  0  0  0
   12.2776   -9.3097    0.0000 H   0  0  0  0  0  0  0  0  0  0  0  0
   12.9921   -8.0722    0.0000 H   0  0  0  0  0  0  0  0  0  0  0  0
   15.1355   -6.8347    0.0000 H   0  0  0  0  0  0  0  0  0  0  0  0
  1  2  1  0  0  0  0
  2  3  1  0  0  0  0
  3  4  1  0  0  0  0
  4  5  1  0  0  0  0
  5  6  1  0  0  0  0
  6  1  1  0  0  0  0
  4  7  1  0  0  0  0
  7  8  1  0  0  0  0
  8  9  1  0  0  0  0
  9 10  1  0  0  0  0
 10  5  1  0  0  0  0
  9 11  1  0  0  0  0
 11 12  1  0  0  0  0
 12 13  2  0  0  0  0
 13 14  1  0  0  0  0
 14 10  1  0  0  0  0
 11 15  1  0  0  0  0
 15 16  1  0  0  0  0
 16 17  1  0  0  0  0
 17 18  1  0  0  0  0
 18 12  1  0  0  0  0
 17 19  1  0  0  0  0
 19 20  1  0  0  0  0
 20 21  1  0  0  0  0
 21 22  1  0  0  0  0
 22 18  1  0  0  0  0
 17 45  1  1  0  0  0
 24 23  1  1  0  0  0
 21 27  1  1  0  0  0
  9 28  1  1  0  0  0
  5 29  1  1  0  0  0
  1 30  1  1  0  0  0
  2 31  1  1  0  0  0
  3 32  1  1  0  0  0
  3 33  1  6  0  0  0
 11 34  1  6  0  0  0
 21 35  1  6  0  0  0
 24 25  1  0  0  0  0
 25 26  1  0  0  0  0
 26 36  1  0  0  0  0
 36 37  1  0  0  0  0
 37 38  1  0  0  0  0
 38 24  1  0  0  0  0
 26 39  1  1  0  0  0
 37 40  1  1  0  0  0
 38 41  1  6  0  0  0
 36 42  1  6  0  0  0
 45 23  1  0  0  0  0
 39 43  1  0  0  0  0
 45 44  2  0  0  0  0
 46 31  1  1  0  0  0
 46 47  1  0  0  0  0
 47 48  1  0  0  0  0
 48 49  1  0  0  0  0
 49 50  1  0  0  0  0
 50 51  1  0  0  0  0
 51 46  1  0  0  0  0
 51 52  1  6  0  0  0
 49 53  1  6  0  0  0
 48 54  1  1  0  0  0
 50 55  1  1  0  0  0
 56 57  1  0  0  0  0
 57 58  1  0  0  0  0
 58 59  1  0  0  0  0
 59 60  1  0  0  0  0
 60 61  1  0  0  0  0
 61 56  1  0  0  0  0
 60 62  1  1  0  0  0
 61 63  1  6  0  0  0
 59 64  1  6  0  0  0
 56 55  1  1  0  0  0
 54 65  1  0  0  0  0
 54 66  2  0  0  0  0
 33 67  2  0  0  0  0
  4 68  1  6  0  0  0
 10 69  1  6  0  0  0
 18 70  1  1  0  0  0
M  END
>  <cdx:fragmentId>
5

$$$$
