909415.cdx
  Mrv1902 05222410272D          

 42 48  0  0  0  0            999 V2000
    6.7220   -8.5958    0.0000 C   0  0  0  0  0  0  0  0  0  0  0  0
    6.0072   -8.1838    0.0000 C   0  0  0  0  0  0  0  0  0  0  0  0
    6.0065   -7.3588    0.0000 C   0  0  0  0  0  0  0  0  0  0  0  0
    5.2917   -6.9469    0.0000 C   0  0  0  0  0  0  0  0  0  0  0  0
    4.5775   -7.3600    0.0000 C   0  0  0  0  0  0  0  0  0  0  0  0
    4.5782   -8.1850    0.0000 C   0  0  0  0  0  0  0  0  0  0  0  0
    5.2930   -8.5969    0.0000 C   0  0  0  0  0  0  0  0  0  0  0  0
    5.2937   -9.4219    0.0000 O   0  0  0  0  0  0  0  0  0  0  0  0
    6.0085   -9.8338    0.0000 C   0  0  1  0  0  0  0  0  0  0  0  0
    6.0100  -10.6588    0.0000 C   0  0  0  0  0  0  0  0  0  0  0  0
    6.7250  -11.0705    0.0000 C   0  0  0  0  0  0  0  0  0  0  0  0
    7.4393  -10.6577    0.0000 O   0  0  0  0  0  0  0  0  0  0  0  0
    7.4375   -9.8327    0.0000 C   0  0  0  0  0  0  0  0  0  0  0  0
    8.1516   -9.4196    0.0000 C   0  0  0  0  0  0  0  0  0  0  0  0
    8.1509   -8.5946    0.0000 C   0  0  0  0  0  0  0  0  0  0  0  0
    7.4361   -8.1827    0.0000 C   0  0  0  0  0  0  0  0  0  0  0  0
    6.7227   -9.4208    0.0000 C   0  0  0  0  0  0  0  0  0  0  0  0
    7.4398  -11.4824    0.0000 C   0  0  0  0  0  0  0  0  0  0  0  0
    7.4405  -12.3074    0.0000 C   0  0  0  0  0  0  0  0  0  0  0  0
    6.7264  -12.7205    0.0000 C   0  0  0  0  0  0  0  0  0  0  0  0
    6.7271  -13.5455    0.0000 C   0  0  0  0  0  0  0  0  0  0  0  0
    6.0129  -13.9586    0.0000 C   0  0  0  0  0  0  0  0  0  0  0  0
    5.2981  -13.5467    0.0000 C   0  0  0  0  0  0  0  0  0  0  0  0
    5.2974  -12.7217    0.0000 C   0  0  0  0  0  0  0  0  0  0  0  0
    6.0116  -12.3086    0.0000 C   0  0  0  0  0  0  0  0  0  0  0  0
    6.0109  -11.4836    0.0000 O   0  0  0  0  0  0  0  0  0  0  0  0
    8.1553  -12.7193    0.0000 C   0  0  0  0  0  0  0  0  0  0  0  0
    8.8694  -12.3062    0.0000 C   0  0  0  0  0  0  0  0  0  0  0  0
    8.8687  -11.4812    0.0000 C   0  0  0  0  0  0  0  0  0  0  0  0
    8.1539  -11.0693    0.0000 C   0  0  0  0  0  0  0  0  0  0  0  0
    5.2944  -10.2469    0.0000 C   0  0  0  0  0  0  0  0  0  0  0  0
    7.4354   -7.3577    0.0000 O   0  0  0  0  0  0  0  0  0  0  0  0
    8.1560  -13.5443    0.0000 O   0  0  0  0  0  0  0  0  0  0  0  0
    8.1532  -10.2443    0.0000 O   0  0  0  0  0  0  0  0  0  0  0  0
    6.7206   -6.9458    0.0000 O   0  0  0  0  0  0  0  0  0  0  0  0
    7.4419  -13.9574    0.0000 O   0  0  0  0  0  0  0  0  0  0  0  0
    5.2995  -15.1967    0.0000 C   0  0  0  0  0  0  0  0  0  0  0  0
    4.5762   -5.7100    0.0000 O   0  0  0  0  0  0  0  0  0  0  0  0
    6.0051   -5.7088    0.0000 C   0  0  0  0  0  0  0  0  0  0  0  0
    6.7284  -15.1955    0.0000 O   0  0  0  0  0  0  0  0  0  0  0  0
    6.0136  -14.7836    0.0000 C   0  0  0  0  0  0  0  0  0  0  0  0
    5.2910   -6.1219    0.0000 C   0  0  0  0  0  0  0  0  0  0  0  0
 42 38  2  0  0  0  0
 42 39  1  0  0  0  0
 41 37  1  0  0  0  0
 41 40  2  0  0  0  0
  1  2  1  0  0  0  0
  2  3  1  0  0  0  0
  3  4  2  0  0  0  0
  4  5  1  0  0  0  0
  5  6  2  0  0  0  0
  6  7  1  0  0  0  0
  7  8  1  0  0  0  0
  8  9  1  0  0  0  0
  9 10  1  0  0  0  0
 10 11  1  0  0  0  0
 11 12  1  0  0  0  0
 12 13  1  0  0  0  0
 13 14  1  0  0  0  0
 14 15  2  0  0  0  0
 15 16  1  0  0  0  0
  1 16  2  0  0  0  0
  1 17  1  0  0  0  0
 17  9  1  0  0  0  0
  2  7  2  0  0  0  0
 13 17  2  0  0  0  0
 18 19  2  0  0  0  0
 19 20  1  0  0  0  0
 20 21  1  0  0  0  0
 21 22  2  0  0  0  0
 22 23  1  0  0  0  0
 23 24  2  0  0  0  0
 24 25  1  0  0  0  0
 20 25  2  0  0  0  0
 25 26  1  0  0  0  0
 27 28  1  0  0  0  0
 28 29  2  0  0  0  0
 29 30  1  0  0  0  0
 30 18  1  0  0  0  0
 27 19  1  0  0  0  0
 11 18  1  0  0  0  0
 11 26  1  0  0  0  0
  9 31  1  1  0  0  0
 16 32  1  0  0  0  0
 27 33  2  0  0  0  0
 30 34  2  0  0  0  0
  3 35  1  0  0  0  0
 21 36  1  0  0  0  0
 22 41  1  0  0  0  0
 42  4  1  0  0  0  0
M  END
>  <cdx:fragmentId>
9

$$$$
