90941.cdx
  Mrv1902 05222410262D          

 37 39  0  0  0  0            999 V2000
    4.6181  -13.1851    0.0000 C   0  0  0  0  0  0  0  0  0  0  0  0
    4.6181  -14.0101    0.0000 C   0  0  0  0  0  0  0  0  0  0  0  0
    5.3325  -14.4226    0.0000 C   0  0  0  0  0  0  0  0  0  0  0  0
    6.0470  -14.0101    0.0000 C   0  0  0  0  0  0  0  0  0  0  0  0
    6.0470  -13.1851    0.0000 C   0  0  0  0  0  0  0  0  0  0  0  0
    5.3325  -12.7726    0.0000 C   0  0  0  0  0  0  0  0  0  0  0  0
    5.3325  -11.9476    0.0000 C   0  0  0  0  0  0  0  0  0  0  0  0
    4.6181  -11.5351    0.0000 C   0  0  0  0  0  0  0  0  0  0  0  0
    5.3325  -10.2976    0.0000 O   0  0  0  0  0  0  0  0  0  0  0  0
    4.6181  -10.7101    0.0000 C   0  0  0  0  0  0  0  0  0  0  0  0
    5.3325   -9.4726    0.0000 C   0  0  0  0  0  0  0  0  0  0  0  0
    4.6181   -9.0601    0.0000 C   0  0  0  0  0  0  0  0  0  0  0  0
    3.9036  -10.2976    0.0000 O   0  0  0  0  0  0  0  0  0  0  0  0
    5.9456   -8.9206    0.0000 C   0  0  0  0  0  0  0  0  0  0  0  0
    5.6101   -8.1669    0.0000 C   0  0  0  0  0  0  0  0  0  0  0  0
    4.7896   -8.2532    0.0000 C   0  0  0  0  0  0  0  0  0  0  0  0
    5.3325  -15.2476    0.0000 O   0  0  0  0  0  0  0  0  0  0  0  0
    6.7615  -14.4226    0.0000 O   0  0  0  0  0  0  0  0  0  0  0  0
    7.4759  -14.0101    0.0000 C   0  0  0  0  0  0  0  0  0  0  0  0
    4.2375   -7.6401    0.0000 C   0  0  0  0  0  0  0  0  0  0  0  0
    6.0226   -7.4525    0.0000 C   0  0  0  0  0  0  0  0  0  0  0  0
    5.6101   -6.7380    0.0000 O   0  0  0  0  0  0  0  0  0  0  0  0
    6.8476   -7.4525    0.0000 O   0  0  0  0  0  0  0  0  0  0  0  0
    6.7526   -9.0921    0.0000 C   0  0  0  0  0  0  0  0  0  0  0  0
    7.3046   -8.4790    0.0000 C   0  0  0  0  0  0  0  0  0  0  0  0
    8.1116   -8.6506    0.0000 O   0  0  0  0  0  0  0  0  0  0  0  0
    8.5241   -9.3650    0.0000 C   0  0  0  0  0  0  0  0  0  0  0  0
    8.1116  -10.0795    0.0000 C   0  0  0  0  0  0  0  0  0  0  0  0
    8.5241  -10.7940    0.0000 C   0  0  0  0  0  0  0  0  0  0  0  0
    9.3491  -10.7940    0.0000 C   0  0  0  0  0  0  0  0  0  0  0  0
    9.7616  -10.0795    0.0000 C   0  0  0  0  0  0  0  0  0  0  0  0
    9.3491   -9.3650    0.0000 O   0  0  0  0  0  0  0  0  0  0  0  0
    7.2866  -10.0795    0.0000 O   0  0  0  0  0  0  0  0  0  0  0  0
    8.1116  -11.5085    0.0000 O   0  0  0  0  0  0  0  0  0  0  0  0
    9.7616  -11.5085    0.0000 O   0  0  0  0  0  0  0  0  0  0  0  0
   10.5866  -10.0795    0.0000 C   0  0  0  0  0  0  0  0  0  0  0  0
   10.9991   -9.3650    0.0000 O   0  0  0  0  0  0  0  0  0  0  0  0
  1  2  1  0  0  0  0
  2  3  2  0  0  0  0
  3  4  1  0  0  0  0
  4  5  2  0  0  0  0
  5  6  1  0  0  0  0
  6  1  2  0  0  0  0
  6  7  1  0  0  0  0
  7  8  2  0  0  0  0
  9 10  1  0  0  0  0
 10  8  1  0  0  0  0
  9 11  1  0  0  0  0
 11 12  1  0  0  0  0
 13 10  2  0  0  0  0
 11 14  1  0  0  0  0
 14 15  1  0  0  0  0
 15 16  2  0  0  0  0
 16 12  1  0  0  0  0
  3 17  1  0  0  0  0
  4 18  1  0  0  0  0
 18 19  1  0  0  0  0
 16 20  1  0  0  0  0
 15 21  1  0  0  0  0
 21 22  2  0  0  0  0
 21 23  1  0  0  0  0
 14 24  2  0  0  0  0
 24 25  1  0  0  0  0
 25 26  1  0  0  0  0
 26 27  1  0  0  0  0
 27 28  1  0  0  0  0
 28 29  1  0  0  0  0
 29 30  1  0  0  0  0
 30 31  1  0  0  0  0
 31 32  1  0  0  0  0
 32 27  1  0  0  0  0
 28 33  1  0  0  0  0
 29 34  1  0  0  0  0
 30 35  1  0  0  0  0
 31 36  1  0  0  0  0
 36 37  1  0  0  0  0
M  END
>  <cdx:fragmentId>
5

$$$$
