90944.cdx
  Mrv1902 05222410282D          

 26 29  0  0  0  0            999 V2000
    3.7243   -8.8951    0.0000 C   0  0  0  0  0  0  0  0  0  0  0  0
    3.7243   -9.7201    0.0000 C   0  0  0  0  0  0  0  0  0  0  0  0
    4.4388  -10.1326    0.0000 C   0  0  2  0  0  0  0  0  0  0  0  0
    5.1532   -9.7201    0.0000 C   0  0  0  0  0  0  0  0  0  0  0  0
    5.1532   -8.8951    0.0000 C   0  0  1  0  0  0  0  0  0  0  0  0
    4.4388   -8.4826    0.0000 C   0  0  0  0  0  0  0  0  0  0  0  0
    5.8677  -10.1326    0.0000 C   0  0  0  0  0  0  0  0  0  0  0  0
    6.5822   -9.7201    0.0000 C   0  0  0  0  0  0  0  0  0  0  0  0
    6.5822   -8.8951    0.0000 C   0  0  2  0  0  0  0  0  0  0  0  0
    5.8677   -8.4826    0.0000 C   0  0  0  0  0  0  0  0  0  0  0  0
    7.2967   -8.4826    0.0000 C   0  0  0  0  0  0  0  0  0  0  0  0
    7.2967   -7.6576    0.0000 C   0  0  0  0  0  0  0  0  0  0  0  0
    6.5822   -7.2451    0.0000 C   0  0  0  0  0  0  0  0  0  0  0  0
    5.8677   -7.6576    0.0000 C   0  0  0  0  0  0  0  0  0  0  0  0
    4.8513  -10.8471    0.0000 C   0  0  0  0  0  0  0  0  0  0  0  0
    5.6763  -10.8471    0.0000 O   0  0  0  0  0  0  0  0  0  0  0  0
    4.4388  -11.5616    0.0000 O   0  0  0  0  0  0  0  0  0  0  0  0
    4.8513  -12.2761    0.0000 C   0  0  0  0  0  0  0  0  0  0  0  0
    5.1532   -8.0701    0.0000 C   0  0  0  0  0  0  0  0  0  0  0  0
    8.0111   -8.0701    0.0000 C   0  0  2  0  0  0  0  0  0  0  0  0
    7.2967   -9.3076    0.0000 C   0  0  0  0  0  0  0  0  0  0  0  0
    8.4236   -7.3557    0.0000 O   0  0  0  0  0  0  0  0  0  0  0  0
    8.7256   -8.4826    0.0000 C   0  0  0  0  0  0  0  0  0  0  0  0
    4.0263  -10.8471    0.0000 C   0  0  0  0  0  0  0  0  0  0  0  0
    3.2013  -10.8471    0.0000 O   0  0  0  0  0  0  0  0  0  0  0  0
    9.4401   -8.0701    0.0000 O   0  0  0  0  0  0  0  0  0  0  0  0
  1  2  1  0  0  0  0
  2  3  1  0  0  0  0
  3  4  1  0  0  0  0
  4  5  1  0  0  0  0
  5  6  1  0  0  0  0
  6  1  1  0  0  0  0
  4  7  1  0  0  0  0
  7  8  1  0  0  0  0
  8  9  1  0  0  0  0
  9 10  1  0  0  0  0
 10  5  1  0  0  0  0
  9 11  1  6  0  0  0
 12 11  1  6  0  0  0
 12 13  1  0  0  0  0
 13 14  1  0  0  0  0
 14 10  1  0  0  0  0
  3 15  1  6  0  0  0
  5 19  1  6  0  0  0
 12 20  1  0  0  0  0
  9 21  1  0  0  0  0
 21 20  1  0  0  0  0
 20 22  1  1  0  0  0
 20 23  1  6  0  0  0
  3 24  1  1  0  0  0
 24 25  1  0  0  0  0
 23 26  1  0  0  0  0
 15 16  2  0  0  0  0
 15 17  1  0  0  0  0
 17 18  1  0  0  0  0
M  STY  1   1 SUP
M  SAL   1  4  15  16  17  18
M  SBL   1  1  17
M  SMT   1 COOCH3
M  SAP   1  1  15   3  1
M  END
>  <cdx:fragmentId>
5

$$$$
