90940.cdx
  Mrv1902 05222410262D          

 31 32  0  0  0  0            999 V2000
    4.1558   -4.8400    0.0000 C   0  0  0  0  0  0  0  0  0  0  0  0
    4.1558   -5.6650    0.0000 C   0  0  0  0  0  0  0  0  0  0  0  0
    4.8702   -6.0775    0.0000 C   0  0  0  0  0  0  0  0  0  0  0  0
    5.5847   -5.6650    0.0000 C   0  0  0  0  0  0  0  0  0  0  0  0
    5.5847   -4.8400    0.0000 C   0  0  0  0  0  0  0  0  0  0  0  0
    4.8702   -4.4275    0.0000 C   0  0  0  0  0  0  0  0  0  0  0  0
    7.0137   -5.6650    0.0000 O   0  0  0  0  0  0  0  0  0  0  0  0
    7.0137   -4.8400    0.0000 C   0  0  2  0  0  0  0  0  0  0  0  0
    6.2992   -4.4275    0.0000 C   0  0  2  0  0  0  0  0  0  0  0  0
    7.7281   -6.0775    0.0000 C   0  0  0  0  0  0  0  0  0  0  0  0
    8.4426   -5.6650    0.0000 C   0  0  0  0  0  0  0  0  0  0  0  0
    8.4426   -4.8400    0.0000 O   0  0  0  0  0  0  0  0  0  0  0  0
    7.7281   -4.4275    0.0000 C   0  0  0  0  0  0  0  0  0  0  0  0
    7.7281   -6.9025    0.0000 C   0  0  0  0  0  0  0  0  0  0  0  0
    8.4426   -7.3150    0.0000 C   0  0  0  0  0  0  0  0  0  0  0  0
    9.1571   -6.9025    0.0000 C   0  0  0  0  0  0  0  0  0  0  0  0
    9.1571   -6.0775    0.0000 C   0  0  0  0  0  0  0  0  0  0  0  0
    9.8715   -7.3150    0.0000 C   0  0  0  0  0  0  0  0  0  0  0  0
   10.5860   -6.9025    0.0000 C   0  0  0  0  0  0  0  0  0  0  0  0
    3.4413   -4.4275    0.0000 O   0  0  0  0  0  0  0  0  0  0  0  0
    3.4413   -6.0775    0.0000 O   0  0  0  0  0  0  0  0  0  0  0  0
    7.0137   -7.3150    0.0000 O   0  0  0  0  0  0  0  0  0  0  0  0
   11.3005   -7.3150    0.0000 C   0  0  0  0  0  0  0  0  0  0  0  0
    6.2992   -3.6025    0.0000 O   0  0  0  0  0  0  0  0  0  0  0  0
    2.7268   -4.8400    0.0000 C   0  0  0  0  0  0  0  0  0  0  0  0
    3.4413   -6.9025    0.0000 C   0  0  0  0  0  0  0  0  0  0  0  0
    6.2992   -6.9025    0.0000 C   0  0  0  0  0  0  0  0  0  0  0  0
    9.1571   -4.4275    0.0000 C   0  0  0  0  0  0  0  0  0  0  0  0
    5.5847   -3.1900    0.0000 C   0  0  0  0  0  0  0  0  0  0  0  0
    5.5847   -2.3650    0.0000 O   0  0  0  0  0  0  0  0  0  0  0  0
    4.8702   -3.6025    0.0000 C   0  0  0  0  0  0  0  0  0  0  0  0
  1  2  2  0  0  0  0
  2  3  1  0  0  0  0
  3  4  2  0  0  0  0
  4  5  1  0  0  0  0
  5  6  2  0  0  0  0
  6  1  1  0  0  0  0
  8  7  1  6  0  0  0
  8  9  1  0  0  0  0
  9  5  1  0  0  0  0
  7 10  1  0  0  0  0
 10 11  1  0  0  0  0
 11 12  1  0  0  0  0
 13  8  1  0  0  0  0
 10 14  2  0  0  0  0
 14 15  1  0  0  0  0
 15 16  2  0  0  0  0
 16 17  1  0  0  0  0
 17 11  2  0  0  0  0
 16 18  1  0  0  0  0
 18 19  1  0  0  0  0
  1 20  1  0  0  0  0
  2 21  1  0  0  0  0
 14 22  1  0  0  0  0
 19 23  2  0  0  0  0
  9 24  1  1  0  0  0
 20 25  1  0  0  0  0
 21 26  1  0  0  0  0
 22 27  1  0  0  0  0
 12 28  1  0  0  0  0
 24 29  1  0  0  0  0
 29 30  2  0  0  0  0
 29 31  1  0  0  0  0
M  END
>  <cdx:fragmentId>
145

$$$$
