90945.cdx
  Mrv1902 05222410282D          

 41 44  0  0  0  0            999 V2000
   10.4816   -6.7506    0.0000 C   0  0  0  0  0  0  0  0  0  0  0  0
   10.2267   -7.5353    0.0000 C   0  0  0  0  0  0  0  0  0  0  0  0
    9.4197   -7.7068    0.0000 C   0  0  0  0  0  0  0  0  0  0  0  0
    9.1648   -8.4914    0.0000 C   0  0  0  0  0  0  0  0  0  0  0  0
    8.3578   -8.6629    0.0000 C   0  0  2  0  0  0  0  0  0  0  0  0
    7.7744   -8.0796    0.0000 C   0  0  0  0  0  0  0  0  0  0  0  0
   11.5435   -5.7945    0.0000 O   0  0  0  0  0  0  0  0  0  0  0  0
    8.8677   -7.0937    0.0000 O   0  0  0  0  0  0  0  0  0  0  0  0
    9.9296   -6.1376    0.0000 C   0  0  0  0  0  0  0  0  0  0  0  0
    8.5713   -7.8661    0.0000 O   0  0  0  0  0  0  0  0  0  0  0  0
    4.4603  -10.5275    0.0000 C   0  0  0  0  0  0  0  0  0  0  0  0
    3.7459  -10.9400    0.0000 C   0  0  0  0  0  0  0  0  0  0  0  0
    3.7459  -11.7650    0.0000 C   0  0  1  0  0  0  0  0  0  0  0  0
    4.4603  -12.1775    0.0000 C   0  0  0  0  0  0  0  0  0  0  0  0
    5.1748  -11.7650    0.0000 C   0  0  2  0  0  0  0  0  0  0  0  0
    5.8893  -12.1775    0.0000 C   0  0  0  0  0  0  0  0  0  0  0  0
    6.6037  -11.7650    0.0000 C   0  0  1  0  0  0  0  0  0  0  0  0
    6.6037  -10.9400    0.0000 C   0  0  0  0  0  0  0  0  0  0  0  0
    7.3182  -10.5275    0.0000 C   0  0  2  0  0  0  0  0  0  0  0  0
    8.1028  -10.7824    0.0000 C   0  0  0  0  0  0  0  0  0  0  0  0
    8.5878  -10.1150    0.0000 C   0  0  0  0  0  0  0  0  0  0  0  0
    8.1028   -9.4476    0.0000 C   0  0  1  0  0  0  0  0  0  0  0  0
    7.3182   -9.7025    0.0000 C   0  0  1  0  0  0  0  0  0  0  0  0
    6.6037   -9.2900    0.0000 C   0  0  0  0  0  0  0  0  0  0  0  0
    5.8893   -9.7025    0.0000 C   0  0  0  0  0  0  0  0  0  0  0  0
    5.8893  -10.5275    0.0000 C   0  0  0  0  0  0  0  0  0  0  0  0
    5.1748  -10.9400    0.0000 C   0  0  1  0  0  0  0  0  0  0  0  0
    8.3578  -11.5671    0.0000 O   0  0  0  0  0  0  0  0  0  0  0  0
    5.1748   -9.2900    0.0000 O   0  0  0  0  0  0  0  0  0  0  0  0
    7.3182  -11.3525    0.0000 C   0  0  0  0  0  0  0  0  0  0  0  0
    7.3182   -8.8775    0.0000 C   0  0  0  0  0  0  0  0  0  0  0  0
    5.1748  -10.1150    0.0000 C   0  0  0  0  0  0  0  0  0  0  0  0
    4.8728  -12.8920    0.0000 C   0  0  0  0  0  0  0  0  0  0  0  0
    4.0478  -12.8920    0.0000 C   0  0  0  0  0  0  0  0  0  0  0  0
    7.3182  -12.1775    0.0000 O   0  0  0  0  0  0  0  0  0  0  0  0
    3.0314  -12.1775    0.0000 O   0  0  0  0  0  0  0  0  0  0  0  0
   11.8406   -7.1922    0.0000 O   0  0  0  0  0  0  0  0  0  0  0  0
   11.2886   -6.5791    0.0000 C   0  0  0  0  0  0  0  0  0  0  0  0
    8.8875   -9.1926    0.0000 H   0  0  0  0  0  0  0  0  0  0  0  0
    5.1748  -12.5900    0.0000 H   0  0  0  0  0  0  0  0  0  0  0  0
   12.3404   -5.5810    0.0000 C   0  0  0  0  0  0  0  0  0  0  0  0
 38  7  1  0  0  0  0
 38 37  2  0  0  0  0
 38  1  1  0  0  0  0
  1  2  1  0  0  0  0
  2  3  1  0  0  0  0
  3  4  1  0  0  0  0
  4  5  1  0  0  0  0
  5  6  1  6  0  0  0
  3  8  2  0  0  0  0
  1  9  1  0  0  0  0
  5 10  1  1  0  0  0
 11 12  1  0  0  0  0
 12 13  1  0  0  0  0
 13 14  1  0  0  0  0
 14 15  1  0  0  0  0
 15 16  1  0  0  0  0
 16 17  1  0  0  0  0
 17 18  1  0  0  0  0
 18 19  1  0  0  0  0
 19 20  1  0  0  0  0
 20 21  1  0  0  0  0
 22 21  1  0  0  0  0
 22 23  1  0  0  0  0
 19 23  1  0  0  0  0
 23 24  1  0  0  0  0
 24 25  1  0  0  0  0
 25 26  1  0  0  0  0
 18 26  2  0  0  0  0
 26 27  1  0  0  0  0
 15 27  1  0  0  0  0
 11 27  1  0  0  0  0
 20 28  2  0  0  0  0
 25 29  2  0  0  0  0
 19 30  1  6  0  0  0
 23 31  1  1  0  0  0
 27 32  1  1  0  0  0
 14 33  1  0  0  0  0
 14 34  1  0  0  0  0
 17 35  1  1  0  0  0
 13 36  1  1  0  0  0
  5 22  1  0  0  0  0
 22 39  1  6  0  0  0
 15 40  1  6  0  0  0
  7 41  1  0  0  0  0
M  END
>  <cdx:fragmentId>
8052

$$$$
