90946.cdx
  Mrv1902 05222410272D          

 37 40  0  0  0  0            999 V2000
    3.6831  -12.2639    0.0000 C   0  0  0  0  0  0  0  0  0  0  0  0
    3.6831  -13.0889    0.0000 C   0  0  1  0  0  0  0  0  0  0  0  0
    4.3975  -13.5014    0.0000 C   0  0  1  0  0  0  0  0  0  0  0  0
    5.1120  -13.0889    0.0000 C   0  0  1  0  0  0  0  0  0  0  0  0
    5.1120  -12.2639    0.0000 C   0  0  2  0  0  0  0  0  0  0  0  0
    4.3975  -11.8514    0.0000 C   0  0  0  0  0  0  0  0  0  0  0  0
    5.8265  -13.5014    0.0000 C   0  0  0  0  0  0  0  0  0  0  0  0
    6.5409  -13.0889    0.0000 C   0  0  1  0  0  0  0  0  0  0  0  0
    6.5409  -12.2639    0.0000 C   0  0  0  0  0  0  0  0  0  0  0  0
    5.8265  -11.8514    0.0000 C   0  0  0  0  0  0  0  0  0  0  0  0
    7.2554  -11.8514    0.0000 C   0  0  2  0  0  0  0  0  0  0  0  0
    7.2554  -11.0264    0.0000 C   0  0  1  0  0  0  0  0  0  0  0  0
    6.5409  -10.6139    0.0000 C   0  0  0  0  0  0  0  0  0  0  0  0
    5.8265  -11.0264    0.0000 C   0  0  0  0  0  0  0  0  0  0  0  0
    5.1120  -10.6139    0.0000 O   0  0  0  0  0  0  0  0  0  0  0  0
    3.9850  -14.2159    0.0000 C   0  0  0  0  0  0  0  0  0  0  0  0
    5.1120  -11.4389    0.0000 C   0  0  0  0  0  0  0  0  0  0  0  0
    7.2554  -10.2014    0.0000 C   0  0  0  0  0  0  0  0  0  0  0  0
    4.8100  -14.2159    0.0000 C   0  0  0  0  0  0  0  0  0  0  0  0
    7.2554  -12.6764    0.0000 C   0  0  0  0  0  0  0  0  0  0  0  0
    2.9686  -13.5014    0.0000 O   0  0  0  0  0  0  0  0  0  0  0  0
    7.2554  -13.5014    0.0000 O   0  0  0  0  0  0  0  0  0  0  0  0
    4.3975  -14.9303    0.0000 O   0  0  0  0  0  0  0  0  0  0  0  0
    5.1120  -13.9139    0.0000 H   0  0  0  0  0  0  0  0  0  0  0  0
    8.0400  -12.1063    0.0000 C   0  0  0  0  0  0  0  0  0  0  0  0
    8.5250  -11.4389    0.0000 C   0  0  0  0  0  0  0  0  0  0  0  0
    8.0400  -10.7715    0.0000 C   0  0  2  0  0  0  0  0  0  0  0  0
    8.2950   -9.9868    0.0000 C   0  0  2  0  0  0  0  0  0  0  0  0
    7.7429   -9.3737    0.0000 C   0  0  0  0  0  0  0  0  0  0  0  0
    9.1019   -9.8153    0.0000 C   0  0  0  0  0  0  0  0  0  0  0  0
    9.3569   -9.0307    0.0000 C   0  0  0  0  0  0  0  0  0  0  0  0
   10.1639   -8.8592    0.0000 C   0  0  0  0  0  0  0  0  0  0  0  0
   10.4188   -8.0745    0.0000 O   0  0  0  0  0  0  0  0  0  0  0  0
   11.2258   -7.9030    0.0000 C   0  0  0  0  0  0  0  0  0  0  0  0
   10.7159   -9.4723    0.0000 O   0  0  0  0  0  0  0  0  0  0  0  0
    8.8247  -10.5165    0.0000 H   0  0  0  0  0  0  0  0  0  0  0  0
    8.2950  -12.8910    0.0000 O   0  0  0  0  0  0  0  0  0  0  0  0
  1  2  1  0  0  0  0
  2  3  1  0  0  0  0
  3  4  1  0  0  0  0
  4  5  1  0  0  0  0
  5  6  1  0  0  0  0
  6  1  1  0  0  0  0
  4  7  1  0  0  0  0
  7  8  1  0  0  0  0
  8  9  1  0  0  0  0
  9 10  2  0  0  0  0
 10  5  1  0  0  0  0
  9 11  1  0  0  0  0
 11 12  1  0  0  0  0
 12 13  1  0  0  0  0
 13 14  1  0  0  0  0
 14 10  1  0  0  0  0
 14 15  2  0  0  0  0
  3 16  1  1  0  0  0
  5 17  1  1  0  0  0
 12 18  1  1  0  0  0
  3 19  1  6  0  0  0
 11 20  1  6  0  0  0
  2 21  1  1  0  0  0
  8 22  1  1  0  0  0
 16 23  1  0  0  0  0
  4 24  1  6  0  0  0
 11 25  1  0  0  0  0
 25 26  1  0  0  0  0
 26 27  1  0  0  0  0
 27 12  1  0  0  0  0
 27 28  1  0  0  0  0
 28 29  1  6  0  0  0
 28 30  1  0  0  0  0
 30 31  1  0  0  0  0
 31 32  1  0  0  0  0
 32 33  1  0  0  0  0
 33 34  1  0  0  0  0
 32 35  2  0  0  0  0
 27 36  1  6  0  0  0
 25 37  2  0  0  0  0
M  END
>  <cdx:fragmentId>
5

$$$$
