90947.cdx
  Mrv1902 05222410272D          

 20 22  0  0  0  0            999 V2000
    6.1810   -9.3214    0.0000 C   0  0  2  0  0  0  0  0  0  0  0  0
    6.1810  -10.1464    0.0000 C   0  0  2  0  0  0  0  0  0  0  0  0
    6.8260  -10.6608    0.0000 C   0  0  0  0  0  0  0  0  0  0  0  0
    7.6303  -10.4772    0.0000 C   0  0  0  0  0  0  0  0  0  0  0  0
    7.9882   -9.7339    0.0000 C   0  0  0  0  0  0  0  0  0  0  0  0
    7.6303   -8.9906    0.0000 C   0  0  0  0  0  0  0  0  0  0  0  0
    6.8260   -8.8070    0.0000 C   0  0  0  0  0  0  0  0  0  0  0  0
    8.8058   -9.6232    0.0000 C   0  0  0  0  0  0  0  0  0  0  0  0
    8.9531   -8.8114    0.0000 C   0  0  0  0  0  0  0  0  0  0  0  0
    8.2266   -8.4205    0.0000 C   0  0  0  0  0  0  0  0  0  0  0  0
    5.3963   -9.0665    0.0000 C   0  0  1  0  0  0  0  0  0  0  0  0
    4.9114   -9.7339    0.0000 C   0  0  0  0  0  0  0  0  0  0  0  0
    5.3963  -10.4013    0.0000 O   0  0  0  0  0  0  0  0  0  0  0  0
    8.1447  -11.1222    0.0000 C   0  0  0  0  0  0  0  0  0  0  0  0
    9.3759  -10.2195    0.0000 O   0  0  0  0  0  0  0  0  0  0  0  0
    8.1158   -7.6029    0.0000 C   0  0  0  0  0  0  0  0  0  0  0  0
    4.0864   -9.7339    0.0000 O   0  0  0  0  0  0  0  0  0  0  0  0
    4.6819   -8.6540    0.0000 O   0  0  0  0  0  0  0  0  0  0  0  0
    5.3963   -8.2415    0.0000 C   0  0  0  0  0  0  0  0  0  0  0  0
    6.1810   -8.4964    0.0000 H   0  0  0  0  0  0  0  0  0  0  0  0
  1  2  1  0  0  0  0
  2  3  1  0  0  0  0
  3  4  1  0  0  0  0
  4  5  2  0  0  0  0
  5  6  1  0  0  0  0
  6  7  2  0  0  0  0
  7  1  1  0  0  0  0
  5  8  1  0  0  0  0
  8  9  1  0  0  0  0
  9 10  2  0  0  0  0
 10  6  1  0  0  0  0
  1 11  1  0  0  0  0
 11 12  1  0  0  0  0
 12 13  1  0  0  0  0
  2 13  1  6  0  0  0
  4 14  1  0  0  0  0
  8 15  2  0  0  0  0
 10 16  1  0  0  0  0
 12 17  2  0  0  0  0
 11 18  1  1  0  0  0
 11 19  1  6  0  0  0
  1 20  1  6  0  0  0
M  END
>  <cdx:fragmentId>
5

$$$$
