90948.cdx
  Mrv1902 05222410182D          

 24 26  0  0  0  0            999 V2000
    6.8043   -9.5001    0.0000 C   0  0  1  0  0  0  0  0  0  0  0  0
    6.8043  -10.3251    0.0000 C   0  0  2  0  0  0  0  0  0  0  0  0
    7.5188  -10.7376    0.0000 C   0  0  1  0  0  0  0  0  0  0  0  0
    8.2332  -10.3251    0.0000 O   0  0  0  0  0  0  0  0  0  0  0  0
    8.2332   -9.5001    0.0000 C   0  0  0  0  0  0  0  0  0  0  0  0
    7.5188   -9.0876    0.0000 C   0  0  0  0  0  0  0  0  0  0  0  0
    6.0197   -9.2452    0.0000 C   0  0  1  0  0  0  0  0  0  0  0  0
    5.5348   -9.9126    0.0000 C   0  0  1  0  0  0  0  0  0  0  0  0
    6.0197  -10.5801    0.0000 C   0  0  1  0  0  0  0  0  0  0  0  0
    7.5188   -8.2626    0.0000 C   0  0  0  0  0  0  0  0  0  0  0  0
    8.2332   -7.8501    0.0000 O   0  0  0  0  0  0  0  0  0  0  0  0
    7.5188  -11.5626    0.0000 O   0  0  0  0  0  0  0  0  0  0  0  0
    8.2332  -11.9751    0.0000 C   0  0  0  0  0  0  0  0  0  0  0  0
    8.2332  -12.8001    0.0000 O   0  0  0  0  0  0  0  0  0  0  0  0
    8.9477  -11.5626    0.0000 C   0  0  0  0  0  0  0  0  0  0  0  0
    9.6622  -11.9751    0.0000 C   0  0  0  0  0  0  0  0  0  0  0  0
   10.3767  -11.5626    0.0000 C   0  0  0  0  0  0  0  0  0  0  0  0
    9.6622  -12.8001    0.0000 C   0  0  0  0  0  0  0  0  0  0  0  0
    5.3052  -10.9926    0.0000 C   0  0  0  0  0  0  0  0  0  0  0  0
    4.5907  -10.5801    0.0000 O   0  0  0  0  0  0  0  0  0  0  0  0
    6.0197  -11.4051    0.0000 O   0  0  0  0  0  0  0  0  0  0  0  0
    6.7181  -11.1456    0.0000 H   0  0  0  0  0  0  0  0  0  0  0  0
    6.7181   -8.6797    0.0000 H   0  0  0  0  0  0  0  0  0  0  0  0
    5.2228   -9.0317    0.0000 O   0  0  0  0  0  0  0  0  0  0  0  0
  1  2  1  0  0  0  0
  2  3  1  0  0  0  0
  3  4  1  0  0  0  0
  4  5  1  0  0  0  0
  5  6  2  0  0  0  0
  6  1  1  0  0  0  0
  1  7  1  0  0  0  0
  7  8  1  0  0  0  0
  8  9  1  0  0  0  0
  9  2  1  0  0  0  0
  6 10  1  0  0  0  0
 10 11  1  0  0  0  0
  3 12  1  1  0  0  0
 12 13  1  0  0  0  0
 13 14  2  0  0  0  0
 13 15  1  0  0  0  0
 15 16  1  0  0  0  0
 16 17  1  0  0  0  0
 16 18  1  0  0  0  0
  9 19  1  6  0  0  0
 19 20  1  0  0  0  0
  9 21  1  1  0  0  0
  2 22  1  1  0  0  0
  1 23  1  1  0  0  0
  7 24  1  1  0  0  0
  8 24  1  1  0  0  0
M  END
>  <cdx:fragmentId>
5

$$$$
