90954.cdx
  Mrv1902 05222410262D          

 41 45  0  0  0  0            999 V2000
    6.7218   -8.1251    0.0000 C   0  0  2  0  0  0  0  0  0  0  0  0
    6.7218   -8.9501    0.0000 C   0  0  0  0  0  0  0  0  0  0  0  0
    7.4363   -9.3626    0.0000 C   0  0  0  0  0  0  0  0  0  0  0  0
    8.1507   -8.9501    0.0000 C   0  0  1  0  0  0  0  0  0  0  0  0
    8.1507   -8.1251    0.0000 C   0  0  1  0  0  0  0  0  0  0  0  0
    7.4363   -7.7126    0.0000 C   0  0  0  0  0  0  0  0  0  0  0  0
    8.8652   -9.3626    0.0000 C   0  0  0  0  0  0  0  0  0  0  0  0
    9.5797   -8.9501    0.0000 C   0  0  0  0  0  0  0  0  0  0  0  0
    9.5797   -8.1251    0.0000 C   0  0  1  0  0  0  0  0  0  0  0  0
    8.8652   -7.7126    0.0000 C   0  0  1  0  0  0  0  0  0  0  0  0
   10.2942   -7.7126    0.0000 C   0  0  0  0  0  0  0  0  0  0  0  0
   10.2942   -6.8876    0.0000 O   0  0  0  0  0  0  0  0  0  0  0  0
    9.5797   -6.4751    0.0000 C   0  0  1  0  0  0  0  0  0  0  0  0
    8.8652   -6.8876    0.0000 C   0  0  0  0  0  0  0  0  0  0  0  0
   10.2942   -5.2376    0.0000 C   0  0  0  0  0  0  0  0  0  0  0  0
    9.5797   -5.6501    0.0000 C   0  0  0  0  0  0  0  0  0  0  0  0
   10.1226   -4.4307    0.0000 O   0  0  0  0  0  0  0  0  0  0  0  0
    9.3022   -4.3444    0.0000 C   0  0  0  0  0  0  0  0  0  0  0  0
    8.9666   -5.0981    0.0000 C   0  0  0  0  0  0  0  0  0  0  0  0
    7.4363  -10.1876    0.0000 C   0  0  0  0  0  0  0  0  0  0  0  0
    8.1507  -10.6001    0.0000 O   0  0  0  0  0  0  0  0  0  0  0  0
    6.7218  -10.6001    0.0000 O   0  0  0  0  0  0  0  0  0  0  0  0
    6.0073  -11.0126    0.0000 C   0  0  0  0  0  0  0  0  0  0  0  0
   11.0086   -8.1251    0.0000 O   0  0  0  0  0  0  0  0  0  0  0  0
    5.8968   -8.1251    0.0000 O   0  0  0  0  0  0  0  0  0  0  0  0
    8.8652   -8.5376    0.0000 C   0  0  0  0  0  0  0  0  0  0  0  0
    6.3093   -7.4107    0.0000 H   0  0  0  0  0  0  0  0  0  0  0  0
    8.1507   -7.3001    0.0000 H   0  0  0  0  0  0  0  0  0  0  0  0
    8.1507   -9.7751    0.0000 C   0  0  0  0  0  0  0  0  0  0  0  0
   10.2942   -8.5376    0.0000 H   0  0  0  0  0  0  0  0  0  0  0  0
    5.1823   -8.5376    0.0000 C   0  0  2  0  0  0  0  0  0  0  0  0
    4.4679   -8.1251    0.0000 O   0  0  0  0  0  0  0  0  0  0  0  0
    3.7534   -8.5376    0.0000 C   0  0  1  0  0  0  0  0  0  0  0  0
    3.7534   -9.3626    0.0000 C   0  0  2  0  0  0  0  0  0  0  0  0
    4.4679   -9.7751    0.0000 C   0  0  1  0  0  0  0  0  0  0  0  0
    5.1823   -9.3626    0.0000 C   0  0  1  0  0  0  0  0  0  0  0  0
    4.4679  -10.6001    0.0000 O   0  0  0  0  0  0  0  0  0  0  0  0
    3.0389   -8.1251    0.0000 C   0  0  0  0  0  0  0  0  0  0  0  0
    3.0389   -9.7751    0.0000 O   0  0  0  0  0  0  0  0  0  0  0  0
    5.8968   -9.7751    0.0000 O   0  0  0  0  0  0  0  0  0  0  0  0
    2.3244   -8.5376    0.0000 O   0  0  0  0  0  0  0  0  0  0  0  0
  1  2  1  0  0  0  0
  2  3  2  0  0  0  0
  3  4  1  0  0  0  0
  4  5  1  0  0  0  0
  5  6  1  0  0  0  0
  6  1  1  0  0  0  0
  4  7  1  0  0  0  0
  7  8  1  0  0  0  0
  8  9  1  0  0  0  0
  9 10  1  0  0  0  0
 10  5  1  0  0  0  0
  9 11  1  0  0  0  0
 11 12  1  0  0  0  0
 12 13  1  0  0  0  0
 13 14  1  0  0  0  0
 14 10  1  0  0  0  0
 15 16  2  0  0  0  0
 13 16  1  1  0  0  0
 15 17  1  0  0  0  0
 17 18  1  0  0  0  0
 18 19  2  0  0  0  0
 19 16  1  0  0  0  0
  3 20  1  0  0  0  0
 20 21  2  0  0  0  0
 20 22  1  0  0  0  0
 11 24  2  0  0  0  0
  1 25  1  1  0  0  0
 10 26  1  1  0  0  0
  1 27  1  6  0  0  0
  5 28  1  6  0  0  0
  4 29  1  6  0  0  0
  9 30  1  6  0  0  0
 31 25  1  1  0  0  0
 31 32  1  0  0  0  0
 32 33  1  0  0  0  0
 33 34  1  0  0  0  0
 34 35  1  0  0  0  0
 35 36  1  0  0  0  0
 36 31  1  0  0  0  0
 35 37  1  1  0  0  0
 33 38  1  1  0  0  0
 34 39  1  6  0  0  0
 36 40  1  6  0  0  0
 38 41  1  0  0  0  0
 22 23  1  0  0  0  0
M  STY  1   1 SUP
M  SAL   1  2  22  23
M  SBL   1  1  25
M  SMT   1 OCH3
M  SAP   1  1  22  20  1
M  END
>  <cdx:fragmentId>
5

$$$$
