90950.cdx
  Mrv1902 05222410282D          

 80 88  0  0  0  0            999 V2000
    2.1989  -10.2641    0.0000 O   0  0  0  0  0  0  0  0  0  0  0  0
    2.9210   -9.8651    0.0000 C   0  0  1  0  0  0  0  0  0  0  0  0
    2.9365   -9.0403    0.0000 C   0  0  0  0  0  0  0  0  0  0  0  0
    3.6276  -10.2910    0.0000 C   0  0  1  0  0  0  0  0  0  0  0  0
    4.3497   -9.8920    0.0000 C   0  0  1  0  0  0  0  0  0  0  0  0
    4.3652   -9.0672    0.0000 C   0  0  2  0  0  0  0  0  0  0  0  0
    3.6586   -8.6413    0.0000 C   0  0  0  0  0  0  0  0  0  0  0  0
    5.0563  -10.3179    0.0000 C   0  0  0  0  0  0  0  0  0  0  0  0
    5.7784   -9.9189    0.0000 C   0  0  0  0  0  0  0  0  0  0  0  0
    5.7939   -9.0940    0.0000 C   0  0  2  0  0  0  0  0  0  0  0  0
    5.0873   -8.6682    0.0000 C   0  0  2  0  0  0  0  0  0  0  0  0
    6.5160   -8.6950    0.0000 C   0  0  1  0  0  0  0  0  0  0  0  0
    6.5315   -7.8702    0.0000 C   0  0  0  0  0  0  0  0  0  0  0  0
    5.8250   -7.4443    0.0000 C   0  0  0  0  0  0  0  0  0  0  0  0
    5.1029   -7.8433    0.0000 C   0  0  0  0  0  0  0  0  0  0  0  0
    7.2226   -9.1209    0.0000 C   0  0  0  0  0  0  0  0  0  0  0  0
    7.9447   -8.7219    0.0000 C   0  0  0  0  0  0  0  0  0  0  0  0
    7.9602   -7.8971    0.0000 C   0  0  2  0  0  0  0  0  0  0  0  0
    7.2536   -7.4712    0.0000 C   0  0  1  0  0  0  0  0  0  0  0  0
    8.6823   -7.4981    0.0000 C   0  0  0  0  0  0  0  0  0  0  0  0
    8.6979   -6.6732    0.0000 C   0  0  0  0  0  0  0  0  0  0  0  0
    7.9913   -6.2473    0.0000 C   0  0  1  0  0  0  0  0  0  0  0  0
    7.2692   -6.6463    0.0000 C   0  0  0  0  0  0  0  0  0  0  0  0
    8.6668   -8.3229    0.0000 C   0  0  0  0  0  0  0  0  0  0  0  0
    8.6513   -9.1478    0.0000 O   0  0  0  0  0  0  0  0  0  0  0  0
   10.0800   -9.1747    0.0000 O   0  0  0  0  0  0  0  0  0  0  0  0
   10.0955   -8.3498    0.0000 C   0  0  1  0  0  0  0  0  0  0  0  0
    9.3889   -7.9239    0.0000 O   0  0  0  0  0  0  0  0  0  0  0  0
   10.7866   -9.6005    0.0000 C   0  0  1  0  0  0  0  0  0  0  0  0
   11.5087   -9.2015    0.0000 C   0  0  1  0  0  0  0  0  0  0  0  0
   11.5242   -8.3767    0.0000 C   0  0  1  0  0  0  0  0  0  0  0  0
   10.8176   -7.9508    0.0000 C   0  0  1  0  0  0  0  0  0  0  0  0
   12.2463   -7.9777    0.0000 O   0  0  0  0  0  0  0  0  0  0  0  0
   12.2618   -7.1528    0.0000 O   0  0  0  0  0  0  0  0  0  0  0  0
   11.5552   -6.7270    0.0000 C   0  0  1  0  0  0  0  0  0  0  0  0
   10.8331   -7.1260    0.0000 O   0  0  0  0  0  0  0  0  0  0  0  0
   12.9839   -6.7538    0.0000 C   0  0  2  0  0  0  0  0  0  0  0  0
   12.9994   -5.9290    0.0000 C   0  0  1  0  0  0  0  0  0  0  0  0
   12.2929   -5.5031    0.0000 C   0  0  2  0  0  0  0  0  0  0  0  0
   11.5707   -5.9021    0.0000 C   0  0  1  0  0  0  0  0  0  0  0  0
   10.8642   -5.4762    0.0000 O   0  0  0  0  0  0  0  0  0  0  0  0
   13.6905   -7.1797    0.0000 C   0  0  0  0  0  0  0  0  0  0  0  0
   14.4126   -6.7807    0.0000 O   0  0  0  0  0  0  0  0  0  0  0  0
   14.4281   -5.9559    0.0000 C   0  0  1  0  0  0  0  0  0  0  0  0
   13.7215   -5.5300    0.0000 O   0  0  0  0  0  0  0  0  0  0  0  0
   15.1192   -7.2066    0.0000 C   0  0  1  0  0  0  0  0  0  0  0  0
   15.8413   -6.8076    0.0000 C   0  0  2  0  0  0  0  0  0  0  0  0
   15.8568   -5.9827    0.0000 C   0  0  1  0  0  0  0  0  0  0  0  0
   15.1502   -5.5569    0.0000 C   0  0  1  0  0  0  0  0  0  0  0  0
   16.5789   -5.5837    0.0000 O   0  0  0  0  0  0  0  0  0  0  0  0
   12.2153   -9.6274    0.0000 O   0  0  0  0  0  0  0  0  0  0  0  0
    7.2285   -8.2958    0.0000 H   0  0  0  0  0  0  0  0  0  0  0  0
    7.6008   -5.5206    0.0000 C   0  0  0  0  0  0  0  0  0  0  0  0
    5.8191   -8.2694    0.0000 C   0  0  0  0  0  0  0  0  0  0  0  0
    4.3808   -8.2423    0.0000 C   0  0  0  0  0  0  0  0  0  0  0  0
    3.1935  -10.9926    0.0000 C   0  0  0  0  0  0  0  0  0  0  0  0
    4.0181  -11.0177    0.0000 C   0  0  0  0  0  0  0  0  0  0  0  0
    4.3246  -10.7166    0.0000 H   0  0  0  0  0  0  0  0  0  0  0  0
    5.0622   -9.4928    0.0000 H   0  0  0  0  0  0  0  0  0  0  0  0
    6.4909   -9.5197    0.0000 C   0  0  0  0  0  0  0  0  0  0  0  0
    8.4254   -5.5458    0.0000 C   0  0  0  0  0  0  0  0  0  0  0  0
   10.7711  -10.4254    0.0000 C   0  0  0  0  0  0  0  0  0  0  0  0
   12.3084   -4.6783    0.0000 O   0  0  0  0  0  0  0  0  0  0  0  0
   15.1657   -4.7320    0.0000 O   0  0  0  0  0  0  0  0  0  0  0  0
   16.5479   -7.2335    0.0000 O   0  0  0  0  0  0  0  0  0  0  0  0
    3.5840  -11.7193    0.0000 O   0  0  0  0  0  0  0  0  0  0  0  0
    4.8427  -11.0429    0.0000 O   0  0  0  0  0  0  0  0  0  0  0  0
    3.6742   -7.8164    0.0000 O   0  0  0  0  0  0  0  0  0  0  0  0
    4.9641   -7.6589    0.0000 O   0  0  0  0  0  0  0  0  0  0  0  0
   15.1037   -8.0314    0.0000 C   0  0  0  0  0  0  0  0  0  0  0  0
   15.8182   -8.4439    0.0000 O   0  0  0  0  0  0  0  0  0  0  0  0
   15.8182   -9.2689    0.0000 C   0  0  2  0  0  0  0  0  0  0  0  0
   15.1037   -9.6814    0.0000 O   0  0  0  0  0  0  0  0  0  0  0  0
   15.1037  -10.5064    0.0000 C   0  0  0  0  0  0  0  0  0  0  0  0
   15.8182  -10.9189    0.0000 C   0  0  2  0  0  0  0  0  0  0  0  0
   16.5326  -10.5064    0.0000 C   0  0  1  0  0  0  0  0  0  0  0  0
   16.5326   -9.6814    0.0000 C   0  0  1  0  0  0  0  0  0  0  0  0
   17.2471   -9.2689    0.0000 O   0  0  0  0  0  0  0  0  0  0  0  0
   15.8182  -11.7439    0.0000 O   0  0  0  0  0  0  0  0  0  0  0  0
   17.2471  -10.9189    0.0000 O   0  0  0  0  0  0  0  0  0  0  0  0
  2  1  1  1  0  0  0
  2  3  1  0  0  0  0
  2  4  1  0  0  0  0
  4  5  1  0  0  0  0
  5  6  1  0  0  0  0
  6  7  1  0  0  0  0
  7  3  1  0  0  0  0
  5  8  1  0  0  0  0
  8  9  1  0  0  0  0
  9 10  1  0  0  0  0
 10 11  1  0  0  0  0
 11  6  1  0  0  0  0
 10 12  1  0  0  0  0
 12 13  1  0  0  0  0
 13 14  2  0  0  0  0
 14 15  1  0  0  0  0
 15 11  1  0  0  0  0
 12 16  1  0  0  0  0
 16 17  1  0  0  0  0
 17 18  1  0  0  0  0
 18 19  1  0  0  0  0
 19 13  1  0  0  0  0
 18 20  1  0  0  0  0
 20 21  1  0  0  0  0
 21 22  1  0  0  0  0
 22 23  1  0  0  0  0
 23 19  1  0  0  0  0
 18 24  1  1  0  0  0
 24 25  2  0  0  0  0
 26 27  1  0  0  0  0
 27 28  1  1  0  0  0
 28 24  1  0  0  0  0
 26 29  1  0  0  0  0
 29 30  1  0  0  0  0
 30 31  1  0  0  0  0
 31 32  1  0  0  0  0
 32 27  1  0  0  0  0
 31 33  1  1  0  0  0
 34 35  1  0  0  0  0
 35 36  1  1  0  0  0
 32 36  1  6  0  0  0
 34 37  1  0  0  0  0
 37 38  1  0  0  0  0
 38 39  1  0  0  0  0
 39 40  1  0  0  0  0
 40 35  1  0  0  0  0
 40 41  1  6  0  0  0
 37 42  1  6  0  0  0
 43 44  1  0  0  0  0
 44 45  1  1  0  0  0
 38 45  1  1  0  0  0
 43 46  1  0  0  0  0
 46 47  1  0  0  0  0
 47 48  1  0  0  0  0
 48 49  1  0  0  0  0
 49 44  1  0  0  0  0
 48 50  1  1  0  0  0
 30 51  1  1  0  0  0
 19 52  1  1  0  0  0
 22 53  1  1  0  0  0
 10 54  1  1  0  0  0
  6 55  1  1  0  0  0
  4 56  1  1  0  0  0
  4 57  1  6  0  0  0
  5 58  1  6  0  0  0
 11 59  1  6  0  0  0
 12 60  1  6  0  0  0
 22 61  1  6  0  0  0
 29 62  1  1  0  0  0
 39 63  1  6  0  0  0
 49 64  1  6  0  0  0
 47 65  1  6  0  0  0
 57 66  1  0  0  0  0
 57 67  2  0  0  0  0
 55 68  2  0  0  0  0
 55 69  1  0  0  0  0
 46 70  1  1  0  0  0
 70 71  1  0  0  0  0
 72 71  1  1  0  0  0
 72 73  1  0  0  0  0
 73 74  1  0  0  0  0
 74 75  1  0  0  0  0
 75 76  1  0  0  0  0
 76 77  1  0  0  0  0
 77 72  1  0  0  0  0
 77 78  1  6  0  0  0
 75 79  1  6  0  0  0
 76 80  1  1  0  0  0
M  END
>  <cdx:fragmentId>
5

$$$$
