90958.cdx
  Mrv1902 05222410202D          

 24 26  0  0  0  0            999 V2000
    3.0506   -8.9914    0.0000 C   0  0  0  0  0  0  0  0  0  0  0  0
    3.0506   -9.8164    0.0000 C   0  0  0  0  0  0  0  0  0  0  0  0
    3.7650  -10.2289    0.0000 C   0  0  0  0  0  0  0  0  0  0  0  0
    4.4795   -9.8164    0.0000 C   0  0  0  0  0  0  0  0  0  0  0  0
    4.4795   -8.9914    0.0000 C   0  0  0  0  0  0  0  0  0  0  0  0
    3.7650   -8.5789    0.0000 C   0  0  0  0  0  0  0  0  0  0  0  0
    5.1940  -10.2289    0.0000 O   0  0  0  0  0  0  0  0  0  0  0  0
    5.9084   -9.8164    0.0000 C   0  0  1  0  0  0  0  0  0  0  0  0
    5.9084   -8.9914    0.0000 C   0  0  2  0  0  0  0  0  0  0  0  0
    5.1940   -8.5789    0.0000 C   0  0  0  0  0  0  0  0  0  0  0  0
    5.1940   -7.7539    0.0000 O   0  0  0  0  0  0  0  0  0  0  0  0
    3.7650   -7.7539    0.0000 O   0  0  0  0  0  0  0  0  0  0  0  0
    6.6229  -10.2289    0.0000 C   0  0  0  0  0  0  0  0  0  0  0  0
    7.3374   -9.8164    0.0000 C   0  0  0  0  0  0  0  0  0  0  0  0
    6.6229   -8.5789    0.0000 O   0  0  0  0  0  0  0  0  0  0  0  0
    6.6229  -11.0539    0.0000 C   0  0  0  0  0  0  0  0  0  0  0  0
    7.3374  -11.4664    0.0000 C   0  0  0  0  0  0  0  0  0  0  0  0
    8.0519  -11.0539    0.0000 C   0  0  0  0  0  0  0  0  0  0  0  0
    8.0519  -10.2289    0.0000 C   0  0  0  0  0  0  0  0  0  0  0  0
    8.7663  -11.4664    0.0000 O   0  0  0  0  0  0  0  0  0  0  0  0
    8.7663   -9.8164    0.0000 O   0  0  0  0  0  0  0  0  0  0  0  0
    2.3361  -10.2289    0.0000 O   0  0  0  0  0  0  0  0  0  0  0  0
    7.3374  -12.2914    0.0000 O   0  0  0  0  0  0  0  0  0  0  0  0
    8.7663   -8.9914    0.0000 C   0  0  0  0  0  0  0  0  0  0  0  0
  1  2  2  0  0  0  0
  2  3  1  0  0  0  0
  3  4  2  0  0  0  0
  4  5  1  0  0  0  0
  5  6  2  0  0  0  0
  6  1  1  0  0  0  0
  4  7  1  0  0  0  0
  7  8  1  0  0  0  0
  8  9  1  0  0  0  0
  9 10  1  0  0  0  0
 10  5  1  0  0  0  0
 10 11  2  0  0  0  0
 12  6  1  0  0  0  0
  8 13  1  1  0  0  0
 13 14  1  0  0  0  0
  9 15  1  6  0  0  0
 13 16  2  0  0  0  0
 16 17  1  0  0  0  0
 17 18  2  0  0  0  0
 18 19  1  0  0  0  0
 19 14  2  0  0  0  0
 18 20  1  0  0  0  0
 21 19  1  0  0  0  0
  2 22  1  0  0  0  0
 17 23  1  0  0  0  0
 21 24  1  0  0  0  0
M  END
>  <cdx:fragmentId>
5

$$$$
