90952.cdx
  Mrv1902 05222410272D          

 69 76  0  0  0  0            999 V2000
    6.8680   -9.2157    0.0000 O   0  0  0  0  0  0  0  0  0  0  0  0
    6.1536   -8.8032    0.0000 C   0  0  1  0  0  0  0  0  0  0  0  0
    5.4391   -9.2157    0.0000 C   0  0  2  0  0  0  0  0  0  0  0  0
    5.4391  -10.0407    0.0000 C   0  0  1  0  0  0  0  0  0  0  0  0
    6.1536  -10.4532    0.0000 C   0  0  2  0  0  0  0  0  0  0  0  0
    6.8680  -10.0407    0.0000 C   0  0  2  0  0  0  0  0  0  0  0  0
    6.1536   -7.9782    0.0000 C   0  0  0  0  0  0  0  0  0  0  0  0
    6.8680   -7.5657    0.0000 O   0  0  0  0  0  0  0  0  0  0  0  0
    5.4391   -7.5657    0.0000 O   0  0  0  0  0  0  0  0  0  0  0  0
    4.7246  -10.4532    0.0000 O   0  0  0  0  0  0  0  0  0  0  0  0
    4.0101   -9.2157    0.0000 O   0  0  0  0  0  0  0  0  0  0  0  0
    4.0101  -10.0407    0.0000 C   0  0  2  0  0  0  0  0  0  0  0  0
    3.2957  -10.4532    0.0000 C   0  0  1  0  0  0  0  0  0  0  0  0
    2.5812  -10.0407    0.0000 C   0  0  2  0  0  0  0  0  0  0  0  0
    2.5812   -9.2157    0.0000 C   0  0  1  0  0  0  0  0  0  0  0  0
    3.2957   -8.8032    0.0000 C   0  0  0  0  0  0  0  0  0  0  0  0
    1.8667   -8.8032    0.0000 O   0  0  0  0  0  0  0  0  0  0  0  0
    1.8667  -10.4532    0.0000 O   0  0  0  0  0  0  0  0  0  0  0  0
    3.2957  -11.2782    0.0000 O   0  0  0  0  0  0  0  0  0  0  0  0
    6.1536  -11.2782    0.0000 O   0  0  0  0  0  0  0  0  0  0  0  0
    4.7246   -8.8032    0.0000 O   0  0  0  0  0  0  0  0  0  0  0  0
    7.5825  -10.4532    0.0000 O   0  0  0  0  0  0  0  0  0  0  0  0
    9.0114   -8.8032    0.0000 C   0  0  0  0  0  0  0  0  0  0  0  0
    8.2970   -9.2157    0.0000 C   0  0  1  0  0  0  0  0  0  0  0  0
    8.2970  -10.0407    0.0000 C   0  0  1  0  0  0  0  0  0  0  0  0
    9.0114  -10.4532    0.0000 C   0  0  2  0  0  0  0  0  0  0  0  0
    9.7259  -10.0407    0.0000 C   0  0  2  0  0  0  0  0  0  0  0  0
   10.4404  -10.4532    0.0000 C   0  0  0  0  0  0  0  0  0  0  0  0
   11.1549  -10.0407    0.0000 C   0  0  0  0  0  0  0  0  0  0  0  0
   11.1549   -9.2157    0.0000 C   0  0  1  0  0  0  0  0  0  0  0  0
   11.8693   -8.8032    0.0000 C   0  0  2  0  0  0  0  0  0  0  0  0
   12.5838   -9.2157    0.0000 C   0  0  0  0  0  0  0  0  0  0  0  0
   13.2983   -8.8032    0.0000 C   0  0  0  0  0  0  0  0  0  0  0  0
   13.2983   -7.9782    0.0000 C   0  0  1  0  0  0  0  0  0  0  0  0
   14.0127   -7.5657    0.0000 C   0  0  0  0  0  0  0  0  0  0  0  0
   14.0127   -6.7407    0.0000 C   0  0  0  0  0  0  0  0  0  0  0  0
   13.2983   -6.3282    0.0000 C   0  0  1  0  0  0  0  0  0  0  0  0
   12.5838   -6.7407    0.0000 C   0  0  0  0  0  0  0  0  0  0  0  0
   12.5838   -7.5657    0.0000 C   0  0  1  0  0  0  0  0  0  0  0  0
   11.8693   -7.9782    0.0000 C   0  0  0  0  0  0  0  0  0  0  0  0
   11.1549   -7.5657    0.0000 C   0  0  0  0  0  0  0  0  0  0  0  0
   10.4404   -7.9782    0.0000 C   0  0  0  0  0  0  0  0  0  0  0  0
   10.4404   -8.8032    0.0000 C   0  0  2  0  0  0  0  0  0  0  0  0
    9.7259   -9.2157    0.0000 C   0  0  1  0  0  0  0  0  0  0  0  0
   14.0127   -8.3907    0.0000 C   0  0  0  0  0  0  0  0  0  0  0  0
   14.0127   -9.2157    0.0000 O   0  0  0  0  0  0  0  0  0  0  0  0
    9.7259   -8.3907    0.0000 C   0  0  0  0  0  0  0  0  0  0  0  0
   12.8858   -5.6137    0.0000 C   0  0  0  0  0  0  0  0  0  0  0  0
   13.7108   -5.6137    0.0000 C   0  0  0  0  0  0  0  0  0  0  0  0
   11.8693   -9.6282    0.0000 C   0  0  0  0  0  0  0  0  0  0  0  0
   11.1549   -8.3907    0.0000 C   0  0  0  0  0  0  0  0  0  0  0  0
    9.4239  -11.1676    0.0000 C   0  0  0  0  0  0  0  0  0  0  0  0
    8.5989  -11.1676    0.0000 C   0  0  0  0  0  0  0  0  0  0  0  0
    7.5825   -8.8032    0.0000 O   0  0  0  0  0  0  0  0  0  0  0  0
    9.7259  -10.8657    0.0000 H   0  0  0  0  0  0  0  0  0  0  0  0
   12.5838   -8.3907    0.0000 H   0  0  0  0  0  0  0  0  0  0  0  0
   10.4404   -9.6282    0.0000 H   0  0  0  0  0  0  0  0  0  0  0  0
   16.1540   -7.1495    0.0000 O   0  0  0  0  0  0  0  0  0  0  0  0
   17.5851   -7.9708    0.0000 O   0  0  0  0  0  0  0  0  0  0  0  0
   17.5893   -9.6208    0.0000 O   0  0  0  0  0  0  0  0  0  0  0  0
   16.8781  -10.8601    0.0000 O   0  0  0  0  0  0  0  0  0  0  0  0
   16.1625  -10.4495    0.0000 C   0  0  0  0  0  0  0  0  0  0  0  0
   16.1604   -9.6245    0.0000 C   0  0  2  0  0  0  0  0  0  0  0  0
   16.8738   -9.2101    0.0000 C   0  0  2  0  0  0  0  0  0  0  0  0
   16.8717   -8.3852    0.0000 C   0  0  1  0  0  0  0  0  0  0  0  0
   16.1561   -7.9745    0.0000 C   0  0  2  0  0  0  0  0  0  0  0  0
   15.4427   -8.3888    0.0000 C   0  0  1  0  0  0  0  0  0  0  0  0
   15.4449   -9.2138    0.0000 O   0  0  0  0  0  0  0  0  0  0  0  0
   14.7272   -7.9782    0.0000 O   0  0  0  0  0  0  0  0  0  0  0  0
 67 69  1  1  0  0  0
 66 58  1  6  0  0  0
 65 59  1  1  0  0  0
 64 60  1  6  0  0  0
 63 62  1  1  0  0  0
 62 61  1  0  0  0  0
 68 63  1  0  0  0  0
 64 63  1  0  0  0  0
 65 64  1  0  0  0  0
 66 65  1  0  0  0  0
 67 66  1  0  0  0  0
 68 67  1  0  0  0  0
  1  2  1  0  0  0  0
  2  3  1  0  0  0  0
  3  4  1  0  0  0  0
  4  5  1  0  0  0  0
  5  6  1  0  0  0  0
  1  6  1  0  0  0  0
  7  8  2  0  0  0  0
  7  9  1  0  0  0  0
  2  7  1  1  0  0  0
 11 12  1  0  0  0  0
 12 13  1  0  0  0  0
 13 14  1  0  0  0  0
 14 15  1  0  0  0  0
 15 16  1  0  0  0  0
 11 16  1  0  0  0  0
 15 17  1  6  0  0  0
 14 18  1  1  0  0  0
 13 19  1  6  0  0  0
 12 10  1  1  0  0  0
  4 10  1  1  0  0  0
  5 20  1  6  0  0  0
  3 21  1  6  0  0  0
 23 24  1  0  0  0  0
 24 25  1  0  0  0  0
 25 26  1  0  0  0  0
 26 27  1  0  0  0  0
 27 28  1  0  0  0  0
 28 29  1  0  0  0  0
 29 30  1  0  0  0  0
 30 31  1  0  0  0  0
 31 32  1  0  0  0  0
 32 33  1  0  0  0  0
 33 34  1  0  0  0  0
 34 35  1  0  0  0  0
 35 36  1  0  0  0  0
 36 37  1  0  0  0  0
 37 38  1  0  0  0  0
 38 39  1  0  0  0  0
 34 39  1  0  0  0  0
 39 40  1  0  0  0  0
 31 40  1  0  0  0  0
 40 41  2  0  0  0  0
 41 42  1  0  0  0  0
 42 43  1  0  0  0  0
 30 43  1  0  0  0  0
 43 44  1  0  0  0  0
 27 44  1  0  0  0  0
 23 44  1  0  0  0  0
 45 46  2  0  0  0  0
 45 69  1  0  0  0  0
 34 45  1  1  0  0  0
 44 47  1  1  0  0  0
 37 48  1  1  0  0  0
 37 49  1  6  0  0  0
 31 50  1  6  0  0  0
 30 51  1  1  0  0  0
 26 52  1  6  0  0  0
 26 53  1  1  0  0  0
 24 54  1  1  0  0  0
 25 22  1  1  0  0  0
  6 22  1  1  0  0  0
 27 55  1  6  0  0  0
 39 56  1  1  0  0  0
 43 57  1  6  0  0  0
M  END
>  <cdx:fragmentId>
49

$$$$
