90951.cdx
  Mrv1902 05222410282D          

 89 98  0  0  0  0            999 V2000
    5.7267  -10.7762    0.0000 C   0  0  1  0  0  0  0  0  0  0  0  0
    5.7111  -11.6010    0.0000 C   0  0  1  0  0  0  0  0  0  0  0  0
    6.4177  -12.0269    0.0000 C   0  0  2  0  0  0  0  0  0  0  0  0
    7.1398  -11.6279    0.0000 C   0  0  1  0  0  0  0  0  0  0  0  0
    7.1553  -10.8031    0.0000 O   0  0  0  0  0  0  0  0  0  0  0  0
    6.4488  -10.3772    0.0000 C   0  0  2  0  0  0  0  0  0  0  0  0
    6.4643   -9.5523    0.0000 C   0  0  0  0  0  0  0  0  0  0  0  0
    5.7577   -9.1265    0.0000 O   0  0  0  0  0  0  0  0  0  0  0  0
    5.0201  -10.3503    0.0000 O   0  0  0  0  0  0  0  0  0  0  0  0
    7.8464  -12.0538    0.0000 O   0  0  0  0  0  0  0  0  0  0  0  0
    8.5685  -11.6548    0.0000 C   0  0  1  0  0  0  0  0  0  0  0  0
    8.5840  -10.8299    0.0000 C   0  0  1  0  0  0  0  0  0  0  0  0
    7.8774  -10.4041    0.0000 O   0  0  0  0  0  0  0  0  0  0  0  0
    9.9972  -11.6817    0.0000 C   0  0  1  0  0  0  0  0  0  0  0  0
   10.0127  -10.8568    0.0000 C   0  0  2  0  0  0  0  0  0  0  0  0
    9.3061  -10.4309    0.0000 C   0  0  0  0  0  0  0  0  0  0  0  0
   10.7038  -12.1075    0.0000 C   0  0  0  0  0  0  0  0  0  0  0  0
   11.4259  -11.7085    0.0000 C   0  0  0  0  0  0  0  0  0  0  0  0
   11.4414  -10.8837    0.0000 C   0  0  2  0  0  0  0  0  0  0  0  0
   10.7348  -10.4578    0.0000 C   0  0  2  0  0  0  0  0  0  0  0  0
   12.1635  -10.4847    0.0000 C   0  0  1  0  0  0  0  0  0  0  0  0
   12.1790   -9.6598    0.0000 C   0  0  0  0  0  0  0  0  0  0  0  0
   11.4724   -9.2340    0.0000 C   0  0  0  0  0  0  0  0  0  0  0  0
   10.7503   -9.6330    0.0000 C   0  0  0  0  0  0  0  0  0  0  0  0
   12.8701  -10.9106    0.0000 C   0  0  0  0  0  0  0  0  0  0  0  0
   13.5922  -10.5116    0.0000 C   0  0  0  0  0  0  0  0  0  0  0  0
   13.6077   -9.6867    0.0000 C   0  0  2  0  0  0  0  0  0  0  0  0
   12.9011   -9.2608    0.0000 C   0  0  1  0  0  0  0  0  0  0  0  0
   14.3298   -9.2877    0.0000 C   0  0  0  0  0  0  0  0  0  0  0  0
   14.3453   -8.4629    0.0000 C   0  0  0  0  0  0  0  0  0  0  0  0
   13.6388   -8.0370    0.0000 C   0  0  0  0  0  0  0  0  0  0  0  0
   12.9167   -8.4360    0.0000 C   0  0  0  0  0  0  0  0  0  0  0  0
   14.3143  -10.1126    0.0000 C   0  0  0  0  0  0  0  0  0  0  0  0
   14.2988  -10.9374    0.0000 O   0  0  0  0  0  0  0  0  0  0  0  0
   15.7275  -10.9643    0.0000 O   0  0  0  0  0  0  0  0  0  0  0  0
   15.7430  -10.1394    0.0000 C   0  0  1  0  0  0  0  0  0  0  0  0
   15.0364   -9.7136    0.0000 O   0  0  0  0  0  0  0  0  0  0  0  0
   16.4341  -11.3902    0.0000 C   0  0  1  0  0  0  0  0  0  0  0  0
   17.1562  -10.9912    0.0000 C   0  0  1  0  0  0  0  0  0  0  0  0
   17.1717  -10.1663    0.0000 C   0  0  1  0  0  0  0  0  0  0  0  0
   16.4651   -9.7405    0.0000 C   0  0  1  0  0  0  0  0  0  0  0  0
   17.8938   -9.7673    0.0000 O   0  0  0  0  0  0  0  0  0  0  0  0
   17.9093   -8.9425    0.0000 O   0  0  0  0  0  0  0  0  0  0  0  0
   17.2027   -8.5166    0.0000 C   0  0  1  0  0  0  0  0  0  0  0  0
   16.4806   -8.9156    0.0000 O   0  0  0  0  0  0  0  0  0  0  0  0
   18.6314   -8.5435    0.0000 C   0  0  2  0  0  0  0  0  0  0  0  0
   18.6469   -7.7186    0.0000 C   0  0  1  0  0  0  0  0  0  0  0  0
   17.9403   -7.2928    0.0000 C   0  0  2  0  0  0  0  0  0  0  0  0
   17.2182   -7.6918    0.0000 C   0  0  1  0  0  0  0  0  0  0  0  0
   16.5117   -7.2659    0.0000 O   0  0  0  0  0  0  0  0  0  0  0  0
   19.3380   -8.9694    0.0000 C   0  0  0  0  0  0  0  0  0  0  0  0
   19.3690   -7.3196    0.0000 O   0  0  0  0  0  0  0  0  0  0  0  0
   17.8628  -11.4170    0.0000 O   0  0  0  0  0  0  0  0  0  0  0  0
   12.8760  -10.0855    0.0000 H   0  0  0  0  0  0  0  0  0  0  0  0
   13.2482   -7.3103    0.0000 C   0  0  0  0  0  0  0  0  0  0  0  0
   11.4666  -10.0591    0.0000 C   0  0  0  0  0  0  0  0  0  0  0  0
   10.0282  -10.0319    0.0000 C   0  0  0  0  0  0  0  0  0  0  0  0
    4.9890  -12.0000    0.0000 O   0  0  0  0  0  0  0  0  0  0  0  0
    6.4022  -12.8518    0.0000 O   0  0  0  0  0  0  0  0  0  0  0  0
    9.9720  -12.5063    0.0000 H   0  0  0  0  0  0  0  0  0  0  0  0
   10.7097  -11.2824    0.0000 H   0  0  0  0  0  0  0  0  0  0  0  0
   12.1384  -11.3093    0.0000 C   0  0  0  0  0  0  0  0  0  0  0  0
   14.0729   -7.3354    0.0000 C   0  0  0  0  0  0  0  0  0  0  0  0
   16.4186  -12.2150    0.0000 C   0  0  0  0  0  0  0  0  0  0  0  0
   17.9559   -6.4679    0.0000 O   0  0  0  0  0  0  0  0  0  0  0  0
    7.1864   -9.1533    0.0000 O   0  0  0  0  0  0  0  0  0  0  0  0
    8.8626  -12.7951    0.0000 C   0  0  0  0  0  0  0  0  0  0  0  0
    9.2751  -12.0806    0.0000 C   0  0  1  0  0  0  0  0  0  0  0  0
   19.3836   -6.4700    0.0000 O   0  0  0  0  0  0  0  0  0  0  0  0
   18.6710   -6.0543    0.0000 C   0  0  2  0  0  0  0  0  0  0  0  0
   20.1000   -6.0607    0.0000 C   0  0  0  0  0  0  0  0  0  0  0  0
   20.1037   -5.2357    0.0000 C   0  0  1  0  0  0  0  0  0  0  0  0
   19.3911   -4.8200    0.0000 C   0  0  1  0  0  0  0  0  0  0  0  0
   18.6748   -5.2293    0.0000 C   0  0  1  0  0  0  0  0  0  0  0  0
   19.3948   -3.9950    0.0000 O   0  0  0  0  0  0  0  0  0  0  0  0
   17.9622   -4.8135    0.0000 O   0  0  0  0  0  0  0  0  0  0  0  0
   20.8200   -4.8265    0.0000 O   0  0  0  0  0  0  0  0  0  0  0  0
   20.0802   -8.5685    0.0000 O   0  0  0  0  0  0  0  0  0  0  0  0
   20.7943   -8.9818    0.0000 C   0  0  0  0  0  0  0  0  0  0  0  0
   21.5092   -8.5700    0.0000 C   0  0  2  0  0  0  0  0  0  0  0  0
   21.5100   -7.7450    0.0000 C   0  0  1  0  0  0  0  0  0  0  0  0
   20.7959   -7.3318    0.0000 C   0  0  2  0  0  0  0  0  0  0  0  0
   20.0810   -7.7435    0.0000 C   0  0  2  0  0  0  0  0  0  0  0  0
   22.2249   -7.3332    0.0000 O   0  0  0  0  0  0  0  0  0  0  0  0
   22.2232   -8.9832    0.0000 O   0  0  0  0  0  0  0  0  0  0  0  0
   20.7968   -6.5068    0.0000 O   0  0  0  0  0  0  0  0  0  0  0  0
    9.6876  -12.7951    0.0000 C   0  0  0  0  0  0  0  0  0  0  0  0
    9.2751  -13.5096    0.0000 O   0  0  0  0  0  0  0  0  0  0  0  0
   10.5126  -12.7951    0.0000 O   0  0  0  0  0  0  0  0  0  0  0  0
  1  2  1  0  0  0  0
  2  3  1  0  0  0  0
  3  4  1  0  0  0  0
  4  5  1  0  0  0  0
  5  6  1  0  0  0  0
  6  1  1  0  0  0  0
  6  7  1  1  0  0  0
  7  8  1  0  0  0  0
  1  9  1  6  0  0  0
  4 10  1  1  0  0  0
 11 10  1  1  0  0  0
 11 12  1  0  0  0  0
 12 13  1  1  0  0  0
 11 68  1  0  0  0  0
 68 14  1  0  0  0  0
 14 15  1  0  0  0  0
 15 16  1  0  0  0  0
 16 12  1  0  0  0  0
 14 17  1  0  0  0  0
 17 18  1  0  0  0  0
 18 19  1  0  0  0  0
 19 20  1  0  0  0  0
 20 15  1  0  0  0  0
 19 21  1  0  0  0  0
 21 22  1  0  0  0  0
 22 23  2  0  0  0  0
 23 24  1  0  0  0  0
 24 20  1  0  0  0  0
 21 25  1  0  0  0  0
 25 26  1  0  0  0  0
 26 27  1  0  0  0  0
 27 28  1  0  0  0  0
 28 22  1  0  0  0  0
 27 29  1  0  0  0  0
 29 30  1  0  0  0  0
 30 31  1  0  0  0  0
 31 32  1  0  0  0  0
 32 28  1  0  0  0  0
 27 33  1  1  0  0  0
 33 34  2  0  0  0  0
 35 36  1  0  0  0  0
 36 37  1  1  0  0  0
 37 33  1  0  0  0  0
 35 38  1  0  0  0  0
 38 39  1  0  0  0  0
 39 40  1  0  0  0  0
 40 41  1  0  0  0  0
 41 36  1  0  0  0  0
 40 42  1  1  0  0  0
 43 44  1  0  0  0  0
 44 45  1  1  0  0  0
 41 45  1  6  0  0  0
 43 46  1  0  0  0  0
 46 47  1  0  0  0  0
 47 48  1  0  0  0  0
 48 49  1  0  0  0  0
 49 44  1  0  0  0  0
 49 50  1  6  0  0  0
 46 51  1  6  0  0  0
 47 52  1  1  0  0  0
 39 53  1  1  0  0  0
 28 54  1  1  0  0  0
 31 55  1  0  0  0  0
 19 56  1  1  0  0  0
 15 57  1  1  0  0  0
  2 58  1  1  0  0  0
  3 59  1  6  0  0  0
 14 60  1  6  0  0  0
 20 61  1  6  0  0  0
 21 62  1  6  0  0  0
 31 63  1  0  0  0  0
 38 64  1  1  0  0  0
 48 65  1  6  0  0  0
  7 66  2  0  0  0  0
 68 67  1  1  0  0  0
 69 70  1  0  0  0  0
 69 71  1  0  0  0  0
 71 72  1  0  0  0  0
 72 73  1  0  0  0  0
 73 74  1  0  0  0  0
 74 70  1  0  0  0  0
 73 75  1  1  0  0  0
 74 76  1  6  0  0  0
 72 77  1  1  0  0  0
 70 65  1  1  0  0  0
 78 79  1  0  0  0  0
 79 80  1  0  0  0  0
 80 81  1  0  0  0  0
 81 82  1  0  0  0  0
 82 83  1  0  0  0  0
 83 78  1  0  0  0  0
 81 84  1  1  0  0  0
 80 85  1  6  0  0  0
 82 86  1  6  0  0  0
 83 52  1  1  0  0  0
 68 87  1  0  0  0  0
 87 88  1  0  0  0  0
 87 89  2  0  0  0  0
M  END
>  <cdx:fragmentId>
5

$$$$
