90961.cdx
  Mrv1902 05222410182D          

 37 40  0  0  0  0            999 V2000
    7.2031  -10.2839    0.0000 C   0  0  2  0  0  0  0  0  0  0  0  0
    7.2031  -11.1089    0.0000 C   0  0  2  0  0  0  0  0  0  0  0  0
    7.9175  -11.5214    0.0000 C   0  0  1  0  0  0  0  0  0  0  0  0
    8.6320  -11.1089    0.0000 C   0  0  2  0  0  0  0  0  0  0  0  0
    8.6320  -10.2839    0.0000 C   0  0  1  0  0  0  0  0  0  0  0  0
    7.9175   -9.8714    0.0000 O   0  0  0  0  0  0  0  0  0  0  0  0
    6.4886   -9.8714    0.0000 C   0  0  0  0  0  0  0  0  0  0  0  0
    9.3465   -9.8714    0.0000 O   0  0  0  0  0  0  0  0  0  0  0  0
    7.9175  -12.3464    0.0000 O   0  0  0  0  0  0  0  0  0  0  0  0
    6.4886  -11.5214    0.0000 O   0  0  0  0  0  0  0  0  0  0  0  0
    9.3465  -11.5214    0.0000 O   0  0  0  0  0  0  0  0  0  0  0  0
    5.7741  -10.2839    0.0000 O   0  0  0  0  0  0  0  0  0  0  0  0
    5.0596   -9.8714    0.0000 C   0  0  0  0  0  0  0  0  0  0  0  0
    4.3452  -10.2839    0.0000 C   0  0  0  0  0  0  0  0  0  0  0  0
    5.0596   -9.0464    0.0000 O   0  0  0  0  0  0  0  0  0  0  0  0
    3.6307   -9.8714    0.0000 C   0  0  0  0  0  0  0  0  0  0  0  0
    2.9162  -10.2839    0.0000 C   0  0  0  0  0  0  0  0  0  0  0  0
    2.9162  -11.1089    0.0000 C   0  0  0  0  0  0  0  0  0  0  0  0
    3.6307  -11.5214    0.0000 C   0  0  0  0  0  0  0  0  0  0  0  0
    4.3452  -11.1089    0.0000 C   0  0  0  0  0  0  0  0  0  0  0  0
    2.2018  -11.5214    0.0000 O   0  0  0  0  0  0  0  0  0  0  0  0
    9.3465   -9.0464    0.0000 C   0  0  1  0  0  0  0  0  0  0  0  0
   10.0609   -8.6339    0.0000 C   0  0  1  0  0  0  0  0  0  0  0  0
   10.0609   -7.8089    0.0000 C   0  0  1  0  0  0  0  0  0  0  0  0
    9.3465   -7.3964    0.0000 C   0  0  0  0  0  0  0  0  0  0  0  0
    8.6320   -7.8089    0.0000 C   0  0  0  0  0  0  0  0  0  0  0  0
    8.6320   -8.6339    0.0000 O   0  0  0  0  0  0  0  0  0  0  0  0
   10.8456   -8.8888    0.0000 C   0  0  2  0  0  0  0  0  0  0  0  0
   11.3305   -8.2214    0.0000 C   0  0  0  0  0  0  0  0  0  0  0  0
   10.8456   -7.5540    0.0000 C   0  0  0  0  0  0  0  0  0  0  0  0
    9.3465   -6.5714    0.0000 C   0  0  0  0  0  0  0  0  0  0  0  0
    8.6320   -6.1589    0.0000 O   0  0  0  0  0  0  0  0  0  0  0  0
   10.0609   -6.1589    0.0000 O   0  0  0  0  0  0  0  0  0  0  0  0
   10.6320   -9.6857    0.0000 O   0  0  0  0  0  0  0  0  0  0  0  0
   11.5600   -9.3013    0.0000 C   0  0  0  0  0  0  0  0  0  0  0  0
   10.1472   -6.9884    0.0000 H   0  0  0  0  0  0  0  0  0  0  0  0
   10.0609   -9.4589    0.0000 H   0  0  0  0  0  0  0  0  0  0  0  0
  1  2  1  0  0  0  0
  2  3  1  0  0  0  0
  3  4  1  0  0  0  0
  4  5  1  0  0  0  0
  5  6  1  0  0  0  0
  6  1  1  0  0  0  0
  1  7  1  1  0  0  0
  5  8  1  1  0  0  0
  3  9  1  1  0  0  0
  2 10  1  6  0  0  0
  4 11  1  6  0  0  0
  7 12  1  0  0  0  0
 12 13  1  0  0  0  0
 13 14  1  0  0  0  0
 13 15  2  0  0  0  0
 14 16  2  0  0  0  0
 16 17  1  0  0  0  0
 17 18  2  0  0  0  0
 18 19  1  0  0  0  0
 19 20  2  0  0  0  0
 20 14  1  0  0  0  0
 18 21  1  0  0  0  0
 22  8  1  6  0  0  0
 22 23  1  0  0  0  0
 23 24  1  0  0  0  0
 24 25  1  0  0  0  0
 25 26  2  0  0  0  0
 26 27  1  0  0  0  0
 27 22  1  0  0  0  0
 23 28  1  0  0  0  0
 28 29  1  0  0  0  0
 29 30  1  0  0  0  0
 30 24  1  0  0  0  0
 25 31  1  0  0  0  0
 31 32  2  0  0  0  0
 31 33  1  0  0  0  0
 28 34  1  0  0  0  0
 28 35  1  1  0  0  0
 24 36  1  6  0  0  0
 23 37  1  6  0  0  0
M  END
>  <cdx:fragmentId>
5

$$$$
