909679.cdx
  Mrv1902 05222410212D          

 24 29  0  0  0  0            999 V2000
    4.4891   -7.4642    0.0000 C   0  0  0  0  0  0  0  0  0  0  0  0
    5.1973   -7.0411    0.0000 C   0  0  0  0  0  0  0  0  0  0  0  0
    5.9179   -7.4429    0.0000 C   0  0  0  0  0  0  0  0  0  0  0  0
    5.9302   -8.2678    0.0000 C   0  0  0  0  0  0  0  0  0  0  0  0
    5.2220   -8.6909    0.0000 C   0  0  0  0  0  0  0  0  0  0  0  0
    4.5014   -8.2891    0.0000 C   0  0  0  0  0  0  0  0  0  0  0  0
    6.6261   -7.0197    0.0000 C   0  0  0  0  0  0  0  0  0  0  0  0
    7.3467   -7.4215    0.0000 C   0  0  0  0  0  0  0  0  0  0  0  0
    7.3590   -8.2464    0.0000 N   0  0  0  0  0  0  0  0  0  0  0  0
    6.6508   -8.6696    0.0000 C   0  0  0  0  0  0  0  0  0  0  0  0
    6.6138   -6.1948    0.0000 C   0  0  0  0  0  0  0  0  0  0  0  0
    7.3220   -5.7717    0.0000 C   0  0  0  0  0  0  0  0  0  0  0  0
    8.0426   -6.1735    0.0000 C   0  0  0  0  0  0  0  0  0  0  0  0
    8.0549   -6.9984    0.0000 C   0  0  0  0  0  0  0  0  0  0  0  0
    8.7508   -5.7504    0.0000 C   0  0  0  0  0  0  0  0  0  0  0  0
    9.4714   -6.1521    0.0000 C   0  0  0  0  0  0  0  0  0  0  0  0
    9.4837   -6.9770    0.0000 C   0  0  0  0  0  0  0  0  0  0  0  0
    8.7755   -7.4002    0.0000 C   0  0  0  0  0  0  0  0  0  0  0  0
    5.0626   -9.5004    0.0000 O   0  0  0  0  0  0  0  0  0  0  0  0
    4.2435   -9.5988    0.0000 C   0  0  0  0  0  0  0  0  0  0  0  0
    3.8967   -8.8503    0.0000 O   0  0  0  0  0  0  0  0  0  0  0  0
   10.2521   -5.8855    0.0000 O   0  0  0  0  0  0  0  0  0  0  0  0
   10.7469   -6.5456    0.0000 C   0  0  0  0  0  0  0  0  0  0  0  0
   10.2720   -7.2202    0.0000 O   0  0  0  0  0  0  0  0  0  0  0  0
  1  2  2  0  0  0  0
  2  3  1  0  0  0  0
  3  4  2  0  0  0  0
  4  5  1  0  0  0  0
  5  6  2  0  0  0  0
  6  1  1  0  0  0  0
  3  7  1  0  0  0  0
  7  8  2  0  0  0  0
  8  9  1  0  0  0  0
  9 10  2  0  0  0  0
 10  4  1  0  0  0  0
  7 11  1  0  0  0  0
 11 12  2  0  0  0  0
 12 13  1  0  0  0  0
 13 14  2  0  0  0  0
 14  8  1  0  0  0  0
 13 15  1  0  0  0  0
 15 16  2  0  0  0  0
 16 17  1  0  0  0  0
 17 18  2  0  0  0  0
 18 14  1  0  0  0  0
  5 19  1  0  0  0  0
 19 20  1  0  0  0  0
 20 21  1  0  0  0  0
 21  6  1  0  0  0  0
 16 22  1  0  0  0  0
 22 23  1  0  0  0  0
 23 24  1  0  0  0  0
 24 17  1  0  0  0  0
M  END
>  <cdx:fragmentId>
5

$$$$
