90960.cdx
  Mrv1902 05222410182D          

 42 47  0  0  0  0            999 V2000
    2.0606   -7.6026    0.0000 C   0  0  0  0  0  0  0  0  0  0  0  0
    2.0606   -8.4276    0.0000 C   0  0  0  0  0  0  0  0  0  0  0  0
    2.7750   -8.8401    0.0000 C   0  0  0  0  0  0  0  0  0  0  0  0
    3.4895   -8.4276    0.0000 C   0  0  0  0  0  0  0  0  0  0  0  0
    3.4895   -7.6026    0.0000 C   0  0  0  0  0  0  0  0  0  0  0  0
    2.7750   -7.1901    0.0000 C   0  0  0  0  0  0  0  0  0  0  0  0
    4.2040   -8.8401    0.0000 C   0  0  0  0  0  0  0  0  0  0  0  0
    4.9184   -8.4276    0.0000 C   0  0  0  0  0  0  0  0  0  0  0  0
    4.9184   -7.6026    0.0000 C   0  0  0  0  0  0  0  0  0  0  0  0
    4.2040   -7.1901    0.0000 O   0  0  0  0  0  0  0  0  0  0  0  0
    6.3474   -7.6026    0.0000 C   0  0  0  0  0  0  0  0  0  0  0  0
    5.6329   -7.1901    0.0000 C   0  0  0  0  0  0  0  0  0  0  0  0
    7.0619   -7.1901    0.0000 C   0  0  0  0  0  0  0  0  0  0  0  0
    7.0619   -6.3651    0.0000 C   0  0  0  0  0  0  0  0  0  0  0  0
    6.3474   -5.9526    0.0000 C   0  0  0  0  0  0  0  0  0  0  0  0
    5.6329   -6.3651    0.0000 C   0  0  0  0  0  0  0  0  0  0  0  0
    2.7750   -9.6651    0.0000 O   0  0  0  0  0  0  0  0  0  0  0  0
    4.2040   -9.6651    0.0000 O   0  0  0  0  0  0  0  0  0  0  0  0
    1.3461   -7.1901    0.0000 O   0  0  0  0  0  0  0  0  0  0  0  0
    7.7763   -5.9526    0.0000 O   0  0  0  0  0  0  0  0  0  0  0  0
    7.9216  -10.9295    0.0000 C   0  0  0  0  0  0  0  0  0  0  0  0
    7.2127  -11.3515    0.0000 C   0  0  0  0  0  0  0  0  0  0  0  0
    7.2236  -12.1764    0.0000 C   0  0  0  0  0  0  0  0  0  0  0  0
    7.9435  -12.5794    0.0000 C   0  0  0  0  0  0  0  0  0  0  0  0
    8.6524  -12.1575    0.0000 C   0  0  0  0  0  0  0  0  0  0  0  0
    8.6415  -11.3325    0.0000 C   0  0  0  0  0  0  0  0  0  0  0  0
    6.4928  -10.9485    0.0000 O   0  0  0  0  0  0  0  0  0  0  0  0
    5.7839  -11.3704    0.0000 C   0  0  0  0  0  0  0  0  0  0  0  0
    7.9435  -13.4043    0.0000 O   0  0  0  0  0  0  0  0  0  0  0  0
    9.3614  -13.3854    0.0000 O   0  0  0  0  0  0  0  0  0  0  0  0
    9.3614  -12.5605    0.0000 C   0  0  0  0  0  0  0  0  0  0  0  0
   10.0813  -12.1385    0.0000 C   0  0  0  0  0  0  0  0  0  0  0  0
   10.0813  -11.3136    0.0000 C   0  0  0  0  0  0  0  0  0  0  0  0
    9.3723  -10.9106    0.0000 O   0  0  0  0  0  0  0  0  0  0  0  0
   11.5101  -11.3136    0.0000 C   0  0  0  0  0  0  0  0  0  0  0  0
   10.7957  -10.9011    0.0000 C   0  0  0  0  0  0  0  0  0  0  0  0
   12.2245  -10.9011    0.0000 C   0  0  0  0  0  0  0  0  0  0  0  0
   12.2245  -10.0762    0.0000 C   0  0  0  0  0  0  0  0  0  0  0  0
   11.5101   -9.6637    0.0000 C   0  0  0  0  0  0  0  0  0  0  0  0
   10.7957  -10.0762    0.0000 C   0  0  0  0  0  0  0  0  0  0  0  0
   12.9390   -9.6637    0.0000 O   0  0  0  0  0  0  0  0  0  0  0  0
   13.6534  -10.0762    0.0000 C   0  0  0  0  0  0  0  0  0  0  0  0
  1  2  2  0  0  0  0
  2  3  1  0  0  0  0
  3  4  2  0  0  0  0
  4  5  1  0  0  0  0
  5  6  2  0  0  0  0
  6  1  1  0  0  0  0
  4  7  1  0  0  0  0
  7  8  1  0  0  0  0
  8  9  2  0  0  0  0
  9 10  1  0  0  0  0
 10  5  1  0  0  0  0
 11 12  2  0  0  0  0
 12  9  1  0  0  0  0
 11 13  1  0  0  0  0
 13 14  2  0  0  0  0
 14 15  1  0  0  0  0
 15 16  2  0  0  0  0
 16 12  1  0  0  0  0
  3 17  1  0  0  0  0
 18  7  2  0  0  0  0
  1 19  1  0  0  0  0
 14 20  1  0  0  0  0
 13 21  1  0  0  0  0
 21 22  1  0  0  0  0
 22 23  2  0  0  0  0
 23 24  1  0  0  0  0
 24 25  2  0  0  0  0
 25 26  1  0  0  0  0
 26 21  2  0  0  0  0
 22 27  1  0  0  0  0
 27 28  1  0  0  0  0
 24 29  1  0  0  0  0
 30 31  2  0  0  0  0
 31 25  1  0  0  0  0
 31 32  1  0  0  0  0
 32 33  2  0  0  0  0
 33 34  1  0  0  0  0
 34 26  1  0  0  0  0
 35 36  2  0  0  0  0
 36 33  1  0  0  0  0
 35 37  1  0  0  0  0
 37 38  2  0  0  0  0
 38 39  1  0  0  0  0
 39 40  2  0  0  0  0
 40 36  1  0  0  0  0
 38 41  1  0  0  0  0
 41 42  1  0  0  0  0
M  END
>  <cdx:fragmentId>
5

$$$$
