90966.cdx
  Mrv1902 05222410202D          

 23 23  0  0  0  0            999 V2000
    1.1372   -8.5188    0.0000 C   0  0  0  0  0  0  0  0  0  0  0  0
    1.5468   -9.2349    0.0000 C   0  0  0  0  0  0  0  0  0  0  0  0
    2.3718   -9.2383    0.0000 C   0  0  0  0  0  0  0  0  0  0  0  0
    1.1313   -9.9477    0.0000 O   0  0  0  0  0  0  0  0  0  0  0  0
    0.3122   -8.5188    0.0000 C   0  0  0  0  0  0  0  0  0  0  0  0
    3.1968   -9.2383    0.0000 C   0  0  0  0  0  0  0  0  0  0  0  0
    4.0218   -9.2383    0.0000 C   0  0  0  0  0  0  0  0  0  0  0  0
    4.8468   -9.2383    0.0000 C   0  0  0  0  0  0  0  0  0  0  0  0
    6.0605   -9.9120    0.0000 C   0  0  2  0  0  0  0  0  0  0  0  0
    6.8855   -9.9120    0.0000 C   0  0  1  0  0  0  0  0  0  0  0  0
    6.4730  -10.6265    0.0000 O   0  0  0  0  0  0  0  0  0  0  0  0
    7.6000   -9.4995    0.0000 C   0  0  0  0  0  0  0  0  0  0  0  0
    8.3145   -9.9120    0.0000 C   0  0  0  0  0  0  0  0  0  0  0  0
    9.0289   -9.4995    0.0000 C   0  0  0  0  0  0  0  0  0  0  0  0
    9.7434   -9.9120    0.0000 C   0  0  0  0  0  0  0  0  0  0  0  0
   10.4579   -9.4995    0.0000 C   0  0  0  0  0  0  0  0  0  0  0  0
   11.1724   -9.9120    0.0000 C   0  0  0  0  0  0  0  0  0  0  0  0
   11.8868   -9.4995    0.0000 C   0  0  0  0  0  0  0  0  0  0  0  0
   12.6013   -9.9120    0.0000 C   0  0  0  0  0  0  0  0  0  0  0  0
   13.3158   -9.4995    0.0000 O   0  0  0  0  0  0  0  0  0  0  0  0
    5.6718   -9.2383    0.0000 C   0  0  0  0  0  0  0  0  0  0  0  0
    5.3460  -10.3245    0.0000 H   0  0  0  0  0  0  0  0  0  0  0  0
    7.6000  -10.3245    0.0000 H   0  0  0  0  0  0  0  0  0  0  0  0
  1  2  1  0  0  0  0
  2  3  1  0  0  0  0
  2  4  1  0  0  0  0
  1  5  2  0  0  0  0
  3  6  3  0  0  0  0
  6  7  1  0  0  0  0
  7  8  3  0  0  0  0
  9 10  1  0  0  0  0
  9 11  1  0  0  0  0
 11 10  1  0  0  0  0
 10 12  1  0  0  0  0
 12 13  1  0  0  0  0
 13 14  1  0  0  0  0
 14 15  1  0  0  0  0
 15 16  1  0  0  0  0
 16 17  1  0  0  0  0
 17 18  1  0  0  0  0
 18 19  1  0  0  0  0
 19 20  2  0  0  0  0
  8 21  1  0  0  0  0
 21  9  1  0  0  0  0
  9 22  1  1  0  0  0
 10 23  1  1  0  0  0
M  END
>  <cdx:fragmentId>
3

$$$$
