90963.cdx
  Mrv1902 05222410192D          

 20 23  0  0  0  0            999 V2000
    8.2272   -8.8981    0.0000 C   0  0  0  0  0  0  0  0  0  0  0  0
    7.2802   -9.2795    0.0000 C   0  0  0  0  0  0  0  0  0  0  0  0
    6.6260   -9.6553    0.0000 C   0  0  0  0  0  0  0  0  0  0  0  0
    5.9209   -9.9217    0.0000 C   0  0  0  0  0  0  0  0  0  0  0  0
    6.3601   -9.1719    0.0000 C   0  0  0  0  0  0  0  0  0  0  0  0
    7.4909   -9.7949    0.0000 C   0  0  0  0  0  0  0  0  0  0  0  0
    8.8923   -8.4099    0.0000 O   0  0  0  0  0  0  0  0  0  0  0  0
    6.3601   -8.3469    0.0000 C   0  0  0  0  0  0  0  0  0  0  0  0
    6.6398   -8.6928    0.0000 C   0  0  0  0  0  0  0  0  0  0  0  0
    7.0746   -7.9344    0.0000 C   0  0  0  0  0  0  0  0  0  0  0  0
    6.5736   -7.5500    0.0000 O   0  0  0  0  0  0  0  0  0  0  0  0
    7.0746   -7.1094    0.0000 C   0  0  0  0  0  0  0  0  0  0  0  0
    5.9071  -10.9667    0.0000 C   0  0  0  0  0  0  0  0  0  0  0  0
    6.4125  -10.4522    0.0000 N   0  0  0  0  0  0  0  0  0  0  0  0
    7.2094  -10.2387    0.0000 C   0  0  0  0  0  0  0  0  0  0  0  0
    8.0063  -10.4522    0.0000 C   0  0  0  0  0  0  0  0  0  0  0  0
    8.2878   -9.5814    0.0000 C   0  0  0  0  0  0  0  0  0  0  0  0
    6.4125  -11.2772    0.0000 C   0  0  0  0  0  0  0  0  0  0  0  0
    5.4643  -11.5522    0.0000 C   0  0  0  0  0  0  0  0  0  0  0  0
    7.3077  -10.8058    0.0000 O   0  0  0  0  0  0  0  0  0  0  0  0
  6  1  1  0  0  0  0
  1  2  1  0  0  0  0
  3  4  1  0  0  0  0
  4  5  1  0  0  0  0
  2  5  1  0  0  0  0
  1  7  2  0  0  0  0
  5  8  1  0  0  0  0
  3  9  1  0  0  0  0
  8 10  1  0  0  0  0
  9 10  1  0  0  0  0
  8 11  1  0  0  0  0
 10 12  1  0  0  0  0
  4 13  1  0  0  0  0
  3 14  1  0  0  0  0
 14 15  1  0  0  0  0
  6 17  1  0  0  0  0
 17 16  1  0  0  0  0
 14 18  1  0  0  0  0
 18 19  1  0  0  0  0
 13 19  1  0  0  0  0
  2 20  1  0  0  0  0
  3  6  1  0  0  0  0
 15 16  1  0  0  0  0
M  END
>  <cdx:groupId>
813

>  <cdx:fragmentId>
814

$$$$
