90969.cdx
  Mrv1902 05222410262D          

 15 17  0  0  0  0            999 V2000
    9.3605   -6.4375    0.0000 C   0  0  0  0  0  0  0  0  0  0  0  0
    8.2211   -5.4730    0.0000 C   0  0  0  0  0  0  0  0  0  0  0  0
    7.5443   -5.2174    0.0000 C   0  0  0  0  0  0  0  0  0  0  0  0
    8.1736   -6.6465    0.0000 C   0  0  0  0  0  0  0  0  0  0  0  0
    6.1129   -8.4325    0.0000 C   0  0  0  0  0  0  0  0  0  0  0  0
    6.3217   -6.3080    0.0000 C   0  0  0  0  0  0  0  0  0  0  0  0
    5.8514   -6.9858    0.0000 C   0  0  0  0  0  0  0  0  0  0  0  0
    6.3507   -7.6425    0.0000 C   0  0  0  0  0  0  0  0  0  0  0  0
    8.5858   -7.6698    0.0000 C   0  0  0  0  0  0  0  0  0  0  0  0
    8.9275   -6.9189    0.0000 C   0  0  0  0  0  0  0  0  0  0  0  0
    8.5535   -6.1835    0.0000 C   0  0  0  0  0  0  0  0  0  0  0  0
    7.7454   -6.0175    0.0000 C   0  0  0  0  0  0  0  0  0  0  0  0
    7.1117   -6.5458    0.0000 C   0  0  0  0  0  0  0  0  0  0  0  0
    7.1296   -7.3706    0.0000 C   0  0  0  0  0  0  0  0  0  0  0  0
    7.7857   -7.8708    0.0000 C   0  0  0  0  0  0  0  0  0  0  0  0
  4  1  1  0  0  0  0
  4  2  1  0  0  0  0
 12  3  1  0  0  0  0
 13  4  1  0  0  0  0
  9  4  1  0  0  0  0
  8  5  1  0  0  0  0
  6 13  1  0  0  0  0
  7  6  1  0  0  0  0
  8  7  1  0  0  0  0
 14  8  2  0  0  0  0
  9 15  1  0  0  0  0
 10  9  1  0  0  0  0
 11 10  1  0  0  0  0
 12 11  1  0  0  0  0
 13 12  1  0  0  0  0
 14 13  1  0  0  0  0
 15 14  1  0  0  0  0
M  END
>  <cdx:fragmentId>
5

$$$$
