90965.cdx
  Mrv1902 05222410202D          

 48 51  0  0  0  0            999 V2000
    7.0403   -9.6396    0.0000 C   0  0  0  0  0  0  0  0  0  0  0  0
    7.0403   -8.8146    0.0000 C   0  0  2  0  0  0  0  0  0  0  0  0
    7.7547   -8.4021    0.0000 C   0  0  1  0  0  0  0  0  0  0  0  0
    7.7547   -7.5771    0.0000 C   0  0  0  0  0  0  0  0  0  0  0  0
    7.7547  -10.0521    0.0000 O   0  0  0  0  0  0  0  0  0  0  0  0
    7.0403   -7.1646    0.0000 O   0  0  0  0  0  0  0  0  0  0  0  0
    8.4692   -8.8146    0.0000 C   0  0  0  0  0  0  0  0  0  0  0  0
    9.1837   -8.4021    0.0000 C   0  0  0  0  0  0  0  0  0  0  0  0
    9.8981   -8.8146    0.0000 C   0  0  0  0  0  0  0  0  0  0  0  0
   10.6126   -8.4021    0.0000 C   0  0  0  0  0  0  0  0  0  0  0  0
   10.6126   -7.5771    0.0000 C   0  0  0  0  0  0  0  0  0  0  0  0
    9.8981   -7.1646    0.0000 C   0  0  0  0  0  0  0  0  0  0  0  0
    9.1837   -7.5771    0.0000 C   0  0  0  0  0  0  0  0  0  0  0  0
   11.3271   -8.8146    0.0000 O   0  0  0  0  0  0  0  0  0  0  0  0
   12.0416   -8.4021    0.0000 C   0  0  0  0  0  0  0  0  0  0  0  0
   11.3271   -7.1646    0.0000 O   0  0  0  0  0  0  0  0  0  0  0  0
    6.3258   -8.4021    0.0000 C   0  0  0  0  0  0  0  0  0  0  0  0
    5.6113   -8.8146    0.0000 C   0  0  0  0  0  0  0  0  0  0  0  0
    4.8969   -8.4021    0.0000 C   0  0  0  0  0  0  0  0  0  0  0  0
    4.1824   -8.8146    0.0000 C   0  0  0  0  0  0  0  0  0  0  0  0
    4.1824   -9.6396    0.0000 C   0  0  0  0  0  0  0  0  0  0  0  0
    4.8969  -10.0521    0.0000 C   0  0  0  0  0  0  0  0  0  0  0  0
    5.6113   -9.6396    0.0000 C   0  0  0  0  0  0  0  0  0  0  0  0
    3.4679   -8.4021    0.0000 O   0  0  0  0  0  0  0  0  0  0  0  0
    2.7534   -8.8146    0.0000 C   0  0  0  0  0  0  0  0  0  0  0  0
    3.4679  -10.0521    0.0000 O   0  0  0  0  0  0  0  0  0  0  0  0
    7.7547  -10.8771    0.0000 C   0  0  2  0  0  0  0  0  0  0  0  0
    7.0403   -6.3396    0.0000 C   0  0  2  0  0  0  0  0  0  0  0  0
    7.7547   -5.9271    0.0000 O   0  0  0  0  0  0  0  0  0  0  0  0
    7.7547   -5.1021    0.0000 C   0  0  1  0  0  0  0  0  0  0  0  0
    7.0403   -4.6896    0.0000 C   0  0  2  0  0  0  0  0  0  0  0  0
    6.3258   -5.1021    0.0000 C   0  0  1  0  0  0  0  0  0  0  0  0
    6.3258   -5.9271    0.0000 C   0  0  1  0  0  0  0  0  0  0  0  0
    7.0403  -11.2896    0.0000 O   0  0  0  0  0  0  0  0  0  0  0  0
    7.0403  -12.1146    0.0000 C   0  0  1  0  0  0  0  0  0  0  0  0
    7.7547  -12.5271    0.0000 C   0  0  2  0  0  0  0  0  0  0  0  0
    8.4692  -12.1146    0.0000 C   0  0  1  0  0  0  0  0  0  0  0  0
    8.4692  -11.2896    0.0000 C   0  0  1  0  0  0  0  0  0  0  0  0
    6.3258  -12.5271    0.0000 C   0  0  0  0  0  0  0  0  0  0  0  0
    9.1837  -12.5271    0.0000 O   0  0  0  0  0  0  0  0  0  0  0  0
    9.1837  -10.8771    0.0000 O   0  0  0  0  0  0  0  0  0  0  0  0
    7.7547  -13.3521    0.0000 O   0  0  0  0  0  0  0  0  0  0  0  0
    6.3258  -13.3521    0.0000 O   0  0  0  0  0  0  0  0  0  0  0  0
    8.4692   -4.6896    0.0000 C   0  0  0  0  0  0  0  0  0  0  0  0
    5.6113   -4.6896    0.0000 O   0  0  0  0  0  0  0  0  0  0  0  0
    7.0403   -3.8646    0.0000 O   0  0  0  0  0  0  0  0  0  0  0  0
    5.6113   -6.3396    0.0000 O   0  0  0  0  0  0  0  0  0  0  0  0
    8.4692   -3.8646    0.0000 O   0  0  0  0  0  0  0  0  0  0  0  0
  2  1  1  1  0  0  0
  2  3  1  0  0  0  0
  3  4  1  1  0  0  0
  1  5  1  0  0  0  0
  4  6  1  0  0  0  0
  8  9  1  0  0  0  0
  9 10  2  0  0  0  0
 10 11  1  0  0  0  0
 11 12  2  0  0  0  0
 12 13  1  0  0  0  0
  8 13  2  0  0  0  0
 14 15  1  0  0  0  0
 10 14  1  0  0  0  0
 11 16  1  0  0  0  0
  7  8  1  0  0  0  0
  3  7  1  0  0  0  0
 18 19  1  0  0  0  0
 19 20  2  0  0  0  0
 20 21  1  0  0  0  0
 21 22  2  0  0  0  0
 22 23  1  0  0  0  0
 18 23  2  0  0  0  0
 24 25  1  0  0  0  0
 20 24  1  0  0  0  0
 21 26  1  0  0  0  0
 17 18  1  0  0  0  0
  2 17  1  0  0  0  0
 27  5  1  1  0  0  0
 28  6  1  1  0  0  0
 28 29  1  0  0  0  0
 29 30  1  0  0  0  0
 30 31  1  0  0  0  0
 31 32  1  0  0  0  0
 32 33  1  0  0  0  0
 33 28  1  0  0  0  0
 27 34  1  0  0  0  0
 34 35  1  0  0  0  0
 35 36  1  0  0  0  0
 36 37  1  0  0  0  0
 37 38  1  0  0  0  0
 38 27  1  0  0  0  0
 35 39  1  1  0  0  0
 37 40  1  1  0  0  0
 38 41  1  6  0  0  0
 36 42  1  6  0  0  0
 39 43  1  0  0  0  0
 30 44  1  1  0  0  0
 32 45  1  1  0  0  0
 31 46  1  6  0  0  0
 33 47  1  6  0  0  0
 44 48  1  0  0  0  0
M  END
>  <cdx:fragmentId>
19

$$$$
