90979.cdx
  Mrv1902 05222410282D          

 27 28  0  0  0  0            999 V2000
    2.9406   -7.5889    0.0000 C   0  0  0  0  0  0  0  0  0  0  0  0
    2.9406   -8.4139    0.0000 C   0  0  0  0  0  0  0  0  0  0  0  0
    3.6550   -8.8264    0.0000 C   0  0  0  0  0  0  0  0  0  0  0  0
    4.3695   -8.4139    0.0000 C   0  0  0  0  0  0  0  0  0  0  0  0
    4.3695   -7.5889    0.0000 C   0  0  0  0  0  0  0  0  0  0  0  0
    3.6550   -7.1764    0.0000 C   0  0  0  0  0  0  0  0  0  0  0  0
    5.0840   -8.8264    0.0000 N   0  0  0  0  0  0  0  0  0  0  0  0
    5.7984   -8.4139    0.0000 C   0  0  0  0  0  0  0  0  0  0  0  0
    5.7984   -7.5889    0.0000 C   0  0  0  0  0  0  0  0  0  0  0  0
    5.0840   -7.1764    0.0000 C   0  0  0  0  0  0  0  0  0  0  0  0
    5.0840   -6.3514    0.0000 O   0  0  0  0  0  0  0  0  0  0  0  0
    5.0840   -9.6514    0.0000 C   0  0  0  0  0  0  0  0  0  0  0  0
    6.5129   -8.8264    0.0000 C   0  0  0  0  0  0  0  0  0  0  0  0
    7.2274   -8.4139    0.0000 C   0  0  0  0  0  0  0  0  0  0  0  0
    7.9419   -8.8264    0.0000 C   0  0  0  0  0  0  0  0  0  0  0  0
    8.6563   -8.4139    0.0000 C   0  0  0  0  0  0  0  0  0  0  0  0
    9.3708   -8.8264    0.0000 C   0  0  0  0  0  0  0  0  0  0  0  0
   10.0853   -8.4139    0.0000 C   0  0  0  0  0  0  0  0  0  0  0  0
   10.7997   -8.8264    0.0000 C   0  0  0  0  0  0  0  0  0  0  0  0
   10.7997   -9.6514    0.0000 C   0  0  0  0  0  0  0  0  0  0  0  0
   11.5142  -10.0639    0.0000 C   0  0  0  0  0  0  0  0  0  0  0  0
   11.5142  -10.8889    0.0000 C   0  0  0  0  0  0  0  0  0  0  0  0
   10.7997  -11.3014    0.0000 C   0  0  0  0  0  0  0  0  0  0  0  0
   10.7997  -12.1264    0.0000 C   0  0  0  0  0  0  0  0  0  0  0  0
   10.0853  -12.5389    0.0000 C   0  0  0  0  0  0  0  0  0  0  0  0
   10.0853  -13.3639    0.0000 C   0  0  0  0  0  0  0  0  0  0  0  0
    9.3708  -13.7764    0.0000 C   0  0  0  0  0  0  0  0  0  0  0  0
  1  2  2  0  0  0  0
  2  3  1  0  0  0  0
  3  4  2  0  0  0  0
  4  5  1  0  0  0  0
  5  6  2  0  0  0  0
  6  1  1  0  0  0  0
  4  7  1  0  0  0  0
  7  8  1  0  0  0  0
  8  9  2  0  0  0  0
  9 10  1  0  0  0  0
 10  5  1  0  0  0  0
 10 11  2  0  0  0  0
  7 12  1  0  0  0  0
  8 13  1  0  0  0  0
 13 14  1  0  0  0  0
 14 15  1  0  0  0  0
 15 16  1  0  0  0  0
 16 17  1  0  0  0  0
 17 18  1  0  0  0  0
 18 19  2  0  0  0  0
 19 20  1  0  0  0  0
 20 21  1  0  0  0  0
 21 22  2  0  0  0  0
 22 23  1  0  0  0  0
 23 24  1  0  0  0  0
 24 25  2  0  0  0  0
 25 26  1  0  0  0  0
 26 27  1  0  0  0  0
M  END
>  <cdx:fragmentId>
5

$$$$
