90971.cdx
  Mrv1902 05222410202D          

 16 18  0  0  0  0            999 V2000
    4.2531   -3.6919    0.0000 C   0  0  0  0  0  0  0  0  0  0  0  0
    4.9676   -3.2794    0.0000 C   0  0  0  0  0  0  0  0  0  0  0  0
    5.6821   -3.6919    0.0000 C   0  0  0  0  0  0  0  0  0  0  0  0
    5.6821   -4.5169    0.0000 C   0  0  0  0  0  0  0  0  0  0  0  0
    4.9676   -4.9294    0.0000 C   0  0  0  0  0  0  0  0  0  0  0  0
    4.2531   -4.5169    0.0000 C   0  0  0  0  0  0  0  0  0  0  0  0
    3.5387   -4.9294    0.0000 C   0  0  0  0  0  0  0  0  0  0  0  0
    2.8242   -4.5169    0.0000 C   0  0  0  0  0  0  0  0  0  0  0  0
    2.8242   -3.6919    0.0000 C   0  0  0  0  0  0  0  0  0  0  0  0
    3.5387   -3.2794    0.0000 C   0  0  0  0  0  0  0  0  0  0  0  0
    3.3705   -3.8139    0.0000 C   0  0  0  0  0  0  0  0  0  0  0  0
    6.3966   -4.9294    0.0000 O   0  0  0  0  0  0  0  0  0  0  0  0
    3.9512   -5.6438    0.0000 C   0  0  0  0  0  0  0  0  0  0  0  0
    3.1262   -5.6438    0.0000 C   0  0  0  0  0  0  0  0  0  0  0  0
    4.5551   -2.5649    0.0000 C   0  0  0  0  0  0  0  0  0  0  0  0
    5.3801   -2.5649    0.0000 C   0  0  0  0  0  0  0  0  0  0  0  0
  1  2  1  0  0  0  0
  2  3  1  0  0  0  0
  3  4  1  0  0  0  0
  4  5  1  0  0  0  0
  5  6  2  0  0  0  0
  6  7  1  0  0  0  0
  7  8  1  0  0  0  0
  8  9  1  0  0  0  0
  9 10  1  0  0  0  0
  1 10  1  0  0  0  0
  1 11  1  0  0  0  0
 11  8  1  0  0  0  0
  1  6  1  0  0  0  0
  4 12  2  0  0  0  0
  7 13  1  0  0  0  0
  7 14  1  0  0  0  0
  2 15  1  0  0  0  0
  2 16  1  0  0  0  0
M  END
>  <cdx:groupId>
52

>  <cdx:fragmentId>
5

$$$$
