90970.cdx
  Mrv1902 05222410202D          

 21 21  0  0  0  0            999 V2000
    5.0581   -6.8326    0.0000 C   0  0  0  0  0  0  0  0  0  0  0  0
    5.0581   -7.6576    0.0000 C   0  0  0  0  0  0  0  0  0  0  0  0
    5.7725   -8.0701    0.0000 C   0  0  0  0  0  0  0  0  0  0  0  0
    6.4870   -7.6576    0.0000 C   0  0  0  0  0  0  0  0  0  0  0  0
    6.4870   -6.8326    0.0000 C   0  0  0  0  0  0  0  0  0  0  0  0
    5.7725   -6.4201    0.0000 C   0  0  0  0  0  0  0  0  0  0  0  0
    4.3436   -6.4201    0.0000 O   0  0  0  0  0  0  0  0  0  0  0  0
    4.3436   -5.5951    0.0000 C   0  0  0  0  0  0  0  0  0  0  0  0
    4.3436   -8.0701    0.0000 O   0  0  0  0  0  0  0  0  0  0  0  0
    3.6291   -7.6576    0.0000 C   0  0  0  0  0  0  0  0  0  0  0  0
    7.2015   -8.0701    0.0000 O   0  0  0  0  0  0  0  0  0  0  0  0
    7.2015   -8.8951    0.0000 C   0  0  0  0  0  0  0  0  0  0  0  0
    7.2015   -6.4201    0.0000 C   0  0  0  0  0  0  0  0  0  0  0  0
    7.9159   -6.8326    0.0000 C   0  0  0  0  0  0  0  0  0  0  0  0
    7.2015   -5.5951    0.0000 O   0  0  0  0  0  0  0  0  0  0  0  0
    8.6304   -6.4201    0.0000 O   0  0  0  0  0  0  0  0  0  0  0  0
    7.9159   -7.6576    0.0000 C   0  0  0  0  0  0  0  0  0  0  0  0
    9.3449   -6.8326    0.0000 C   0  0  0  0  0  0  0  0  0  0  0  0
   10.0594   -6.4201    0.0000 C   0  0  0  0  0  0  0  0  0  0  0  0
   10.7738   -6.8326    0.0000 C   0  0  0  0  0  0  0  0  0  0  0  0
   11.4883   -6.4201    0.0000 C   0  0  0  0  0  0  0  0  0  0  0  0
  1  2  2  0  0  0  0
  2  3  1  0  0  0  0
  3  4  2  0  0  0  0
  4  5  1  0  0  0  0
  5  6  2  0  0  0  0
  6  1  1  0  0  0  0
  1  7  1  0  0  0  0
  7  8  1  0  0  0  0
  2  9  1  0  0  0  0
  9 10  1  0  0  0  0
  4 11  1  0  0  0  0
 11 12  1  0  0  0  0
  5 13  1  0  0  0  0
 13 14  1  0  0  0  0
 13 15  1  0  0  0  0
 14 16  1  0  0  0  0
 14 17  1  0  0  0  0
 16 18  1  0  0  0  0
 18 19  1  0  0  0  0
 19 20  1  0  0  0  0
 20 21  1  0  0  0  0
M  END
>  <cdx:fragmentId>
5

$$$$
