90977.cdx
  Mrv1902 05222410192D          

 23 23  0  0  0  0            999 V2000
    1.6642  -11.0101    0.0000 C   0  0  0  0  0  0  0  0  0  0  0  0
    2.3768  -10.5944    0.0000 C   0  0  0  0  0  0  0  0  0  0  0  0
    2.3731   -9.7694    0.0000 N   0  0  0  0  0  0  0  0  0  0  0  0
    1.6568   -9.3601    0.0000 C   0  0  0  0  0  0  0  0  0  0  0  0
    0.9442   -9.7757    0.0000 C   0  0  0  0  0  0  0  0  0  0  0  0
    0.9479  -10.6007    0.0000 C   0  0  0  0  0  0  0  0  0  0  0  0
    3.0756   -9.3626    0.0000 C   0  0  0  0  0  0  0  0  0  0  0  0
    3.7929   -9.7702    0.0000 C   0  0  0  0  0  0  0  0  0  0  0  0
    4.5045   -9.3528    0.0000 C   0  0  0  0  0  0  0  0  0  0  0  0
    5.2218   -9.7604    0.0000 C   0  0  0  0  0  0  0  0  0  0  0  0
    5.9334   -9.3430    0.0000 C   0  0  0  0  0  0  0  0  0  0  0  0
    6.6507   -9.7506    0.0000 C   0  0  0  0  0  0  0  0  0  0  0  0
    7.3623   -9.3333    0.0000 C   0  0  0  0  0  0  0  0  0  0  0  0
    8.0796   -9.7409    0.0000 C   0  0  0  0  0  0  0  0  0  0  0  0
    8.7912   -9.3235    0.0000 C   0  0  0  0  0  0  0  0  0  0  0  0
    9.5085   -9.7311    0.0000 C   0  0  0  0  0  0  0  0  0  0  0  0
   10.2201   -9.3137    0.0000 C   0  0  0  0  0  0  0  0  0  0  0  0
   10.9374   -9.7213    0.0000 C   0  0  0  0  0  0  0  0  0  0  0  0
   11.6490   -9.3039    0.0000 C   0  0  0  0  0  0  0  0  0  0  0  0
   12.3663   -9.7115    0.0000 C   0  0  0  0  0  0  0  0  0  0  0  0
   13.0780   -9.2941    0.0000 C   0  0  0  0  0  0  0  0  0  0  0  0
   13.7952   -9.7017    0.0000 C   0  0  0  0  0  0  0  0  0  0  0  0
    3.0699   -8.5376    0.0000 O   0  0  0  0  0  0  0  0  0  0  0  0
  1  2  1  0  0  0  0
  2  3  1  0  0  0  0
  3  4  1  0  0  0  0
  4  5  1  0  0  0  0
  5  6  1  0  0  0  0
  6  1  1  0  0  0  0
  7  8  1  0  0  0  0
  8  9  2  0  0  0  0
  9 10  1  0  0  0  0
 10 11  2  0  0  0  0
 11 12  1  0  0  0  0
 12 13  1  0  0  0  0
 13 14  1  0  0  0  0
 14 15  1  0  0  0  0
 15 16  1  0  0  0  0
 16 17  1  0  0  0  0
 17 18  1  0  0  0  0
 18 19  1  0  0  0  0
 19 20  1  0  0  0  0
 20 21  1  0  0  0  0
 21 22  1  0  0  0  0
  7 23  2  0  0  0  0
  7  3  1  0  0  0  0
M  END
>  <cdx:fragmentId>
21

$$$$
