90978.cdx
  Mrv1902 05222410282D          

 13 14  0  0  0  0            999 V2000
    4.4531   -8.6751    0.0000 C   0  0  0  0  0  0  0  0  0  0  0  0
    4.4531   -9.5001    0.0000 C   0  0  0  0  0  0  0  0  0  0  0  0
    5.1675   -9.9126    0.0000 C   0  0  0  0  0  0  0  0  0  0  0  0
    5.8820   -9.5001    0.0000 C   0  0  0  0  0  0  0  0  0  0  0  0
    5.8820   -8.6751    0.0000 C   0  0  0  0  0  0  0  0  0  0  0  0
    5.1675   -8.2626    0.0000 C   0  0  0  0  0  0  0  0  0  0  0  0
    6.6666   -9.7551    0.0000 N   0  0  0  0  0  0  0  0  0  0  0  0
    7.1515   -9.0876    0.0000 C   0  0  0  0  0  0  0  0  0  0  0  0
    6.6666   -8.4202    0.0000 C   0  0  0  0  0  0  0  0  0  0  0  0
    6.9216   -7.6356    0.0000 C   0  0  0  0  0  0  0  0  0  0  0  0
    7.7285   -7.4641    0.0000 O   0  0  0  0  0  0  0  0  0  0  0  0
    6.9216  -10.5397    0.0000 O   0  0  0  0  0  0  0  0  0  0  0  0
    7.7184  -10.7532    0.0000 C   0  0  0  0  0  0  0  0  0  0  0  0
  1  2  2  0  0  0  0
  2  3  1  0  0  0  0
  3  4  2  0  0  0  0
  4  5  1  0  0  0  0
  5  6  2  0  0  0  0
  6  1  1  0  0  0  0
  4  7  1  0  0  0  0
  7  8  1  0  0  0  0
  8  9  2  0  0  0  0
  9  5  1  0  0  0  0
  9 10  1  0  0  0  0
 10 11  2  0  0  0  0
  7 12  1  0  0  0  0
 12 13  1  0  0  0  0
M  END
>  <cdx:fragmentId>
5

$$$$
