90973.cdx
  Mrv1902 05222410192D          

 29 30  0  0  0  0            999 V2000
    4.2331   -8.9364    0.0000 C   0  0  0  0  0  0  0  0  0  0  0  0
    4.2331   -9.7614    0.0000 C   0  0  0  0  0  0  0  0  0  0  0  0
    4.9475  -10.1739    0.0000 C   0  0  0  0  0  0  0  0  0  0  0  0
    5.6620   -9.7614    0.0000 C   0  0  0  0  0  0  0  0  0  0  0  0
    5.6620   -8.9364    0.0000 C   0  0  0  0  0  0  0  0  0  0  0  0
    4.9475   -8.5239    0.0000 C   0  0  0  0  0  0  0  0  0  0  0  0
    6.3765  -10.1739    0.0000 C   0  0  0  0  0  0  0  0  0  0  0  0
    7.0909   -9.7614    0.0000 C   0  0  0  0  0  0  0  0  0  0  0  0
    7.0909   -8.9364    0.0000 C   0  0  0  0  0  0  0  0  0  0  0  0
    6.3765   -8.5239    0.0000 C   0  0  0  0  0  0  0  0  0  0  0  0
    6.3765   -7.6989    0.0000 O   0  0  0  0  0  0  0  0  0  0  0  0
    4.9475   -7.6989    0.0000 O   0  0  0  0  0  0  0  0  0  0  0  0
    4.9475  -10.9989    0.0000 O   0  0  0  0  0  0  0  0  0  0  0  0
    6.3765  -10.9989    0.0000 O   0  0  0  0  0  0  0  0  0  0  0  0
    8.5199   -8.9364    0.0000 C   0  0  0  0  0  0  0  0  0  0  0  0
    7.8054   -8.5239    0.0000 C   0  0  0  0  0  0  0  0  0  0  0  0
    9.9488   -9.7614    0.0000 C   0  0  0  0  0  0  0  0  0  0  0  0
    9.9488   -8.9364    0.0000 C   0  0  0  0  0  0  0  0  0  0  0  0
    9.2344   -8.5239    0.0000 C   0  0  0  0  0  0  0  0  0  0  0  0
    7.8054   -7.6989    0.0000 O   0  0  0  0  0  0  0  0  0  0  0  0
   10.6633   -8.5239    0.0000 C   0  0  0  0  0  0  0  0  0  0  0  0
   10.6633   -9.3489    0.0000 O   0  0  0  0  0  0  0  0  0  0  0  0
    7.0909  -11.4114    0.0000 C   0  0  0  0  0  0  0  0  0  0  0  0
    8.5199   -7.2864    0.0000 C   0  0  0  0  0  0  0  0  0  0  0  0
    8.5199   -6.4614    0.0000 O   0  0  0  0  0  0  0  0  0  0  0  0
    9.2344   -7.6989    0.0000 C   0  0  0  0  0  0  0  0  0  0  0  0
    9.9488   -7.2864    0.0000 C   0  0  0  0  0  0  0  0  0  0  0  0
    9.9488   -6.4614    0.0000 C   0  0  0  0  0  0  0  0  0  0  0  0
   10.6633   -7.6989    0.0000 C   0  0  0  0  0  0  0  0  0  0  0  0
  1  2  2  0  0  0  0
  2  3  1  0  0  0  0
  3  4  1  0  0  0  0
  4  5  2  0  0  0  0
  5  6  1  0  0  0  0
  6  1  1  0  0  0  0
  4  7  1  0  0  0  0
  7  8  2  0  0  0  0
  8  9  1  0  0  0  0
  9 10  2  0  0  0  0
 10  5  1  0  0  0  0
 10 11  1  0  0  0  0
 12  6  2  0  0  0  0
  3 13  2  0  0  0  0
 14  7  1  0  0  0  0
 15 16  1  0  0  0  0
 16  9  1  0  0  0  0
 17 18  1  0  0  0  0
 18 19  1  0  0  0  0
 19 15  2  0  0  0  0
 16 20  1  0  0  0  0
 18 21  1  0  0  0  0
 18 22  1  0  0  0  0
 14 23  1  0  0  0  0
 20 24  1  0  0  0  0
 24 25  2  0  0  0  0
 24 26  1  0  0  0  0
 26 27  2  0  0  0  0
 27 28  1  0  0  0  0
 27 29  1  0  0  0  0
M  END
>  <cdx:fragmentId>
5

$$$$
