90985.cdx
  Mrv1902 05222410272D          

 26 27  0  0  0  0            999 V2000
    0.6581   -8.9914    0.0000 C   0  0  0  0  0  0  0  0  0  0  0  0
    0.6581   -9.8164    0.0000 C   0  0  0  0  0  0  0  0  0  0  0  0
    1.3725  -10.2289    0.0000 C   0  0  0  0  0  0  0  0  0  0  0  0
    2.0870   -9.8164    0.0000 C   0  0  0  0  0  0  0  0  0  0  0  0
    2.0870   -8.9914    0.0000 C   0  0  0  0  0  0  0  0  0  0  0  0
    1.3725   -8.5789    0.0000 C   0  0  0  0  0  0  0  0  0  0  0  0
    2.8015  -10.2289    0.0000 N   0  0  0  0  0  0  0  0  0  0  0  0
    3.5159   -9.8164    0.0000 C   0  0  0  0  0  0  0  0  0  0  0  0
    3.5159   -8.9914    0.0000 C   0  0  0  0  0  0  0  0  0  0  0  0
    2.8015   -8.5789    0.0000 C   0  0  0  0  0  0  0  0  0  0  0  0
    2.8015   -7.7539    0.0000 O   0  0  0  0  0  0  0  0  0  0  0  0
    2.8015  -11.0539    0.0000 C   0  0  0  0  0  0  0  0  0  0  0  0
    4.2304  -10.2289    0.0000 C   0  0  0  0  0  0  0  0  0  0  0  0
    4.9449   -9.8164    0.0000 C   0  0  0  0  0  0  0  0  0  0  0  0
    5.6594  -10.2289    0.0000 C   0  0  0  0  0  0  0  0  0  0  0  0
    6.3738   -9.8164    0.0000 C   0  0  0  0  0  0  0  0  0  0  0  0
    7.0883  -10.2289    0.0000 C   0  0  0  0  0  0  0  0  0  0  0  0
    7.8028   -9.8164    0.0000 C   0  0  0  0  0  0  0  0  0  0  0  0
    8.5172  -10.2289    0.0000 C   0  0  0  0  0  0  0  0  0  0  0  0
    9.2317   -9.8164    0.0000 C   0  0  0  0  0  0  0  0  0  0  0  0
    9.9462  -10.2289    0.0000 C   0  0  0  0  0  0  0  0  0  0  0  0
   10.6606   -9.8164    0.0000 C   0  0  0  0  0  0  0  0  0  0  0  0
   11.3751  -10.2289    0.0000 C   0  0  0  0  0  0  0  0  0  0  0  0
   12.0896   -9.8164    0.0000 C   0  0  0  0  0  0  0  0  0  0  0  0
   12.8041  -10.2289    0.0000 C   0  0  0  0  0  0  0  0  0  0  0  0
   13.5185   -9.8164    0.0000 C   0  0  0  0  0  0  0  0  0  0  0  0
  1  2  2  0  0  0  0
  2  3  1  0  0  0  0
  3  4  2  0  0  0  0
  4  5  1  0  0  0  0
  5  6  2  0  0  0  0
  6  1  1  0  0  0  0
  4  7  1  0  0  0  0
  7  8  1  0  0  0  0
  8  9  2  0  0  0  0
  9 10  1  0  0  0  0
 10  5  1  0  0  0  0
 10 11  2  0  0  0  0
  7 12  1  0  0  0  0
  8 13  1  0  0  0  0
 13 14  1  0  0  0  0
 14 15  1  0  0  0  0
 15 16  1  0  0  0  0
 16 17  1  0  0  0  0
 17 18  1  0  0  0  0
 18 19  1  0  0  0  0
 19 20  1  0  0  0  0
 20 21  1  0  0  0  0
 21 22  1  0  0  0  0
 22 23  1  0  0  0  0
 23 24  1  0  0  0  0
 24 25  1  0  0  0  0
 25 26  2  0  0  0  0
M  END
>  <cdx:fragmentId>
83

$$$$
