90981.cdx
  Mrv1902 05222410272D          

 23 24  0  0  0  0            999 V2000
    1.7031   -7.3414    0.0000 C   0  0  0  0  0  0  0  0  0  0  0  0
    1.7031   -8.1664    0.0000 C   0  0  0  0  0  0  0  0  0  0  0  0
    2.4175   -8.5789    0.0000 C   0  0  0  0  0  0  0  0  0  0  0  0
    3.1320   -8.1664    0.0000 C   0  0  0  0  0  0  0  0  0  0  0  0
    3.1320   -7.3414    0.0000 C   0  0  0  0  0  0  0  0  0  0  0  0
    2.4175   -6.9289    0.0000 C   0  0  0  0  0  0  0  0  0  0  0  0
    3.8465   -8.5789    0.0000 N   0  0  0  0  0  0  0  0  0  0  0  0
    4.5609   -8.1664    0.0000 C   0  0  0  0  0  0  0  0  0  0  0  0
    4.5609   -7.3414    0.0000 C   0  0  0  0  0  0  0  0  0  0  0  0
    3.8465   -6.9289    0.0000 C   0  0  0  0  0  0  0  0  0  0  0  0
    3.8465   -6.1039    0.0000 O   0  0  0  0  0  0  0  0  0  0  0  0
    3.8465   -9.4039    0.0000 C   0  0  0  0  0  0  0  0  0  0  0  0
    5.2754   -8.5789    0.0000 C   0  0  0  0  0  0  0  0  0  0  0  0
    5.9899   -8.1664    0.0000 C   0  0  0  0  0  0  0  0  0  0  0  0
    6.7044   -8.5789    0.0000 C   0  0  0  0  0  0  0  0  0  0  0  0
    7.4188   -8.1664    0.0000 C   0  0  0  0  0  0  0  0  0  0  0  0
    8.1333   -8.5789    0.0000 C   0  0  0  0  0  0  0  0  0  0  0  0
    8.8478   -8.1664    0.0000 C   0  0  0  0  0  0  0  0  0  0  0  0
    9.5622   -8.5789    0.0000 C   0  0  0  0  0  0  0  0  0  0  0  0
   10.2767   -8.1664    0.0000 C   0  0  0  0  0  0  0  0  0  0  0  0
   10.9912   -8.5789    0.0000 C   0  0  0  0  0  0  0  0  0  0  0  0
   11.7056   -8.1664    0.0000 C   0  0  0  0  0  0  0  0  0  0  0  0
   12.4201   -8.5789    0.0000 C   0  0  0  0  0  0  0  0  0  0  0  0
  1  2  2  0  0  0  0
  2  3  1  0  0  0  0
  3  4  2  0  0  0  0
  4  5  1  0  0  0  0
  5  6  2  0  0  0  0
  6  1  1  0  0  0  0
  4  7  1  0  0  0  0
  7  8  1  0  0  0  0
  8  9  2  0  0  0  0
  9 10  1  0  0  0  0
 10  5  1  0  0  0  0
 10 11  2  0  0  0  0
  7 12  1  0  0  0  0
  8 13  1  0  0  0  0
 13 14  2  0  0  0  0
 14 15  1  0  0  0  0
 15 16  1  0  0  0  0
 16 17  1  0  0  0  0
 17 18  1  0  0  0  0
 18 19  1  0  0  0  0
 19 20  1  0  0  0  0
 20 21  1  0  0  0  0
 21 22  1  0  0  0  0
 22 23  1  0  0  0  0
M  END
>  <cdx:fragmentId>
83

$$$$
