90982.cdx
  Mrv1902 05222410262D          

 21 22  0  0  0  0            999 V2000
    3.2706   -8.0014    0.0000 C   0  0  0  0  0  0  0  0  0  0  0  0
    3.2706   -8.8264    0.0000 C   0  0  0  0  0  0  0  0  0  0  0  0
    3.9850   -9.2389    0.0000 C   0  0  0  0  0  0  0  0  0  0  0  0
    4.6995   -8.8264    0.0000 C   0  0  0  0  0  0  0  0  0  0  0  0
    4.6995   -8.0014    0.0000 C   0  0  0  0  0  0  0  0  0  0  0  0
    3.9850   -7.5889    0.0000 C   0  0  0  0  0  0  0  0  0  0  0  0
    5.4140   -9.2389    0.0000 N   0  0  0  0  0  0  0  0  0  0  0  0
    6.1284   -8.8264    0.0000 C   0  0  0  0  0  0  0  0  0  0  0  0
    6.1284   -8.0014    0.0000 C   0  0  0  0  0  0  0  0  0  0  0  0
    5.4140   -7.5889    0.0000 C   0  0  0  0  0  0  0  0  0  0  0  0
    5.4140   -6.7639    0.0000 O   0  0  0  0  0  0  0  0  0  0  0  0
    5.4140  -10.0639    0.0000 C   0  0  0  0  0  0  0  0  0  0  0  0
    6.8429   -9.2389    0.0000 C   0  0  0  0  0  0  0  0  0  0  0  0
    7.5574   -8.8264    0.0000 C   0  0  0  0  0  0  0  0  0  0  0  0
    8.2719   -9.2389    0.0000 C   0  0  0  0  0  0  0  0  0  0  0  0
    8.9863   -8.8264    0.0000 C   0  0  0  0  0  0  0  0  0  0  0  0
    9.7008   -9.2389    0.0000 C   0  0  0  0  0  0  0  0  0  0  0  0
    9.7008  -10.0639    0.0000 C   0  0  0  0  0  0  0  0  0  0  0  0
   10.4153  -10.4764    0.0000 C   0  0  0  0  0  0  0  0  0  0  0  0
   10.4153  -11.3014    0.0000 C   0  0  0  0  0  0  0  0  0  0  0  0
   11.1297  -11.7139    0.0000 C   0  0  0  0  0  0  0  0  0  0  0  0
  1  2  2  0  0  0  0
  2  3  1  0  0  0  0
  3  4  2  0  0  0  0
  4  5  1  0  0  0  0
  5  6  2  0  0  0  0
  6  1  1  0  0  0  0
  4  7  1  0  0  0  0
  7  8  1  0  0  0  0
  8  9  2  0  0  0  0
  9 10  1  0  0  0  0
 10  5  1  0  0  0  0
 10 11  2  0  0  0  0
  7 12  1  0  0  0  0
  8 13  1  0  0  0  0
 13 14  1  0  0  0  0
 14 15  1  0  0  0  0
 15 16  1  0  0  0  0
 16 17  2  0  0  0  0
 17 18  1  0  0  0  0
 18 19  1  0  0  0  0
 19 20  1  0  0  0  0
 20 21  1  0  0  0  0
M  END
>  <cdx:fragmentId>
83

$$$$
