90987.cdx
  Mrv1902 05222410282D          

 40 44  0  0  0  0            999 V2000
    9.6373   -5.8839    0.0000 O   0  0  0  0  0  0  0  0  0  0  0  0
    9.6361   -6.7089    0.0000 C   0  0  2  0  0  0  0  0  0  0  0  0
    8.9210   -7.1203    0.0000 O   0  0  0  0  0  0  0  0  0  0  0  0
    8.9198   -7.9453    0.0000 C   0  0  1  0  0  0  0  0  0  0  0  0
    9.6337   -8.3589    0.0000 C   0  0  2  0  0  0  0  0  0  0  0  0
   10.3488   -7.9474    0.0000 C   0  0  1  0  0  0  0  0  0  0  0  0
   10.3500   -7.1225    0.0000 C   0  0  1  0  0  0  0  0  0  0  0  0
   11.0626   -8.3610    0.0000 O   0  0  0  0  0  0  0  0  0  0  0  0
   11.0651   -6.7110    0.0000 O   0  0  0  0  0  0  0  0  0  0  0  0
    9.6325   -9.1839    0.0000 O   0  0  0  0  0  0  0  0  0  0  0  0
    4.6342   -7.1140    0.0000 C   0  0  0  0  0  0  0  0  0  0  0  0
    3.9204   -6.7005    0.0000 C   0  0  0  0  0  0  0  0  0  0  0  0
    3.2053   -7.1119    0.0000 C   0  0  0  0  0  0  0  0  0  0  0  0
    3.2041   -7.9369    0.0000 C   0  0  0  0  0  0  0  0  0  0  0  0
    3.9179   -8.3505    0.0000 C   0  0  0  0  0  0  0  0  0  0  0  0
    4.6330   -7.9390    0.0000 C   0  0  0  0  0  0  0  0  0  0  0  0
    5.3469   -8.3526    0.0000 C   0  0  0  0  0  0  0  0  0  0  0  0
    6.7746   -9.1797    0.0000 O   0  0  0  0  0  0  0  0  0  0  0  0
    6.0619   -7.9411    0.0000 C   0  0  0  0  0  0  0  0  0  0  0  0
    6.7758   -8.3547    0.0000 C   0  0  0  0  0  0  0  0  0  0  0  0
    7.4909   -7.9432    0.0000 O   0  0  0  0  0  0  0  0  0  0  0  0
    8.2047   -8.3568    0.0000 C   0  0  0  0  0  0  0  0  0  0  0  0
    6.7794   -6.7089    0.0000 O   0  0  0  0  0  0  0  0  0  0  0  0
    5.3505   -3.4089    0.0000 O   0  0  0  0  0  0  0  0  0  0  0  0
    8.2084   -3.4089    0.0000 C   0  0  0  0  0  0  0  0  0  0  0  0
    6.7794   -3.4089    0.0000 O   0  0  0  0  0  0  0  0  0  0  0  0
    5.3505   -4.2339    0.0000 C   0  0  0  0  0  0  0  0  0  0  0  0
    4.6360   -4.6464    0.0000 C   0  0  0  0  0  0  0  0  0  0  0  0
    4.6360   -5.4714    0.0000 C   0  0  0  0  0  0  0  0  0  0  0  0
    5.3505   -5.8839    0.0000 C   0  0  0  0  0  0  0  0  0  0  0  0
    6.7794   -4.2339    0.0000 C   0  0  0  0  0  0  0  0  0  0  0  0
    6.0650   -4.6464    0.0000 C   0  0  0  0  0  0  0  0  0  0  0  0
    6.0650   -5.4714    0.0000 C   0  0  0  0  0  0  0  0  0  0  0  0
    6.7794   -5.8839    0.0000 C   0  0  0  0  0  0  0  0  0  0  0  0
    8.2084   -4.2339    0.0000 C   0  0  0  0  0  0  0  0  0  0  0  0
    7.4939   -4.6464    0.0000 C   0  0  0  0  0  0  0  0  0  0  0  0
    7.4939   -5.4714    0.0000 C   0  0  0  0  0  0  0  0  0  0  0  0
    8.2084   -5.8839    0.0000 C   0  0  0  0  0  0  0  0  0  0  0  0
    8.9229   -5.4714    0.0000 C   0  0  0  0  0  0  0  0  0  0  0  0
    8.9229   -4.6464    0.0000 C   0  0  0  0  0  0  0  0  0  0  0  0
  2  1  1  1  0  0  0
  2  3  1  0  0  0  0
  3  4  1  0  0  0  0
  4  5  1  0  0  0  0
  5  6  1  0  0  0  0
  6  7  1  0  0  0  0
  7  2  1  0  0  0  0
 11 16  1  0  0  0  0
  4 22  1  1  0  0  0
  6  8  1  1  0  0  0
  7  9  1  6  0  0  0
  5 10  1  6  0  0  0
 12 11  2  0  0  0  0
 13 12  1  0  0  0  0
 14 13  2  0  0  0  0
 15 14  1  0  0  0  0
 16 15  2  0  0  0  0
 17 16  1  0  0  0  0
 19 17  2  0  0  0  0
 20 18  2  0  0  0  0
 20 19  1  0  0  0  0
 21 20  1  0  0  0  0
 22 21  1  0  0  0  0
 39  1  1  0  0  0  0
 34 23  2  0  0  0  0
 27 24  1  0  0  0  0
 25 35  1  0  0  0  0
 31 26  2  0  0  0  0
 27 32  1  0  0  0  0
 28 27  2  0  0  0  0
 29 28  1  0  0  0  0
 30 29  2  0  0  0  0
 33 30  1  0  0  0  0
 31 36  1  0  0  0  0
 32 31  1  0  0  0  0
 33 32  2  0  0  0  0
 34 33  1  0  0  0  0
 37 34  1  0  0  0  0
 35 40  1  0  0  0  0
 36 35  2  0  0  0  0
 37 36  1  0  0  0  0
 38 37  2  0  0  0  0
 39 38  1  0  0  0  0
 40 39  2  0  0  0  0
M  END
>  <cdx:fragmentId>
5

$$$$
