90980.cdx
  Mrv1902 05222410262D          

 27 28  0  0  0  0            999 V2000
    0.2456   -9.2114    0.0000 C   0  0  0  0  0  0  0  0  0  0  0  0
    0.2456  -10.0364    0.0000 C   0  0  0  0  0  0  0  0  0  0  0  0
    0.9600  -10.4489    0.0000 C   0  0  0  0  0  0  0  0  0  0  0  0
    1.6745  -10.0364    0.0000 C   0  0  0  0  0  0  0  0  0  0  0  0
    1.6745   -9.2114    0.0000 C   0  0  0  0  0  0  0  0  0  0  0  0
    0.9600   -8.7989    0.0000 C   0  0  0  0  0  0  0  0  0  0  0  0
    2.3890  -10.4489    0.0000 N   0  0  0  0  0  0  0  0  0  0  0  0
    3.1034  -10.0364    0.0000 C   0  0  0  0  0  0  0  0  0  0  0  0
    3.1034   -9.2114    0.0000 C   0  0  0  0  0  0  0  0  0  0  0  0
    2.3890   -8.7989    0.0000 C   0  0  0  0  0  0  0  0  0  0  0  0
    2.3890   -7.9739    0.0000 O   0  0  0  0  0  0  0  0  0  0  0  0
    2.3890  -11.2739    0.0000 C   0  0  0  0  0  0  0  0  0  0  0  0
    3.8179  -10.4489    0.0000 C   0  0  0  0  0  0  0  0  0  0  0  0
    4.5324  -10.0364    0.0000 C   0  0  0  0  0  0  0  0  0  0  0  0
    5.2469  -10.4489    0.0000 C   0  0  0  0  0  0  0  0  0  0  0  0
    5.9613  -10.0364    0.0000 C   0  0  0  0  0  0  0  0  0  0  0  0
    6.6758  -10.4489    0.0000 C   0  0  0  0  0  0  0  0  0  0  0  0
    7.3903  -10.0364    0.0000 C   0  0  0  0  0  0  0  0  0  0  0  0
    8.1047  -10.4489    0.0000 C   0  0  0  0  0  0  0  0  0  0  0  0
    8.8192  -10.0364    0.0000 C   0  0  0  0  0  0  0  0  0  0  0  0
    9.5337  -10.4489    0.0000 C   0  0  0  0  0  0  0  0  0  0  0  0
   10.2481  -10.0364    0.0000 C   0  0  0  0  0  0  0  0  0  0  0  0
   10.9626  -10.4489    0.0000 C   0  0  0  0  0  0  0  0  0  0  0  0
   11.6771  -10.0364    0.0000 C   0  0  0  0  0  0  0  0  0  0  0  0
   12.3916  -10.4489    0.0000 C   0  0  0  0  0  0  0  0  0  0  0  0
   13.1060  -10.0364    0.0000 C   0  0  0  0  0  0  0  0  0  0  0  0
   13.8205  -10.4489    0.0000 C   0  0  0  0  0  0  0  0  0  0  0  0
  1  2  2  0  0  0  0
  2  3  1  0  0  0  0
  3  4  2  0  0  0  0
  4  5  1  0  0  0  0
  5  6  2  0  0  0  0
  6  1  1  0  0  0  0
  4  7  1  0  0  0  0
  7  8  1  0  0  0  0
  8  9  2  0  0  0  0
  9 10  1  0  0  0  0
 10  5  1  0  0  0  0
 10 11  2  0  0  0  0
  7 12  1  0  0  0  0
  8 13  1  0  0  0  0
 13 14  1  0  0  0  0
 14 15  1  0  0  0  0
 15 16  1  0  0  0  0
 16 17  1  0  0  0  0
 17 18  1  0  0  0  0
 18 19  1  0  0  0  0
 19 20  2  0  0  0  0
 20 21  1  0  0  0  0
 21 22  1  0  0  0  0
 22 23  1  0  0  0  0
 23 24  2  0  0  0  0
 24 25  1  0  0  0  0
 25 26  1  0  0  0  0
 26 27  1  0  0  0  0
M  END
>  <cdx:fragmentId>
83

$$$$
