90984.cdx
  Mrv1902 05222410272D          

 25 26  0  0  0  0            999 V2000
    0.9331   -8.9639    0.0000 C   0  0  0  0  0  0  0  0  0  0  0  0
    0.9331   -9.7889    0.0000 C   0  0  0  0  0  0  0  0  0  0  0  0
    1.6475  -10.2014    0.0000 C   0  0  0  0  0  0  0  0  0  0  0  0
    2.3620   -9.7889    0.0000 C   0  0  0  0  0  0  0  0  0  0  0  0
    2.3620   -8.9639    0.0000 C   0  0  0  0  0  0  0  0  0  0  0  0
    1.6475   -8.5514    0.0000 C   0  0  0  0  0  0  0  0  0  0  0  0
    3.0765  -10.2014    0.0000 N   0  0  0  0  0  0  0  0  0  0  0  0
    3.7909   -9.7889    0.0000 C   0  0  0  0  0  0  0  0  0  0  0  0
    3.7909   -8.9639    0.0000 C   0  0  0  0  0  0  0  0  0  0  0  0
    3.0765   -8.5514    0.0000 C   0  0  0  0  0  0  0  0  0  0  0  0
    3.0765   -7.7264    0.0000 O   0  0  0  0  0  0  0  0  0  0  0  0
    3.0765  -11.0264    0.0000 C   0  0  0  0  0  0  0  0  0  0  0  0
    4.5054  -10.2014    0.0000 C   0  0  0  0  0  0  0  0  0  0  0  0
    5.2199   -9.7889    0.0000 C   0  0  0  0  0  0  0  0  0  0  0  0
    5.9344  -10.2014    0.0000 C   0  0  0  0  0  0  0  0  0  0  0  0
    6.6488   -9.7889    0.0000 C   0  0  0  0  0  0  0  0  0  0  0  0
    7.3633  -10.2014    0.0000 C   0  0  0  0  0  0  0  0  0  0  0  0
    8.0778   -9.7889    0.0000 C   0  0  0  0  0  0  0  0  0  0  0  0
    8.7922  -10.2014    0.0000 C   0  0  0  0  0  0  0  0  0  0  0  0
    9.5067   -9.7889    0.0000 C   0  0  0  0  0  0  0  0  0  0  0  0
   10.2212  -10.2014    0.0000 C   0  0  0  0  0  0  0  0  0  0  0  0
   10.9356   -9.7889    0.0000 C   0  0  0  0  0  0  0  0  0  0  0  0
   11.6501  -10.2014    0.0000 C   0  0  0  0  0  0  0  0  0  0  0  0
   12.3646   -9.7889    0.0000 C   0  0  0  0  0  0  0  0  0  0  0  0
   13.0791  -10.2014    0.0000 C   0  0  0  0  0  0  0  0  0  0  0  0
  1  2  2  0  0  0  0
  2  3  1  0  0  0  0
  3  4  2  0  0  0  0
  4  5  1  0  0  0  0
  5  6  2  0  0  0  0
  6  1  1  0  0  0  0
  4  7  1  0  0  0  0
  7  8  1  0  0  0  0
  8  9  2  0  0  0  0
  9 10  1  0  0  0  0
 10  5  1  0  0  0  0
 10 11  2  0  0  0  0
  7 12  1  0  0  0  0
  8 13  1  0  0  0  0
 13 14  1  0  0  0  0
 14 15  1  0  0  0  0
 15 16  1  0  0  0  0
 16 17  1  0  0  0  0
 17 18  1  0  0  0  0
 18 19  1  0  0  0  0
 19 20  1  0  0  0  0
 20 21  1  0  0  0  0
 21 22  1  0  0  0  0
 22 23  1  0  0  0  0
 23 24  1  0  0  0  0
 24 25  2  0  0  0  0
M  END
>  <cdx:fragmentId>
83

$$$$
