90988.cdx
  Mrv1902 05222410192D          

 25 27  0  0  0  0            999 V2000
    5.2231  -11.5076    0.0000 C   0  0  0  0  0  0  0  0  0  0  0  0
    5.2231  -12.3326    0.0000 C   0  0  0  0  0  0  0  0  0  0  0  0
    5.9375  -12.7451    0.0000 C   0  0  0  0  0  0  0  0  0  0  0  0
    6.6520  -12.3326    0.0000 C   0  0  0  0  0  0  0  0  0  0  0  0
    6.6520  -11.5076    0.0000 C   0  0  0  0  0  0  0  0  0  0  0  0
    5.9375  -11.0951    0.0000 C   0  0  0  0  0  0  0  0  0  0  0  0
    4.5086  -11.0951    0.0000 O   0  0  0  0  0  0  0  0  0  0  0  0
    5.9375  -10.2701    0.0000 C   0  0  0  0  0  0  0  0  0  0  0  0
    5.9375   -9.4451    0.0000 C   0  0  0  0  0  0  0  0  0  0  0  0
    6.7625  -10.2701    0.0000 C   0  0  0  0  0  0  0  0  0  0  0  0
    5.1125  -10.2701    0.0000 C   0  0  0  0  0  0  0  0  0  0  0  0
    6.6520   -9.0326    0.0000 C   0  0  0  0  0  0  0  0  0  0  0  0
    6.6520   -8.2076    0.0000 C   0  0  0  0  0  0  0  0  0  0  0  0
    5.9375   -7.7951    0.0000 C   0  0  0  0  0  0  0  0  0  0  0  0
    5.2231   -8.2076    0.0000 C   0  0  0  0  0  0  0  0  0  0  0  0
    5.2231   -9.0326    0.0000 C   0  0  0  0  0  0  0  0  0  0  0  0
    7.3665  -12.7451    0.0000 C   0  0  0  0  0  0  0  0  0  0  0  0
    8.0809  -13.1576    0.0000 C   0  0  0  0  0  0  0  0  0  0  0  0
    7.7790  -12.0307    0.0000 C   0  0  0  0  0  0  0  0  0  0  0  0
    6.9540  -13.4596    0.0000 C   0  0  0  0  0  0  0  0  0  0  0  0
    8.0809  -13.9826    0.0000 C   0  0  0  0  0  0  0  0  0  0  0  0
    8.7954  -14.3951    0.0000 C   0  0  0  0  0  0  0  0  0  0  0  0
    9.5099  -13.9826    0.0000 C   0  0  0  0  0  0  0  0  0  0  0  0
    9.5099  -13.1576    0.0000 C   0  0  0  0  0  0  0  0  0  0  0  0
    8.7954  -12.7451    0.0000 C   0  0  0  0  0  0  0  0  0  0  0  0
  1  2  2  0  0  0  0
  2  3  1  0  0  0  0
  3  4  2  0  0  0  0
  4  5  1  0  0  0  0
  5  6  2  0  0  0  0
  6  1  1  0  0  0  0
  1  7  1  0  0  0  0
  6  8  1  0  0  0  0
  8  9  1  0  0  0  0
  8 10  1  0  0  0  0
  8 11  1  0  0  0  0
  9 12  2  0  0  0  0
 12 13  1  0  0  0  0
 13 14  2  0  0  0  0
 14 15  1  0  0  0  0
 15 16  2  0  0  0  0
 16  9  1  0  0  0  0
  4 17  1  0  0  0  0
 17 18  1  0  0  0  0
 17 19  1  0  0  0  0
 17 20  1  0  0  0  0
 18 21  2  0  0  0  0
 21 22  1  0  0  0  0
 22 23  2  0  0  0  0
 23 24  1  0  0  0  0
 24 25  2  0  0  0  0
 25 18  1  0  0  0  0
M  END
>  <cdx:fragmentId>
5

$$$$
