90989.cdx
  Mrv1902 05222410182D          

 11 11  0  0  0  0            999 V2000
    6.0167   -4.3450    0.0000 C   0  0  0  0  0  0  0  0  0  0  0  0
    6.2119   -5.1466    0.0000 C   0  0  0  0  0  0  0  0  0  0  0  0
    6.9603   -5.4938    0.0000 C   0  0  0  0  0  0  0  0  0  0  0  0
    7.6984   -5.1251    0.0000 C   0  0  0  0  0  0  0  0  0  0  0  0
    7.8703   -4.3182    0.0000 C   0  0  0  0  0  0  0  0  0  0  0  0
    7.3467   -3.6807    0.0000 C   0  0  0  0  0  0  0  0  0  0  0  0
    6.5217   -3.6926    0.0000 C   0  0  0  0  0  0  0  0  0  0  0  0
    5.5744   -5.6703    0.0000 C   0  0  0  0  0  0  0  0  0  0  0  0
    6.9723   -6.3187    0.0000 O   0  0  0  0  0  0  0  0  0  0  0  0
    8.4669   -3.7484    0.0000 C   0  0  0  0  0  0  0  0  0  0  0  0
    8.6621   -4.5500    0.0000 C   0  0  0  0  0  0  0  0  0  0  0  0
  1  2  2  0  0  0  0
  2  3  1  0  0  0  0
  3  4  1  0  0  0  0
  4  5  1  0  0  0  0
  5  6  1  0  0  0  0
  6  7  2  0  0  0  0
  7  1  1  0  0  0  0
  2  8  1  0  0  0  0
  3  9  2  0  0  0  0
  5 10  1  0  0  0  0
  5 11  1  0  0  0  0
M  END
>  <cdx:fragmentId>
5

$$$$
