90983.cdx
  Mrv1902 05222410262D          

 26 27  0  0  0  0            999 V2000
    1.0156   -8.7714    0.0000 C   0  0  0  0  0  0  0  0  0  0  0  0
    1.0156   -9.5964    0.0000 C   0  0  0  0  0  0  0  0  0  0  0  0
    1.7300  -10.0089    0.0000 C   0  0  0  0  0  0  0  0  0  0  0  0
    2.4445   -9.5964    0.0000 C   0  0  0  0  0  0  0  0  0  0  0  0
    2.4445   -8.7714    0.0000 C   0  0  0  0  0  0  0  0  0  0  0  0
    1.7300   -8.3589    0.0000 C   0  0  0  0  0  0  0  0  0  0  0  0
    3.1590  -10.0089    0.0000 N   0  0  0  0  0  0  0  0  0  0  0  0
    3.8734   -9.5964    0.0000 C   0  0  0  0  0  0  0  0  0  0  0  0
    3.8734   -8.7714    0.0000 C   0  0  0  0  0  0  0  0  0  0  0  0
    3.1590   -8.3589    0.0000 C   0  0  0  0  0  0  0  0  0  0  0  0
    3.1590   -7.5339    0.0000 O   0  0  0  0  0  0  0  0  0  0  0  0
    3.1590  -10.8339    0.0000 C   0  0  0  0  0  0  0  0  0  0  0  0
    4.5879  -10.0089    0.0000 C   0  0  0  0  0  0  0  0  0  0  0  0
    5.3024   -9.5964    0.0000 C   0  0  0  0  0  0  0  0  0  0  0  0
    6.0169  -10.0089    0.0000 C   0  0  0  0  0  0  0  0  0  0  0  0
    6.7313   -9.5964    0.0000 C   0  0  0  0  0  0  0  0  0  0  0  0
    7.4458  -10.0089    0.0000 C   0  0  0  0  0  0  0  0  0  0  0  0
    8.1603   -9.5964    0.0000 C   0  0  0  0  0  0  0  0  0  0  0  0
    8.8747  -10.0089    0.0000 C   0  0  0  0  0  0  0  0  0  0  0  0
    9.5892   -9.5964    0.0000 C   0  0  0  0  0  0  0  0  0  0  0  0
   10.3037  -10.0089    0.0000 C   0  0  0  0  0  0  0  0  0  0  0  0
   11.0181   -9.5964    0.0000 C   0  0  0  0  0  0  0  0  0  0  0  0
   11.7326  -10.0089    0.0000 C   0  0  0  0  0  0  0  0  0  0  0  0
   12.4471   -9.5964    0.0000 C   0  0  0  0  0  0  0  0  0  0  0  0
   13.1616  -10.0089    0.0000 C   0  0  0  0  0  0  0  0  0  0  0  0
   12.4471   -8.7714    0.0000 O   0  0  0  0  0  0  0  0  0  0  0  0
  1  2  2  0  0  0  0
  2  3  1  0  0  0  0
  3  4  2  0  0  0  0
  4  5  1  0  0  0  0
  5  6  2  0  0  0  0
  6  1  1  0  0  0  0
  4  7  1  0  0  0  0
  7  8  1  0  0  0  0
  8  9  2  0  0  0  0
  9 10  1  0  0  0  0
 10  5  1  0  0  0  0
 10 11  2  0  0  0  0
  7 12  1  0  0  0  0
  8 13  1  0  0  0  0
 13 14  1  0  0  0  0
 14 15  1  0  0  0  0
 15 16  1  0  0  0  0
 16 17  1  0  0  0  0
 17 18  1  0  0  0  0
 18 19  1  0  0  0  0
 19 20  1  0  0  0  0
 20 21  1  0  0  0  0
 21 22  1  0  0  0  0
 22 23  1  0  0  0  0
 23 24  1  0  0  0  0
 24 25  1  0  0  0  0
 24 26  1  0  0  0  0
M  END
>  <cdx:fragmentId>
83

$$$$
