90998.cdx
  Mrv1902 05222410192D          

 23 24  0  0  0  0            999 V2000
    2.4318   -9.2664    0.0000 O   0  0  0  0  0  0  0  0  0  0  0  0
    3.1463  -10.5039    0.0000 O   0  0  0  0  0  0  0  0  0  0  0  0
    3.8607  -10.0914    0.0000 C   0  0  2  0  0  0  0  0  0  0  0  0
    3.8607   -9.2664    0.0000 C   0  0  1  0  0  0  0  0  0  0  0  0
    3.1463   -8.8539    0.0000 C   0  0  0  0  0  0  0  0  0  0  0  0
    4.5752  -10.5039    0.0000 C   0  0  1  0  0  0  0  0  0  0  0  0
    5.2897  -10.0914    0.0000 C   0  0  2  0  0  0  0  0  0  0  0  0
    5.2897   -9.2664    0.0000 C   0  0  1  0  0  0  0  0  0  0  0  0
    4.5752   -8.8539    0.0000 O   0  0  0  0  0  0  0  0  0  0  0  0
    6.0042  -10.5039    0.0000 O   0  0  0  0  0  0  0  0  0  0  0  0
    6.7186  -10.0914    0.0000 O   0  0  0  0  0  0  0  0  0  0  0  0
    6.7186   -9.2664    0.0000 C   0  0  0  0  0  0  0  0  0  0  0  0
    6.0042   -8.8539    0.0000 O   0  0  0  0  0  0  0  0  0  0  0  0
    8.1476  -10.0914    0.0000 O   0  0  0  0  0  0  0  0  0  0  0  0
    8.1476   -9.2664    0.0000 C   0  0  0  0  0  0  0  0  0  0  0  0
    7.4331   -8.8539    0.0000 C   0  0  0  0  0  0  0  0  0  0  0  0
    8.8620   -8.8539    0.0000 C   0  0  0  0  0  0  0  0  0  0  0  0
    8.8620   -8.0289    0.0000 C   0  0  0  0  0  0  0  0  0  0  0  0
    8.1476   -7.6164    0.0000 C   0  0  0  0  0  0  0  0  0  0  0  0
    7.4331   -8.0289    0.0000 C   0  0  0  0  0  0  0  0  0  0  0  0
    9.5765   -9.2664    0.0000 O   0  0  0  0  0  0  0  0  0  0  0  0
   10.2910   -8.8539    0.0000 C   0  0  0  0  0  0  0  0  0  0  0  0
    4.5752  -11.3289    0.0000 O   0  0  0  0  0  0  0  0  0  0  0  0
  3  2  1  6  0  0  0
  3  4  1  0  0  0  0
  4  5  1  1  0  0  0
  5  1  1  0  0  0  0
  3  6  1  0  0  0  0
  6  7  1  0  0  0  0
  7  8  1  0  0  0  0
  8  9  1  0  0  0  0
  9  4  1  0  0  0  0
  7 10  1  6  0  0  0
 11 12  2  0  0  0  0
 12 13  1  0  0  0  0
  8 13  1  1  0  0  0
 14 15  1  0  0  0  0
 15 16  1  0  0  0  0
 16 12  1  0  0  0  0
 15 17  2  0  0  0  0
 17 18  1  0  0  0  0
 18 19  2  0  0  0  0
 19 20  1  0  0  0  0
 20 16  2  0  0  0  0
 21 17  1  0  0  0  0
 21 22  1  0  0  0  0
  6 23  1  1  0  0  0
M  END
>  <cdx:fragmentId>
5

$$$$
