90990.cdx
  Mrv1902 05222410272D          

 24 25  0  0  0  0            999 V2000
    5.5943   -6.4064    0.0000 C   0  0  0  0  0  0  0  0  0  0  0  0
    5.5943   -7.2314    0.0000 C   0  0  0  0  0  0  0  0  0  0  0  0
    6.3088   -7.6439    0.0000 C   0  0  0  0  0  0  0  0  0  0  0  0
    7.0232   -7.2314    0.0000 C   0  0  0  0  0  0  0  0  0  0  0  0
    7.0232   -6.4064    0.0000 C   0  0  0  0  0  0  0  0  0  0  0  0
    6.3088   -5.9939    0.0000 C   0  0  0  0  0  0  0  0  0  0  0  0
    4.8798   -5.9939    0.0000 O   0  0  0  0  0  0  0  0  0  0  0  0
    4.1654   -6.4064    0.0000 C   0  0  0  0  0  0  0  0  0  0  0  0
    6.3088   -5.1689    0.0000 C   0  0  0  0  0  0  0  0  0  0  0  0
    5.5943   -4.7564    0.0000 O   0  0  0  0  0  0  0  0  0  0  0  0
    7.0232   -4.7564    0.0000 C   0  0  0  0  0  0  0  0  0  0  0  0
    7.7377   -5.9939    0.0000 O   0  0  0  0  0  0  0  0  0  0  0  0
    6.3088   -8.4689    0.0000 O   0  0  0  0  0  0  0  0  0  0  0  0
    7.0232   -8.8814    0.0000 C   0  0  1  0  0  0  0  0  0  0  0  0
    7.0232   -9.7064    0.0000 C   0  0  1  0  0  0  0  0  0  0  0  0
    7.7377  -10.1189    0.0000 C   0  0  2  0  0  0  0  0  0  0  0  0
    8.4522   -9.7064    0.0000 C   0  0  1  0  0  0  0  0  0  0  0  0
    8.4522   -8.8814    0.0000 O   0  0  0  0  0  0  0  0  0  0  0  0
    7.7377   -8.4689    0.0000 C   0  0  2  0  0  0  0  0  0  0  0  0
    7.7377  -10.9439    0.0000 O   0  0  0  0  0  0  0  0  0  0  0  0
    7.7377   -7.6439    0.0000 C   0  0  0  0  0  0  0  0  0  0  0  0
    6.3088  -10.1189    0.0000 O   0  0  0  0  0  0  0  0  0  0  0  0
    9.1667  -10.1189    0.0000 O   0  0  0  0  0  0  0  0  0  0  0  0
    8.4522   -7.2314    0.0000 O   0  0  0  0  0  0  0  0  0  0  0  0
  1  2  2  0  0  0  0
  2  3  1  0  0  0  0
  3  4  2  0  0  0  0
  4  5  1  0  0  0  0
  5  6  2  0  0  0  0
  6  1  1  0  0  0  0
  1  7  1  0  0  0  0
  7  8  1  0  0  0  0
  6  9  1  0  0  0  0
  9 10  2  0  0  0  0
  9 11  1  0  0  0  0
  5 12  1  0  0  0  0
  3 13  1  0  0  0  0
 14 13  1  6  0  0  0
 14 15  1  0  0  0  0
 15 16  1  0  0  0  0
 16 17  1  0  0  0  0
 17 18  1  0  0  0  0
 18 19  1  0  0  0  0
 19 14  1  0  0  0  0
 16 20  1  6  0  0  0
 19 21  1  1  0  0  0
 15 22  1  1  0  0  0
 17 23  1  1  0  0  0
 21 24  1  0  0  0  0
M  END
>  <cdx:fragmentId>
5

$$$$
