90997.cdx
  Mrv1902 05222410262D          

 42 41  0  0  0  0            999 V2000
    1.0967  -10.1134    0.0000 C   0  0  0  0  0  0  0  0  0  0  0  0
    1.8122   -9.7031    0.0000 C   0  0  0  0  0  0  0  0  0  0  0  0
    2.5252  -10.1175    0.0000 C   0  0  0  0  0  0  0  0  0  0  0  0
    3.2407   -9.7073    0.0000 C   0  0  0  0  0  0  0  0  0  0  0  0
    3.9537  -10.1217    0.0000 C   0  0  0  0  0  0  0  0  0  0  0  0
    4.6692   -9.7115    0.0000 C   0  0  0  0  0  0  0  0  0  0  0  0
    5.3822  -10.1259    0.0000 C   0  0  0  0  0  0  0  0  0  0  0  0
    6.0976   -9.7156    0.0000 C   0  0  0  0  0  0  0  0  0  0  0  0
    6.8107  -10.1301    0.0000 C   0  0  0  0  0  0  0  0  0  0  0  0
    7.5261   -9.7198    0.0000 C   0  0  0  0  0  0  0  0  0  0  0  0
    8.2392  -10.1343    0.0000 C   0  0  0  0  0  0  0  0  0  0  0  0
    8.9546   -9.7240    0.0000 C   0  0  0  0  0  0  0  0  0  0  0  0
    9.6677  -10.1385    0.0000 C   0  0  0  0  0  0  0  0  0  0  0  0
   10.3831   -9.7282    0.0000 C   0  0  0  0  0  0  0  0  0  0  0  0
   11.0961  -10.1427    0.0000 C   0  0  0  0  0  0  0  0  0  0  0  0
   11.8116   -9.7324    0.0000 C   0  0  0  0  0  0  0  0  0  0  0  0
   12.5246  -10.1468    0.0000 C   0  0  0  0  0  0  0  0  0  0  0  0
   13.2401   -9.7366    0.0000 C   0  0  0  0  0  0  0  0  0  0  0  0
   13.9531  -10.1510    0.0000 O   0  0  0  0  0  0  0  0  0  0  0  0
   14.6686   -9.7408    0.0000 C   0  0  0  0  0  0  0  0  0  0  0  0
   15.3816  -10.1552    0.0000 C   0  0  0  0  0  0  0  0  0  0  0  0
   16.0970   -9.7449    0.0000 C   0  0  0  0  0  0  0  0  0  0  0  0
   16.8101  -10.1594    0.0000 O   0  0  0  0  0  0  0  0  0  0  0  0
   17.5255   -9.7491    0.0000 C   0  0  0  0  0  0  0  0  0  0  0  0
   18.2386  -10.1636    0.0000 C   0  0  0  0  0  0  0  0  0  0  0  0
   18.9540   -9.7533    0.0000 C   0  0  0  0  0  0  0  0  0  0  0  0
   19.6671  -10.1678    0.0000 C   0  0  0  0  0  0  0  0  0  0  0  0
   20.3825   -9.7575    0.0000 C   0  0  0  0  0  0  0  0  0  0  0  0
   21.0955  -10.1720    0.0000 C   0  0  0  0  0  0  0  0  0  0  0  0
   21.8110   -9.7617    0.0000 C   0  0  0  0  0  0  0  0  0  0  0  0
   22.5240  -10.1762    0.0000 C   0  0  0  0  0  0  0  0  0  0  0  0
   23.2395   -9.7659    0.0000 C   0  0  0  0  0  0  0  0  0  0  0  0
   23.9525  -10.1803    0.0000 C   0  0  0  0  0  0  0  0  0  0  0  0
   24.6680   -9.7701    0.0000 C   0  0  0  0  0  0  0  0  0  0  0  0
   25.3810  -10.1845    0.0000 C   0  0  0  0  0  0  0  0  0  0  0  0
   26.0964   -9.7743    0.0000 C   0  0  0  0  0  0  0  0  0  0  0  0
   26.8095  -10.1887    0.0000 C   0  0  0  0  0  0  0  0  0  0  0  0
   27.5249   -9.7784    0.0000 C   0  0  0  0  0  0  0  0  0  0  0  0
   28.2380  -10.1929    0.0000 C   0  0  0  0  0  0  0  0  0  0  0  0
   13.2425   -8.9118    0.0000 O   0  0  0  0  0  0  0  0  0  0  0  0
   15.3792  -10.9800    0.0000 O   0  0  0  0  0  0  0  0  0  0  0  0
   17.5280   -8.9244    0.0000 O   0  0  0  0  0  0  0  0  0  0  0  0
  1  2  1  0  0  0  0
  2  3  1  0  0  0  0
  3  4  1  0  0  0  0
  4  5  1  0  0  0  0
  5  6  1  0  0  0  0
  6  7  1  0  0  0  0
  7  8  1  0  0  0  0
  8  9  1  0  0  0  0
  9 10  2  0  0  0  0
 10 11  1  0  0  0  0
 11 12  1  0  0  0  0
 12 13  1  0  0  0  0
 13 14  1  0  0  0  0
 14 15  1  0  0  0  0
 15 16  1  0  0  0  0
 16 17  1  0  0  0  0
 17 18  1  0  0  0  0
 18 19  1  0  0  0  0
 19 20  1  0  0  0  0
 20 21  1  0  0  0  0
 21 22  1  0  0  0  0
 22 23  1  0  0  0  0
 23 24  1  0  0  0  0
 24 25  1  0  0  0  0
 25 26  1  0  0  0  0
 26 27  1  0  0  0  0
 27 28  1  0  0  0  0
 28 29  1  0  0  0  0
 29 30  1  0  0  0  0
 30 31  1  0  0  0  0
 31 32  1  0  0  0  0
 32 33  1  0  0  0  0
 33 34  1  0  0  0  0
 34 35  1  0  0  0  0
 35 36  1  0  0  0  0
 36 37  1  0  0  0  0
 37 38  1  0  0  0  0
 38 39  1  0  0  0  0
 18 40  2  0  0  0  0
 21 41  1  0  0  0  0
 24 42  2  0  0  0  0
M  END
>  <cdx:fragmentId>
3

$$$$
