90996.cdx
  Mrv1902 05222410262D          

 24 26  0  0  0  0            999 V2000
    6.3612   -8.8058    0.0000 C   0  0  2  0  0  0  0  0  0  0  0  0
    5.3460   -9.1624    0.0000 C   0  0  0  0  0  0  0  0  0  0  0  0
    5.0935   -8.4852    0.0000 C   0  0  0  0  0  0  0  0  0  0  0  0
    6.2484   -8.0460    0.0000 C   0  0  1  0  0  0  0  0  0  0  0  0
    6.8700   -7.1909    0.0000 N   0  0  0  0  0  0  0  0  0  0  0  0
    7.6659   -8.2486    0.0000 C   0  0  0  0  0  0  0  0  0  0  0  0
    7.2556   -9.2651    0.0000 C   0  0  0  0  0  0  0  0  0  0  0  0
    7.8902   -8.8138    0.0000 C   0  0  0  0  0  0  0  0  0  0  0  0
    7.2413   -6.4542    0.0000 C   0  0  0  0  0  0  0  0  0  0  0  0
    8.6814   -9.0477    0.0000 O   0  0  0  0  0  0  0  0  0  0  0  0
    8.8949   -9.8446    0.0000 C   0  0  0  0  0  0  0  0  0  0  0  0
    9.6918  -10.0581    0.0000 C   0  0  0  0  0  0  0  0  0  0  0  0
    8.3116  -10.4280    0.0000 O   0  0  0  0  0  0  0  0  0  0  0  0
   10.2752   -9.4748    0.0000 C   0  0  0  0  0  0  0  0  0  0  0  0
   11.0721   -9.6883    0.0000 O   0  0  0  0  0  0  0  0  0  0  0  0
    9.9053  -10.8550    0.0000 C   0  0  0  0  0  0  0  0  0  0  0  0
    9.3220  -11.4384    0.0000 C   0  0  0  0  0  0  0  0  0  0  0  0
    9.5355  -12.2353    0.0000 C   0  0  0  0  0  0  0  0  0  0  0  0
   10.3324  -12.4488    0.0000 C   0  0  0  0  0  0  0  0  0  0  0  0
   10.9157  -11.8654    0.0000 C   0  0  0  0  0  0  0  0  0  0  0  0
   10.7022  -11.0685    0.0000 C   0  0  0  0  0  0  0  0  0  0  0  0
    6.3612   -9.6308    0.0000 H   0  0  0  0  0  0  0  0  0  0  0  0
    5.7352   -7.4001    0.0000 H   0  0  0  0  0  0  0  0  0  0  0  0
    8.1766   -7.6006    0.0000 O   0  0  0  0  0  0  0  0  0  0  0  0
  1  2  1  0  0  0  0
  2  3  1  0  0  0  0
  3  4  1  0  0  0  0
  4  5  1  0  0  0  0
  4  6  1  0  0  0  0
  1  7  1  0  0  0  0
  6  8  1  0  0  0  0
  7  8  1  0  0  0  0
  5  1  1  0  0  0  0
  5  9  1  0  0  0  0
  8 10  1  0  0  0  0
 10 11  1  0  0  0  0
 11 12  1  0  0  0  0
 11 13  2  0  0  0  0
 12 14  1  0  0  0  0
 14 15  1  0  0  0  0
 12 16  1  0  0  0  0
 16 17  2  0  0  0  0
 17 18  1  0  0  0  0
 18 19  2  0  0  0  0
 19 20  1  0  0  0  0
 20 21  2  0  0  0  0
 21 16  1  0  0  0  0
  1 22  1  1  0  0  0
  4 23  1  6  0  0  0
  6 24  1  0  0  0  0
M  END
>  <cdx:groupId>
816

>  <cdx:fragmentId>
817

$$$$
