90991.cdx
  Mrv1902 05222410272D          

 20 21  0  0  0  0            999 V2000
    6.4743  -11.4389    0.0000 C   0  0  0  0  0  0  0  0  0  0  0  0
    6.4743  -12.2639    0.0000 C   0  0  0  0  0  0  0  0  0  0  0  0
    7.1888  -12.6764    0.0000 C   0  0  0  0  0  0  0  0  0  0  0  0
    7.9032  -12.2639    0.0000 C   0  0  0  0  0  0  0  0  0  0  0  0
    7.9032  -11.4389    0.0000 C   0  0  0  0  0  0  0  0  0  0  0  0
    7.1888  -11.0264    0.0000 C   0  0  0  0  0  0  0  0  0  0  0  0
    7.1888  -10.2014    0.0000 C   0  0  0  0  0  0  0  0  0  0  0  0
    6.4743   -9.7889    0.0000 O   0  0  0  0  0  0  0  0  0  0  0  0
    5.7598  -11.0264    0.0000 C   0  0  0  0  0  0  0  0  0  0  0  0
    4.3309  -10.2014    0.0000 C   0  0  0  0  0  0  0  0  0  0  0  0
    4.3309  -11.0264    0.0000 C   0  0  0  0  0  0  0  0  0  0  0  0
    5.0454  -11.4389    0.0000 C   0  0  0  0  0  0  0  0  0  0  0  0
    3.6164   -9.7889    0.0000 C   0  0  0  0  0  0  0  0  0  0  0  0
    2.9019  -10.2014    0.0000 C   0  0  0  0  0  0  0  0  0  0  0  0
    2.9019  -11.0264    0.0000 C   0  0  0  0  0  0  0  0  0  0  0  0
    3.6164  -11.4389    0.0000 C   0  0  0  0  0  0  0  0  0  0  0  0
    8.6177  -11.0264    0.0000 O   0  0  0  0  0  0  0  0  0  0  0  0
    7.9032   -9.7889    0.0000 O   0  0  0  0  0  0  0  0  0  0  0  0
    7.1888  -13.5014    0.0000 O   0  0  0  0  0  0  0  0  0  0  0  0
    7.9032   -8.9639    0.0000 C   0  0  0  0  0  0  0  0  0  0  0  0
  1  2  2  0  0  0  0
  2  3  1  0  0  0  0
  3  4  2  0  0  0  0
  4  5  1  0  0  0  0
  5  6  2  0  0  0  0
  6  1  1  0  0  0  0
  6  7  1  0  0  0  0
  7  8  2  0  0  0  0
  9  1  1  0  0  0  0
 10 11  2  0  0  0  0
 11 12  1  0  0  0  0
 12  9  1  0  0  0  0
 10 13  1  0  0  0  0
 13 14  2  0  0  0  0
 14 15  1  0  0  0  0
 15 16  2  0  0  0  0
 16 11  1  0  0  0  0
  5 17  1  0  0  0  0
 18  7  1  0  0  0  0
  3 19  1  0  0  0  0
 18 20  1  0  0  0  0
M  END
>  <cdx:fragmentId>
5

$$$$
