90992.cdx
  Mrv1902 05222410282D          

 13 14  0  0  0  0            999 V2000
    5.8449  -10.6641    0.0000 C   0  0  0  0  0  0  0  0  0  0  0  0
    6.7379  -10.3950    0.0000 C   0  0  0  0  0  0  0  0  0  0  0  0
    7.6859  -10.6091    0.0000 C   0  0  0  0  0  0  0  0  0  0  0  0
    7.6596   -9.8816    0.0000 C   0  0  0  0  0  0  0  0  0  0  0  0
    5.6536   -9.9916    0.0000 C   0  0  0  0  0  0  0  0  0  0  0  0
    6.6291   -9.6950    0.0000 C   0  0  0  0  0  0  0  0  0  0  0  0
    6.9869   -8.9263    0.0000 C   0  0  0  0  0  0  0  0  0  0  0  0
    6.7546  -11.2198    0.0000 C   0  0  0  0  0  0  0  0  0  0  0  0
    6.7733   -8.1294    0.0000 C   0  0  0  0  0  0  0  0  0  0  0  0
    7.5702   -8.3430    0.0000 C   0  0  0  0  0  0  0  0  0  0  0  0
    8.1536   -7.7596    0.0000 O   0  0  0  0  0  0  0  0  0  0  0  0
    7.6859  -11.4341    0.0000 O   0  0  0  0  0  0  0  0  0  0  0  0
    8.5109  -10.6091    0.0000 H   0  0  0  0  0  0  0  0  0  0  0  0
  1  2  1  0  0  0  0
  2  3  1  0  0  0  0
  3  4  1  0  0  0  0
  1  5  1  0  0  0  0
  5  6  1  0  0  0  0
  4  6  1  0  0  0  0
  6  7  1  0  0  0  0
  2  7  1  0  0  0  0
  2  8  1  0  0  0  0
  7  9  1  0  0  0  0
  7 10  1  0  0  0  0
  3 12  1  0  0  0  0
  3 13  1  0  0  0  0
 10 11  1  0  0  0  0
M  STY  1   1 SUP
M  SAL   1  2  10  11
M  SBL   1  1  11
M  SMT   1 CH2OH
M  SAP   1  1  10   7  1
M  END
>  <cdx:groupId>
799

>  <cdx:fragmentId>
800

$$$$
