909958.cdx
  Mrv1902 05222410192D          

 14 14  0  0  0  0            999 V2000
    5.1388   -7.3087    0.0000 C   0  0  0  0  0  0  0  0  0  0  0  0
    5.9638   -7.3087    0.0000 C   0  0  0  0  0  0  0  0  0  0  0  0
    8.4092   -7.1981    0.0000 C   0  0  0  0  0  0  0  0  0  0  0  0
    9.1237   -8.4356    0.0000 O   0  0  0  0  0  0  0  0  0  0  0  0
    8.4092   -8.0231    0.0000 C   0  0  0  0  0  0  0  0  0  0  0  0
    6.9803   -9.6731    0.0000 C   0  0  0  0  0  0  0  0  0  0  0  0
    7.6948   -8.4356    0.0000 C   0  0  0  0  0  0  0  0  0  0  0  0
    6.9803   -8.0231    0.0000 C   0  0  0  0  0  0  0  0  0  0  0  0
    5.5513   -8.0231    0.0000 C   0  0  0  0  0  0  0  0  0  0  0  0
    4.8369   -8.4356    0.0000 C   0  0  0  0  0  0  0  0  0  0  0  0
    4.8369   -9.2606    0.0000 C   0  0  0  0  0  0  0  0  0  0  0  0
    5.5513   -9.6731    0.0000 C   0  0  0  0  0  0  0  0  0  0  0  0
    6.2658   -9.2606    0.0000 C   0  0  0  0  0  0  0  0  0  0  0  0
    6.2658   -8.4356    0.0000 C   0  0  0  0  0  0  0  0  0  0  0  0
  9  1  1  0  0  0  0
  9  2  1  0  0  0  0
  5  3  1  0  0  0  0
  5  4  1  0  0  0  0
  7  5  1  0  0  0  0
  6 13  1  0  0  0  0
  8  7  1  0  0  0  0
 14  8  1  0  0  0  0
  9 14  1  0  0  0  0
 10  9  1  0  0  0  0
 11 10  1  0  0  0  0
 12 11  1  0  0  0  0
 13 12  1  0  0  0  0
 14 13  2  0  0  0  0
M  END
>  <cdx:fragmentId>
5

$$$$
