90993.cdx
  Mrv1902 05222410282D          

 18 17  0  0  0  0            999 V2000
    7.7763   -8.4689    0.0000 C   0  0  0  0  0  0  0  0  0  0  0  0
    7.0619   -8.0564    0.0000 C   0  0  0  0  0  0  0  0  0  0  0  0
    6.3474   -8.4689    0.0000 O   0  0  0  0  0  0  0  0  0  0  0  0
    5.6329   -8.0564    0.0000 C   0  0  0  0  0  0  0  0  0  0  0  0
    4.9184   -8.4689    0.0000 C   0  0  0  0  0  0  0  0  0  0  0  0
    4.2040   -8.0564    0.0000 C   0  0  0  0  0  0  0  0  0  0  0  0
    3.4895   -8.4689    0.0000 C   0  0  0  0  0  0  0  0  0  0  0  0
    2.7750   -8.0564    0.0000 C   0  0  0  0  0  0  0  0  0  0  0  0
    7.0619   -7.2314    0.0000 C   0  0  0  0  0  0  0  0  0  0  0  0
    6.3474   -6.8189    0.0000 C   0  0  0  0  0  0  0  0  0  0  0  0
    7.7763   -6.8189    0.0000 C   0  0  0  0  0  0  0  0  0  0  0  0
    8.4908   -7.2314    0.0000 C   0  0  0  0  0  0  0  0  0  0  0  0
    9.2053   -6.8189    0.0000 C   0  0  0  0  0  0  0  0  0  0  0  0
    5.6329   -7.2314    0.0000 O   0  0  0  0  0  0  0  0  0  0  0  0
    8.4908   -8.8814    0.0000 C   0  0  0  0  0  0  0  0  0  0  0  0
    9.2053   -9.2939    0.0000 C   0  0  0  0  0  0  0  0  0  0  0  0
    9.2053  -10.1189    0.0000 C   0  0  0  0  0  0  0  0  0  0  0  0
    9.9197   -8.8814    0.0000 C   0  0  0  0  0  0  0  0  0  0  0  0
  2  1  1  0  0  0  0
  3  2  1  0  0  0  0
  4  3  1  0  0  0  0
  5  4  1  0  0  0  0
  6  5  1  0  0  0  0
  7  6  1  0  0  0  0
  8  7  1  0  0  0  0
  2  9  1  0  0  0  0
  9 10  1  0  0  0  0
  9 11  1  0  0  0  0
 11 12  1  0  0  0  0
 12 13  1  0  0  0  0
  4 14  2  0  0  0  0
  1 15  3  0  0  0  0
 15 16  1  0  0  0  0
 16 17  2  0  0  0  0
 16 18  1  0  0  0  0
M  END
>  <cdx:fragmentId>
3

$$$$
