90994.cdx
  Mrv1902 05222410262D          

 16 17  0  0  0  0            999 V2000
    4.8931   -7.7126    0.0000 C   0  0  0  0  0  0  0  0  0  0  0  0
    4.8931   -8.5376    0.0000 C   0  0  0  0  0  0  0  0  0  0  0  0
    5.6075   -8.9501    0.0000 C   0  0  0  0  0  0  0  0  0  0  0  0
    6.3220   -8.5376    0.0000 C   0  0  0  0  0  0  0  0  0  0  0  0
    6.3220   -7.7126    0.0000 C   0  0  0  0  0  0  0  0  0  0  0  0
    5.6075   -7.3001    0.0000 C   0  0  0  0  0  0  0  0  0  0  0  0
    5.6075   -6.4751    0.0000 O   0  0  0  0  0  0  0  0  0  0  0  0
    7.0365   -7.3001    0.0000 C   0  0  0  0  0  0  0  0  0  0  0  0
    7.7509   -7.7126    0.0000 C   0  0  0  0  0  0  0  0  0  0  0  0
    7.7509   -8.5376    0.0000 C   0  0  0  0  0  0  0  0  0  0  0  0
    8.4654   -8.9501    0.0000 C   0  0  0  0  0  0  0  0  0  0  0  0
    9.1799   -8.5376    0.0000 C   0  0  0  0  0  0  0  0  0  0  0  0
    9.1799   -7.7126    0.0000 C   0  0  0  0  0  0  0  0  0  0  0  0
    8.4654   -7.3001    0.0000 C   0  0  0  0  0  0  0  0  0  0  0  0
    9.8944   -8.9501    0.0000 O   0  0  0  0  0  0  0  0  0  0  0  0
   10.6088   -8.5376    0.0000 C   0  0  0  0  0  0  0  0  0  0  0  0
  1  2  1  0  0  0  0
  2  3  1  0  0  0  0
  3  4  1  0  0  0  0
  4  5  1  0  0  0  0
  5  6  1  0  0  0  0
  6  1  1  0  0  0  0
  6  7  2  0  0  0  0
  5  8  2  0  0  0  0
  8  9  1  0  0  0  0
  9 10  2  0  0  0  0
 10 11  1  0  0  0  0
 11 12  2  0  0  0  0
 12 13  1  0  0  0  0
 13 14  2  0  0  0  0
 14  9  1  0  0  0  0
 12 15  1  0  0  0  0
 15 16  1  0  0  0  0
M  END
>  <cdx:fragmentId>
5

$$$$
