91000.cdx
  Mrv1902 05222410212D          

 13 13  0  0  0  0            999 V2000
    6.3913   -8.6344    0.0000 C   0  0  0  0  0  0  0  0  0  0  0  0
    5.9788   -9.3489    0.0000 C   0  0  0  0  0  0  0  0  0  0  0  0
    6.3913  -10.0634    0.0000 C   0  0  0  0  0  0  0  0  0  0  0  0
    7.2163  -10.0634    0.0000 C   0  0  0  0  0  0  0  0  0  0  0  0
    7.6288   -9.3489    0.0000 C   0  0  0  0  0  0  0  0  0  0  0  0
    7.2163   -8.6344    0.0000 C   0  0  0  0  0  0  0  0  0  0  0  0
    7.6288  -10.7778    0.0000 C   0  0  0  0  0  0  0  0  0  0  0  0
    8.4538  -10.7778    0.0000 C   0  0  0  0  0  0  0  0  0  0  0  0
    8.8663  -11.4923    0.0000 C   0  0  0  0  0  0  0  0  0  0  0  0
    9.6913  -11.4923    0.0000 O   0  0  0  0  0  0  0  0  0  0  0  0
    5.9788  -10.7778    0.0000 O   0  0  0  0  0  0  0  0  0  0  0  0
    7.6288   -7.9200    0.0000 O   0  0  0  0  0  0  0  0  0  0  0  0
    7.2163   -7.2055    0.0000 C   0  0  0  0  0  0  0  0  0  0  0  0
  1  2  2  0  0  0  0
  2  3  1  0  0  0  0
  3  4  2  0  0  0  0
  4  5  1  0  0  0  0
  5  6  2  0  0  0  0
  6  1  1  0  0  0  0
  4  7  1  0  0  0  0
  7  8  2  0  0  0  0
  8  9  1  0  0  0  0
  9 10  2  0  0  0  0
  3 11  1  0  0  0  0
  6 12  1  0  0  0  0
 12 13  1  0  0  0  0
M  END
>  <cdx:fragmentId>
5

$$$$
