91004.cdx
  Mrv1902 05222410222D          

  8  8  0  0  0  0            999 V2000
    5.6799   -8.9001    0.0000 C   0  0  0  0  0  0  0  0  0  0  0  0
    5.4065   -9.6785    0.0000 C   0  0  0  0  0  0  0  0  0  0  0  0
    6.0624  -10.1790    0.0000 N   0  0  0  0  0  0  0  0  0  0  0  0
    6.7411   -9.7099    0.0000 C   0  0  0  0  0  0  0  0  0  0  0  0
    6.5046   -8.9195    0.0000 C   0  0  0  0  0  0  0  0  0  0  0  0
    7.5195   -9.9832    0.0000 C   0  0  0  0  0  0  0  0  0  0  0  0
    8.1454   -9.4457    0.0000 O   0  0  0  0  0  0  0  0  0  0  0  0
    7.6720  -10.7940    0.0000 O   0  0  0  0  0  0  0  0  0  0  0  0
  1  2  2  0  0  0  0
  2  3  1  0  0  0  0
  3  4  1  0  0  0  0
  4  5  2  0  0  0  0
  5  1  1  0  0  0  0
  4  6  1  0  0  0  0
  6  7  1  0  0  0  0
  6  8  2  0  0  0  0
M  END
>  <cdx:fragmentId>
5

$$$$
