91009.cdx
  Mrv1902 05222410242D          

 47 51  0  0  0  0            999 V2000
    3.3256   -5.5264    0.0000 C   0  0  0  0  0  0  0  0  0  0  0  0
    3.3256   -6.3514    0.0000 C   0  0  0  0  0  0  0  0  0  0  0  0
    4.0400   -6.7639    0.0000 C   0  0  0  0  0  0  0  0  0  0  0  0
    4.7545   -6.3514    0.0000 C   0  0  0  0  0  0  0  0  0  0  0  0
    4.7545   -5.5264    0.0000 C   0  0  0  0  0  0  0  0  0  0  0  0
    4.0400   -5.1139    0.0000 C   0  0  0  0  0  0  0  0  0  0  0  0
    5.4690   -6.7639    0.0000 C   0  0  0  0  0  0  0  0  0  0  0  0
    6.1834   -6.3514    0.0000 C   0  0  0  0  0  0  0  0  0  0  0  0
    6.1834   -5.5264    0.0000 C   0  0  0  0  0  0  0  0  0  0  0  0
    5.4690   -5.1139    0.0000 O   0  0  0  0  0  0  0  0  0  0  0  0
    6.8979   -6.7639    0.0000 O   0  0  0  0  0  0  0  0  0  0  0  0
    7.6124   -5.5264    0.0000 C   0  0  0  0  0  0  0  0  0  0  0  0
    6.8979   -5.1139    0.0000 C   0  0  0  0  0  0  0  0  0  0  0  0
    8.3269   -5.1139    0.0000 C   0  0  0  0  0  0  0  0  0  0  0  0
    8.3269   -4.2889    0.0000 C   0  0  0  0  0  0  0  0  0  0  0  0
    7.6124   -3.8764    0.0000 C   0  0  0  0  0  0  0  0  0  0  0  0
    6.8979   -4.2889    0.0000 C   0  0  0  0  0  0  0  0  0  0  0  0
    4.0400   -7.5889    0.0000 O   0  0  0  0  0  0  0  0  0  0  0  0
    5.4690   -7.5889    0.0000 O   0  0  0  0  0  0  0  0  0  0  0  0
    4.7545   -3.8764    0.0000 C   0  0  0  0  0  0  0  0  0  0  0  0
    4.0400   -4.2889    0.0000 C   0  0  0  0  0  0  0  0  0  0  0  0
    4.7545   -3.0514    0.0000 C   0  0  0  0  0  0  0  0  0  0  0  0
    4.0400   -2.6389    0.0000 C   0  0  0  0  0  0  0  0  0  0  0  0
    5.4690   -2.6389    0.0000 C   0  0  0  0  0  0  0  0  0  0  0  0
    9.0413   -3.8764    0.0000 O   0  0  0  0  0  0  0  0  0  0  0  0
    2.6111   -5.1139    0.0000 O   0  0  0  0  0  0  0  0  0  0  0  0
    9.7558   -4.2889    0.0000 C   0  0  0  0  0  0  0  0  0  0  0  0
    6.8979   -7.5889    0.0000 C   0  0  2  0  0  0  0  0  0  0  0  0
    6.1834   -8.0014    0.0000 O   0  0  0  0  0  0  0  0  0  0  0  0
    6.1834   -8.8264    0.0000 C   0  0  2  0  0  0  0  0  0  0  0  0
    6.8979   -9.2389    0.0000 C   0  0  1  0  0  0  0  0  0  0  0  0
    7.6124   -8.8264    0.0000 C   0  0  2  0  0  0  0  0  0  0  0  0
    7.6124   -8.0014    0.0000 C   0  0  1  0  0  0  0  0  0  0  0  0
    6.8979  -10.0639    0.0000 O   0  0  0  0  0  0  0  0  0  0  0  0
    5.4690   -9.2389    0.0000 C   0  0  0  0  0  0  0  0  0  0  0  0
    8.3269   -7.5889    0.0000 O   0  0  0  0  0  0  0  0  0  0  0  0
    8.3269   -9.2389    0.0000 O   0  0  0  0  0  0  0  0  0  0  0  0
    9.0243   -7.9938    0.0000 C   0  0  2  0  0  0  0  0  0  0  0  0
    9.0265   -8.8188    0.0000 O   0  0  0  0  0  0  0  0  0  0  0  0
    9.7421   -9.2294    0.0000 C   0  0  2  0  0  0  0  0  0  0  0  0
   10.4554   -8.8150    0.0000 C   0  0  1  0  0  0  0  0  0  0  0  0
   10.4532   -7.9900    0.0000 C   0  0  2  0  0  0  0  0  0  0  0  0
    9.7377   -7.5794    0.0000 C   0  0  1  0  0  0  0  0  0  0  0  0
   11.1710   -9.2256    0.0000 O   0  0  0  0  0  0  0  0  0  0  0  0
    9.7443  -10.0544    0.0000 C   0  0  0  0  0  0  0  0  0  0  0  0
    9.7355   -6.7544    0.0000 O   0  0  0  0  0  0  0  0  0  0  0  0
   11.1666   -7.5756    0.0000 O   0  0  0  0  0  0  0  0  0  0  0  0
  1  2  2  0  0  0  0
  2  3  1  0  0  0  0
  3  4  2  0  0  0  0
  4  5  1  0  0  0  0
  5  6  2  0  0  0  0
  6  1  1  0  0  0  0
  4  7  1  0  0  0  0
  7  8  1  0  0  0  0
  8  9  2  0  0  0  0
  9 10  1  0  0  0  0
 10  5  1  0  0  0  0
  8 11  1  0  0  0  0
 12 13  2  0  0  0  0
 13  9  1  0  0  0  0
 12 14  1  0  0  0  0
 14 15  2  0  0  0  0
 15 16  1  0  0  0  0
 16 17  2  0  0  0  0
 17 13  1  0  0  0  0
  3 18  1  0  0  0  0
 19  7  2  0  0  0  0
 20 21  1  0  0  0  0
 21  6  1  0  0  0  0
 20 22  2  0  0  0  0
 22 23  1  0  0  0  0
 22 24  1  0  0  0  0
 15 25  1  0  0  0  0
  1 26  1  0  0  0  0
 25 27  1  0  0  0  0
 28 11  1  1  0  0  0
 28 29  1  0  0  0  0
 29 30  1  0  0  0  0
 30 31  1  0  0  0  0
 31 32  1  0  0  0  0
 32 33  1  0  0  0  0
 33 28  1  0  0  0  0
 31 34  1  1  0  0  0
 30 35  1  6  0  0  0
 33 36  1  6  0  0  0
 32 37  1  6  0  0  0
 38 39  1  0  0  0  0
 39 40  1  0  0  0  0
 40 41  1  0  0  0  0
 41 42  1  0  0  0  0
 42 43  1  0  0  0  0
 43 38  1  0  0  0  0
 41 44  1  1  0  0  0
 40 45  1  6  0  0  0
 43 46  1  6  0  0  0
 42 47  1  6  0  0  0
 38 36  1  1  0  0  0
M  END
>  <cdx:fragmentId>
5

$$$$
