91006.cdx
  Mrv1902 05222410222D          

 16 17  0  0  0  0            999 V2000
    6.4193   -5.5951    0.0000 C   0  0  0  0  0  0  0  0  0  0  0  0
    6.4193   -6.4201    0.0000 C   0  0  0  0  0  0  0  0  0  0  0  0
    7.1338   -6.8326    0.0000 C   0  0  0  0  0  0  0  0  0  0  0  0
    7.8482   -6.4201    0.0000 C   0  0  0  0  0  0  0  0  0  0  0  0
    7.8482   -5.5951    0.0000 C   0  0  0  0  0  0  0  0  0  0  0  0
    7.1338   -5.1826    0.0000 C   0  0  0  0  0  0  0  0  0  0  0  0
    8.5627   -6.8326    0.0000 C   0  0  0  0  0  0  0  0  0  0  0  0
    9.2772   -6.4201    0.0000 C   0  0  0  0  0  0  0  0  0  0  0  0
    9.2772   -5.5951    0.0000 C   0  0  0  0  0  0  0  0  0  0  0  0
    8.5627   -5.1826    0.0000 C   0  0  0  0  0  0  0  0  0  0  0  0
    7.8482   -7.2451    0.0000 C   0  0  0  0  0  0  0  0  0  0  0  0
    8.5627   -4.3576    0.0000 C   0  0  0  0  0  0  0  0  0  0  0  0
    5.7048   -5.1826    0.0000 C   0  0  0  0  0  0  0  0  0  0  0  0
    4.9904   -4.7701    0.0000 O   0  0  0  0  0  0  0  0  0  0  0  0
    6.1173   -4.4682    0.0000 C   0  0  0  0  0  0  0  0  0  0  0  0
    5.2923   -5.8971    0.0000 C   0  0  0  0  0  0  0  0  0  0  0  0
  1  2  1  0  0  0  0
  2  3  1  0  0  0  0
  3  4  1  0  0  0  0
  4  5  1  0  0  0  0
  5  6  2  0  0  0  0
  6  1  1  0  0  0  0
  4  7  1  0  0  0  0
  7  8  1  0  0  0  0
  8  9  1  0  0  0  0
  9 10  1  0  0  0  0
 10  5  1  0  0  0  0
  4 11  1  0  0  0  0
 10 12  1  0  0  0  0
  1 13  1  0  0  0  0
 13 14  1  0  0  0  0
 13 15  1  0  0  0  0
 13 16  1  0  0  0  0
M  END
>  <cdx:fragmentId>
5

$$$$
