91001.cdx
  Mrv1902 05222410212D          

 10  9  0  0  0  0            999 V2000
    8.8504   -6.0489    0.0000 C   0  0  0  0  0  0  0  0  0  0  0  0
    8.1359   -6.4614    0.0000 C   0  0  0  0  0  0  0  0  0  0  0  0
    7.4215   -6.0489    0.0000 C   0  0  0  0  0  0  0  0  0  0  0  0
    6.7070   -6.4614    0.0000 C   0  0  0  0  0  0  0  0  0  0  0  0
    5.9925   -6.0489    0.0000 O   0  0  0  0  0  0  0  0  0  0  0  0
    6.7070   -7.2864    0.0000 O   0  0  0  0  0  0  0  0  0  0  0  0
    7.4215   -5.2239    0.0000 C   0  0  0  0  0  0  0  0  0  0  0  0
    8.1359   -7.2864    0.0000 C   0  0  0  0  0  0  0  0  0  0  0  0
    8.8504   -7.6989    0.0000 C   0  0  0  0  0  0  0  0  0  0  0  0
    7.4215   -7.6989    0.0000 C   0  0  0  0  0  0  0  0  0  0  0  0
  2  1  1  0  0  0  0
  3  2  1  0  0  0  0
  4  3  1  0  0  0  0
  5  4  1  0  0  0  0
  4  6  2  0  0  0  0
  3  7  1  0  0  0  0
  2  8  1  0  0  0  0
  8  9  1  0  0  0  0
  8 10  1  0  0  0  0
M  END
>  <cdx:fragmentId>
3

$$$$
