91002.cdx
  Mrv1902 05222410212D          

 11 11  0  0  0  0            999 V2000
    6.6943   -6.2276    0.0000 C   0  0  0  0  0  0  0  0  0  0  0  0
    6.6943   -7.0526    0.0000 C   0  0  0  0  0  0  0  0  0  0  0  0
    7.4088   -7.4651    0.0000 C   0  0  0  0  0  0  0  0  0  0  0  0
    8.1232   -7.0526    0.0000 C   0  0  0  0  0  0  0  0  0  0  0  0
    8.1232   -6.2276    0.0000 C   0  0  0  0  0  0  0  0  0  0  0  0
    7.4088   -5.8151    0.0000 C   0  0  0  0  0  0  0  0  0  0  0  0
    5.9798   -7.4651    0.0000 O   0  0  0  0  0  0  0  0  0  0  0  0
    7.4088   -8.2901    0.0000 C   0  0  0  0  0  0  0  0  0  0  0  0
    7.4088   -4.9901    0.0000 C   0  0  0  0  0  0  0  0  0  0  0  0
    6.6943   -4.5776    0.0000 C   0  0  0  0  0  0  0  0  0  0  0  0
    8.1232   -4.5776    0.0000 C   0  0  0  0  0  0  0  0  0  0  0  0
  1  2  1  0  0  0  0
  2  3  1  0  0  0  0
  3  4  1  0  0  0  0
  4  5  1  0  0  0  0
  5  6  1  0  0  0  0
  6  1  1  0  0  0  0
  2  7  1  0  0  0  0
  3  8  1  0  0  0  0
  6  9  1  0  0  0  0
  9 10  1  0  0  0  0
  9 11  1  0  0  0  0
M  END
>  <cdx:fragmentId>
5

$$$$
