91005.cdx
  Mrv1902 05222410222D          

 16 17  0  0  0  0            999 V2000
    5.2918   -7.5339    0.0000 C   0  0  0  0  0  0  0  0  0  0  0  0
    5.2918   -8.3589    0.0000 C   0  0  0  0  0  0  0  0  0  0  0  0
    6.0063   -8.7714    0.0000 C   0  0  0  0  0  0  0  0  0  0  0  0
    6.7207   -8.3589    0.0000 C   0  0  0  0  0  0  0  0  0  0  0  0
    6.7207   -7.5339    0.0000 C   0  0  0  0  0  0  0  0  0  0  0  0
    6.0063   -7.1214    0.0000 C   0  0  0  0  0  0  0  0  0  0  0  0
    7.4352   -8.7714    0.0000 C   0  0  0  0  0  0  0  0  0  0  0  0
    8.1497   -8.3589    0.0000 C   0  0  0  0  0  0  0  0  0  0  0  0
    8.1497   -7.5339    0.0000 C   0  0  0  0  0  0  0  0  0  0  0  0
    7.4352   -7.1214    0.0000 C   0  0  0  0  0  0  0  0  0  0  0  0
    6.7207   -9.1839    0.0000 C   0  0  0  0  0  0  0  0  0  0  0  0
    7.4352   -6.2964    0.0000 C   0  0  0  0  0  0  0  0  0  0  0  0
    4.5773   -7.1214    0.0000 C   0  0  0  0  0  0  0  0  0  0  0  0
    3.8629   -6.7089    0.0000 O   0  0  0  0  0  0  0  0  0  0  0  0
    4.9898   -6.4069    0.0000 C   0  0  0  0  0  0  0  0  0  0  0  0
    4.1648   -7.8359    0.0000 C   0  0  0  0  0  0  0  0  0  0  0  0
  1  2  1  0  0  0  0
  2  3  1  0  0  0  0
  3  4  1  0  0  0  0
  4  5  1  0  0  0  0
  5  6  1  0  0  0  0
  6  1  1  0  0  0  0
  4  7  1  0  0  0  0
  7  8  1  0  0  0  0
  8  9  1  0  0  0  0
  9 10  1  0  0  0  0
 10  5  1  0  0  0  0
  4 11  1  0  0  0  0
 10 12  2  0  0  0  0
  1 13  1  0  0  0  0
 13 14  1  0  0  0  0
 13 15  1  0  0  0  0
 13 16  1  0  0  0  0
M  END
>  <cdx:fragmentId>
5

$$$$
