91014.cdx
  Mrv1902 05222410212D          

 13 13  0  0  0  0            999 V2000
    9.7347   -7.1214    0.0000 C   0  0  0  0  0  0  0  0  0  0  0  0
    9.0203   -7.5339    0.0000 C   0  0  0  0  0  0  0  0  0  0  0  0
    8.3058   -7.1214    0.0000 C   0  0  0  0  0  0  0  0  0  0  0  0
    7.5913   -7.5339    0.0000 S   0  0  0  0  0  0  0  0  0  0  0  0
    6.8768   -7.1214    0.0000 S   0  0  0  0  0  0  0  0  0  0  0  0
    6.1624   -7.5339    0.0000 S   0  0  0  0  0  0  0  0  0  0  0  0
    5.4479   -7.1214    0.0000 C   0  0  0  0  0  0  0  0  0  0  0  0
    4.0190   -7.1214    0.0000 C   0  0  0  0  0  0  0  0  0  0  0  0
    3.3045   -7.5339    0.0000 S   0  0  0  0  0  0  0  0  0  0  0  0
    3.3045   -8.3589    0.0000 C   0  0  0  0  0  0  0  0  0  0  0  0
    4.0190   -8.7714    0.0000 C   0  0  0  0  0  0  0  0  0  0  0  0
    4.7334   -8.3589    0.0000 C   0  0  0  0  0  0  0  0  0  0  0  0
    4.7334   -7.5339    0.0000 C   0  0  0  0  0  0  0  0  0  0  0  0
  2  1  1  0  0  0  0
  3  2  2  0  0  0  0
  4  3  1  0  0  0  0
  5  4  1  0  0  0  0
  6  5  1  0  0  0  0
  7  6  1  0  0  0  0
 13  7  1  0  0  0  0
  8 13  1  0  0  0  0
  9  8  1  0  0  0  0
 10  9  1  0  0  0  0
 11 10  2  0  0  0  0
 12 11  1  0  0  0  0
 13 12  1  0  0  0  0
M  END
>  <cdx:fragmentId>
5

$$$$
