91010.cdx
  Mrv1902 05222410222D          

 42 46  0  0  0  0            999 V2000
    9.2112   -8.7032    0.0000 C   0  0  0  0  0  0  0  0  0  0  0  0
    9.2112   -7.8782    0.0000 C   0  0  0  0  0  0  0  0  0  0  0  0
    8.4967   -7.4657    0.0000 C   0  0  0  0  0  0  0  0  0  0  0  0
    7.7822   -7.8782    0.0000 C   0  0  0  0  0  0  0  0  0  0  0  0
    7.0678   -7.4657    0.0000 C   0  0  0  0  0  0  0  0  0  0  0  0
    6.3533   -7.8782    0.0000 C   0  0  0  0  0  0  0  0  0  0  0  0
    6.3533   -8.7032    0.0000 C   0  0  0  0  0  0  0  0  0  0  0  0
    7.0678   -9.1157    0.0000 C   0  0  0  0  0  0  0  0  0  0  0  0
    7.7822   -8.7032    0.0000 C   0  0  0  0  0  0  0  0  0  0  0  0
    8.4967   -9.1157    0.0000 O   0  0  0  0  0  0  0  0  0  0  0  0
    8.4967   -6.6407    0.0000 O   0  0  0  0  0  0  0  0  0  0  0  0
    9.9256   -9.1157    0.0000 C   0  0  0  0  0  0  0  0  0  0  0  0
   10.6401   -8.7032    0.0000 C   0  0  0  0  0  0  0  0  0  0  0  0
   11.3546   -9.1157    0.0000 C   0  0  0  0  0  0  0  0  0  0  0  0
   11.3546   -9.9407    0.0000 C   0  0  0  0  0  0  0  0  0  0  0  0
   10.6401  -10.3532    0.0000 C   0  0  0  0  0  0  0  0  0  0  0  0
    9.9256   -9.9407    0.0000 C   0  0  0  0  0  0  0  0  0  0  0  0
   12.0691  -10.3532    0.0000 O   0  0  0  0  0  0  0  0  0  0  0  0
    5.6388   -9.1157    0.0000 O   0  0  0  0  0  0  0  0  0  0  0  0
    7.0678   -6.6407    0.0000 O   0  0  0  0  0  0  0  0  0  0  0  0
    4.9244   -7.8782    0.0000 O   0  0  0  0  0  0  0  0  0  0  0  0
    5.6388   -7.4657    0.0000 C   0  0  2  0  0  0  0  0  0  0  0  0
    5.6388   -6.6407    0.0000 C   0  0  1  0  0  0  0  0  0  0  0  0
    4.9244   -6.2282    0.0000 C   0  0  2  0  0  0  0  0  0  0  0  0
    4.2099   -6.6407    0.0000 C   0  0  1  0  0  0  0  0  0  0  0  0
    4.2099   -7.4657    0.0000 C   0  0  1  0  0  0  0  0  0  0  0  0
    6.3533   -6.2282    0.0000 O   0  0  0  0  0  0  0  0  0  0  0  0
    5.6388   -4.9907    0.0000 O   0  0  0  0  0  0  0  0  0  0  0  0
    6.3533   -5.4032    0.0000 C   0  0  2  0  0  0  0  0  0  0  0  0
    7.0678   -4.9907    0.0000 C   0  0  1  0  0  0  0  0  0  0  0  0
    7.0678   -4.1657    0.0000 C   0  0  1  0  0  0  0  0  0  0  0  0
    6.3533   -3.7532    0.0000 C   0  0  2  0  0  0  0  0  0  0  0  0
    5.6388   -4.1657    0.0000 C   0  0  2  0  0  0  0  0  0  0  0  0
    4.9244   -3.7532    0.0000 C   0  0  0  0  0  0  0  0  0  0  0  0
    6.3533   -2.9282    0.0000 O   0  0  0  0  0  0  0  0  0  0  0  0
    7.7822   -3.7532    0.0000 O   0  0  0  0  0  0  0  0  0  0  0  0
    7.7822   -5.4032    0.0000 O   0  0  0  0  0  0  0  0  0  0  0  0
    3.4954   -7.8782    0.0000 C   0  0  0  0  0  0  0  0  0  0  0  0
    2.7809   -7.4657    0.0000 O   0  0  0  0  0  0  0  0  0  0  0  0
    3.4954   -6.2282    0.0000 O   0  0  0  0  0  0  0  0  0  0  0  0
    4.9244   -5.4032    0.0000 O   0  0  0  0  0  0  0  0  0  0  0  0
    5.6388   -8.2907    0.0000 H   0  0  0  0  0  0  0  0  0  0  0  0
  1  2  2  0  0  0  0
  2  3  1  0  0  0  0
  3  4  1  0  0  0  0
  4  5  1  0  0  0  0
  5  6  2  0  0  0  0
  6  7  1  0  0  0  0
  7  8  2  0  0  0  0
  8  9  1  0  0  0  0
  4  9  2  0  0  0  0
  9 10  1  0  0  0  0
  1 10  1  0  0  0  0
  3 11  2  0  0  0  0
 12 13  1  0  0  0  0
 13 14  2  0  0  0  0
 14 15  1  0  0  0  0
 15 16  2  0  0  0  0
 16 17  1  0  0  0  0
 12 17  2  0  0  0  0
 15 18  1  0  0  0  0
  1 12  1  0  0  0  0
  7 19  1  0  0  0  0
  5 20  1  0  0  0  0
 21 22  1  0  0  0  0
 22 23  1  0  0  0  0
 23 24  1  0  0  0  0
 24 25  1  0  0  0  0
 25 26  1  0  0  0  0
 21 26  1  0  0  0  0
 28 29  1  0  0  0  0
 29 30  1  0  0  0  0
 30 31  1  0  0  0  0
 31 32  1  0  0  0  0
 32 33  1  0  0  0  0
 28 33  1  0  0  0  0
 33 34  1  1  0  0  0
 32 35  1  6  0  0  0
 31 36  1  1  0  0  0
 30 37  1  1  0  0  0
 29 27  1  6  0  0  0
 23 27  1  1  0  0  0
 38 39  1  0  0  0  0
 26 38  1  6  0  0  0
 25 40  1  1  0  0  0
 24 41  1  6  0  0  0
 22  6  1  0  0  0  0
 22 42  1  1  0  0  0
M  END
>  <cdx:fragmentId>
187

$$$$
