91017.cdx
  Mrv1902 05222410202D          

 14 14  0  0  0  0            999 V2000
    5.6632  -10.4324    0.0000 C   0  0  0  0  0  0  0  0  0  0  0  0
    4.9484  -10.8444    0.0000 C   0  0  0  0  0  0  0  0  0  0  0  0
    4.9478  -11.6694    0.0000 C   0  0  0  0  0  0  0  0  0  0  0  0
    5.6620  -12.0824    0.0000 C   0  0  0  0  0  0  0  0  0  0  0  0
    6.3767  -11.6704    0.0000 C   0  0  0  0  0  0  0  0  0  0  0  0
    6.3773  -10.8454    0.0000 C   0  0  0  0  0  0  0  0  0  0  0  0
    7.0921  -10.4334    0.0000 C   0  0  0  0  0  0  0  0  0  0  0  0
    7.8063  -10.8464    0.0000 C   0  0  0  0  0  0  0  0  0  0  0  0
    8.5210  -10.4344    0.0000 C   0  0  0  0  0  0  0  0  0  0  0  0
    7.8057  -11.6714    0.0000 C   0  0  0  0  0  0  0  0  0  0  0  0
    8.5199  -12.0844    0.0000 O   0  0  0  0  0  0  0  0  0  0  0  0
    7.0909  -12.0834    0.0000 O   0  0  0  0  0  0  0  0  0  0  0  0
    8.5216   -9.6094    0.0000 C   0  0  0  0  0  0  0  0  0  0  0  0
    9.2352  -10.8474    0.0000 N   0  0  0  0  0  0  0  0  0  0  0  0
  1  2  2  0  0  0  0
  2  3  1  0  0  0  0
  3  4  2  0  0  0  0
  4  5  1  0  0  0  0
  5  6  2  0  0  0  0
  6  1  1  0  0  0  0
  6  7  1  0  0  0  0
  7  8  1  0  0  0  0
  8  9  1  0  0  0  0
  8 10  1  0  0  0  0
 10 11  1  0  0  0  0
 10 12  2  0  0  0  0
  9 13  1  0  0  0  0
  9 14  1  0  0  0  0
M  END
>  <cdx:fragmentId>
5

$$$$
