91019.cdx
  Mrv1902 05222410252D          

 27 28  0  0  0  0            999 V2000
    3.5318   -7.6576    0.0000 C   0  0  0  0  0  0  0  0  0  0  0  0
    3.5318   -8.4826    0.0000 C   0  0  0  0  0  0  0  0  0  0  0  0
    4.2463   -8.8951    0.0000 C   0  0  0  0  0  0  0  0  0  0  0  0
    4.9607   -8.4826    0.0000 C   0  0  0  0  0  0  0  0  0  0  0  0
    4.9607   -7.6576    0.0000 C   0  0  0  0  0  0  0  0  0  0  0  0
    4.2463   -7.2451    0.0000 C   0  0  0  0  0  0  0  0  0  0  0  0
    5.6752   -8.8951    0.0000 C   0  0  0  0  0  0  0  0  0  0  0  0
    6.3897   -8.4826    0.0000 C   0  0  0  0  0  0  0  0  0  0  0  0
    6.3897   -7.6576    0.0000 C   0  0  0  0  0  0  0  0  0  0  0  0
    5.6752   -7.2451    0.0000 C   0  0  0  0  0  0  0  0  0  0  0  0
    4.2463   -6.4201    0.0000 O   0  0  0  0  0  0  0  0  0  0  0  0
    4.2463   -9.7201    0.0000 O   0  0  0  0  0  0  0  0  0  0  0  0
    5.6752   -6.4201    0.0000 O   0  0  0  0  0  0  0  0  0  0  0  0
    5.6752   -9.7201    0.0000 O   0  0  0  0  0  0  0  0  0  0  0  0
    7.1042   -7.2451    0.0000 C   0  0  1  0  0  0  0  0  0  0  0  0
    7.8186   -7.6576    0.0000 C   0  0  0  0  0  0  0  0  0  0  0  0
    8.5331   -7.2451    0.0000 C   0  0  0  0  0  0  0  0  0  0  0  0
    9.2476   -7.6576    0.0000 C   0  0  0  0  0  0  0  0  0  0  0  0
    9.9620   -7.2451    0.0000 C   0  0  0  0  0  0  0  0  0  0  0  0
    9.2476   -8.4826    0.0000 C   0  0  0  0  0  0  0  0  0  0  0  0
    7.1042   -6.4201    0.0000 O   0  0  0  0  0  0  0  0  0  0  0  0
    7.8186   -6.0076    0.0000 C   0  0  0  0  0  0  0  0  0  0  0  0
    8.5331   -6.4201    0.0000 O   0  0  0  0  0  0  0  0  0  0  0  0
    7.8186   -5.1826    0.0000 C   0  0  0  0  0  0  0  0  0  0  0  0
    8.6436   -5.1826    0.0000 C   0  0  0  0  0  0  0  0  0  0  0  0
    6.9936   -5.1826    0.0000 C   0  0  0  0  0  0  0  0  0  0  0  0
    7.8186   -4.3576    0.0000 C   0  0  0  0  0  0  0  0  0  0  0  0
  1  2  1  0  0  0  0
  2  3  2  0  0  0  0
  3  4  1  0  0  0  0
  4  5  2  0  0  0  0
  5  6  1  0  0  0  0
  6  1  2  0  0  0  0
  4  7  1  0  0  0  0
  7  8  1  0  0  0  0
  8  9  2  0  0  0  0
  9 10  1  0  0  0  0
 10  5  1  0  0  0  0
  6 11  1  0  0  0  0
  3 12  1  0  0  0  0
 10 13  2  0  0  0  0
  7 14  2  0  0  0  0
  9 15  1  0  0  0  0
 15 16  1  0  0  0  0
 16 17  1  0  0  0  0
 17 18  2  0  0  0  0
 18 19  1  0  0  0  0
 18 20  1  0  0  0  0
 15 21  1  6  0  0  0
 21 22  1  0  0  0  0
 22 23  2  0  0  0  0
 22 24  1  0  0  0  0
 24 25  1  0  0  0  0
 24 26  1  0  0  0  0
 24 27  1  0  0  0  0
M  END
>  <cdx:fragmentId>
5

$$$$
