91023.cdx
  Mrv1902 05222410232D          

 14 14  0  0  0  0            999 V2000
    6.5018   -9.9539    0.0000 C   0  0  2  0  0  0  0  0  0  0  0  0
    6.5018  -10.7789    0.0000 C   0  0  1  0  0  0  0  0  0  0  0  0
    7.2163  -11.1914    0.0000 C   0  0  1  0  0  0  0  0  0  0  0  0
    7.9307  -10.7789    0.0000 C   0  0  2  0  0  0  0  0  0  0  0  0
    7.9307   -9.9539    0.0000 C   0  0  2  0  0  0  0  0  0  0  0  0
    7.2163   -9.5414    0.0000 O   0  0  0  0  0  0  0  0  0  0  0  0
    5.7873   -9.5414    0.0000 C   0  0  0  0  0  0  0  0  0  0  0  0
    5.7873  -11.1914    0.0000 O   0  0  0  0  0  0  0  0  0  0  0  0
    7.2163  -12.0164    0.0000 O   0  0  0  0  0  0  0  0  0  0  0  0
    8.6452  -11.1914    0.0000 O   0  0  0  0  0  0  0  0  0  0  0  0
    8.6452   -9.5414    0.0000 O   0  0  0  0  0  0  0  0  0  0  0  0
    5.0729   -9.9539    0.0000 O   0  0  0  0  0  0  0  0  0  0  0  0
    9.3597   -9.9539    0.0000 C   0  0  0  0  0  0  0  0  0  0  0  0
   10.0742   -9.5414    0.0000 C   0  0  0  0  0  0  0  0  0  0  0  0
  1  2  1  0  0  0  0
  2  3  1  0  0  0  0
  3  4  1  0  0  0  0
  4  5  1  0  0  0  0
  5  6  1  0  0  0  0
  6  1  1  0  0  0  0
  1  7  1  1  0  0  0
  2  8  1  1  0  0  0
  3  9  1  1  0  0  0
  4 10  1  6  0  0  0
  5 11  1  6  0  0  0
  7 12  1  0  0  0  0
 11 13  1  0  0  0  0
 13 14  1  0  0  0  0
M  END
>  <cdx:fragmentId>
5

$$$$
