910256.cdx
  Mrv1902 05222410232D          

 31 34  0  0  0  0            999 V2000
    6.3145   -8.0025    0.0000 C   0  0  0  0  0  0  0  0  0  0  0  0
    6.3145   -8.8275    0.0000 C   0  0  0  0  0  0  0  0  0  0  0  0
    7.0290   -9.2400    0.0000 C   0  0  0  0  0  0  0  0  0  0  0  0
    7.7435   -8.8275    0.0000 C   0  0  0  0  0  0  0  0  0  0  0  0
    7.7435   -8.0025    0.0000 C   0  0  0  0  0  0  0  0  0  0  0  0
    7.0290   -7.5900    0.0000 C   0  0  0  0  0  0  0  0  0  0  0  0
    8.4579   -9.2400    0.0000 C   0  0  0  0  0  0  0  0  0  0  0  0
    9.1724   -8.8275    0.0000 C   0  0  0  0  0  0  0  0  0  0  0  0
    9.1724   -8.0025    0.0000 C   0  0  0  0  0  0  0  0  0  0  0  0
    8.4579   -7.5900    0.0000 C   0  0  0  0  0  0  0  0  0  0  0  0
    9.8869   -9.2400    0.0000 C   0  0  0  0  0  0  0  0  0  0  0  0
   10.6014   -8.8275    0.0000 C   0  0  0  0  0  0  0  0  0  0  0  0
   10.6014   -8.0025    0.0000 C   0  0  0  0  0  0  0  0  0  0  0  0
    9.8869   -7.5900    0.0000 C   0  0  0  0  0  0  0  0  0  0  0  0
    9.8869   -6.7650    0.0000 O   0  0  0  0  0  0  0  0  0  0  0  0
    7.0290   -6.7650    0.0000 O   0  0  0  0  0  0  0  0  0  0  0  0
    8.4579   -6.7650    0.0000 O   0  0  0  0  0  0  0  0  0  0  0  0
    8.4579  -10.0650    0.0000 O   0  0  0  0  0  0  0  0  0  0  0  0
   11.3158   -9.2400    0.0000 O   0  0  0  0  0  0  0  0  0  0  0  0
    2.6867   -7.6416    0.0000 O   0  0  0  0  0  0  0  0  0  0  0  0
    2.6665   -9.2915    0.0000 O   0  0  0  0  0  0  0  0  0  0  0  0
    3.4111   -6.4217    0.0000 O   0  0  0  0  0  0  0  0  0  0  0  0
    4.1256   -6.8342    0.0000 C   0  0  0  0  0  0  0  0  0  0  0  0
    4.8249   -8.0803    0.0000 O   0  0  0  0  0  0  0  0  0  0  0  0
    4.1155   -7.6591    0.0000 C   0  0  1  0  0  0  0  0  0  0  0  0
    3.3961   -8.0628    0.0000 C   0  0  2  0  0  0  0  0  0  0  0  0
    3.3860   -8.8878    0.0000 C   0  0  1  0  0  0  0  0  0  0  0  0
    4.8148   -8.9052    0.0000 C   0  0  2  0  0  0  0  0  0  0  0  0
    4.0954   -9.3090    0.0000 C   0  0  2  0  0  0  0  0  0  0  0  0
    4.0853  -10.1339    0.0000 O   0  0  0  0  0  0  0  0  0  0  0  0
    5.5311   -9.3325    0.0000 O   0  0  0  0  0  0  0  0  0  0  0  0
  1  2  1  0  0  0  0
  2  3  2  0  0  0  0
  3  4  1  0  0  0  0
  4  5  2  0  0  0  0
  5  6  1  0  0  0  0
  6  1  2  0  0  0  0
  4  7  1  0  0  0  0
  7  8  1  0  0  0  0
  8  9  2  0  0  0  0
  9 10  1  0  0  0  0
 10  5  1  0  0  0  0
  8 11  1  0  0  0  0
 11 12  2  0  0  0  0
 12 13  1  0  0  0  0
 13 14  2  0  0  0  0
 14  9  1  0  0  0  0
 15 14  1  0  0  0  0
  6 16  1  0  0  0  0
 10 17  2  0  0  0  0
  7 18  2  0  0  0  0
 12 19  1  0  0  0  0
 28 31  1  1  0  0  0
 26 20  1  6  0  0  0
 27 21  1  1  0  0  0
 23 22  1  0  0  0  0
 25 23  1  1  0  0  0
 24 28  1  0  0  0  0
 25 24  1  0  0  0  0
 26 25  1  0  0  0  0
 27 26  1  0  0  0  0
 29 27  1  0  0  0  0
 29 28  1  0  0  0  0
 29 30  1  6  0  0  0
  2 31  1  0  0  0  0
M  END
>  <cdx:fragmentId>
5

$$$$
