9102.cdx
  Mrv1902 05222410252D          

 34 36  0  0  0  0            999 V2000
    3.0764   -6.7237    0.0000 C   0  0  0  0  0  0  0  0  0  0  0  0
    3.0764   -7.5488    0.0000 C   0  0  0  0  0  0  0  0  0  0  0  0
    3.7909   -7.9612    0.0000 C   0  0  0  0  0  0  0  0  0  0  0  0
    4.5053   -7.5488    0.0000 C   0  0  0  0  0  0  0  0  0  0  0  0
    4.5053   -6.7237    0.0000 C   0  0  0  0  0  0  0  0  0  0  0  0
    3.7909   -6.3113    0.0000 C   0  0  0  0  0  0  0  0  0  0  0  0
    2.3619   -6.3113    0.0000 O   0  0  0  0  0  0  0  0  0  0  0  0
    2.3619   -7.9612    0.0000 O   0  0  0  0  0  0  0  0  0  0  0  0
    5.2198   -6.3113    0.0000 C   0  0  0  0  0  0  0  0  0  0  0  0
    5.9343   -6.7237    0.0000 C   0  0  0  0  0  0  0  0  0  0  0  0
    6.6488   -6.3113    0.0000 C   0  0  0  0  0  0  0  0  0  0  0  0
    7.3632   -6.7237    0.0000 O   0  0  0  0  0  0  0  0  0  0  0  0
    6.6488   -5.4863    0.0000 O   0  0  0  0  0  0  0  0  0  0  0  0
    8.0777   -6.3113    0.0000 C   0  0  1  0  0  0  0  0  0  0  0  0
    8.7922   -6.7237    0.0000 C   0  0  1  0  0  0  0  0  0  0  0  0
    9.5066   -6.3113    0.0000 C   0  0  2  0  0  0  0  0  0  0  0  0
    9.5066   -5.4863    0.0000 C   0  0  1  0  0  0  0  0  0  0  0  0
    8.7922   -5.0737    0.0000 O   0  0  0  0  0  0  0  0  0  0  0  0
    8.0777   -5.4863    0.0000 C   0  0  2  0  0  0  0  0  0  0  0  0
    7.3632   -5.0737    0.0000 C   0  0  0  0  0  0  0  0  0  0  0  0
   10.2211   -5.0737    0.0000 O   0  0  0  0  0  0  0  0  0  0  0  0
    8.7922   -7.5488    0.0000 O   0  0  0  0  0  0  0  0  0  0  0  0
   10.2211   -6.7237    0.0000 O   0  0  0  0  0  0  0  0  0  0  0  0
    8.0777   -7.9612    0.0000 C   0  0  2  0  0  0  0  0  0  0  0  0
    7.3632   -7.5488    0.0000 O   0  0  0  0  0  0  0  0  0  0  0  0
    6.6488   -7.9612    0.0000 C   0  0  2  0  0  0  0  0  0  0  0  0
    6.6488   -8.7862    0.0000 C   0  0  1  0  0  0  0  0  0  0  0  0
    7.3632   -9.1987    0.0000 C   0  0  2  0  0  0  0  0  0  0  0  0
    8.0777   -8.7862    0.0000 C   0  0  1  0  0  0  0  0  0  0  0  0
    5.9343   -9.1987    0.0000 O   0  0  0  0  0  0  0  0  0  0  0  0
    5.9343   -7.5488    0.0000 C   0  0  0  0  0  0  0  0  0  0  0  0
    7.3632  -10.0238    0.0000 O   0  0  0  0  0  0  0  0  0  0  0  0
    8.7922   -9.1987    0.0000 O   0  0  0  0  0  0  0  0  0  0  0  0
    7.3632   -4.2488    0.0000 O   0  0  0  0  0  0  0  0  0  0  0  0
  1  2  2  0  0  0  0
  2  3  1  0  0  0  0
  3  4  2  0  0  0  0
  4  5  1  0  0  0  0
  5  6  2  0  0  0  0
  6  1  1  0  0  0  0
  1  7  1  0  0  0  0
  2  8  1  0  0  0  0
  5  9  1  0  0  0  0
  9 10  2  0  0  0  0
 10 11  1  0  0  0  0
 11 12  1  0  0  0  0
 11 13  2  0  0  0  0
 14 12  1  6  0  0  0
 14 15  1  0  0  0  0
 15 16  1  0  0  0  0
 16 17  1  0  0  0  0
 17 18  1  0  0  0  0
 18 19  1  0  0  0  0
 19 14  1  0  0  0  0
 19 20  1  1  0  0  0
 17 21  1  1  0  0  0
 15 22  1  1  0  0  0
 16 23  1  6  0  0  0
 24 22  1  1  0  0  0
 24 25  1  0  0  0  0
 25 26  1  0  0  0  0
 26 27  1  0  0  0  0
 27 28  1  0  0  0  0
 28 29  1  0  0  0  0
 29 24  1  0  0  0  0
 27 30  1  1  0  0  0
 26 31  1  6  0  0  0
 28 32  1  6  0  0  0
 29 33  1  6  0  0  0
 20 34  1  0  0  0  0
M  END
>  <cdx:fragmentId>
5

$$$$
