91025.cdx
  Mrv1902 05222410252D          

 26 29  0  0  0  0            999 V2000
    5.0581   -8.6064    0.0000 C   0  0  0  0  0  0  0  0  0  0  0  0
    5.0581   -9.4314    0.0000 C   0  0  0  0  0  0  0  0  0  0  0  0
    5.7725   -9.8439    0.0000 N   0  0  0  0  0  0  0  0  0  0  0  0
    6.4870   -9.4314    0.0000 C   0  0  2  0  0  0  0  0  0  0  0  0
    6.4870   -8.6064    0.0000 C   0  0  1  0  0  0  0  0  0  0  0  0
    5.7725   -8.1939    0.0000 C   0  0  0  0  0  0  0  0  0  0  0  0
    7.2015   -9.8439    0.0000 C   0  0  0  0  0  0  0  0  0  0  0  0
    7.9159   -9.4314    0.0000 C   0  0  1  0  0  0  0  0  0  0  0  0
    7.9159   -8.6064    0.0000 C   0  0  1  0  0  0  0  0  0  0  0  0
    7.2015   -8.1939    0.0000 C   0  0  0  0  0  0  0  0  0  0  0  0
    5.7725  -10.6689    0.0000 C   0  0  0  0  0  0  0  0  0  0  0  0
    6.4870  -11.0814    0.0000 C   0  0  0  0  0  0  0  0  0  0  0  0
    7.2015  -10.6689    0.0000 C   0  0  0  0  0  0  0  0  0  0  0  0
    8.7409   -9.4314    0.0000 O   0  0  0  0  0  0  0  0  0  0  0  0
    8.3284  -10.1459    0.0000 H   0  0  0  0  0  0  0  0  0  0  0  0
    8.6304   -8.1939    0.0000 H   0  0  0  0  0  0  0  0  0  0  0  0
    6.9879   -7.3970    0.0000 C   0  0  1  0  0  0  0  0  0  0  0  0
    6.1629   -7.3970    0.0000 C   0  0  2  0  0  0  0  0  0  0  0  0
    6.5754   -6.6825    0.0000 O   0  0  0  0  0  0  0  0  0  0  0  0
    5.7432   -8.8126    0.0000 C   0  0  0  0  0  0  0  0  0  0  0  0
    5.6694   -6.7359    0.0000 C   0  0  0  0  0  0  0  0  0  0  0  0
    5.7720   -7.7676    0.0000 H   0  0  0  0  0  0  0  0  0  0  0  0
    9.1534  -10.1459    0.0000 C   0  0  0  0  0  0  0  0  0  0  0  0
    9.9784  -10.1459    0.0000 C   0  0  0  0  0  0  0  0  0  0  0  0
    8.7409  -10.8603    0.0000 O   0  0  0  0  0  0  0  0  0  0  0  0
    7.4004   -6.6825    0.0000 H   0  0  0  0  0  0  0  0  0  0  0  0
  1  2  1  0  0  0  0
  2  3  1  0  0  0  0
  3  4  1  0  0  0  0
  4  5  1  0  0  0  0
  5  6  1  0  0  0  0
  6  1  1  0  0  0  0
  4  7  1  0  0  0  0
  7  8  1  0  0  0  0
  8  9  1  0  0  0  0
  9 10  1  0  0  0  0
 10  5  1  0  0  0  0
  3 11  1  0  0  0  0
 11 12  1  0  0  0  0
 12 13  1  0  0  0  0
 13  7  1  0  0  0  0
  8 14  1  1  0  0  0
  8 15  1  6  0  0  0
  9 16  1  6  0  0  0
 10 17  1  0  0  0  0
 17 18  1  0  0  0  0
 17 19  1  1  0  0  0
 18 20  1  0  0  0  0
  4 20  1  1  0  0  0
 18 21  1  6  0  0  0
  5 22  1  6  0  0  0
 14 23  1  0  0  0  0
 23 24  1  0  0  0  0
 23 25  2  0  0  0  0
 17 26  1  6  0  0  0
M  END
>  <cdx:fragmentId>
5

$$$$
