91024.cdx
  Mrv1902 05222410252D          

 17 19  0  0  0  0            999 V2000
    4.0241   -8.5436    0.0000 C   0  0  0  0  0  0  0  0  0  0  0  0
    4.2956   -7.7646    0.0000 C   0  0  0  0  0  0  0  0  0  0  0  0
    5.1204   -7.7821    0.0000 S   0  0  0  0  0  0  0  0  0  0  0  0
    5.3587   -8.5719    0.0000 C   0  0  0  0  0  0  0  0  0  0  0  0
    4.6811   -9.0426    0.0000 C   0  0  0  0  0  0  0  0  0  0  0  0
    6.1377   -8.8435    0.0000 C   0  0  0  0  0  0  0  0  0  0  0  0
    6.8153   -8.3728    0.0000 S   0  0  0  0  0  0  0  0  0  0  0  0
    7.4723   -8.8718    0.0000 C   0  0  0  0  0  0  0  0  0  0  0  0
    7.2007   -9.6508    0.0000 C   0  0  0  0  0  0  0  0  0  0  0  0
    6.3759   -9.6333    0.0000 C   0  0  0  0  0  0  0  0  0  0  0  0
    8.2621   -8.6335    0.0000 C   0  0  0  0  0  0  0  0  0  0  0  0
    8.9191   -9.1325    0.0000 C   0  0  0  0  0  0  0  0  0  0  0  0
    9.5967   -8.6619    0.0000 C   0  0  0  0  0  0  0  0  0  0  0  0
    9.3585   -7.8720    0.0000 C   0  0  0  0  0  0  0  0  0  0  0  0
    8.5336   -7.8545    0.0000 S   0  0  0  0  0  0  0  0  0  0  0  0
    9.8574   -7.2150    0.0000 C   0  0  0  0  0  0  0  0  0  0  0  0
   10.6759   -7.3186    0.0000 O   0  0  0  0  0  0  0  0  0  0  0  0
  1  2  2  0  0  0  0
  2  3  1  0  0  0  0
  3  4  1  0  0  0  0
  4  5  2  0  0  0  0
  5  1  1  0  0  0  0
  4  6  1  0  0  0  0
  6  7  1  0  0  0  0
  7  8  1  0  0  0  0
  8  9  2  0  0  0  0
  9 10  1  0  0  0  0
 10  6  2  0  0  0  0
  8 11  1  0  0  0  0
 11 12  2  0  0  0  0
 12 13  1  0  0  0  0
 13 14  2  0  0  0  0
 14 15  1  0  0  0  0
 15 11  1  0  0  0  0
 14 16  1  0  0  0  0
 16 17  2  0  0  0  0
M  END
>  <cdx:fragmentId>
5

$$$$
