91027.cdx
  Mrv1902 05222410252D          

 12 12  0  0  0  0            999 V2000
    6.4821   -3.3220    0.0000 C   0  0  0  0  0  0  0  0  0  0  0  0
    6.0696   -4.0364    0.0000 C   0  0  0  0  0  0  0  0  0  0  0  0
    6.7841   -4.4489    0.0000 C   0  0  0  0  0  0  0  0  0  0  0  0
    7.4986   -4.0364    0.0000 C   0  0  0  0  0  0  0  0  0  0  0  0
    8.2130   -4.4489    0.0000 C   0  0  0  0  0  0  0  0  0  0  0  0
    8.9275   -4.0364    0.0000 C   0  0  0  0  0  0  0  0  0  0  0  0
    8.9275   -3.2114    0.0000 C   0  0  0  0  0  0  0  0  0  0  0  0
    5.6571   -3.3220    0.0000 O   0  0  0  0  0  0  0  0  0  0  0  0
    4.5301   -4.4489    0.0000 O   0  0  0  0  0  0  0  0  0  0  0  0
    5.3551   -4.4489    0.0000 C   0  0  0  0  0  0  0  0  0  0  0  0
    4.9426   -5.1634    0.0000 C   0  0  0  0  0  0  0  0  0  0  0  0
    9.6420   -4.4489    0.0000 C   0  0  0  0  0  0  0  0  0  0  0  0
  1  2  1  0  0  0  0
  2  3  1  0  0  0  0
  3  4  1  0  0  0  0
  4  5  1  0  0  0  0
  5  6  2  0  0  0  0
  6  7  1  0  0  0  0
  2  8  1  0  0  0  0
  9 10  1  0  0  0  0
 10 11  1  0  0  0  0
  9 11  1  0  0  0  0
  2 10  1  0  0  0  0
  6 12  1  0  0  0  0
M  END
>  <cdx:fragmentId>
43

$$$$
