91026.cdx
  Mrv1902 05222410252D          

 27 28  0  0  0  0            999 V2000
    3.8206   -9.9264    0.0000 C   0  0  0  0  0  0  0  0  0  0  0  0
    3.8206  -10.7514    0.0000 C   0  0  0  0  0  0  0  0  0  0  0  0
    4.5350  -11.1639    0.0000 C   0  0  0  0  0  0  0  0  0  0  0  0
    5.2495  -10.7514    0.0000 C   0  0  0  0  0  0  0  0  0  0  0  0
    5.2495   -9.9264    0.0000 C   0  0  0  0  0  0  0  0  0  0  0  0
    4.5350   -9.5139    0.0000 C   0  0  0  0  0  0  0  0  0  0  0  0
    5.9640  -11.1639    0.0000 C   0  0  0  0  0  0  0  0  0  0  0  0
    6.6784  -10.7514    0.0000 C   0  0  0  0  0  0  0  0  0  0  0  0
    6.6784   -9.9264    0.0000 C   0  0  0  0  0  0  0  0  0  0  0  0
    5.9640   -9.5139    0.0000 C   0  0  0  0  0  0  0  0  0  0  0  0
    4.5350   -8.6889    0.0000 O   0  0  0  0  0  0  0  0  0  0  0  0
    4.5350  -11.9889    0.0000 O   0  0  0  0  0  0  0  0  0  0  0  0
    5.9640   -8.6889    0.0000 O   0  0  0  0  0  0  0  0  0  0  0  0
    5.9640  -11.9889    0.0000 O   0  0  0  0  0  0  0  0  0  0  0  0
    7.3929   -9.5139    0.0000 C   0  0  1  0  0  0  0  0  0  0  0  0
    8.1074   -9.9264    0.0000 C   0  0  0  0  0  0  0  0  0  0  0  0
    8.8219   -9.5139    0.0000 C   0  0  0  0  0  0  0  0  0  0  0  0
    9.5363   -9.9264    0.0000 C   0  0  0  0  0  0  0  0  0  0  0  0
   10.2508   -9.5139    0.0000 C   0  0  0  0  0  0  0  0  0  0  0  0
    9.5363  -10.7514    0.0000 C   0  0  0  0  0  0  0  0  0  0  0  0
    7.3929   -8.6889    0.0000 O   0  0  0  0  0  0  0  0  0  0  0  0
    8.1074   -8.2764    0.0000 C   0  0  0  0  0  0  0  0  0  0  0  0
    8.8219   -8.6889    0.0000 O   0  0  0  0  0  0  0  0  0  0  0  0
    8.1074   -7.4514    0.0000 C   0  0  0  0  0  0  0  0  0  0  0  0
    8.8219   -7.0389    0.0000 C   0  0  0  0  0  0  0  0  0  0  0  0
    9.5363   -7.4514    0.0000 C   0  0  0  0  0  0  0  0  0  0  0  0
    7.3929   -7.0389    0.0000 C   0  0  0  0  0  0  0  0  0  0  0  0
  1  2  1  0  0  0  0
  2  3  2  0  0  0  0
  3  4  1  0  0  0  0
  4  5  2  0  0  0  0
  5  6  1  0  0  0  0
  6  1  2  0  0  0  0
  4  7  1  0  0  0  0
  7  8  1  0  0  0  0
  8  9  2  0  0  0  0
  9 10  1  0  0  0  0
 10  5  1  0  0  0  0
  6 11  1  0  0  0  0
  3 12  1  0  0  0  0
 10 13  2  0  0  0  0
  7 14  2  0  0  0  0
  9 15  1  0  0  0  0
 15 16  1  0  0  0  0
 16 17  1  0  0  0  0
 17 18  2  0  0  0  0
 18 19  1  0  0  0  0
 18 20  1  0  0  0  0
 15 21  1  6  0  0  0
 21 22  1  0  0  0  0
 22 23  2  0  0  0  0
 22 24  1  0  0  0  0
 24 25  1  0  0  0  0
 25 26  1  0  0  0  0
 24 27  2  0  0  0  0
M  END
>  <cdx:fragmentId>
5

$$$$
