91033.cdx
  Mrv1902 05222410252D          

 57 61  0  0  0  0            999 V2000
    6.7906   -8.1251    0.0000 C   0  0  2  0  0  0  0  0  0  0  0  0
    6.7906   -8.9501    0.0000 C   0  0  2  0  0  0  0  0  0  0  0  0
    7.5050   -9.3626    0.0000 C   0  0  1  0  0  0  0  0  0  0  0  0
    8.2195   -8.9501    0.0000 C   0  0  2  0  0  0  0  0  0  0  0  0
    8.2195   -8.1251    0.0000 C   0  0  1  0  0  0  0  0  0  0  0  0
    7.5050   -7.7126    0.0000 O   0  0  0  0  0  0  0  0  0  0  0  0
    6.0761   -6.8876    0.0000 O   0  0  0  0  0  0  0  0  0  0  0  0
    7.5050  -10.1876    0.0000 O   0  0  0  0  0  0  0  0  0  0  0  0
    6.0761   -9.3626    0.0000 O   0  0  0  0  0  0  0  0  0  0  0  0
    8.9340   -9.3626    0.0000 O   0  0  0  0  0  0  0  0  0  0  0  0
    6.7906   -6.4751    0.0000 C   0  0  2  0  0  0  0  0  0  0  0  0
    6.7906  -10.6001    0.0000 C   0  0  2  0  0  0  0  0  0  0  0  0
    6.0761  -10.1876    0.0000 O   0  0  0  0  0  0  0  0  0  0  0  0
    5.3616  -10.6001    0.0000 C   0  0  2  0  0  0  0  0  0  0  0  0
    5.3616  -11.4251    0.0000 C   0  0  1  0  0  0  0  0  0  0  0  0
    6.0761  -11.8376    0.0000 C   0  0  2  0  0  0  0  0  0  0  0  0
    6.7906  -11.4251    0.0000 C   0  0  1  0  0  0  0  0  0  0  0  0
    6.0761  -12.6626    0.0000 O   0  0  0  0  0  0  0  0  0  0  0  0
    4.6471  -10.1876    0.0000 C   0  0  0  0  0  0  0  0  0  0  0  0
    4.6471  -11.8376    0.0000 O   0  0  0  0  0  0  0  0  0  0  0  0
    7.5050  -11.8376    0.0000 O   0  0  0  0  0  0  0  0  0  0  0  0
   13.9353   -8.9502    0.0000 C   0  0  0  0  0  0  0  0  0  0  0  0
   13.2208   -9.3627    0.0000 O   0  0  0  0  0  0  0  0  0  0  0  0
   13.2208   -7.7127    0.0000 O   0  0  0  0  0  0  0  0  0  0  0  0
   11.0774   -8.9502    0.0000 C   0  0  0  0  0  0  0  0  0  0  0  0
   11.7918   -9.3627    0.0000 C   0  0  0  0  0  0  0  0  0  0  0  0
   12.5063   -8.9502    0.0000 C   0  0  0  0  0  0  0  0  0  0  0  0
   12.5063   -8.1252    0.0000 C   0  0  0  0  0  0  0  0  0  0  0  0
   11.7919   -7.7127    0.0000 C   0  0  0  0  0  0  0  0  0  0  0  0
   11.0774   -8.1252    0.0000 C   0  0  0  0  0  0  0  0  0  0  0  0
   10.3629   -7.7127    0.0000 C   0  0  0  0  0  0  0  0  0  0  0  0
    9.6484   -8.1251    0.0000 C   0  0  0  0  0  0  0  0  0  0  0  0
    8.9340   -7.7126    0.0000 O   0  0  0  0  0  0  0  0  0  0  0  0
    7.5050   -6.8876    0.0000 O   0  0  0  0  0  0  0  0  0  0  0  0
    8.2195   -6.4751    0.0000 C   0  0  0  0  0  0  0  0  0  0  0  0
    8.2195   -5.6502    0.0000 C   0  0  1  0  0  0  0  0  0  0  0  0
    7.5050   -5.2376    0.0000 C   0  0  1  0  0  0  0  0  0  0  0  0
    6.7906   -5.6501    0.0000 C   0  0  1  0  0  0  0  0  0  0  0  0
    6.0761   -5.2376    0.0000 O   0  0  0  0  0  0  0  0  0  0  0  0
    7.5050   -4.4126    0.0000 O   0  0  0  0  0  0  0  0  0  0  0  0
    8.9340   -5.2376    0.0000 O   0  0  0  0  0  0  0  0  0  0  0  0
    6.0761   -7.7126    0.0000 C   0  0  0  0  0  0  0  0  0  0  0  0
    5.3616   -8.9501    0.0000 C   0  0  0  0  0  0  0  0  0  0  0  0
    4.6471   -9.3626    0.0000 C   0  0  0  0  0  0  0  0  0  0  0  0
    5.3616   -8.1251    0.0000 O   0  0  0  0  0  0  0  0  0  0  0  0
    3.9327   -8.9501    0.0000 C   0  0  0  0  0  0  0  0  0  0  0  0
    3.2182   -9.3626    0.0000 C   0  0  0  0  0  0  0  0  0  0  0  0
    2.5037   -8.9501    0.0000 C   0  0  0  0  0  0  0  0  0  0  0  0
    1.7893   -9.3626    0.0000 C   0  0  0  0  0  0  0  0  0  0  0  0
    1.7893  -10.1876    0.0000 C   0  0  0  0  0  0  0  0  0  0  0  0
    2.5037  -10.6001    0.0000 C   0  0  0  0  0  0  0  0  0  0  0  0
    3.2182  -10.1876    0.0000 C   0  0  0  0  0  0  0  0  0  0  0  0
    1.0748   -8.9501    0.0000 O   0  0  0  0  0  0  0  0  0  0  0  0
    1.0748  -10.6001    0.0000 O   0  0  0  0  0  0  0  0  0  0  0  0
    8.2195  -11.4251    0.0000 C   0  0  0  0  0  0  0  0  0  0  0  0
    8.9340  -11.8376    0.0000 C   0  0  0  0  0  0  0  0  0  0  0  0
    8.2195  -10.6001    0.0000 O   0  0  0  0  0  0  0  0  0  0  0  0
  1  2  1  0  0  0  0
  2  3  1  0  0  0  0
  3  4  1  0  0  0  0
  4  5  1  0  0  0  0
  5  6  1  0  0  0  0
  6  1  1  0  0  0  0
  1 42  1  1  0  0  0
 23 22  1  0  0  0  0
  5 33  1  1  0  0  0
  3  8  1  1  0  0  0
  2  9  1  6  0  0  0
  4 10  1  6  0  0  0
 11  7  1  1  0  0  0
 12  8  1  1  0  0  0
 12 13  1  0  0  0  0
 13 14  1  0  0  0  0
 14 15  1  0  0  0  0
 15 16  1  0  0  0  0
 16 17  1  0  0  0  0
 17 12  1  0  0  0  0
 16 18  1  6  0  0  0
 14 19  1  6  0  0  0
 15 20  1  1  0  0  0
 17 21  1  6  0  0  0
 27 23  1  0  0  0  0
 28 24  1  0  0  0  0
 25 30  1  0  0  0  0
 26 25  2  0  0  0  0
 27 26  1  0  0  0  0
 28 27  2  0  0  0  0
 29 28  1  0  0  0  0
 30 29  2  0  0  0  0
 31 30  1  0  0  0  0
 32 31  1  0  0  0  0
 33 32  1  0  0  0  0
 11 34  1  0  0  0  0
 34 35  1  0  0  0  0
 35 36  1  0  0  0  0
 36 37  1  0  0  0  0
 37 38  1  0  0  0  0
 38 11  1  0  0  0  0
 38 39  1  6  0  0  0
 37 40  1  1  0  0  0
 42  7  1  0  0  0  0
 36 41  1  1  0  0  0
  9 43  1  0  0  0  0
 43 44  1  0  0  0  0
 43 45  2  0  0  0  0
 44 46  2  0  0  0  0
 46 47  1  0  0  0  0
 47 48  2  0  0  0  0
 48 49  1  0  0  0  0
 49 50  2  0  0  0  0
 50 51  1  0  0  0  0
 51 52  2  0  0  0  0
 52 47  1  0  0  0  0
 49 53  1  0  0  0  0
 50 54  1  0  0  0  0
 21 55  1  0  0  0  0
 55 56  1  0  0  0  0
 55 57  2  0  0  0  0
M  END
>  <cdx:fragmentId>
5

$$$$
