91036.cdx
  Mrv1902 05222410232D          

 69 75  0  0  0  0            999 V2000
    1.9476   -9.9767    0.0000 C   0  0  1  0  0  0  0  0  0  0  0  0
    1.9440  -10.5542    0.0000 C   0  0  1  0  0  0  0  0  0  0  0  0
    2.4423  -10.8461    0.0000 C   0  0  2  0  0  0  0  0  0  0  0  0
    2.9442  -10.5605    0.0000 C   0  0  1  0  0  0  0  0  0  0  0  0
    2.9478   -9.9830    0.0000 O   0  0  0  0  0  0  0  0  0  0  0  0
    2.4495   -9.6911    0.0000 C   0  0  2  0  0  0  0  0  0  0  0  0
    3.4425  -10.8524    0.0000 O   0  0  0  0  0  0  0  0  0  0  0  0
    3.9445  -10.5668    0.0000 C   0  0  1  0  0  0  0  0  0  0  0  0
    3.9481   -9.9893    0.0000 C   0  0  0  0  0  0  0  0  0  0  0  0
    4.4428  -10.8587    0.0000 C   0  0  0  0  0  0  0  0  0  0  0  0
    4.9447  -10.5731    0.0000 C   0  0  0  0  0  0  0  0  0  0  0  0
    4.9483   -9.9956    0.0000 C   0  0  1  0  0  0  0  0  0  0  0  0
    4.4500   -9.7037    0.0000 C   0  0  0  0  0  0  0  0  0  0  0  0
    5.4430  -10.8650    0.0000 C   0  0  0  0  0  0  0  0  0  0  0  0
    5.9449  -10.5794    0.0000 C   0  0  0  0  0  0  0  0  0  0  0  0
    5.9486  -10.0019    0.0000 C   0  0  2  0  0  0  0  0  0  0  0  0
    5.4503   -9.7100    0.0000 C   0  0  1  0  0  0  0  0  0  0  0  0
    6.4505   -9.7163    0.0000 C   0  0  1  0  0  0  0  0  0  0  0  0
    6.4541   -9.1388    0.0000 C   0  0  2  0  0  0  0  0  0  0  0  0
    5.9558   -8.8469    0.0000 C   0  0  0  0  0  0  0  0  0  0  0  0
    5.4539   -9.1325    0.0000 C   0  0  0  0  0  0  0  0  0  0  0  0
    6.9986   -9.8982    0.0000 C   0  0  0  0  0  0  0  0  0  0  0  0
    7.3410   -9.4331    0.0000 C   0  0  0  0  0  0  0  0  0  0  0  0
    7.0045   -8.9638    0.0000 C   0  0  2  0  0  0  0  0  0  0  0  0
    7.1864   -8.4157    0.0000 C   0  0  2  0  0  0  0  0  0  0  0  0
    6.8027   -7.9841    0.0000 C   0  0  0  0  0  0  0  0  0  0  0  0
    7.7520   -8.2992    0.0000 C   0  0  0  0  0  0  0  0  0  0  0  0
    8.1357   -8.7308    0.0000 C   0  0  0  0  0  0  0  0  0  0  0  0
    8.7013   -8.6143    0.0000 C   0  0  2  0  0  0  0  0  0  0  0  0
    9.0851   -9.0458    0.0000 C   0  0  0  0  0  0  0  0  0  0  0  0
    8.8832   -8.0662    0.0000 O   0  0  0  0  0  0  0  0  0  0  0  0
    9.4908   -9.4568    0.0000 O   0  0  0  0  0  0  0  0  0  0  0  0
    8.6637   -9.4407    0.0000 C   0  0  0  0  0  0  0  0  0  0  0  0
    9.5065   -8.6510    0.0000 C   0  0  0  0  0  0  0  0  0  0  0  0
    9.4420   -7.9202    0.0000 C   0  0  2  0  0  0  0  0  0  0  0  0
    9.8478   -8.3311    0.0000 O   0  0  0  0  0  0  0  0  0  0  0  0
   10.4065   -8.1852    0.0000 C   0  0  1  0  0  0  0  0  0  0  0  0
   10.5595   -7.6283    0.0000 C   0  0  2  0  0  0  0  0  0  0  0  0
   10.1537   -7.2174    0.0000 C   0  0  1  0  0  0  0  0  0  0  0  0
    9.5950   -7.3633    0.0000 C   0  0  1  0  0  0  0  0  0  0  0  0
   10.8123   -8.5961    0.0000 C   0  0  0  0  0  0  0  0  0  0  0  0
   10.8087   -9.1736    0.0000 O   0  0  0  0  0  0  0  0  0  0  0  0
   11.3070   -9.4654    0.0000 C   0  0  2  0  0  0  0  0  0  0  0  0
   11.3034  -10.0429    0.0000 O   0  0  0  0  0  0  0  0  0  0  0  0
   11.8017  -10.3348    0.0000 C   0  0  1  0  0  0  0  0  0  0  0  0
   12.3036  -10.0492    0.0000 C   0  0  2  0  0  0  0  0  0  0  0  0
   12.3072   -9.4717    0.0000 C   0  0  1  0  0  0  0  0  0  0  0  0
   11.8089   -9.1798    0.0000 C   0  0  1  0  0  0  0  0  0  0  0  0
    2.4532   -9.1137    0.0000 C   0  0  0  0  0  0  0  0  0  0  0  0
    1.4420  -10.8398    0.0000 O   0  0  0  0  0  0  0  0  0  0  0  0
    5.4466  -10.2875    0.0000 C   0  0  0  0  0  0  0  0  0  0  0  0
    5.9522   -9.4244    0.0000 H   0  0  0  0  0  0  0  0  0  0  0  0
    6.5181   -8.5649    0.0000 C   0  0  0  0  0  0  0  0  0  0  0  0
   10.3067   -6.6605    0.0000 O   0  0  0  0  0  0  0  0  0  0  0  0
    1.9549   -8.8218    0.0000 O   0  0  0  0  0  0  0  0  0  0  0  0
    1.4493   -9.6849    0.0000 O   0  0  0  0  0  0  0  0  0  0  0  0
    2.4386  -11.4236    0.0000 O   0  0  0  0  0  0  0  0  0  0  0  0
    4.9520   -9.4181    0.0000 H   0  0  0  0  0  0  0  0  0  0  0  0
    6.5072  -10.2910    0.0000 C   0  0  0  0  0  0  0  0  0  0  0  0
    9.1892   -6.9524    0.0000 O   0  0  0  0  0  0  0  0  0  0  0  0
   11.1183   -7.4823    0.0000 O   0  0  0  0  0  0  0  0  0  0  0  0
   11.8125   -8.6024    0.0000 O   0  0  0  0  0  0  0  0  0  0  0  0
   12.8019  -10.3411    0.0000 O   0  0  0  0  0  0  0  0  0  0  0  0
   12.8092   -9.1861    0.0000 O   0  0  0  0  0  0  0  0  0  0  0  0
   11.7980  -10.9123    0.0000 C   0  0  0  0  0  0  0  0  0  0  0  0
   11.2961  -11.1979    0.0000 O   0  0  0  0  0  0  0  0  0  0  0  0
    4.0519  -11.2221    0.0000 C   0  0  0  0  0  0  0  0  0  0  0  0
    4.7924  -11.2358    0.0000 C   0  0  0  0  0  0  0  0  0  0  0  0
    7.6226   -8.7640    0.0000 H   0  0  0  0  0  0  0  0  0  0  0  0
  1  2  1  0  0  0  0
  2  3  1  0  0  0  0
  3  4  1  0  0  0  0
  4  5  1  0  0  0  0
  5  6  1  0  0  0  0
  6  1  1  0  0  0  0
  4  7  1  1  0  0  0
  8  7  1  1  0  0  0
  8  9  1  0  0  0  0
  8 10  1  0  0  0  0
 10 11  1  0  0  0  0
 11 12  1  0  0  0  0
 12 13  1  0  0  0  0
 13  9  1  0  0  0  0
 11 14  2  0  0  0  0
 14 15  1  0  0  0  0
 15 16  1  0  0  0  0
 16 17  1  0  0  0  0
 17 12  1  0  0  0  0
 16 18  1  0  0  0  0
 18 19  1  0  0  0  0
 19 20  1  0  0  0  0
 20 21  1  0  0  0  0
 21 17  1  0  0  0  0
 18 22  1  0  0  0  0
 22 23  1  0  0  0  0
 23 24  1  0  0  0  0
 24 19  1  0  0  0  0
 24 25  1  0  0  0  0
 25 26  1  6  0  0  0
 25 27  1  0  0  0  0
 27 28  1  0  0  0  0
 28 29  1  0  0  0  0
 29 30  1  0  0  0  0
 29 31  1  1  0  0  0
 30 32  1  0  0  0  0
 30 33  1  0  0  0  0
 30 34  1  0  0  0  0
 35 31  1  1  0  0  0
 35 36  1  0  0  0  0
 36 37  1  0  0  0  0
 37 38  1  0  0  0  0
 38 39  1  0  0  0  0
 39 40  1  0  0  0  0
 40 35  1  0  0  0  0
 37 41  1  1  0  0  0
 41 42  1  0  0  0  0
 43 42  1  1  0  0  0
 43 44  1  0  0  0  0
 44 45  1  0  0  0  0
 45 46  1  0  0  0  0
 46 47  1  0  0  0  0
 47 48  1  0  0  0  0
 48 43  1  0  0  0  0
  6 49  1  1  0  0  0
  2 50  1  1  0  0  0
 17 51  1  1  0  0  0
 16 52  1  1  0  0  0
 19 53  1  1  0  0  0
 39 54  1  1  0  0  0
 49 55  1  0  0  0  0
  1 56  1  6  0  0  0
  3 57  1  6  0  0  0
 12 58  1  6  0  0  0
 18 59  1  6  0  0  0
 40 60  1  6  0  0  0
 38 61  1  6  0  0  0
 48 62  1  6  0  0  0
 46 63  1  6  0  0  0
 47 64  1  1  0  0  0
 45 65  1  1  0  0  0
 65 66  1  0  0  0  0
 10 67  1  0  0  0  0
 10 68  1  0  0  0  0
 24 69  1  6  0  0  0
M  END
>  <cdx:fragmentId>
5

$$$$
