91030.cdx
  Mrv1902 05222410252D          

 42 45  0  0  0  0            999 V2000
    5.7456   -8.0151    0.0000 C   0  0  2  0  0  0  0  0  0  0  0  0
    5.7456   -8.8401    0.0000 C   0  0  2  0  0  0  0  0  0  0  0  0
    6.4600   -9.2526    0.0000 C   0  0  1  0  0  0  0  0  0  0  0  0
    7.1745   -8.8401    0.0000 C   0  0  2  0  0  0  0  0  0  0  0  0
    7.1745   -8.0151    0.0000 C   0  0  1  0  0  0  0  0  0  0  0  0
    6.4600   -7.6026    0.0000 O   0  0  0  0  0  0  0  0  0  0  0  0
    5.0311   -7.6026    0.0000 C   0  0  0  0  0  0  0  0  0  0  0  0
    6.4600  -10.0776    0.0000 O   0  0  0  0  0  0  0  0  0  0  0  0
    5.0311   -9.2526    0.0000 O   0  0  0  0  0  0  0  0  0  0  0  0
    7.8890   -9.2526    0.0000 O   0  0  0  0  0  0  0  0  0  0  0  0
    4.3166   -8.0151    0.0000 O   0  0  0  0  0  0  0  0  0  0  0  0
    5.7456  -10.4901    0.0000 C   0  0  2  0  0  0  0  0  0  0  0  0
    5.0311  -10.0776    0.0000 O   0  0  0  0  0  0  0  0  0  0  0  0
    4.3166  -10.4901    0.0000 C   0  0  2  0  0  0  0  0  0  0  0  0
    4.3166  -11.3151    0.0000 C   0  0  1  0  0  0  0  0  0  0  0  0
    5.0311  -11.7276    0.0000 C   0  0  2  0  0  0  0  0  0  0  0  0
    5.7456  -11.3151    0.0000 C   0  0  1  0  0  0  0  0  0  0  0  0
    5.0311  -12.5526    0.0000 O   0  0  0  0  0  0  0  0  0  0  0  0
    3.6021  -10.0776    0.0000 C   0  0  0  0  0  0  0  0  0  0  0  0
    3.6021  -11.7276    0.0000 O   0  0  0  0  0  0  0  0  0  0  0  0
    6.4600  -11.7276    0.0000 O   0  0  0  0  0  0  0  0  0  0  0  0
   12.8903   -8.8402    0.0000 C   0  0  0  0  0  0  0  0  0  0  0  0
   12.1758   -9.2527    0.0000 O   0  0  0  0  0  0  0  0  0  0  0  0
   12.1758   -7.6027    0.0000 O   0  0  0  0  0  0  0  0  0  0  0  0
   10.0324   -8.8402    0.0000 C   0  0  0  0  0  0  0  0  0  0  0  0
   10.7468   -9.2527    0.0000 C   0  0  0  0  0  0  0  0  0  0  0  0
   11.4613   -8.8402    0.0000 C   0  0  0  0  0  0  0  0  0  0  0  0
   11.4613   -8.0152    0.0000 C   0  0  0  0  0  0  0  0  0  0  0  0
   10.7469   -7.6027    0.0000 C   0  0  0  0  0  0  0  0  0  0  0  0
   10.0324   -8.0152    0.0000 C   0  0  0  0  0  0  0  0  0  0  0  0
    9.3179   -7.6027    0.0000 C   0  0  0  0  0  0  0  0  0  0  0  0
    8.6034   -8.0151    0.0000 C   0  0  0  0  0  0  0  0  0  0  0  0
    7.8890   -7.6026    0.0000 O   0  0  0  0  0  0  0  0  0  0  0  0
    3.6021   -7.6026    0.0000 C   0  0  2  0  0  0  0  0  0  0  0  0
    3.6021   -6.7776    0.0000 O   0  0  0  0  0  0  0  0  0  0  0  0
    2.8877   -6.3651    0.0000 C   0  0  0  0  0  0  0  0  0  0  0  0
    2.1732   -6.7776    0.0000 C   0  0  1  0  0  0  0  0  0  0  0  0
    2.1732   -7.6026    0.0000 C   0  0  1  0  0  0  0  0  0  0  0  0
    2.8877   -8.0151    0.0000 C   0  0  1  0  0  0  0  0  0  0  0  0
    2.8877   -8.8401    0.0000 O   0  0  0  0  0  0  0  0  0  0  0  0
    1.4587   -8.0151    0.0000 O   0  0  0  0  0  0  0  0  0  0  0  0
    1.4587   -6.3651    0.0000 O   0  0  0  0  0  0  0  0  0  0  0  0
  1  2  1  0  0  0  0
  2  3  1  0  0  0  0
  3  4  1  0  0  0  0
  4  5  1  0  0  0  0
  5  6  1  0  0  0  0
  6  1  1  0  0  0  0
  1  7  1  1  0  0  0
 23 22  1  0  0  0  0
  5 33  1  1  0  0  0
  3  8  1  1  0  0  0
  2  9  1  6  0  0  0
  4 10  1  6  0  0  0
  7 11  1  0  0  0  0
 12  8  1  1  0  0  0
 12 13  1  0  0  0  0
 13 14  1  0  0  0  0
 14 15  1  0  0  0  0
 15 16  1  0  0  0  0
 16 17  1  0  0  0  0
 17 12  1  0  0  0  0
 16 18  1  6  0  0  0
 14 19  1  6  0  0  0
 15 20  1  1  0  0  0
 17 21  1  6  0  0  0
 27 23  1  0  0  0  0
 28 24  1  0  0  0  0
 25 30  1  0  0  0  0
 26 25  2  0  0  0  0
 27 26  1  0  0  0  0
 28 27  2  0  0  0  0
 29 28  1  0  0  0  0
 30 29  2  0  0  0  0
 31 30  1  0  0  0  0
 32 31  1  0  0  0  0
 33 32  1  0  0  0  0
 34 11  1  1  0  0  0
 34 35  1  0  0  0  0
 35 36  1  0  0  0  0
 36 37  1  0  0  0  0
 37 38  1  0  0  0  0
 38 39  1  0  0  0  0
 39 34  1  0  0  0  0
 39 40  1  6  0  0  0
 38 41  1  1  0  0  0
 37 42  1  1  0  0  0
M  END
>  <cdx:fragmentId>
5

$$$$
