91031.cdx
  Mrv1902 05222410252D          

 32 34  0  0  0  0            999 V2000
    5.7456   -8.0151    0.0000 C   0  0  2  0  0  0  0  0  0  0  0  0
    5.7456   -8.8401    0.0000 C   0  0  2  0  0  0  0  0  0  0  0  0
    6.4600   -9.2526    0.0000 C   0  0  1  0  0  0  0  0  0  0  0  0
    7.1745   -8.8401    0.0000 C   0  0  2  0  0  0  0  0  0  0  0  0
    7.1745   -8.0151    0.0000 C   0  0  1  0  0  0  0  0  0  0  0  0
    6.4600   -7.6026    0.0000 O   0  0  0  0  0  0  0  0  0  0  0  0
    5.0311   -7.6026    0.0000 C   0  0  0  0  0  0  0  0  0  0  0  0
    6.4600  -10.0776    0.0000 O   0  0  0  0  0  0  0  0  0  0  0  0
    5.0311   -9.2526    0.0000 O   0  0  0  0  0  0  0  0  0  0  0  0
    7.8890   -9.2526    0.0000 O   0  0  0  0  0  0  0  0  0  0  0  0
    4.3166   -8.0151    0.0000 O   0  0  0  0  0  0  0  0  0  0  0  0
   12.8903   -8.8402    0.0000 C   0  0  0  0  0  0  0  0  0  0  0  0
   12.1758   -9.2527    0.0000 O   0  0  0  0  0  0  0  0  0  0  0  0
   12.1758   -7.6027    0.0000 O   0  0  0  0  0  0  0  0  0  0  0  0
   10.0324   -8.8402    0.0000 C   0  0  0  0  0  0  0  0  0  0  0  0
   10.7468   -9.2527    0.0000 C   0  0  0  0  0  0  0  0  0  0  0  0
   11.4613   -8.8402    0.0000 C   0  0  0  0  0  0  0  0  0  0  0  0
   11.4613   -8.0152    0.0000 C   0  0  0  0  0  0  0  0  0  0  0  0
   10.7469   -7.6027    0.0000 C   0  0  0  0  0  0  0  0  0  0  0  0
   10.0324   -8.0152    0.0000 C   0  0  0  0  0  0  0  0  0  0  0  0
    9.3179   -7.6027    0.0000 C   0  0  0  0  0  0  0  0  0  0  0  0
    8.6034   -8.0151    0.0000 C   0  0  0  0  0  0  0  0  0  0  0  0
    7.8890   -7.6026    0.0000 O   0  0  0  0  0  0  0  0  0  0  0  0
    3.6021   -7.6026    0.0000 C   0  0  2  0  0  0  0  0  0  0  0  0
    3.6021   -6.7776    0.0000 O   0  0  0  0  0  0  0  0  0  0  0  0
    2.8877   -6.3651    0.0000 C   0  0  0  0  0  0  0  0  0  0  0  0
    2.1732   -6.7776    0.0000 C   0  0  1  0  0  0  0  0  0  0  0  0
    2.1732   -7.6026    0.0000 C   0  0  1  0  0  0  0  0  0  0  0  0
    2.8877   -8.0151    0.0000 C   0  0  1  0  0  0  0  0  0  0  0  0
    2.8877   -8.8401    0.0000 O   0  0  0  0  0  0  0  0  0  0  0  0
    1.4587   -8.0151    0.0000 O   0  0  0  0  0  0  0  0  0  0  0  0
    1.4587   -6.3651    0.0000 O   0  0  0  0  0  0  0  0  0  0  0  0
  1  2  1  0  0  0  0
  2  3  1  0  0  0  0
  3  4  1  0  0  0  0
  4  5  1  0  0  0  0
  5  6  1  0  0  0  0
  6  1  1  0  0  0  0
  1  7  1  1  0  0  0
 13 12  1  0  0  0  0
  5 23  1  1  0  0  0
  3  8  1  1  0  0  0
  2  9  1  6  0  0  0
  4 10  1  6  0  0  0
  7 11  1  0  0  0  0
 17 13  1  0  0  0  0
 18 14  1  0  0  0  0
 15 20  1  0  0  0  0
 16 15  2  0  0  0  0
 17 16  1  0  0  0  0
 18 17  2  0  0  0  0
 19 18  1  0  0  0  0
 20 19  2  0  0  0  0
 21 20  1  0  0  0  0
 22 21  1  0  0  0  0
 23 22  1  0  0  0  0
 24 11  1  1  0  0  0
 24 25  1  0  0  0  0
 25 26  1  0  0  0  0
 26 27  1  0  0  0  0
 27 28  1  0  0  0  0
 28 29  1  0  0  0  0
 29 24  1  0  0  0  0
 29 30  1  6  0  0  0
 28 31  1  1  0  0  0
 27 32  1  1  0  0  0
M  END
>  <cdx:fragmentId>
5

$$$$
