91038.cdx
  Mrv1902 05222410222D          

 25 28  0  0  0  0            999 V2000
    4.8793   -7.4789    0.0000 C   0  0  0  0  0  0  0  0  0  0  0  0
    4.8793   -8.3039    0.0000 C   0  0  0  0  0  0  0  0  0  0  0  0
    5.5938   -8.7164    0.0000 C   0  0  0  0  0  0  0  0  0  0  0  0
    6.3082   -8.3039    0.0000 C   0  0  0  0  0  0  0  0  0  0  0  0
    6.3082   -7.4789    0.0000 C   0  0  0  0  0  0  0  0  0  0  0  0
    5.5938   -7.0664    0.0000 C   0  0  0  0  0  0  0  0  0  0  0  0
    7.0227   -8.7164    0.0000 C   0  0  0  0  0  0  0  0  0  0  0  0
    7.7372   -8.3039    0.0000 N   0  0  0  0  0  0  0  0  0  0  0  0
    7.7372   -7.4789    0.0000 C   0  0  0  0  0  0  0  0  0  0  0  0
    7.0227   -7.0664    0.0000 C   0  0  0  0  0  0  0  0  0  0  0  0
    5.5938   -9.5414    0.0000 C   0  0  0  0  0  0  0  0  0  0  0  0
    6.3082   -9.9539    0.0000 C   0  0  0  0  0  0  0  0  0  0  0  0
    7.0227   -9.5414    0.0000 C   0  0  0  0  0  0  0  0  0  0  0  0
    4.8793   -9.9539    0.0000 C   0  0  0  0  0  0  0  0  0  0  0  0
    4.8793  -10.7789    0.0000 C   0  0  0  0  0  0  0  0  0  0  0  0
    5.5938  -11.1914    0.0000 C   0  0  0  0  0  0  0  0  0  0  0  0
    6.3082  -10.7789    0.0000 C   0  0  0  0  0  0  0  0  0  0  0  0
    7.7372   -9.9539    0.0000 O   0  0  0  0  0  0  0  0  0  0  0  0
    4.1648   -8.7164    0.0000 O   0  0  0  0  0  0  0  0  0  0  0  0
    3.4504   -8.3039    0.0000 C   0  0  0  0  0  0  0  0  0  0  0  0
    4.1648   -7.0664    0.0000 O   0  0  0  0  0  0  0  0  0  0  0  0
    4.1648   -6.2414    0.0000 C   0  0  0  0  0  0  0  0  0  0  0  0
    5.5938   -6.2414    0.0000 O   0  0  0  0  0  0  0  0  0  0  0  0
    6.3082   -5.8289    0.0000 C   0  0  0  0  0  0  0  0  0  0  0  0
    7.0227   -6.2414    0.0000 O   0  0  0  0  0  0  0  0  0  0  0  0
  1  2  2  0  0  0  0
  2  3  1  0  0  0  0
  3  4  2  0  0  0  0
  4  5  1  0  0  0  0
  5  6  2  0  0  0  0
  6  1  1  0  0  0  0
  4  7  1  0  0  0  0
  7  8  2  0  0  0  0
  8  9  1  0  0  0  0
  9 10  2  0  0  0  0
 10  5  1  0  0  0  0
  3 11  1  0  0  0  0
 11 12  2  0  0  0  0
 12 13  1  0  0  0  0
 13  7  1  0  0  0  0
 11 14  1  0  0  0  0
 14 15  2  0  0  0  0
 15 16  1  0  0  0  0
 16 17  2  0  0  0  0
 17 12  1  0  0  0  0
 13 18  2  0  0  0  0
  2 19  1  0  0  0  0
 19 20  1  0  0  0  0
  1 21  1  0  0  0  0
 21 22  1  0  0  0  0
  6 23  1  0  0  0  0
 23 24  1  0  0  0  0
 10 25  1  0  0  0  0
M  END
>  <cdx:fragmentId>
5

$$$$
