91035.cdx
  Mrv1902 05222410242D          

 32 33  0  0  0  0            999 V2000
    3.0506   -7.9051    0.0000 C   0  0  0  0  0  0  0  0  0  0  0  0
    3.0506   -8.7301    0.0000 C   0  0  0  0  0  0  0  0  0  0  0  0
    3.7650   -9.1426    0.0000 C   0  0  0  0  0  0  0  0  0  0  0  0
    4.4795   -8.7301    0.0000 C   0  0  0  0  0  0  0  0  0  0  0  0
    4.4795   -7.9051    0.0000 C   0  0  0  0  0  0  0  0  0  0  0  0
    3.7650   -7.4926    0.0000 C   0  0  0  0  0  0  0  0  0  0  0  0
    5.1940   -9.1426    0.0000 C   0  0  0  0  0  0  0  0  0  0  0  0
    5.9084   -8.7301    0.0000 C   0  0  0  0  0  0  0  0  0  0  0  0
    5.9084   -7.9051    0.0000 C   0  0  0  0  0  0  0  0  0  0  0  0
    5.1940   -7.4926    0.0000 C   0  0  0  0  0  0  0  0  0  0  0  0
    5.1940   -6.6676    0.0000 O   0  0  0  0  0  0  0  0  0  0  0  0
    3.7650   -6.6676    0.0000 O   0  0  0  0  0  0  0  0  0  0  0  0
    3.7650   -9.9676    0.0000 O   0  0  0  0  0  0  0  0  0  0  0  0
    5.1940   -9.9676    0.0000 O   0  0  0  0  0  0  0  0  0  0  0  0
    6.6229   -7.4926    0.0000 C   0  0  1  0  0  0  0  0  0  0  0  0
    7.3374   -7.9051    0.0000 C   0  0  0  0  0  0  0  0  0  0  0  0
    6.6229   -6.6676    0.0000 O   0  0  0  0  0  0  0  0  0  0  0  0
    8.0519   -7.4926    0.0000 C   0  0  0  0  0  0  0  0  0  0  0  0
    8.7663   -7.9051    0.0000 C   0  0  0  0  0  0  0  0  0  0  0  0
    9.4808   -7.4926    0.0000 C   0  0  0  0  0  0  0  0  0  0  0  0
    8.7663   -8.7301    0.0000 C   0  0  0  0  0  0  0  0  0  0  0  0
    7.3374   -6.2551    0.0000 C   0  0  0  0  0  0  0  0  0  0  0  0
    8.0519   -6.6676    0.0000 O   0  0  0  0  0  0  0  0  0  0  0  0
    7.3374   -5.4301    0.0000 C   0  0  0  0  0  0  0  0  0  0  0  0
    8.0519   -5.0176    0.0000 C   0  0  0  0  0  0  0  0  0  0  0  0
    6.6229   -5.0176    0.0000 C   0  0  0  0  0  0  0  0  0  0  0  0
    7.6394   -4.3032    0.0000 C   0  0  0  0  0  0  0  0  0  0  0  0
    8.4644   -5.7321    0.0000 C   0  0  0  0  0  0  0  0  0  0  0  0
    8.7663   -4.6051    0.0000 O   0  0  0  0  0  0  0  0  0  0  0  0
    9.4808   -5.0176    0.0000 C   0  0  0  0  0  0  0  0  0  0  0  0
   10.1953   -4.6051    0.0000 C   0  0  0  0  0  0  0  0  0  0  0  0
    9.4808   -5.8426    0.0000 O   0  0  0  0  0  0  0  0  0  0  0  0
  1  2  1  0  0  0  0
  2  3  2  0  0  0  0
  3  4  1  0  0  0  0
  4  5  2  0  0  0  0
  5  6  1  0  0  0  0
  6  1  2  0  0  0  0
  4  7  1  0  0  0  0
  7  8  1  0  0  0  0
  8  9  2  0  0  0  0
  9 10  1  0  0  0  0
 10  5  1  0  0  0  0
 10 11  2  0  0  0  0
 12  6  1  0  0  0  0
  3 13  1  0  0  0  0
 14  7  2  0  0  0  0
  9 15  1  0  0  0  0
 15 16  1  0  0  0  0
 15 17  1  6  0  0  0
 16 18  1  0  0  0  0
 18 19  2  0  0  0  0
 19 20  1  0  0  0  0
 19 21  1  0  0  0  0
 17 22  1  0  0  0  0
 22 23  2  0  0  0  0
 22 24  1  0  0  0  0
 24 25  1  0  0  0  0
 24 26  1  0  0  0  0
 25 27  1  0  0  0  0
 25 28  1  0  0  0  0
 25 29  1  0  0  0  0
 29 30  1  0  0  0  0
 30 31  1  0  0  0  0
 30 32  2  0  0  0  0
M  END
>  <cdx:fragmentId>
5

$$$$
