91045.cdx
  Mrv1902 05222410282D          

 10 11  0  0  0  0            999 V2000
    4.2331   -9.2389    0.0000 C   0  0  0  0  0  0  0  0  0  0  0  0
    4.2331  -10.0639    0.0000 C   0  0  0  0  0  0  0  0  0  0  0  0
    4.9475  -10.4764    0.0000 C   0  0  0  0  0  0  0  0  0  0  0  0
    5.6620  -10.0639    0.0000 C   0  0  0  0  0  0  0  0  0  0  0  0
    5.6620   -9.2389    0.0000 C   0  0  0  0  0  0  0  0  0  0  0  0
    4.9475   -8.8264    0.0000 C   0  0  0  0  0  0  0  0  0  0  0  0
    6.4466  -10.3188    0.0000 C   0  0  0  0  0  0  0  0  0  0  0  0
    6.9315   -9.6514    0.0000 C   0  0  0  0  0  0  0  0  0  0  0  0
    6.4466   -8.9840    0.0000 C   0  0  0  0  0  0  0  0  0  0  0  0
    7.7565   -9.6514    0.0000 O   0  0  0  0  0  0  0  0  0  0  0  0
  1  2  1  0  0  0  0
  2  3  1  0  0  0  0
  3  4  1  0  0  0  0
  4  5  2  0  0  0  0
  5  6  1  0  0  0  0
  6  1  1  0  0  0  0
  4  7  1  0  0  0  0
  7  8  1  0  0  0  0
  8  9  1  0  0  0  0
  9  5  1  0  0  0  0
  8 10  2  0  0  0  0
M  END
>  <cdx:fragmentId>
5

$$$$
