10471.cdx
  Mrv1902 05222410202D          

 23 25  0  0  0  0            999 V2000
    3.7430   -8.8719    0.0000 O   0  0  0  0  0  0  0  0  0  0  0  0
    4.4565   -8.4577    0.0000 C   0  0  0  0  0  0  0  0  0  0  0  0
    4.4544   -7.6327    0.0000 C   0  0  0  0  0  0  0  0  0  0  0  0
    5.1719   -8.8684    0.0000 C   0  0  0  0  0  0  0  0  0  0  0  0
    5.8854   -8.4542    0.0000 C   0  0  0  0  0  0  0  0  0  0  0  0
    5.8834   -7.6292    0.0000 C   0  0  0  0  0  0  0  0  0  0  0  0
    5.1679   -7.2184    0.0000 C   0  0  0  0  0  0  0  0  0  0  0  0
    6.6009   -8.8649    0.0000 O   0  0  0  0  0  0  0  0  0  0  0  0
    7.3143   -8.4507    0.0000 C   0  0  0  0  0  0  0  0  0  0  0  0
    7.3123   -7.6257    0.0000 C   0  0  0  0  0  0  0  0  0  0  0  0
    6.5968   -7.2149    0.0000 C   0  0  0  0  0  0  0  0  0  0  0  0
    8.0298   -8.8614    0.0000 C   0  0  0  0  0  0  0  0  0  0  0  0
    8.7433   -8.4472    0.0000 C   0  0  0  0  0  0  0  0  0  0  0  0
    8.0318   -9.6864    0.0000 C   0  0  0  0  0  0  0  0  0  0  0  0
    8.7473  -10.0972    0.0000 C   0  0  0  0  0  0  0  0  0  0  0  0
    9.4608   -9.6830    0.0000 C   0  0  0  0  0  0  0  0  0  0  0  0
    9.4587   -8.8580    0.0000 C   0  0  0  0  0  0  0  0  0  0  0  0
   10.1762  -10.0937    0.0000 O   0  0  0  0  0  0  0  0  0  0  0  0
    6.5948   -6.3899    0.0000 O   0  0  0  0  0  0  0  0  0  0  0  0
    5.1659   -6.3934    0.0000 O   0  0  0  0  0  0  0  0  0  0  0  0
    8.0268   -7.2132    0.0000 O   0  0  0  0  0  0  0  0  0  0  0  0
    8.0268   -6.3882    0.0000 C   0  0  0  0  0  0  0  0  0  0  0  0
   10.1762  -10.9187    0.0000 C   0  0  0  0  0  0  0  0  0  0  0  0
  1  2  1  0  0  0  0
  2  3  2  0  0  0  0
  2  4  1  0  0  0  0
  4  5  2  0  0  0  0
  5  6  1  0  0  0  0
  6  7  2  0  0  0  0
  7  3  1  0  0  0  0
  5  8  1  0  0  0  0
  8  9  1  0  0  0  0
  9 10  2  0  0  0  0
 10 11  1  0  0  0  0
 11  6  1  0  0  0  0
  9 12  1  0  0  0  0
 12 13  1  0  0  0  0
 12 14  2  0  0  0  0
 14 15  1  0  0  0  0
 15 16  2  0  0  0  0
 16 17  1  0  0  0  0
 17 13  2  0  0  0  0
 16 18  1  0  0  0  0
 11 19  2  0  0  0  0
  7 20  1  0  0  0  0
 10 21  1  0  0  0  0
 21 22  1  0  0  0  0
 18 23  1  0  0  0  0
M  END
>  <cdx:fragmentId>
5

$$$$
