91048.cdx
  Mrv1902 05222410182D          

 36 41  0  0  0  0            999 V2000
   12.1002   -7.1787    0.0000 O   0  0  0  0  0  0  0  0  0  0  0  0
    2.8113  -10.0637    0.0000 O   0  0  0  0  0  0  0  0  0  0  0  0
    4.9557   -6.3518    0.0000 C   0  0  0  0  0  0  0  0  0  0  0  0
    9.9558  -10.8906    0.0000 C   0  0  0  0  0  0  0  0  0  0  0  0
    9.9560  -10.0656    0.0000 O   0  0  0  0  0  0  0  0  0  0  0  0
   10.6708   -8.8283    0.0000 C   0  0  0  0  0  0  0  0  0  0  0  0
   11.3854   -8.4160    0.0000 C   0  0  0  0  0  0  0  0  0  0  0  0
   11.3856   -7.5910    0.0000 C   0  0  0  0  0  0  0  0  0  0  0  0
   10.6713   -7.1783    0.0000 C   0  0  0  0  0  0  0  0  0  0  0  0
    9.9565   -8.4156    0.0000 C   0  0  0  0  0  0  0  0  0  0  0  0
    9.9567   -7.5906    0.0000 C   0  0  0  0  0  0  0  0  0  0  0  0
    9.2423   -7.1779    0.0000 C   0  0  0  0  0  0  0  0  0  0  0  0
    8.5271  -10.0652    0.0000 C   0  0  0  0  0  0  0  0  0  0  0  0
    9.2417   -9.6529    0.0000 C   0  0  0  0  0  0  0  0  0  0  0  0
    9.2419   -8.8279    0.0000 C   0  0  0  0  0  0  0  0  0  0  0  0
    8.5275   -8.4152    0.0000 C   0  0  0  0  0  0  0  0  0  0  0  0
    8.5278   -7.5902    0.0000 C   0  0  0  0  0  0  0  0  0  0  0  0
    7.8134   -7.1775    0.0000 O   0  0  0  0  0  0  0  0  0  0  0  0
    7.0982  -10.0648    0.0000 O   0  0  0  0  0  0  0  0  0  0  0  0
    7.8127   -9.6525    0.0000 C   0  0  0  0  0  0  0  0  0  0  0  0
    7.8130   -8.8275    0.0000 C   0  0  0  0  0  0  0  0  0  0  0  0
    7.0986   -8.4148    0.0000 C   0  0  0  0  0  0  0  0  0  0  0  0
    7.0988   -7.5898    0.0000 C   0  0  0  0  0  0  0  0  0  0  0  0
    6.3845   -7.1771    0.0000 C   0  0  0  0  0  0  0  0  0  0  0  0
    5.6692  -10.0645    0.0000 C   0  0  0  0  0  0  0  0  0  0  0  0
    6.3838   -9.6521    0.0000 C   0  0  0  0  0  0  0  0  0  0  0  0
    6.3840   -8.8271    0.0000 C   0  0  0  0  0  0  0  0  0  0  0  0
    5.6697   -8.4145    0.0000 C   0  0  0  0  0  0  0  0  0  0  0  0
    5.6699   -7.5895    0.0000 C   0  0  0  0  0  0  0  0  0  0  0  0
    4.9555   -7.1768    0.0000 O   0  0  0  0  0  0  0  0  0  0  0  0
    4.9549   -9.6518    0.0000 C   0  0  0  0  0  0  0  0  0  0  0  0
    4.9551   -8.8268    0.0000 C   0  0  0  0  0  0  0  0  0  0  0  0
    4.2407   -8.4141    0.0000 C   0  0  0  0  0  0  0  0  0  0  0  0
    3.5261   -8.8264    0.0000 C   0  0  0  0  0  0  0  0  0  0  0  0
    3.5259   -9.6514    0.0000 C   0  0  0  0  0  0  0  0  0  0  0  0
    4.2403  -10.0641    0.0000 C   0  0  0  0  0  0  0  0  0  0  0  0
  8  1  1  0  0  0  0
 35  2  1  0  0  0  0
 30  3  1  0  0  0  0
  5  4  1  0  0  0  0
 14  5  1  0  0  0  0
  6 10  1  0  0  0  0
  7  6  2  0  0  0  0
  8  7  1  0  0  0  0
  9  8  2  0  0  0  0
 11  9  1  0  0  0  0
 10 15  1  0  0  0  0
 11 10  2  0  0  0  0
 12 11  1  0  0  0  0
 17 12  2  0  0  0  0
 13 20  2  0  0  0  0
 14 13  1  0  0  0  0
 15 14  2  0  0  0  0
 16 15  1  0  0  0  0
 16 21  2  0  0  0  0
 17 16  1  0  0  0  0
 23 18  1  0  0  0  0
 20 19  1  0  0  0  0
 21 20  1  0  0  0  0
 22 21  1  0  0  0  0
 22 27  2  0  0  0  0
 23 22  1  0  0  0  0
 24 23  2  0  0  0  0
 29 24  1  0  0  0  0
 25 31  1  0  0  0  0
 26 25  2  0  0  0  0
 27 26  1  0  0  0  0
 28 27  1  0  0  0  0
 28 32  1  0  0  0  0
 29 28  2  0  0  0  0
 30 29  1  0  0  0  0
 31 36  1  0  0  0  0
 32 31  2  0  0  0  0
 33 32  1  0  0  0  0
 34 33  2  0  0  0  0
 35 34  1  0  0  0  0
 36 35  2  0  0  0  0
M  END
>  <cdx:fragmentId>
5

$$$$
