91044.cdx
  Mrv1902 05222410282D          

 25 28  0  0  0  0            999 V2000
    4.6868   -8.3176    0.0000 C   0  0  0  0  0  0  0  0  0  0  0  0
    4.6868   -9.1426    0.0000 C   0  0  0  0  0  0  0  0  0  0  0  0
    5.4013   -9.5551    0.0000 C   0  0  0  0  0  0  0  0  0  0  0  0
    6.1157   -9.1426    0.0000 C   0  0  0  0  0  0  0  0  0  0  0  0
    6.1157   -8.3176    0.0000 C   0  0  0  0  0  0  0  0  0  0  0  0
    5.4013   -7.9051    0.0000 C   0  0  0  0  0  0  0  0  0  0  0  0
    6.8302   -9.5551    0.0000 C   0  0  0  0  0  0  0  0  0  0  0  0
    7.5447   -9.1426    0.0000 N   0  0  0  0  0  0  0  0  0  0  0  0
    7.5447   -8.3176    0.0000 C   0  0  0  0  0  0  0  0  0  0  0  0
    6.8302   -7.9051    0.0000 C   0  0  0  0  0  0  0  0  0  0  0  0
    5.4013  -10.3801    0.0000 C   0  0  0  0  0  0  0  0  0  0  0  0
    6.1157  -10.7926    0.0000 C   0  0  0  0  0  0  0  0  0  0  0  0
    6.8302  -10.3801    0.0000 C   0  0  0  0  0  0  0  0  0  0  0  0
    4.6868  -10.7926    0.0000 C   0  0  0  0  0  0  0  0  0  0  0  0
    4.6868  -11.6176    0.0000 C   0  0  0  0  0  0  0  0  0  0  0  0
    5.4013  -12.0301    0.0000 C   0  0  0  0  0  0  0  0  0  0  0  0
    6.1157  -11.6176    0.0000 C   0  0  0  0  0  0  0  0  0  0  0  0
    3.9723   -9.5551    0.0000 O   0  0  0  0  0  0  0  0  0  0  0  0
    3.2579   -9.1426    0.0000 C   0  0  0  0  0  0  0  0  0  0  0  0
    3.9723   -7.9051    0.0000 O   0  0  0  0  0  0  0  0  0  0  0  0
    3.9723   -7.0801    0.0000 C   0  0  0  0  0  0  0  0  0  0  0  0
    5.4013   -7.0801    0.0000 O   0  0  0  0  0  0  0  0  0  0  0  0
    6.1157   -6.6676    0.0000 C   0  0  0  0  0  0  0  0  0  0  0  0
    8.2592   -7.9051    0.0000 O   0  0  0  0  0  0  0  0  0  0  0  0
    8.2592   -9.5551    0.0000 C   0  0  0  0  0  0  0  0  0  0  0  0
  1  2  2  0  0  0  0
  2  3  1  0  0  0  0
  3  4  2  0  0  0  0
  4  5  1  0  0  0  0
  5  6  2  0  0  0  0
  6  1  1  0  0  0  0
  4  7  1  0  0  0  0
  7  8  1  0  0  0  0
  8  9  1  0  0  0  0
  9 10  1  0  0  0  0
 10  5  1  0  0  0  0
  3 11  1  0  0  0  0
 11 12  2  0  0  0  0
 12 13  1  0  0  0  0
 13  7  2  0  0  0  0
 11 14  1  0  0  0  0
 14 15  2  0  0  0  0
 15 16  1  0  0  0  0
 16 17  2  0  0  0  0
 17 12  1  0  0  0  0
  2 18  1  0  0  0  0
 18 19  1  0  0  0  0
  1 20  1  0  0  0  0
 20 21  1  0  0  0  0
  6 22  1  0  0  0  0
 22 23  1  0  0  0  0
  9 24  2  0  0  0  0
  8 25  1  0  0  0  0
M  END
>  <cdx:fragmentId>
5

$$$$
