91046.cdx
  Mrv1902 05222410272D          

 17 18  0  0  0  0            999 V2000
    7.3663   -9.5551    0.0000 C   0  0  0  0  0  0  0  0  0  0  0  0
    6.5553   -9.7147    0.0000 C   0  0  0  0  0  0  0  0  0  0  0  0
    7.8824   -8.9130    0.0000 C   0  0  2  0  0  0  0  0  0  0  0  0
    7.8679   -8.0863    0.0000 C   0  0  1  0  0  0  0  0  0  0  0  0
    7.3241   -7.4675    0.0000 C   0  0  0  0  0  0  0  0  0  0  0  0
    6.5104   -7.3314    0.0000 C   0  0  0  0  0  0  0  0  0  0  0  0
    5.8011   -7.7542    0.0000 C   0  0  0  0  0  0  0  0  0  0  0  0
    5.5343   -8.5343    0.0000 C   0  0  0  0  0  0  0  0  0  0  0  0
    5.8404   -9.2999    0.0000 C   0  0  0  0  0  0  0  0  0  0  0  0
    8.7091   -8.8985    0.0000 C   0  0  0  0  0  0  0  0  0  0  0  0
    8.6946   -8.0718    0.0000 C   0  0  0  0  0  0  0  0  0  0  0  0
    5.1603   -7.2345    0.0000 C   0  0  0  0  0  0  0  0  0  0  0  0
    7.7933  -10.2610    0.0000 C   0  0  0  0  0  0  0  0  0  0  0  0
    8.9081   -7.2749    0.0000 C   0  0  0  0  0  0  0  0  0  0  0  0
    9.5196   -8.0718    0.0000 C   0  0  0  0  0  0  0  0  0  0  0  0
    8.2949   -9.6274    0.0000 H   0  0  0  0  0  0  0  0  0  0  0  0
    8.2804   -7.3719    0.0000 H   0  0  0  0  0  0  0  0  0  0  0  0
  1  2  1  0  0  0  0
  1  3  1  0  0  0  0
  3  4  1  0  0  0  0
  4  5  1  0  0  0  0
  5  6  1  0  0  0  0
  6  7  1  0  0  0  0
  7  8  2  0  0  0  0
  8  9  1  0  0  0  0
  2  9  1  0  0  0  0
  3 10  1  6  0  0  0
 10 11  1  0  0  0  0
  4 11  1  1  0  0  0
  7 12  1  0  0  0  0
  1 13  2  0  0  0  0
 11 14  1  0  0  0  0
 11 15  1  0  0  0  0
  3 16  1  1  0  0  0
  4 17  1  6  0  0  0
M  END
>  <cdx:fragmentId>
739

$$$$
