91040.cdx
  Mrv1902 05222410262D          

 23 27  0  0  0  0            999 V2000
    4.8106   -6.9151    0.0000 C   0  0  0  0  0  0  0  0  0  0  0  0
    4.8106   -7.7401    0.0000 C   0  0  0  0  0  0  0  0  0  0  0  0
    5.5250   -8.1526    0.0000 C   0  0  0  0  0  0  0  0  0  0  0  0
    6.2395   -7.7401    0.0000 C   0  0  0  0  0  0  0  0  0  0  0  0
    6.2395   -6.9151    0.0000 C   0  0  0  0  0  0  0  0  0  0  0  0
    5.5250   -6.5026    0.0000 C   0  0  0  0  0  0  0  0  0  0  0  0
    6.9540   -8.1526    0.0000 C   0  0  0  0  0  0  0  0  0  0  0  0
    5.5250   -8.9776    0.0000 C   0  0  0  0  0  0  0  0  0  0  0  0
    6.2395   -9.3901    0.0000 C   0  0  0  0  0  0  0  0  0  0  0  0
    6.9540   -8.9776    0.0000 C   0  0  0  0  0  0  0  0  0  0  0  0
    4.8106   -9.3901    0.0000 C   0  0  0  0  0  0  0  0  0  0  0  0
    4.8106  -10.2151    0.0000 C   0  0  0  0  0  0  0  0  0  0  0  0
    5.5250  -10.6276    0.0000 C   0  0  0  0  0  0  0  0  0  0  0  0
    6.2395  -10.2151    0.0000 C   0  0  0  0  0  0  0  0  0  0  0  0
    5.5250   -5.6776    0.0000 O   0  0  0  0  0  0  0  0  0  0  0  0
    4.0259   -6.6602    0.0000 O   0  0  0  0  0  0  0  0  0  0  0  0
    3.5410   -7.3276    0.0000 C   0  0  0  0  0  0  0  0  0  0  0  0
    4.0259   -7.9951    0.0000 O   0  0  0  0  0  0  0  0  0  0  0  0
    4.8106   -5.2651    0.0000 C   0  0  0  0  0  0  0  0  0  0  0  0
    7.5090   -7.3276    0.0000 N   0  0  0  0  0  0  0  0  0  0  0  0
    7.0241   -6.6602    0.0000 C   0  0  0  0  0  0  0  0  0  0  0  0
    8.3339   -7.3128    0.0000 C   0  0  0  0  0  0  0  0  0  0  0  0
    7.2791   -5.8756    0.0000 O   0  0  0  0  0  0  0  0  0  0  0  0
  1  2  2  0  0  0  0
  2  3  1  0  0  0  0
  3  4  1  0  0  0  0
  4  5  1  0  0  0  0
  5  6  2  0  0  0  0
  6  1  1  0  0  0  0
  4  7  2  0  0  0  0
  3  8  2  0  0  0  0
  8  9  1  0  0  0  0
  9 10  2  0  0  0  0
 10  7  1  0  0  0  0
  8 11  1  0  0  0  0
 11 12  2  0  0  0  0
 12 13  1  0  0  0  0
 13 14  2  0  0  0  0
 14  9  1  0  0  0  0
  6 15  1  0  0  0  0
  1 16  1  0  0  0  0
 16 17  1  0  0  0  0
 17 18  1  0  0  0  0
 18  2  1  0  0  0  0
 15 19  1  0  0  0  0
 20 21  1  0  0  0  0
 21  5  1  0  0  0  0
  7 20  1  0  0  0  0
 20 22  1  0  0  0  0
 21 23  2  0  0  0  0
M  END
>  <cdx:fragmentId>
5

$$$$
