91053.cdx
  Mrv1902 05222410272D          

 15 15  0  0  0  0            999 V2000
    6.5014   -9.6712    0.0000 C   0  0  0  0  0  0  0  0  0  0  0  0
    7.3262   -9.6712    0.0000 C   0  0  0  0  0  0  0  0  0  0  0  0
    8.0203   -9.2258    0.0000 C   0  0  0  0  0  0  0  0  0  0  0  0
    8.3653   -8.4767    0.0000 C   0  0  0  0  0  0  0  0  0  0  0  0
    8.2458   -7.6602    0.0000 C   0  0  0  0  0  0  0  0  0  0  0  0
    7.7083   -7.0334    0.0000 C   0  0  0  0  0  0  0  0  0  0  0  0
    6.9165   -6.7997    0.0000 C   0  0  0  0  0  0  0  0  0  0  0  0
    6.1261   -7.0334    0.0000 C   0  0  0  0  0  0  0  0  0  0  0  0
    5.5873   -7.6588    0.0000 C   0  0  0  0  0  0  0  0  0  0  0  0
    5.4622   -8.4739    0.0000 C   0  0  0  0  0  0  0  0  0  0  0  0
    5.8017   -9.2258    0.0000 C   0  0  0  0  0  0  0  0  0  0  0  0
    5.6785   -6.3404    0.0000 C   0  0  0  0  0  0  0  0  0  0  0  0
    9.1819   -8.5943    0.0000 C   0  0  0  0  0  0  0  0  0  0  0  0
    4.9767   -9.2258    0.0000 C   0  0  0  0  0  0  0  0  0  0  0  0
    5.5882  -10.0227    0.0000 C   0  0  0  0  0  0  0  0  0  0  0  0
  1  2  2  0  0  0  0
  2  3  1  0  0  0  0
  3  4  1  0  0  0  0
  4  5  2  0  0  0  0
  5  6  1  0  0  0  0
  6  7  1  0  0  0  0
  7  8  2  0  0  0  0
  8  9  1  0  0  0  0
  9 10  1  0  0  0  0
 10 11  1  0  0  0  0
  1 11  1  0  0  0  0
  8 12  1  0  0  0  0
  4 13  1  0  0  0  0
 11 14  1  0  0  0  0
 11 15  1  0  0  0  0
M  END
>  <cdx:groupId>
744

>  <cdx:fragmentId>
745

$$$$
