91051.cdx
  Mrv1902 05222410282D          

 23 24  0  0  0  0            999 V2000
    4.2050   -6.1732    0.0000 N   0  0  0  0  0  0  0  0  0  0  0  0
    3.7925   -6.8876    0.0000 C   0  0  0  0  0  0  0  0  0  0  0  0
    4.2050   -7.6021    0.0000 O   0  0  0  0  0  0  0  0  0  0  0  0
    5.0300   -7.6021    0.0000 C   0  0  0  0  0  0  0  0  0  0  0  0
    5.4425   -6.8876    0.0000 C   0  0  0  0  0  0  0  0  0  0  0  0
    5.0300   -6.1732    0.0000 C   0  0  0  0  0  0  0  0  0  0  0  0
    6.2675   -6.8876    0.0000 C   0  0  0  0  0  0  0  0  0  0  0  0
    6.6800   -6.1732    0.0000 C   0  0  0  0  0  0  0  0  0  0  0  0
    6.2675   -5.4587    0.0000 C   0  0  0  0  0  0  0  0  0  0  0  0
    5.4425   -5.4587    0.0000 C   0  0  0  0  0  0  0  0  0  0  0  0
    7.8350   -6.1732    0.0000 C   0  0  0  0  0  0  0  0  0  0  0  0
    8.2475   -6.8876    0.0000 C   0  0  0  0  0  0  0  0  0  0  0  0
    9.0725   -6.8876    0.0000 C   0  0  0  0  0  0  0  0  0  0  0  0
    9.4850   -6.1732    0.0000 C   0  0  0  0  0  0  0  0  0  0  0  0
    9.0725   -5.4587    0.0000 C   0  0  0  0  0  0  0  0  0  0  0  0
    8.2475   -5.4587    0.0000 C   0  0  0  0  0  0  0  0  0  0  0  0
    9.4850   -7.6021    0.0000 C   0  0  0  0  0  0  0  0  0  0  0  0
   10.3100   -7.6021    0.0000 O   0  0  0  0  0  0  0  0  0  0  0  0
   10.7225   -6.8876    0.0000 C   0  0  0  0  0  0  0  0  0  0  0  0
   10.3100   -6.1732    0.0000 N   0  0  0  0  0  0  0  0  0  0  0  0
    2.9675   -6.8876    0.0000 O   0  0  0  0  0  0  0  0  0  0  0  0
   11.5475   -6.8876    0.0000 O   0  0  0  0  0  0  0  0  0  0  0  0
    7.2634   -5.5898    0.0000 C   0  0  0  0  0  0  0  0  0  0  0  0
  1  2  1  0  0  0  0
  2  3  1  0  0  0  0
  3  4  1  0  0  0  0
  5  6  2  0  0  0  0
  6  1  1  0  0  0  0
  5  7  1  0  0  0  0
  7  8  2  0  0  0  0
  8  9  1  0  0  0  0
  9 10  2  0  0  0  0
 10  6  1  0  0  0  0
 11 12  2  0  0  0  0
 12 13  1  0  0  0  0
 13 14  2  0  0  0  0
 14 15  1  0  0  0  0
 15 16  2  0  0  0  0
 16 11  1  0  0  0  0
 17 18  1  0  0  0  0
 18 19  1  0  0  0  0
 19 20  1  0  0  0  0
 20 14  1  0  0  0  0
  2 21  2  0  0  0  0
 19 22  2  0  0  0  0
  8 23  1  0  0  0  0
 11 23  1  0  0  0  0
M  END
>  <cdx:fragmentId>
92

$$$$
