91050.cdx
  Mrv1902 05222410282D          

 17 19  0  0  0  0            999 V2000
    6.2342   -9.0601    0.0000 C   0  0  2  0  0  0  0  0  0  0  0  0
    6.2342   -9.8851    0.0000 C   0  0  0  0  0  0  0  0  0  0  0  0
    6.8175  -10.4685    0.0000 C   0  0  0  0  0  0  0  0  0  0  0  0
    7.6425  -10.4685    0.0000 C   0  0  0  0  0  0  0  0  0  0  0  0
    8.2259   -9.8851    0.0000 C   0  0  0  0  0  0  0  0  0  0  0  0
    8.2259   -9.0601    0.0000 C   0  0  0  0  0  0  0  0  0  0  0  0
    7.6425   -8.4768    0.0000 C   0  0  0  0  0  0  0  0  0  0  0  0
    6.8175   -8.4768    0.0000 C   0  0  1  0  0  0  0  0  0  0  0  0
    5.4495   -8.8052    0.0000 C   0  0  0  0  0  0  0  0  0  0  0  0
    4.9646   -9.4726    0.0000 C   0  0  0  0  0  0  0  0  0  0  0  0
    5.4495  -10.1401    0.0000 C   0  0  0  0  0  0  0  0  0  0  0  0
    7.9582   -7.7146    0.0000 O   0  0  0  0  0  0  0  0  0  0  0  0
    9.0228   -9.6716    0.0000 C   0  0  0  0  0  0  0  0  0  0  0  0
    8.6384  -10.5996    0.0000 C   0  0  0  0  0  0  0  0  0  0  0  0
    6.5018  -11.2307    0.0000 O   0  0  0  0  0  0  0  0  0  0  0  0
    6.5018   -7.7146    0.0000 H   0  0  0  0  0  0  0  0  0  0  0  0
    6.0206   -8.2633    0.0000 H   0  0  0  0  0  0  0  0  0  0  0  0
  1  2  1  0  0  0  0
  2  3  1  0  0  0  0
  3  4  1  0  0  0  0
  4  5  1  0  0  0  0
  5  6  1  0  0  0  0
  6  7  1  0  0  0  0
  7  8  1  0  0  0  0
  8  1  1  0  0  0  0
  1  9  1  0  0  0  0
  9 10  1  0  0  0  0
 10 11  1  0  0  0  0
 11  2  1  0  0  0  0
  8  2  1  0  0  0  0
  7 12  2  0  0  0  0
  5 13  1  0  0  0  0
  5 14  1  0  0  0  0
  3 15  2  0  0  0  0
  8 16  1  1  0  0  0
  1 17  1  6  0  0  0
M  END
>  <cdx:fragmentId>
5

$$$$
