91056.cdx
  Mrv1902 05222410262D          

 21 23  0  0  0  0            999 V2000
    4.9618   -6.4064    0.0000 C   0  0  0  0  0  0  0  0  0  0  0  0
    5.6763   -7.6439    0.0000 C   0  0  0  0  0  0  0  0  0  0  0  0
    6.3907   -7.2314    0.0000 C   0  0  0  0  0  0  0  0  0  0  0  0
    6.3907   -6.4064    0.0000 O   0  0  0  0  0  0  0  0  0  0  0  0
    5.6763   -5.9939    0.0000 C   0  0  0  0  0  0  0  0  0  0  0  0
    5.6763   -8.4689    0.0000 C   0  0  0  0  0  0  0  0  0  0  0  0
    6.3907   -8.8814    0.0000 O   0  0  0  0  0  0  0  0  0  0  0  0
    7.1052   -8.4689    0.0000 C   0  0  0  0  0  0  0  0  0  0  0  0
    7.1052   -7.6439    0.0000 C   0  0  0  0  0  0  0  0  0  0  0  0
    7.8197   -8.8814    0.0000 C   0  0  0  0  0  0  0  0  0  0  0  0
    8.5342   -8.4689    0.0000 C   0  0  0  0  0  0  0  0  0  0  0  0
    8.5342   -7.6439    0.0000 C   0  0  0  0  0  0  0  0  0  0  0  0
    7.8197   -7.2314    0.0000 C   0  0  0  0  0  0  0  0  0  0  0  0
    9.2486   -7.2314    0.0000 C   0  0  0  0  0  0  0  0  0  0  0  0
    9.2486   -6.4064    0.0000 C   0  0  0  0  0  0  0  0  0  0  0  0
    8.5342   -5.9939    0.0000 C   0  0  0  0  0  0  0  0  0  0  0  0
    7.8197   -6.4064    0.0000 O   0  0  0  0  0  0  0  0  0  0  0  0
    5.6763   -5.1689    0.0000 O   0  0  0  0  0  0  0  0  0  0  0  0
    8.5342   -5.1689    0.0000 O   0  0  0  0  0  0  0  0  0  0  0  0
    4.8513   -8.4689    0.0000 C   0  0  0  0  0  0  0  0  0  0  0  0
    5.2638   -9.1834    0.0000 C   0  0  0  0  0  0  0  0  0  0  0  0
  2  3  1  0  0  0  0
  3  4  1  0  0  0  0
  4  5  1  0  0  0  0
  5  1  1  0  0  0  0
  2  6  1  0  0  0  0
  6  7  1  0  0  0  0
  7  8  1  0  0  0  0
  8  9  1  0  0  0  0
  9  3  1  0  0  0  0
  8 10  2  0  0  0  0
 10 11  1  0  0  0  0
 11 12  2  0  0  0  0
 12 13  1  0  0  0  0
 13  9  2  0  0  0  0
 12 14  1  0  0  0  0
 14 15  2  0  0  0  0
 15 16  1  0  0  0  0
 16 17  1  0  0  0  0
 17 13  1  0  0  0  0
  5 18  2  0  0  0  0
 16 19  2  0  0  0  0
  6 20  1  0  0  0  0
  6 21  1  0  0  0  0
M  END
>  <cdx:fragmentId>
5

$$$$
