91059.cdx
  Mrv1902 05222410202D          

 26 28  0  0  0  0            999 V2000
   10.1265   -7.0664    0.0000 O   0  0  0  0  0  0  0  0  0  0  0  0
    8.6976   -6.2414    0.0000 O   0  0  0  0  0  0  0  0  0  0  0  0
    8.6976   -8.7164    0.0000 C   0  0  0  0  0  0  0  0  0  0  0  0
    9.4120   -8.3039    0.0000 C   0  0  0  0  0  0  0  0  0  0  0  0
    9.4120   -7.4789    0.0000 C   0  0  0  0  0  0  0  0  0  0  0  0
    8.6976   -7.0664    0.0000 C   0  0  0  0  0  0  0  0  0  0  0  0
    7.9831   -8.3039    0.0000 C   0  0  0  0  0  0  0  0  0  0  0  0
    7.9831   -7.4789    0.0000 C   0  0  0  0  0  0  0  0  0  0  0  0
    5.1252  -10.7789    0.0000 O   0  0  0  0  0  0  0  0  0  0  0  0
    6.5542  -10.7789    0.0000 O   0  0  0  0  0  0  0  0  0  0  0  0
    5.1252   -7.4789    0.0000 O   0  0  0  0  0  0  0  0  0  0  0  0
    4.4107   -7.0664    0.0000 C   0  0  0  0  0  0  0  0  0  0  0  0
    6.5542   -9.9539    0.0000 C   0  0  0  0  0  0  0  0  0  0  0  0
    7.2686   -9.5414    0.0000 C   0  0  0  0  0  0  0  0  0  0  0  0
    7.2686   -8.7164    0.0000 C   0  0  0  0  0  0  0  0  0  0  0  0
    6.5542   -8.3039    0.0000 O   0  0  0  0  0  0  0  0  0  0  0  0
    5.1252   -9.9539    0.0000 C   0  0  0  0  0  0  0  0  0  0  0  0
    5.8397   -9.5414    0.0000 C   0  0  0  0  0  0  0  0  0  0  0  0
    5.8397   -8.7164    0.0000 C   0  0  0  0  0  0  0  0  0  0  0  0
    5.1252   -8.3039    0.0000 C   0  0  0  0  0  0  0  0  0  0  0  0
    3.6963   -9.9539    0.0000 O   0  0  0  0  0  0  0  0  0  0  0  0
    4.4107   -9.5414    0.0000 C   0  0  0  0  0  0  0  0  0  0  0  0
    4.4107   -8.7164    0.0000 C   0  0  0  0  0  0  0  0  0  0  0  0
    3.6963   -8.3039    0.0000 O   0  0  0  0  0  0  0  0  0  0  0  0
    2.9818   -8.7164    0.0000 C   0  0  0  0  0  0  0  0  0  0  0  0
    2.9818   -9.5414    0.0000 C   0  0  0  0  0  0  0  0  0  0  0  0
  1  5  1  0  0  0  0
  6  2  1  0  0  0  0
  3  7  1  0  0  0  0
  4  3  2  0  0  0  0
  5  4  1  0  0  0  0
  6  5  2  0  0  0  0
  8  6  1  0  0  0  0
  7 15  1  0  0  0  0
  8  7  2  0  0  0  0
  9 17  1  0  0  0  0
 13 10  2  0  0  0  0
 11 20  1  0  0  0  0
 12 11  1  0  0  0  0
 13 18  1  0  0  0  0
 14 13  1  0  0  0  0
 15 14  2  0  0  0  0
 16 15  1  0  0  0  0
 19 16  1  0  0  0  0
 17 22  1  0  0  0  0
 18 17  2  0  0  0  0
 19 18  1  0  0  0  0
 20 19  2  0  0  0  0
 23 20  1  0  0  0  0
 21 26  1  0  0  0  0
 22 21  1  0  0  0  0
 23 22  2  0  0  0  0
 24 23  1  0  0  0  0
 25 24  1  0  0  0  0
M  END
>  <cdx:fragmentId>
5

$$$$
