91055.cdx
  Mrv1902 05222410262D          

 13 14  0  0  0  0            999 V2000
    5.4018   -9.1014    0.0000 C   0  0  0  0  0  0  0  0  0  0  0  0
    5.4018   -9.9264    0.0000 O   0  0  0  0  0  0  0  0  0  0  0  0
    6.1163  -10.3389    0.0000 C   0  0  0  0  0  0  0  0  0  0  0  0
    6.8307   -9.9264    0.0000 C   0  0  0  0  0  0  0  0  0  0  0  0
    6.8307   -9.1014    0.0000 C   0  0  0  0  0  0  0  0  0  0  0  0
    6.1163   -8.6889    0.0000 C   0  0  0  0  0  0  0  0  0  0  0  0
    7.6154  -10.1813    0.0000 C   0  0  0  0  0  0  0  0  0  0  0  0
    8.1003   -9.5139    0.0000 C   0  0  0  0  0  0  0  0  0  0  0  0
    7.6154   -8.8465    0.0000 C   0  0  0  0  0  0  0  0  0  0  0  0
    6.1163   -7.8639    0.0000 C   0  0  0  0  0  0  0  0  0  0  0  0
    4.6873   -8.6889    0.0000 O   0  0  0  0  0  0  0  0  0  0  0  0
    6.1163  -11.1639    0.0000 O   0  0  0  0  0  0  0  0  0  0  0  0
    7.8703  -10.9660    0.0000 C   0  0  0  0  0  0  0  0  0  0  0  0
  1  2  1  0  0  0  0
  2  3  1  0  0  0  0
  3  4  1  0  0  0  0
  4  5  1  0  0  0  0
  5  6  1  0  0  0  0
  6  1  1  0  0  0  0
  4  7  2  0  0  0  0
  7  8  1  0  0  0  0
  8  9  1  0  0  0  0
  9  5  1  0  0  0  0
  6 10  1  0  0  0  0
  1 11  2  0  0  0  0
  3 12  2  0  0  0  0
  7 13  1  0  0  0  0
M  END
>  <cdx:fragmentId>
5

$$$$
