91054.cdx
  Mrv1902 05222410262D          

 20 22  0  0  0  0            999 V2000
    4.3288  -12.0719    0.0000 C   0  0  0  0  0  0  0  0  0  0  0  0
    3.9163  -12.7864    0.0000 C   0  0  0  0  0  0  0  0  0  0  0  0
    4.3288  -13.5009    0.0000 C   0  0  0  0  0  0  0  0  0  0  0  0
    5.1538  -13.5009    0.0000 C   0  0  0  0  0  0  0  0  0  0  0  0
    5.5663  -12.7864    0.0000 C   0  0  0  0  0  0  0  0  0  0  0  0
    5.1538  -12.0719    0.0000 C   0  0  0  0  0  0  0  0  0  0  0  0
    6.3913  -12.7864    0.0000 C   0  0  0  0  0  0  0  0  0  0  0  0
    6.8038  -12.0719    0.0000 C   0  0  0  0  0  0  0  0  0  0  0  0
    6.3913  -11.3575    0.0000 C   0  0  0  0  0  0  0  0  0  0  0  0
    5.5663  -11.3575    0.0000 C   0  0  0  0  0  0  0  0  0  0  0  0
    6.8038  -13.5009    0.0000 C   0  0  0  0  0  0  0  0  0  0  0  0
    7.6288  -13.5009    0.0000 C   0  0  0  0  0  0  0  0  0  0  0  0
    8.0413  -12.7864    0.0000 C   0  0  0  0  0  0  0  0  0  0  0  0
    7.6288  -12.0719    0.0000 C   0  0  0  0  0  0  0  0  0  0  0  0
    8.8663  -12.7864    0.0000 O   0  0  0  0  0  0  0  0  0  0  0  0
    8.0413  -14.2153    0.0000 O   0  0  0  0  0  0  0  0  0  0  0  0
    7.6288  -14.9298    0.0000 C   0  0  0  0  0  0  0  0  0  0  0  0
    5.5663  -14.2153    0.0000 O   0  0  0  0  0  0  0  0  0  0  0  0
    3.0913  -12.7864    0.0000 O   0  0  0  0  0  0  0  0  0  0  0  0
    2.6788  -12.0719    0.0000 C   0  0  0  0  0  0  0  0  0  0  0  0
  1  2  1  0  0  0  0
  2  3  2  0  0  0  0
  3  4  1  0  0  0  0
  4  5  2  0  0  0  0
  5  6  1  0  0  0  0
  6  1  2  0  0  0  0
  5  7  1  0  0  0  0
  7  8  2  0  0  0  0
  8  9  1  0  0  0  0
  9 10  1  0  0  0  0
 10  6  1  0  0  0  0
  7 11  1  0  0  0  0
 11 12  2  0  0  0  0
 12 13  1  0  0  0  0
 13 14  2  0  0  0  0
 14  8  1  0  0  0  0
 13 15  1  0  0  0  0
 12 16  1  0  0  0  0
 16 17  1  0  0  0  0
  4 18  1  0  0  0  0
  2 19  1  0  0  0  0
 19 20  1  0  0  0  0
M  END
>  <cdx:fragmentId>
5

$$$$
