91066.cdx
  Mrv1902 05222410192D          

 26 28  0  0  0  0            999 V2000
    8.6333   -7.9308    0.0000 C   0  0  0  0  0  0  0  0  0  0  0  0
    8.6333   -7.1058    0.0000 C   0  0  0  0  0  0  0  0  0  0  0  0
    7.9188   -6.6933    0.0000 C   0  0  0  0  0  0  0  0  0  0  0  0
    7.2044   -7.1058    0.0000 C   0  0  0  0  0  0  0  0  0  0  0  0
    7.2044   -7.9308    0.0000 C   0  0  0  0  0  0  0  0  0  0  0  0
    7.9188   -8.3433    0.0000 C   0  0  0  0  0  0  0  0  0  0  0  0
    6.4899   -6.6933    0.0000 O   0  0  0  0  0  0  0  0  0  0  0  0
    5.7754   -7.1058    0.0000 C   0  0  0  0  0  0  0  0  0  0  0  0
    5.7754   -7.9308    0.0000 C   0  0  0  0  0  0  0  0  0  0  0  0
    6.4899   -8.3433    0.0000 C   0  0  0  0  0  0  0  0  0  0  0  0
    9.4179   -8.1857    0.0000 C   0  0  0  0  0  0  0  0  0  0  0  0
    9.9029   -7.5183    0.0000 C   0  0  0  0  0  0  0  0  0  0  0  0
    9.4179   -6.8509    0.0000 O   0  0  0  0  0  0  0  0  0  0  0  0
    7.9188   -9.1683    0.0000 O   0  0  0  0  0  0  0  0  0  0  0  0
    7.9188   -5.8683    0.0000 O   0  0  0  0  0  0  0  0  0  0  0  0
    5.0610   -6.6933    0.0000 O   0  0  0  0  0  0  0  0  0  0  0  0
    7.2044   -5.4558    0.0000 C   0  0  0  0  0  0  0  0  0  0  0  0
    8.6333   -9.5808    0.0000 C   0  0  0  0  0  0  0  0  0  0  0  0
    8.6333  -10.4058    0.0000 C   0  0  2  0  0  0  0  0  0  0  0  0
    9.3478  -10.8183    0.0000 O   0  0  0  0  0  0  0  0  0  0  0  0
    7.9188  -10.8183    0.0000 C   0  0  0  0  0  0  0  0  0  0  0  0
    7.2044  -10.4058    0.0000 C   0  0  0  0  0  0  0  0  0  0  0  0
    7.9188  -11.6433    0.0000 C   0  0  0  0  0  0  0  0  0  0  0  0
    7.2044  -11.2308    0.0000 O   0  0  0  0  0  0  0  0  0  0  0  0
    6.4899  -10.8183    0.0000 C   0  0  0  0  0  0  0  0  0  0  0  0
    5.7754  -11.2308    0.0000 C   0  0  0  0  0  0  0  0  0  0  0  0
  1  2  2  0  0  0  0
  2  3  1  0  0  0  0
  3  4  2  0  0  0  0
  4  5  1  0  0  0  0
  5  6  2  0  0  0  0
  6  1  1  0  0  0  0
  4  7  1  0  0  0  0
  7  8  1  0  0  0  0
  8  9  1  0  0  0  0
  9 10  2  0  0  0  0
 10  5  1  0  0  0  0
  1 11  1  0  0  0  0
 11 12  2  0  0  0  0
 12 13  1  0  0  0  0
 13  2  1  0  0  0  0
  6 14  1  0  0  0  0
  3 15  1  0  0  0  0
  8 16  2  0  0  0  0
 15 17  1  0  0  0  0
 14 18  1  0  0  0  0
 18 19  1  0  0  0  0
 19 20  1  6  0  0  0
 19 21  1  0  0  0  0
 21 22  1  0  0  0  0
 21 23  1  0  0  0  0
 21 24  1  0  0  0  0
 24 25  1  0  0  0  0
 25 26  1  0  0  0  0
M  END
>  <cdx:fragmentId>
5

$$$$
