91063.cdx
  Mrv1902 05222410192D          

 22 23  0  0  0  0            999 V2000
    6.8181   -8.6476    0.0000 C   0  0  2  0  0  0  0  0  0  0  0  0
    6.8181   -9.4726    0.0000 C   0  0  2  0  0  0  0  0  0  0  0  0
    7.5325   -9.8851    0.0000 C   0  0  1  0  0  0  0  0  0  0  0  0
    8.2470   -9.4726    0.0000 C   0  0  2  0  0  0  0  0  0  0  0  0
    8.2470   -8.6476    0.0000 C   0  0  0  0  0  0  0  0  0  0  0  0
    7.5325   -8.2351    0.0000 N   0  0  0  0  0  0  0  0  0  0  0  0
    7.5325  -10.7101    0.0000 O   0  0  0  0  0  0  0  0  0  0  0  0
    6.1036   -8.2351    0.0000 C   0  0  0  0  0  0  0  0  0  0  0  0
    6.1036   -9.8851    0.0000 O   0  0  0  0  0  0  0  0  0  0  0  0
    8.9615   -9.8851    0.0000 O   0  0  0  0  0  0  0  0  0  0  0  0
    5.3891   -8.6476    0.0000 O   0  0  0  0  0  0  0  0  0  0  0  0
    5.7002  -10.6048    0.0000 C   0  0  2  0  0  0  0  0  0  0  0  0
    4.8753  -10.6153    0.0000 O   0  0  0  0  0  0  0  0  0  0  0  0
    4.4719  -11.3350    0.0000 C   0  0  1  0  0  0  0  0  0  0  0  0
    4.8935  -12.0442    0.0000 C   0  0  2  0  0  0  0  0  0  0  0  0
    5.7184  -12.0336    0.0000 C   0  0  1  0  0  0  0  0  0  0  0  0
    6.1218  -11.3140    0.0000 C   0  0  1  0  0  0  0  0  0  0  0  0
    6.9467  -11.3035    0.0000 O   0  0  0  0  0  0  0  0  0  0  0  0
    4.4901  -12.7638    0.0000 O   0  0  0  0  0  0  0  0  0  0  0  0
    6.1400  -12.7428    0.0000 O   0  0  0  0  0  0  0  0  0  0  0  0
    3.6470  -11.3455    0.0000 C   0  0  0  0  0  0  0  0  0  0  0  0
    3.2345  -12.0600    0.0000 O   0  0  0  0  0  0  0  0  0  0  0  0
  1  2  1  0  0  0  0
  2  3  1  0  0  0  0
  3  4  1  0  0  0  0
  4  5  1  0  0  0  0
  5  6  1  0  0  0  0
  6  1  1  0  0  0  0
  3  7  1  1  0  0  0
  1  8  1  1  0  0  0
  2  9  1  6  0  0  0
  4 10  1  6  0  0  0
  8 11  1  0  0  0  0
 12  9  1  1  0  0  0
 12 13  1  0  0  0  0
 13 14  1  0  0  0  0
 14 15  1  0  0  0  0
 15 16  1  0  0  0  0
 16 17  1  0  0  0  0
 17 12  1  0  0  0  0
 17 18  1  6  0  0  0
 15 19  1  6  0  0  0
 16 20  1  1  0  0  0
 14 21  1  1  0  0  0
 21 22  1  0  0  0  0
M  END
>  <cdx:fragmentId>
5

$$$$
