91068.cdx
  Mrv1902 05222410262D          

 16 16  0  0  0  0            999 V2000
    9.5755   -8.2764    0.0000 C   0  0  0  0  0  0  0  0  0  0  0  0
    8.8610   -7.8639    0.0000 C   0  0  0  0  0  0  0  0  0  0  0  0
    8.1465   -8.2764    0.0000 C   0  0  0  0  0  0  0  0  0  0  0  0
    7.4320   -7.8639    0.0000 C   0  0  0  0  0  0  0  0  0  0  0  0
    6.7176   -8.2764    0.0000 C   0  0  0  0  0  0  0  0  0  0  0  0
    6.0031   -7.8639    0.0000 C   0  0  0  0  0  0  0  0  0  0  0  0
    5.2886   -8.2764    0.0000 C   0  0  0  0  0  0  0  0  0  0  0  0
    4.5742   -7.8639    0.0000 C   0  0  0  0  0  0  0  0  0  0  0  0
    3.8597   -8.2764    0.0000 C   0  0  0  0  0  0  0  0  0  0  0  0
    3.1452   -7.8639    0.0000 C   0  0  0  0  0  0  0  0  0  0  0  0
    2.4307   -8.2764    0.0000 C   0  0  0  0  0  0  0  0  0  0  0  0
    1.7163   -7.8639    0.0000 O   0  0  0  0  0  0  0  0  0  0  0  0
   10.4005   -8.2764    0.0000 C   0  0  0  0  0  0  0  0  0  0  0  0
   11.1149   -7.8639    0.0000 C   0  0  0  0  0  0  0  0  0  0  0  0
   11.8294   -8.2764    0.0000 C   0  0  0  0  0  0  0  0  0  0  0  0
    9.9880   -8.9909    0.0000 O   0  0  0  0  0  0  0  0  0  0  0  0
  2  1  1  0  0  0  0
  3  2  1  0  0  0  0
  4  3  1  0  0  0  0
  5  4  1  0  0  0  0
  6  5  1  0  0  0  0
  7  6  1  0  0  0  0
  8  7  1  0  0  0  0
  9  8  1  0  0  0  0
 10  9  1  0  0  0  0
 11 10  1  0  0  0  0
 12 11  1  0  0  0  0
  1 13  1  0  0  0  0
 13 14  1  0  0  0  0
 14 15  1  0  0  0  0
  1 16  1  0  0  0  0
 16 13  1  0  0  0  0
M  END
>  <cdx:fragmentId>
3

$$$$
