91067.cdx
  Mrv1902 05222410192D          

 20 22  0  0  0  0            999 V2000
    5.8968  -12.0989    0.0000 C   0  0  0  0  0  0  0  0  0  0  0  0
    5.8968  -12.9239    0.0000 C   0  0  0  0  0  0  0  0  0  0  0  0
    6.6113  -13.3364    0.0000 C   0  0  0  0  0  0  0  0  0  0  0  0
    7.3257  -12.9239    0.0000 C   0  0  0  0  0  0  0  0  0  0  0  0
    7.3257  -12.0989    0.0000 C   0  0  0  0  0  0  0  0  0  0  0  0
    6.6113  -11.6864    0.0000 C   0  0  0  0  0  0  0  0  0  0  0  0
    6.6113  -14.1614    0.0000 O   0  0  0  0  0  0  0  0  0  0  0  0
    5.8968  -14.5739    0.0000 C   0  0  0  0  0  0  0  0  0  0  0  0
    6.6113  -10.8614    0.0000 C   0  0  0  0  0  0  0  0  0  0  0  0
    7.2787  -10.3765    0.0000 O   0  0  0  0  0  0  0  0  0  0  0  0
    7.0238   -9.5919    0.0000 C   0  0  0  0  0  0  0  0  0  0  0  0
    6.1988   -9.5919    0.0000 C   0  0  0  0  0  0  0  0  0  0  0  0
    5.9438  -10.3765    0.0000 N   0  0  0  0  0  0  0  0  0  0  0  0
    5.7139   -8.9244    0.0000 C   0  0  0  0  0  0  0  0  0  0  0  0
    7.5087   -8.9244    0.0000 C   0  0  0  0  0  0  0  0  0  0  0  0
    8.3292   -9.0107    0.0000 C   0  0  0  0  0  0  0  0  0  0  0  0
    8.8141   -8.3432    0.0000 C   0  0  0  0  0  0  0  0  0  0  0  0
    8.4785   -7.5895    0.0000 C   0  0  0  0  0  0  0  0  0  0  0  0
    7.6581   -7.5033    0.0000 C   0  0  0  0  0  0  0  0  0  0  0  0
    7.1731   -8.1707    0.0000 C   0  0  0  0  0  0  0  0  0  0  0  0
  1  2  2  0  0  0  0
  2  3  1  0  0  0  0
  3  4  2  0  0  0  0
  4  5  1  0  0  0  0
  5  6  2  0  0  0  0
  6  1  1  0  0  0  0
  3  7  1  0  0  0  0
  7  8  1  0  0  0  0
  6  9  1  0  0  0  0
  9 10  1  0  0  0  0
 10 11  1  0  0  0  0
 11 12  1  0  0  0  0
 12 13  1  0  0  0  0
 13  9  1  0  0  0  0
 12 14  1  0  0  0  0
 11 15  1  0  0  0  0
 15 16  2  0  0  0  0
 16 17  1  0  0  0  0
 17 18  2  0  0  0  0
 18 19  1  0  0  0  0
 19 20  2  0  0  0  0
 20 15  1  0  0  0  0
M  END
>  <cdx:fragmentId>
5

$$$$
