91065.cdx
  Mrv1902 05222410202D          

 21 23  0  0  0  0            999 V2000
    7.5753   -7.9721    0.0000 C   0  0  0  0  0  0  0  0  0  0  0  0
    7.5763   -7.1471    0.0000 C   0  0  0  0  0  0  0  0  0  0  0  0
    6.8623   -6.7338    0.0000 C   0  0  0  0  0  0  0  0  0  0  0  0
    6.1473   -7.1454    0.0000 C   0  0  0  0  0  0  0  0  0  0  0  0
    6.1464   -7.9704    0.0000 C   0  0  0  0  0  0  0  0  0  0  0  0
    6.8604   -8.3838    0.0000 C   0  0  0  0  0  0  0  0  0  0  0  0
    5.4334   -6.7321    0.0000 O   0  0  0  0  0  0  0  0  0  0  0  0
    4.7184   -7.1437    0.0000 C   0  0  0  0  0  0  0  0  0  0  0  0
    4.7174   -7.9687    0.0000 C   0  0  0  0  0  0  0  0  0  0  0  0
    5.4314   -8.3821    0.0000 C   0  0  0  0  0  0  0  0  0  0  0  0
    8.3596   -8.2280    0.0000 C   0  0  0  0  0  0  0  0  0  0  0  0
    8.8453   -7.5611    0.0000 C   0  0  0  0  0  0  0  0  0  0  0  0
    8.3612   -6.8931    0.0000 O   0  0  0  0  0  0  0  0  0  0  0  0
    4.0044   -6.7304    0.0000 O   0  0  0  0  0  0  0  0  0  0  0  0
    6.8633   -5.9088    0.0000 O   0  0  0  0  0  0  0  0  0  0  0  0
    6.8594   -9.2088    0.0000 C   0  0  0  0  0  0  0  0  0  0  0  0
    7.5734   -9.6221    0.0000 C   0  0  0  0  0  0  0  0  0  0  0  0
    7.5724  -10.4471    0.0000 C   0  0  0  0  0  0  0  0  0  0  0  0
    8.2864  -10.8604    0.0000 C   0  0  0  0  0  0  0  0  0  0  0  0
    6.8574  -10.8588    0.0000 C   0  0  0  0  0  0  0  0  0  0  0  0
    7.5714  -11.2721    0.0000 O   0  0  0  0  0  0  0  0  0  0  0  0
  1  2  2  0  0  0  0
  2  3  1  0  0  0  0
  3  4  2  0  0  0  0
  4  5  1  0  0  0  0
  5  6  2  0  0  0  0
  6  1  1  0  0  0  0
  4  7  1  0  0  0  0
  7  8  1  0  0  0  0
  8  9  1  0  0  0  0
  9 10  2  0  0  0  0
 10  5  1  0  0  0  0
  1 11  1  0  0  0  0
 11 12  2  0  0  0  0
 12 13  1  0  0  0  0
 13  2  1  0  0  0  0
  8 14  2  0  0  0  0
  3 15  1  0  0  0  0
  6 16  1  0  0  0  0
 16 17  1  0  0  0  0
 17 18  1  0  0  0  0
 18 19  1  0  0  0  0
 18 20  1  0  0  0  0
 18 21  1  0  0  0  0
M  END
>  <cdx:fragmentId>
5

$$$$
