91064.cdx
  Mrv1902 05222410202D          

 22 23  0  0  0  0            999 V2000
    8.2509   -5.7617    0.0000 C   0  0  0  0  0  0  0  0  0  0  0  0
    8.9641   -5.3469    0.0000 C   0  0  0  0  0  0  0  0  0  0  0  0
    8.9615   -4.5219    0.0000 C   0  0  0  0  0  0  0  0  0  0  0  0
    8.2457   -4.1117    0.0000 C   0  0  0  0  0  0  0  0  0  0  0  0
    7.5325   -4.5265    0.0000 C   0  0  0  0  0  0  0  0  0  0  0  0
    7.5351   -5.3515    0.0000 C   0  0  0  0  0  0  0  0  0  0  0  0
    8.2431   -3.2867    0.0000 C   0  0  0  0  0  0  0  0  0  0  0  0
    7.5273   -2.8765    0.0000 O   0  0  0  0  0  0  0  0  0  0  0  0
    9.6799   -5.7572    0.0000 O   0  0  0  0  0  0  0  0  0  0  0  0
    9.6825   -6.5822    0.0000 C   0  0  0  0  0  0  0  0  0  0  0  0
    8.2535   -6.5867    0.0000 O   0  0  0  0  0  0  0  0  0  0  0  0
    7.5348   -6.9916    0.0000 C   0  0  2  0  0  0  0  0  0  0  0  0
    6.8247   -6.5717    0.0000 O   0  0  0  0  0  0  0  0  0  0  0  0
    6.1059   -6.9766    0.0000 C   0  0  1  0  0  0  0  0  0  0  0  0
    6.0972   -7.8016    0.0000 C   0  0  2  0  0  0  0  0  0  0  0  0
    6.8073   -8.2216    0.0000 C   0  0  1  0  0  0  0  0  0  0  0  0
    7.5261   -7.8166    0.0000 C   0  0  1  0  0  0  0  0  0  0  0  0
    6.7986   -9.0465    0.0000 O   0  0  0  0  0  0  0  0  0  0  0  0
    5.3958   -6.5566    0.0000 C   0  0  0  0  0  0  0  0  0  0  0  0
    4.6770   -6.9616    0.0000 O   0  0  0  0  0  0  0  0  0  0  0  0
    8.2362   -8.2366    0.0000 O   0  0  0  0  0  0  0  0  0  0  0  0
    5.3784   -8.2065    0.0000 O   0  0  0  0  0  0  0  0  0  0  0  0
  1  2  2  0  0  0  0
  2  3  1  0  0  0  0
  3  4  2  0  0  0  0
  4  5  1  0  0  0  0
  5  6  2  0  0  0  0
  6  1  1  0  0  0  0
  4  7  1  0  0  0  0
  7  8  1  0  0  0  0
  2  9  1  0  0  0  0
  9 10  1  0  0  0  0
  1 11  1  0  0  0  0
 12 11  1  1  0  0  0
 12 13  1  0  0  0  0
 13 14  1  0  0  0  0
 14 15  1  0  0  0  0
 15 16  1  0  0  0  0
 16 17  1  0  0  0  0
 17 12  1  0  0  0  0
 16 18  1  1  0  0  0
 14 19  1  1  0  0  0
 19 20  1  0  0  0  0
 17 21  1  6  0  0  0
 15 22  1  6  0  0  0
M  END
>  <cdx:fragmentId>
5

$$$$
