91062.cdx
  Mrv1902 05222410192D          

 24 26  0  0  0  0            999 V2000
    5.6375   -9.2400    0.0000 C   0  0  2  0  0  0  0  0  0  0  0  0
    4.5925   -9.4875    0.0000 C   0  0  0  0  0  0  0  0  0  0  0  0
    4.2900   -8.5800    0.0000 C   0  0  0  0  0  0  0  0  0  0  0  0
    5.4450   -8.3600    0.0000 C   0  0  1  0  0  0  0  0  0  0  0  0
    5.8575   -7.3425    0.0000 N   0  0  0  0  0  0  0  0  0  0  0  0
    6.8547   -8.5648    0.0000 C   0  0  1  0  0  0  0  0  0  0  0  0
    6.4306   -9.5263    0.0000 C   0  0  2  0  0  0  0  0  0  0  0  0
    7.1340   -9.2538    0.0000 C   0  0  2  0  0  0  0  0  0  0  0  0
    5.6375  -10.0650    0.0000 O   0  0  0  0  0  0  0  0  0  0  0  0
    7.8913   -9.5812    0.0000 O   0  0  0  0  0  0  0  0  0  0  0  0
    6.6442  -10.3232    0.0000 O   0  0  0  0  0  0  0  0  0  0  0  0
    7.3532   -7.9075    0.0000 O   0  0  0  0  0  0  0  0  0  0  0  0
    5.0325   -7.6455    0.0000 H   0  0  0  0  0  0  0  0  0  0  0  0
    9.4361   -8.5111    0.0000 C   0  0  2  0  0  0  0  0  0  0  0  0
    9.8103   -7.7758    0.0000 C   0  0  1  0  0  0  0  0  0  0  0  0
    9.3606   -7.0841    0.0000 C   0  0  1  0  0  0  0  0  0  0  0  0
    8.5368   -7.1277    0.0000 C   0  0  2  0  0  0  0  0  0  0  0  0
    8.1626   -7.8629    0.0000 C   0  0  2  0  0  0  0  0  0  0  0  0
    8.6123   -8.5546    0.0000 O   0  0  0  0  0  0  0  0  0  0  0  0
    8.0871   -6.4360    0.0000 O   0  0  0  0  0  0  0  0  0  0  0  0
    9.7348   -6.3489    0.0000 O   0  0  0  0  0  0  0  0  0  0  0  0
   10.6341   -7.7323    0.0000 O   0  0  0  0  0  0  0  0  0  0  0  0
    9.8858   -9.2028    0.0000 C   0  0  0  0  0  0  0  0  0  0  0  0
   10.7096   -9.1592    0.0000 O   0  0  0  0  0  0  0  0  0  0  0  0
  1  2  1  0  0  0  0
  2  3  1  0  0  0  0
  3  4  1  0  0  0  0
  4  5  1  0  0  0  0
  4  6  1  0  0  0  0
  1  7  1  0  0  0  0
  6  8  1  0  0  0  0
  7  8  1  0  0  0  0
  5  1  1  0  0  0  0
  1  9  1  1  0  0  0
  8 10  1  1  0  0  0
  7 11  1  6  0  0  0
  6 12  1  6  0  0  0
  4 13  1  6  0  0  0
 14 15  1  0  0  0  0
 15 16  1  0  0  0  0
 16 17  1  0  0  0  0
 17 18  1  0  0  0  0
 18 19  1  0  0  0  0
 19 14  1  0  0  0  0
 17 20  1  6  0  0  0
 16 21  1  1  0  0  0
 15 22  1  1  0  0  0
 14 23  1  1  0  0  0
 23 24  1  0  0  0  0
 18 12  1  6  0  0  0
M  END
>  <cdx:fragmentId>
817

$$$$
