91069.cdx
  Mrv1902 05222410262D          

 25 26  0  0  0  0            999 V2000
    5.8006   -6.8464    0.0000 C   0  0  0  0  0  0  0  0  0  0  0  0
    5.8006   -7.6714    0.0000 C   0  0  0  0  0  0  0  0  0  0  0  0
    6.5150   -8.0839    0.0000 C   0  0  0  0  0  0  0  0  0  0  0  0
    7.2295   -7.6714    0.0000 C   0  0  0  0  0  0  0  0  0  0  0  0
    7.2295   -6.8464    0.0000 C   0  0  0  0  0  0  0  0  0  0  0  0
    6.5150   -6.4339    0.0000 C   0  0  0  0  0  0  0  0  0  0  0  0
    6.5150   -5.6089    0.0000 C   0  0  0  0  0  0  0  0  0  0  0  0
    5.0861   -6.4339    0.0000 O   0  0  0  0  0  0  0  0  0  0  0  0
    4.3716   -6.8464    0.0000 C   0  0  0  0  0  0  0  0  0  0  0  0
    6.5150   -8.9089    0.0000 C   0  0  0  0  0  0  0  0  0  0  0  0
    5.6900   -8.9089    0.0000 C   0  0  0  0  0  0  0  0  0  0  0  0
    7.9440   -8.0839    0.0000 O   0  0  0  0  0  0  0  0  0  0  0  0
    7.0984   -9.4923    0.0000 C   0  0  0  0  0  0  0  0  0  0  0  0
    7.8953   -9.2787    0.0000 O   0  0  0  0  0  0  0  0  0  0  0  0
    6.1025   -9.6234    0.0000 O   0  0  0  0  0  0  0  0  0  0  0  0
    8.6584   -7.6714    0.0000 C   0  0  0  0  0  0  0  0  0  0  0  0
    9.3729   -8.0839    0.0000 C   0  0  0  0  0  0  0  0  0  0  0  0
   10.0874   -7.6714    0.0000 C   0  0  0  0  0  0  0  0  0  0  0  0
    8.6584   -6.8464    0.0000 O   0  0  0  0  0  0  0  0  0  0  0  0
    9.3729   -8.9089    0.0000 C   0  0  0  0  0  0  0  0  0  0  0  0
    8.4786   -9.8621    0.0000 C   0  0  0  0  0  0  0  0  0  0  0  0
    9.3036   -9.8621    0.0000 C   0  0  0  0  0  0  0  0  0  0  0  0
    8.1629  -10.6243    0.0000 O   0  0  0  0  0  0  0  0  0  0  0  0
   10.0181   -9.4496    0.0000 C   0  0  0  0  0  0  0  0  0  0  0  0
    9.5172  -10.6590    0.0000 C   0  0  0  0  0  0  0  0  0  0  0  0
  1  2  2  0  0  0  0
  2  3  1  0  0  0  0
  3  4  2  0  0  0  0
  4  5  1  0  0  0  0
  5  6  2  0  0  0  0
  6  1  1  0  0  0  0
  6  7  1  0  0  0  0
  1  8  1  0  0  0  0
  8  9  1  0  0  0  0
  3 10  1  0  0  0  0
 10 11  1  0  0  0  0
  4 12  1  0  0  0  0
 10 13  1  0  0  0  0
 13 14  1  0  0  0  0
 11 15  1  0  0  0  0
 15 10  1  0  0  0  0
 12 16  1  0  0  0  0
 16 17  1  0  0  0  0
 17 18  1  0  0  0  0
 16 19  2  0  0  0  0
 17 20  1  0  0  0  0
 14 21  1  0  0  0  0
 21 22  1  0  0  0  0
 21 23  2  0  0  0  0
 22 24  1  0  0  0  0
 22 25  1  0  0  0  0
M  END
>  <cdx:fragmentId>
5

$$$$
