91070.cdx
  Mrv1902 05222410202D          

 23 24  0  0  0  0            999 V2000
    5.8006   -6.8464    0.0000 C   0  0  0  0  0  0  0  0  0  0  0  0
    5.8006   -7.6714    0.0000 C   0  0  0  0  0  0  0  0  0  0  0  0
    6.5150   -8.0839    0.0000 C   0  0  0  0  0  0  0  0  0  0  0  0
    7.2295   -7.6714    0.0000 C   0  0  0  0  0  0  0  0  0  0  0  0
    7.2295   -6.8464    0.0000 C   0  0  0  0  0  0  0  0  0  0  0  0
    6.5150   -6.4339    0.0000 C   0  0  0  0  0  0  0  0  0  0  0  0
    6.5150   -5.6089    0.0000 C   0  0  0  0  0  0  0  0  0  0  0  0
    6.5150   -8.9089    0.0000 C   0  0  0  0  0  0  0  0  0  0  0  0
    5.6900   -8.9089    0.0000 C   0  0  0  0  0  0  0  0  0  0  0  0
    7.9440   -8.0839    0.0000 O   0  0  0  0  0  0  0  0  0  0  0  0
    7.0984   -9.4923    0.0000 C   0  0  0  0  0  0  0  0  0  0  0  0
    7.8953   -9.2787    0.0000 O   0  0  0  0  0  0  0  0  0  0  0  0
    6.1025   -9.6234    0.0000 O   0  0  0  0  0  0  0  0  0  0  0  0
    8.6584   -7.6714    0.0000 C   0  0  0  0  0  0  0  0  0  0  0  0
    9.3729   -8.0839    0.0000 C   0  0  0  0  0  0  0  0  0  0  0  0
   10.0874   -7.6714    0.0000 C   0  0  0  0  0  0  0  0  0  0  0  0
    8.6584   -6.8464    0.0000 O   0  0  0  0  0  0  0  0  0  0  0  0
    9.3729   -8.9089    0.0000 C   0  0  0  0  0  0  0  0  0  0  0  0
    8.4786   -9.8621    0.0000 C   0  0  0  0  0  0  0  0  0  0  0  0
    9.3036   -9.8621    0.0000 C   0  0  0  0  0  0  0  0  0  0  0  0
    8.1629  -10.6243    0.0000 O   0  0  0  0  0  0  0  0  0  0  0  0
   10.0181   -9.4496    0.0000 C   0  0  0  0  0  0  0  0  0  0  0  0
    9.5172  -10.6590    0.0000 C   0  0  0  0  0  0  0  0  0  0  0  0
  1  2  2  0  0  0  0
  2  3  1  0  0  0  0
  3  4  2  0  0  0  0
  4  5  1  0  0  0  0
  5  6  2  0  0  0  0
  6  1  1  0  0  0  0
  6  7  1  0  0  0  0
  3  8  1  0  0  0  0
  8  9  1  0  0  0  0
  4 10  1  0  0  0  0
  8 11  1  0  0  0  0
 11 12  1  0  0  0  0
  9 13  1  0  0  0  0
 13  8  1  0  0  0  0
 10 14  1  0  0  0  0
 14 15  1  0  0  0  0
 15 16  1  0  0  0  0
 14 17  2  0  0  0  0
 15 18  1  0  0  0  0
 12 19  1  0  0  0  0
 19 20  1  0  0  0  0
 19 21  2  0  0  0  0
 20 22  1  0  0  0  0
 20 23  1  0  0  0  0
M  END
>  <cdx:fragmentId>
5

$$$$
