91075.cdx
  Mrv1902 05222410182D          

 70 76  0  0  0  0            999 V2000
   14.3928   -7.7272    0.0000 C   0  0  0  0  0  0  0  0  0  0  0  0
   14.3903   -8.5522    0.0000 C   0  0  0  0  0  0  0  0  0  0  0  0
   13.6746   -8.9624    0.0000 C   0  0  0  0  0  0  0  0  0  0  0  0
   12.9614   -8.5477    0.0000 C   0  0  0  0  0  0  0  0  0  0  0  0
   12.2456   -8.9580    0.0000 C   0  0  0  0  0  0  0  0  0  0  0  0
   11.5324   -8.5433    0.0000 C   0  0  0  0  0  0  0  0  0  0  0  0
   11.5350   -7.7183    0.0000 C   0  0  0  0  0  0  0  0  0  0  0  0
   12.2507   -7.3080    0.0000 C   0  0  0  0  0  0  0  0  0  0  0  0
   12.9639   -7.7227    0.0000 C   0  0  0  0  0  0  0  0  0  0  0  0
   13.6797   -7.3125    0.0000 O   0  0  0  0  0  0  0  0  0  0  0  0
   13.6720   -9.7874    0.0000 O   0  0  0  0  0  0  0  0  0  0  0  0
   10.8218   -7.3036    0.0000 O   0  0  0  0  0  0  0  0  0  0  0  0
   10.1073   -7.7161    0.0000 C   0  0  0  0  0  0  0  0  0  0  0  0
   15.1086   -7.3169    0.0000 C   0  0  0  0  0  0  0  0  0  0  0  0
   15.1111   -6.4919    0.0000 C   0  0  0  0  0  0  0  0  0  0  0  0
   15.8269   -6.0816    0.0000 C   0  0  0  0  0  0  0  0  0  0  0  0
   16.5401   -6.4963    0.0000 C   0  0  0  0  0  0  0  0  0  0  0  0
   16.5375   -7.3213    0.0000 C   0  0  0  0  0  0  0  0  0  0  0  0
   15.8218   -7.7316    0.0000 C   0  0  0  0  0  0  0  0  0  0  0  0
   17.2558   -6.0860    0.0000 O   0  0  0  0  0  0  0  0  0  0  0  0
   12.2431   -9.7830    0.0000 O   0  0  0  0  0  0  0  0  0  0  0  0
   10.7998  -11.4286    0.0000 O   0  0  0  0  0  0  0  0  0  0  0  0
   10.7941  -12.2535    0.0000 C   0  0  1  0  0  0  0  0  0  0  0  0
   11.5058  -12.6709    0.0000 C   0  0  2  0  0  0  0  0  0  0  0  0
   12.2231  -12.2633    0.0000 C   0  0  1  0  0  0  0  0  0  0  0  0
   12.2287  -11.4383    0.0000 C   0  0  2  0  0  0  0  0  0  0  0  0
   11.5171  -11.0210    0.0000 C   0  0  2  0  0  0  0  0  0  0  0  0
   12.9460  -11.0307    0.0000 O   0  0  0  0  0  0  0  0  0  0  0  0
   12.9347  -12.6807    0.0000 O   0  0  0  0  0  0  0  0  0  0  0  0
   11.5001  -13.4959    0.0000 O   0  0  0  0  0  0  0  0  0  0  0  0
   11.5227  -10.1960    0.0000 O   0  0  0  0  0  0  0  0  0  0  0  0
   10.1050   -8.5362    0.0000 O   0  0  0  0  0  0  0  0  0  0  0  0
   10.8167   -8.9536    0.0000 C   0  0  2  0  0  0  0  0  0  0  0  0
   10.8110   -9.7786    0.0000 C   0  0  1  0  0  0  0  0  0  0  0  0
   10.0938  -10.1862    0.0000 C   0  0  2  0  0  0  0  0  0  0  0  0
    9.3821   -9.7688    0.0000 C   0  0  1  0  0  0  0  0  0  0  0  0
    9.3878   -8.9439    0.0000 C   0  0  1  0  0  0  0  0  0  0  0  0
    8.6761   -8.5265    0.0000 C   0  0  0  0  0  0  0  0  0  0  0  0
    7.9589   -8.9341    0.0000 O   0  0  0  0  0  0  0  0  0  0  0  0
    8.6649  -10.1764    0.0000 O   0  0  0  0  0  0  0  0  0  0  0  0
   10.0881  -11.0112    0.0000 O   0  0  0  0  0  0  0  0  0  0  0  0
   10.0769  -12.6612    0.0000 C   0  0  0  0  0  0  0  0  0  0  0  0
    4.3725  -10.9721    0.0000 O   0  0  0  0  0  0  0  0  0  0  0  0
    3.6496  -12.2047    0.0000 C   0  0  0  0  0  0  0  0  0  0  0  0
    4.3612  -12.6221    0.0000 O   0  0  0  0  0  0  0  0  0  0  0  0
    6.5131  -11.3993    0.0000 C   0  0  0  0  0  0  0  0  0  0  0  0
    5.8014  -10.9819    0.0000 C   0  0  0  0  0  0  0  0  0  0  0  0
    5.0841  -11.3895    0.0000 C   0  0  0  0  0  0  0  0  0  0  0  0
    5.0785  -12.2145    0.0000 C   0  0  0  0  0  0  0  0  0  0  0  0
    5.7901  -12.6319    0.0000 C   0  0  0  0  0  0  0  0  0  0  0  0
    6.5074  -12.2243    0.0000 C   0  0  0  0  0  0  0  0  0  0  0  0
    9.3652  -12.2438    0.0000 O   0  0  0  0  0  0  0  0  0  0  0  0
    8.6423  -13.4764    0.0000 O   0  0  0  0  0  0  0  0  0  0  0  0
    7.2191  -12.6416    0.0000 C   0  0  0  0  0  0  0  0  0  0  0  0
    7.9363  -12.2340    0.0000 C   0  0  0  0  0  0  0  0  0  0  0  0
    8.6480  -12.6514    0.0000 C   0  0  0  0  0  0  0  0  0  0  0  0
   10.8167   -8.1286    0.0000 H   0  0  0  0  0  0  0  0  0  0  0  0
    4.3781  -10.1472    0.0000 C   0  0  2  0  0  0  0  0  0  0  0  0
    5.0912   -9.7322    0.0000 O   0  0  0  0  0  0  0  0  0  0  0  0
    5.0912   -8.9072    0.0000 C   0  0  1  0  0  0  0  0  0  0  0  0
    4.3781   -8.4972    0.0000 C   0  0  2  0  0  0  0  0  0  0  0  0
    3.6651   -8.9072    0.0000 C   0  0  1  0  0  0  0  0  0  0  0  0
    3.6651   -9.7322    0.0000 C   0  0  1  0  0  0  0  0  0  0  0  0
    5.8053   -8.4941    0.0000 C   0  0  0  0  0  0  0  0  0  0  0  0
    2.9510   -8.4941    0.0000 O   0  0  0  0  0  0  0  0  0  0  0  0
    4.3781   -7.6722    0.0000 O   0  0  0  0  0  0  0  0  0  0  0  0
    2.9499  -10.1434    0.0000 O   0  0  0  0  0  0  0  0  0  0  0  0
    5.8046   -7.6691    0.0000 O   0  0  0  0  0  0  0  0  0  0  0  0
    5.8071  -10.1569    0.0000 O   0  0  0  0  0  0  0  0  0  0  0  0
    6.5215   -9.7444    0.0000 C   0  0  0  0  0  0  0  0  0  0  0  0
 52 42  1  0  0  0  0
 54 51  1  0  0  0  0
 48 43  1  0  0  0  0
 49 45  1  0  0  0  0
 45 44  1  0  0  0  0
 51 46  2  0  0  0  0
 47 46  1  0  0  0  0
 48 47  2  0  0  0  0
 33  6  1  0  0  0  0
  1  2  2  0  0  0  0
  2  3  1  0  0  0  0
 49 48  1  0  0  0  0
 50 49  2  0  0  0  0
 51 50  1  0  0  0  0
 56 52  1  0  0  0  0
 56 53  2  0  0  0  0
 55 54  2  0  0  0  0
 56 55  1  0  0  0  0
  3  4  1  0  0  0  0
  4  5  1  0  0  0  0
  5  6  2  0  0  0  0
  6  7  1  0  0  0  0
  7  8  2  0  0  0  0
  8  9  1  0  0  0  0
  4  9  2  0  0  0  0
  9 10  1  0  0  0  0
  1 10  1  0  0  0  0
  3 11  2  0  0  0  0
 12 13  1  0  0  0  0
  7 12  1  0  0  0  0
 14 15  1  0  0  0  0
 15 16  2  0  0  0  0
 16 17  1  0  0  0  0
 17 18  2  0  0  0  0
 18 19  1  0  0  0  0
 14 19  2  0  0  0  0
 17 20  1  0  0  0  0
  1 14  1  0  0  0  0
  5 21  1  0  0  0  0
 22 23  1  0  0  0  0
 23 24  1  0  0  0  0
 24 25  1  0  0  0  0
 25 26  1  0  0  0  0
 26 27  1  0  0  0  0
 22 27  1  0  0  0  0
 26 28  1  6  0  0  0
 25 29  1  1  0  0  0
 24 30  1  6  0  0  0
 32 33  1  0  0  0  0
 33 34  1  0  0  0  0
 34 35  1  0  0  0  0
 35 36  1  0  0  0  0
 36 37  1  0  0  0  0
 32 37  1  0  0  0  0
 38 39  1  0  0  0  0
 37 38  1  1  0  0  0
 36 40  1  6  0  0  0
 35 41  1  1  0  0  0
 34 31  1  6  0  0  0
 27 31  1  1  0  0  0
 23 42  1  1  0  0  0
 33 57  1  6  0  0  0
 58 43  1  1  0  0  0
 58 59  1  0  0  0  0
 59 60  1  0  0  0  0
 60 61  1  0  0  0  0
 61 62  1  0  0  0  0
 62 63  1  0  0  0  0
 63 58  1  0  0  0  0
 60 64  1  1  0  0  0
 62 65  1  1  0  0  0
 61 66  1  6  0  0  0
 63 67  1  6  0  0  0
 64 68  1  0  0  0  0
 47 69  1  0  0  0  0
 69 70  1  0  0  0  0
M  END
>  <cdx:fragmentId>
133584

$$$$
