91078.cdx
  Mrv1902 05222410282D          

 88 97  0  0  0  0            999 V2000
   12.9506   -5.9251    0.0000 C   0  0  0  0  0  0  0  0  0  0  0  0
   12.9506   -6.7501    0.0000 C   0  0  0  0  0  0  0  0  0  0  0  0
   13.6650   -7.1626    0.0000 C   0  0  0  0  0  0  0  0  0  0  0  0
   14.3795   -6.7501    0.0000 C   0  0  0  0  0  0  0  0  0  0  0  0
   14.3795   -5.9251    0.0000 C   0  0  0  0  0  0  0  0  0  0  0  0
   13.6650   -5.5126    0.0000 C   0  0  0  0  0  0  0  0  0  0  0  0
   15.0940   -7.1626    0.0000 C   0  0  0  0  0  0  0  0  0  0  0  0
   15.8084   -6.7501    0.0000 C   0  0  0  0  0  0  0  0  0  0  0  0
   15.8084   -5.9251    0.0000 C   0  0  0  0  0  0  0  0  0  0  0  0
   15.0940   -5.5126    0.0000 O   0  0  0  0  0  0  0  0  0  0  0  0
   17.2374   -5.9251    0.0000 C   0  0  0  0  0  0  0  0  0  0  0  0
   16.5229   -5.5126    0.0000 C   0  0  0  0  0  0  0  0  0  0  0  0
   17.9519   -5.5126    0.0000 C   0  0  0  0  0  0  0  0  0  0  0  0
   17.9519   -4.6876    0.0000 C   0  0  0  0  0  0  0  0  0  0  0  0
   17.2374   -4.2751    0.0000 C   0  0  0  0  0  0  0  0  0  0  0  0
   16.5229   -4.6876    0.0000 C   0  0  0  0  0  0  0  0  0  0  0  0
   13.6650   -7.9876    0.0000 O   0  0  0  0  0  0  0  0  0  0  0  0
   15.0940   -7.9876    0.0000 O   0  0  0  0  0  0  0  0  0  0  0  0
   12.2361   -5.5126    0.0000 O   0  0  0  0  0  0  0  0  0  0  0  0
   11.5216   -5.9251    0.0000 C   0  0  0  0  0  0  0  0  0  0  0  0
   12.2361   -7.1626    0.0000 C   0  0  2  0  0  0  0  0  0  0  0  0
   18.6663   -4.2751    0.0000 O   0  0  0  0  0  0  0  0  0  0  0  0
   11.5216   -6.7501    0.0000 O   0  0  0  0  0  0  0  0  0  0  0  0
   10.8071   -7.1626    0.0000 C   0  0  1  0  0  0  0  0  0  0  0  0
   10.8071   -7.9876    0.0000 C   0  0  2  0  0  0  0  0  0  0  0  0
   11.5216   -8.4001    0.0000 C   0  0  1  0  0  0  0  0  0  0  0  0
   12.2361   -7.9876    0.0000 C   0  0  1  0  0  0  0  0  0  0  0  0
   10.0927   -6.7501    0.0000 C   0  0  0  0  0  0  0  0  0  0  0  0
   11.5216   -9.2251    0.0000 O   0  0  0  0  0  0  0  0  0  0  0  0
   12.9506   -8.4001    0.0000 O   0  0  0  0  0  0  0  0  0  0  0  0
   10.0927   -8.4001    0.0000 O   0  0  0  0  0  0  0  0  0  0  0  0
    9.3782   -7.1626    0.0000 O   0  0  0  0  0  0  0  0  0  0  0  0
   12.9506   -9.2251    0.0000 C   0  0  2  0  0  0  0  0  0  0  0  0
   12.2361   -9.6376    0.0000 O   0  0  0  0  0  0  0  0  0  0  0  0
   12.2361  -10.4626    0.0000 C   0  0  1  0  0  0  0  0  0  0  0  0
   12.9506  -10.8751    0.0000 C   0  0  2  0  0  0  0  0  0  0  0  0
   13.6650  -10.4626    0.0000 C   0  0  1  0  0  0  0  0  0  0  0  0
   13.6650   -9.6376    0.0000 C   0  0  1  0  0  0  0  0  0  0  0  0
   14.3795  -10.8751    0.0000 O   0  0  0  0  0  0  0  0  0  0  0  0
   11.5216  -10.8751    0.0000 C   0  0  0  0  0  0  0  0  0  0  0  0
   14.3795   -9.2251    0.0000 O   0  0  0  0  0  0  0  0  0  0  0  0
   12.9506  -11.7001    0.0000 O   0  0  0  0  0  0  0  0  0  0  0  0
   11.5216  -11.7001    0.0000 O   0  0  0  0  0  0  0  0  0  0  0  0
    7.9655  -15.3896    0.0000 C   0  0  0  0  0  0  0  0  0  0  0  0
    8.6825  -15.7977    0.0000 C   0  0  0  0  0  0  0  0  0  0  0  0
    9.3944  -15.3809    0.0000 C   0  0  0  0  0  0  0  0  0  0  0  0
    9.3894  -14.5559    0.0000 C   0  0  2  0  0  0  0  0  0  0  0  0
    8.6724  -14.1478    0.0000 C   0  0  1  0  0  0  0  0  0  0  0  0
    7.9604  -14.5646    0.0000 C   0  0  1  0  0  0  0  0  0  0  0  0
   10.1013  -14.1390    0.0000 C   0  0  0  0  0  0  0  0  0  0  0  0
    9.3792  -12.9059    0.0000 C   0  0  0  0  0  0  0  0  0  0  0  0
    8.6673  -13.3228    0.0000 C   0  0  0  0  0  0  0  0  0  0  0  0
   10.8082  -12.8971    0.0000 O   0  0  0  0  0  0  0  0  0  0  0  0
   10.8031  -12.0722    0.0000 C   0  0  0  0  0  0  0  0  0  0  0  0
   10.0861  -11.6640    0.0000 C   0  0  0  0  0  0  0  0  0  0  0  0
    9.3742  -12.0809    0.0000 C   0  0  0  0  0  0  0  0  0  0  0  0
    8.6875  -16.6227    0.0000 O   0  0  0  0  0  0  0  0  0  0  0  0
    8.6572  -11.6728    0.0000 C   0  0  0  0  0  0  0  0  0  0  0  0
    7.2435  -14.1565    0.0000 C   0  0  0  0  0  0  0  0  0  0  0  0
    9.3843  -13.7309    0.0000 O   0  0  0  0  0  0  0  0  0  0  0  0
    8.8550  -15.1800    0.0000 O   0  0  0  0  0  0  0  0  0  0  0  0
    8.5525  -14.6850    0.0000 C   0  0  0  0  0  0  0  0  0  0  0  0
   12.2361   -6.3376    0.0000 H   0  0  0  0  0  0  0  0  0  0  0  0
    8.6637   -6.7501    0.0000 C   0  0  0  0  0  0  0  0  0  0  0  0
    7.9493   -7.1626    0.0000 C   0  0  0  0  0  0  0  0  0  0  0  0
    8.6637   -5.9251    0.0000 O   0  0  0  0  0  0  0  0  0  0  0  0
    7.2348   -6.7501    0.0000 C   0  0  0  0  0  0  0  0  0  0  0  0
    7.1485   -5.9297    0.0000 C   0  0  0  0  0  0  0  0  0  0  0  0
    6.3416   -5.7581    0.0000 C   0  0  0  0  0  0  0  0  0  0  0  0
    5.9291   -6.4726    0.0000 N   0  0  0  0  0  0  0  0  0  0  0  0
    6.4811   -7.0857    0.0000 C   0  0  0  0  0  0  0  0  0  0  0  0
    6.3096   -7.8927    0.0000 O   0  0  0  0  0  0  0  0  0  0  0  0
    7.7006   -5.3166    0.0000 C   0  0  0  0  0  0  0  0  0  0  0  0
    7.4456   -4.5320    0.0000 C   0  0  0  0  0  0  0  0  0  0  0  0
    6.6387   -4.3604    0.0000 C   0  0  0  0  0  0  0  0  0  0  0  0
    6.0866   -4.9735    0.0000 C   0  0  0  0  0  0  0  0  0  0  0  0
    5.1086   -6.5588    0.0000 C   0  0  2  0  0  0  0  0  0  0  0  0
    4.6237   -5.8914    0.0000 O   0  0  0  0  0  0  0  0  0  0  0  0
    3.8032   -5.9776    0.0000 C   0  0  1  0  0  0  0  0  0  0  0  0
    3.4676   -6.7313    0.0000 C   0  0  2  0  0  0  0  0  0  0  0  0
    3.9526   -7.3988    0.0000 C   0  0  1  0  0  0  0  0  0  0  0  0
    4.7730   -7.3125    0.0000 C   0  0  1  0  0  0  0  0  0  0  0  0
    3.3183   -5.3102    0.0000 C   0  0  0  0  0  0  0  0  0  0  0  0
    3.6170   -8.1524    0.0000 O   0  0  0  0  0  0  0  0  0  0  0  0
    5.2580   -7.9800    0.0000 O   0  0  0  0  0  0  0  0  0  0  0  0
    2.6472   -6.8176    0.0000 O   0  0  0  0  0  0  0  0  0  0  0  0
    2.4978   -5.3964    0.0000 O   0  0  0  0  0  0  0  0  0  0  0  0
    5.5211   -5.8444    0.0000 H   0  0  0  0  0  0  0  0  0  0  0  0
  1  2  2  0  0  0  0
  2  3  1  0  0  0  0
  3  4  2  0  0  0  0
  4  5  1  0  0  0  0
  5  6  2  0  0  0  0
  6  1  1  0  0  0  0
  4  7  1  0  0  0  0
  7  8  1  0  0  0  0
  8  9  2  0  0  0  0
  9 10  1  0  0  0  0
 10  5  1  0  0  0  0
 11 12  2  0  0  0  0
 12  9  1  0  0  0  0
 11 13  1  0  0  0  0
 13 14  2  0  0  0  0
 14 15  1  0  0  0  0
 15 16  2  0  0  0  0
 16 12  1  0  0  0  0
  3 17  1  0  0  0  0
 18  7  2  0  0  0  0
  1 19  1  0  0  0  0
 19 20  1  0  0  0  0
 21  2  1  0  0  0  0
 14 22  1  0  0  0  0
 21 23  1  0  0  0  0
 23 24  1  0  0  0  0
 24 25  1  0  0  0  0
 25 26  1  0  0  0  0
 26 27  1  0  0  0  0
 27 21  1  0  0  0  0
 24 28  1  1  0  0  0
 26 29  1  1  0  0  0
 27 30  1  6  0  0  0
 25 31  1  6  0  0  0
 28 32  1  0  0  0  0
 33 30  1  1  0  0  0
 33 34  1  0  0  0  0
 34 35  1  0  0  0  0
 35 36  1  0  0  0  0
 36 37  1  0  0  0  0
 37 38  1  0  0  0  0
 38 33  1  0  0  0  0
 37 39  1  1  0  0  0
 35 40  1  1  0  0  0
 38 41  1  6  0  0  0
 36 42  1  6  0  0  0
 40 43  1  0  0  0  0
 44 45  1  0  0  0  0
 45 46  1  0  0  0  0
 46 47  1  0  0  0  0
 47 48  1  0  0  0  0
 48 49  1  0  0  0  0
 49 44  1  0  0  0  0
 47 50  1  1  0  0  0
 51 52  2  0  0  0  0
 52 48  1  0  0  0  0
 53 54  2  0  0  0  0
 54 55  1  0  0  0  0
 55 56  2  0  0  0  0
 56 51  1  0  0  0  0
 45 57  2  0  0  0  0
 56 58  1  0  0  0  0
 49 59  1  1  0  0  0
 48 60  1  6  0  0  0
 47 61  1  6  0  0  0
 61 62  1  0  0  0  0
 54 43  1  0  0  0  0
 21 63  1  6  0  0  0
 49 62  1  6  0  0  0
 32 64  1  0  0  0  0
 64 65  1  0  0  0  0
 64 66  2  0  0  0  0
 65 67  1  0  0  0  0
 67 68  1  0  0  0  0
 68 69  2  0  0  0  0
 69 70  1  0  0  0  0
 70 71  1  0  0  0  0
 71 67  1  0  0  0  0
 71 72  2  0  0  0  0
 68 73  1  0  0  0  0
 73 74  2  0  0  0  0
 74 75  1  0  0  0  0
 75 76  2  0  0  0  0
 76 69  1  0  0  0  0
 70 77  1  0  0  0  0
 77 78  1  0  0  0  0
 78 79  1  0  0  0  0
 79 80  1  0  0  0  0
 80 81  1  0  0  0  0
 81 82  1  0  0  0  0
 82 77  1  0  0  0  0
 79 83  1  1  0  0  0
 81 84  1  1  0  0  0
 82 85  1  6  0  0  0
 80 86  1  6  0  0  0
 83 87  1  0  0  0  0
 77 88  1  6  0  0  0
M  END
>  <cdx:fragmentId>
5

$$$$
