91071.cdx
  Mrv1902 05222410202D          

 37 40  0  0  0  0            999 V2000
    7.2856   -7.2314    0.0000 C   0  0  0  0  0  0  0  0  0  0  0  0
    7.2856   -8.0564    0.0000 C   0  0  0  0  0  0  0  0  0  0  0  0
    8.0000   -8.4689    0.0000 C   0  0  0  0  0  0  0  0  0  0  0  0
    8.7145   -8.0564    0.0000 C   0  0  0  0  0  0  0  0  0  0  0  0
    8.7145   -7.2314    0.0000 C   0  0  0  0  0  0  0  0  0  0  0  0
    8.0000   -6.8189    0.0000 C   0  0  0  0  0  0  0  0  0  0  0  0
    9.4290   -8.4689    0.0000 O   0  0  0  0  0  0  0  0  0  0  0  0
   10.1434   -8.0564    0.0000 C   0  0  0  0  0  0  0  0  0  0  0  0
   10.1434   -7.2314    0.0000 C   0  0  0  0  0  0  0  0  0  0  0  0
    9.4290   -6.8189    0.0000 C   0  0  0  0  0  0  0  0  0  0  0  0
    6.5711   -6.8189    0.0000 C   0  0  0  0  0  0  0  0  0  0  0  0
    5.8566   -7.2314    0.0000 C   0  0  0  0  0  0  0  0  0  0  0  0
    6.5711   -8.4689    0.0000 O   0  0  0  0  0  0  0  0  0  0  0  0
    5.1421   -5.9939    0.0000 C   0  0  0  0  0  0  0  0  0  0  0  0
    5.1421   -6.8189    0.0000 C   0  0  0  0  0  0  0  0  0  0  0  0
   10.8579   -8.4689    0.0000 O   0  0  0  0  0  0  0  0  0  0  0  0
    4.4277   -7.2314    0.0000 C   0  0  0  0  0  0  0  0  0  0  0  0
    6.2043  -10.6161    0.0000 C   0  0  2  0  0  0  0  0  0  0  0  0
    6.6037   -9.8942    0.0000 C   0  0  2  0  0  0  0  0  0  0  0  0
    6.1782   -9.1874    0.0000 C   0  0  1  0  0  0  0  0  0  0  0  0
    5.3533   -9.2025    0.0000 O   0  0  0  0  0  0  0  0  0  0  0  0
    4.9539   -9.9244    0.0000 C   0  0  1  0  0  0  0  0  0  0  0  0
    5.3794  -10.6312    0.0000 C   0  0  1  0  0  0  0  0  0  0  0  0
    6.6298  -11.3229    0.0000 O   0  0  0  0  0  0  0  0  0  0  0  0
    4.1291   -9.9394    0.0000 C   0  0  0  0  0  0  0  0  0  0  0  0
    7.4285   -9.8791    0.0000 O   0  0  0  0  0  0  0  0  0  0  0  0
    4.9801  -11.3531    0.0000 O   0  0  0  0  0  0  0  0  0  0  0  0
    3.7297  -10.6613    0.0000 O   0  0  0  0  0  0  0  0  0  0  0  0
    7.8540  -10.5859    0.0000 C   0  0  2  0  0  0  0  0  0  0  0  0
    7.5323  -11.3456    0.0000 O   0  0  0  0  0  0  0  0  0  0  0  0
    8.1554  -11.8863    0.0000 C   0  0  0  0  0  0  0  0  0  0  0  0
    8.8622  -11.4608    0.0000 C   0  0  2  0  0  0  0  0  0  0  0  0
    8.6759  -10.6571    0.0000 C   0  0  1  0  0  0  0  0  0  0  0  0
    9.2167  -10.0341    0.0000 O   0  0  0  0  0  0  0  0  0  0  0  0
    9.5690  -11.0353    0.0000 O   0  0  0  0  0  0  0  0  0  0  0  0
    9.2877  -12.1677    0.0000 C   0  0  0  0  0  0  0  0  0  0  0  0
   10.1125  -12.1526    0.0000 O   0  0  0  0  0  0  0  0  0  0  0  0
  1  2  2  0  0  0  0
  2  3  1  0  0  0  0
  3  4  2  0  0  0  0
  4  5  1  0  0  0  0
  5  6  2  0  0  0  0
  6  1  1  0  0  0  0
  4  7  1  0  0  0  0
  7  8  1  0  0  0  0
  8  9  1  0  0  0  0
  9 10  2  0  0  0  0
 10  5  1  0  0  0  0
  1 11  1  0  0  0  0
 11 12  1  0  0  0  0
 13  2  1  0  0  0  0
 14 15  1  0  0  0  0
 15 12  2  0  0  0  0
  8 16  2  0  0  0  0
 15 17  1  0  0  0  0
 18 19  1  0  0  0  0
 19 20  1  0  0  0  0
 20 21  1  0  0  0  0
 21 22  1  0  0  0  0
 22 23  1  0  0  0  0
 23 18  1  0  0  0  0
 18 24  1  1  0  0  0
 22 25  1  1  0  0  0
 19 26  1  6  0  0  0
 23 27  1  6  0  0  0
 25 28  1  0  0  0  0
 29 26  1  1  0  0  0
 29 30  1  0  0  0  0
 30 31  1  0  0  0  0
 31 32  1  0  0  0  0
 32 33  1  0  0  0  0
 33 29  1  0  0  0  0
 33 34  1  6  0  0  0
 32 35  1  6  0  0  0
 32 36  1  1  0  0  0
 36 37  1  0  0  0  0
 20 13  1  1  0  0  0
M  END
>  <cdx:fragmentId>
119

$$$$
