91072.cdx
  Mrv1902 05222410192D          

 28 30  0  0  0  0            999 V2000
    7.2856   -7.2314    0.0000 C   0  0  0  0  0  0  0  0  0  0  0  0
    7.2856   -8.0564    0.0000 C   0  0  0  0  0  0  0  0  0  0  0  0
    8.0000   -8.4689    0.0000 C   0  0  0  0  0  0  0  0  0  0  0  0
    8.7145   -8.0564    0.0000 C   0  0  0  0  0  0  0  0  0  0  0  0
    8.7145   -7.2314    0.0000 C   0  0  0  0  0  0  0  0  0  0  0  0
    8.0000   -6.8189    0.0000 C   0  0  0  0  0  0  0  0  0  0  0  0
    9.4290   -8.4689    0.0000 O   0  0  0  0  0  0  0  0  0  0  0  0
   10.1434   -8.0564    0.0000 C   0  0  0  0  0  0  0  0  0  0  0  0
   10.1434   -7.2314    0.0000 C   0  0  0  0  0  0  0  0  0  0  0  0
    9.4290   -6.8189    0.0000 C   0  0  0  0  0  0  0  0  0  0  0  0
    6.5711   -6.8189    0.0000 C   0  0  0  0  0  0  0  0  0  0  0  0
    5.8566   -7.2314    0.0000 C   0  0  0  0  0  0  0  0  0  0  0  0
    6.5711   -8.4689    0.0000 O   0  0  0  0  0  0  0  0  0  0  0  0
    5.1421   -5.9939    0.0000 C   0  0  0  0  0  0  0  0  0  0  0  0
    5.1421   -6.8189    0.0000 C   0  0  0  0  0  0  0  0  0  0  0  0
   10.8579   -8.4689    0.0000 O   0  0  0  0  0  0  0  0  0  0  0  0
    4.4277   -7.2314    0.0000 C   0  0  0  0  0  0  0  0  0  0  0  0
    6.2038  -10.6160    0.0000 C   0  0  2  0  0  0  0  0  0  0  0  0
    6.6033   -9.8942    0.0000 C   0  0  2  0  0  0  0  0  0  0  0  0
    6.1780   -9.1873    0.0000 C   0  0  1  0  0  0  0  0  0  0  0  0
    5.3531   -9.2022    0.0000 O   0  0  0  0  0  0  0  0  0  0  0  0
    4.9536   -9.9240    0.0000 C   0  0  1  0  0  0  0  0  0  0  0  0
    5.3789  -10.6309    0.0000 C   0  0  1  0  0  0  0  0  0  0  0  0
    6.6291  -11.3229    0.0000 O   0  0  0  0  0  0  0  0  0  0  0  0
    4.1287   -9.9389    0.0000 C   0  0  0  0  0  0  0  0  0  0  0  0
    7.4282   -9.8793    0.0000 O   0  0  0  0  0  0  0  0  0  0  0  0
    4.9794  -11.3527    0.0000 O   0  0  0  0  0  0  0  0  0  0  0  0
    3.7292  -10.6607    0.0000 O   0  0  0  0  0  0  0  0  0  0  0  0
  1  2  2  0  0  0  0
  2  3  1  0  0  0  0
  3  4  2  0  0  0  0
  4  5  1  0  0  0  0
  5  6  2  0  0  0  0
  6  1  1  0  0  0  0
  4  7  1  0  0  0  0
  7  8  1  0  0  0  0
  8  9  1  0  0  0  0
  9 10  2  0  0  0  0
 10  5  1  0  0  0  0
  1 11  1  0  0  0  0
 11 12  1  0  0  0  0
 13  2  1  0  0  0  0
 14 15  1  0  0  0  0
 15 12  2  0  0  0  0
  8 16  2  0  0  0  0
 15 17  1  0  0  0  0
 18 19  1  0  0  0  0
 19 20  1  0  0  0  0
 20 21  1  0  0  0  0
 21 22  1  0  0  0  0
 22 23  1  0  0  0  0
 23 18  1  0  0  0  0
 18 24  1  1  0  0  0
 22 25  1  1  0  0  0
 19 26  1  6  0  0  0
 23 27  1  6  0  0  0
 25 28  1  0  0  0  0
 20 13  1  1  0  0  0
M  END
>  <cdx:fragmentId>
119

$$$$
