91079.cdx
  Mrv1902 05222410282D          

 39 42  0  0  0  0            999 V2000
    9.0181   -5.0314    0.0000 C   0  0  0  0  0  0  0  0  0  0  0  0
    9.0181   -5.8564    0.0000 C   0  0  0  0  0  0  0  0  0  0  0  0
    9.7325   -6.2689    0.0000 C   0  0  0  0  0  0  0  0  0  0  0  0
   10.4470   -5.8564    0.0000 C   0  0  0  0  0  0  0  0  0  0  0  0
   10.4470   -5.0314    0.0000 C   0  0  0  0  0  0  0  0  0  0  0  0
    9.7325   -4.6189    0.0000 C   0  0  0  0  0  0  0  0  0  0  0  0
   11.1615   -6.2689    0.0000 O   0  0  0  0  0  0  0  0  0  0  0  0
   11.8759   -5.8564    0.0000 C   0  0  0  0  0  0  0  0  0  0  0  0
   11.8759   -5.0314    0.0000 C   0  0  0  0  0  0  0  0  0  0  0  0
   11.1615   -4.6189    0.0000 C   0  0  0  0  0  0  0  0  0  0  0  0
    8.3036   -4.6189    0.0000 C   0  0  0  0  0  0  0  0  0  0  0  0
    7.5891   -5.0314    0.0000 C   0  0  0  0  0  0  0  0  0  0  0  0
    8.3036   -6.2689    0.0000 O   0  0  0  0  0  0  0  0  0  0  0  0
    6.8746   -3.7939    0.0000 C   0  0  0  0  0  0  0  0  0  0  0  0
    6.8746   -4.6189    0.0000 C   0  0  0  0  0  0  0  0  0  0  0  0
   12.5904   -6.2689    0.0000 O   0  0  0  0  0  0  0  0  0  0  0  0
    6.1602   -5.0314    0.0000 C   0  0  0  0  0  0  0  0  0  0  0  0
    7.9363   -8.4160    0.0000 C   0  0  2  0  0  0  0  0  0  0  0  0
    8.3358   -7.6942    0.0000 C   0  0  2  0  0  0  0  0  0  0  0  0
    7.9105   -6.9873    0.0000 C   0  0  1  0  0  0  0  0  0  0  0  0
    7.0856   -7.0022    0.0000 O   0  0  0  0  0  0  0  0  0  0  0  0
    6.6861   -7.7240    0.0000 C   0  0  1  0  0  0  0  0  0  0  0  0
    7.1114   -8.4309    0.0000 C   0  0  1  0  0  0  0  0  0  0  0  0
    8.3616   -9.1229    0.0000 O   0  0  0  0  0  0  0  0  0  0  0  0
    5.8612   -7.7389    0.0000 C   0  0  0  0  0  0  0  0  0  0  0  0
    9.1607   -7.6793    0.0000 O   0  0  0  0  0  0  0  0  0  0  0  0
    6.7119   -9.1527    0.0000 O   0  0  0  0  0  0  0  0  0  0  0  0
    5.4617   -8.4607    0.0000 O   0  0  0  0  0  0  0  0  0  0  0  0
    4.6368   -8.4755    0.0000 C   0  0  2  0  0  0  0  0  0  0  0  0
    4.2048   -7.7727    0.0000 O   0  0  0  0  0  0  0  0  0  0  0  0
    3.3802   -7.7727    0.0000 C   0  0  1  0  0  0  0  0  0  0  0  0
    2.9874   -8.4755    0.0000 C   0  0  2  0  0  0  0  0  0  0  0  0
    3.4194   -9.1784    0.0000 C   0  0  1  0  0  0  0  0  0  0  0  0
    4.2441   -9.1784    0.0000 C   0  0  1  0  0  0  0  0  0  0  0  0
    2.9626   -7.0611    0.0000 C   0  0  0  0  0  0  0  0  0  0  0  0
    3.0167   -9.8985    0.0000 O   0  0  0  0  0  0  0  0  0  0  0  0
    4.6616   -9.8900    0.0000 O   0  0  0  0  0  0  0  0  0  0  0  0
    2.1626   -8.4927    0.0000 O   0  0  0  0  0  0  0  0  0  0  0  0
    2.1377   -7.0669    0.0000 O   0  0  0  0  0  0  0  0  0  0  0  0
  1  2  2  0  0  0  0
  2  3  1  0  0  0  0
  3  4  2  0  0  0  0
  4  5  1  0  0  0  0
  5  6  2  0  0  0  0
  6  1  1  0  0  0  0
  4  7  1  0  0  0  0
  7  8  1  0  0  0  0
  8  9  1  0  0  0  0
  9 10  2  0  0  0  0
 10  5  1  0  0  0  0
  1 11  1  0  0  0  0
 11 12  1  0  0  0  0
 13  2  1  0  0  0  0
 14 15  1  0  0  0  0
 15 12  2  0  0  0  0
  8 16  2  0  0  0  0
 15 17  1  0  0  0  0
 18 19  1  0  0  0  0
 19 20  1  0  0  0  0
 20 21  1  0  0  0  0
 21 22  1  0  0  0  0
 22 23  1  0  0  0  0
 23 18  1  0  0  0  0
 18 24  1  1  0  0  0
 22 25  1  1  0  0  0
 19 26  1  6  0  0  0
 23 27  1  6  0  0  0
 25 28  1  0  0  0  0
 20 13  1  1  0  0  0
 29 28  1  1  0  0  0
 29 30  1  0  0  0  0
 30 31  1  0  0  0  0
 31 32  1  0  0  0  0
 32 33  1  0  0  0  0
 33 34  1  0  0  0  0
 34 29  1  0  0  0  0
 31 35  1  1  0  0  0
 33 36  1  1  0  0  0
 34 37  1  6  0  0  0
 32 38  1  6  0  0  0
 35 39  1  0  0  0  0
M  END
>  <cdx:fragmentId>
119

$$$$
