91081.cdx
  Mrv1902 05222410262D          

 20 22  0  0  0  0            999 V2000
    9.1984   -9.1146    0.0000 C   0  0  0  0  0  0  0  0  0  0  0  0
    9.6109   -8.4002    0.0000 N   0  0  0  0  0  0  0  0  0  0  0  0
    9.1984   -7.6857    0.0000 C   0  0  0  0  0  0  0  0  0  0  0  0
    8.3734   -7.6857    0.0000 C   0  0  0  0  0  0  0  0  0  0  0  0
    7.9609   -8.4002    0.0000 C   0  0  0  0  0  0  0  0  0  0  0  0
    8.3734   -9.1146    0.0000 C   0  0  0  0  0  0  0  0  0  0  0  0
    7.1359   -6.9712    0.0000 O   0  0  0  0  0  0  0  0  0  0  0  0
    6.7234   -7.6857    0.0000 C   0  0  0  0  0  0  0  0  0  0  0  0
    7.1359   -8.4002    0.0000 O   0  0  0  0  0  0  0  0  0  0  0  0
    5.8984   -7.6857    0.0000 C   0  0  0  0  0  0  0  0  0  0  0  0
    5.4859   -8.4002    0.0000 C   0  0  0  0  0  0  0  0  0  0  0  0
    5.8984   -9.1146    0.0000 C   0  0  0  0  0  0  0  0  0  0  0  0
    4.6609   -8.4002    0.0000 C   0  0  0  0  0  0  0  0  0  0  0  0
    4.2484   -9.1146    0.0000 C   0  0  0  0  0  0  0  0  0  0  0  0
    4.6609   -9.8291    0.0000 C   0  0  0  0  0  0  0  0  0  0  0  0
    5.4859   -9.8291    0.0000 C   0  0  0  0  0  0  0  0  0  0  0  0
    5.4859   -6.9712    0.0000 C   0  0  0  0  0  0  0  0  0  0  0  0
   10.4359   -8.4002    0.0000 C   0  0  0  0  0  0  0  0  0  0  0  0
    8.5664   -8.8259    0.0000 C   0  0  0  0  0  0  0  0  0  0  0  0
    8.5658   -8.0073    0.0000 C   0  0  0  0  0  0  0  0  0  0  0  0
  1  2  1  0  0  0  0
  2  3  1  0  0  0  0
  3  4  1  0  0  0  0
  4  5  1  0  0  0  0
  5  6  1  0  0  0  0
  6  1  1  0  0  0  0
  7  8  2  0  0  0  0
  8  9  1  0  0  0  0
  9  5  1  0  0  0  0
  8 10  1  0  0  0  0
 10 11  1  0  0  0  0
 11 12  1  0  0  0  0
 11 13  2  0  0  0  0
 13 14  1  0  0  0  0
 14 15  2  0  0  0  0
 15 16  1  0  0  0  0
 16 12  2  0  0  0  0
 17 10  2  0  0  0  0
  2 18  1  0  0  0  0
  1 19  1  0  0  0  0
 19 20  2  0  0  0  0
 20  3  1  0  0  0  0
M  END
>  <cdx:fragmentId>
5

$$$$
