91090.cdx
  Mrv1902 05222410272D          

 51 58  0  0  0  0            999 V2000
    5.6562   -8.2363    0.0000 C   0  0  0  0  0  0  0  0  0  0  0  0
    5.6562   -9.0613    0.0000 C   0  0  1  0  0  0  0  0  0  0  0  0
    6.3706   -9.4738    0.0000 C   0  0  2  0  0  0  0  0  0  0  0  0
    7.0851   -9.0613    0.0000 C   0  0  1  0  0  0  0  0  0  0  0  0
    7.0851   -8.2363    0.0000 C   0  0  2  0  0  0  0  0  0  0  0  0
    6.3706   -7.8237    0.0000 C   0  0  0  0  0  0  0  0  0  0  0  0
    7.7996   -9.4738    0.0000 C   0  0  0  0  0  0  0  0  0  0  0  0
    8.5141   -9.0613    0.0000 C   0  0  0  0  0  0  0  0  0  0  0  0
    8.5141   -8.2363    0.0000 C   0  0  0  0  0  0  0  0  0  0  0  0
    7.7996   -7.8237    0.0000 C   0  0  1  0  0  0  0  0  0  0  0  0
    9.2285   -7.8237    0.0000 C   0  0  1  0  0  0  0  0  0  0  0  0
    9.2285   -6.9988    0.0000 C   0  0  2  0  0  0  0  0  0  0  0  0
    8.5141   -6.5863    0.0000 C   0  0  0  0  0  0  0  0  0  0  0  0
    7.7996   -6.9988    0.0000 C   0  0  0  0  0  0  0  0  0  0  0  0
   10.0132   -8.0787    0.0000 C   0  0  2  0  0  0  0  0  0  0  0  0
   10.4981   -7.4112    0.0000 C   0  0  2  0  0  0  0  0  0  0  0  0
   10.0132   -6.7438    0.0000 C   0  0  2  0  0  0  0  0  0  0  0  0
    6.7831  -10.1882    0.0000 C   0  0  0  0  0  0  0  0  0  0  0  0
    4.9417   -9.4738    0.0000 O   0  0  0  0  0  0  0  0  0  0  0  0
    5.9581  -10.1882    0.0000 C   0  0  0  0  0  0  0  0  0  0  0  0
    7.0851   -7.4112    0.0000 C   0  0  0  0  0  0  0  0  0  0  0  0
    9.2285   -6.1737    0.0000 C   0  0  0  0  0  0  0  0  0  0  0  0
    9.2285   -8.6487    0.0000 C   0  0  0  0  0  0  0  0  0  0  0  0
    3.5336   -7.8153    0.0000 C   0  0  0  0  0  0  0  0  0  0  0  0
    2.8179   -8.2256    0.0000 C   0  0  2  0  0  0  0  0  0  0  0  0
    2.8154   -9.0506    0.0000 C   0  0  1  0  0  0  0  0  0  0  0  0
    3.5287   -9.4653    0.0000 C   0  0  2  0  0  0  0  0  0  0  0  0
    4.2444   -9.0549    0.0000 C   0  0  1  0  0  0  0  0  0  0  0  0
    4.2469   -8.2299    0.0000 O   0  0  0  0  0  0  0  0  0  0  0  0
    2.0997   -9.4610    0.0000 O   0  0  0  0  0  0  0  0  0  0  0  0
    2.1047   -7.8110    0.0000 O   0  0  0  0  0  0  0  0  0  0  0  0
    3.5262  -10.2903    0.0000 O   0  0  0  0  0  0  0  0  0  0  0  0
   10.2681   -8.8633    0.0000 O   0  0  0  0  0  0  0  0  0  0  0  0
    9.6007   -6.0293    0.0000 H   0  0  0  0  0  0  0  0  0  0  0  0
    7.0851   -9.8863    0.0000 H   0  0  0  0  0  0  0  0  0  0  0  0
   11.3222   -7.4483    0.0000 O   0  0  0  0  0  0  0  0  0  0  0  0
   11.8650   -6.8270    0.0000 C   0  0  2  0  0  0  0  0  0  0  0  0
   11.7177   -6.0152    0.0000 C   0  0  1  0  0  0  0  0  0  0  0  0
   10.9912   -5.6243    0.0000 C   0  0  0  0  0  0  0  0  0  0  0  0
   10.2326   -5.9485    0.0000 C   0  0  1  0  0  0  0  0  0  0  0  0
    9.6114   -5.4057    0.0000 C   0  0  0  0  0  0  0  0  0  0  0  0
   10.8075   -6.4350    0.0000 O   0  0  0  0  0  0  0  0  0  0  0  0
   12.6603   -7.0465    0.0000 C   0  0  0  0  0  0  0  0  0  0  0  0
   13.2480   -6.4675    0.0000 C   0  0  0  0  0  0  0  0  0  0  0  0
   12.8679   -7.8449    0.0000 C   0  0  0  0  0  0  0  0  0  0  0  0
   13.4556   -7.2659    0.0000 O   0  0  0  0  0  0  0  0  0  0  0  0
   12.3011   -5.4319    0.0000 H   0  0  0  0  0  0  0  0  0  0  0  0
   12.5795   -6.4145    0.0000 H   0  0  0  0  0  0  0  0  0  0  0  0
    1.3865   -9.0463    0.0000 C   0  0  0  0  0  0  0  0  0  0  0  0
    0.6708   -9.4567    0.0000 C   0  0  0  0  0  0  0  0  0  0  0  0
    1.3890   -8.2213    0.0000 O   0  0  0  0  0  0  0  0  0  0  0  0
  1  2  1  0  0  0  0
  2  3  1  0  0  0  0
  3  4  1  0  0  0  0
  4  5  1  0  0  0  0
  5  6  1  0  0  0  0
  6  1  1  0  0  0  0
  4  7  1  0  0  0  0
  7  8  1  0  0  0  0
  8  9  2  0  0  0  0
  9 10  1  0  0  0  0
 10  5  1  0  0  0  0
  9 11  1  0  0  0  0
 11 12  1  0  0  0  0
 12 13  1  0  0  0  0
 13 14  1  0  0  0  0
 14 10  1  0  0  0  0
 11 15  1  0  0  0  0
 15 16  1  0  0  0  0
 16 17  1  0  0  0  0
 17 12  1  0  0  0  0
  3 18  1  0  0  0  0
  2 19  1  1  0  0  0
  3 20  1  1  0  0  0
  5 21  1  1  0  0  0
 10 21  1  1  0  0  0
 12 22  1  1  0  0  0
 11 23  1  6  0  0  0
 24 25  1  0  0  0  0
 25 26  1  0  0  0  0
 26 27  1  0  0  0  0
 27 28  1  0  0  0  0
 28 29  1  0  0  0  0
 29 24  1  0  0  0  0
 26 30  1  1  0  0  0
 25 31  1  6  0  0  0
 27 32  1  6  0  0  0
 28 19  1  1  0  0  0
 15 33  1  6  0  0  0
 17 34  1  6  0  0  0
  4 35  1  6  0  0  0
 16 36  1  0  0  0  0
 36 37  1  0  0  0  0
 37 38  1  0  0  0  0
 38 39  1  0  0  0  0
 39 40  1  0  0  0  0
 40 17  1  0  0  0  0
 40 41  1  6  0  0  0
 38 42  1  0  0  0  0
 16 42  1  1  0  0  0
 37 43  1  0  0  0  0
 43 44  1  0  0  0  0
 43 45  1  0  0  0  0
 43 46  1  0  0  0  0
 38 47  1  1  0  0  0
 37 48  1  1  0  0  0
 30 49  1  0  0  0  0
 49 50  1  0  0  0  0
 49 51  2  0  0  0  0
M  END
>  <cdx:fragmentId>
5

$$$$
