9109.cdx
  Mrv1902 05222410222D          

 49 52  0  0  0  0            999 V2000
    9.3500   -7.2048    0.0000 O   0  0  0  0  0  0  0  0  0  0  0  0
   10.0622   -7.6211    0.0000 C   0  0  0  0  0  0  0  0  0  0  0  0
   10.7789   -7.2124    0.0000 C   0  0  0  0  0  0  0  0  0  0  0  0
   14.3490   -7.6439    0.0000 C   0  0  0  0  0  0  0  0  0  0  0  0
   13.6367   -7.2276    0.0000 O   0  0  0  0  0  0  0  0  0  0  0  0
   13.6280   -8.8776    0.0000 O   0  0  0  0  0  0  0  0  0  0  0  0
   11.4868   -8.4537    0.0000 C   0  0  0  0  0  0  0  0  0  0  0  0
   12.1990   -8.8700    0.0000 C   0  0  0  0  0  0  0  0  0  0  0  0
   12.9157   -8.4613    0.0000 C   0  0  0  0  0  0  0  0  0  0  0  0
   12.9201   -7.6363    0.0000 C   0  0  0  0  0  0  0  0  0  0  0  0
   12.2078   -7.2200    0.0000 C   0  0  0  0  0  0  0  0  0  0  0  0
    5.7776   -7.6021    0.0000 O   0  0  0  0  0  0  0  0  0  0  0  0
    7.9079   -9.6722    0.0000 O   0  0  0  0  0  0  0  0  0  0  0  0
    7.1912  -10.0809    0.0000 C   0  0  2  0  0  0  0  0  0  0  0  0
    6.4790   -9.6646    0.0000 O   0  0  0  0  0  0  0  0  0  0  0  0
    5.7623  -10.0733    0.0000 C   0  0  2  0  0  0  0  0  0  0  0  0
    5.7579  -10.8983    0.0000 C   0  0  1  0  0  0  0  0  0  0  0  0
    6.4702  -11.3146    0.0000 C   0  0  2  0  0  0  0  0  0  0  0  0
    7.1869  -10.9059    0.0000 C   0  0  1  0  0  0  0  0  0  0  0  0
    7.8991  -11.3222    0.0000 O   0  0  0  0  0  0  0  0  0  0  0  0
    5.0500   -9.6570    0.0000 C   0  0  0  0  0  0  0  0  0  0  0  0
    6.4658  -12.1396    0.0000 O   0  0  0  0  0  0  0  0  0  0  0  0
    5.0413  -11.3070    0.0000 O   0  0  0  0  0  0  0  0  0  0  0  0
   11.4911   -7.6287    0.0000 C   0  0  0  0  0  0  0  0  0  0  0  0
    6.4921   -7.1896    0.0000 C   0  0  0  0  0  0  0  0  0  0  0  0
    9.3412   -8.8548    0.0000 O   0  0  0  0  0  0  0  0  0  0  0  0
    7.9123   -8.8472    0.0000 C   0  0  2  0  0  0  0  0  0  0  0  0
    8.6289   -8.4385    0.0000 C   0  0  2  0  0  0  0  0  0  0  0  0
    8.6333   -7.6135    0.0000 C   0  0  1  0  0  0  0  0  0  0  0  0
    7.9210   -7.1972    0.0000 O   0  0  0  0  0  0  0  0  0  0  0  0
    7.2044   -7.6059    0.0000 C   0  0  1  0  0  0  0  0  0  0  0  0
    7.2000   -8.4309    0.0000 C   0  0  1  0  0  0  0  0  0  0  0  0
    6.4834   -8.8396    0.0000 O   0  0  0  0  0  0  0  0  0  0  0  0
    5.0632   -7.1896    0.0000 C   0  0  0  0  0  0  0  0  0  0  0  0
    4.3487   -7.6021    0.0000 C   0  0  0  0  0  0  0  0  0  0  0  0
    5.0632   -6.3646    0.0000 O   0  0  0  0  0  0  0  0  0  0  0  0
    3.6342   -7.1896    0.0000 C   0  0  0  0  0  0  0  0  0  0  0  0
    2.9198   -7.6021    0.0000 C   0  0  0  0  0  0  0  0  0  0  0  0
    2.2053   -7.1896    0.0000 C   0  0  0  0  0  0  0  0  0  0  0  0
    1.4908   -7.6021    0.0000 C   0  0  0  0  0  0  0  0  0  0  0  0
    1.4908   -8.4271    0.0000 C   0  0  0  0  0  0  0  0  0  0  0  0
    2.2053   -8.8396    0.0000 C   0  0  0  0  0  0  0  0  0  0  0  0
    2.9198   -8.4271    0.0000 C   0  0  0  0  0  0  0  0  0  0  0  0
    0.7763   -8.8396    0.0000 O   0  0  0  0  0  0  0  0  0  0  0  0
    0.7763   -7.1896    0.0000 O   0  0  0  0  0  0  0  0  0  0  0  0
    0.0619   -7.6021    0.0000 C   0  0  0  0  0  0  0  0  0  0  0  0
    9.3368   -9.6798    0.0000 C   0  0  0  0  0  0  0  0  0  0  0  0
   10.0491  -10.0961    0.0000 O   0  0  0  0  0  0  0  0  0  0  0  0
    8.6202  -10.0885    0.0000 C   0  0  0  0  0  0  0  0  0  0  0  0
  1  2  1  0  0  0  0
  2  3  1  0  0  0  0
  5  4  1  0  0  0  0
  3 24  1  0  0  0  0
 10  5  1  0  0  0  0
  9  6  1  0  0  0  0
  7 24  1  0  0  0  0
  8  7  2  0  0  0  0
  9  8  1  0  0  0  0
 10  9  2  0  0  0  0
 11 10  1  0  0  0  0
 24 11  2  0  0  0  0
 25 12  1  0  0  0  0
 14 13  1  1  0  0  0
 14 15  1  0  0  0  0
 15 16  1  0  0  0  0
 16 17  1  0  0  0  0
 17 18  1  0  0  0  0
 18 19  1  0  0  0  0
 19 14  1  0  0  0  0
 19 20  1  6  0  0  0
 16 21  1  6  0  0  0
 18 22  1  6  0  0  0
 27 13  1  1  0  0  0
 17 23  1  1  0  0  0
 29  1  1  1  0  0  0
 31 25  1  1  0  0  0
 28 26  1  6  0  0  0
 27 32  1  0  0  0  0
 28 27  1  0  0  0  0
 29 28  1  0  0  0  0
 30 29  1  0  0  0  0
 31 30  1  0  0  0  0
 32 31  1  0  0  0  0
 32 33  1  6  0  0  0
 12 34  1  0  0  0  0
 34 35  1  0  0  0  0
 34 36  2  0  0  0  0
 35 37  2  0  0  0  0
 37 38  1  0  0  0  0
 38 39  2  0  0  0  0
 39 40  1  0  0  0  0
 40 41  2  0  0  0  0
 41 42  1  0  0  0  0
 42 43  2  0  0  0  0
 43 38  1  0  0  0  0
 41 44  1  0  0  0  0
 40 45  1  0  0  0  0
 45 46  1  0  0  0  0
 26 47  1  0  0  0  0
 47 48  2  0  0  0  0
 47 49  1  0  0  0  0
M  END
>  <cdx:fragmentId>
5

$$$$
