91093.cdx
  Mrv1902 05222410282D          

 36 37  0  0  0  0            999 V2000
    2.2781   -6.6485    0.0000 O   0  0  0  0  0  0  0  0  0  0  0  0
    2.9978   -6.2453    0.0000 C   0  0  0  0  0  0  0  0  0  0  0  0
    3.7069   -6.6669    0.0000 C   0  0  2  0  0  0  0  0  0  0  0  0
    3.6963   -7.4918    0.0000 C   0  0  2  0  0  0  0  0  0  0  0  0
    4.4054   -7.9135    0.0000 C   0  0  1  0  0  0  0  0  0  0  0  0
    5.1251   -7.5102    0.0000 C   0  0  2  0  0  0  0  0  0  0  0  0
    5.1357   -6.6853    0.0000 C   0  0  1  0  0  0  0  0  0  0  0  0
    4.4266   -6.2636    0.0000 O   0  0  0  0  0  0  0  0  0  0  0  0
    4.3948   -8.7384    0.0000 O   0  0  0  0  0  0  0  0  0  0  0  0
    5.8554   -6.2820    0.0000 O   0  0  0  0  0  0  0  0  0  0  0  0
    2.9766   -7.8951    0.0000 O   0  0  0  0  0  0  0  0  0  0  0  0
    5.8342   -7.9319    0.0000 O   0  0  0  0  0  0  0  0  0  0  0  0
    6.2699   -5.5664    0.0000 C   0  0  0  0  0  0  0  0  0  0  0  0
    7.0949   -5.5770    0.0000 C   0  0  0  0  0  0  0  0  0  0  0  0
    7.5165   -4.8679    0.0000 C   0  0  1  0  0  0  0  0  0  0  0  0
    8.3414   -4.8785    0.0000 C   0  0  0  0  0  0  0  0  0  0  0  0
    9.1643   -4.8197    0.0000 C   0  0  0  0  0  0  0  0  0  0  0  0
    9.9872   -4.7608    0.0000 C   0  0  0  0  0  0  0  0  0  0  0  0
   10.8101   -4.7020    0.0000 C   0  0  0  0  0  0  0  0  0  0  0  0
   11.6330   -4.6431    0.0000 C   0  0  2  0  0  0  0  0  0  0  0  0
   12.1733   -4.0196    0.0000 C   0  0  0  0  0  0  0  0  0  0  0  0
   12.9834   -4.1757    0.0000 C   0  0  0  0  0  0  0  0  0  0  0  0
    7.1132   -4.1482    0.0000 O   0  0  0  0  0  0  0  0  0  0  0  0
   12.0023   -5.3808    0.0000 O   0  0  0  0  0  0  0  0  0  0  0  0
    7.0539   -8.6695    0.0000 O   0  0  0  0  0  0  0  0  0  0  0  0
    6.2292   -8.6482    0.0000 C   0  0  0  0  0  0  0  0  0  0  0  0
    5.7984   -9.3519    0.0000 C   0  0  0  0  0  0  0  0  0  0  0  0
    6.1924  -10.0767    0.0000 C   0  0  0  0  0  0  0  0  0  0  0  0
    4.4694  -12.8912    0.0000 O   0  0  0  0  0  0  0  0  0  0  0  0
    6.1556  -11.5052    0.0000 C   0  0  0  0  0  0  0  0  0  0  0  0
    5.7617  -10.7803    0.0000 C   0  0  0  0  0  0  0  0  0  0  0  0
    4.9369  -10.7591    0.0000 C   0  0  0  0  0  0  0  0  0  0  0  0
    4.5062  -11.4627    0.0000 C   0  0  0  0  0  0  0  0  0  0  0  0
    4.9001  -12.1875    0.0000 C   0  0  0  0  0  0  0  0  0  0  0  0
    5.7249  -12.2088    0.0000 C   0  0  0  0  0  0  0  0  0  0  0  0
    3.6813  -11.5391    0.0000 O   0  0  0  0  0  0  0  0  0  0  0  0
  1  2  1  0  0  0  0
  3  2  1  1  0  0  0
  3  4  1  0  0  0  0
  4  5  1  0  0  0  0
  5  6  1  0  0  0  0
  6  7  1  0  0  0  0
  7  8  1  0  0  0  0
  8  3  1  0  0  0  0
  5  9  1  1  0  0  0
  7 10  1  1  0  0  0
  4 11  1  6  0  0  0
  6 12  1  6  0  0  0
 13 14  1  0  0  0  0
 14 15  1  0  0  0  0
 15 16  1  0  0  0  0
 16 17  3  0  0  0  0
 17 18  1  0  0  0  0
 18 19  3  0  0  0  0
 19 20  1  0  0  0  0
 20 21  1  0  0  0  0
 21 22  2  0  0  0  0
 15 23  1  6  0  0  0
 20 24  1  6  0  0  0
 13 10  1  0  0  0  0
 26 25  2  0  0  0  0
 27 26  1  0  0  0  0
 28 27  2  0  0  0  0
 31 28  1  0  0  0  0
 34 29  1  0  0  0  0
 30 35  1  0  0  0  0
 31 30  2  0  0  0  0
 32 31  1  0  0  0  0
 33 32  2  0  0  0  0
 34 33  1  0  0  0  0
 35 34  2  0  0  0  0
 33 36  1  0  0  0  0
 26 12  1  0  0  0  0
M  END
>  <cdx:fragmentId>
5

$$$$
