91092.cdx
  Mrv1902 05222410282D          

 36 37  0  0  0  0            999 V2000
    1.6564  -10.9620    0.0000 C   0  0  0  0  0  0  0  0  0  0  0  0
    2.0736  -11.6737    0.0000 C   0  0  0  0  0  0  0  0  0  0  0  0
    2.8986  -11.6682    0.0000 C   0  0  0  0  0  0  0  0  0  0  0  0
    3.3063  -10.9510    0.0000 C   0  0  0  0  0  0  0  0  0  0  0  0
    2.8891  -10.2393    0.0000 C   0  0  0  0  0  0  0  0  0  0  0  0
    2.0641  -10.2448    0.0000 C   0  0  0  0  0  0  0  0  0  0  0  0
    0.8314  -10.9675    0.0000 O   0  0  0  0  0  0  0  0  0  0  0  0
    1.6659  -12.3909    0.0000 O   0  0  0  0  0  0  0  0  0  0  0  0
    3.2968   -9.5220    0.0000 C   0  0  0  0  0  0  0  0  0  0  0  0
    4.1218   -9.5165    0.0000 C   0  0  0  0  0  0  0  0  0  0  0  0
    4.5295   -8.7993    0.0000 C   0  0  0  0  0  0  0  0  0  0  0  0
    5.3545   -8.7938    0.0000 O   0  0  0  0  0  0  0  0  0  0  0  0
    4.1122   -8.0876    0.0000 O   0  0  0  0  0  0  0  0  0  0  0  0
    6.0662   -8.3766    0.0000 C   0  0  0  0  0  0  0  0  0  0  0  0
    6.7834   -8.7843    0.0000 C   0  0  2  0  0  0  0  0  0  0  0  0
    6.7889   -9.6093    0.0000 C   0  0  2  0  0  0  0  0  0  0  0  0
    7.5061  -10.0170    0.0000 C   0  0  1  0  0  0  0  0  0  0  0  0
    8.2178   -9.5997    0.0000 C   0  0  2  0  0  0  0  0  0  0  0  0
    8.2123   -8.7747    0.0000 C   0  0  1  0  0  0  0  0  0  0  0  0
    7.4951   -8.3670    0.0000 O   0  0  0  0  0  0  0  0  0  0  0  0
    7.5116  -10.8420    0.0000 O   0  0  0  0  0  0  0  0  0  0  0  0
    8.9240   -8.3575    0.0000 O   0  0  0  0  0  0  0  0  0  0  0  0
    6.0772  -10.0265    0.0000 O   0  0  0  0  0  0  0  0  0  0  0  0
    8.9350  -10.0074    0.0000 O   0  0  0  0  0  0  0  0  0  0  0  0
    9.3244   -7.6339    0.0000 C   0  0  0  0  0  0  0  0  0  0  0  0
   10.1494   -7.6284    0.0000 C   0  0  0  0  0  0  0  0  0  0  0  0
   10.5571   -6.9112    0.0000 C   0  0  1  0  0  0  0  0  0  0  0  0
   11.3821   -6.9057    0.0000 C   0  0  0  0  0  0  0  0  0  0  0  0
   12.2037   -6.8308    0.0000 C   0  0  0  0  0  0  0  0  0  0  0  0
   13.0253   -6.7559    0.0000 C   0  0  0  0  0  0  0  0  0  0  0  0
   13.8469   -6.6809    0.0000 C   0  0  0  0  0  0  0  0  0  0  0  0
   14.6685   -6.6060    0.0000 C   0  0  2  0  0  0  0  0  0  0  0  0
   15.1964   -5.9721    0.0000 C   0  0  0  0  0  0  0  0  0  0  0  0
   16.0094   -6.1124    0.0000 C   0  0  0  0  0  0  0  0  0  0  0  0
   10.1399   -6.1995    0.0000 O   0  0  0  0  0  0  0  0  0  0  0  0
   15.0521   -7.3364    0.0000 O   0  0  0  0  0  0  0  0  0  0  0  0
  1  2  2  0  0  0  0
  2  3  1  0  0  0  0
  3  4  2  0  0  0  0
  4  5  1  0  0  0  0
  5  6  2  0  0  0  0
  6  1  1  0  0  0  0
  1  7  1  0  0  0  0
  2  8  1  0  0  0  0
  5  9  1  0  0  0  0
  9 10  2  0  0  0  0
 10 11  1  0  0  0  0
 11 12  1  0  0  0  0
 11 13  2  0  0  0  0
 12 14  1  0  0  0  0
 15 14  1  1  0  0  0
 15 16  1  0  0  0  0
 16 17  1  0  0  0  0
 17 18  1  0  0  0  0
 18 19  1  0  0  0  0
 19 20  1  0  0  0  0
 20 15  1  0  0  0  0
 17 21  1  1  0  0  0
 19 22  1  1  0  0  0
 16 23  1  6  0  0  0
 18 24  1  6  0  0  0
 25 26  1  0  0  0  0
 26 27  1  0  0  0  0
 27 28  1  0  0  0  0
 28 29  3  0  0  0  0
 29 30  1  0  0  0  0
 30 31  3  0  0  0  0
 31 32  1  0  0  0  0
 32 33  1  0  0  0  0
 33 34  2  0  0  0  0
 27 35  1  6  0  0  0
 32 36  1  6  0  0  0
 25 22  1  0  0  0  0
M  END
>  <cdx:fragmentId>
5

$$$$
