91098.cdx
  Mrv1902 05222410192D          

 31 35  0  0  0  0            999 V2000
    4.9068   -9.4314    0.0000 C   0  0  0  0  0  0  0  0  0  0  0  0
    4.9068  -10.2564    0.0000 C   0  0  1  0  0  0  0  0  0  0  0  0
    5.6213  -10.6689    0.0000 C   0  0  0  0  0  0  0  0  0  0  0  0
    6.3357  -10.2564    0.0000 C   0  0  0  0  0  0  0  0  0  0  0  0
    6.3357   -9.4314    0.0000 C   0  0  2  0  0  0  0  0  0  0  0  0
    5.6213   -9.0189    0.0000 C   0  0  0  0  0  0  0  0  0  0  0  0
    7.0502  -10.6689    0.0000 C   0  0  0  0  0  0  0  0  0  0  0  0
    7.7647  -10.2564    0.0000 C   0  0  0  0  0  0  0  0  0  0  0  0
    7.7647   -9.4314    0.0000 C   0  0  2  0  0  0  0  0  0  0  0  0
    7.0502   -9.0189    0.0000 C   0  0  0  0  0  0  0  0  0  0  0  0
    8.4792   -9.0189    0.0000 C   0  0  1  0  0  0  0  0  0  0  0  0
    8.4792   -8.1939    0.0000 C   0  0  0  0  0  0  0  0  0  0  0  0
    7.7647   -7.7814    0.0000 C   0  0  0  0  0  0  0  0  0  0  0  0
    7.0502   -8.1939    0.0000 C   0  0  0  0  0  0  0  0  0  0  0  0
    9.1936   -9.4314    0.0000 C   0  0  0  0  0  0  0  0  0  0  0  0
    9.9081   -9.0189    0.0000 C   0  0  0  0  0  0  0  0  0  0  0  0
    9.9081   -8.1939    0.0000 C   0  0  2  0  0  0  0  0  0  0  0  0
    9.1936   -7.7814    0.0000 C   0  0  0  0  0  0  0  0  0  0  0  0
   10.5212   -7.6419    0.0000 C   0  0  0  0  0  0  0  0  0  0  0  0
   10.1856   -6.8882    0.0000 C   0  0  0  0  0  0  0  0  0  0  0  0
    9.3652   -6.9744    0.0000 C   0  0  1  0  0  0  0  0  0  0  0  0
    5.2088  -11.3834    0.0000 C   0  0  0  0  0  0  0  0  0  0  0  0
    6.0338  -11.3834    0.0000 C   0  0  0  0  0  0  0  0  0  0  0  0
    8.8131   -6.3613    0.0000 C   0  0  0  0  0  0  0  0  0  0  0  0
    9.0681   -5.5767    0.0000 O   0  0  0  0  0  0  0  0  0  0  0  0
    8.0062   -6.5329    0.0000 C   0  0  0  0  0  0  0  0  0  0  0  0
    4.1923  -10.6689    0.0000 O   0  0  0  0  0  0  0  0  0  0  0  0
    6.3357   -8.6064    0.0000 C   0  0  0  0  0  0  0  0  0  0  0  0
    7.7647   -8.6064    0.0000 C   0  0  0  0  0  0  0  0  0  0  0  0
   10.6618   -8.5295    0.0000 C   0  0  0  0  0  0  0  0  0  0  0  0
    8.4792   -9.8439    0.0000 C   0  0  0  0  0  0  0  0  0  0  0  0
  1  2  1  0  0  0  0
  2  3  1  0  0  0  0
  3  4  1  0  0  0  0
  4  5  1  0  0  0  0
  5  6  1  0  0  0  0
  6  1  1  0  0  0  0
  4  7  1  0  0  0  0
  7  8  1  0  0  0  0
  8  9  1  0  0  0  0
  9 10  1  0  0  0  0
 10  5  1  0  0  0  0
  9 11  1  0  0  0  0
 11 12  1  0  0  0  0
 12 13  1  0  0  0  0
 13 14  1  0  0  0  0
 14 10  1  0  0  0  0
 11 15  1  0  0  0  0
 15 16  1  0  0  0  0
 16 17  1  0  0  0  0
 17 18  1  0  0  0  0
 18 12  1  0  0  0  0
 17 19  1  0  0  0  0
 19 20  1  0  0  0  0
 20 21  1  0  0  0  0
 21 18  1  0  0  0  0
  3 22  1  0  0  0  0
  3 23  1  0  0  0  0
 21 24  1  6  0  0  0
 24 25  2  0  0  0  0
 24 26  1  0  0  0  0
  2 27  1  1  0  0  0
  5 28  1  1  0  0  0
  9 29  1  1  0  0  0
 17 30  1  1  0  0  0
 11 31  1  6  0  0  0
M  END
>  <cdx:fragmentId>
5

$$$$
