91099.cdx
  Mrv1902 05222410192D          

 26 27  0  0  0  0            999 V2000
    4.0956   -7.2864    0.0000 C   0  0  0  0  0  0  0  0  0  0  0  0
    4.0956   -8.1114    0.0000 C   0  0  1  0  0  0  0  0  0  0  0  0
    4.8100   -8.5239    0.0000 C   0  0  0  0  0  0  0  0  0  0  0  0
    5.5245   -8.1114    0.0000 C   0  0  0  0  0  0  0  0  0  0  0  0
    5.5245   -7.2864    0.0000 C   0  0  0  0  0  0  0  0  0  0  0  0
    4.8100   -6.8739    0.0000 C   0  0  0  0  0  0  0  0  0  0  0  0
    6.2390   -8.5239    0.0000 C   0  0  2  0  0  0  0  0  0  0  0  0
    6.9534   -8.1114    0.0000 C   0  0  1  0  0  0  0  0  0  0  0  0
    6.9534   -7.2864    0.0000 C   0  0  1  0  0  0  0  0  0  0  0  0
    6.2390   -6.8739    0.0000 C   0  0  0  0  0  0  0  0  0  0  0  0
    8.3824   -8.1114    0.0000 O   0  0  0  0  0  0  0  0  0  0  0  0
    8.3824   -7.2864    0.0000 C   0  0  0  0  0  0  0  0  0  0  0  0
    7.6679   -6.8739    0.0000 O   0  0  0  0  0  0  0  0  0  0  0  0
    9.8113   -7.2864    0.0000 C   0  0  0  0  0  0  0  0  0  0  0  0
    9.0969   -6.8739    0.0000 C   0  0  0  0  0  0  0  0  0  0  0  0
   10.5258   -6.8739    0.0000 C   0  0  0  0  0  0  0  0  0  0  0  0
   10.5258   -6.0489    0.0000 O   0  0  0  0  0  0  0  0  0  0  0  0
    9.0969   -6.0489    0.0000 C   0  0  0  0  0  0  0  0  0  0  0  0
    6.4105   -9.3309    0.0000 O   0  0  0  0  0  0  0  0  0  0  0  0
    7.2310   -9.4171    0.0000 C   0  0  0  0  0  0  0  0  0  0  0  0
    7.5665   -8.6634    0.0000 C   0  0  0  0  0  0  0  0  0  0  0  0
    6.1079   -7.8698    0.0000 C   0  0  0  0  0  0  0  0  0  0  0  0
    8.3735   -8.4919    0.0000 C   0  0  0  0  0  0  0  0  0  0  0  0
    7.6435  -10.1316    0.0000 O   0  0  0  0  0  0  0  0  0  0  0  0
    4.8100   -9.3489    0.0000 C   0  0  0  0  0  0  0  0  0  0  0  0
    3.3811   -8.5239    0.0000 O   0  0  0  0  0  0  0  0  0  0  0  0
  1  2  1  0  0  0  0
  2  3  1  0  0  0  0
  3  4  2  0  0  0  0
  5  6  2  0  0  0  0
  6  1  1  0  0  0  0
  4  7  1  0  0  0  0
  7  8  1  0  0  0  0
  8  9  1  0  0  0  0
  9 10  1  0  0  0  0
 10  5  1  0  0  0  0
 11 12  2  0  0  0  0
 12 13  1  0  0  0  0
  9 13  1  1  0  0  0
 14 15  2  0  0  0  0
 15 12  1  0  0  0  0
 14 16  1  0  0  0  0
 16 17  1  0  0  0  0
 18 15  1  0  0  0  0
  7 19  1  6  0  0  0
 19 20  1  0  0  0  0
 20 21  1  0  0  0  0
  8 21  1  1  0  0  0
  5 22  1  0  0  0  0
 21 23  2  0  0  0  0
 20 24  2  0  0  0  0
  3 25  1  0  0  0  0
  2 26  1  1  0  0  0
M  END
>  <cdx:fragmentId>
5

$$$$
