91094.cdx
  Mrv1902 05222410272D          

 32 35  0  0  0  0            999 V2000
    5.4247   -7.5476    0.0000 C   0  0  2  0  0  0  0  0  0  0  0  0
    5.4247   -8.3726    0.0000 C   0  0  1  0  0  0  0  0  0  0  0  0
    6.0697   -8.8870    0.0000 C   0  0  2  0  0  0  0  0  0  0  0  0
    6.8740   -8.7034    0.0000 C   0  0  0  0  0  0  0  0  0  0  0  0
    7.2320   -7.9601    0.0000 C   0  0  2  0  0  0  0  0  0  0  0  0
    6.8740   -7.2169    0.0000 C   0  0  0  0  0  0  0  0  0  0  0  0
    6.0697   -7.0333    0.0000 C   0  0  0  0  0  0  0  0  0  0  0  0
    5.8861   -6.2290    0.0000 C   0  0  0  0  0  0  0  0  0  0  0  0
    5.9958   -9.7087    0.0000 O   0  0  0  0  0  0  0  0  0  0  0  0
    6.7544  -10.0330    0.0000 C   0  0  0  0  0  0  0  0  0  0  0  0
    7.2972   -9.4117    0.0000 C   0  0  1  0  0  0  0  0  0  0  0  0
    4.6401   -7.2927    0.0000 C   0  0  0  0  0  0  0  0  0  0  0  0
    4.1552   -7.9601    0.0000 C   0  0  2  0  0  0  0  0  0  0  0  0
    4.6401   -8.6276    0.0000 C   0  0  0  0  0  0  0  0  0  0  0  0
    4.3851   -9.4122    0.0000 C   0  0  0  0  0  0  0  0  0  0  0  0
    6.9380  -10.8373    0.0000 O   0  0  0  0  0  0  0  0  0  0  0  0
    3.3302   -7.9601    0.0000 O   0  0  0  0  0  0  0  0  0  0  0  0
    5.2112   -6.7508    0.0000 H   0  0  0  0  0  0  0  0  0  0  0  0
    5.2112   -9.1695    0.0000 H   0  0  0  0  0  0  0  0  0  0  0  0
    8.0570   -7.9601    0.0000 O   0  0  0  0  0  0  0  0  0  0  0  0
    8.1189   -9.4856    0.0000 C   0  0  0  0  0  0  0  0  0  0  0  0
   10.2016   -7.5437    0.0000 C   0  0  2  0  0  0  0  0  0  0  0  0
   10.2000   -6.7187    0.0000 C   0  0  2  0  0  0  0  0  0  0  0  0
    9.4847   -6.3076    0.0000 C   0  0  1  0  0  0  0  0  0  0  0  0
    8.7711   -6.7216    0.0000 C   0  0  2  0  0  0  0  0  0  0  0  0
    8.7727   -7.5465    0.0000 C   0  0  1  0  0  0  0  0  0  0  0  0
    9.4880   -7.9576    0.0000 O   0  0  0  0  0  0  0  0  0  0  0  0
   10.9169   -7.9548    0.0000 C   0  0  0  0  0  0  0  0  0  0  0  0
    9.4831   -5.4826    0.0000 O   0  0  0  0  0  0  0  0  0  0  0  0
   10.9137   -6.3048    0.0000 O   0  0  0  0  0  0  0  0  0  0  0  0
    8.0558   -6.3105    0.0000 O   0  0  0  0  0  0  0  0  0  0  0  0
   11.6306   -7.5409    0.0000 O   0  0  0  0  0  0  0  0  0  0  0  0
  1  2  1  0  0  0  0
  2  3  1  0  0  0  0
  3  4  1  0  0  0  0
  4  5  1  0  0  0  0
  5  6  1  0  0  0  0
  6  7  1  0  0  0  0
  7  1  1  0  0  0  0
  7  8  2  0  0  0  0
  3  9  1  6  0  0  0
  9 10  1  0  0  0  0
 10 11  1  0  0  0  0
 11  4  1  0  0  0  0
  1 12  1  0  0  0  0
 12 13  1  0  0  0  0
 13 14  1  0  0  0  0
 14  2  1  0  0  0  0
 14 15  2  0  0  0  0
 10 16  2  0  0  0  0
 13 17  1  6  0  0  0
  1 18  1  6  0  0  0
  2 19  1  6  0  0  0
  5 20  1  6  0  0  0
 11 21  1  6  0  0  0
 22 23  1  0  0  0  0
 23 24  1  0  0  0  0
 24 25  1  0  0  0  0
 25 26  1  0  0  0  0
 26 27  1  0  0  0  0
 27 22  1  0  0  0  0
 22 28  1  1  0  0  0
 24 29  1  1  0  0  0
 23 30  1  6  0  0  0
 25 31  1  6  0  0  0
 28 32  1  0  0  0  0
 26 20  1  1  0  0  0
M  END
>  <cdx:fragmentId>
5

$$$$
