91097.cdx
  Mrv1902 05222410262D          

 46 51  0  0  0  0            999 V2000
    5.2918   -8.9639    0.0000 C   0  0  0  0  0  0  0  0  0  0  0  0
    5.2918   -9.7889    0.0000 C   0  0  1  0  0  0  0  0  0  0  0  0
    6.0063  -10.2014    0.0000 C   0  0  0  0  0  0  0  0  0  0  0  0
    6.7207   -9.7889    0.0000 C   0  0  1  0  0  0  0  0  0  0  0  0
    6.7207   -8.9639    0.0000 C   0  0  2  0  0  0  0  0  0  0  0  0
    6.0063   -8.5514    0.0000 C   0  0  0  0  0  0  0  0  0  0  0  0
    7.4352  -10.2014    0.0000 C   0  0  0  0  0  0  0  0  0  0  0  0
    8.1497   -9.7889    0.0000 C   0  0  0  0  0  0  0  0  0  0  0  0
    8.1497   -8.9639    0.0000 C   0  0  2  0  0  0  0  0  0  0  0  0
    7.4352   -8.5514    0.0000 C   0  0  2  0  0  0  0  0  0  0  0  0
    8.8642   -8.5514    0.0000 C   0  0  1  0  0  0  0  0  0  0  0  0
    8.8642   -7.7264    0.0000 C   0  0  0  0  0  0  0  0  0  0  0  0
    8.1497   -7.3139    0.0000 C   0  0  0  0  0  0  0  0  0  0  0  0
    7.4352   -7.7264    0.0000 C   0  0  0  0  0  0  0  0  0  0  0  0
    9.5786   -8.9639    0.0000 C   0  0  0  0  0  0  0  0  0  0  0  0
   10.2931   -8.5514    0.0000 C   0  0  0  0  0  0  0  0  0  0  0  0
   10.2931   -7.7264    0.0000 C   0  0  2  0  0  0  0  0  0  0  0  0
    9.5786   -7.3139    0.0000 C   0  0  1  0  0  0  0  0  0  0  0  0
   11.0076   -7.3139    0.0000 C   0  0  0  0  0  0  0  0  0  0  0  0
   11.0076   -6.4889    0.0000 C   0  0  0  0  0  0  0  0  0  0  0  0
   10.2931   -6.0764    0.0000 C   0  0  2  0  0  0  0  0  0  0  0  0
    9.5786   -6.4889    0.0000 C   0  0  2  0  0  0  0  0  0  0  0  0
   11.0076   -8.1389    0.0000 C   0  0  0  0  0  0  0  0  0  0  0  0
   11.7220   -7.7264    0.0000 O   0  0  0  0  0  0  0  0  0  0  0  0
   11.0076   -8.9639    0.0000 O   0  0  0  0  0  0  0  0  0  0  0  0
    4.5773  -10.2014    0.0000 O   0  0  0  0  0  0  0  0  0  0  0  0
    3.8637   -9.7875    0.0000 C   0  0  2  0  0  0  0  0  0  0  0  0
    3.8652   -8.9625    0.0000 O   0  0  0  0  0  0  0  0  0  0  0  0
    3.1516   -8.5487    0.0000 C   0  0  0  0  0  0  0  0  0  0  0  0
    2.4363   -8.9598    0.0000 C   0  0  1  0  0  0  0  0  0  0  0  0
    2.4347   -9.7848    0.0000 C   0  0  1  0  0  0  0  0  0  0  0  0
    3.1484  -10.1987    0.0000 C   0  0  1  0  0  0  0  0  0  0  0  0
    1.7226   -8.5459    0.0000 O   0  0  0  0  0  0  0  0  0  0  0  0
    1.7195  -10.1959    0.0000 O   0  0  0  0  0  0  0  0  0  0  0  0
    5.5938  -10.9159    0.0000 C   0  0  0  0  0  0  0  0  0  0  0  0
    6.7207   -8.1389    0.0000 C   0  0  0  0  0  0  0  0  0  0  0  0
    8.1497   -8.1389    0.0000 C   0  0  0  0  0  0  0  0  0  0  0  0
    9.5786   -8.1389    0.0000 H   0  0  0  0  0  0  0  0  0  0  0  0
    9.1661   -5.7744    0.0000 C   0  0  0  0  0  0  0  0  0  0  0  0
    3.1468  -11.0237    0.0000 O   0  0  0  0  0  0  0  0  0  0  0  0
    6.4188  -10.9159    0.0000 C   0  0  0  0  0  0  0  0  0  0  0  0
    6.7207  -10.6139    0.0000 H   0  0  0  0  0  0  0  0  0  0  0  0
    7.4352   -9.3764    0.0000 H   0  0  0  0  0  0  0  0  0  0  0  0
    8.8642   -9.3764    0.0000 C   0  0  0  0  0  0  0  0  0  0  0  0
    8.7536   -6.4889    0.0000 O   0  0  0  0  0  0  0  0  0  0  0  0
   10.2931   -5.2514    0.0000 C   0  0  0  0  0  0  0  0  0  0  0  0
  1  2  1  0  0  0  0
  2  3  1  0  0  0  0
  3  4  1  0  0  0  0
  4  5  1  0  0  0  0
  5  6  1  0  0  0  0
  6  1  1  0  0  0  0
  4  7  1  0  0  0  0
  7  8  1  0  0  0  0
  8  9  1  0  0  0  0
  9 10  1  0  0  0  0
 10  5  1  0  0  0  0
  9 11  1  0  0  0  0
 11 12  1  0  0  0  0
 12 13  2  0  0  0  0
 13 14  1  0  0  0  0
 14 10  1  0  0  0  0
 11 15  1  0  0  0  0
 15 16  1  0  0  0  0
 16 17  1  0  0  0  0
 17 18  1  0  0  0  0
 18 12  1  0  0  0  0
 17 19  1  0  0  0  0
 19 20  1  0  0  0  0
 20 21  1  0  0  0  0
 21 22  1  0  0  0  0
 22 18  1  0  0  0  0
 17 23  1  1  0  0  0
 23 24  1  0  0  0  0
 23 25  2  0  0  0  0
  2 26  1  1  0  0  0
 27 26  1  1  0  0  0
 27 28  1  0  0  0  0
 28 29  1  0  0  0  0
 29 30  1  0  0  0  0
 30 31  1  0  0  0  0
 31 32  1  0  0  0  0
 32 27  1  0  0  0  0
 30 33  1  1  0  0  0
 31 34  1  1  0  0  0
  3 35  1  0  0  0  0
  5 36  1  1  0  0  0
  9 37  1  1  0  0  0
 18 38  1  1  0  0  0
 22 39  1  1  0  0  0
 32 40  1  6  0  0  0
  3 41  1  0  0  0  0
  4 42  1  6  0  0  0
 10 43  1  6  0  0  0
 11 44  1  6  0  0  0
 22 45  1  6  0  0  0
 21 46  1  6  0  0  0
M  END
>  <cdx:fragmentId>
5

$$$$
