gaudichaudionic acid.cdx
  Mrv1902 05222410222D          

 41 45  0  0  0  0            999 V2000
    3.5302   -7.7963    0.0000 C   0  0  0  0  0  0  0  0  0  0  0  0
    3.5302   -8.6212    0.0000 C   0  0  0  0  0  0  0  0  0  0  0  0
    4.2446   -9.0337    0.0000 C   0  0  0  0  0  0  0  0  0  0  0  0
    4.9591   -8.6212    0.0000 C   0  0  0  0  0  0  0  0  0  0  0  0
    4.9591   -7.7963    0.0000 C   0  0  0  0  0  0  0  0  0  0  0  0
    4.2446   -7.3838    0.0000 C   0  0  0  0  0  0  0  0  0  0  0  0
    5.6736   -9.0337    0.0000 C   0  0  0  0  0  0  0  0  0  0  0  0
    6.3880   -8.6212    0.0000 C   0  0  0  0  0  0  0  0  0  0  0  0
    6.3880   -7.7963    0.0000 C   0  0  0  0  0  0  0  0  0  0  0  0
    5.6736   -7.3838    0.0000 O   0  0  0  0  0  0  0  0  0  0  0  0
    7.1025   -9.0337    0.0000 C   0  0  0  0  0  0  0  0  0  0  0  0
    7.8170   -8.6212    0.0000 C   0  0  0  0  0  0  0  0  0  0  0  0
    7.8170   -7.7963    0.0000 C   0  0  0  0  0  0  0  0  0  0  0  0
    7.1025   -7.3838    0.0000 C   0  0  0  0  0  0  0  0  0  0  0  0
    2.8157   -7.3838    0.0000 O   0  0  0  0  0  0  0  0  0  0  0  0
    4.2446   -9.8588    0.0000 O   0  0  0  0  0  0  0  0  0  0  0  0
    5.6736   -9.8588    0.0000 O   0  0  0  0  0  0  0  0  0  0  0  0
    2.8157   -9.0337    0.0000 C   0  0  0  0  0  0  0  0  0  0  0  0
    2.1012   -8.6212    0.0000 C   0  0  0  0  0  0  0  0  0  0  0  0
    1.3867   -9.0337    0.0000 C   0  0  0  0  0  0  0  0  0  0  0  0
    0.6723   -8.6212    0.0000 C   0  0  0  0  0  0  0  0  0  0  0  0
    1.3867   -9.8588    0.0000 C   0  0  0  0  0  0  0  0  0  0  0  0
    4.2446   -6.5587    0.0000 C   0  0  0  0  0  0  0  0  0  0  0  0
    3.5302   -6.1463    0.0000 C   0  0  0  0  0  0  0  0  0  0  0  0
    3.5302   -5.3213    0.0000 C   0  0  0  0  0  0  0  0  0  0  0  0
    4.2446   -4.9088    0.0000 C   0  0  0  0  0  0  0  0  0  0  0  0
    2.8157   -4.9088    0.0000 C   0  0  0  0  0  0  0  0  0  0  0  0
    8.5315   -7.3838    0.0000 O   0  0  0  0  0  0  0  0  0  0  0  0
    7.1025   -6.5587    0.0000 C   0  0  0  0  0  0  0  0  0  0  0  0
    6.3880   -6.1463    0.0000 C   0  0  0  0  0  0  0  0  0  0  0  0
    6.3880   -5.3213    0.0000 C   0  0  0  0  0  0  0  0  0  0  0  0
    7.1025   -4.9088    0.0000 C   0  0  0  0  0  0  0  0  0  0  0  0
    7.1025   -4.0838    0.0000 O   0  0  0  0  0  0  0  0  0  0  0  0
    7.8170   -5.3212    0.0000 O   0  0  0  0  0  0  0  0  0  0  0  0
    5.6736   -4.9088    0.0000 C   0  0  0  0  0  0  0  0  0  0  0  0
    6.8830   -7.8169    0.0000 C   0  0  0  0  0  0  0  0  0  0  0  0
    7.5901   -8.2368    0.0000 C   0  0  0  0  0  0  0  0  0  0  0  0
    7.5150   -6.6693    0.0000 O   0  0  0  0  0  0  0  0  0  0  0  0
    7.8376   -6.8962    0.0000 C   0  0  0  0  0  0  0  0  0  0  0  0
    8.6626   -6.8962    0.0000 C   0  0  0  0  0  0  0  0  0  0  0  0
    8.4210   -6.3128    0.0000 C   0  0  0  0  0  0  0  0  0  0  0  0
  1  2  2  0  0  0  0
  2  3  1  0  0  0  0
  3  4  2  0  0  0  0
  4  5  1  0  0  0  0
  5  6  2  0  0  0  0
  6  1  1  0  0  0  0
  4  7  1  0  0  0  0
  7  8  1  0  0  0  0
  8  9  1  0  0  0  0
  9 10  1  0  0  0  0
 10  5  1  0  0  0  0
  8 11  2  0  0  0  0
 11 12  1  0  0  0  0
 12 13  1  0  0  0  0
 13 14  1  0  0  0  0
 14  9  1  0  0  0  0
  1 15  1  0  0  0  0
  3 16  1  0  0  0  0
  7 17  2  0  0  0  0
  2 18  1  0  0  0  0
 18 19  1  0  0  0  0
 19 20  2  0  0  0  0
 20 21  1  0  0  0  0
 20 22  1  0  0  0  0
  6 23  1  0  0  0  0
 23 24  1  0  0  0  0
 24 25  2  0  0  0  0
 25 26  1  0  0  0  0
 25 27  1  0  0  0  0
 13 28  2  0  0  0  0
 14 29  1  0  0  0  0
 29 30  1  0  0  0  0
 30 31  2  0  0  0  0
 31 32  1  0  0  0  0
 31 35  1  0  0  0  0
  9 36  1  0  0  0  0
 12 37  1  0  0  0  0
 36 37  1  0  0  0  0
 14 38  1  0  0  0  0
 38 39  1  0  0  0  0
 39 40  1  0  0  0  0
 36 39  1  0  0  0  0
 39 41  1  0  0  0  0
 32 33  2  0  0  0  0
 32 34  1  0  0  0  0
M  STY  1   1 SUP
M  SAL   1  3  32  33  34
M  SBL   1  1  34
M  SMT   1 COOH
M  SAP   1  1  32  31  1
M  END
>  <cdx:fragmentId>
5

$$$$
