91101.cdx
  Mrv1902 05222410182D          

 23 26  0  0  0  0            999 V2000
    5.1681   -5.2651    0.0000 C   0  0  0  0  0  0  0  0  0  0  0  0
    5.1681   -6.0901    0.0000 C   0  0  1  0  0  0  0  0  0  0  0  0
    5.8825   -6.5026    0.0000 C   0  0  0  0  0  0  0  0  0  0  0  0
    6.5970   -6.0901    0.0000 C   0  0  0  0  0  0  0  0  0  0  0  0
    6.5970   -5.2651    0.0000 C   0  0  0  0  0  0  0  0  0  0  0  0
    5.8825   -4.8526    0.0000 C   0  0  0  0  0  0  0  0  0  0  0  0
    7.3115   -6.5026    0.0000 C   0  0  0  0  0  0  0  0  0  0  0  0
    8.0259   -6.0901    0.0000 C   0  0  0  0  0  0  0  0  0  0  0  0
    8.0259   -5.2651    0.0000 C   0  0  0  0  0  0  0  0  0  0  0  0
    7.3115   -4.8526    0.0000 C   0  0  0  0  0  0  0  0  0  0  0  0
    8.7404   -4.8526    0.0000 C   0  0  0  0  0  0  0  0  0  0  0  0
    8.7404   -4.0276    0.0000 C   0  0  0  0  0  0  0  0  0  0  0  0
    8.0259   -3.6151    0.0000 C   0  0  0  0  0  0  0  0  0  0  0  0
    7.3115   -4.0276    0.0000 C   0  0  0  0  0  0  0  0  0  0  0  0
    9.5250   -5.1076    0.0000 O   0  0  0  0  0  0  0  0  0  0  0  0
   10.0100   -4.4401    0.0000 C   0  0  0  0  0  0  0  0  0  0  0  0
    9.5250   -3.7727    0.0000 C   0  0  0  0  0  0  0  0  0  0  0  0
    6.5970   -3.6151    0.0000 O   0  0  0  0  0  0  0  0  0  0  0  0
    8.0259   -2.7901    0.0000 O   0  0  0  0  0  0  0  0  0  0  0  0
    9.7800   -2.9881    0.0000 C   0  0  0  0  0  0  0  0  0  0  0  0
    4.4536   -6.5026    0.0000 O   0  0  0  0  0  0  0  0  0  0  0  0
    5.4700   -7.2171    0.0000 C   0  0  0  0  0  0  0  0  0  0  0  0
    6.2950   -7.2171    0.0000 C   0  0  0  0  0  0  0  0  0  0  0  0
  1  2  1  0  0  0  0
  2  3  1  0  0  0  0
  3  4  1  0  0  0  0
  4  5  2  0  0  0  0
  5  6  1  0  0  0  0
  6  1  1  0  0  0  0
  4  7  1  0  0  0  0
  7  8  2  0  0  0  0
  8  9  1  0  0  0  0
  9 10  2  0  0  0  0
 10  5  1  0  0  0  0
  9 11  1  0  0  0  0
 11 12  2  0  0  0  0
 12 13  1  0  0  0  0
 13 14  1  0  0  0  0
 14 10  1  0  0  0  0
 11 15  1  0  0  0  0
 15 16  1  0  0  0  0
 16 17  2  0  0  0  0
 17 12  1  0  0  0  0
 14 18  2  0  0  0  0
 13 19  2  0  0  0  0
 17 20  1  0  0  0  0
  2 21  1  1  0  0  0
  3 22  1  0  0  0  0
  3 23  1  0  0  0  0
M  END
>  <cdx:fragmentId>
5

$$$$
