9110.cdx
  Mrv1902 05222410242D          

 48 51  0  0  0  0            999 V2000
    9.1850   -7.2048    0.0000 O   0  0  0  0  0  0  0  0  0  0  0  0
    9.8972   -7.6211    0.0000 C   0  0  0  0  0  0  0  0  0  0  0  0
   10.6139   -7.2124    0.0000 C   0  0  0  0  0  0  0  0  0  0  0  0
   14.1840   -7.6439    0.0000 C   0  0  0  0  0  0  0  0  0  0  0  0
   13.4717   -7.2276    0.0000 O   0  0  0  0  0  0  0  0  0  0  0  0
   13.4630   -8.8776    0.0000 O   0  0  0  0  0  0  0  0  0  0  0  0
   11.3218   -8.4537    0.0000 C   0  0  0  0  0  0  0  0  0  0  0  0
   12.0340   -8.8700    0.0000 C   0  0  0  0  0  0  0  0  0  0  0  0
   12.7507   -8.4613    0.0000 C   0  0  0  0  0  0  0  0  0  0  0  0
   12.7551   -7.6363    0.0000 C   0  0  0  0  0  0  0  0  0  0  0  0
   12.0428   -7.2200    0.0000 C   0  0  0  0  0  0  0  0  0  0  0  0
    5.6126   -7.6021    0.0000 O   0  0  0  0  0  0  0  0  0  0  0  0
    7.7429   -9.6722    0.0000 O   0  0  0  0  0  0  0  0  0  0  0  0
    7.0262  -10.0809    0.0000 C   0  0  2  0  0  0  0  0  0  0  0  0
    6.3140   -9.6646    0.0000 O   0  0  0  0  0  0  0  0  0  0  0  0
    5.5973  -10.0733    0.0000 C   0  0  2  0  0  0  0  0  0  0  0  0
    5.5929  -10.8983    0.0000 C   0  0  1  0  0  0  0  0  0  0  0  0
    6.3052  -11.3146    0.0000 C   0  0  2  0  0  0  0  0  0  0  0  0
    7.0219  -10.9059    0.0000 C   0  0  1  0  0  0  0  0  0  0  0  0
    7.7341  -11.3222    0.0000 O   0  0  0  0  0  0  0  0  0  0  0  0
    4.8850   -9.6570    0.0000 C   0  0  0  0  0  0  0  0  0  0  0  0
    6.3008  -12.1396    0.0000 O   0  0  0  0  0  0  0  0  0  0  0  0
    4.8763  -11.3070    0.0000 O   0  0  0  0  0  0  0  0  0  0  0  0
   11.3261   -7.6287    0.0000 C   0  0  0  0  0  0  0  0  0  0  0  0
    6.3271   -7.1896    0.0000 C   0  0  0  0  0  0  0  0  0  0  0  0
    9.1762   -8.8548    0.0000 O   0  0  0  0  0  0  0  0  0  0  0  0
    7.7473   -8.8472    0.0000 C   0  0  2  0  0  0  0  0  0  0  0  0
    8.4639   -8.4385    0.0000 C   0  0  2  0  0  0  0  0  0  0  0  0
    8.4683   -7.6135    0.0000 C   0  0  1  0  0  0  0  0  0  0  0  0
    7.7560   -7.1972    0.0000 O   0  0  0  0  0  0  0  0  0  0  0  0
    7.0394   -7.6059    0.0000 C   0  0  1  0  0  0  0  0  0  0  0  0
    7.0350   -8.4309    0.0000 C   0  0  1  0  0  0  0  0  0  0  0  0
    6.3184   -8.8396    0.0000 O   0  0  0  0  0  0  0  0  0  0  0  0
    4.8982   -7.1896    0.0000 C   0  0  0  0  0  0  0  0  0  0  0  0
    4.1837   -7.6021    0.0000 C   0  0  0  0  0  0  0  0  0  0  0  0
    4.8982   -6.3646    0.0000 O   0  0  0  0  0  0  0  0  0  0  0  0
    3.4692   -7.1896    0.0000 C   0  0  0  0  0  0  0  0  0  0  0  0
    2.7548   -7.6021    0.0000 C   0  0  0  0  0  0  0  0  0  0  0  0
    2.0403   -7.1896    0.0000 C   0  0  0  0  0  0  0  0  0  0  0  0
    1.3258   -7.6021    0.0000 C   0  0  0  0  0  0  0  0  0  0  0  0
    1.3258   -8.4271    0.0000 C   0  0  0  0  0  0  0  0  0  0  0  0
    2.0403   -8.8396    0.0000 C   0  0  0  0  0  0  0  0  0  0  0  0
    2.7548   -8.4271    0.0000 C   0  0  0  0  0  0  0  0  0  0  0  0
    0.6113   -8.8396    0.0000 O   0  0  0  0  0  0  0  0  0  0  0  0
    0.6113   -7.1896    0.0000 O   0  0  0  0  0  0  0  0  0  0  0  0
    9.1718   -9.6798    0.0000 C   0  0  0  0  0  0  0  0  0  0  0  0
    9.8841  -10.0961    0.0000 O   0  0  0  0  0  0  0  0  0  0  0  0
    8.4552  -10.0885    0.0000 C   0  0  0  0  0  0  0  0  0  0  0  0
  1  2  1  0  0  0  0
  2  3  1  0  0  0  0
  5  4  1  0  0  0  0
  3 24  1  0  0  0  0
 10  5  1  0  0  0  0
  9  6  1  0  0  0  0
  7 24  1  0  0  0  0
  8  7  2  0  0  0  0
  9  8  1  0  0  0  0
 10  9  2  0  0  0  0
 11 10  1  0  0  0  0
 24 11  2  0  0  0  0
 25 12  1  0  0  0  0
 14 13  1  1  0  0  0
 14 15  1  0  0  0  0
 15 16  1  0  0  0  0
 16 17  1  0  0  0  0
 17 18  1  0  0  0  0
 18 19  1  0  0  0  0
 19 14  1  0  0  0  0
 19 20  1  6  0  0  0
 16 21  1  6  0  0  0
 18 22  1  6  0  0  0
 27 13  1  1  0  0  0
 17 23  1  1  0  0  0
 29  1  1  1  0  0  0
 31 25  1  1  0  0  0
 28 26  1  6  0  0  0
 27 32  1  0  0  0  0
 28 27  1  0  0  0  0
 29 28  1  0  0  0  0
 30 29  1  0  0  0  0
 31 30  1  0  0  0  0
 32 31  1  0  0  0  0
 32 33  1  6  0  0  0
 12 34  1  0  0  0  0
 34 35  1  0  0  0  0
 34 36  2  0  0  0  0
 35 37  2  0  0  0  0
 37 38  1  0  0  0  0
 38 39  2  0  0  0  0
 39 40  1  0  0  0  0
 40 41  2  0  0  0  0
 41 42  1  0  0  0  0
 42 43  2  0  0  0  0
 43 38  1  0  0  0  0
 41 44  1  0  0  0  0
 40 45  1  0  0  0  0
 26 46  1  0  0  0  0
 46 47  2  0  0  0  0
 46 48  1  0  0  0  0
M  END
>  <cdx:fragmentId>
5

$$$$
