11006.cdx
  Mrv1902 05222410252D          

 31 32  0  0  0  0            999 V2000
    2.7464   -8.1263    0.0000 C   0  0  0  0  0  0  0  0  0  0  0  0
    2.7464   -8.9513    0.0000 C   0  0  2  0  0  0  0  0  0  0  0  0
    3.4609   -9.3637    0.0000 C   0  0  1  0  0  0  0  0  0  0  0  0
    4.1753   -8.9513    0.0000 C   0  0  2  0  0  0  0  0  0  0  0  0
    4.1753   -8.1263    0.0000 C   0  0  1  0  0  0  0  0  0  0  0  0
    3.4609   -7.7138    0.0000 O   0  0  0  0  0  0  0  0  0  0  0  0
    4.8898   -9.3637    0.0000 O   0  0  0  0  0  0  0  0  0  0  0  0
    5.6043   -8.1263    0.0000 C   0  0  0  0  0  0  0  0  0  0  0  0
    4.8898   -7.7138    0.0000 O   0  0  0  0  0  0  0  0  0  0  0  0
    7.0332   -8.9513    0.0000 O   0  0  0  0  0  0  0  0  0  0  0  0
    7.0332   -8.1263    0.0000 C   0  0  2  0  0  0  0  0  0  0  0  0
    6.3188   -7.7138    0.0000 C   0  0  2  0  0  0  0  0  0  0  0  0
    7.7477   -7.7138    0.0000 C   0  0  1  0  0  0  0  0  0  0  0  0
    7.7477   -6.8888    0.0000 C   0  0  2  0  0  0  0  0  0  0  0  0
    7.0332   -6.4763    0.0000 C   0  0  1  0  0  0  0  0  0  0  0  0
    6.3188   -6.8888    0.0000 O   0  0  0  0  0  0  0  0  0  0  0  0
    8.4622   -6.4763    0.0000 O   0  0  0  0  0  0  0  0  0  0  0  0
    7.7477   -5.2387    0.0000 C   0  0  0  0  0  0  0  0  0  0  0  0
    7.0332   -5.6512    0.0000 O   0  0  0  0  0  0  0  0  0  0  0  0
    9.1766   -4.4138    0.0000 C   0  0  0  0  0  0  0  0  0  0  0  0
    8.4622   -4.0012    0.0000 C   0  0  0  0  0  0  0  0  0  0  0  0
    7.7477   -4.4138    0.0000 C   0  0  0  0  0  0  0  0  0  0  0  0
   10.6056   -4.4138    0.0000 C   0  0  0  0  0  0  0  0  0  0  0  0
    9.8911   -4.0012    0.0000 C   0  0  0  0  0  0  0  0  0  0  0  0
   12.0345   -4.4138    0.0000 C   0  0  0  0  0  0  0  0  0  0  0  0
   11.3201   -4.0012    0.0000 C   0  0  0  0  0  0  0  0  0  0  0  0
    2.0319   -9.3637    0.0000 O   0  0  0  0  0  0  0  0  0  0  0  0
    3.4609  -10.1888    0.0000 O   0  0  0  0  0  0  0  0  0  0  0  0
    8.4622   -8.1263    0.0000 O   0  0  0  0  0  0  0  0  0  0  0  0
    8.4622   -3.1763    0.0000 C   0  0  0  0  0  0  0  0  0  0  0  0
   11.3201   -3.1763    0.0000 C   0  0  0  0  0  0  0  0  0  0  0  0
  1  2  1  0  0  0  0
  2  3  1  0  0  0  0
  3  4  1  0  0  0  0
  4  5  1  0  0  0  0
  5  6  1  0  0  0  0
  6  1  1  0  0  0  0
  4  7  1  6  0  0  0
  8  9  1  0  0  0  0
  5  9  1  1  0  0  0
 11 10  1  6  0  0  0
 11 12  1  0  0  0  0
 12  8  1  1  0  0  0
 11 13  1  0  0  0  0
 13 14  1  0  0  0  0
 14 15  1  0  0  0  0
 15 16  1  0  0  0  0
 16 12  1  0  0  0  0
 14 17  1  6  0  0  0
 18 19  1  0  0  0  0
 15 19  1  1  0  0  0
 20 21  1  0  0  0  0
 21 22  2  0  0  0  0
 22 18  1  0  0  0  0
 23 24  1  0  0  0  0
 24 20  1  0  0  0  0
 25 26  1  0  0  0  0
 26 23  2  0  0  0  0
  2 27  1  6  0  0  0
  3 28  1  1  0  0  0
 13 29  1  1  0  0  0
 21 30  1  0  0  0  0
 26 31  1  0  0  0  0
M  END
>  <cdx:fragmentId>
5

$$$$
