91109.cdx
  Mrv1902 05222410262D          

 15 16  0  0  0  0            999 V2000
    5.5118   -7.7951    0.0000 C   0  0  0  0  0  0  0  0  0  0  0  0
    5.5118   -8.6201    0.0000 C   0  0  0  0  0  0  0  0  0  0  0  0
    6.2263   -9.0326    0.0000 C   0  0  0  0  0  0  0  0  0  0  0  0
    6.9407   -8.6201    0.0000 C   0  0  0  0  0  0  0  0  0  0  0  0
    6.9407   -7.7951    0.0000 C   0  0  1  0  0  0  0  0  0  0  0  0
    6.2263   -7.3826    0.0000 C   0  0  0  0  0  0  0  0  0  0  0  0
    7.6552   -9.0326    0.0000 C   0  0  0  0  0  0  0  0  0  0  0  0
    8.3697   -8.6201    0.0000 C   0  0  2  0  0  0  0  0  0  0  0  0
    8.3697   -7.7951    0.0000 C   0  0  0  0  0  0  0  0  0  0  0  0
    7.6552   -7.3826    0.0000 C   0  0  0  0  0  0  0  0  0  0  0  0
    6.2263   -9.8576    0.0000 C   0  0  0  0  0  0  0  0  0  0  0  0
    9.0842   -9.0326    0.0000 C   0  0  0  0  0  0  0  0  0  0  0  0
    9.7986   -8.6201    0.0000 C   0  0  0  0  0  0  0  0  0  0  0  0
    9.0842   -9.8576    0.0000 C   0  0  0  0  0  0  0  0  0  0  0  0
    6.9407   -6.9701    0.0000 C   0  0  0  0  0  0  0  0  0  0  0  0
  1  2  1  0  0  0  0
  2  3  2  0  0  0  0
  3  4  1  0  0  0  0
  4  5  1  0  0  0  0
  5  6  1  0  0  0  0
  6  1  1  0  0  0  0
  4  7  1  0  0  0  0
  7  8  1  0  0  0  0
  8  9  1  0  0  0  0
  9 10  1  0  0  0  0
 10  5  1  0  0  0  0
  3 11  1  0  0  0  0
  8 12  1  6  0  0  0
 12 13  2  0  0  0  0
 12 14  1  0  0  0  0
  5 15  1  6  0  0  0
M  END
>  <cdx:fragmentId>
5

$$$$
