59911029.cdx
  Mrv1902 05222410232D          

  9  8  0  0  0  0            999 V2000
    5.6316  -15.3015    0.0000 O   0  0  0  0  0  0  0  0  0  0  0  0
    6.4350  -15.9500    0.0000 C   0  0  0  0  0  0  0  0  0  0  0  0
    7.1225  -15.4000    0.0000 C   0  0  0  0  0  0  0  0  0  0  0  0
    7.8650  -16.0050    0.0000 C   0  0  1  0  0  0  0  0  0  0  0  0
    8.6075  -15.4275    0.0000 C   0  0  0  0  0  0  0  0  0  0  0  0
    8.6075  -14.6300    0.0000 C   0  0  0  0  0  0  0  0  0  0  0  0
    9.3225  -16.0050    0.0000 C   0  0  0  0  0  0  0  0  0  0  0  0
    7.8650  -16.9400    0.0000 C   0  0  0  0  0  0  0  0  0  0  0  0
    7.2050  -17.3250    0.0000 C   0  0  0  0  0  0  0  0  0  0  0  0
  1  2  1  0  0  0  0
  2  3  1  0  0  0  0
  4  3  1  1  0  0  0
  4  5  1  0  0  0  0
  5  6  1  0  0  0  0
  5  7  1  0  0  0  0
  4  8  1  0  0  0  0
  8  9  1  0  0  0  0
M  END
>  <cdx:groupId>
193821

>  <cdx:fragmentId>
193825

$$$$
