91102.cdx
  Mrv1902 05222410192D          

 21 23  0  0  0  0            999 V2000
    6.8203   -6.5175    0.0000 C   0  0  1  0  0  0  0  0  0  0  0  0
    6.8203   -7.3425    0.0000 C   0  0  1  0  0  0  0  0  0  0  0  0
    7.4653   -7.8569    0.0000 C   0  0  2  0  0  0  0  0  0  0  0  0
    8.2697   -7.6733    0.0000 C   0  0  2  0  0  0  0  0  0  0  0  0
    8.6276   -6.9300    0.0000 C   0  0  0  0  0  0  0  0  0  0  0  0
    8.2697   -6.1867    0.0000 C   0  0  0  0  0  0  0  0  0  0  0  0
    7.4653   -6.0031    0.0000 C   0  0  0  0  0  0  0  0  0  0  0  0
    6.0357   -6.2626    0.0000 C   0  0  0  0  0  0  0  0  0  0  0  0
    5.5508   -6.9300    0.0000 C   0  0  0  0  0  0  0  0  0  0  0  0
    6.0357   -7.5974    0.0000 O   0  0  0  0  0  0  0  0  0  0  0  0
    7.3914   -8.6786    0.0000 C   0  0  0  0  0  0  0  0  0  0  0  0
    8.1500   -9.0028    0.0000 C   0  0  0  0  0  0  0  0  0  0  0  0
    8.6928   -8.3815    0.0000 C   0  0  0  0  0  0  0  0  0  0  0  0
    4.7258   -6.9300    0.0000 O   0  0  0  0  0  0  0  0  0  0  0  0
    5.7808   -5.4779    0.0000 C   0  0  0  0  0  0  0  0  0  0  0  0
    9.4526   -6.9300    0.0000 C   0  0  0  0  0  0  0  0  0  0  0  0
    6.6832   -9.1017    0.0000 C   0  0  0  0  0  0  0  0  0  0  0  0
    6.7587   -5.6948    0.0000 H   0  0  0  0  0  0  0  0  0  0  0  0
    6.8820   -8.4402    0.0000 H   0  0  0  0  0  0  0  0  0  0  0  0
    9.0854   -7.5503    0.0000 H   0  0  0  0  0  0  0  0  0  0  0  0
    6.4078   -8.0570    0.0000 H   0  0  0  0  0  0  0  0  0  0  0  0
  1  2  1  0  0  0  0
  2  3  1  0  0  0  0
  3  4  1  0  0  0  0
  4  5  1  0  0  0  0
  5  6  1  0  0  0  0
  6  7  1  0  0  0  0
  7  1  1  0  0  0  0
  1  8  1  0  0  0  0
  8  9  1  0  0  0  0
  9 10  1  0  0  0  0
 10  2  1  0  0  0  0
  3 11  1  0  0  0  0
 11 12  1  0  0  0  0
 12 13  1  0  0  0  0
 13  4  1  0  0  0  0
  9 14  2  0  0  0  0
  8 15  2  0  0  0  0
  5 16  2  0  0  0  0
 11 17  2  0  0  0  0
  1 18  1  1  0  0  0
  3 19  1  1  0  0  0
  4 20  1  1  0  0  0
  2 21  1  6  0  0  0
M  END
>  <cdx:fragmentId>
5

$$$$
