91105.cdx
  Mrv1902 05222410202D          

 41 45  0  0  0  0            999 V2000
    4.5218  -10.0089    0.0000 C   0  0  0  0  0  0  0  0  0  0  0  0
    4.5218  -10.8339    0.0000 C   0  0  0  0  0  0  0  0  0  0  0  0
    5.2363  -11.2464    0.0000 C   0  0  0  0  0  0  0  0  0  0  0  0
    5.9507  -10.8339    0.0000 C   0  0  0  0  0  0  0  0  0  0  0  0
    5.9507  -10.0089    0.0000 C   0  0  0  0  0  0  0  0  0  0  0  0
    5.2363   -9.5964    0.0000 C   0  0  0  0  0  0  0  0  0  0  0  0
    6.6652  -11.2464    0.0000 C   0  0  0  0  0  0  0  0  0  0  0  0
    7.3797  -10.8339    0.0000 C   0  0  0  0  0  0  0  0  0  0  0  0
    7.3797  -10.0089    0.0000 C   0  0  0  0  0  0  0  0  0  0  0  0
    6.6652   -9.5964    0.0000 O   0  0  0  0  0  0  0  0  0  0  0  0
    8.0942  -11.2464    0.0000 C   0  0  0  0  0  0  0  0  0  0  0  0
    8.8086  -10.8339    0.0000 C   0  0  0  0  0  0  0  0  0  0  0  0
    8.0942  -12.0714    0.0000 C   0  0  0  0  0  0  0  0  0  0  0  0
    8.8086  -12.4839    0.0000 C   0  0  0  0  0  0  0  0  0  0  0  0
    9.5231  -12.0714    0.0000 C   0  0  0  0  0  0  0  0  0  0  0  0
    9.5231  -11.2464    0.0000 C   0  0  0  0  0  0  0  0  0  0  0  0
    3.8073   -9.5964    0.0000 O   0  0  0  0  0  0  0  0  0  0  0  0
    5.2363   -8.7714    0.0000 C   0  0  2  0  0  0  0  0  0  0  0  0
    6.6652  -12.0714    0.0000 O   0  0  0  0  0  0  0  0  0  0  0  0
   10.2376  -12.4839    0.0000 O   0  0  0  0  0  0  0  0  0  0  0  0
   10.9520  -12.0714    0.0000 C   0  0  0  0  0  0  0  0  0  0  0  0
    5.9507   -8.3589    0.0000 O   0  0  0  0  0  0  0  0  0  0  0  0
    5.9507   -7.5339    0.0000 C   0  0  1  0  0  0  0  0  0  0  0  0
    5.2363   -7.1214    0.0000 C   0  0  2  0  0  0  0  0  0  0  0  0
    4.5218   -7.5339    0.0000 C   0  0  1  0  0  0  0  0  0  0  0  0
    4.5218   -8.3589    0.0000 C   0  0  1  0  0  0  0  0  0  0  0  0
    6.6652   -7.1214    0.0000 C   0  0  0  0  0  0  0  0  0  0  0  0
    3.8073   -7.1214    0.0000 O   0  0  0  0  0  0  0  0  0  0  0  0
    3.8073   -8.7714    0.0000 O   0  0  0  0  0  0  0  0  0  0  0  0
    5.2363   -6.2964    0.0000 O   0  0  0  0  0  0  0  0  0  0  0  0
    6.6652   -6.2964    0.0000 O   0  0  0  0  0  0  0  0  0  0  0  0
    7.3797   -5.8839    0.0000 C   0  0  2  0  0  0  0  0  0  0  0  0
    8.0942   -6.2964    0.0000 O   0  0  0  0  0  0  0  0  0  0  0  0
    8.8086   -5.8839    0.0000 C   0  0  0  0  0  0  0  0  0  0  0  0
    8.8086   -5.0589    0.0000 C   0  0  2  0  0  0  0  0  0  0  0  0
    8.0942   -4.6464    0.0000 C   0  0  1  0  0  0  0  0  0  0  0  0
    7.3797   -5.0589    0.0000 C   0  0  1  0  0  0  0  0  0  0  0  0
    6.6652   -4.6464    0.0000 O   0  0  0  0  0  0  0  0  0  0  0  0
    8.0942   -3.8214    0.0000 O   0  0  0  0  0  0  0  0  0  0  0  0
    9.5231   -4.6464    0.0000 O   0  0  0  0  0  0  0  0  0  0  0  0
    5.9507   -9.1839    0.0000 H   0  0  0  0  0  0  0  0  0  0  0  0
  1  2  1  0  0  0  0
  2  3  2  0  0  0  0
  3  4  1  0  0  0  0
  4  5  2  0  0  0  0
  5  6  1  0  0  0  0
  6  1  2  0  0  0  0
  4  7  1  0  0  0  0
  7  8  1  0  0  0  0
  8  9  2  0  0  0  0
  9 10  1  0  0  0  0
 10  5  1  0  0  0  0
  8 11  1  0  0  0  0
 11 12  1  0  0  0  0
 11 13  2  0  0  0  0
 13 14  1  0  0  0  0
 14 15  2  0  0  0  0
 15 16  1  0  0  0  0
 16 12  2  0  0  0  0
  1 17  1  0  0  0  0
  6 18  1  0  0  0  0
  7 19  2  0  0  0  0
 15 20  1  0  0  0  0
 20 21  1  0  0  0  0
 18 22  1  0  0  0  0
 22 23  1  0  0  0  0
 23 24  1  0  0  0  0
 24 25  1  0  0  0  0
 25 26  1  0  0  0  0
 26 18  1  0  0  0  0
 23 27  1  1  0  0  0
 25 28  1  1  0  0  0
 26 29  1  6  0  0  0
 24 30  1  6  0  0  0
 27 31  1  0  0  0  0
 32 31  1  1  0  0  0
 32 33  1  0  0  0  0
 33 34  1  0  0  0  0
 34 35  1  0  0  0  0
 35 36  1  0  0  0  0
 36 37  1  0  0  0  0
 37 32  1  0  0  0  0
 37 38  1  6  0  0  0
 36 39  1  1  0  0  0
 35 40  1  6  0  0  0
 18 41  1  6  0  0  0
M  END
>  <cdx:fragmentId>
5

$$$$
