91103.cdx
  Mrv1902 05222410182D          

  9  9  0  0  0  0            999 V2000
    8.0081   -4.9400    0.0000 C   0  0  0  0  0  0  0  0  0  0  0  0
    7.7665   -5.7289    0.0000 C   0  0  0  0  0  0  0  0  0  0  0  0
    6.9416   -5.7429    0.0000 C   0  0  0  0  0  0  0  0  0  0  0  0
    6.6734   -4.9627    0.0000 C   0  0  0  0  0  0  0  0  0  0  0  0
    7.3325   -4.4665    0.0000 N   0  0  0  0  0  0  0  0  0  0  0  0
    5.8846   -4.7211    0.0000 C   0  0  0  0  0  0  0  0  0  0  0  0
    5.2809   -5.2835    0.0000 O   0  0  0  0  0  0  0  0  0  0  0  0
    8.7883   -4.6718    0.0000 C   0  0  0  0  0  0  0  0  0  0  0  0
    9.4107   -5.2133    0.0000 O   0  0  0  0  0  0  0  0  0  0  0  0
  1  2  2  0  0  0  0
  2  3  1  0  0  0  0
  3  4  2  0  0  0  0
  4  5  1  0  0  0  0
  5  1  1  0  0  0  0
  4  6  1  0  0  0  0
  6  7  1  0  0  0  0
  1  8  1  0  0  0  0
  8  9  2  0  0  0  0
M  END
>  <cdx:fragmentId>
5

$$$$
