91106.cdx
  Mrv1902 05222410192D          

 40 44  0  0  0  0            999 V2000
    4.6286   -7.3471    0.0000 C   0  0  2  0  0  0  0  0  0  0  0  0
    4.6286   -8.1721    0.0000 C   0  0  2  0  0  0  0  0  0  0  0  0
    5.3431   -8.5846    0.0000 C   0  0  0  0  0  0  0  0  0  0  0  0
    6.0575   -8.1721    0.0000 O   0  0  0  0  0  0  0  0  0  0  0  0
    6.0575   -7.3471    0.0000 C   0  0  1  0  0  0  0  0  0  0  0  0
    5.3431   -6.9346    0.0000 C   0  0  1  0  0  0  0  0  0  0  0  0
    5.3431   -9.4096    0.0000 C   0  0  0  0  0  0  0  0  0  0  0  0
    4.6286   -9.8221    0.0000 C   0  0  0  0  0  0  0  0  0  0  0  0
    4.6286  -10.6471    0.0000 C   0  0  0  0  0  0  0  0  0  0  0  0
    5.3431  -11.0596    0.0000 C   0  0  0  0  0  0  0  0  0  0  0  0
    6.0575  -10.6471    0.0000 C   0  0  0  0  0  0  0  0  0  0  0  0
    6.0575   -9.8221    0.0000 C   0  0  0  0  0  0  0  0  0  0  0  0
    6.7720  -11.0596    0.0000 C   0  0  0  0  0  0  0  0  0  0  0  0
    7.4865  -10.6471    0.0000 C   0  0  0  0  0  0  0  0  0  0  0  0
    7.4865   -9.8221    0.0000 C   0  0  0  0  0  0  0  0  0  0  0  0
    6.7720   -9.4096    0.0000 O   0  0  0  0  0  0  0  0  0  0  0  0
    8.2010  -11.0596    0.0000 C   0  0  0  0  0  0  0  0  0  0  0  0
    8.2010  -11.8846    0.0000 C   0  0  0  0  0  0  0  0  0  0  0  0
    8.9154  -12.2971    0.0000 C   0  0  0  0  0  0  0  0  0  0  0  0
    9.6299  -11.8846    0.0000 C   0  0  0  0  0  0  0  0  0  0  0  0
    9.6299  -11.0596    0.0000 C   0  0  0  0  0  0  0  0  0  0  0  0
    8.9154  -10.6471    0.0000 C   0  0  0  0  0  0  0  0  0  0  0  0
   10.3444  -12.2971    0.0000 O   0  0  0  0  0  0  0  0  0  0  0  0
   11.1413  -12.0836    0.0000 C   0  0  0  0  0  0  0  0  0  0  0  0
    3.9141   -6.9346    0.0000 O   0  0  0  0  0  0  0  0  0  0  0  0
    3.9141   -9.4096    0.0000 O   0  0  0  0  0  0  0  0  0  0  0  0
    6.7720   -6.9346    0.0000 C   0  0  0  0  0  0  0  0  0  0  0  0
    7.4865   -7.3471    0.0000 O   0  0  0  0  0  0  0  0  0  0  0  0
    5.3431   -6.1096    0.0000 O   0  0  0  0  0  0  0  0  0  0  0  0
    6.7720  -11.8846    0.0000 O   0  0  0  0  0  0  0  0  0  0  0  0
    3.9141   -8.5846    0.0000 O   0  0  0  0  0  0  0  0  0  0  0  0
    8.8814   -7.8085    0.0000 O   0  0  0  0  0  0  0  0  0  0  0  0
    9.6204   -7.4418    0.0000 C   0  0  0  0  0  0  0  0  0  0  0  0
    9.5000   -6.6256    0.0000 C   0  0  2  0  0  0  0  0  0  0  0  0
    8.6865   -6.4880    0.0000 C   0  0  2  0  0  0  0  0  0  0  0  0
    8.3042   -7.2190    0.0000 C   0  0  2  0  0  0  0  0  0  0  0  0
    8.3198   -5.7489    0.0000 O   0  0  0  0  0  0  0  0  0  0  0  0
    9.5519   -5.8023    0.0000 O   0  0  0  0  0  0  0  0  0  0  0  0
   10.2390   -6.2589    0.0000 C   0  0  0  0  0  0  0  0  0  0  0  0
   10.9261   -6.7156    0.0000 O   0  0  0  0  0  0  0  0  0  0  0  0
  1  2  1  0  0  0  0
  2  3  1  0  0  0  0
  3  4  1  0  0  0  0
  4  5  1  0  0  0  0
  5  6  1  0  0  0  0
  6  1  1  0  0  0  0
  3  7  1  0  0  0  0
  7  8  2  0  0  0  0
  8  9  1  0  0  0  0
  9 10  2  0  0  0  0
 10 11  1  0  0  0  0
 11 12  2  0  0  0  0
 12  7  1  0  0  0  0
 11 13  1  0  0  0  0
 13 14  1  0  0  0  0
 14 15  2  0  0  0  0
 15 16  1  0  0  0  0
 16 12  1  0  0  0  0
 14 17  1  0  0  0  0
 17 18  2  0  0  0  0
 18 19  1  0  0  0  0
 19 20  2  0  0  0  0
 20 21  1  0  0  0  0
 21 22  2  0  0  0  0
 22 17  1  0  0  0  0
 20 23  1  0  0  0  0
 23 24  1  0  0  0  0
  1 25  1  1  0  0  0
  8 26  1  0  0  0  0
  5 27  1  1  0  0  0
 27 28  1  0  0  0  0
  6 29  1  6  0  0  0
 13 30  2  0  0  0  0
  2 31  1  6  0  0  0
 32 33  1  0  0  0  0
 33 34  1  0  0  0  0
 34 35  1  0  0  0  0
 35 36  1  0  0  0  0
 36 32  1  0  0  0  0
 35 37  1  6  0  0  0
 34 38  1  6  0  0  0
 34 39  1  0  0  0  0
 39 40  1  0  0  0  0
 36 28  1  1  0  0  0
M  END
>  <cdx:fragmentId>
7092

$$$$
