91100.cdx
  Mrv1902 05222410182D          

 23 25  0  0  0  0            999 V2000
    4.1093   -9.3626    0.0000 C   0  0  0  0  0  0  0  0  0  0  0  0
    4.1093  -10.1876    0.0000 C   0  0  1  0  0  0  0  0  0  0  0  0
    4.8238  -10.6001    0.0000 C   0  0  2  0  0  0  0  0  0  0  0  0
    5.5382  -10.1876    0.0000 C   0  0  0  0  0  0  0  0  0  0  0  0
    5.5382   -9.3626    0.0000 C   0  0  2  0  0  0  0  0  0  0  0  0
    4.8238   -8.9501    0.0000 C   0  0  0  0  0  0  0  0  0  0  0  0
    6.2527  -10.6001    0.0000 C   0  0  0  0  0  0  0  0  0  0  0  0
    6.9672  -10.1876    0.0000 C   0  0  0  0  0  0  0  0  0  0  0  0
    6.9672   -9.3626    0.0000 C   0  0  0  0  0  0  0  0  0  0  0  0
    6.2527   -8.9501    0.0000 C   0  0  0  0  0  0  0  0  0  0  0  0
    7.6817   -8.9501    0.0000 C   0  0  0  0  0  0  0  0  0  0  0  0
    7.6817   -8.1251    0.0000 C   0  0  2  0  0  0  0  0  0  0  0  0
    6.9672   -7.7126    0.0000 C   0  0  0  0  0  0  0  0  0  0  0  0
    6.2527   -8.1251    0.0000 C   0  0  0  0  0  0  0  0  0  0  0  0
    8.5067   -8.1251    0.0000 C   0  0  0  0  0  0  0  0  0  0  0  0
    9.0900   -7.5418    0.0000 C   0  0  0  0  0  0  0  0  0  0  0  0
    5.2363  -11.3146    0.0000 C   0  0  0  0  0  0  0  0  0  0  0  0
    3.3948  -10.6001    0.0000 O   0  0  0  0  0  0  0  0  0  0  0  0
    4.4113  -11.3146    0.0000 C   0  0  0  0  0  0  0  0  0  0  0  0
    5.5382   -8.5376    0.0000 C   0  0  0  0  0  0  0  0  0  0  0  0
    7.8952   -7.3283    0.0000 C   0  0  0  0  0  0  0  0  0  0  0  0
    4.8238  -12.0291    0.0000 O   0  0  0  0  0  0  0  0  0  0  0  0
    6.0613  -11.3146    0.0000 O   0  0  0  0  0  0  0  0  0  0  0  0
  1  2  1  0  0  0  0
  2  3  1  0  0  0  0
  3  4  1  0  0  0  0
  4  5  1  0  0  0  0
  5  6  1  0  0  0  0
  6  1  1  0  0  0  0
  4  7  1  0  0  0  0
  7  8  1  0  0  0  0
  8  9  1  0  0  0  0
  9 10  1  0  0  0  0
 10  5  1  0  0  0  0
  9 11  2  0  0  0  0
 11 12  1  0  0  0  0
 12 13  1  0  0  0  0
 13 14  1  0  0  0  0
 14 10  1  0  0  0  0
 12 15  1  6  0  0  0
 15 16  2  0  0  0  0
  3 17  1  6  0  0  0
  2 18  1  1  0  0  0
  3 19  1  1  0  0  0
  5 20  1  1  0  0  0
 12 21  1  1  0  0  0
 17 22  1  0  0  0  0
 17 23  2  0  0  0  0
M  END
>  <cdx:fragmentId>
5

$$$$
