91113.cdx
  Mrv1902 05222410192D          

 75 82  0  0  0  0            999 V2000
   10.8058  -11.4125    0.0000 C   0  0  1  0  0  0  0  0  0  0  0  0
   10.8058  -10.5875    0.0000 C   0  0  0  0  0  0  0  0  0  0  0  0
   11.5203  -10.1750    0.0000 C   0  0  0  0  0  0  0  0  0  0  0  0
   11.5203  -11.8250    0.0000 C   0  0  0  0  0  0  0  0  0  0  0  0
   12.2347  -11.4125    0.0000 C   0  0  0  0  0  0  0  0  0  0  0  0
   12.9492  -11.8250    0.0000 C   0  0  0  0  0  0  0  0  0  0  0  0
   13.6637  -11.4125    0.0000 C   0  0  0  0  0  0  0  0  0  0  0  0
   13.6637  -10.5875    0.0000 C   0  0  1  0  0  0  0  0  0  0  0  0
   14.3782  -10.1750    0.0000 C   0  0  2  0  0  0  0  0  0  0  0  0
   15.1628  -10.4299    0.0000 C   0  0  0  0  0  0  0  0  0  0  0  0
   15.6477   -9.7625    0.0000 C   0  0  0  0  0  0  0  0  0  0  0  0
   15.1628   -9.0951    0.0000 C   0  0  0  0  0  0  0  0  0  0  0  0
   14.3782   -9.3500    0.0000 C   0  0  2  0  0  0  0  0  0  0  0  0
   14.3782   -8.5250    0.0000 C   0  0  0  0  0  0  0  0  0  0  0  0
   13.6637   -8.9375    0.0000 C   0  0  0  0  0  0  0  0  0  0  0  0
   12.9492   -9.3500    0.0000 C   0  0  0  0  0  0  0  0  0  0  0  0
   12.9492  -10.1750    0.0000 C   0  0  2  0  0  0  0  0  0  0  0  0
   12.2347  -10.5875    0.0000 C   0  0  1  0  0  0  0  0  0  0  0  0
   12.2347   -9.7625    0.0000 C   0  0  0  0  0  0  0  0  0  0  0  0
   12.9492  -11.0000    0.0000 H   0  0  0  0  0  0  0  0  0  0  0  0
   13.6637   -9.7625    0.0000 H   0  0  0  0  0  0  0  0  0  0  0  0
   14.3782  -11.0000    0.0000 H   0  0  0  0  0  0  0  0  0  0  0  0
   10.0913  -11.8250    0.0000 O   0  0  0  0  0  0  0  0  0  0  0  0
    8.6621  -10.1608    0.0000 C   0  0  2  0  0  0  0  0  0  0  0  0
    7.9459  -10.5704    0.0000 C   0  0  2  0  0  0  0  0  0  0  0  0
    7.9426  -11.3953    0.0000 C   0  0  1  0  0  0  0  0  0  0  0  0
    8.6553  -11.8108    0.0000 C   0  0  2  0  0  0  0  0  0  0  0  0
    9.3715  -11.4012    0.0000 C   0  0  1  0  0  0  0  0  0  0  0  0
    9.3749  -10.5762    0.0000 O   0  0  0  0  0  0  0  0  0  0  0  0
    8.6655   -9.3358    0.0000 C   0  0  0  0  0  0  0  0  0  0  0  0
    7.2264  -11.8049    0.0000 O   0  0  0  0  0  0  0  0  0  0  0  0
    7.2332  -10.1549    0.0000 O   0  0  0  0  0  0  0  0  0  0  0  0
    8.6520  -12.6358    0.0000 O   0  0  0  0  0  0  0  0  0  0  0  0
    7.9527   -8.9204    0.0000 O   0  0  0  0  0  0  0  0  0  0  0  0
    7.9375  -13.0483    0.0000 C   0  0  2  0  0  0  0  0  0  0  0  0
    7.2230  -12.6358    0.0000 O   0  0  0  0  0  0  0  0  0  0  0  0
    6.5086  -13.0483    0.0000 C   0  0  2  0  0  0  0  0  0  0  0  0
    6.5086  -13.8733    0.0000 C   0  0  1  0  0  0  0  0  0  0  0  0
    7.2230  -14.2858    0.0000 C   0  0  2  0  0  0  0  0  0  0  0  0
    7.9375  -13.8733    0.0000 C   0  0  1  0  0  0  0  0  0  0  0  0
    5.7941  -12.6358    0.0000 C   0  0  0  0  0  0  0  0  0  0  0  0
    5.7941  -14.2858    0.0000 O   0  0  0  0  0  0  0  0  0  0  0  0
    7.2230  -15.1108    0.0000 O   0  0  0  0  0  0  0  0  0  0  0  0
    8.6520  -14.2858    0.0000 O   0  0  0  0  0  0  0  0  0  0  0  0
   16.4727   -9.7625    0.0000 O   0  0  0  0  0  0  0  0  0  0  0  0
   15.4177   -8.3104    0.0000 C   0  0  0  0  0  0  0  0  0  0  0  0
   14.8657   -7.6973    0.0000 C   0  0  0  0  0  0  0  0  0  0  0  0
   16.2247   -8.1389    0.0000 C   0  0  0  0  0  0  0  0  0  0  0  0
   16.7767   -8.7520    0.0000 O   0  0  0  0  0  0  0  0  0  0  0  0
   16.4796   -7.3543    0.0000 C   0  0  0  0  0  0  0  0  0  0  0  0
   17.2866   -7.1828    0.0000 C   0  0  0  0  0  0  0  0  0  0  0  0
   17.5415   -6.3981    0.0000 C   0  0  2  0  0  0  0  0  0  0  0  0
   18.3485   -6.2266    0.0000 C   0  0  0  0  0  0  0  0  0  0  0  0
   18.6034   -5.4420    0.0000 O   0  0  0  0  0  0  0  0  0  0  0  0
   16.9895   -5.7850    0.0000 C   0  0  0  0  0  0  0  0  0  0  0  0
   19.4104   -5.2705    0.0000 C   0  0  2  0  0  0  0  0  0  0  0  0
   19.9625   -5.8836    0.0000 O   0  0  0  0  0  0  0  0  0  0  0  0
   20.7694   -5.7120    0.0000 C   0  0  1  0  0  0  0  0  0  0  0  0
   21.0244   -4.9274    0.0000 C   0  0  2  0  0  0  0  0  0  0  0  0
   20.4723   -4.3143    0.0000 C   0  0  1  0  0  0  0  0  0  0  0  0
   19.6654   -4.4858    0.0000 C   0  0  1  0  0  0  0  0  0  0  0  0
   21.3215   -6.3251    0.0000 C   0  0  0  0  0  0  0  0  0  0  0  0
   20.7273   -3.5297    0.0000 O   0  0  0  0  0  0  0  0  0  0  0  0
   21.8313   -4.7559    0.0000 O   0  0  0  0  0  0  0  0  0  0  0  0
   19.1133   -3.8727    0.0000 O   0  0  0  0  0  0  0  0  0  0  0  0
   22.1284   -6.1536    0.0000 O   0  0  0  0  0  0  0  0  0  0  0  0
    6.4082  -10.1522    0.0000 C   0  0  2  0  0  0  0  0  0  0  0  0
    5.9254   -9.4832    0.0000 O   0  0  0  0  0  0  0  0  0  0  0  0
    5.1400   -9.7355    0.0000 C   0  0  2  0  0  0  0  0  0  0  0  0
    5.1373  -10.5605    0.0000 C   0  0  1  0  0  0  0  0  0  0  0  0
    5.9210  -10.8181    0.0000 C   0  0  1  0  0  0  0  0  0  0  0  0
    6.1734  -11.6035    0.0000 O   0  0  0  0  0  0  0  0  0  0  0  0
    4.4682  -11.0432    0.0000 O   0  0  0  0  0  0  0  0  0  0  0  0
    4.4742   -9.2484    0.0000 C   0  0  0  0  0  0  0  0  0  0  0  0
    3.7194   -9.5815    0.0000 O   0  0  0  0  0  0  0  0  0  0  0  0
  1  2  1  0  0  0  0
  2  3  1  0  0  0  0
  1  4  1  0  0  0  0
  4  5  1  0  0  0  0
  5  6  2  0  0  0  0
  6  7  1  0  0  0  0
  7  8  1  0  0  0  0
  8  9  1  0  0  0  0
  9 10  1  0  0  0  0
 10 11  1  0  0  0  0
 11 12  1  0  0  0  0
 12 13  1  0  0  0  0
  9 13  1  0  0  0  0
 13 14  1  1  0  0  0
 13 15  1  0  0  0  0
 15 16  1  0  0  0  0
 16 17  1  0  0  0  0
  8 17  1  0  0  0  0
 17 18  1  0  0  0  0
  3 18  1  0  0  0  0
  5 18  1  0  0  0  0
 18 19  1  1  0  0  0
 17 20  1  6  0  0  0
  8 21  1  1  0  0  0
  9 22  1  6  0  0  0
  1 23  1  1  0  0  0
 24 25  1  0  0  0  0
 25 26  1  0  0  0  0
 26 27  1  0  0  0  0
 27 28  1  0  0  0  0
 28 29  1  0  0  0  0
 29 24  1  0  0  0  0
 24 30  1  1  0  0  0
 26 31  1  1  0  0  0
 25 32  1  6  0  0  0
 27 33  1  6  0  0  0
 30 34  1  0  0  0  0
 28 23  1  1  0  0  0
 35 33  1  1  0  0  0
 35 36  1  0  0  0  0
 36 37  1  0  0  0  0
 37 38  1  0  0  0  0
 38 39  1  0  0  0  0
 39 40  1  0  0  0  0
 40 35  1  0  0  0  0
 37 41  1  6  0  0  0
 38 42  1  1  0  0  0
 39 43  1  6  0  0  0
 40 44  1  6  0  0  0
 11 45  2  0  0  0  0
 12 46  1  0  0  0  0
 46 47  1  0  0  0  0
 46 48  1  0  0  0  0
 48 49  2  0  0  0  0
 48 50  1  0  0  0  0
 50 51  1  0  0  0  0
 51 52  1  0  0  0  0
 52 53  1  0  0  0  0
 53 54  1  0  0  0  0
 52 55  1  1  0  0  0
 56 54  1  1  0  0  0
 56 57  1  0  0  0  0
 57 58  1  0  0  0  0
 58 59  1  0  0  0  0
 59 60  1  0  0  0  0
 60 61  1  0  0  0  0
 61 56  1  0  0  0  0
 58 62  1  1  0  0  0
 60 63  1  1  0  0  0
 59 64  1  6  0  0  0
 61 65  1  6  0  0  0
 62 66  1  0  0  0  0
 67 32  1  1  0  0  0
 67 68  1  0  0  0  0
 68 69  1  0  0  0  0
 69 70  1  0  0  0  0
 70 71  1  0  0  0  0
 71 67  1  0  0  0  0
 71 72  1  6  0  0  0
 70 73  1  1  0  0  0
 69 74  1  6  0  0  0
 74 75  1  0  0  0  0
M  END
>  <cdx:fragmentId>
5

$$$$
