91114.cdx
  Mrv1902 05222410182D          

 33 35  0  0  0  0            999 V2000
    2.9681  -13.4464    0.0000 C   0  0  0  0  0  0  0  0  0  0  0  0
    2.9681  -14.2714    0.0000 C   0  0  0  0  0  0  0  0  0  0  0  0
    3.6825  -14.6839    0.0000 C   0  0  0  0  0  0  0  0  0  0  0  0
    4.3970  -14.2714    0.0000 C   0  0  0  0  0  0  0  0  0  0  0  0
    4.3970  -13.4464    0.0000 C   0  0  0  0  0  0  0  0  0  0  0  0
    3.6825  -13.0339    0.0000 C   0  0  0  0  0  0  0  0  0  0  0  0
    4.3970  -11.7964    0.0000 N   0  0  0  0  0  0  0  0  0  0  0  0
    3.6825  -12.2089    0.0000 C   0  0  0  0  0  0  0  0  0  0  0  0
    4.3970  -10.9714    0.0000 C   0  0  1  0  0  0  0  0  0  0  0  0
    3.6825  -10.5589    0.0000 C   0  0  0  0  0  0  0  0  0  0  0  0
    2.9681  -11.7964    0.0000 O   0  0  0  0  0  0  0  0  0  0  0  0
    5.1115  -10.5589    0.0000 C   0  0  0  0  0  0  0  0  0  0  0  0
    5.1115   -9.7339    0.0000 O   0  0  0  0  0  0  0  0  0  0  0  0
    4.3970   -9.3214    0.0000 C   0  0  0  0  0  0  0  0  0  0  0  0
    3.6825   -9.7339    0.0000 C   0  0  0  0  0  0  0  0  0  0  0  0
    4.3970   -8.4964    0.0000 C   0  0  0  0  0  0  0  0  0  0  0  0
    3.6825   -8.0839    0.0000 C   0  0  0  0  0  0  0  0  0  0  0  0
    2.9681   -8.4964    0.0000 C   0  0  0  0  0  0  0  0  0  0  0  0
    2.9681   -9.3214    0.0000 C   0  0  0  0  0  0  0  0  0  0  0  0
    5.8259  -10.9714    0.0000 N   0  0  0  0  0  0  0  0  0  0  0  0
    6.5404  -10.5589    0.0000 C   0  0  2  0  0  0  0  0  0  0  0  0
    6.5404   -9.7339    0.0000 C   0  0  0  0  0  0  0  0  0  0  0  0
    7.2549  -10.9714    0.0000 C   0  0  0  0  0  0  0  0  0  0  0  0
    7.9694  -10.5589    0.0000 C   0  0  0  0  0  0  0  0  0  0  0  0
    7.9694   -9.7339    0.0000 C   0  0  0  0  0  0  0  0  0  0  0  0
    7.2549   -9.3214    0.0000 O   0  0  0  0  0  0  0  0  0  0  0  0
    8.6838  -10.9714    0.0000 C   0  0  0  0  0  0  0  0  0  0  0  0
    9.3983  -10.5589    0.0000 C   0  0  0  0  0  0  0  0  0  0  0  0
    9.3983   -9.7339    0.0000 C   0  0  0  0  0  0  0  0  0  0  0  0
    8.6838   -9.3214    0.0000 C   0  0  0  0  0  0  0  0  0  0  0  0
    7.9694   -8.0839    0.0000 C   0  0  0  0  0  0  0  0  0  0  0  0
    7.2549   -8.4964    0.0000 C   0  0  0  0  0  0  0  0  0  0  0  0
    6.5404   -8.0839    0.0000 O   0  0  0  0  0  0  0  0  0  0  0  0
  1  2  2  0  0  0  0
  2  3  1  0  0  0  0
  3  4  2  0  0  0  0
  4  5  1  0  0  0  0
  5  6  2  0  0  0  0
  6  1  1  0  0  0  0
  7  8  1  0  0  0  0
  8  6  1  0  0  0  0
  9  7  1  1  0  0  0
  9 10  1  0  0  0  0
 11  8  2  0  0  0  0
  9 12  1  0  0  0  0
 12 13  2  0  0  0  0
 14 15  2  0  0  0  0
 15 10  1  0  0  0  0
 14 16  1  0  0  0  0
 16 17  2  0  0  0  0
 17 18  1  0  0  0  0
 18 19  2  0  0  0  0
 19 15  1  0  0  0  0
 12 20  1  0  0  0  0
 21 20  1  6  0  0  0
 21 22  1  0  0  0  0
 21 23  1  0  0  0  0
 23 24  1  0  0  0  0
 24 25  1  0  0  0  0
 26 22  1  0  0  0  0
 24 27  2  0  0  0  0
 27 28  1  0  0  0  0
 28 29  2  0  0  0  0
 29 30  1  0  0  0  0
 30 25  2  0  0  0  0
 31 32  1  0  0  0  0
 32 26  1  0  0  0  0
 32 33  2  0  0  0  0
M  END
>  <cdx:fragmentId>
5

$$$$
