91116.cdx
  Mrv1902 05222410192D          

 10  9  0  0  0  0            999 V2000
    9.1626   -3.4402    0.0000 C   0  0  0  0  0  0  0  0  0  0  0  0
    5.5903   -4.6777    0.0000 C   0  0  0  0  0  0  0  0  0  0  0  0
    4.8758   -2.6152    0.0000 C   0  0  0  0  0  0  0  0  0  0  0  0
    4.8758   -3.4402    0.0000 C   0  0  0  0  0  0  0  0  0  0  0  0
    5.5903   -3.8527    0.0000 C   0  0  0  0  0  0  0  0  0  0  0  0
    6.3047   -3.4402    0.0000 C   0  0  0  0  0  0  0  0  0  0  0  0
    7.0192   -3.8527    0.0000 C   0  0  0  0  0  0  0  0  0  0  0  0
    7.7337   -3.4402    0.0000 C   0  0  0  0  0  0  0  0  0  0  0  0
    8.4482   -3.8527    0.0000 C   0  0  0  0  0  0  0  0  0  0  0  0
    8.4482   -4.6777    0.0000 C   0  0  0  0  0  0  0  0  0  0  0  0
  9  1  1  0  0  0  0
  5  2  1  0  0  0  0
  4  3  1  0  0  0  0
  5  4  2  0  0  0  0
  6  5  1  0  0  0  0
  7  6  2  0  0  0  0
  8  7  1  0  0  0  0
  9  8  2  0  0  0  0
 10  9  1  0  0  0  0
M  END
>  <cdx:fragmentId>
31495

$$$$
