91118.cdx
  Mrv1902 05222410282D          

 25 28  0  0  0  0            999 V2000
    7.6797   -6.2201    0.0000 H   0  0  0  0  0  0  0  0  0  0  0  0
    5.5966   -7.4489    0.0000 H   0  0  0  0  0  0  0  0  0  0  0  0
    4.9635   -6.8939    0.0000 C   0  0  0  0  0  0  0  0  0  0  0  0
    7.8356   -8.8988    0.0000 H   0  0  0  0  0  0  0  0  0  0  0  0
    5.6191   -7.8465    0.0000 H   0  0  0  0  0  0  0  0  0  0  0  0
    8.5473   -7.5891    0.0000 H   0  0  0  0  0  0  0  0  0  0  0  0
    8.5022   -5.9397    0.0000 C   0  0  0  0  0  0  0  0  0  0  0  0
    8.5248   -6.7644    0.0000 C   0  0  0  0  0  0  0  0  0  0  0  0
    5.6484   -5.2348    0.0000 O   0  0  0  0  0  0  0  0  0  0  0  0
    6.9028   -6.0015    0.0000 O   0  0  0  0  0  0  0  0  0  0  0  0
    6.0803   -5.9378    0.0000 C   0  0  0  0  0  0  0  0  0  0  0  0
    5.7655   -6.7003    0.0000 C   0  0  2  0  0  0  0  0  0  0  0  0
    5.8312   -8.7075    0.0000 C   0  0  0  0  0  0  0  0  0  0  0  0
    6.2311   -9.4291    0.0000 C   0  0  0  0  0  0  0  0  0  0  0  0
    7.0409   -9.2717    0.0000 N   0  0  0  0  0  0  0  0  0  0  0  0
    7.6184   -9.8609    0.0000 C   0  0  0  0  0  0  0  0  0  0  0  0
    8.4391   -9.7767    0.0000 C   0  0  0  0  0  0  0  0  0  0  0  0
    8.8850   -9.0826    0.0000 C   0  0  0  0  0  0  0  0  0  0  0  0
    8.6204   -8.3012    0.0000 C   0  0  0  0  0  0  0  0  0  0  0  0
    6.3934   -7.2354    0.0000 C   0  0  1  0  0  0  0  0  0  0  0  0
    6.4160   -8.0601    0.0000 C   0  0  1  0  0  0  0  0  0  0  0  0
    7.1415   -8.4529    0.0000 C   0  0  1  0  0  0  0  0  0  0  0  0
    7.8444   -8.0210    0.0000 C   0  0  1  0  0  0  0  0  0  0  0  0
    7.8218   -7.1963    0.0000 C   0  0  2  0  0  0  0  0  0  0  0  0
    7.0964   -6.8035    0.0000 C   0  0  1  0  0  0  0  0  0  0  0  0
 25  1  1  1  0  0  0
 20  2  1  1  0  0  0
 12  3  1  6  0  0  0
 22  4  1  6  0  0  0
 21  5  1  6  0  0  0
 23  6  1  6  0  0  0
  8  7  1  0  0  0  0
 24  8  1  6  0  0  0
 11  9  2  0  0  0  0
 10 25  1  0  0  0  0
 11 10  1  0  0  0  0
 12 11  1  0  0  0  0
 20 12  1  0  0  0  0
 13 21  1  0  0  0  0
 14 13  1  0  0  0  0
 15 14  1  0  0  0  0
 15 22  1  0  0  0  0
 16 15  1  0  0  0  0
 17 16  1  0  0  0  0
 18 17  1  0  0  0  0
 19 18  1  0  0  0  0
 23 19  1  0  0  0  0
 20 25  1  0  0  0  0
 21 20  1  0  0  0  0
 22 21  1  0  0  0  0
 23 22  1  0  0  0  0
 24 23  1  0  0  0  0
 25 24  1  0  0  0  0
M  END
>  <cdx:fragmentId>
5

$$$$
