91129.cdx
  Mrv1902 05222410182D          

 23 25  0  0  0  0            999 V2000
    3.3806   -7.3001    0.0000 C   0  0  0  0  0  0  0  0  0  0  0  0
    3.3806   -8.1251    0.0000 C   0  0  0  0  0  0  0  0  0  0  0  0
    4.0950   -8.5376    0.0000 C   0  0  0  0  0  0  0  0  0  0  0  0
    4.8095   -8.1251    0.0000 C   0  0  0  0  0  0  0  0  0  0  0  0
    4.8095   -7.3001    0.0000 C   0  0  0  0  0  0  0  0  0  0  0  0
    4.0950   -6.8876    0.0000 C   0  0  0  0  0  0  0  0  0  0  0  0
    4.0950   -9.3626    0.0000 C   0  0  0  0  0  0  0  0  0  0  0  0
    4.8095   -9.7751    0.0000 N   0  0  0  0  0  0  0  0  0  0  0  0
    5.5240   -9.3626    0.0000 C   0  0  2  0  0  0  0  0  0  0  0  0
    5.5240   -8.5376    0.0000 C   0  0  0  0  0  0  0  0  0  0  0  0
    4.8095  -10.6001    0.0000 C   0  0  0  0  0  0  0  0  0  0  0  0
    5.5240  -11.0126    0.0000 C   0  0  0  0  0  0  0  0  0  0  0  0
    6.2384  -10.6001    0.0000 C   0  0  0  0  0  0  0  0  0  0  0  0
    6.2384   -9.7751    0.0000 C   0  0  0  0  0  0  0  0  0  0  0  0
    6.9529  -11.0126    0.0000 C   0  0  0  0  0  0  0  0  0  0  0  0
    7.6674  -10.6001    0.0000 C   0  0  0  0  0  0  0  0  0  0  0  0
    7.6674   -9.7751    0.0000 C   0  0  0  0  0  0  0  0  0  0  0  0
    6.9529   -9.3626    0.0000 C   0  0  0  0  0  0  0  0  0  0  0  0
    2.6661   -6.8876    0.0000 O   0  0  0  0  0  0  0  0  0  0  0  0
    8.3819   -9.3626    0.0000 O   0  0  0  0  0  0  0  0  0  0  0  0
    8.3819  -11.0126    0.0000 O   0  0  0  0  0  0  0  0  0  0  0  0
    8.3819  -11.8376    0.0000 C   0  0  0  0  0  0  0  0  0  0  0  0
    1.9516   -7.3001    0.0000 C   0  0  0  0  0  0  0  0  0  0  0  0
  1  2  1  0  0  0  0
  2  3  2  0  0  0  0
  3  4  1  0  0  0  0
  4  5  2  0  0  0  0
  5  6  1  0  0  0  0
  6  1  2  0  0  0  0
  7  8  1  0  0  0  0
  8  9  1  0  0  0  0
  9 10  1  6  0  0  0
 10  4  1  0  0  0  0
  8 11  1  0  0  0  0
 11 12  1  0  0  0  0
 12 13  1  0  0  0  0
 13 14  2  0  0  0  0
 14  9  1  0  0  0  0
 13 15  1  0  0  0  0
 15 16  2  0  0  0  0
 16 17  1  0  0  0  0
 17 18  2  0  0  0  0
 18 14  1  0  0  0  0
  1 19  1  0  0  0  0
 17 20  1  0  0  0  0
 16 21  1  0  0  0  0
 21 22  1  0  0  0  0
 19 23  1  0  0  0  0
M  END
>  <cdx:fragmentId>
5

$$$$
