91128.cdx
  Mrv1902 05222410182D          

 16 17  0  0  0  0            999 V2000
    7.5179   -7.4716    0.0000 C   0  0  0  0  0  0  0  0  0  0  0  0
    7.5230   -6.6466    0.0000 C   0  0  0  0  0  0  0  0  0  0  0  0
    6.8111   -6.2297    0.0000 C   0  0  0  0  0  0  0  0  0  0  0  0
    6.0941   -6.6378    0.0000 C   0  0  0  0  0  0  0  0  0  0  0  0
    6.0890   -7.4628    0.0000 C   0  0  0  0  0  0  0  0  0  0  0  0
    6.8009   -7.8797    0.0000 C   0  0  0  0  0  0  0  0  0  0  0  0
    5.3822   -6.2209    0.0000 C   0  0  2  0  0  0  0  0  0  0  0  0
    4.6652   -6.6289    0.0000 C   0  0  0  0  0  0  0  0  0  0  0  0
    4.6601   -7.4539    0.0000 C   0  0  0  0  0  0  0  0  0  0  0  0
    5.3720   -7.8708    0.0000 C   0  0  1  0  0  0  0  0  0  0  0  0
    8.2401   -6.2386    0.0000 O   0  0  0  0  0  0  0  0  0  0  0  0
    5.3873   -5.3959    0.0000 C   0  0  0  0  0  0  0  0  0  0  0  0
    6.1044   -4.9878    0.0000 C   0  0  0  0  0  0  0  0  0  0  0  0
    4.6754   -4.9790    0.0000 C   0  0  0  0  0  0  0  0  0  0  0  0
    5.3669   -8.6958    0.0000 C   0  0  0  0  0  0  0  0  0  0  0  0
    4.6703   -5.8039    0.0000 O   0  0  0  0  0  0  0  0  0  0  0  0
  1  2  1  0  0  0  0
  2  3  1  0  0  0  0
  3  4  2  0  0  0  0
  4  5  1  0  0  0  0
  5  6  1  0  0  0  0
  6  1  1  0  0  0  0
  4  7  1  0  0  0  0
  7  8  1  0  0  0  0
  8  9  1  0  0  0  0
  9 10  1  0  0  0  0
 10  5  1  0  0  0  0
  2 11  2  0  0  0  0
  7 12  1  6  0  0  0
 12 13  1  0  0  0  0
 12 14  1  0  0  0  0
 10 15  1  6  0  0  0
  7 16  1  1  0  0  0
M  END
>  <cdx:fragmentId>
5

$$$$
