11262.cdx
  Mrv1902 05222410272D          

 32 31  0  0  0  0            999 V2000
    3.4714   -7.0744    0.0000 O   0  0  0  0  0  0  0  0  0  0  0  0
    3.8596   -7.2987    0.0000 C   0  0  0  0  0  0  0  0  0  0  0  0
    4.2716   -7.0744    0.0000 C   0  0  0  0  0  0  0  0  0  0  0  0
    4.6717   -7.3054    0.0000 C   0  0  0  0  0  0  0  0  0  0  0  0
    5.0718   -7.0744    0.0000 C   0  0  0  0  0  0  0  0  0  0  0  0
    5.4719   -7.3054    0.0000 C   0  0  0  0  0  0  0  0  0  0  0  0
    5.8720   -7.0744    0.0000 C   0  0  0  0  0  0  0  0  0  0  0  0
    6.2721   -7.3054    0.0000 C   0  0  0  0  0  0  0  0  0  0  0  0
    6.6722   -7.0744    0.0000 C   0  0  0  0  0  0  0  0  0  0  0  0
    7.0723   -7.3054    0.0000 C   0  0  0  0  0  0  0  0  0  0  0  0
    7.4724   -7.0744    0.0000 C   0  0  0  0  0  0  0  0  0  0  0  0
    7.8725   -7.3054    0.0000 C   0  0  0  0  0  0  0  0  0  0  0  0
    8.2726   -7.0744    0.0000 C   0  0  0  0  0  0  0  0  0  0  0  0
    8.6727   -7.3054    0.0000 C   0  0  0  0  0  0  0  0  0  0  0  0
    9.0728   -7.0744    0.0000 C   0  0  0  0  0  0  0  0  0  0  0  0
    9.4729   -7.3054    0.0000 C   0  0  0  0  0  0  0  0  0  0  0  0
    9.8730   -7.0744    0.0000 C   0  0  0  0  0  0  0  0  0  0  0  0
   10.2731   -7.3054    0.0000 C   0  0  0  0  0  0  0  0  0  0  0  0
   10.6732   -7.0744    0.0000 C   0  0  0  0  0  0  0  0  0  0  0  0
   11.0733   -7.3054    0.0000 C   0  0  0  0  0  0  0  0  0  0  0  0
   11.4734   -7.0744    0.0000 C   0  0  0  0  0  0  0  0  0  0  0  0
   11.8735   -7.3054    0.0000 C   0  0  0  0  0  0  0  0  0  0  0  0
   12.2736   -7.0744    0.0000 C   0  0  0  0  0  0  0  0  0  0  0  0
   12.6737   -7.3054    0.0000 C   0  0  0  0  0  0  0  0  0  0  0  0
   13.0738   -7.0744    0.0000 C   0  0  0  0  0  0  0  0  0  0  0  0
   13.4739   -7.3054    0.0000 C   0  0  0  0  0  0  0  0  0  0  0  0
    3.8596   -7.7607    0.0000 O   0  0  0  0  0  0  0  0  0  0  0  0
    3.0205   -7.3456    0.0000 C   0  0  0  0  0  0  0  0  0  0  0  0
    2.6204   -7.1146    0.0000 C   0  0  0  0  0  0  0  0  0  0  0  0
    2.2203   -7.3456    0.0000 C   0  0  0  0  0  0  0  0  0  0  0  0
    1.8202   -7.1146    0.0000 O   0  0  0  0  0  0  0  0  0  0  0  0
    2.6204   -6.6526    0.0000 O   0  0  0  0  0  0  0  0  0  0  0  0
  1  2  1  0  0  0  0
  2  3  1  0  0  0  0
  3  4  1  0  0  0  0
  4  5  1  0  0  0  0
  5  6  1  0  0  0  0
  6  7  1  0  0  0  0
  7  8  1  0  0  0  0
  8  9  1  0  0  0  0
  9 10  1  0  0  0  0
 10 11  1  0  0  0  0
 11 12  1  0  0  0  0
 12 13  1  0  0  0  0
 13 14  1  0  0  0  0
 14 15  1  0  0  0  0
 15 16  1  0  0  0  0
 16 17  1  0  0  0  0
 17 18  1  0  0  0  0
 18 19  1  0  0  0  0
 19 20  1  0  0  0  0
 20 21  1  0  0  0  0
 21 22  1  0  0  0  0
 22 23  1  0  0  0  0
 23 24  1  0  0  0  0
 24 25  1  0  0  0  0
 25 26  1  0  0  0  0
  2 27  2  0  0  0  0
 28 29  1  0  0  0  0
 29 30  1  0  0  0  0
 30 31  1  0  0  0  0
 29 32  1  0  0  0  0
 28  1  1  0  0  0  0
M  END
>  <cdx:fragmentId>
3

$$$$
