91124.cdx
  Mrv1902 05222410282D          

 28 31  0  0  0  0            999 V2000
    6.6401   -4.4494    0.0000 C   0  0  0  0  0  0  0  0  0  0  0  0
    6.6461   -5.2743    0.0000 O   0  0  0  0  0  0  0  0  0  0  0  0
    7.3635   -5.6817    0.0000 C   0  0  0  0  0  0  0  0  0  0  0  0
    8.0750   -5.2640    0.0000 C   0  0  0  0  0  0  0  0  0  0  0  0
    8.0690   -4.4391    0.0000 O   0  0  0  0  0  0  0  0  0  0  0  0
    7.3694   -6.5067    0.0000 C   0  0  0  0  0  0  0  0  0  0  0  0
    8.0868   -6.9140    0.0000 C   0  0  0  0  0  0  0  0  0  0  0  0
    8.7983   -6.4964    0.0000 C   0  0  0  0  0  0  0  0  0  0  0  0
    8.7924   -5.6714    0.0000 C   0  0  0  0  0  0  0  0  0  0  0  0
    8.0928   -7.7390    0.0000 C   0  0  0  0  0  0  0  0  0  0  0  0
    8.8102   -8.1463    0.0000 N   0  3  0  0  0  0  0  0  0  0  0  0
    9.5217   -7.7287    0.0000 C   0  0  0  0  0  0  0  0  0  0  0  0
    9.5158   -6.9037    0.0000 C   0  0  0  0  0  0  0  0  0  0  0  0
    6.6579   -6.9243    0.0000 C   0  0  0  0  0  0  0  0  0  0  0  0
    6.6639   -7.7493    0.0000 C   0  0  0  0  0  0  0  0  0  0  0  0
    7.3813   -8.1566    0.0000 C   0  0  0  0  0  0  0  0  0  0  0  0
    7.3873   -8.9816    0.0000 O   0  0  0  0  0  0  0  0  0  0  0  0
    8.8162   -8.9713    0.0000 C   0  0  0  0  0  0  0  0  0  0  0  0
    5.9405   -6.5170    0.0000 C   0  0  0  0  0  0  0  0  0  0  0  0
    5.2290   -6.9346    0.0000 C   0  0  0  0  0  0  0  0  0  0  0  0
    5.2350   -7.7596    0.0000 C   0  0  0  0  0  0  0  0  0  0  0  0
    5.9524   -8.1669    0.0000 C   0  0  0  0  0  0  0  0  0  0  0  0
    4.5116   -6.5272    0.0000 O   0  0  0  0  0  0  0  0  0  0  0  0
    3.8001   -6.9449    0.0000 C   0  0  0  0  0  0  0  0  0  0  0  0
    4.5235   -8.1772    0.0000 O   0  0  0  0  0  0  0  0  0  0  0  0
    8.7805   -4.0214    0.0000 C   0  0  0  0  0  0  0  0  0  0  0  0
   10.2272   -6.4861    0.0000 O   0  0  0  0  0  0  0  0  0  0  0  0
    4.5295   -9.0022    0.0000 C   0  0  0  0  0  0  0  0  0  0  0  0
  1  2  1  0  0  0  0
  2  3  1  0  0  0  0
  3  4  2  0  0  0  0
  4  5  1  0  0  0  0
  3  6  1  0  0  0  0
  6  7  2  0  0  0  0
  7  8  1  0  0  0  0
  8  9  2  0  0  0  0
  9  4  1  0  0  0  0
  7 10  1  0  0  0  0
 10 11  2  0  0  0  0
 11 12  1  0  0  0  0
 12 13  2  0  0  0  0
 13  8  1  0  0  0  0
  6 14  1  0  0  0  0
 14 15  2  0  0  0  0
 15 16  1  0  0  0  0
 16 10  1  0  0  0  0
 16 17  2  0  0  0  0
 18 11  1  0  0  0  0
 14 19  1  0  0  0  0
 19 20  2  0  0  0  0
 20 21  1  0  0  0  0
 21 22  2  0  0  0  0
 22 15  1  0  0  0  0
 20 23  1  0  0  0  0
 23 24  1  0  0  0  0
 25 21  1  0  0  0  0
  5 26  1  0  0  0  0
 13 27  1  0  0  0  0
 25 28  1  0  0  0  0
M  CHG  1  11   1
M  END
>  <cdx:fragmentId>
5

$$$$
