9112.cdx
  Mrv1902 05222410232D          

 44 47  0  0  0  0            999 V2000
    9.3225   -7.2048    0.0000 O   0  0  0  0  0  0  0  0  0  0  0  0
   10.0347   -7.6211    0.0000 C   0  0  0  0  0  0  0  0  0  0  0  0
   10.7514   -7.2124    0.0000 C   0  0  0  0  0  0  0  0  0  0  0  0
   14.3215   -7.6439    0.0000 C   0  0  0  0  0  0  0  0  0  0  0  0
   13.6092   -7.2276    0.0000 O   0  0  0  0  0  0  0  0  0  0  0  0
   13.6005   -8.8776    0.0000 O   0  0  0  0  0  0  0  0  0  0  0  0
   11.4593   -8.4537    0.0000 C   0  0  0  0  0  0  0  0  0  0  0  0
   12.1715   -8.8700    0.0000 C   0  0  0  0  0  0  0  0  0  0  0  0
   12.8882   -8.4613    0.0000 C   0  0  0  0  0  0  0  0  0  0  0  0
   12.8926   -7.6363    0.0000 C   0  0  0  0  0  0  0  0  0  0  0  0
   12.1803   -7.2200    0.0000 C   0  0  0  0  0  0  0  0  0  0  0  0
    5.7501   -7.6021    0.0000 O   0  0  0  0  0  0  0  0  0  0  0  0
    7.8804   -9.6722    0.0000 O   0  0  0  0  0  0  0  0  0  0  0  0
    7.1637  -10.0809    0.0000 C   0  0  2  0  0  0  0  0  0  0  0  0
    6.4515   -9.6646    0.0000 O   0  0  0  0  0  0  0  0  0  0  0  0
    5.7348  -10.0733    0.0000 C   0  0  2  0  0  0  0  0  0  0  0  0
    5.7304  -10.8983    0.0000 C   0  0  1  0  0  0  0  0  0  0  0  0
    6.4427  -11.3146    0.0000 C   0  0  2  0  0  0  0  0  0  0  0  0
    7.1594  -10.9059    0.0000 C   0  0  1  0  0  0  0  0  0  0  0  0
    7.8716  -11.3222    0.0000 O   0  0  0  0  0  0  0  0  0  0  0  0
    5.0225   -9.6570    0.0000 C   0  0  0  0  0  0  0  0  0  0  0  0
    6.4383  -12.1396    0.0000 O   0  0  0  0  0  0  0  0  0  0  0  0
    5.0138  -11.3070    0.0000 O   0  0  0  0  0  0  0  0  0  0  0  0
   11.4636   -7.6287    0.0000 C   0  0  0  0  0  0  0  0  0  0  0  0
    6.4646   -7.1896    0.0000 C   0  0  0  0  0  0  0  0  0  0  0  0
    9.3137   -8.8548    0.0000 O   0  0  0  0  0  0  0  0  0  0  0  0
    7.8848   -8.8472    0.0000 C   0  0  2  0  0  0  0  0  0  0  0  0
    8.6014   -8.4385    0.0000 C   0  0  2  0  0  0  0  0  0  0  0  0
    8.6058   -7.6135    0.0000 C   0  0  1  0  0  0  0  0  0  0  0  0
    7.8935   -7.1972    0.0000 O   0  0  0  0  0  0  0  0  0  0  0  0
    7.1769   -7.6059    0.0000 C   0  0  1  0  0  0  0  0  0  0  0  0
    7.1725   -8.4309    0.0000 C   0  0  1  0  0  0  0  0  0  0  0  0
    6.4559   -8.8396    0.0000 O   0  0  0  0  0  0  0  0  0  0  0  0
    5.0357   -7.1896    0.0000 C   0  0  0  0  0  0  0  0  0  0  0  0
    4.3212   -7.6021    0.0000 C   0  0  0  0  0  0  0  0  0  0  0  0
    5.0357   -6.3646    0.0000 O   0  0  0  0  0  0  0  0  0  0  0  0
    3.6067   -7.1896    0.0000 C   0  0  0  0  0  0  0  0  0  0  0  0
    2.8923   -7.6021    0.0000 C   0  0  0  0  0  0  0  0  0  0  0  0
    2.1778   -7.1896    0.0000 C   0  0  0  0  0  0  0  0  0  0  0  0
    1.4633   -7.6021    0.0000 C   0  0  0  0  0  0  0  0  0  0  0  0
    1.4633   -8.4271    0.0000 C   0  0  0  0  0  0  0  0  0  0  0  0
    2.1778   -8.8396    0.0000 C   0  0  0  0  0  0  0  0  0  0  0  0
    2.8923   -8.4271    0.0000 C   0  0  0  0  0  0  0  0  0  0  0  0
    0.7488   -8.8396    0.0000 O   0  0  0  0  0  0  0  0  0  0  0  0
  1  2  1  0  0  0  0
  2  3  1  0  0  0  0
  5  4  1  0  0  0  0
  3 24  1  0  0  0  0
 10  5  1  0  0  0  0
  9  6  1  0  0  0  0
  7 24  1  0  0  0  0
  8  7  2  0  0  0  0
  9  8  1  0  0  0  0
 10  9  2  0  0  0  0
 11 10  1  0  0  0  0
 24 11  2  0  0  0  0
 25 12  1  0  0  0  0
 14 13  1  1  0  0  0
 14 15  1  0  0  0  0
 15 16  1  0  0  0  0
 16 17  1  0  0  0  0
 17 18  1  0  0  0  0
 18 19  1  0  0  0  0
 19 14  1  0  0  0  0
 19 20  1  6  0  0  0
 16 21  1  6  0  0  0
 18 22  1  6  0  0  0
 27 13  1  1  0  0  0
 17 23  1  1  0  0  0
 29  1  1  1  0  0  0
 31 25  1  1  0  0  0
 28 26  1  6  0  0  0
 27 32  1  0  0  0  0
 28 27  1  0  0  0  0
 29 28  1  0  0  0  0
 30 29  1  0  0  0  0
 31 30  1  0  0  0  0
 32 31  1  0  0  0  0
 32 33  1  6  0  0  0
 12 34  1  0  0  0  0
 34 35  1  0  0  0  0
 34 36  2  0  0  0  0
 35 37  2  0  0  0  0
 37 38  1  0  0  0  0
 38 39  2  0  0  0  0
 39 40  1  0  0  0  0
 40 41  2  0  0  0  0
 41 42  1  0  0  0  0
 42 43  2  0  0  0  0
 43 38  1  0  0  0  0
 41 44  1  0  0  0  0
M  END
>  <cdx:fragmentId>
5

$$$$
