91126.cdx
  Mrv1902 05222410272D          

 26 28  0  0  0  0            999 V2000
    6.5341  -10.1274    0.0000 O   0  0  0  0  0  0  0  0  0  0  0  0
    7.2485   -7.2399    0.0000 C   0  0  0  0  0  0  0  0  0  0  0  0
    7.2485   -6.4149    0.0000 C   0  0  0  0  0  0  0  0  0  0  0  0
    6.5341   -6.0024    0.0000 C   0  0  0  0  0  0  0  0  0  0  0  0
    5.8196   -6.4149    0.0000 C   0  0  0  0  0  0  0  0  0  0  0  0
    5.8196   -7.2399    0.0000 C   0  0  0  0  0  0  0  0  0  0  0  0
    6.5341   -7.6524    0.0000 C   0  0  0  0  0  0  0  0  0  0  0  0
    5.1051   -6.0024    0.0000 O   0  0  0  0  0  0  0  0  0  0  0  0
    4.3906   -6.4149    0.0000 C   0  0  0  0  0  0  0  0  0  0  0  0
    4.3906   -7.2399    0.0000 C   0  0  0  0  0  0  0  0  0  0  0  0
    5.1051   -7.6524    0.0000 C   0  0  0  0  0  0  0  0  0  0  0  0
    7.2485   -9.7149    0.0000 C   0  0  2  0  0  0  0  0  0  0  0  0
    7.2485   -8.8899    0.0000 C   0  0  0  0  0  0  0  0  0  0  0  0
    7.9630  -10.9524    0.0000 C   0  0  0  0  0  0  0  0  0  0  0  0
    7.9630  -10.1274    0.0000 C   0  0  0  0  0  0  0  0  0  0  0  0
    8.6775   -9.7149    0.0000 C   0  0  0  0  0  0  0  0  0  0  0  0
    8.0331   -7.4948    0.0000 C   0  0  0  0  0  0  0  0  0  0  0  0
    8.5181   -6.8274    0.0000 C   0  0  0  0  0  0  0  0  0  0  0  0
    8.0331   -6.1599    0.0000 O   0  0  0  0  0  0  0  0  0  0  0  0
    3.6762   -6.0024    0.0000 O   0  0  0  0  0  0  0  0  0  0  0  0
    8.6775  -10.5399    0.0000 O   0  0  0  0  0  0  0  0  0  0  0  0
    8.6775  -11.3649    0.0000 C   0  0  0  0  0  0  0  0  0  0  0  0
    9.3919  -11.7774    0.0000 C   0  0  0  0  0  0  0  0  0  0  0  0
    9.3919  -12.6024    0.0000 C   0  0  0  0  0  0  0  0  0  0  0  0
    6.5341   -8.4774    0.0000 O   0  0  0  0  0  0  0  0  0  0  0  0
   10.1064  -13.0149    0.0000 C   0  0  0  0  0  0  0  0  0  0  0  0
 12  1  1  6  0  0  0
  2  3  1  0  0  0  0
  3  4  2  0  0  0  0
  4  5  1  0  0  0  0
  5  6  2  0  0  0  0
  6  7  1  0  0  0  0
  7  2  2  0  0  0  0
  5  8  1  0  0  0  0
  8  9  1  0  0  0  0
  9 10  1  0  0  0  0
 10 11  2  0  0  0  0
 11  6  1  0  0  0  0
 12 13  1  0  0  0  0
 25  7  1  0  0  0  0
 14 15  1  0  0  0  0
 15 12  1  0  0  0  0
 15 16  1  0  0  0  0
  2 17  1  0  0  0  0
 17 18  2  0  0  0  0
 18 19  1  0  0  0  0
 19  3  1  0  0  0  0
  9 20  2  0  0  0  0
 15 21  1  0  0  0  0
 21 22  1  0  0  0  0
 22 23  1  0  0  0  0
 13 25  1  0  0  0  0
 23 24  1  0  0  0  0
 24 26  1  0  0  0  0
M  END
>  <cdx:fragmentId>
5

$$$$
