91121.cdx
  Mrv1902 05222410262D          

 25 29  0  0  0  0            999 V2000
    4.7709   -6.8912    0.0000 C   0  0  0  0  0  0  0  0  0  0  0  0
    5.4852   -7.3041    0.0000 O   0  0  0  0  0  0  0  0  0  0  0  0
    3.3411   -8.5404    0.0000 C   0  0  0  0  0  0  0  0  0  0  0  0
    4.0558   -8.1283    0.0000 O   0  0  0  0  0  0  0  0  0  0  0  0
    9.0564   -9.3686    0.0000 C   0  0  0  0  0  0  0  0  0  0  0  0
    9.0554  -11.0186    0.0000 C   0  0  0  0  0  0  0  0  0  0  0  0
    9.7706   -9.7815    0.0000 C   0  0  0  0  0  0  0  0  0  0  0  0
    9.7701  -10.6065    0.0000 C   0  0  0  0  0  0  0  0  0  0  0  0
   10.5546  -10.8619    0.0000 O   0  0  0  0  0  0  0  0  0  0  0  0
   11.0399  -10.1948    0.0000 C   0  0  0  0  0  0  0  0  0  0  0  0
   10.5554   -9.5270    0.0000 O   0  0  0  0  0  0  0  0  0  0  0  0
    6.9127   -9.7799    0.0000 C   0  0  0  0  0  0  0  0  0  0  0  0
    6.1985   -9.3670    0.0000 C   0  0  0  0  0  0  0  0  0  0  0  0
    5.4838   -9.7791    0.0000 C   0  0  0  0  0  0  0  0  0  0  0  0
    4.7695   -9.3662    0.0000 C   0  0  0  0  0  0  0  0  0  0  0  0
    4.7700   -8.5412    0.0000 C   0  0  0  0  0  0  0  0  0  0  0  0
    5.4847   -8.1291    0.0000 C   0  0  0  0  0  0  0  0  0  0  0  0
    6.1990   -8.5420    0.0000 C   0  0  0  0  0  0  0  0  0  0  0  0
    6.9137   -8.1299    0.0000 C   0  0  0  0  0  0  0  0  0  0  0  0
    7.6279   -8.5428    0.0000 N   0  0  0  0  0  0  0  0  0  0  0  0
    7.6274   -9.3678    0.0000 C   0  0  0  0  0  0  0  0  0  0  0  0
    8.3417   -9.7807    0.0000 C   0  0  0  0  0  0  0  0  0  0  0  0
    8.3412  -10.6057    0.0000 C   0  0  0  0  0  0  0  0  0  0  0  0
    7.6265  -11.0178    0.0000 C   0  0  0  0  0  0  0  0  0  0  0  0
    6.9123  -10.6049    0.0000 C   0  0  0  0  0  0  0  0  0  0  0  0
 17  2  1  0  0  0  0
  2  1  1  0  0  0  0
 16  4  1  0  0  0  0
  4  3  1  0  0  0  0
  5 22  2  0  0  0  0
  6 23  2  0  0  0  0
  6  8  1  0  0  0  0
  5  7  1  0  0  0  0
 11  7  1  0  0  0  0
  8  7  2  0  0  0  0
  9  8  1  0  0  0  0
 10  9  1  0  0  0  0
 11 10  1  0  0  0  0
 25 12  1  0  0  0  0
 21 12  1  0  0  0  0
 13 12  2  0  0  0  0
 18 13  1  0  0  0  0
 14 13  1  0  0  0  0
 15 14  2  0  0  0  0
 16 15  1  0  0  0  0
 17 16  2  0  0  0  0
 18 17  1  0  0  0  0
 19 18  2  0  0  0  0
 20 19  1  0  0  0  0
 21 20  2  0  0  0  0
 22 21  1  0  0  0  0
 23 22  1  0  0  0  0
 24 23  1  0  0  0  0
 25 24  2  0  0  0  0
M  END
>  <cdx:fragmentId>
5

$$$$
