91123.cdx
  Mrv1902 05222410272D          

 22 24  0  0  0  0            999 V2000
    6.7380   -6.4350    0.0000 C   0  0  0  0  0  0  0  0  0  0  0  0
    6.7380   -7.2600    0.0000 C   0  0  1  0  0  0  0  0  0  0  0  0
    7.4525   -7.6725    0.0000 C   0  0  2  0  0  0  0  0  0  0  0  0
    8.1670   -7.2600    0.0000 C   0  0  1  0  0  0  0  0  0  0  0  0
    8.1670   -6.4350    0.0000 C   0  0  1  0  0  0  0  0  0  0  0  0
    7.4525   -6.0225    0.0000 C   0  0  2  0  0  0  0  0  0  0  0  0
    8.7801   -5.8830    0.0000 C   0  0  0  0  0  0  0  0  0  0  0  0
    8.4445   -5.1293    0.0000 C   0  0  0  0  0  0  0  0  0  0  0  0
    7.6240   -5.2155    0.0000 C   0  0  2  0  0  0  0  0  0  0  0  0
    7.0720   -4.6024    0.0000 C   0  0  0  0  0  0  0  0  0  0  0  0
    7.3269   -3.8178    0.0000 N   0  0  0  0  0  0  0  0  0  0  0  0
    6.7749   -3.2047    0.0000 C   0  0  0  0  0  0  0  0  0  0  0  0
    8.1339   -3.6463    0.0000 C   0  0  0  0  0  0  0  0  0  0  0  0
    6.7380   -5.6100    0.0000 C   0  0  0  0  0  0  0  0  0  0  0  0
    8.8814   -6.8475    0.0000 H   0  0  0  0  0  0  0  0  0  0  0  0
    6.0236   -6.0225    0.0000 O   0  0  0  0  0  0  0  0  0  0  0  0
    6.7380   -8.0850    0.0000 O   0  0  0  0  0  0  0  0  0  0  0  0
    8.1670   -8.0850    0.0000 C   0  0  0  0  0  0  0  0  0  0  0  0
    7.4525   -8.4975    0.0000 C   0  0  0  0  0  0  0  0  0  0  0  0
    8.1670   -8.9100    0.0000 C   0  0  0  0  0  0  0  0  0  0  0  0
    6.7380   -8.9100    0.0000 C   0  0  0  0  0  0  0  0  0  0  0  0
    8.7503   -8.6684    0.0000 O   0  0  0  0  0  0  0  0  0  0  0  0
  1  2  1  0  0  0  0
  2  3  1  0  0  0  0
  3  4  1  0  0  0  0
  4  5  1  0  0  0  0
  5  6  1  0  0  0  0
  6  1  1  0  0  0  0
  5  7  1  0  0  0  0
  7  8  1  0  0  0  0
  8  9  1  0  0  0  0
  9  6  1  0  0  0  0
  9 10  1  1  0  0  0
 10 11  1  0  0  0  0
 11 12  1  0  0  0  0
 11 13  1  0  0  0  0
  6 14  1  6  0  0  0
  5 15  1  6  0  0  0
  1 16  2  0  0  0  0
  2 17  1  1  0  0  0
  4 18  1  1  0  0  0
  3 19  1  6  0  0  0
 19 20  1  0  0  0  0
 19 21  1  0  0  0  0
 17 18  1  0  0  0  0
 18 22  2  0  0  0  0
M  END
>  <cdx:fragmentId>
2241

$$$$
