91122.cdx
  Mrv1902 05222410262D          

 24 27  0  0  0  0            999 V2000
    4.3568   -7.6851    0.0000 C   0  0  0  0  0  0  0  0  0  0  0  0
    4.3568   -8.5101    0.0000 C   0  0  0  0  0  0  0  0  0  0  0  0
    5.0713   -8.9226    0.0000 C   0  0  0  0  0  0  0  0  0  0  0  0
    5.7857   -8.5101    0.0000 C   0  0  0  0  0  0  0  0  0  0  0  0
    5.7857   -7.6851    0.0000 C   0  0  0  0  0  0  0  0  0  0  0  0
    5.0713   -7.2726    0.0000 C   0  0  0  0  0  0  0  0  0  0  0  0
    6.5002   -8.9226    0.0000 C   0  0  1  0  0  0  0  0  0  0  0  0
    7.2147   -8.5101    0.0000 C   0  0  0  0  0  0  0  0  0  0  0  0
    7.2147   -7.6851    0.0000 C   0  0  2  0  0  0  0  0  0  0  0  0
    6.5002   -7.2726    0.0000 C   0  0  0  0  0  0  0  0  0  0  0  0
    6.5002   -9.7476    0.0000 C   0  0  0  0  0  0  0  0  0  0  0  0
    7.2147  -10.1601    0.0000 C   0  0  0  0  0  0  0  0  0  0  0  0
    7.9292   -9.7476    0.0000 C   0  0  0  0  0  0  0  0  0  0  0  0
    7.9292   -8.9226    0.0000 C   0  0  0  0  0  0  0  0  0  0  0  0
    3.6423   -8.9226    0.0000 O   0  0  0  0  0  0  0  0  0  0  0  0
    5.0713   -9.7476    0.0000 O   0  0  0  0  0  0  0  0  0  0  0  0
    7.2147  -10.9851    0.0000 O   0  0  0  0  0  0  0  0  0  0  0  0
    7.9292  -11.3976    0.0000 C   0  0  0  0  0  0  0  0  0  0  0  0
    8.6436  -10.1601    0.0000 O   0  0  0  0  0  0  0  0  0  0  0  0
    2.9279   -8.5101    0.0000 C   0  0  0  0  0  0  0  0  0  0  0  0
    6.2867   -8.5658    0.0000 C   0  0  0  0  0  0  0  0  0  0  0  0
    6.3004   -7.8508    0.0000 C   0  0  0  0  0  0  0  0  0  0  0  0
    6.7346   -7.6386    0.0000 N   0  0  0  0  0  0  0  0  0  0  0  0
    7.9292   -7.2726    0.0000 H   0  0  0  0  0  0  0  0  0  0  0  0
  1  2  1  0  0  0  0
  2  3  2  0  0  0  0
  3  4  1  0  0  0  0
  4  5  2  0  0  0  0
  5  6  1  0  0  0  0
  6  1  2  0  0  0  0
  4  7  1  0  0  0  0
  7  8  1  0  0  0  0
  8  9  1  0  0  0  0
  9 10  1  0  0  0  0
 10  5  1  0  0  0  0
  7 11  1  1  0  0  0
 11 12  2  0  0  0  0
 12 13  1  0  0  0  0
 13 14  1  0  0  0  0
 14  8  2  0  0  0  0
  2 15  1  0  0  0  0
 16  3  1  0  0  0  0
 12 17  1  0  0  0  0
 17 18  1  0  0  0  0
 19 13  2  0  0  0  0
 15 20  1  0  0  0  0
  7 21  1  0  0  0  0
 21 22  1  0  0  0  0
 22 23  1  0  0  0  0
 23  9  1  0  0  0  0
  9 24  1  1  0  0  0
M  END
>  <cdx:fragmentId>
5

$$$$
