9113.cdx
  Mrv1902 05222410232D          

 59 63  0  0  0  0            999 V2000
   15.8125   -7.9473    0.0000 O   0  0  0  0  0  0  0  0  0  0  0  0
   16.5247   -8.3636    0.0000 C   0  0  0  0  0  0  0  0  0  0  0  0
   17.2414   -7.9549    0.0000 C   0  0  0  0  0  0  0  0  0  0  0  0
   20.8115   -8.3864    0.0000 C   0  0  0  0  0  0  0  0  0  0  0  0
   20.0992   -7.9701    0.0000 O   0  0  0  0  0  0  0  0  0  0  0  0
   20.0905   -9.6201    0.0000 O   0  0  0  0  0  0  0  0  0  0  0  0
   17.9493   -9.1962    0.0000 C   0  0  0  0  0  0  0  0  0  0  0  0
   18.6615   -9.6125    0.0000 C   0  0  0  0  0  0  0  0  0  0  0  0
   19.3782   -9.2038    0.0000 C   0  0  0  0  0  0  0  0  0  0  0  0
   19.3826   -8.3788    0.0000 C   0  0  0  0  0  0  0  0  0  0  0  0
   18.6703   -7.9625    0.0000 C   0  0  0  0  0  0  0  0  0  0  0  0
   12.2401   -8.3446    0.0000 O   0  0  0  0  0  0  0  0  0  0  0  0
   14.3704  -10.4147    0.0000 O   0  0  0  0  0  0  0  0  0  0  0  0
   13.6537  -10.8234    0.0000 C   0  0  2  0  0  0  0  0  0  0  0  0
   12.9415  -10.4071    0.0000 O   0  0  0  0  0  0  0  0  0  0  0  0
   12.2248  -10.8158    0.0000 C   0  0  2  0  0  0  0  0  0  0  0  0
   12.2204  -11.6408    0.0000 C   0  0  1  0  0  0  0  0  0  0  0  0
   12.9327  -12.0571    0.0000 C   0  0  2  0  0  0  0  0  0  0  0  0
   13.6494  -11.6484    0.0000 C   0  0  1  0  0  0  0  0  0  0  0  0
   14.3616  -12.0647    0.0000 O   0  0  0  0  0  0  0  0  0  0  0  0
   11.5125  -10.3995    0.0000 C   0  0  0  0  0  0  0  0  0  0  0  0
   12.9283  -12.8821    0.0000 O   0  0  0  0  0  0  0  0  0  0  0  0
   11.5038  -12.0495    0.0000 O   0  0  0  0  0  0  0  0  0  0  0  0
   17.9536   -8.3712    0.0000 C   0  0  0  0  0  0  0  0  0  0  0  0
   12.9546   -7.9321    0.0000 C   0  0  0  0  0  0  0  0  0  0  0  0
   15.8037   -9.5973    0.0000 O   0  0  0  0  0  0  0  0  0  0  0  0
   14.3748   -9.5897    0.0000 C   0  0  2  0  0  0  0  0  0  0  0  0
   15.0914   -9.1810    0.0000 C   0  0  2  0  0  0  0  0  0  0  0  0
   15.0958   -8.3560    0.0000 C   0  0  1  0  0  0  0  0  0  0  0  0
   14.3835   -7.9397    0.0000 O   0  0  0  0  0  0  0  0  0  0  0  0
   13.6669   -8.3484    0.0000 C   0  0  1  0  0  0  0  0  0  0  0  0
   13.6625   -9.1734    0.0000 C   0  0  1  0  0  0  0  0  0  0  0  0
   12.9459   -9.5821    0.0000 O   0  0  0  0  0  0  0  0  0  0  0  0
   11.5257   -7.9321    0.0000 C   0  0  0  0  0  0  0  0  0  0  0  0
   10.8112   -8.3446    0.0000 C   0  0  0  0  0  0  0  0  0  0  0  0
   11.5257   -7.1071    0.0000 O   0  0  0  0  0  0  0  0  0  0  0  0
   10.0967   -7.9321    0.0000 C   0  0  0  0  0  0  0  0  0  0  0  0
    9.3823   -8.3446    0.0000 C   0  0  0  0  0  0  0  0  0  0  0  0
    8.6678   -7.9321    0.0000 C   0  0  0  0  0  0  0  0  0  0  0  0
    7.9533   -8.3446    0.0000 C   0  0  0  0  0  0  0  0  0  0  0  0
    7.9533   -9.1696    0.0000 C   0  0  0  0  0  0  0  0  0  0  0  0
    8.6678   -9.5821    0.0000 C   0  0  0  0  0  0  0  0  0  0  0  0
    9.3823   -9.1696    0.0000 C   0  0  0  0  0  0  0  0  0  0  0  0
    7.2388   -9.5821    0.0000 O   0  0  0  0  0  0  0  0  0  0  0  0
   15.7993  -10.4223    0.0000 C   0  0  0  0  0  0  0  0  0  0  0  0
   16.5116  -10.8386    0.0000 O   0  0  0  0  0  0  0  0  0  0  0  0
   15.0827  -10.8310    0.0000 C   0  0  0  0  0  0  0  0  0  0  0  0
    7.2388   -7.9321    0.0000 O   0  0  0  0  0  0  0  0  0  0  0  0
    7.2298   -7.1072    0.0000 C   0  0  2  0  0  0  0  0  0  0  0  0
    7.9397   -6.6869    0.0000 O   0  0  0  0  0  0  0  0  0  0  0  0
    7.9306   -5.8619    0.0000 C   0  0  1  0  0  0  0  0  0  0  0  0
    7.2117   -5.4573    0.0000 C   0  0  2  0  0  0  0  0  0  0  0  0
    6.5018   -5.8776    0.0000 C   0  0  1  0  0  0  0  0  0  0  0  0
    6.5108   -6.7026    0.0000 C   0  0  1  0  0  0  0  0  0  0  0  0
    8.6405   -5.4416    0.0000 C   0  0  0  0  0  0  0  0  0  0  0  0
    5.7828   -5.4730    0.0000 O   0  0  0  0  0  0  0  0  0  0  0  0
    7.2026   -4.6323    0.0000 O   0  0  0  0  0  0  0  0  0  0  0  0
    5.8009   -7.1229    0.0000 O   0  0  0  0  0  0  0  0  0  0  0  0
    8.6314   -4.6166    0.0000 O   0  0  0  0  0  0  0  0  0  0  0  0
  1  2  1  0  0  0  0
  2  3  1  0  0  0  0
  5  4  1  0  0  0  0
  3 24  1  0  0  0  0
 10  5  1  0  0  0  0
  9  6  1  0  0  0  0
  7 24  1  0  0  0  0
  8  7  2  0  0  0  0
  9  8  1  0  0  0  0
 10  9  2  0  0  0  0
 11 10  1  0  0  0  0
 24 11  2  0  0  0  0
 25 12  1  0  0  0  0
 14 13  1  1  0  0  0
 14 15  1  0  0  0  0
 15 16  1  0  0  0  0
 16 17  1  0  0  0  0
 17 18  1  0  0  0  0
 18 19  1  0  0  0  0
 19 14  1  0  0  0  0
 19 20  1  6  0  0  0
 16 21  1  6  0  0  0
 18 22  1  6  0  0  0
 27 13  1  1  0  0  0
 17 23  1  1  0  0  0
 29  1  1  1  0  0  0
 31 25  1  1  0  0  0
 28 26  1  6  0  0  0
 27 32  1  0  0  0  0
 28 27  1  0  0  0  0
 29 28  1  0  0  0  0
 30 29  1  0  0  0  0
 31 30  1  0  0  0  0
 32 31  1  0  0  0  0
 32 33  1  6  0  0  0
 12 34  1  0  0  0  0
 34 35  1  0  0  0  0
 34 36  2  0  0  0  0
 35 37  2  0  0  0  0
 37 38  1  0  0  0  0
 38 39  2  0  0  0  0
 39 40  1  0  0  0  0
 40 41  2  0  0  0  0
 41 42  1  0  0  0  0
 42 43  2  0  0  0  0
 43 38  1  0  0  0  0
 41 44  1  0  0  0  0
 26 45  1  0  0  0  0
 45 46  2  0  0  0  0
 45 47  1  0  0  0  0
 40 48  1  0  0  0  0
 49 48  1  1  0  0  0
 49 50  1  0  0  0  0
 50 51  1  0  0  0  0
 51 52  1  0  0  0  0
 52 53  1  0  0  0  0
 53 54  1  0  0  0  0
 54 49  1  0  0  0  0
 51 55  1  1  0  0  0
 53 56  1  1  0  0  0
 52 57  1  6  0  0  0
 54 58  1  6  0  0  0
 55 59  1  0  0  0  0
M  END
>  <cdx:fragmentId>
5

$$$$
