911308.cdx
  Mrv1902 05222410182D          

 27 30  0  0  0  0            999 V2000
    3.2208   -6.1463    0.0000 C   0  0  0  0  0  0  0  0  0  0  0  0
    3.2208   -6.9712    0.0000 C   0  0  0  0  0  0  0  0  0  0  0  0
    3.9352   -7.3838    0.0000 C   0  0  0  0  0  0  0  0  0  0  0  0
    4.6497   -6.9712    0.0000 C   0  0  0  0  0  0  0  0  0  0  0  0
    4.6497   -6.1463    0.0000 C   0  0  0  0  0  0  0  0  0  0  0  0
    3.9352   -5.7338    0.0000 C   0  0  0  0  0  0  0  0  0  0  0  0
    5.3642   -7.3838    0.0000 C   0  0  0  0  0  0  0  0  0  0  0  0
    6.0787   -6.9712    0.0000 C   0  0  0  0  0  0  0  0  0  0  0  0
    6.0787   -6.1463    0.0000 C   0  0  0  0  0  0  0  0  0  0  0  0
    5.3642   -5.7338    0.0000 O   0  0  0  0  0  0  0  0  0  0  0  0
    6.7931   -7.3838    0.0000 C   0  0  0  0  0  0  0  0  0  0  0  0
    7.5076   -6.9712    0.0000 C   0  0  0  0  0  0  0  0  0  0  0  0
    6.7931   -8.2088    0.0000 C   0  0  0  0  0  0  0  0  0  0  0  0
    7.5076   -8.6212    0.0000 C   0  0  0  0  0  0  0  0  0  0  0  0
    8.2221   -8.2088    0.0000 C   0  0  0  0  0  0  0  0  0  0  0  0
    8.2221   -7.3838    0.0000 C   0  0  0  0  0  0  0  0  0  0  0  0
    8.9365   -8.6212    0.0000 O   0  0  0  0  0  0  0  0  0  0  0  0
    9.6510   -8.2088    0.0000 C   0  0  0  0  0  0  0  0  0  0  0  0
    9.6510   -7.3838    0.0000 C   0  0  0  0  0  0  0  0  0  0  0  0
    8.9365   -6.9712    0.0000 C   0  0  0  0  0  0  0  0  0  0  0  0
    2.5063   -5.7338    0.0000 O   0  0  0  0  0  0  0  0  0  0  0  0
    3.9352   -8.2088    0.0000 O   0  0  0  0  0  0  0  0  0  0  0  0
    5.3642   -8.2088    0.0000 O   0  0  0  0  0  0  0  0  0  0  0  0
    7.5076   -9.4462    0.0000 O   0  0  0  0  0  0  0  0  0  0  0  0
   10.3655   -7.7963    0.0000 C   0  0  0  0  0  0  0  0  0  0  0  0
   10.2344   -8.7921    0.0000 C   0  0  0  0  0  0  0  0  0  0  0  0
    4.6497   -8.6212    0.0000 C   0  0  0  0  0  0  0  0  0  0  0  0
  1  2  2  0  0  0  0
  2  3  1  0  0  0  0
  3  4  2  0  0  0  0
  4  5  1  0  0  0  0
  5  6  2  0  0  0  0
  6  1  1  0  0  0  0
  4  7  1  0  0  0  0
  7  8  1  0  0  0  0
  8  9  2  0  0  0  0
  9 10  1  0  0  0  0
 10  5  1  0  0  0  0
  8 11  1  0  0  0  0
 11 12  1  0  0  0  0
 11 13  2  0  0  0  0
 13 14  1  0  0  0  0
 14 15  2  0  0  0  0
 15 16  1  0  0  0  0
 16 12  2  0  0  0  0
 15 17  1  0  0  0  0
 17 18  1  0  0  0  0
 18 19  1  0  0  0  0
 19 20  2  0  0  0  0
 20 16  1  0  0  0  0
  1 21  1  0  0  0  0
  3 22  1  0  0  0  0
  7 23  2  0  0  0  0
 14 24  1  0  0  0  0
 18 25  1  0  0  0  0
 18 26  1  0  0  0  0
 22 27  1  0  0  0  0
M  END
>  <cdx:fragmentId>
5

$$$$
