91130.cdx
  Mrv1902 05222410282D          

 44 49  0  0  0  0            999 V2000
    4.9893   -4.2751    0.0000 C   0  0  0  0  0  0  0  0  0  0  0  0
    4.9893   -5.1001    0.0000 C   0  0  0  0  0  0  0  0  0  0  0  0
    5.7038   -5.5126    0.0000 C   0  0  0  0  0  0  0  0  0  0  0  0
    6.4182   -5.1001    0.0000 C   0  0  0  0  0  0  0  0  0  0  0  0
    6.4182   -4.2751    0.0000 C   0  0  0  0  0  0  0  0  0  0  0  0
    5.7038   -3.8626    0.0000 C   0  0  0  0  0  0  0  0  0  0  0  0
    7.1327   -5.5126    0.0000 C   0  0  2  0  0  0  0  0  0  0  0  0
    7.8472   -5.1001    0.0000 N   0  0  0  0  0  0  0  0  0  0  0  0
    7.8472   -4.2751    0.0000 C   0  0  0  0  0  0  0  0  0  0  0  0
    7.1327   -3.8626    0.0000 C   0  0  0  0  0  0  0  0  0  0  0  0
    7.1327   -6.3376    0.0000 C   0  0  0  0  0  0  0  0  0  0  0  0
    7.8472   -6.7501    0.0000 C   0  0  0  0  0  0  0  0  0  0  0  0
    8.5617   -6.3376    0.0000 C   0  0  0  0  0  0  0  0  0  0  0  0
    8.5617   -5.5126    0.0000 C   0  0  0  0  0  0  0  0  0  0  0  0
    7.8472   -7.5751    0.0000 C   0  0  0  0  0  0  0  0  0  0  0  0
    8.5617   -7.9876    0.0000 C   0  0  0  0  0  0  0  0  0  0  0  0
    9.2761   -7.5751    0.0000 C   0  0  0  0  0  0  0  0  0  0  0  0
    9.2761   -6.7501    0.0000 C   0  0  0  0  0  0  0  0  0  0  0  0
    4.2748   -3.8626    0.0000 O   0  0  0  0  0  0  0  0  0  0  0  0
    4.2748   -5.5126    0.0000 O   0  0  0  0  0  0  0  0  0  0  0  0
    4.2748   -6.3376    0.0000 C   0  0  0  0  0  0  0  0  0  0  0  0
    4.9893   -6.7501    0.0000 C   0  0  0  0  0  0  0  0  0  0  0  0
    3.5604   -6.7501    0.0000 C   0  0  0  0  0  0  0  0  0  0  0  0
    3.5604   -7.5751    0.0000 C   0  0  0  0  0  0  0  0  0  0  0  0
    4.2748   -7.9876    0.0000 C   0  0  0  0  0  0  0  0  0  0  0  0
    4.9893   -7.5751    0.0000 C   0  0  0  0  0  0  0  0  0  0  0  0
    4.2748   -8.8126    0.0000 C   0  0  0  0  0  0  0  0  0  0  0  0
    4.9893   -9.2251    0.0000 N   0  0  0  0  0  0  0  0  0  0  0  0
    5.7038   -8.8126    0.0000 C   0  0  2  0  0  0  0  0  0  0  0  0
    5.7038   -7.9876    0.0000 C   0  0  0  0  0  0  0  0  0  0  0  0
    4.9893  -10.0501    0.0000 C   0  0  0  0  0  0  0  0  0  0  0  0
    5.7038  -10.4626    0.0000 C   0  0  0  0  0  0  0  0  0  0  0  0
    6.4182  -10.0501    0.0000 C   0  0  0  0  0  0  0  0  0  0  0  0
    6.4182   -9.2251    0.0000 C   0  0  0  0  0  0  0  0  0  0  0  0
    7.1327  -10.4626    0.0000 C   0  0  0  0  0  0  0  0  0  0  0  0
    7.8472  -10.0501    0.0000 C   0  0  0  0  0  0  0  0  0  0  0  0
    7.8472   -9.2251    0.0000 C   0  0  0  0  0  0  0  0  0  0  0  0
    7.1327   -8.8126    0.0000 C   0  0  0  0  0  0  0  0  0  0  0  0
    8.5617  -10.4626    0.0000 O   0  0  0  0  0  0  0  0  0  0  0  0
    8.5617   -8.8126    0.0000 O   0  0  0  0  0  0  0  0  0  0  0  0
    4.2748   -3.0376    0.0000 C   0  0  0  0  0  0  0  0  0  0  0  0
    9.9906   -7.9876    0.0000 O   0  0  0  0  0  0  0  0  0  0  0  0
    2.8459   -6.3376    0.0000 O   0  0  0  0  0  0  0  0  0  0  0  0
    9.2761   -9.2251    0.0000 C   0  0  0  0  0  0  0  0  0  0  0  0
  1  2  1  0  0  0  0
  2  3  2  0  0  0  0
  3  4  1  0  0  0  0
  4  5  2  0  0  0  0
  5  6  1  0  0  0  0
  6  1  2  0  0  0  0
  4  7  1  0  0  0  0
  7  8  1  0  0  0  0
  8  9  1  0  0  0  0
  9 10  1  0  0  0  0
 10  5  1  0  0  0  0
  7 11  1  6  0  0  0
 11 12  1  0  0  0  0
 12 13  1  0  0  0  0
 14  8  1  0  0  0  0
 12 15  2  0  0  0  0
 15 16  1  0  0  0  0
 16 17  2  0  0  0  0
 17 18  1  0  0  0  0
 18 13  2  0  0  0  0
  1 19  1  0  0  0  0
 20  2  1  0  0  0  0
 20 21  1  0  0  0  0
 21 22  1  0  0  0  0
 21 23  2  0  0  0  0
 23 24  1  0  0  0  0
 24 25  2  0  0  0  0
 25 26  1  0  0  0  0
 26 22  2  0  0  0  0
 27 28  1  0  0  0  0
 28 29  1  0  0  0  0
 29 30  1  6  0  0  0
 30 26  1  0  0  0  0
 28 31  1  0  0  0  0
 31 32  1  0  0  0  0
 32 33  1  0  0  0  0
 33 34  2  0  0  0  0
 34 29  1  0  0  0  0
 33 35  1  0  0  0  0
 35 36  2  0  0  0  0
 36 37  1  0  0  0  0
 37 38  2  0  0  0  0
 38 34  1  0  0  0  0
 36 39  1  0  0  0  0
 40 37  1  0  0  0  0
 19 41  1  0  0  0  0
 17 42  1  0  0  0  0
 23 43  1  0  0  0  0
 40 44  1  0  0  0  0
M  END
>  <cdx:fragmentId>
5

$$$$
