91134.cdx
  Mrv1902 05222410262D          

 27 30  0  0  0  0            999 V2000
   10.0924   -4.6910    0.0000 C   0  0  0  0  0  0  0  0  0  0  0  0
    9.3777   -5.1032    0.0000 O   0  0  0  0  0  0  0  0  0  0  0  0
    9.3773   -5.9282    0.0000 C   0  0  0  0  0  0  0  0  0  0  0  0
   10.0915   -6.3410    0.0000 C   0  0  0  0  0  0  0  0  0  0  0  0
   10.8062   -5.9289    0.0000 O   0  0  0  0  0  0  0  0  0  0  0  0
    8.6626   -6.3403    0.0000 C   0  0  0  0  0  0  0  0  0  0  0  0
    8.6622   -7.1653    0.0000 C   0  0  0  0  0  0  0  0  0  0  0  0
    9.3765   -7.5782    0.0000 C   0  0  0  0  0  0  0  0  0  0  0  0
   10.0911   -7.1660    0.0000 C   0  0  0  0  0  0  0  0  0  0  0  0
    7.9475   -7.5775    0.0000 C   0  0  0  0  0  0  0  0  0  0  0  0
    7.9471   -8.4025    0.0000 N   0  0  0  0  0  0  0  0  0  0  0  0
    8.6614   -8.8153    0.0000 C   0  0  0  0  0  0  0  0  0  0  0  0
    9.3760   -8.4032    0.0000 C   0  0  0  0  0  0  0  0  0  0  0  0
    7.2332   -7.1646    0.0000 C   0  0  0  0  0  0  0  0  0  0  0  0
    6.5186   -7.5768    0.0000 C   0  0  0  0  0  0  0  0  0  0  0  0
    6.5182   -8.4018    0.0000 C   0  0  0  0  0  0  0  0  0  0  0  0
    7.2324   -8.8146    0.0000 C   0  0  0  0  0  0  0  0  0  0  0  0
    5.8043   -7.1639    0.0000 C   0  0  0  0  0  0  0  0  0  0  0  0
    5.0896   -7.5761    0.0000 C   0  0  0  0  0  0  0  0  0  0  0  0
    5.0892   -8.4011    0.0000 C   0  0  0  0  0  0  0  0  0  0  0  0
    5.8035   -8.8139    0.0000 C   0  0  0  0  0  0  0  0  0  0  0  0
    4.3754   -7.1632    0.0000 O   0  0  0  0  0  0  0  0  0  0  0  0
    3.6607   -7.5753    0.0000 C   0  0  0  0  0  0  0  0  0  0  0  0
    4.3745   -8.8132    0.0000 O   0  0  0  0  0  0  0  0  0  0  0  0
   11.5205   -6.3417    0.0000 C   0  0  0  0  0  0  0  0  0  0  0  0
    4.3741   -9.6382    0.0000 C   0  0  0  0  0  0  0  0  0  0  0  0
    7.2320   -9.6396    0.0000 O   0  0  0  0  0  0  0  0  0  0  0  0
  1  2  1  0  0  0  0
  2  3  1  0  0  0  0
  3  4  2  0  0  0  0
  4  5  1  0  0  0  0
  3  6  1  0  0  0  0
  6  7  2  0  0  0  0
  7  8  1  0  0  0  0
  8  9  2  0  0  0  0
  9  4  1  0  0  0  0
  7 10  1  0  0  0  0
 10 11  1  0  0  0  0
 11 12  1  0  0  0  0
 12 13  1  0  0  0  0
 13  8  1  0  0  0  0
 10 14  2  0  0  0  0
 14 15  1  0  0  0  0
 15 16  2  0  0  0  0
 16 17  1  0  0  0  0
 17 11  1  0  0  0  0
 15 18  1  0  0  0  0
 18 19  2  0  0  0  0
 19 20  1  0  0  0  0
 20 21  2  0  0  0  0
 21 16  1  0  0  0  0
 19 22  1  0  0  0  0
 22 23  1  0  0  0  0
 24 20  1  0  0  0  0
  5 25  1  0  0  0  0
 24 26  1  0  0  0  0
 17 27  2  0  0  0  0
M  END
>  <cdx:fragmentId>
5

$$$$
