91147.cdx
  Mrv1902 05222410252D          

 18 18  0  0  0  0            999 V2000
    5.0168   -8.2901    0.0000 C   0  0  0  0  0  0  0  0  0  0  0  0
    5.0168   -9.1151    0.0000 C   0  0  0  0  0  0  0  0  0  0  0  0
    5.7313   -9.5276    0.0000 C   0  0  0  0  0  0  0  0  0  0  0  0
    6.4457   -9.1151    0.0000 C   0  0  0  0  0  0  0  0  0  0  0  0
    6.4457   -8.2901    0.0000 C   0  0  0  0  0  0  0  0  0  0  0  0
    5.7313   -7.8776    0.0000 C   0  0  0  0  0  0  0  0  0  0  0  0
    7.8747   -9.1151    0.0000 O   0  0  0  0  0  0  0  0  0  0  0  0
    7.8747   -8.2901    0.0000 C   0  0  2  0  0  0  0  0  0  0  0  0
    7.1602   -7.8776    0.0000 C   0  0  1  0  0  0  0  0  0  0  0  0
    8.5892   -7.8776    0.0000 C   0  0  0  0  0  0  0  0  0  0  0  0
    7.8747   -6.6401    0.0000 C   0  0  0  0  0  0  0  0  0  0  0  0
    7.1602   -7.0526    0.0000 O   0  0  0  0  0  0  0  0  0  0  0  0
    4.3023   -9.5276    0.0000 O   0  0  0  0  0  0  0  0  0  0  0  0
    4.3023  -10.3526    0.0000 C   0  0  0  0  0  0  0  0  0  0  0  0
    5.7313  -10.3526    0.0000 O   0  0  0  0  0  0  0  0  0  0  0  0
    5.7313   -7.0526    0.0000 O   0  0  0  0  0  0  0  0  0  0  0  0
    5.0168   -6.6401    0.0000 C   0  0  0  0  0  0  0  0  0  0  0  0
    6.4457  -10.7651    0.0000 C   0  0  0  0  0  0  0  0  0  0  0  0
  1  2  2  0  0  0  0
  2  3  1  0  0  0  0
  3  4  2  0  0  0  0
  4  5  1  0  0  0  0
  5  6  2  0  0  0  0
  6  1  1  0  0  0  0
  8  7  1  6  0  0  0
  8  9  1  0  0  0  0
  9  5  1  0  0  0  0
  8 10  1  0  0  0  0
 11 12  1  0  0  0  0
  9 12  1  6  0  0  0
  2 13  1  0  0  0  0
 13 14  1  0  0  0  0
 15  3  1  0  0  0  0
  6 16  1  0  0  0  0
 16 17  1  0  0  0  0
 15 18  1  0  0  0  0
M  END
>  <cdx:fragmentId>
5

$$$$
