91148.cdx
  Mrv1902 05222410212D          

 34 36  0  0  0  0            999 V2000
    1.6893   -9.7064    0.0000 C   0  0  0  0  0  0  0  0  0  0  0  0
    1.6893  -10.5314    0.0000 C   0  0  0  0  0  0  0  0  0  0  0  0
    2.4038  -10.9439    0.0000 C   0  0  0  0  0  0  0  0  0  0  0  0
    3.1182  -10.5314    0.0000 C   0  0  0  0  0  0  0  0  0  0  0  0
    3.1182   -9.7064    0.0000 C   0  0  0  0  0  0  0  0  0  0  0  0
    2.4038   -9.2939    0.0000 C   0  0  0  0  0  0  0  0  0  0  0  0
    4.5472   -9.7064    0.0000 C   0  0  0  0  0  0  0  0  0  0  0  0
    3.8327   -9.2939    0.0000 C   0  0  0  0  0  0  0  0  0  0  0  0
    5.9761   -9.7064    0.0000 O   0  0  0  0  0  0  0  0  0  0  0  0
    5.2617   -9.2939    0.0000 C   0  0  0  0  0  0  0  0  0  0  0  0
    6.6906  -10.9439    0.0000 O   0  0  0  0  0  0  0  0  0  0  0  0
    7.4051  -10.5314    0.0000 C   0  0  2  0  0  0  0  0  0  0  0  0
    7.4051   -9.7064    0.0000 C   0  0  1  0  0  0  0  0  0  0  0  0
    6.6906   -9.2939    0.0000 C   0  0  0  0  0  0  0  0  0  0  0  0
    8.1195  -10.9439    0.0000 C   0  0  1  0  0  0  0  0  0  0  0  0
    8.8340  -10.5314    0.0000 C   0  0  2  0  0  0  0  0  0  0  0  0
    8.8340   -9.7064    0.0000 C   0  0  1  0  0  0  0  0  0  0  0  0
    8.1195   -9.2939    0.0000 O   0  0  0  0  0  0  0  0  0  0  0  0
    9.5485  -10.9439    0.0000 O   0  0  0  0  0  0  0  0  0  0  0  0
   10.2630  -10.5314    0.0000 O   0  0  0  0  0  0  0  0  0  0  0  0
   10.2630   -9.7064    0.0000 C   0  0  1  0  0  0  0  0  0  0  0  0
    9.5485   -9.2939    0.0000 O   0  0  0  0  0  0  0  0  0  0  0  0
   11.0476  -10.7863    0.0000 C   0  0  1  0  0  0  0  0  0  0  0  0
   11.5325  -10.1189    0.0000 C   0  0  2  0  0  0  0  0  0  0  0  0
   11.0476   -9.4515    0.0000 C   0  0  2  0  0  0  0  0  0  0  0  0
    0.9748  -10.9439    0.0000 O   0  0  0  0  0  0  0  0  0  0  0  0
    5.2617   -8.4689    0.0000 O   0  0  0  0  0  0  0  0  0  0  0  0
   10.3492   -8.8859    0.0000 C   0  0  0  0  0  0  0  0  0  0  0  0
    9.6818   -8.4010    0.0000 O   0  0  0  0  0  0  0  0  0  0  0  0
   11.3025   -8.6668    0.0000 O   0  0  0  0  0  0  0  0  0  0  0  0
   12.3575  -10.1189    0.0000 O   0  0  0  0  0  0  0  0  0  0  0  0
   11.3025  -11.5710    0.0000 C   0  0  0  0  0  0  0  0  0  0  0  0
   12.0994  -11.7845    0.0000 O   0  0  0  0  0  0  0  0  0  0  0  0
    8.1195  -11.7689    0.0000 O   0  0  0  0  0  0  0  0  0  0  0  0
  1  2  2  0  0  0  0
  2  3  1  0  0  0  0
  3  4  2  0  0  0  0
  4  5  1  0  0  0  0
  5  6  2  0  0  0  0
  6  1  1  0  0  0  0
  7  8  2  0  0  0  0
  8  5  1  0  0  0  0
  9 10  1  0  0  0  0
 10  7  1  0  0  0  0
 12 11  1  6  0  0  0
 12 13  1  0  0  0  0
 13 14  1  1  0  0  0
 14  9  1  0  0  0  0
 12 15  1  0  0  0  0
 15 16  1  0  0  0  0
 16 17  1  0  0  0  0
 17 18  1  0  0  0  0
 18 13  1  0  0  0  0
 16 19  1  6  0  0  0
 20 21  1  0  0  0  0
 21 22  1  1  0  0  0
 17 22  1  1  0  0  0
 20 23  1  0  0  0  0
 23 24  1  0  0  0  0
 24 25  1  0  0  0  0
 25 21  1  0  0  0  0
  2 26  1  0  0  0  0
 10 27  2  0  0  0  0
 21 28  1  0  0  0  0
 28 29  1  0  0  0  0
 25 30  1  1  0  0  0
 24 31  1  6  0  0  0
 23 32  1  1  0  0  0
 32 33  1  0  0  0  0
 15 34  1  1  0  0  0
M  END
>  <cdx:fragmentId>
5

$$$$
