91143.cdx
  Mrv1902 05222410232D          

 35 38  0  0  0  0            999 V2000
    6.0343   -6.9564    0.0000 C   0  0  0  0  0  0  0  0  0  0  0  0
    6.0343   -7.7814    0.0000 C   0  0  0  0  0  0  0  0  0  0  0  0
    6.7488   -8.1939    0.0000 C   0  0  0  0  0  0  0  0  0  0  0  0
    7.4632   -7.7814    0.0000 C   0  0  0  0  0  0  0  0  0  0  0  0
    7.4632   -6.9564    0.0000 C   0  0  0  0  0  0  0  0  0  0  0  0
    6.7488   -6.5439    0.0000 C   0  0  0  0  0  0  0  0  0  0  0  0
    8.1777   -8.1939    0.0000 C   0  0  0  0  0  0  0  0  0  0  0  0
    8.8922   -7.7814    0.0000 C   0  0  0  0  0  0  0  0  0  0  0  0
    8.8922   -6.9564    0.0000 C   0  0  0  0  0  0  0  0  0  0  0  0
    8.1777   -6.5439    0.0000 O   0  0  0  0  0  0  0  0  0  0  0  0
    6.7488   -9.0189    0.0000 O   0  0  0  0  0  0  0  0  0  0  0  0
    8.1777   -9.0189    0.0000 O   0  0  0  0  0  0  0  0  0  0  0  0
   10.3211   -6.9564    0.0000 C   0  0  0  0  0  0  0  0  0  0  0  0
    9.6067   -6.5439    0.0000 C   0  0  0  0  0  0  0  0  0  0  0  0
   11.0356   -6.5439    0.0000 C   0  0  0  0  0  0  0  0  0  0  0  0
   11.0356   -5.7189    0.0000 C   0  0  0  0  0  0  0  0  0  0  0  0
   10.3211   -5.3064    0.0000 C   0  0  0  0  0  0  0  0  0  0  0  0
    9.6067   -5.7189    0.0000 C   0  0  0  0  0  0  0  0  0  0  0  0
    5.3198   -6.5439    0.0000 O   0  0  0  0  0  0  0  0  0  0  0  0
   11.7501   -5.3064    0.0000 O   0  0  0  0  0  0  0  0  0  0  0  0
   12.4645   -5.7189    0.0000 C   0  0  0  0  0  0  0  0  0  0  0  0
    4.6054   -6.9564    0.0000 C   0  0  2  0  0  0  0  0  0  0  0  0
    3.8909   -6.5439    0.0000 O   0  0  0  0  0  0  0  0  0  0  0  0
    3.1764   -6.9564    0.0000 C   0  0  1  0  0  0  0  0  0  0  0  0
    3.1764   -7.7814    0.0000 C   0  0  2  0  0  0  0  0  0  0  0  0
    3.8909   -8.1939    0.0000 C   0  0  1  0  0  0  0  0  0  0  0  0
    4.6054   -7.7814    0.0000 C   0  0  1  0  0  0  0  0  0  0  0  0
    2.4619   -6.5439    0.0000 C   0  0  0  0  0  0  0  0  0  0  0  0
    3.8909   -9.0189    0.0000 O   0  0  0  0  0  0  0  0  0  0  0  0
    5.3198   -8.1939    0.0000 O   0  0  0  0  0  0  0  0  0  0  0  0
    2.4619   -8.1939    0.0000 O   0  0  0  0  0  0  0  0  0  0  0  0
    1.7475   -6.9564    0.0000 O   0  0  0  0  0  0  0  0  0  0  0  0
    3.1764   -9.4314    0.0000 C   0  0  0  0  0  0  0  0  0  0  0  0
    3.1764  -10.2564    0.0000 C   0  0  0  0  0  0  0  0  0  0  0  0
    2.4619   -9.0189    0.0000 O   0  0  0  0  0  0  0  0  0  0  0  0
  1  2  2  0  0  0  0
  2  3  1  0  0  0  0
  3  4  2  0  0  0  0
  4  5  1  0  0  0  0
  5  6  2  0  0  0  0
  6  1  1  0  0  0  0
  4  7  1  0  0  0  0
  7  8  1  0  0  0  0
  8  9  2  0  0  0  0
  9 10  1  0  0  0  0
 10  5  1  0  0  0  0
  3 11  1  0  0  0  0
 12  7  2  0  0  0  0
 13 14  2  0  0  0  0
 14  9  1  0  0  0  0
 13 15  1  0  0  0  0
 15 16  2  0  0  0  0
 16 17  1  0  0  0  0
 17 18  2  0  0  0  0
 18 14  1  0  0  0  0
  1 19  1  0  0  0  0
 16 20  1  0  0  0  0
 20 21  1  0  0  0  0
 22 19  1  1  0  0  0
 22 23  1  0  0  0  0
 23 24  1  0  0  0  0
 24 25  1  0  0  0  0
 25 26  1  0  0  0  0
 26 27  1  0  0  0  0
 27 22  1  0  0  0  0
 24 28  1  1  0  0  0
 26 29  1  1  0  0  0
 27 30  1  6  0  0  0
 25 31  1  6  0  0  0
 28 32  1  0  0  0  0
 29 33  1  0  0  0  0
 33 34  1  0  0  0  0
 33 35  2  0  0  0  0
M  END
>  <cdx:fragmentId>
5

$$$$
