91140.cdx
  Mrv1902 05222410242D          

 22 24  0  0  0  0            999 V2000
    5.4843   -8.2764    0.0000 C   0  0  0  0  0  0  0  0  0  0  0  0
    5.4843   -9.1014    0.0000 C   0  0  2  0  0  0  0  0  0  0  0  0
    6.1988   -9.5139    0.0000 C   0  0  2  0  0  0  0  0  0  0  0  0
    6.9132   -9.1014    0.0000 C   0  0  0  0  0  0  0  0  0  0  0  0
    6.9132   -8.2764    0.0000 C   0  0  2  0  0  0  0  0  0  0  0  0
    6.1988   -7.8639    0.0000 C   0  0  0  0  0  0  0  0  0  0  0  0
    7.6277   -9.5139    0.0000 C   0  0  0  0  0  0  0  0  0  0  0  0
    8.3422   -9.1014    0.0000 C   0  0  0  0  0  0  0  0  0  0  0  0
    8.3422   -8.2764    0.0000 C   0  0  0  0  0  0  0  0  0  0  0  0
    7.6277   -7.8639    0.0000 C   0  0  0  0  0  0  0  0  0  0  0  0
    9.0567   -7.8639    0.0000 C   0  0  0  0  0  0  0  0  0  0  0  0
    9.0567   -7.0389    0.0000 C   0  0  2  0  0  0  0  0  0  0  0  0
    8.3422   -6.6264    0.0000 C   0  0  0  0  0  0  0  0  0  0  0  0
    7.6277   -7.0389    0.0000 C   0  0  0  0  0  0  0  0  0  0  0  0
    4.7698   -9.5139    0.0000 O   0  0  0  0  0  0  0  0  0  0  0  0
    6.6113  -10.2284    0.0000 C   0  0  0  0  0  0  0  0  0  0  0  0
    9.8535   -7.2524    0.0000 C   0  0  0  0  0  0  0  0  0  0  0  0
    5.7863  -10.2284    0.0000 C   0  0  0  0  0  0  0  0  0  0  0  0
    9.4692   -6.3244    0.0000 C   0  0  0  0  0  0  0  0  0  0  0  0
   10.4369   -6.6691    0.0000 C   0  0  0  0  0  0  0  0  0  0  0  0
    6.9132   -7.4514    0.0000 C   0  0  0  0  0  0  0  0  0  0  0  0
    6.1988  -10.9428    0.0000 O   0  0  0  0  0  0  0  0  0  0  0  0
  1  2  1  0  0  0  0
  2  3  1  0  0  0  0
  3  4  1  0  0  0  0
  4  5  1  0  0  0  0
  5  6  1  0  0  0  0
  6  1  1  0  0  0  0
  4  7  1  0  0  0  0
  7  8  1  0  0  0  0
  8  9  1  0  0  0  0
  9 10  1  0  0  0  0
 10  5  1  0  0  0  0
  9 11  2  0  0  0  0
 11 12  1  0  0  0  0
 12 13  1  0  0  0  0
 13 14  1  0  0  0  0
 14 10  1  0  0  0  0
  2 15  1  6  0  0  0
  3 16  1  6  0  0  0
 12 17  1  6  0  0  0
  3 18  1  1  0  0  0
 12 19  1  1  0  0  0
 17 20  2  0  0  0  0
  5 21  1  1  0  0  0
 18 22  1  0  0  0  0
M  END
>  <cdx:fragmentId>
5

$$$$
