91149.cdx
  Mrv1902 05222410212D          

 40 39  0  0  0  0            999 V2000
    1.2763  -13.0201    0.0000 C   0  0  0  0  0  0  0  0  0  0  0  0
    1.9907  -12.6076    0.0000 C   0  0  1  0  0  0  0  0  0  0  0  0
    2.7052  -13.0201    0.0000 C   0  0  1  0  0  0  0  0  0  0  0  0
    3.4197  -12.6076    0.0000 C   0  0  1  0  0  0  0  0  0  0  0  0
    4.1342  -13.0201    0.0000 C   0  0  0  0  0  0  0  0  0  0  0  0
    4.8486  -12.6076    0.0000 C   0  0  0  0  0  0  0  0  0  0  0  0
    5.5631  -13.0201    0.0000 C   0  0  0  0  0  0  0  0  0  0  0  0
    6.2776  -12.6076    0.0000 C   0  0  0  0  0  0  0  0  0  0  0  0
    6.9920  -13.0201    0.0000 C   0  0  0  0  0  0  0  0  0  0  0  0
    7.7065  -12.6076    0.0000 C   0  0  0  0  0  0  0  0  0  0  0  0
    8.4210  -13.0201    0.0000 C   0  0  0  0  0  0  0  0  0  0  0  0
    9.1355  -12.6076    0.0000 C   0  0  0  0  0  0  0  0  0  0  0  0
    9.8499  -13.0201    0.0000 C   0  0  0  0  0  0  0  0  0  0  0  0
   10.5644  -12.6076    0.0000 C   0  0  0  0  0  0  0  0  0  0  0  0
   11.2789  -13.0201    0.0000 C   0  0  0  0  0  0  0  0  0  0  0  0
   11.9933  -12.6076    0.0000 C   0  0  0  0  0  0  0  0  0  0  0  0
   12.7078  -13.0201    0.0000 C   0  0  0  0  0  0  0  0  0  0  0  0
   13.4223  -12.6076    0.0000 C   0  0  0  0  0  0  0  0  0  0  0  0
    2.7052  -13.8451    0.0000 O   0  0  0  0  0  0  0  0  0  0  0  0
    1.9357  -10.4214    0.0000 N   0  0  0  0  0  0  0  0  0  0  0  0
    2.6502  -10.0089    0.0000 C   0  0  0  0  0  0  0  0  0  0  0  0
    3.3647  -10.4214    0.0000 C   0  0  1  0  0  0  0  0  0  0  0  0
    2.6502   -9.1839    0.0000 O   0  0  0  0  0  0  0  0  0  0  0  0
    4.0792  -10.0089    0.0000 C   0  0  0  0  0  0  0  0  0  0  0  0
    4.7936  -10.4214    0.0000 C   0  0  0  0  0  0  0  0  0  0  0  0
    5.5081  -10.0089    0.0000 C   0  0  0  0  0  0  0  0  0  0  0  0
    6.2226  -10.4214    0.0000 C   0  0  0  0  0  0  0  0  0  0  0  0
    6.9370  -10.0089    0.0000 C   0  0  0  0  0  0  0  0  0  0  0  0
    7.6515  -10.4214    0.0000 C   0  0  0  0  0  0  0  0  0  0  0  0
    8.3660  -10.0089    0.0000 C   0  0  0  0  0  0  0  0  0  0  0  0
    9.0805  -10.4214    0.0000 C   0  0  0  0  0  0  0  0  0  0  0  0
    9.7949  -10.0089    0.0000 C   0  0  0  0  0  0  0  0  0  0  0  0
   10.5094  -10.4214    0.0000 C   0  0  0  0  0  0  0  0  0  0  0  0
   11.2239  -10.0089    0.0000 C   0  0  0  0  0  0  0  0  0  0  0  0
   11.9383  -10.4214    0.0000 C   0  0  0  0  0  0  0  0  0  0  0  0
   12.6528  -10.0089    0.0000 C   0  0  0  0  0  0  0  0  0  0  0  0
   13.3673  -10.4214    0.0000 C   0  0  0  0  0  0  0  0  0  0  0  0
    3.3647  -11.2464    0.0000 O   0  0  0  0  0  0  0  0  0  0  0  0
    3.4197  -11.7826    0.0000 O   0  0  0  0  0  0  0  0  0  0  0  0
    0.5618  -12.6076    0.0000 O   0  0  0  0  0  0  0  0  0  0  0  0
  1  2  1  0  0  0  0
  2  3  1  0  0  0  0
  3  4  1  0  0  0  0
  4  5  1  0  0  0  0
  5  6  1  0  0  0  0
  6  7  1  0  0  0  0
  7  8  1  0  0  0  0
  8  9  1  0  0  0  0
  9 10  1  0  0  0  0
 10 11  1  0  0  0  0
 11 12  1  0  0  0  0
 12 13  1  0  0  0  0
 13 14  1  0  0  0  0
 14 15  1  0  0  0  0
 15 16  1  0  0  0  0
 16 17  1  0  0  0  0
 17 18  1  0  0  0  0
  3 19  1  1  0  0  0
  2 20  1  6  0  0  0
 20 21  1  0  0  0  0
 21 22  1  0  0  0  0
 21 23  2  0  0  0  0
 22 24  1  0  0  0  0
 24 25  1  0  0  0  0
 25 26  2  0  0  0  0
 26 27  1  0  0  0  0
 27 28  1  0  0  0  0
 28 29  1  0  0  0  0
 29 30  1  0  0  0  0
 30 31  1  0  0  0  0
 31 32  1  0  0  0  0
 32 33  1  0  0  0  0
 33 34  1  0  0  0  0
 34 35  1  0  0  0  0
 35 36  1  0  0  0  0
 36 37  1  0  0  0  0
 22 38  1  1  0  0  0
  4 39  1  6  0  0  0
  1 40  1  0  0  0  0
M  END
>  <cdx:fragmentId>
3

$$$$
