91146.cdx
  Mrv1902 05222410262D          

 16 18  0  0  0  0            999 V2000
    3.4218   -9.0739    0.0000 C   0  0  0  0  0  0  0  0  0  0  0  0
    3.4218   -9.8989    0.0000 C   0  0  0  0  0  0  0  0  0  0  0  0
    4.1363  -10.3114    0.0000 C   0  0  0  0  0  0  0  0  0  0  0  0
    4.8507   -9.8989    0.0000 C   0  0  2  0  0  0  0  0  0  0  0  0
    4.8507   -9.0739    0.0000 C   0  0  0  0  0  0  0  0  0  0  0  0
    4.1363   -8.6614    0.0000 C   0  0  0  0  0  0  0  0  0  0  0  0
    5.6044   -9.4095    0.0000 C   0  0  1  0  0  0  0  0  0  0  0  0
    6.1565   -8.7964    0.0000 C   0  0  0  0  0  0  0  0  0  0  0  0
    5.7440   -8.0819    0.0000 C   0  0  0  0  0  0  0  0  0  0  0  0
    4.9370   -8.2534    0.0000 C   0  0  1  0  0  0  0  0  0  0  0  0
    2.7073  -10.3114    0.0000 C   0  0  0  0  0  0  0  0  0  0  0  0
    5.2632  -10.6134    0.0000 O   0  0  0  0  0  0  0  0  0  0  0  0
    6.1878   -9.9928    0.0000 C   0  0  0  0  0  0  0  0  0  0  0  0
    6.9847   -9.7793    0.0000 C   0  0  0  0  0  0  0  0  0  0  0  0
    6.5291  -10.7439    0.0000 C   0  0  0  0  0  0  0  0  0  0  0  0
    4.3239   -7.7014    0.0000 C   0  0  0  0  0  0  0  0  0  0  0  0
  1  2  1  0  0  0  0
  2  3  2  0  0  0  0
  3  4  1  0  0  0  0
  4  5  1  0  0  0  0
  5  6  1  0  0  0  0
  6  1  1  0  0  0  0
  5  7  1  0  0  0  0
  7  8  1  0  0  0  0
  8  9  1  0  0  0  0
  9 10  1  0  0  0  0
 10  5  1  0  0  0  0
  2 11  1  0  0  0  0
  4 12  1  6  0  0  0
  7 13  1  1  0  0  0
 13 12  1  0  0  0  0
 13 14  1  0  0  0  0
 13 15  1  0  0  0  0
 10 16  1  6  0  0  0
M  END
>  <cdx:fragmentId>
5

$$$$
