91151.cdx
  Mrv1902 05222410252D          

 38 41  0  0  0  0            999 V2000
    3.9993  -13.9414    0.0000 O   0  0  0  0  0  0  0  0  0  0  0  0
    4.7138  -15.1789    0.0000 O   0  0  0  0  0  0  0  0  0  0  0  0
    5.4282  -14.7664    0.0000 C   0  0  2  0  0  0  0  0  0  0  0  0
    5.4282  -13.9414    0.0000 C   0  0  1  0  0  0  0  0  0  0  0  0
    4.7138  -13.5289    0.0000 C   0  0  0  0  0  0  0  0  0  0  0  0
    6.1427  -15.1789    0.0000 C   0  0  1  0  0  0  0  0  0  0  0  0
    6.8572  -14.7664    0.0000 C   0  0  2  0  0  0  0  0  0  0  0  0
    6.8572  -13.9414    0.0000 C   0  0  1  0  0  0  0  0  0  0  0  0
    6.1427  -13.5289    0.0000 O   0  0  0  0  0  0  0  0  0  0  0  0
    7.5717  -13.5289    0.0000 O   0  0  0  0  0  0  0  0  0  0  0  0
    7.5717  -12.7039    0.0000 C   0  0  0  0  0  0  0  0  0  0  0  0
    6.8572  -12.2914    0.0000 C   0  0  0  0  0  0  0  0  0  0  0  0
    6.1427  -12.7039    0.0000 O   0  0  0  0  0  0  0  0  0  0  0  0
    8.2861  -12.2914    0.0000 C   0  0  0  0  0  0  0  0  0  0  0  0
    8.2861  -11.4664    0.0000 C   0  0  0  0  0  0  0  0  0  0  0  0
    7.5717  -11.0539    0.0000 C   0  0  0  0  0  0  0  0  0  0  0  0
    6.8572  -11.4664    0.0000 C   0  0  0  0  0  0  0  0  0  0  0  0
    5.4282  -12.2914    0.0000 C   0  0  0  0  0  0  0  0  0  0  0  0
    7.5717  -10.2289    0.0000 C   0  0  1  0  0  0  0  0  0  0  0  0
    8.2391   -9.7440    0.0000 C   0  0  1  0  0  0  0  0  0  0  0  0
    7.9842   -8.9594    0.0000 C   0  0  0  0  0  0  0  0  0  0  0  0
    7.1592   -8.9594    0.0000 C   0  0  0  0  0  0  0  0  0  0  0  0
    6.9042   -9.7440    0.0000 O   0  0  0  0  0  0  0  0  0  0  0  0
    8.3967   -8.2449    0.0000 C   0  0  0  0  0  0  0  0  0  0  0  0
    7.9842   -7.5304    0.0000 C   0  0  0  0  0  0  0  0  0  0  0  0
    7.1592   -7.5304    0.0000 C   0  0  0  0  0  0  0  0  0  0  0  0
    6.7467   -8.2449    0.0000 C   0  0  0  0  0  0  0  0  0  0  0  0
    8.3967   -6.8159    0.0000 C   0  0  0  0  0  0  0  0  0  0  0  0
    7.9842   -6.1015    0.0000 C   0  0  0  0  0  0  0  0  0  0  0  0
    9.2217   -5.3870    0.0000 O   0  0  0  0  0  0  0  0  0  0  0  0
    8.3967   -5.3870    0.0000 C   0  0  0  0  0  0  0  0  0  0  0  0
    9.0237   -9.9989    0.0000 C   0  0  0  0  0  0  0  0  0  0  0  0
    9.6368   -9.4469    0.0000 O   0  0  0  0  0  0  0  0  0  0  0  0
    5.9217   -8.2449    0.0000 O   0  0  0  0  0  0  0  0  0  0  0  0
    5.5092   -7.5304    0.0000 C   0  0  0  0  0  0  0  0  0  0  0  0
    7.9842   -4.6725    0.0000 O   0  0  0  0  0  0  0  0  0  0  0  0
    6.1427  -16.0039    0.0000 O   0  0  0  0  0  0  0  0  0  0  0  0
    7.5717  -15.1789    0.0000 O   0  0  0  0  0  0  0  0  0  0  0  0
  3  2  1  6  0  0  0
  3  4  1  0  0  0  0
  4  5  1  1  0  0  0
  5  1  1  0  0  0  0
  3  6  1  0  0  0  0
  6  7  1  0  0  0  0
  7  8  1  0  0  0  0
  8  9  1  0  0  0  0
  9  4  1  0  0  0  0
  8 10  1  1  0  0  0
 10 11  1  0  0  0  0
 11 12  2  0  0  0  0
 12 13  1  0  0  0  0
 11 14  1  0  0  0  0
 14 15  2  0  0  0  0
 15 16  1  0  0  0  0
 16 17  2  0  0  0  0
 17 12  1  0  0  0  0
 18 13  1  0  0  0  0
 19 16  1  6  0  0  0
 19 20  1  0  0  0  0
 20 21  1  0  0  0  0
 21 22  2  0  0  0  0
 22 23  1  0  0  0  0
 23 19  1  0  0  0  0
 21 24  1  0  0  0  0
 24 25  2  0  0  0  0
 25 26  1  0  0  0  0
 26 27  2  0  0  0  0
 27 22  1  0  0  0  0
 25 28  1  0  0  0  0
 28 29  2  0  0  0  0
 30 31  2  0  0  0  0
 31 29  1  0  0  0  0
 20 32  1  1  0  0  0
 32 33  1  0  0  0  0
 27 34  1  0  0  0  0
 34 35  1  0  0  0  0
 31 36  1  0  0  0  0
  6 37  1  1  0  0  0
  7 38  1  6  0  0  0
M  END
>  <cdx:fragmentId>
5

$$$$
