91153.cdx
  Mrv1902 05222410252D          

118130  0  0  0  0            999 V2000
   11.5230   -5.6100    0.0000 C   0  0  0  0  0  0  0  0  0  0  0  0
   11.5230   -6.4350    0.0000 C   0  0  1  0  0  0  0  0  0  0  0  0
   12.2375   -6.8475    0.0000 C   0  0  1  0  0  0  0  0  0  0  0  0
   12.9519   -6.4350    0.0000 C   0  0  1  0  0  0  0  0  0  0  0  0
   12.9519   -5.6100    0.0000 C   0  0  2  0  0  0  0  0  0  0  0  0
   12.2375   -5.1975    0.0000 C   0  0  0  0  0  0  0  0  0  0  0  0
   13.6664   -6.8475    0.0000 C   0  0  0  0  0  0  0  0  0  0  0  0
   14.3808   -6.4350    0.0000 C   0  0  0  0  0  0  0  0  0  0  0  0
   14.3808   -5.6100    0.0000 C   0  0  2  0  0  0  0  0  0  0  0  0
   13.6664   -5.1975    0.0000 C   0  0  2  0  0  0  0  0  0  0  0  0
   15.0953   -5.1975    0.0000 C   0  0  1  0  0  0  0  0  0  0  0  0
   15.0953   -4.3725    0.0000 C   0  0  0  0  0  0  0  0  0  0  0  0
   14.3808   -3.9600    0.0000 C   0  0  0  0  0  0  0  0  0  0  0  0
   13.6664   -4.3725    0.0000 C   0  0  0  0  0  0  0  0  0  0  0  0
   15.8097   -5.6100    0.0000 C   0  0  0  0  0  0  0  0  0  0  0  0
   16.5242   -5.1975    0.0000 C   0  0  0  0  0  0  0  0  0  0  0  0
   16.5242   -4.3725    0.0000 C   0  0  2  0  0  0  0  0  0  0  0  0
   15.8097   -3.9600    0.0000 C   0  0  1  0  0  0  0  0  0  0  0  0
   17.2389   -3.9600    0.0000 C   0  0  0  0  0  0  0  0  0  0  0  0
   17.2389   -3.1350    0.0000 C   0  0  0  0  0  0  0  0  0  0  0  0
   16.5242   -2.7225    0.0000 C   0  0  0  0  0  0  0  0  0  0  0  0
   15.8097   -3.1350    0.0000 C   0  0  0  0  0  0  0  0  0  0  0  0
   16.1117   -2.0080    0.0000 C   0  0  0  0  0  0  0  0  0  0  0  0
   16.9367   -2.0080    0.0000 C   0  0  0  0  0  0  0  0  0  0  0  0
   15.8097   -4.7850    0.0000 H   0  0  0  0  0  0  0  0  0  0  0  0
   15.0953   -6.0225    0.0000 C   0  0  0  0  0  0  0  0  0  0  0  0
   14.3808   -4.7850    0.0000 C   0  0  0  0  0  0  0  0  0  0  0  0
   13.6664   -6.0225    0.0000 H   0  0  0  0  0  0  0  0  0  0  0  0
   12.9519   -4.7850    0.0000 C   0  0  0  0  0  0  0  0  0  0  0  0
   12.9519   -7.2600    0.0000 H   0  0  0  0  0  0  0  0  0  0  0  0
   11.8250   -7.5619    0.0000 C   0  0  0  0  0  0  0  0  0  0  0  0
   12.6500   -7.5619    0.0000 C   0  0  0  0  0  0  0  0  0  0  0  0
   10.8086   -6.8475    0.0000 O   0  0  0  0  0  0  0  0  0  0  0  0
   17.2389   -4.7850    0.0000 C   0  0  0  0  0  0  0  0  0  0  0  0
   17.9534   -4.3725    0.0000 O   0  0  0  0  0  0  0  0  0  0  0  0
   17.2389   -5.6100    0.0000 O   0  0  0  0  0  0  0  0  0  0  0  0
   18.6678   -4.7850    0.0000 C   0  0  2  0  0  0  0  0  0  0  0  0
   18.6678   -5.6100    0.0000 O   0  0  0  0  0  0  0  0  0  0  0  0
   19.3823   -6.0225    0.0000 C   0  0  1  0  0  0  0  0  0  0  0  0
   20.0967   -5.6100    0.0000 C   0  0  2  0  0  0  0  0  0  0  0  0
   20.0967   -4.7850    0.0000 C   0  0  1  0  0  0  0  0  0  0  0  0
   19.3823   -4.3725    0.0000 C   0  0  1  0  0  0  0  0  0  0  0  0
   19.3823   -6.8475    0.0000 C   0  0  0  0  0  0  0  0  0  0  0  0
   20.8112   -4.3725    0.0000 O   0  0  0  0  0  0  0  0  0  0  0  0
   19.3823   -3.5475    0.0000 O   0  0  0  0  0  0  0  0  0  0  0  0
   20.8112   -6.0225    0.0000 O   0  0  0  0  0  0  0  0  0  0  0  0
   20.0967   -7.2600    0.0000 O   0  0  0  0  0  0  0  0  0  0  0  0
   10.0941   -6.4350    0.0000 C   0  0  2  0  0  0  0  0  0  0  0  0
   10.0941   -5.6100    0.0000 O   0  0  0  0  0  0  0  0  0  0  0  0
    9.3797   -5.1975    0.0000 C   0  0  0  0  0  0  0  0  0  0  0  0
    8.6652   -5.6100    0.0000 C   0  0  1  0  0  0  0  0  0  0  0  0
    8.6652   -6.4350    0.0000 C   0  0  1  0  0  0  0  0  0  0  0  0
    9.3797   -6.8475    0.0000 C   0  0  1  0  0  0  0  0  0  0  0  0
    9.3797   -7.6725    0.0000 O   0  0  0  0  0  0  0  0  0  0  0  0
    7.9508   -6.8475    0.0000 O   0  0  0  0  0  0  0  0  0  0  0  0
    7.9508   -5.1975    0.0000 O   0  0  0  0  0  0  0  0  0  0  0  0
    8.6652   -8.0850    0.0000 C   0  0  2  0  0  0  0  0  0  0  0  0
    7.9508   -7.6725    0.0000 O   0  0  0  0  0  0  0  0  0  0  0  0
    7.2363   -8.0850    0.0000 C   0  0  2  0  0  0  0  0  0  0  0  0
    7.2363   -8.9100    0.0000 C   0  0  1  0  0  0  0  0  0  0  0  0
    7.9508   -9.3225    0.0000 C   0  0  2  0  0  0  0  0  0  0  0  0
    8.6652   -8.9100    0.0000 C   0  0  1  0  0  0  0  0  0  0  0  0
    6.5218   -9.3225    0.0000 O   0  0  0  0  0  0  0  0  0  0  0  0
    7.9508  -10.1475    0.0000 O   0  0  0  0  0  0  0  0  0  0  0  0
    9.3797   -9.3225    0.0000 O   0  0  0  0  0  0  0  0  0  0  0  0
    6.5218   -7.6725    0.0000 C   0  0  0  0  0  0  0  0  0  0  0  0
    7.2363  -10.5600    0.0000 C   0  0  2  0  0  0  0  0  0  0  0  0
    6.5218  -10.1475    0.0000 O   0  0  0  0  0  0  0  0  0  0  0  0
    5.8073  -10.5600    0.0000 C   0  0  1  0  0  0  0  0  0  0  0  0
    5.8073  -11.3850    0.0000 C   0  0  2  0  0  0  0  0  0  0  0  0
    6.5218  -11.7975    0.0000 C   0  0  1  0  0  0  0  0  0  0  0  0
    7.2363  -11.3850    0.0000 C   0  0  1  0  0  0  0  0  0  0  0  0
    5.0929  -10.1475    0.0000 C   0  0  0  0  0  0  0  0  0  0  0  0
    6.5218  -12.6225    0.0000 O   0  0  0  0  0  0  0  0  0  0  0  0
    7.9508  -11.7975    0.0000 O   0  0  0  0  0  0  0  0  0  0  0  0
    5.0929  -11.7975    0.0000 O   0  0  0  0  0  0  0  0  0  0  0  0
    4.3784  -10.5600    0.0000 O   0  0  0  0  0  0  0  0  0  0  0  0
    6.9262  -13.3416    0.0000 C   0  0  2  0  0  0  0  0  0  0  0  0
    6.5056  -14.0513    0.0000 O   0  0  0  0  0  0  0  0  0  0  0  0
    6.9099  -14.7705    0.0000 C   0  0  2  0  0  0  0  0  0  0  0  0
    7.7349  -14.7798    0.0000 C   0  0  1  0  0  0  0  0  0  0  0  0
    8.1555  -14.0701    0.0000 C   0  0  2  0  0  0  0  0  0  0  0  0
    7.7511  -13.3510    0.0000 C   0  0  1  0  0  0  0  0  0  0  0  0
    8.1392  -15.4990    0.0000 O   0  0  0  0  0  0  0  0  0  0  0  0
    8.9804  -14.0795    0.0000 O   0  0  0  0  0  0  0  0  0  0  0  0
    6.4893  -15.4802    0.0000 C   0  0  0  0  0  0  0  0  0  0  0  0
    4.6666  -12.5039    0.0000 C   0  0  2  0  0  0  0  0  0  0  0  0
    3.8418  -12.4879    0.0000 O   0  0  0  0  0  0  0  0  0  0  0  0
    3.4155  -13.1942    0.0000 C   0  0  1  0  0  0  0  0  0  0  0  0
    3.8141  -13.9166    0.0000 C   0  0  2  0  0  0  0  0  0  0  0  0
    4.6390  -13.9325    0.0000 C   0  0  1  0  0  0  0  0  0  0  0  0
    5.0652  -13.2262    0.0000 C   0  0  1  0  0  0  0  0  0  0  0  0
    2.5907  -13.1783    0.0000 C   0  0  0  0  0  0  0  0  0  0  0  0
    5.0376  -14.6548    0.0000 O   0  0  0  0  0  0  0  0  0  0  0  0
    3.3879  -14.6229    0.0000 O   0  0  0  0  0  0  0  0  0  0  0  0
    2.1644  -13.8846    0.0000 O   0  0  0  0  0  0  0  0  0  0  0  0
    8.1717  -12.6413    0.0000 O   0  0  0  0  0  0  0  0  0  0  0  0
    5.8901  -13.2421    0.0000 O   0  0  0  0  0  0  0  0  0  0  0  0
   20.0967   -8.0850    0.0000 C   0  0  2  0  0  0  0  0  0  0  0  0
   19.3822   -8.4975    0.0000 O   0  0  0  0  0  0  0  0  0  0  0  0
   19.3822   -9.3225    0.0000 C   0  0  1  0  0  0  0  0  0  0  0  0
   20.0967   -9.7350    0.0000 C   0  0  2  0  0  0  0  0  0  0  0  0
   20.8112   -9.3225    0.0000 C   0  0  1  0  0  0  0  0  0  0  0  0
   20.8112   -8.4975    0.0000 C   0  0  1  0  0  0  0  0  0  0  0  0
   18.6678   -9.7350    0.0000 C   0  0  0  0  0  0  0  0  0  0  0  0
   21.5257   -9.7350    0.0000 O   0  0  0  0  0  0  0  0  0  0  0  0
   18.6678  -10.5600    0.0000 O   0  0  0  0  0  0  0  0  0  0  0  0
   20.0967  -10.5600    0.0000 O   0  0  0  0  0  0  0  0  0  0  0  0
   21.5257   -8.0850    0.0000 O   0  0  0  0  0  0  0  0  0  0  0  0
    3.4026  -15.4478    0.0000 C   0  0  2  0  0  0  0  0  0  0  0  0
    2.6875  -15.8592    0.0000 O   0  0  0  0  0  0  0  0  0  0  0  0
    2.6863  -16.6842    0.0000 C   0  0  0  0  0  0  0  0  0  0  0  0
    3.4002  -17.0978    0.0000 C   0  0  2  0  0  0  0  0  0  0  0  0
    4.1152  -16.6863    0.0000 C   0  0  1  0  0  0  0  0  0  0  0  0
    4.1165  -15.8613    0.0000 C   0  0  1  0  0  0  0  0  0  0  0  0
    4.8315  -15.4499    0.0000 O   0  0  0  0  0  0  0  0  0  0  0  0
    4.8291  -17.0999    0.0000 O   0  0  0  0  0  0  0  0  0  0  0  0
    3.3989  -17.9228    0.0000 O   0  0  0  0  0  0  0  0  0  0  0  0
  1  2  1  0  0  0  0
  2  3  1  0  0  0  0
  3  4  1  0  0  0  0
  4  5  1  0  0  0  0
  5  6  1  0  0  0  0
  6  1  1  0  0  0  0
  4  7  1  0  0  0  0
  7  8  1  0  0  0  0
  8  9  1  0  0  0  0
  9 10  1  0  0  0  0
 10  5  1  0  0  0  0
  9 11  1  0  0  0  0
 11 12  1  0  0  0  0
 12 13  2  0  0  0  0
 13 14  1  0  0  0  0
 14 10  1  0  0  0  0
 11 15  1  0  0  0  0
 15 16  1  0  0  0  0
 16 17  1  0  0  0  0
 17 18  1  0  0  0  0
 18 12  1  0  0  0  0
 17 19  1  0  0  0  0
 19 20  1  0  0  0  0
 20 21  1  0  0  0  0
 21 22  1  0  0  0  0
 22 18  1  0  0  0  0
 21 23  1  0  0  0  0
 21 24  1  0  0  0  0
 18 25  1  1  0  0  0
 11 26  1  6  0  0  0
  9 27  1  1  0  0  0
 10 28  1  6  0  0  0
  5 29  1  1  0  0  0
  4 30  1  6  0  0  0
  3 31  1  1  0  0  0
  3 32  1  6  0  0  0
  2 33  1  1  0  0  0
 17 34  1  1  0  0  0
 34 35  1  0  0  0  0
 34 36  2  0  0  0  0
 37 35  1  1  0  0  0
 37 38  1  0  0  0  0
 38 39  1  0  0  0  0
 39 40  1  0  0  0  0
 40 41  1  0  0  0  0
 41 42  1  0  0  0  0
 42 37  1  0  0  0  0
 39 43  1  1  0  0  0
 41 44  1  1  0  0  0
 42 45  1  6  0  0  0
 40 46  1  6  0  0  0
 43 47  1  0  0  0  0
 48 33  1  1  0  0  0
 48 49  1  0  0  0  0
 49 50  1  0  0  0  0
 50 51  1  0  0  0  0
 51 52  1  0  0  0  0
 52 53  1  0  0  0  0
 53 48  1  0  0  0  0
 53 54  1  6  0  0  0
 52 55  1  1  0  0  0
 51 56  1  1  0  0  0
 57 54  1  1  0  0  0
 57 58  1  0  0  0  0
 58 59  1  0  0  0  0
 59 60  1  0  0  0  0
 60 61  1  0  0  0  0
 61 62  1  0  0  0  0
 62 57  1  0  0  0  0
 60 63  1  1  0  0  0
 61 64  1  6  0  0  0
 62 65  1  6  0  0  0
 59 66  1  6  0  0  0
 67 64  1  1  0  0  0
 67 68  1  0  0  0  0
 68 69  1  0  0  0  0
 69 70  1  0  0  0  0
 70 71  1  0  0  0  0
 71 72  1  0  0  0  0
 72 67  1  0  0  0  0
 69 73  1  1  0  0  0
 71 74  1  1  0  0  0
 72 75  1  6  0  0  0
 70 76  1  6  0  0  0
 73 77  1  0  0  0  0
 78 74  1  1  0  0  0
 78 79  1  0  0  0  0
 79 80  1  0  0  0  0
 80 81  1  0  0  0  0
 81 82  1  0  0  0  0
 82 83  1  0  0  0  0
 83 78  1  0  0  0  0
 81 84  1  1  0  0  0
 82 85  1  6  0  0  0
 80 86  1  6  0  0  0
 87 76  1  1  0  0  0
 87 88  1  0  0  0  0
 88 89  1  0  0  0  0
 89 90  1  0  0  0  0
 90 91  1  0  0  0  0
 91 92  1  0  0  0  0
 92 87  1  0  0  0  0
 89 93  1  1  0  0  0
 91 94  1  1  0  0  0
 90 95  1  6  0  0  0
 93 96  1  0  0  0  0
 83 97  1  6  0  0  0
 92 98  1  6  0  0  0
 99 47  1  1  0  0  0
 99100  1  0  0  0  0
100101  1  0  0  0  0
101102  1  0  0  0  0
102103  1  0  0  0  0
103104  1  0  0  0  0
104 99  1  0  0  0  0
101105  1  1  0  0  0
103106  1  1  0  0  0
105107  1  0  0  0  0
102108  1  6  0  0  0
104109  1  6  0  0  0
110 95  1  1  0  0  0
110111  1  0  0  0  0
111112  1  0  0  0  0
112113  1  0  0  0  0
113114  1  0  0  0  0
114115  1  0  0  0  0
115110  1  0  0  0  0
115116  1  6  0  0  0
114117  1  1  0  0  0
113118  1  6  0  0  0
M  END
>  <cdx:fragmentId>
5

$$$$
