91155.cdx
  Mrv1902 05222410242D          

 17 17  0  0  0  0            999 V2000
    6.2681  -10.3251    0.0000 C   0  0  0  0  0  0  0  0  0  0  0  0
    6.2681  -11.1501    0.0000 C   0  0  0  0  0  0  0  0  0  0  0  0
    6.9825  -11.5626    0.0000 C   0  0  0  0  0  0  0  0  0  0  0  0
    7.6970  -11.1501    0.0000 C   0  0  0  0  0  0  0  0  0  0  0  0
    7.6970  -10.3251    0.0000 C   0  0  0  0  0  0  0  0  0  0  0  0
    6.9825   -9.9126    0.0000 C   0  0  0  0  0  0  0  0  0  0  0  0
    6.9825  -12.3876    0.0000 O   0  5  0  0  0  0  0  0  0  0  0  0
    5.5536  -11.5626    0.0000 O   0  0  0  0  0  0  0  0  0  0  0  0
    4.8391  -11.1501    0.0000 S   0  0  0  0  0  0  0  0  0  0  0  0
    4.1246  -10.7376    0.0000 O   0  5  0  0  0  0  0  0  0  0  0  0
    5.2516  -10.4357    0.0000 O   0  0  0  0  0  0  0  0  0  0  0  0
    4.4266  -11.8646    0.0000 O   0  0  0  0  0  0  0  0  0  0  0  0
    6.9825   -9.0876    0.0000 C   0  0  0  0  0  0  0  0  0  0  0  0
    7.6970   -8.6751    0.0000 C   0  0  0  0  0  0  0  0  0  0  0  0
    7.6970   -7.8501    0.0000 C   0  0  0  0  0  0  0  0  0  0  0  0
    8.4115   -7.4376    0.0000 O   0  0  0  0  0  0  0  0  0  0  0  0
    6.9825   -7.4376    0.0000 O   0  0  0  0  0  0  0  0  0  0  0  0
  1  2  2  0  0  0  0
  2  3  1  0  0  0  0
  3  4  2  0  0  0  0
  4  5  1  0  0  0  0
  5  6  2  0  0  0  0
  6  1  1  0  0  0  0
  3  7  1  0  0  0  0
  2  8  1  0  0  0  0
  8  9  1  0  0  0  0
  9 10  1  0  0  0  0
  9 11  2  0  0  0  0
  9 12  2  0  0  0  0
  6 13  1  0  0  0  0
 13 14  2  0  0  0  0
 14 15  1  0  0  0  0
 15 16  1  0  0  0  0
 15 17  2  0  0  0  0
M  CHG  2   7  -1  10  -1
M  END
>  <cdx:fragmentId>
5

$$$$
