91154.cdx
  Mrv1902 05222410242D          

 32 35  0  0  0  0            999 V2000
    2.1431   -6.1176    0.0000 C   0  0  0  0  0  0  0  0  0  0  0  0
    3.5720   -6.9426    0.0000 C   0  0  0  0  0  0  0  0  0  0  0  0
    3.5720   -6.1176    0.0000 C   0  0  0  0  0  0  0  0  0  0  0  0
    2.8575   -5.7051    0.0000 O   0  0  0  0  0  0  0  0  0  0  0  0
    4.2865   -7.3551    0.0000 C   0  0  0  0  0  0  0  0  0  0  0  0
    5.0009   -6.9426    0.0000 C   0  0  0  0  0  0  0  0  0  0  0  0
    5.0009   -6.1176    0.0000 C   0  0  0  0  0  0  0  0  0  0  0  0
    4.2865   -5.7051    0.0000 C   0  0  0  0  0  0  0  0  0  0  0  0
    4.2865   -8.1801    0.0000 C   0  0  0  0  0  0  0  0  0  0  0  0
    5.0009   -8.5926    0.0000 C   0  0  0  0  0  0  0  0  0  0  0  0
    5.7154   -8.1801    0.0000 C   0  0  0  0  0  0  0  0  0  0  0  0
    5.7154   -7.3551    0.0000 C   0  0  0  0  0  0  0  0  0  0  0  0
    5.0009   -9.4176    0.0000 C   0  0  0  0  0  0  0  0  0  0  0  0
    5.7154   -9.8301    0.0000 C   0  0  0  0  0  0  0  0  0  0  0  0
    6.4299   -9.4176    0.0000 C   0  0  0  0  0  0  0  0  0  0  0  0
    6.4299   -8.5926    0.0000 C   0  0  0  0  0  0  0  0  0  0  0  0
    6.4299   -6.9426    0.0000 O   0  0  0  0  0  0  0  0  0  0  0  0
    5.7154   -5.7051    0.0000 O   0  0  0  0  0  0  0  0  0  0  0  0
    7.8588   -9.4176    0.0000 O   0  0  0  0  0  0  0  0  0  0  0  0
    7.8588   -8.5926    0.0000 C   0  0  0  0  0  0  0  0  0  0  0  0
    7.1444   -8.1801    0.0000 O   0  0  0  0  0  0  0  0  0  0  0  0
    8.5733   -9.8301    0.0000 C   0  0  0  0  0  0  0  0  0  0  0  0
    9.2878   -9.4176    0.0000 C   0  0  0  0  0  0  0  0  0  0  0  0
    9.2878   -8.5926    0.0000 C   0  0  0  0  0  0  0  0  0  0  0  0
    8.5733   -8.1801    0.0000 C   0  0  0  0  0  0  0  0  0  0  0  0
    3.5720   -8.5926    0.0000 O   0  0  0  0  0  0  0  0  0  0  0  0
    5.7154  -10.6551    0.0000 C   0  0  0  0  0  0  0  0  0  0  0  0
    8.5733   -7.3551    0.0000 O   0  0  0  0  0  0  0  0  0  0  0  0
    8.5733  -10.6551    0.0000 C   0  0  0  0  0  0  0  0  0  0  0  0
    9.2878  -11.0676    0.0000 O   0  0  0  0  0  0  0  0  0  0  0  0
   10.0022   -9.8301    0.0000 O   0  0  0  0  0  0  0  0  0  0  0  0
   10.0022   -8.1801    0.0000 O   0  0  0  0  0  0  0  0  0  0  0  0
  2  3  2  0  0  0  0
  3  4  1  0  0  0  0
  4  1  1  0  0  0  0
  2  5  1  0  0  0  0
  5  6  2  0  0  0  0
  6  7  1  0  0  0  0
  7  8  2  0  0  0  0
  8  3  1  0  0  0  0
  5  9  1  0  0  0  0
  9 10  1  0  0  0  0
 10 11  2  0  0  0  0
 11 12  1  0  0  0  0
 12  6  1  0  0  0  0
 10 13  1  0  0  0  0
 13 14  2  0  0  0  0
 14 15  1  0  0  0  0
 15 16  2  0  0  0  0
 16 11  1  0  0  0  0
 12 17  2  0  0  0  0
 18  7  1  0  0  0  0
 19 20  1  0  0  0  0
 20 21  1  0  0  0  0
 21 16  1  0  0  0  0
 19 22  1  0  0  0  0
 22 23  1  0  0  0  0
 23 24  1  0  0  0  0
 24 25  1  0  0  0  0
 25 20  1  0  0  0  0
  9 26  2  0  0  0  0
 14 27  1  0  0  0  0
 25 28  1  0  0  0  0
 22 29  1  0  0  0  0
 29 30  1  0  0  0  0
 23 31  1  0  0  0  0
 24 32  1  0  0  0  0
M  END
>  <cdx:fragmentId>
5

$$$$
