11517.cdx
  Mrv1902 05222410282D          

 71 77  0  0  0  0            999 V2000
    5.2008   -7.0276    0.0000 C   0  0  0  0  0  0  0  0  0  0  0  0
    5.2008   -7.8526    0.0000 C   0  0  0  0  0  0  0  0  0  0  0  0
    5.9152   -8.2651    0.0000 C   0  0  1  0  0  0  0  0  0  0  0  0
    6.6297   -7.8526    0.0000 C   0  0  2  0  0  0  0  0  0  0  0  0
    6.6297   -7.0276    0.0000 C   0  0  1  0  0  0  0  0  0  0  0  0
    5.9152   -6.6151    0.0000 C   0  0  1  0  0  0  0  0  0  0  0  0
    7.3442   -6.6151    0.0000 C   0  0  0  0  0  0  0  0  0  0  0  0
    7.3442   -5.7901    0.0000 C   0  0  0  0  0  0  0  0  0  0  0  0
    6.6297   -5.3776    0.0000 C   0  0  2  0  0  0  0  0  0  0  0  0
    5.9152   -5.7901    0.0000 C   0  0  2  0  0  0  0  0  0  0  0  0
    6.6297   -4.5526    0.0000 C   0  0  1  0  0  0  0  0  0  0  0  0
    5.9152   -4.1401    0.0000 C   0  0  2  0  0  0  0  0  0  0  0  0
    5.2008   -4.5526    0.0000 C   0  0  0  0  0  0  0  0  0  0  0  0
    5.2008   -5.3776    0.0000 C   0  0  0  0  0  0  0  0  0  0  0  0
    7.3442   -4.1401    0.0000 C   0  0  0  0  0  0  0  0  0  0  0  0
    7.3442   -3.3151    0.0000 C   0  0  0  0  0  0  0  0  0  0  0  0
    6.6297   -2.9026    0.0000 C   0  0  1  0  0  0  0  0  0  0  0  0
    5.9152   -3.3151    0.0000 C   0  0  2  0  0  0  0  0  0  0  0  0
    4.4863   -9.0901    0.0000 O   0  0  0  0  0  0  0  0  0  0  0  0
    5.2008   -9.5026    0.0000 C   0  0  1  0  0  0  0  0  0  0  0  0
    5.9152   -9.0901    0.0000 O   0  0  0  0  0  0  0  0  0  0  0  0
    3.7718   -9.5026    0.0000 C   0  0  1  0  0  0  0  0  0  0  0  0
    3.7718  -10.3276    0.0000 C   0  0  2  0  0  0  0  0  0  0  0  0
    4.4863  -10.7401    0.0000 C   0  0  1  0  0  0  0  0  0  0  0  0
    5.2008  -10.3276    0.0000 C   0  0  1  0  0  0  0  0  0  0  0  0
    4.4863  -11.5651    0.0000 O   0  0  0  0  0  0  0  0  0  0  0  0
    5.2008  -11.9776    0.0000 O   0  0  0  0  0  0  0  0  0  0  0  0
    5.9152  -11.5651    0.0000 C   0  0  1  0  0  0  0  0  0  0  0  0
    5.9152  -10.7401    0.0000 O   0  0  0  0  0  0  0  0  0  0  0  0
    5.2008  -12.8026    0.0000 C   0  0  1  0  0  0  0  0  0  0  0  0
    5.9152  -13.2151    0.0000 C   0  0  2  0  0  0  0  0  0  0  0  0
    6.6297  -12.8026    0.0000 C   0  0  1  0  0  0  0  0  0  0  0  0
    6.6297  -11.9776    0.0000 C   0  0  1  0  0  0  0  0  0  0  0  0
    7.4547   -7.8526    0.0000 C   0  0  0  0  0  0  0  0  0  0  0  0
    3.0574   -9.0901    0.0000 C   0  0  0  0  0  0  0  0  0  0  0  0
    2.3429   -9.5026    0.0000 O   0  0  0  0  0  0  0  0  0  0  0  0
    5.2008   -2.9026    0.0000 O   0  0  0  0  0  0  0  0  0  0  0  0
    5.5308   -3.9132    0.0000 H   0  0  0  0  0  0  0  0  0  0  0  0
    7.4547   -5.3776    0.0000 C   0  0  0  0  0  0  0  0  0  0  0  0
    5.2008   -6.2026    0.0000 C   0  0  0  0  0  0  0  0  0  0  0  0
    7.0422   -8.5671    0.0000 C   0  0  0  0  0  0  0  0  0  0  0  0
    7.3442  -13.2151    0.0000 O   0  0  0  0  0  0  0  0  0  0  0  0
    3.0574  -10.7401    0.0000 O   0  0  0  0  0  0  0  0  0  0  0  0
    7.3442  -11.5651    0.0000 O   0  0  0  0  0  0  0  0  0  0  0  0
    5.9152  -14.0401    0.0000 O   0  0  0  0  0  0  0  0  0  0  0  0
    7.4547   -4.5526    0.0000 C   0  0  0  0  0  0  0  0  0  0  0  0
    6.2791   -5.9964    0.0000 H   0  0  0  0  0  0  0  0  0  0  0  0
    7.0142   -7.2545    0.0000 H   0  0  0  0  0  0  0  0  0  0  0  0
    7.8672   -8.5671    0.0000 O   0  0  0  0  0  0  0  0  0  0  0  0
    4.4863  -13.2151    0.0000 C   0  0  0  0  0  0  0  0  0  0  0  0
    3.7718  -12.8026    0.0000 O   0  0  0  0  0  0  0  0  0  0  0  0
    8.6922   -8.5671    0.0000 C   0  0  2  0  0  0  0  0  0  0  0  0
    9.1047   -9.2816    0.0000 O   0  0  0  0  0  0  0  0  0  0  0  0
    9.9297   -9.2816    0.0000 C   0  0  1  0  0  0  0  0  0  0  0  0
   10.3422   -8.5671    0.0000 C   0  0  2  0  0  0  0  0  0  0  0  0
    9.9297   -7.8526    0.0000 C   0  0  1  0  0  0  0  0  0  0  0  0
    9.1047   -7.8526    0.0000 C   0  0  1  0  0  0  0  0  0  0  0  0
   10.3422   -7.1382    0.0000 O   0  0  0  0  0  0  0  0  0  0  0  0
   10.3422   -9.9960    0.0000 C   0  0  0  0  0  0  0  0  0  0  0  0
    8.6922   -7.1382    0.0000 O   0  0  0  0  0  0  0  0  0  0  0  0
   11.1672   -8.5671    0.0000 O   0  0  0  0  0  0  0  0  0  0  0  0
   11.1672   -9.9960    0.0000 O   0  0  0  0  0  0  0  0  0  0  0  0
    6.2172   -2.1882    0.0000 C   0  0  0  0  0  0  0  0  0  0  0  0
    6.6297   -1.4737    0.0000 O   0  0  0  0  0  0  0  0  0  0  0  0
    7.0422   -2.1882    0.0000 C   0  0  0  0  0  0  0  0  0  0  0  0
    7.8672   -2.1882    0.0000 C   0  0  0  0  0  0  0  0  0  0  0  0
    8.2797   -1.4737    0.0000 C   0  0  0  0  0  0  0  0  0  0  0  0
    9.1047   -1.4737    0.0000 C   0  0  0  0  0  0  0  0  0  0  0  0
    9.5172   -2.1882    0.0000 C   0  0  0  0  0  0  0  0  0  0  0  0
    9.5172   -0.7592    0.0000 C   0  0  0  0  0  0  0  0  0  0  0  0
   10.3422   -2.1882    0.0000 O   0  0  0  0  0  0  0  0  0  0  0  0
  1  2  1  0  0  0  0
  2  3  1  0  0  0  0
  3  4  1  0  0  0  0
  4  5  1  0  0  0  0
  5  6  1  0  0  0  0
  6  1  1  0  0  0  0
  5  7  1  0  0  0  0
  7  8  1  0  0  0  0
  8  9  1  0  0  0  0
  9 10  1  0  0  0  0
 10  6  1  0  0  0  0
  9 11  1  0  0  0  0
 11 12  1  0  0  0  0
 12 13  1  0  0  0  0
 13 14  1  0  0  0  0
 14 10  1  0  0  0  0
 11 15  1  0  0  0  0
 15 16  1  0  0  0  0
 16 17  1  0  0  0  0
 17 18  1  0  0  0  0
 18 12  1  0  0  0  0
 19 20  1  0  0  0  0
 20 21  1  1  0  0  0
  3 21  1  1  0  0  0
 19 22  1  0  0  0  0
 22 23  1  0  0  0  0
 23 24  1  0  0  0  0
 24 25  1  0  0  0  0
 25 20  1  0  0  0  0
 24 26  1  1  0  0  0
 27 28  1  0  0  0  0
 28 29  1  1  0  0  0
 25 29  1  6  0  0  0
 27 30  1  0  0  0  0
 30 31  1  0  0  0  0
 31 32  1  0  0  0  0
 32 33  1  0  0  0  0
 33 28  1  0  0  0  0
  4 34  1  0  0  0  0
 22 35  1  1  0  0  0
 35 36  1  0  0  0  0
 18 37  1  1  0  0  0
 12 38  1  1  0  0  0
  9 39  1  1  0  0  0
  6 40  1  1  0  0  0
  4 41  1  1  0  0  0
 32 42  1  1  0  0  0
 23 43  1  6  0  0  0
 33 44  1  6  0  0  0
 31 45  1  6  0  0  0
 11 46  1  6  0  0  0
 10 47  1  6  0  0  0
  5 48  1  6  0  0  0
 34 49  1  0  0  0  0
 30 50  1  1  0  0  0
 50 51  1  0  0  0  0
 52 49  1  1  0  0  0
 52 53  1  0  0  0  0
 53 54  1  0  0  0  0
 54 55  1  0  0  0  0
 55 56  1  0  0  0  0
 56 57  1  0  0  0  0
 57 52  1  0  0  0  0
 56 58  1  1  0  0  0
 54 59  1  1  0  0  0
 57 60  1  6  0  0  0
 55 61  1  6  0  0  0
 59 62  1  0  0  0  0
 17 63  1  0  0  0  0
 63 64  1  0  0  0  0
 17 65  1  6  0  0  0
 65 66  1  0  0  0  0
 66 67  1  0  0  0  0
 67 68  2  0  0  0  0
 68 69  1  0  0  0  0
 68 70  1  0  0  0  0
 69 71  1  0  0  0  0
M  END
>  <cdx:fragmentId>
5

$$$$
