11519.cdx
  Mrv1902 05222410192D          

 69 75  0  0  0  0            999 V2000
    5.2214   -8.2500    0.0000 C   0  0  0  0  0  0  0  0  0  0  0  0
    5.2214   -9.0750    0.0000 C   0  0  0  0  0  0  0  0  0  0  0  0
    5.9359   -9.4875    0.0000 C   0  0  1  0  0  0  0  0  0  0  0  0
    6.6503   -9.0750    0.0000 C   0  0  2  0  0  0  0  0  0  0  0  0
    6.6503   -8.2500    0.0000 C   0  0  1  0  0  0  0  0  0  0  0  0
    5.9359   -7.8375    0.0000 C   0  0  1  0  0  0  0  0  0  0  0  0
    7.3648   -7.8375    0.0000 C   0  0  0  0  0  0  0  0  0  0  0  0
    7.3648   -7.0125    0.0000 C   0  0  0  0  0  0  0  0  0  0  0  0
    6.6503   -6.6000    0.0000 C   0  0  2  0  0  0  0  0  0  0  0  0
    5.9359   -7.0125    0.0000 C   0  0  2  0  0  0  0  0  0  0  0  0
    6.6503   -5.7750    0.0000 C   0  0  1  0  0  0  0  0  0  0  0  0
    5.9359   -5.3625    0.0000 C   0  0  2  0  0  0  0  0  0  0  0  0
    5.2214   -5.7750    0.0000 C   0  0  0  0  0  0  0  0  0  0  0  0
    5.2214   -6.6000    0.0000 C   0  0  0  0  0  0  0  0  0  0  0  0
    7.3648   -5.3625    0.0000 C   0  0  0  0  0  0  0  0  0  0  0  0
    7.3648   -4.5375    0.0000 C   0  0  0  0  0  0  0  0  0  0  0  0
    6.6503   -4.1250    0.0000 C   0  0  1  0  0  0  0  0  0  0  0  0
    5.9359   -4.5375    0.0000 C   0  0  2  0  0  0  0  0  0  0  0  0
    4.5069  -10.3125    0.0000 O   0  0  0  0  0  0  0  0  0  0  0  0
    5.2214  -10.7250    0.0000 C   0  0  1  0  0  0  0  0  0  0  0  0
    5.9359  -10.3125    0.0000 O   0  0  0  0  0  0  0  0  0  0  0  0
    3.7925  -10.7250    0.0000 C   0  0  1  0  0  0  0  0  0  0  0  0
    3.7925  -11.5500    0.0000 C   0  0  2  0  0  0  0  0  0  0  0  0
    4.5069  -11.9625    0.0000 C   0  0  1  0  0  0  0  0  0  0  0  0
    5.2214  -11.5500    0.0000 C   0  0  1  0  0  0  0  0  0  0  0  0
    4.5069  -12.7875    0.0000 O   0  0  0  0  0  0  0  0  0  0  0  0
    5.2214  -13.2000    0.0000 O   0  0  0  0  0  0  0  0  0  0  0  0
    5.9359  -12.7875    0.0000 C   0  0  1  0  0  0  0  0  0  0  0  0
    5.9359  -11.9625    0.0000 O   0  0  0  0  0  0  0  0  0  0  0  0
    5.2214  -14.0250    0.0000 C   0  0  0  0  0  0  0  0  0  0  0  0
    5.9359  -14.4375    0.0000 C   0  0  2  0  0  0  0  0  0  0  0  0
    6.6503  -14.0250    0.0000 C   0  0  1  0  0  0  0  0  0  0  0  0
    6.6503  -13.2000    0.0000 C   0  0  1  0  0  0  0  0  0  0  0  0
    6.2378   -3.4105    0.0000 C   0  0  0  0  0  0  0  0  0  0  0  0
    7.0628   -3.4105    0.0000 C   0  0  0  0  0  0  0  0  0  0  0  0
    6.6503   -2.6961    0.0000 O   0  0  0  0  0  0  0  0  0  0  0  0
    7.8878   -3.4105    0.0000 C   0  0  0  0  0  0  0  0  0  0  0  0
    8.3003   -2.6961    0.0000 C   0  0  0  0  0  0  0  0  0  0  0  0
    9.1253   -2.6961    0.0000 C   0  0  0  0  0  0  0  0  0  0  0  0
    9.5378   -1.9816    0.0000 C   0  0  0  0  0  0  0  0  0  0  0  0
    9.5378   -3.4105    0.0000 C   0  0  0  0  0  0  0  0  0  0  0  0
   10.3628   -3.4105    0.0000 O   0  0  0  0  0  0  0  0  0  0  0  0
    7.4753   -9.0750    0.0000 C   0  0  0  0  0  0  0  0  0  0  0  0
    7.8878   -9.7895    0.0000 O   0  0  0  0  0  0  0  0  0  0  0  0
    8.7128   -9.7895    0.0000 C   0  0  1  0  0  0  0  0  0  0  0  0
    9.1253  -10.5039    0.0000 C   0  0  1  0  0  0  0  0  0  0  0  0
    9.9503  -10.5039    0.0000 C   0  0  2  0  0  0  0  0  0  0  0  0
   10.3628   -9.7895    0.0000 C   0  0  1  0  0  0  0  0  0  0  0  0
    9.9503   -9.0750    0.0000 C   0  0  2  0  0  0  0  0  0  0  0  0
    9.1253   -9.0750    0.0000 O   0  0  0  0  0  0  0  0  0  0  0  0
   10.3628   -8.3605    0.0000 C   0  0  0  0  0  0  0  0  0  0  0  0
   11.1878   -8.3605    0.0000 O   0  0  0  0  0  0  0  0  0  0  0  0
    3.0780  -10.3125    0.0000 C   0  0  0  0  0  0  0  0  0  0  0  0
    2.3635  -10.7250    0.0000 O   0  0  0  0  0  0  0  0  0  0  0  0
    5.2214   -4.1250    0.0000 O   0  0  0  0  0  0  0  0  0  0  0  0
    5.5514   -5.1356    0.0000 H   0  0  0  0  0  0  0  0  0  0  0  0
    7.4753   -6.6000    0.0000 C   0  0  0  0  0  0  0  0  0  0  0  0
    5.2214   -7.4250    0.0000 C   0  0  0  0  0  0  0  0  0  0  0  0
    7.0628   -9.7895    0.0000 C   0  0  0  0  0  0  0  0  0  0  0  0
    7.3648  -14.4375    0.0000 O   0  0  0  0  0  0  0  0  0  0  0  0
    3.0780  -11.9625    0.0000 O   0  0  0  0  0  0  0  0  0  0  0  0
    7.3648  -12.7875    0.0000 O   0  0  0  0  0  0  0  0  0  0  0  0
    5.9359  -15.2625    0.0000 O   0  0  0  0  0  0  0  0  0  0  0  0
   10.3628  -11.2184    0.0000 O   0  0  0  0  0  0  0  0  0  0  0  0
    7.4753   -5.7750    0.0000 C   0  0  0  0  0  0  0  0  0  0  0  0
    6.2997   -7.2188    0.0000 H   0  0  0  0  0  0  0  0  0  0  0  0
    7.0348   -8.4769    0.0000 H   0  0  0  0  0  0  0  0  0  0  0  0
   11.1878   -9.7895    0.0000 O   0  0  0  0  0  0  0  0  0  0  0  0
    8.7128  -11.2184    0.0000 O   0  0  0  0  0  0  0  0  0  0  0  0
  1  2  1  0  0  0  0
  2  3  1  0  0  0  0
  3  4  1  0  0  0  0
  4  5  1  0  0  0  0
  5  6  1  0  0  0  0
  6  1  1  0  0  0  0
  5  7  1  0  0  0  0
  7  8  1  0  0  0  0
  8  9  1  0  0  0  0
  9 10  1  0  0  0  0
 10  6  1  0  0  0  0
  9 11  1  0  0  0  0
 11 12  1  0  0  0  0
 12 13  1  0  0  0  0
 13 14  1  0  0  0  0
 14 10  1  0  0  0  0
 11 15  1  0  0  0  0
 15 16  1  0  0  0  0
 16 17  1  0  0  0  0
 17 18  1  0  0  0  0
 18 12  1  0  0  0  0
 19 20  1  0  0  0  0
 20 21  1  1  0  0  0
  3 21  1  1  0  0  0
 19 22  1  0  0  0  0
 22 23  1  0  0  0  0
 23 24  1  0  0  0  0
 24 25  1  0  0  0  0
 25 20  1  0  0  0  0
 24 26  1  1  0  0  0
 27 28  1  0  0  0  0
 28 29  1  1  0  0  0
 25 29  1  6  0  0  0
 27 30  1  0  0  0  0
 30 31  1  0  0  0  0
 31 32  1  0  0  0  0
 32 33  1  0  0  0  0
 33 28  1  0  0  0  0
 17 34  1  0  0  0  0
 17 35  1  6  0  0  0
 34 36  1  0  0  0  0
 35 37  1  0  0  0  0
 37 38  1  0  0  0  0
 38 39  2  0  0  0  0
 39 40  1  0  0  0  0
 39 41  1  0  0  0  0
 41 42  1  0  0  0  0
  4 43  1  0  0  0  0
 43 44  1  0  0  0  0
 45 44  1  6  0  0  0
 45 46  1  0  0  0  0
 46 47  1  0  0  0  0
 47 48  1  0  0  0  0
 48 49  1  0  0  0  0
 49 50  1  0  0  0  0
 50 45  1  0  0  0  0
 49 51  1  6  0  0  0
 51 52  1  0  0  0  0
 22 53  1  1  0  0  0
 53 54  1  0  0  0  0
 18 55  1  1  0  0  0
 12 56  1  1  0  0  0
  9 57  1  1  0  0  0
  6 58  1  1  0  0  0
  4 59  1  1  0  0  0
 32 60  1  1  0  0  0
 23 61  1  6  0  0  0
 33 62  1  6  0  0  0
 31 63  1  6  0  0  0
 47 64  1  6  0  0  0
 11 65  1  6  0  0  0
 10 66  1  6  0  0  0
  5 67  1  6  0  0  0
 48 68  1  1  0  0  0
 46 69  1  1  0  0  0
M  END
>  <cdx:fragmentId>
5

$$$$
