911566.cdx
  Mrv1902 05222410242D          

 22 24  0  0  0  0            999 V2000
    5.4450  -11.9075    0.0000 C   0  0  0  0  0  0  0  0  0  0  0  0
    6.4746  -11.6698    0.0000 C   0  0  0  0  0  0  0  0  0  0  0  0
    7.4250  -12.1275    0.0000 C   0  0  0  0  0  0  0  0  0  0  0  0
    5.7200  -11.2475    0.0000 C   0  0  0  0  0  0  0  0  0  0  0  0
    7.8650  -11.4400    0.0000 C   0  0  0  0  0  0  0  0  0  0  0  0
    7.0561  -11.0846    0.0000 C   0  0  0  0  0  0  0  0  0  0  0  0
    6.4350  -10.6150    0.0000 O   0  0  0  0  0  0  0  0  0  0  0  0
    7.0350  -10.3986    0.0000 C   0  0  0  0  0  0  0  0  0  0  0  0
    6.0621  -12.3843    0.0000 C   0  0  0  0  0  0  0  0  0  0  0  0
    7.4490   -9.7144    0.0000 C   0  0  0  0  0  0  0  0  0  0  0  0
    7.7333   -6.9183    0.0000 C   0  0  2  0  0  0  0  0  0  0  0  0
    7.0139   -6.5144    0.0000 C   0  0  2  0  0  0  0  0  0  0  0  0
    6.3044   -6.9354    0.0000 C   0  0  1  0  0  0  0  0  0  0  0  0
    6.3143   -7.7604    0.0000 C   0  0  2  0  0  0  0  0  0  0  0  0
    7.0337   -8.1643    0.0000 C   0  0  1  0  0  0  0  0  0  0  0  0
    7.7432   -7.7432    0.0000 O   0  0  0  0  0  0  0  0  0  0  0  0
    7.0436   -8.9892    0.0000 O   0  0  0  0  0  0  0  0  0  0  0  0
    5.6049   -8.1814    0.0000 O   0  0  0  0  0  0  0  0  0  0  0  0
    5.5851   -6.5315    0.0000 O   0  0  0  0  0  0  0  0  0  0  0  0
    7.0040   -5.6894    0.0000 O   0  0  0  0  0  0  0  0  0  0  0  0
    8.4427   -6.4972    0.0000 C   0  0  0  0  0  0  0  0  0  0  0  0
    8.4328   -5.6723    0.0000 O   0  0  0  0  0  0  0  0  0  0  0  0
  1  2  1  0  0  0  0
  2  3  1  0  0  0  0
  1  4  1  0  0  0  0
  3  5  1  0  0  0  0
  4  6  1  0  0  0  0
  6  5  1  0  0  0  0
  2  7  1  0  0  0  0
  6  8  1  0  0  0  0
  8  7  1  0  0  0  0
  2  9  1  0  0  0  0
  8 10  1  0  0  0  0
 11 12  1  0  0  0  0
 12 13  1  0  0  0  0
 13 14  1  0  0  0  0
 14 15  1  0  0  0  0
 15 16  1  0  0  0  0
 16 11  1  0  0  0  0
 15 17  1  1  0  0  0
 14 18  1  6  0  0  0
 13 19  1  1  0  0  0
 12 20  1  6  0  0  0
 11 21  1  1  0  0  0
 21 22  1  0  0  0  0
 17 10  1  0  0  0  0
M  END
>  <cdx:fragmentId>
802

$$$$
