91150.cdx
  Mrv1902 05222410242D          

 28 32  0  0  0  0            999 V2000
    5.4849  -11.8167    0.0000 C   0  0  0  0  0  0  0  0  0  0  0  0
    5.9640  -12.4883    0.0000 C   0  0  0  0  0  0  0  0  0  0  0  0
    6.7508  -12.2401    0.0000 N   0  3  0  0  0  0  0  0  0  0  0  0
    6.7579  -11.4151    0.0000 C   0  0  1  0  0  0  0  0  0  0  0  0
    5.9755  -11.1535    0.0000 C   0  0  2  0  0  0  0  0  0  0  0  0
    7.5332  -12.5018    0.0000 C   0  0  0  0  0  0  0  0  0  0  0  0
    8.0238  -11.8385    0.0000 C   0  0  0  0  0  0  0  0  0  0  0  0
    7.5447  -11.1670    0.0000 C   0  0  0  0  0  0  0  0  0  0  0  0
    7.5447  -10.3420    0.0000 C   0  0  0  0  0  0  0  0  0  0  0  0
    8.2592   -9.9295    0.0000 O   0  0  0  0  0  0  0  0  0  0  0  0
    8.2592   -9.1045    0.0000 C   0  0  0  0  0  0  0  0  0  0  0  0
    8.9736   -8.6920    0.0000 O   0  0  0  0  0  0  0  0  0  0  0  0
    7.5447   -8.6920    0.0000 C   0  0  0  0  0  0  0  0  0  0  0  0
    6.8302   -9.1045    0.0000 C   0  0  0  0  0  0  0  0  0  0  0  0
    7.5447   -7.8670    0.0000 C   0  0  0  0  0  0  0  0  0  0  0  0
    7.5447   -9.5170    0.0000 O   0  0  0  0  0  0  0  0  0  0  0  0
    6.8302   -8.2795    0.0000 C   0  0  0  0  0  0  0  0  0  0  0  0
    6.1157   -7.8670    0.0000 O   0  0  0  0  0  0  0  0  0  0  0  0
    5.4013   -8.2795    0.0000 C   0  0  0  0  0  0  0  0  0  0  0  0
    4.6868   -7.8670    0.0000 C   0  0  0  0  0  0  0  0  0  0  0  0
    5.4013   -9.1045    0.0000 C   0  0  0  0  0  0  0  0  0  0  0  0
    6.1157   -9.5170    0.0000 C   0  0  0  0  0  0  0  0  0  0  0  0
    5.4013   -9.9295    0.0000 C   0  0  0  0  0  0  0  0  0  0  0  0
    4.6868   -8.6920    0.0000 O   0  0  0  0  0  0  0  0  0  0  0  0
    6.0057  -10.4382    0.0000 O   0  0  0  0  0  0  0  0  0  0  0  0
    4.6868  -10.3420    0.0000 O   0  0  0  0  0  0  0  0  0  0  0  0
    6.7650  -10.5902    0.0000 H   0  0  0  0  0  0  0  0  0  0  0  0
    6.7508  -13.0651    0.0000 O   0  5  0  0  0  0  0  0  0  0  0  0
  1  2  1  0  0  0  0
  2  3  1  0  0  0  0
  3  4  1  0  0  0  0
  4  5  1  0  0  0  0
  5  1  1  0  0  0  0
  3  6  1  0  0  0  0
  6  7  1  0  0  0  0
  7  8  2  0  0  0  0
  8  4  1  0  0  0  0
  8  9  1  0  0  0  0
  9 10  1  0  0  0  0
 10 11  1  0  0  0  0
 11 12  2  0  0  0  0
 11 13  1  0  0  0  0
 13 14  1  0  0  0  0
 13 15  1  0  0  0  0
 13 16  1  0  0  0  0
 14 17  1  0  0  0  0
 17 18  1  0  0  0  0
 18 19  1  0  0  0  0
 19 20  1  0  0  0  0
 19 21  1  0  0  0  0
 21 22  1  0  0  0  0
 22 14  1  0  0  0  0
 14 16  1  0  0  0  0
 21 23  1  0  0  0  0
 21 24  1  0  0  0  0
 23 25  1  0  0  0  0
 23 26  2  0  0  0  0
  5 25  1  1  0  0  0
  4 27  1  6  0  0  0
  3 28  1  0  0  0  0
M  CHG  2   3   1  28  -1
M  END
>  <cdx:fragmentId>
5

$$$$
