91164.cdx
  Mrv1902 05222410222D          

 34 37  0  0  0  0            999 V2000
    4.7006   -9.6239    0.0000 C   0  0  0  0  0  0  0  0  0  0  0  0
    4.7006  -10.4489    0.0000 C   0  0  0  0  0  0  0  0  0  0  0  0
    5.4150  -10.8614    0.0000 C   0  0  0  0  0  0  0  0  0  0  0  0
    6.1295  -10.4489    0.0000 C   0  0  0  0  0  0  0  0  0  0  0  0
    6.1295   -9.6239    0.0000 C   0  0  0  0  0  0  0  0  0  0  0  0
    5.4150   -9.2114    0.0000 C   0  0  0  0  0  0  0  0  0  0  0  0
    6.8440  -10.8614    0.0000 C   0  0  0  0  0  0  0  0  0  0  0  0
    7.5584  -10.4489    0.0000 C   0  0  0  0  0  0  0  0  0  0  0  0
    7.5584   -9.6239    0.0000 C   0  0  0  0  0  0  0  0  0  0  0  0
    6.8440   -9.2114    0.0000 O   0  0  0  0  0  0  0  0  0  0  0  0
    5.4150  -11.6864    0.0000 O   0  0  0  0  0  0  0  0  0  0  0  0
    6.8440  -11.6864    0.0000 O   0  0  0  0  0  0  0  0  0  0  0  0
    8.2729  -10.8614    0.0000 O   0  0  0  0  0  0  0  0  0  0  0  0
    8.9874   -9.6239    0.0000 C   0  0  0  0  0  0  0  0  0  0  0  0
    8.2729   -9.2114    0.0000 C   0  0  0  0  0  0  0  0  0  0  0  0
    9.7019   -9.2114    0.0000 C   0  0  0  0  0  0  0  0  0  0  0  0
    9.7019   -8.3864    0.0000 C   0  0  0  0  0  0  0  0  0  0  0  0
    8.9874   -7.9739    0.0000 C   0  0  0  0  0  0  0  0  0  0  0  0
    8.2729   -8.3864    0.0000 C   0  0  0  0  0  0  0  0  0  0  0  0
   11.1308   -8.3864    0.0000 C   0  0  0  0  0  0  0  0  0  0  0  0
   10.4163   -7.9739    0.0000 O   0  0  0  0  0  0  0  0  0  0  0  0
    3.9861   -9.2114    0.0000 O   0  0  0  0  0  0  0  0  0  0  0  0
    8.2729  -11.6864    0.0000 C   0  0  2  0  0  0  0  0  0  0  0  0
    7.5584  -12.0989    0.0000 O   0  0  0  0  0  0  0  0  0  0  0  0
    7.5584  -12.9239    0.0000 C   0  0  1  0  0  0  0  0  0  0  0  0
    8.2729  -13.3364    0.0000 C   0  0  2  0  0  0  0  0  0  0  0  0
    8.9874  -12.9239    0.0000 C   0  0  1  0  0  0  0  0  0  0  0  0
    8.9874  -12.0989    0.0000 C   0  0  1  0  0  0  0  0  0  0  0  0
    6.8440  -13.3364    0.0000 C   0  0  0  0  0  0  0  0  0  0  0  0
    9.7019  -13.3364    0.0000 O   0  0  0  0  0  0  0  0  0  0  0  0
    8.2729  -14.1614    0.0000 O   0  0  0  0  0  0  0  0  0  0  0  0
    9.7019  -11.6864    0.0000 O   0  0  0  0  0  0  0  0  0  0  0  0
    6.1295  -12.9239    0.0000 O   0  0  0  0  0  0  0  0  0  0  0  0
    6.8440  -14.1614    0.0000 O   0  0  0  0  0  0  0  0  0  0  0  0
  1  2  2  0  0  0  0
  2  3  1  0  0  0  0
  3  4  2  0  0  0  0
  4  5  1  0  0  0  0
  5  6  2  0  0  0  0
  6  1  1  0  0  0  0
  4  7  1  0  0  0  0
  7  8  1  0  0  0  0
  8  9  2  0  0  0  0
  9 10  1  0  0  0  0
 10  5  1  0  0  0  0
  3 11  1  0  0  0  0
 12  7  2  0  0  0  0
  8 13  1  0  0  0  0
 14 15  2  0  0  0  0
 15  9  1  0  0  0  0
 14 16  1  0  0  0  0
 16 17  2  0  0  0  0
 17 18  1  0  0  0  0
 18 19  2  0  0  0  0
 19 15  1  0  0  0  0
 20 21  1  0  0  0  0
 21 17  1  0  0  0  0
  1 22  1  0  0  0  0
 23 13  1  1  0  0  0
 23 24  1  0  0  0  0
 24 25  1  0  0  0  0
 25 26  1  0  0  0  0
 26 27  1  0  0  0  0
 27 28  1  0  0  0  0
 28 23  1  0  0  0  0
 25 29  1  1  0  0  0
 27 30  1  1  0  0  0
 26 31  1  6  0  0  0
 28 32  1  6  0  0  0
 29 33  2  0  0  0  0
 29 34  1  0  0  0  0
M  END
>  <cdx:fragmentId>
5

$$$$
