91165.cdx
  Mrv1902 05222410222D          

 43 47  0  0  0  0            999 V2000
    5.2918   -8.4551    0.0000 C   0  0  0  0  0  0  0  0  0  0  0  0
    5.2918   -9.2801    0.0000 C   0  0  0  0  0  0  0  0  0  0  0  0
    6.0063   -9.6926    0.0000 C   0  0  0  0  0  0  0  0  0  0  0  0
    6.7207   -9.2801    0.0000 C   0  0  0  0  0  0  0  0  0  0  0  0
    6.7207   -8.4551    0.0000 C   0  0  0  0  0  0  0  0  0  0  0  0
    6.0063   -8.0426    0.0000 C   0  0  0  0  0  0  0  0  0  0  0  0
    7.4352   -9.6926    0.0000 C   0  0  0  0  0  0  0  0  0  0  0  0
    8.1497   -9.2801    0.0000 C   0  0  0  0  0  0  0  0  0  0  0  0
    8.1497   -8.4551    0.0000 C   0  0  0  0  0  0  0  0  0  0  0  0
    7.4352   -8.0426    0.0000 O   0  0  0  0  0  0  0  0  0  0  0  0
    6.0063  -10.5176    0.0000 O   0  0  0  0  0  0  0  0  0  0  0  0
    7.4352  -10.5176    0.0000 O   0  0  0  0  0  0  0  0  0  0  0  0
    8.8642   -9.6926    0.0000 O   0  0  0  0  0  0  0  0  0  0  0  0
    9.5786   -8.4551    0.0000 C   0  0  0  0  0  0  0  0  0  0  0  0
    8.8642   -8.0426    0.0000 C   0  0  0  0  0  0  0  0  0  0  0  0
   10.2931   -8.0426    0.0000 C   0  0  0  0  0  0  0  0  0  0  0  0
   10.2931   -7.2176    0.0000 C   0  0  0  0  0  0  0  0  0  0  0  0
    9.5786   -6.8051    0.0000 C   0  0  0  0  0  0  0  0  0  0  0  0
    8.8642   -7.2176    0.0000 C   0  0  0  0  0  0  0  0  0  0  0  0
   11.0076   -6.8051    0.0000 O   0  0  0  0  0  0  0  0  0  0  0  0
    4.5773   -8.0426    0.0000 O   0  0  0  0  0  0  0  0  0  0  0  0
    8.8642  -10.5176    0.0000 C   0  0  0  0  0  0  0  0  0  0  0  0
    8.1497  -10.9301    0.0000 O   0  0  0  0  0  0  0  0  0  0  0  0
    8.1497  -11.7551    0.0000 C   0  0  0  0  0  0  0  0  0  0  0  0
    8.8642  -12.1676    0.0000 C   0  0  0  0  0  0  0  0  0  0  0  0
    9.5786  -11.7551    0.0000 C   0  0  0  0  0  0  0  0  0  0  0  0
    9.5786  -10.9301    0.0000 C   0  0  0  0  0  0  0  0  0  0  0  0
    7.4352  -12.1676    0.0000 C   0  0  0  0  0  0  0  0  0  0  0  0
   10.2931  -12.1676    0.0000 O   0  0  0  0  0  0  0  0  0  0  0  0
    8.8642  -12.9926    0.0000 O   0  0  0  0  0  0  0  0  0  0  0  0
   10.2931  -10.5176    0.0000 O   0  0  0  0  0  0  0  0  0  0  0  0
    7.4352  -12.9926    0.0000 O   0  0  0  0  0  0  0  0  0  0  0  0
    3.8629   -8.4551    0.0000 C   0  0  0  0  0  0  0  0  0  0  0  0
    3.1484   -8.0426    0.0000 O   0  0  0  0  0  0  0  0  0  0  0  0
    2.4339   -8.4551    0.0000 C   0  0  0  0  0  0  0  0  0  0  0  0
    2.4339   -9.2801    0.0000 C   0  0  0  0  0  0  0  0  0  0  0  0
    3.1484   -9.6926    0.0000 C   0  0  0  0  0  0  0  0  0  0  0  0
    3.8629   -9.2801    0.0000 C   0  0  0  0  0  0  0  0  0  0  0  0
    4.5773   -9.6926    0.0000 O   0  0  0  0  0  0  0  0  0  0  0  0
    3.1484  -10.5176    0.0000 O   0  0  0  0  0  0  0  0  0  0  0  0
    1.7194   -9.6926    0.0000 O   0  0  0  0  0  0  0  0  0  0  0  0
    1.7194   -8.0426    0.0000 C   0  0  0  0  0  0  0  0  0  0  0  0
    1.0050   -8.4551    0.0000 O   0  0  0  0  0  0  0  0  0  0  0  0
  1  2  2  0  0  0  0
  2  3  1  0  0  0  0
  3  4  2  0  0  0  0
  4  5  1  0  0  0  0
  5  6  2  0  0  0  0
  6  1  1  0  0  0  0
  4  7  1  0  0  0  0
  7  8  1  0  0  0  0
  8  9  2  0  0  0  0
  9 10  1  0  0  0  0
 10  5  1  0  0  0  0
  3 11  1  0  0  0  0
 12  7  2  0  0  0  0
  8 13  1  0  0  0  0
 14 15  2  0  0  0  0
 15  9  1  0  0  0  0
 14 16  1  0  0  0  0
 16 17  2  0  0  0  0
 17 18  1  0  0  0  0
 18 19  2  0  0  0  0
 19 15  1  0  0  0  0
 20 17  1  0  0  0  0
  1 21  1  0  0  0  0
 13 22  1  0  0  0  0
 22 23  1  0  0  0  0
 23 24  1  0  0  0  0
 24 25  1  0  0  0  0
 25 26  1  0  0  0  0
 26 27  1  0  0  0  0
 27 22  1  0  0  0  0
 24 28  1  0  0  0  0
 26 29  1  0  0  0  0
 25 30  1  0  0  0  0
 27 31  1  0  0  0  0
 28 32  1  0  0  0  0
 21 33  1  0  0  0  0
 33 34  1  0  0  0  0
 34 35  1  0  0  0  0
 35 36  1  0  0  0  0
 36 37  1  0  0  0  0
 37 38  1  0  0  0  0
 38 33  1  0  0  0  0
 38 39  1  0  0  0  0
 37 40  1  0  0  0  0
 36 41  1  0  0  0  0
 35 42  1  0  0  0  0
 42 43  1  0  0  0  0
M  END
>  <cdx:fragmentId>
5

$$$$
