91177.cdx
  Mrv1902 05222410202D          

 14 13  0  0  0  0            999 V2000
    2.9675   -5.4164    0.0000 C   0  0  0  0  0  0  0  0  0  0  0  0
    3.6820   -5.0039    0.0000 O   0  0  0  0  0  0  0  0  0  0  0  0
    4.3965   -5.4164    0.0000 C   0  0  0  0  0  0  0  0  0  0  0  0
    5.1109   -5.0039    0.0000 C   0  0  0  0  0  0  0  0  0  0  0  0
    5.8254   -5.4164    0.0000 C   0  0  0  0  0  0  0  0  0  0  0  0
    6.5399   -5.0039    0.0000 C   0  0  0  0  0  0  0  0  0  0  0  0
    7.2544   -5.4164    0.0000 C   0  0  0  0  0  0  0  0  0  0  0  0
    7.9688   -5.0039    0.0000 C   0  0  0  0  0  0  0  0  0  0  0  0
    8.6833   -5.4164    0.0000 C   0  0  0  0  0  0  0  0  0  0  0  0
    9.3978   -5.0039    0.0000 C   0  0  0  0  0  0  0  0  0  0  0  0
   10.1122   -5.4164    0.0000 C   0  0  0  0  0  0  0  0  0  0  0  0
   10.8267   -5.0039    0.0000 C   0  0  0  0  0  0  0  0  0  0  0  0
   11.5412   -5.4164    0.0000 C   0  0  0  0  0  0  0  0  0  0  0  0
    4.3965   -6.2414    0.0000 O   0  0  0  0  0  0  0  0  0  0  0  0
  1  2  1  0  0  0  0
  2  3  1  0  0  0  0
  3  4  1  0  0  0  0
  4  5  1  0  0  0  0
  5  6  1  0  0  0  0
  6  7  1  0  0  0  0
  7  8  1  0  0  0  0
  8  9  1  0  0  0  0
  9 10  1  0  0  0  0
 10 11  1  0  0  0  0
 11 12  1  0  0  0  0
 12 13  1  0  0  0  0
  3 14  2  0  0  0  0
M  END
>  <cdx:fragmentId>
3

$$$$
