91175.cdx
  Mrv1902 05222410212D          

 34 38  0  0  0  0            999 V2000
    6.0383  -11.8136    0.0000 C   0  0  1  0  0  0  0  0  0  0  0  0
    6.3391  -12.5818    0.0000 C   0  0  0  0  0  0  0  0  0  0  0  0
    7.1273  -12.8255    0.0000 C   0  0  0  0  0  0  0  0  0  0  0  0
    7.8093  -12.3613    0.0000 C   0  0  0  0  0  0  0  0  0  0  0  0
    7.8715  -11.5386    0.0000 C   0  0  0  0  0  0  0  0  0  0  0  0
    7.2671  -10.9771    0.0000 N   0  0  0  0  0  0  0  0  0  0  0  0
    6.4513  -11.0995    0.0000 C   0  0  1  0  0  0  0  0  0  0  0  0
    6.0393  -10.3847    0.0000 C   0  0  1  0  0  0  0  0  0  0  0  0
    5.2143  -10.3841    0.0000 C   0  0  1  0  0  0  0  0  0  0  0  0
    4.8013  -11.0983    0.0000 C   0  0  1  0  0  0  0  0  0  0  0  0
    5.2133  -11.8131    0.0000 C   0  0  2  0  0  0  0  0  0  0  0  0
    4.6627   -9.7706    0.0000 C   0  0  1  0  0  0  0  0  0  0  0  0
    3.9087  -10.1057    0.0000 C   0  0  0  0  0  0  0  0  0  0  0  0
    3.9944  -10.9262    0.0000 O   0  0  0  0  0  0  0  0  0  0  0  0
    7.3571  -10.1095    0.0000 C   0  0  1  0  0  0  0  0  0  0  0  0
    6.6111   -9.7743    0.0000 C   0  0  0  0  0  0  0  0  0  0  0  0
    3.1946   -9.6927    0.0000 O   0  0  0  0  0  0  0  0  0  0  0  0
    4.8003  -12.5272    0.0000 C   0  0  0  0  0  0  0  0  0  0  0  0
    3.9753  -12.5272    0.0000 C   0  0  0  0  0  0  0  0  0  0  0  0
   10.1983   -9.5112    0.0000 C   0  0  0  0  0  0  0  0  0  0  0  0
    7.4887   -9.1144    0.0000 H   0  0  0  0  0  0  0  0  0  0  0  0
    9.3031   -7.9537    0.0000 O   0  0  0  0  0  0  0  0  0  0  0  0
    8.8300  -10.0232    0.0000 C   0  0  0  0  0  0  0  0  0  0  0  0
    5.9227   -9.5680    0.0000 H   0  0  0  0  0  0  0  0  0  0  0  0
    9.3781   -9.4219    0.0000 C   0  0  1  0  0  0  0  0  0  0  0  0
    8.9665   -8.7069    0.0000 C   0  0  0  0  0  0  0  0  0  0  0  0
    8.1593   -8.8774    0.0000 O   0  0  0  0  0  0  0  0  0  0  0  0
    8.0720   -9.6978    0.0000 C   0  0  2  0  0  0  0  0  0  0  0  0
    4.8347   -8.9638    0.0000 C   0  0  0  0  0  0  0  0  0  0  0  0
    5.3131   -9.5651    0.0000 H   0  0  0  0  0  0  0  0  0  0  0  0
    4.3159  -11.7654    0.0000 H   0  0  0  0  0  0  0  0  0  0  0  0
    5.7308  -12.5792    0.0000 H   0  0  0  0  0  0  0  0  0  0  0  0
    6.9155  -11.7814    0.0000 H   0  0  0  0  0  0  0  0  0  0  0  0
    7.1436   -9.3126    0.0000 H   0  0  0  0  0  0  0  0  0  0  0  0
  1  2  1  0  0  0  0
  2  3  1  0  0  0  0
  3  4  1  0  0  0  0
  4  5  1  0  0  0  0
  5  6  1  0  0  0  0
  6  7  1  0  0  0  0
  7  1  1  0  0  0  0
  7  8  1  0  0  0  0
  8  9  1  0  0  0  0
  9 10  1  0  0  0  0
 10 11  1  0  0  0  0
 11  1  1  0  0  0  0
  9 12  1  0  0  0  0
 12 13  1  0  0  0  0
 13 14  1  0  0  0  0
 14 10  1  0  0  0  0
  6 15  1  0  0  0  0
 15 16  1  0  0  0  0
 16  8  1  0  0  0  0
 13 17  2  0  0  0  0
 11 18  1  1  0  0  0
 18 19  1  0  0  0  0
 25 20  1  1  0  0  0
 15 28  1  0  0  0  0
 28 21  1  6  0  0  0
 26 22  2  0  0  0  0
 23 28  1  0  0  0  0
 25 23  1  0  0  0  0
 26 25  1  0  0  0  0
 27 26  1  0  0  0  0
 28 27  1  0  0  0  0
  8 24  1  6  0  0  0
 12 29  1  1  0  0  0
  9 30  1  6  0  0  0
 10 31  1  6  0  0  0
  1 32  1  1  0  0  0
  7 33  1  1  0  0  0
 15 34  1  6  0  0  0
M  END
>  <cdx:fragmentId>
5

$$$$
