91179.cdx
  Mrv1902 05222410252D          

 16 16  0  0  0  0            999 V2000
    8.1454   -7.4808    0.0000 C   0  0  0  0  0  0  0  0  0  0  0  0
    8.1425   -6.6558    0.0000 C   0  0  0  0  0  0  0  0  0  0  0  0
    7.4267   -6.2458    0.0000 C   0  0  0  0  0  0  0  0  0  0  0  0
    6.7136   -6.6607    0.0000 C   0  0  0  0  0  0  0  0  0  0  0  0
    6.7164   -7.4857    0.0000 C   0  0  0  0  0  0  0  0  0  0  0  0
    7.4323   -7.8958    0.0000 C   0  0  0  0  0  0  0  0  0  0  0  0
    6.7080   -5.0107    0.0000 O   0  0  0  0  0  0  0  0  0  0  0  0
    8.1369   -5.0058    0.0000 O   0  0  0  0  0  0  0  0  0  0  0  0
    7.4238   -5.4208    0.0000 C   0  0  0  0  0  0  0  0  0  0  0  0
    8.8612   -7.8909    0.0000 O   0  0  0  0  0  0  0  0  0  0  0  0
    9.5743   -7.4759    0.0000 C   0  0  0  0  0  0  0  0  0  0  0  0
    7.4351   -8.7207    0.0000 O   0  0  0  0  0  0  0  0  0  0  0  0
    6.7221   -9.1357    0.0000 S   0  0  0  0  0  0  0  0  0  0  0  0
    7.1370   -9.8487    0.0000 O   0  0  0  0  0  0  0  0  0  0  0  0
    6.3071   -8.4226    0.0000 O   0  0  0  0  0  0  0  0  0  0  0  0
    6.0090   -9.5506    0.0000 O   0  0  0  0  0  0  0  0  0  0  0  0
  1  2  2  0  0  0  0
  2  3  1  0  0  0  0
  3  4  2  0  0  0  0
  4  5  1  0  0  0  0
  5  6  2  0  0  0  0
  6  1  1  0  0  0  0
  9  7  2  0  0  0  0
  3  9  1  0  0  0  0
  9  8  1  0  0  0  0
  1 10  1  0  0  0  0
 10 11  1  0  0  0  0
  6 12  1  0  0  0  0
 12 13  1  0  0  0  0
 13 14  2  0  0  0  0
 13 15  2  0  0  0  0
 13 16  1  0  0  0  0
M  END
>  <cdx:fragmentId>
5

$$$$
