91173.cdx
  Mrv1902 05222410232D          

 49 52  0  0  0  0            999 V2000
    6.4881   -7.9876    0.0000 C   0  0  0  0  0  0  0  0  0  0  0  0
    6.4881   -8.8126    0.0000 C   0  0  2  0  0  0  0  0  0  0  0  0
    7.2025   -9.2251    0.0000 C   0  0  0  0  0  0  0  0  0  0  0  0
    7.9170   -8.8126    0.0000 C   0  0  1  0  0  0  0  0  0  0  0  0
    7.9170   -7.9876    0.0000 C   0  0  0  0  0  0  0  0  0  0  0  0
    7.2025   -7.5751    0.0000 C   0  0  0  0  0  0  0  0  0  0  0  0
    8.6315   -9.2251    0.0000 O   0  0  0  0  0  0  0  0  0  0  0  0
    9.3459   -8.8126    0.0000 C   0  0  0  0  0  0  0  0  0  0  0  0
    9.3459   -7.9876    0.0000 O   0  0  0  0  0  0  0  0  0  0  0  0
   10.0604   -9.2251    0.0000 C   0  0  0  0  0  0  0  0  0  0  0  0
   10.7749   -8.8126    0.0000 C   0  0  0  0  0  0  0  0  0  0  0  0
   11.4894  -10.0501    0.0000 C   0  0  0  0  0  0  0  0  0  0  0  0
   11.4894   -9.2251    0.0000 C   0  0  0  0  0  0  0  0  0  0  0  0
   12.2038  -10.4626    0.0000 C   0  0  0  0  0  0  0  0  0  0  0  0
   12.9183  -10.0501    0.0000 C   0  0  0  0  0  0  0  0  0  0  0  0
   12.9183   -9.2251    0.0000 C   0  0  0  0  0  0  0  0  0  0  0  0
   12.2038   -8.8126    0.0000 C   0  0  0  0  0  0  0  0  0  0  0  0
    5.0591   -7.9876    0.0000 O   0  0  0  0  0  0  0  0  0  0  0  0
    5.0591   -8.8126    0.0000 C   0  0  0  0  0  0  0  0  0  0  0  0
    5.7736   -9.2251    0.0000 O   0  0  0  0  0  0  0  0  0  0  0  0
    3.6302   -8.8126    0.0000 C   0  0  0  0  0  0  0  0  0  0  0  0
    4.3446   -9.2251    0.0000 C   0  0  0  0  0  0  0  0  0  0  0  0
    2.9157   -9.2251    0.0000 C   0  0  0  0  0  0  0  0  0  0  0  0
    2.9157  -10.0501    0.0000 C   0  0  0  0  0  0  0  0  0  0  0  0
    2.2012   -8.8126    0.0000 C   0  0  0  0  0  0  0  0  0  0  0  0
    1.4868   -9.2251    0.0000 C   0  0  0  0  0  0  0  0  0  0  0  0
    1.4868  -10.0501    0.0000 C   0  0  0  0  0  0  0  0  0  0  0  0
    2.2012  -10.4626    0.0000 C   0  0  0  0  0  0  0  0  0  0  0  0
    5.7736  -10.0501    0.0000 O   0  0  0  0  0  0  0  0  0  0  0  0
    6.4881  -10.4626    0.0000 C   0  0  0  0  0  0  0  0  0  0  0  0
    7.2025  -10.0501    0.0000 O   0  0  0  0  0  0  0  0  0  0  0  0
    5.7736  -11.7001    0.0000 C   0  0  0  0  0  0  0  0  0  0  0  0
    6.4881  -11.2876    0.0000 C   0  0  0  0  0  0  0  0  0  0  0  0
    5.7736  -12.5251    0.0000 C   0  0  0  0  0  0  0  0  0  0  0  0
    6.4881  -12.9376    0.0000 C   0  0  0  0  0  0  0  0  0  0  0  0
    5.0591  -12.9376    0.0000 C   0  0  0  0  0  0  0  0  0  0  0  0
    5.0591  -13.7626    0.0000 C   0  0  0  0  0  0  0  0  0  0  0  0
    5.7736  -14.1751    0.0000 C   0  0  0  0  0  0  0  0  0  0  0  0
    6.4881  -13.7626    0.0000 C   0  0  0  0  0  0  0  0  0  0  0  0
    6.7900   -6.8607    0.0000 O   0  0  0  0  0  0  0  0  0  0  0  0
    7.6150   -6.8607    0.0000 C   0  0  0  0  0  0  0  0  0  0  0  0
    7.2025   -6.1462    0.0000 O   0  0  0  0  0  0  0  0  0  0  0  0
    8.4400   -6.8607    0.0000 O   0  0  0  0  0  0  0  0  0  0  0  0
   12.2038  -11.2876    0.0000 O   0  0  0  0  0  0  0  0  0  0  0  0
   13.6328  -10.4626    0.0000 O   0  0  0  0  0  0  0  0  0  0  0  0
    5.7736  -15.0001    0.0000 O   0  0  0  0  0  0  0  0  0  0  0  0
    7.2025  -14.1751    0.0000 O   0  0  0  0  0  0  0  0  0  0  0  0
    0.7723   -8.8126    0.0000 O   0  0  0  0  0  0  0  0  0  0  0  0
    0.7723  -10.4626    0.0000 O   0  0  0  0  0  0  0  0  0  0  0  0
  1  2  1  0  0  0  0
  2  3  1  0  0  0  0
  3  4  1  0  0  0  0
  4  5  1  0  0  0  0
  5  6  1  0  0  0  0
  6  1  1  0  0  0  0
  4  7  1  1  0  0  0
  7  8  1  0  0  0  0
  8  9  2  0  0  0  0
  8 10  1  0  0  0  0
 10 11  2  0  0  0  0
 12 13  2  0  0  0  0
 13 11  1  0  0  0  0
 12 14  1  0  0  0  0
 14 15  2  0  0  0  0
 15 16  1  0  0  0  0
 16 17  2  0  0  0  0
 17 13  1  0  0  0  0
 18 19  2  0  0  0  0
 19 20  1  0  0  0  0
  2 20  1  6  0  0  0
 21 22  2  0  0  0  0
 22 19  1  0  0  0  0
 21 23  1  0  0  0  0
 23 24  1  0  0  0  0
 23 25  2  0  0  0  0
 25 26  1  0  0  0  0
 26 27  2  0  0  0  0
 27 28  1  0  0  0  0
 28 24  2  0  0  0  0
 29 30  2  0  0  0  0
 30 31  1  0  0  0  0
 31  3  1  0  0  0  0
 32 33  2  0  0  0  0
 33 30  1  0  0  0  0
 32 34  1  0  0  0  0
 34 35  2  0  0  0  0
 34 36  1  0  0  0  0
 36 37  2  0  0  0  0
 37 38  1  0  0  0  0
 38 39  2  0  0  0  0
 39 35  1  0  0  0  0
  6 40  1  0  0  0  0
  6 41  1  0  0  0  0
 41 42  2  0  0  0  0
 41 43  1  0  0  0  0
 14 44  1  0  0  0  0
 15 45  1  0  0  0  0
 38 46  1  0  0  0  0
 39 47  1  0  0  0  0
 26 48  1  0  0  0  0
 27 49  1  0  0  0  0
M  END
>  <cdx:fragmentId>
5

$$$$
