91178.cdx
  Mrv1902 05222410242D          

 27 28  0  0  0  0            999 V2000
    4.3981   -9.3764    0.0000 C   0  0  0  0  0  0  0  0  0  0  0  0
    4.3981  -10.2014    0.0000 C   0  0  0  0  0  0  0  0  0  0  0  0
    5.1125  -10.6139    0.0000 C   0  0  0  0  0  0  0  0  0  0  0  0
    5.8270  -10.2014    0.0000 C   0  0  0  0  0  0  0  0  0  0  0  0
    5.8270   -9.3764    0.0000 C   0  0  0  0  0  0  0  0  0  0  0  0
    5.1125   -8.9639    0.0000 C   0  0  0  0  0  0  0  0  0  0  0  0
    6.5415  -10.6139    0.0000 C   0  0  0  0  0  0  0  0  0  0  0  0
    7.2559  -10.2014    0.0000 C   0  0  0  0  0  0  0  0  0  0  0  0
    7.2559   -9.3764    0.0000 C   0  0  0  0  0  0  0  0  0  0  0  0
    6.5415   -8.9639    0.0000 C   0  0  0  0  0  0  0  0  0  0  0  0
    6.5415   -8.1389    0.0000 O   0  0  0  0  0  0  0  0  0  0  0  0
    5.1125   -8.1389    0.0000 O   0  0  0  0  0  0  0  0  0  0  0  0
    5.1125  -11.4389    0.0000 O   0  0  0  0  0  0  0  0  0  0  0  0
    6.5415  -11.4389    0.0000 O   0  0  0  0  0  0  0  0  0  0  0  0
    7.9704   -8.9639    0.0000 C   0  0  1  0  0  0  0  0  0  0  0  0
    8.6849   -9.3764    0.0000 C   0  0  0  0  0  0  0  0  0  0  0  0
    7.9704   -8.1389    0.0000 O   0  0  0  0  0  0  0  0  0  0  0  0
    9.3994   -8.9639    0.0000 C   0  0  0  0  0  0  0  0  0  0  0  0
   10.1138   -9.3764    0.0000 C   0  0  0  0  0  0  0  0  0  0  0  0
   10.8283   -8.9639    0.0000 C   0  0  0  0  0  0  0  0  0  0  0  0
   10.1138  -10.2014    0.0000 C   0  0  0  0  0  0  0  0  0  0  0  0
    8.6849   -7.7264    0.0000 C   0  0  0  0  0  0  0  0  0  0  0  0
    8.6849   -6.9014    0.0000 C   0  0  0  0  0  0  0  0  0  0  0  0
    9.3994   -8.1389    0.0000 O   0  0  0  0  0  0  0  0  0  0  0  0
    7.9704   -6.4889    0.0000 C   0  0  0  0  0  0  0  0  0  0  0  0
    7.9704   -5.6639    0.0000 C   0  0  0  0  0  0  0  0  0  0  0  0
    7.2559   -5.2514    0.0000 C   0  0  0  0  0  0  0  0  0  0  0  0
  1  2  1  0  0  0  0
  2  3  2  0  0  0  0
  3  4  1  0  0  0  0
  4  5  2  0  0  0  0
  5  6  1  0  0  0  0
  6  1  2  0  0  0  0
  4  7  1  0  0  0  0
  7  8  1  0  0  0  0
  8  9  2  0  0  0  0
  9 10  1  0  0  0  0
 10  5  1  0  0  0  0
 10 11  2  0  0  0  0
 12  6  1  0  0  0  0
  3 13  1  0  0  0  0
 14  7  2  0  0  0  0
  9 15  1  0  0  0  0
 15 16  1  0  0  0  0
 15 17  1  6  0  0  0
 16 18  1  0  0  0  0
 18 19  2  0  0  0  0
 19 20  1  0  0  0  0
 19 21  1  0  0  0  0
 17 22  1  0  0  0  0
 22 23  1  0  0  0  0
 22 24  2  0  0  0  0
 23 25  1  0  0  0  0
 25 26  1  0  0  0  0
 26 27  1  0  0  0  0
M  END
>  <cdx:fragmentId>
5

$$$$
