91172.cdx
  Mrv1902 05222410222D          

 25 27  0  0  0  0            999 V2000
    4.0268   -8.5239    0.0000 C   0  0  0  0  0  0  0  0  0  0  0  0
    4.0268   -9.3489    0.0000 C   0  0  0  0  0  0  0  0  0  0  0  0
    4.7413   -9.7614    0.0000 C   0  0  0  0  0  0  0  0  0  0  0  0
    5.4557   -9.3489    0.0000 C   0  0  0  0  0  0  0  0  0  0  0  0
    5.4557   -8.5239    0.0000 C   0  0  0  0  0  0  0  0  0  0  0  0
    4.7413   -8.1114    0.0000 C   0  0  0  0  0  0  0  0  0  0  0  0
    6.8847   -8.5239    0.0000 C   0  0  0  0  0  0  0  0  0  0  0  0
    6.1702   -8.1114    0.0000 C   0  0  0  0  0  0  0  0  0  0  0  0
    3.3123   -9.7614    0.0000 O   0  0  0  0  0  0  0  0  0  0  0  0
    4.7413  -10.5864    0.0000 O   0  0  0  0  0  0  0  0  0  0  0  0
    4.0268  -10.9989    0.0000 C   0  0  0  0  0  0  0  0  0  0  0  0
    6.9709   -9.3444    0.0000 C   0  0  1  0  0  0  0  0  0  0  0  0
    7.7779   -9.5159    0.0000 C   0  0  0  0  0  0  0  0  0  0  0  0
    8.1904   -8.8014    0.0000 N   0  0  0  0  0  0  0  0  0  0  0  0
    7.6384   -8.1883    0.0000 C   0  0  0  0  0  0  0  0  0  0  0  0
    7.8099   -7.3814    0.0000 O   0  0  0  0  0  0  0  0  0  0  0  0
    8.1135  -10.2696    0.0000 O   0  0  0  0  0  0  0  0  0  0  0  0
    6.2565   -9.7569    0.0000 O   0  0  0  0  0  0  0  0  0  0  0  0
    6.9709  -10.1694    0.0000 C   0  0  0  0  0  0  0  0  0  0  0  0
    6.2565  -10.5819    0.0000 C   0  0  0  0  0  0  0  0  0  0  0  0
    6.2565  -11.4069    0.0000 C   0  0  0  0  0  0  0  0  0  0  0  0
    6.9709  -11.8194    0.0000 C   0  0  0  0  0  0  0  0  0  0  0  0
    7.6854  -11.4069    0.0000 C   0  0  0  0  0  0  0  0  0  0  0  0
    7.6854  -10.5819    0.0000 C   0  0  0  0  0  0  0  0  0  0  0  0
    6.9709  -12.6444    0.0000 O   0  0  0  0  0  0  0  0  0  0  0  0
  1  2  2  0  0  0  0
  2  3  1  0  0  0  0
  3  4  2  0  0  0  0
  4  5  1  0  0  0  0
  5  6  2  0  0  0  0
  6  1  1  0  0  0  0
  7  8  2  0  0  0  0
  8  5  1  0  0  0  0
  2  9  1  0  0  0  0
  3 10  1  0  0  0  0
 10 11  1  0  0  0  0
  7 12  1  0  0  0  0
 12 13  1  0  0  0  0
 13 14  1  0  0  0  0
 14 15  1  0  0  0  0
 15  7  1  0  0  0  0
 15 16  2  0  0  0  0
 13 17  2  0  0  0  0
 12 18  1  1  0  0  0
 12 19  1  6  0  0  0
 19 20  2  0  0  0  0
 20 21  1  0  0  0  0
 21 22  2  0  0  0  0
 22 23  1  0  0  0  0
 23 24  2  0  0  0  0
 24 19  1  0  0  0  0
 22 25  1  0  0  0  0
M  END
>  <cdx:fragmentId>
5

$$$$
