91176.cdx
  Mrv1902 05222410212D          

 34 38  0  0  0  0            999 V2000
    6.2003  -11.6842    0.0000 C   0  0  1  0  0  0  0  0  0  0  0  0
    6.5151  -12.4467    0.0000 C   0  0  0  0  0  0  0  0  0  0  0  0
    7.3076  -12.6760    0.0000 C   0  0  0  0  0  0  0  0  0  0  0  0
    7.9810  -12.1994    0.0000 C   0  0  0  0  0  0  0  0  0  0  0  0
    8.0282  -11.3758    0.0000 C   0  0  0  0  0  0  0  0  0  0  0  0
    7.4137  -10.8253    0.0000 N   0  0  0  0  0  0  0  0  0  0  0  0
    6.6002  -10.9626    0.0000 C   0  0  1  0  0  0  0  0  0  0  0  0
    6.1752  -10.2555    0.0000 C   0  0  1  0  0  0  0  0  0  0  0  0
    5.3503  -10.2699    0.0000 C   0  0  2  0  0  0  0  0  0  0  0  0
    4.9504  -10.9915    0.0000 C   0  0  2  0  0  0  0  0  0  0  0  0
    5.3754  -11.6987    0.0000 C   0  0  2  0  0  0  0  0  0  0  0  0
    4.7876   -9.6666    0.0000 C   0  0  1  0  0  0  0  0  0  0  0  0
    4.0400  -10.0153    0.0000 C   0  0  0  0  0  0  0  0  0  0  0  0
    4.1406  -10.8342    0.0000 O   0  0  0  0  0  0  0  0  0  0  0  0
    7.4879   -9.9563    0.0000 C   0  0  2  0  0  0  0  0  0  0  0  0
    6.7358   -9.6348    0.0000 C   0  0  0  0  0  0  0  0  0  0  0  0
    3.3184   -9.6154    0.0000 O   0  0  0  0  0  0  0  0  0  0  0  0
    4.9755  -12.4203    0.0000 C   0  0  0  0  0  0  0  0  0  0  0  0
    4.1514  -12.4582    0.0000 C   0  0  0  0  0  0  0  0  0  0  0  0
    8.1951   -9.5315    0.0000 C   0  0  2  0  0  0  0  0  0  0  0  0
    8.9545   -9.8539    0.0000 O   0  0  0  0  0  0  0  0  0  0  0  0
    9.4958   -9.2312    0.0000 C   0  0  0  0  0  0  0  0  0  0  0  0
    9.0708   -8.5241    0.0000 C   0  0  2  0  0  0  0  0  0  0  0  0
    8.2790   -8.7109    0.0000 C   0  0  0  0  0  0  0  0  0  0  0  0
   10.3176   -9.3031    0.0000 O   0  0  0  0  0  0  0  0  0  0  0  0
    5.9617   -9.4586    0.0000 H   0  0  0  0  0  0  0  0  0  0  0  0
    8.1951  -10.3565    0.0000 H   0  0  0  0  0  0  0  0  0  0  0  0
    9.3914   -7.7639    0.0000 C   0  0  0  0  0  0  0  0  0  0  0  0
    4.9450   -8.8568    0.0000 C   0  0  0  0  0  0  0  0  0  0  0  0
    5.5639   -9.4730    0.0000 H   0  0  0  0  0  0  0  0  0  0  0  0
    4.4773  -11.6674    0.0000 H   0  0  0  0  0  0  0  0  0  0  0  0
    5.9069  -12.4552    0.0000 H   0  0  0  0  0  0  0  0  0  0  0  0
    7.0768  -11.6360    0.0000 H   0  0  0  0  0  0  0  0  0  0  0  0
    7.3942   -9.1366    0.0000 H   0  0  0  0  0  0  0  0  0  0  0  0
  1  2  1  0  0  0  0
  2  3  1  0  0  0  0
  3  4  1  0  0  0  0
  4  5  1  0  0  0  0
  5  6  1  0  0  0  0
  6  7  1  0  0  0  0
  7  1  1  0  0  0  0
  7  8  1  0  0  0  0
  8  9  1  0  0  0  0
  9 10  1  0  0  0  0
 10 11  1  0  0  0  0
 11  1  1  0  0  0  0
  9 12  1  0  0  0  0
 12 13  1  0  0  0  0
 13 14  1  0  0  0  0
 14 10  1  0  0  0  0
  6 15  1  0  0  0  0
 15 16  1  0  0  0  0
 16  8  1  0  0  0  0
 13 17  2  0  0  0  0
 11 18  1  1  0  0  0
 18 19  1  0  0  0  0
 15 20  1  0  0  0  0
 20 21  1  0  0  0  0
 21 22  1  0  0  0  0
 22 23  1  0  0  0  0
 23 24  1  0  0  0  0
 24 20  1  0  0  0  0
 22 25  2  0  0  0  0
  8 26  1  6  0  0  0
 20 27  1  6  0  0  0
 23 28  1  6  0  0  0
 12 29  1  1  0  0  0
  9 30  1  1  0  0  0
 10 31  1  1  0  0  0
  1 32  1  1  0  0  0
  7 33  1  1  0  0  0
 15 34  1  1  0  0  0
M  END
>  <cdx:fragmentId>
5

$$$$
