91188.cdx
  Mrv1902 05222410202D          

 38 37  0  0  0  0            999 V2000
    3.4812  -14.1914    0.0000 C   0  0  0  0  0  0  0  0  0  0  0  0
    3.4805  -13.5314    0.0000 C   0  0  0  0  0  0  0  0  0  0  0  0
    4.0517  -13.2008    0.0000 C   0  0  0  0  0  0  0  0  0  0  0  0
    4.0510  -12.5408    0.0000 C   0  0  0  0  0  0  0  0  0  0  0  0
    4.6223  -12.2102    0.0000 C   0  0  0  0  0  0  0  0  0  0  0  0
    4.6216  -11.5502    0.0000 C   0  0  0  0  0  0  0  0  0  0  0  0
    5.1928  -11.2196    0.0000 C   0  0  0  0  0  0  0  0  0  0  0  0
    5.1921  -10.5596    0.0000 C   0  0  0  0  0  0  0  0  0  0  0  0
    5.7633  -10.2290    0.0000 C   0  0  0  0  0  0  0  0  0  0  0  0
    5.7626   -9.5690    0.0000 C   0  0  0  0  0  0  0  0  0  0  0  0
    6.3339   -9.2384    0.0000 C   0  0  0  0  0  0  0  0  0  0  0  0
    6.3332   -8.5784    0.0000 C   0  0  0  0  0  0  0  0  0  0  0  0
    6.9044   -8.2478    0.0000 C   0  0  0  0  0  0  0  0  0  0  0  0
    6.9037   -7.5878    0.0000 C   0  0  0  0  0  0  0  0  0  0  0  0
    7.4749   -7.2572    0.0000 C   0  0  0  0  0  0  0  0  0  0  0  0
    7.4743   -6.5972    0.0000 C   0  0  0  0  0  0  0  0  0  0  0  0
    8.0455   -6.2666    0.0000 C   0  0  0  0  0  0  0  0  0  0  0  0
    8.0448   -5.6066    0.0000 C   0  0  0  0  0  0  0  0  0  0  0  0
    8.6160   -5.2760    0.0000 C   0  0  0  0  0  0  0  0  0  0  0  0
    8.6153   -4.6160    0.0000 C   0  0  0  0  0  0  0  0  0  0  0  0
    9.1866   -4.2854    0.0000 C   0  0  0  0  0  0  0  0  0  0  0  0
    9.1859   -3.6254    0.0000 C   0  0  0  0  0  0  0  0  0  0  0  0
    9.7571   -3.2948    0.0000 C   0  0  0  0  0  0  0  0  0  0  0  0
   10.3287   -3.6248    0.0000 C   0  0  0  0  0  0  0  0  0  0  0  0
   10.9003   -3.2948    0.0000 C   0  0  0  0  0  0  0  0  0  0  0  0
   11.4718   -3.6248    0.0000 C   0  0  0  0  0  0  0  0  0  0  0  0
   12.0434   -3.2948    0.0000 C   0  0  0  0  0  0  0  0  0  0  0  0
   12.6150   -3.6248    0.0000 C   0  0  0  0  0  0  0  0  0  0  0  0
   13.1866   -3.2948    0.0000 C   0  0  0  0  0  0  0  0  0  0  0  0
   13.7581   -3.6248    0.0000 C   0  0  0  0  0  0  0  0  0  0  0  0
   14.3297   -3.2948    0.0000 C   0  0  0  0  0  0  0  0  0  0  0  0
    2.9387  -14.5401    0.0000 C   0  0  0  0  0  0  0  0  0  0  0  0
    2.3672  -14.2101    0.0000 C   0  0  0  0  0  0  0  0  0  0  0  0
    1.7956  -14.5401    0.0000 C   0  0  0  0  0  0  0  0  0  0  0  0
    1.2240  -14.2101    0.0000 C   0  0  0  0  0  0  0  0  0  0  0  0
    0.6524  -14.5401    0.0000 C   0  0  0  0  0  0  0  0  0  0  0  0
    0.0809  -14.2101    0.0000 C   0  0  0  0  0  0  0  0  0  0  0  0
    0.6524  -15.2001    0.0000 O   0  0  0  0  0  0  0  0  0  0  0  0
  1  2  1  0  0  0  0
  2  3  1  0  0  0  0
  3  4  1  0  0  0  0
  4  5  1  0  0  0  0
  5  6  1  0  0  0  0
  6  7  1  0  0  0  0
  7  8  1  0  0  0  0
  8  9  1  0  0  0  0
  9 10  1  0  0  0  0
 10 11  1  0  0  0  0
 11 12  1  0  0  0  0
 12 13  1  0  0  0  0
 13 14  1  0  0  0  0
 14 15  1  0  0  0  0
 15 16  1  0  0  0  0
 16 17  1  0  0  0  0
 17 18  1  0  0  0  0
 18 19  1  0  0  0  0
 19 20  1  0  0  0  0
 20 21  1  0  0  0  0
 21 22  1  0  0  0  0
 22 23  2  0  0  0  0
 23 24  1  0  0  0  0
 24 25  1  0  0  0  0
 25 26  1  0  0  0  0
 26 27  1  0  0  0  0
 27 28  1  0  0  0  0
 28 29  1  0  0  0  0
 29 30  1  0  0  0  0
 30 31  1  0  0  0  0
 33 32  1  0  0  0  0
 34 33  1  0  0  0  0
 35 34  1  0  0  0  0
 36 35  1  0  0  0  0
 37 36  1  0  0  0  0
 36 38  2  0  0  0  0
 32  1  2  0  0  0  0
M  END
>  <cdx:fragmentId>
3

$$$$
