91184.cdx
  Mrv1902 05222410252D          

 43 47  0  0  0  0            999 V2000
    8.4257  -11.7089    0.0000 C   0  0  0  0  0  0  0  0  0  0  0  0
    8.4257  -12.5339    0.0000 C   0  0  0  0  0  0  0  0  0  0  0  0
    7.7113  -12.9464    0.0000 C   0  0  0  0  0  0  0  0  0  0  0  0
    6.9968  -12.5339    0.0000 C   0  0  0  0  0  0  0  0  0  0  0  0
    6.2823  -12.9464    0.0000 C   0  0  0  0  0  0  0  0  0  0  0  0
    5.5679  -12.5339    0.0000 C   0  0  0  0  0  0  0  0  0  0  0  0
    5.5679  -11.7089    0.0000 C   0  0  0  0  0  0  0  0  0  0  0  0
    6.2823  -11.2964    0.0000 C   0  0  0  0  0  0  0  0  0  0  0  0
    6.9968  -11.7089    0.0000 C   0  0  0  0  0  0  0  0  0  0  0  0
    7.7113  -11.2964    0.0000 O   0  0  0  0  0  0  0  0  0  0  0  0
    7.7113  -13.7714    0.0000 O   0  0  0  0  0  0  0  0  0  0  0  0
    9.1402  -11.2964    0.0000 C   0  0  0  0  0  0  0  0  0  0  0  0
    9.1402  -10.4714    0.0000 C   0  0  0  0  0  0  0  0  0  0  0  0
    9.8547  -10.0589    0.0000 C   0  0  0  0  0  0  0  0  0  0  0  0
   10.5691  -10.4714    0.0000 C   0  0  0  0  0  0  0  0  0  0  0  0
   10.5691  -11.2964    0.0000 C   0  0  0  0  0  0  0  0  0  0  0  0
    9.8547  -11.7089    0.0000 C   0  0  0  0  0  0  0  0  0  0  0  0
   11.2836  -10.0589    0.0000 O   0  0  0  0  0  0  0  0  0  0  0  0
    4.8534  -11.2964    0.0000 O   0  0  0  0  0  0  0  0  0  0  0  0
    6.2823  -13.7714    0.0000 O   0  0  0  0  0  0  0  0  0  0  0  0
    6.9968  -10.0589    0.0000 O   0  0  0  0  0  0  0  0  0  0  0  0
    6.2823  -10.4714    0.0000 C   0  0  2  0  0  0  0  0  0  0  0  0
    5.5679  -10.0589    0.0000 C   0  0  1  0  0  0  0  0  0  0  0  0
    5.5679   -9.2339    0.0000 C   0  0  2  0  0  0  0  0  0  0  0  0
    6.2823   -8.8214    0.0000 C   0  0  1  0  0  0  0  0  0  0  0  0
    6.9968   -9.2339    0.0000 C   0  0  1  0  0  0  0  0  0  0  0  0
    6.2823   -7.9964    0.0000 O   0  0  0  0  0  0  0  0  0  0  0  0
    7.7113   -7.9964    0.0000 O   0  0  0  0  0  0  0  0  0  0  0  0
    6.9968   -7.5839    0.0000 C   0  0  2  0  0  0  0  0  0  0  0  0
    6.9968   -6.7589    0.0000 C   0  0  1  0  0  0  0  0  0  0  0  0
    7.7113   -6.3464    0.0000 C   0  0  2  0  0  0  0  0  0  0  0  0
    8.4257   -6.7589    0.0000 C   0  0  1  0  0  0  0  0  0  0  0  0
    8.4257   -7.5839    0.0000 C   0  0  1  0  0  0  0  0  0  0  0  0
    9.1402   -7.9964    0.0000 C   0  0  0  0  0  0  0  0  0  0  0  0
    9.8547   -7.5839    0.0000 O   0  0  0  0  0  0  0  0  0  0  0  0
    9.1402   -6.3464    0.0000 O   0  0  0  0  0  0  0  0  0  0  0  0
    7.7113   -5.5214    0.0000 O   0  0  0  0  0  0  0  0  0  0  0  0
    6.2823   -6.3464    0.0000 O   0  0  0  0  0  0  0  0  0  0  0  0
    7.7113   -8.8214    0.0000 C   0  0  0  0  0  0  0  0  0  0  0  0
    8.4257   -9.2339    0.0000 O   0  0  0  0  0  0  0  0  0  0  0  0
    4.8534   -8.8214    0.0000 O   0  0  0  0  0  0  0  0  0  0  0  0
    4.8534  -10.4714    0.0000 O   0  0  0  0  0  0  0  0  0  0  0  0
    6.9968  -10.8839    0.0000 H   0  0  0  0  0  0  0  0  0  0  0  0
  1  2  2  0  0  0  0
  2  3  1  0  0  0  0
  3  4  1  0  0  0  0
  4  5  1  0  0  0  0
  5  6  2  0  0  0  0
  6  7  1  0  0  0  0
  7  8  2  0  0  0  0
  8  9  1  0  0  0  0
  4  9  2  0  0  0  0
  9 10  1  0  0  0  0
  1 10  1  0  0  0  0
  3 11  2  0  0  0  0
 12 13  1  0  0  0  0
 13 14  2  0  0  0  0
 14 15  1  0  0  0  0
 15 16  2  0  0  0  0
 16 17  1  0  0  0  0
 12 17  2  0  0  0  0
 15 18  1  0  0  0  0
  1 12  1  0  0  0  0
  7 19  1  0  0  0  0
  5 20  1  0  0  0  0
 21 22  1  0  0  0  0
 22 23  1  0  0  0  0
 23 24  1  0  0  0  0
 24 25  1  0  0  0  0
 25 26  1  0  0  0  0
 21 26  1  0  0  0  0
 28 29  1  0  0  0  0
 29 30  1  0  0  0  0
 30 31  1  0  0  0  0
 31 32  1  0  0  0  0
 32 33  1  0  0  0  0
 28 33  1  0  0  0  0
 34 35  1  0  0  0  0
 33 34  1  1  0  0  0
 32 36  1  6  0  0  0
 31 37  1  1  0  0  0
 30 38  1  6  0  0  0
 29 27  1  1  0  0  0
 25 27  1  6  0  0  0
 39 40  1  0  0  0  0
 26 39  1  1  0  0  0
 24 41  1  1  0  0  0
 23 42  1  6  0  0  0
 22  8  1  0  0  0  0
 22 43  1  6  0  0  0
M  END
>  <cdx:fragmentId>
47958

$$$$
