91189.cdx
  Mrv1902 05222410212D          

 43 46  0  0  0  0            999 V2000
    7.2306   -8.6339    0.0000 C   0  0  2  0  0  0  0  0  0  0  0  0
    7.2306   -9.4589    0.0000 C   0  0  2  0  0  0  0  0  0  0  0  0
    7.9450   -9.8714    0.0000 C   0  0  1  0  0  0  0  0  0  0  0  0
    8.6595   -9.4589    0.0000 C   0  0  2  0  0  0  0  0  0  0  0  0
    8.6595   -8.6339    0.0000 C   0  0  1  0  0  0  0  0  0  0  0  0
    7.9450   -8.2214    0.0000 O   0  0  0  0  0  0  0  0  0  0  0  0
    6.5161   -8.2214    0.0000 C   0  0  0  0  0  0  0  0  0  0  0  0
    7.9450  -10.6964    0.0000 O   0  0  0  0  0  0  0  0  0  0  0  0
    6.5161   -9.8714    0.0000 O   0  0  0  0  0  0  0  0  0  0  0  0
    9.3740   -9.8714    0.0000 O   0  0  0  0  0  0  0  0  0  0  0  0
    5.8016   -8.6339    0.0000 O   0  0  0  0  0  0  0  0  0  0  0  0
   13.6608   -9.8714    0.0000 O   0  0  0  0  0  0  0  0  0  0  0  0
   11.5174   -9.4589    0.0000 C   0  0  0  0  0  0  0  0  0  0  0  0
   12.2318   -9.8714    0.0000 C   0  0  0  0  0  0  0  0  0  0  0  0
   12.9463   -9.4589    0.0000 C   0  0  0  0  0  0  0  0  0  0  0  0
   12.9463   -8.6339    0.0000 C   0  0  0  0  0  0  0  0  0  0  0  0
   12.2319   -8.2214    0.0000 C   0  0  0  0  0  0  0  0  0  0  0  0
   11.5174   -8.6339    0.0000 C   0  0  0  0  0  0  0  0  0  0  0  0
   10.8029   -8.2214    0.0000 C   0  0  0  0  0  0  0  0  0  0  0  0
   10.0884   -8.6339    0.0000 C   0  0  0  0  0  0  0  0  0  0  0  0
    9.3740   -8.2214    0.0000 O   0  0  0  0  0  0  0  0  0  0  0  0
    7.2306  -11.1089    0.0000 C   0  0  2  0  0  0  0  0  0  0  0  0
    6.5161  -10.6964    0.0000 O   0  0  0  0  0  0  0  0  0  0  0  0
    5.8016  -11.1089    0.0000 C   0  0  2  0  0  0  0  0  0  0  0  0
    5.8016  -11.9339    0.0000 C   0  0  1  0  0  0  0  0  0  0  0  0
    6.5161  -12.3464    0.0000 C   0  0  2  0  0  0  0  0  0  0  0  0
    7.2306  -11.9339    0.0000 C   0  0  1  0  0  0  0  0  0  0  0  0
    5.0871  -12.3464    0.0000 O   0  0  0  0  0  0  0  0  0  0  0  0
    5.0871  -10.6964    0.0000 C   0  0  0  0  0  0  0  0  0  0  0  0
    6.5161  -13.1714    0.0000 O   0  0  0  0  0  0  0  0  0  0  0  0
    7.9450  -12.3464    0.0000 O   0  0  0  0  0  0  0  0  0  0  0  0
    5.0871   -8.2214    0.0000 C   0  0  0  0  0  0  0  0  0  0  0  0
    4.3727   -8.6339    0.0000 C   0  0  0  0  0  0  0  0  0  0  0  0
    5.0871   -7.3964    0.0000 O   0  0  0  0  0  0  0  0  0  0  0  0
    3.6582   -8.2214    0.0000 C   0  0  0  0  0  0  0  0  0  0  0  0
    2.9437   -8.6339    0.0000 C   0  0  0  0  0  0  0  0  0  0  0  0
    2.2293   -8.2214    0.0000 C   0  0  0  0  0  0  0  0  0  0  0  0
    1.5148   -8.6339    0.0000 C   0  0  0  0  0  0  0  0  0  0  0  0
    1.5148   -9.4589    0.0000 C   0  0  0  0  0  0  0  0  0  0  0  0
    2.2293   -9.8714    0.0000 C   0  0  0  0  0  0  0  0  0  0  0  0
    2.9437   -9.4589    0.0000 C   0  0  0  0  0  0  0  0  0  0  0  0
    0.8003   -9.8714    0.0000 O   0  0  0  0  0  0  0  0  0  0  0  0
    0.8003   -8.2214    0.0000 O   0  0  0  0  0  0  0  0  0  0  0  0
  1  2  1  0  0  0  0
  2  3  1  0  0  0  0
  3  4  1  0  0  0  0
  4  5  1  0  0  0  0
  5  6  1  0  0  0  0
  6  1  1  0  0  0  0
  1  7  1  1  0  0  0
  3  8  1  1  0  0  0
 15 12  1  0  0  0  0
  5 21  1  1  0  0  0
  2  9  1  6  0  0  0
  4 10  1  6  0  0  0
  7 11  1  0  0  0  0
 13 18  1  0  0  0  0
 14 13  2  0  0  0  0
 15 14  1  0  0  0  0
 16 15  2  0  0  0  0
 17 16  1  0  0  0  0
 18 17  2  0  0  0  0
 19 18  1  0  0  0  0
 20 19  1  0  0  0  0
 21 20  1  0  0  0  0
 22  8  1  1  0  0  0
 22 23  1  0  0  0  0
 23 24  1  0  0  0  0
 24 25  1  0  0  0  0
 25 26  1  0  0  0  0
 26 27  1  0  0  0  0
 27 22  1  0  0  0  0
 25 28  1  1  0  0  0
 24 29  1  6  0  0  0
 26 30  1  6  0  0  0
 27 31  1  6  0  0  0
 11 32  1  0  0  0  0
 32 33  1  0  0  0  0
 32 34  2  0  0  0  0
 33 35  2  0  0  0  0
 35 36  1  0  0  0  0
 36 37  2  0  0  0  0
 37 38  1  0  0  0  0
 38 39  2  0  0  0  0
 39 40  1  0  0  0  0
 40 41  2  0  0  0  0
 41 36  1  0  0  0  0
 39 42  1  0  0  0  0
 38 43  1  0  0  0  0
M  END
>  <cdx:fragmentId>
5

$$$$
