91187.cdx
  Mrv1902 05222410242D          

 20 19  0  0  0  0            999 V2000
   10.1244   -9.3901    0.0000 C   0  0  0  0  0  0  0  0  0  0  0  0
    9.4099   -8.9776    0.0000 C   0  0  0  0  0  0  0  0  0  0  0  0
    8.6955   -9.3901    0.0000 C   0  0  0  0  0  0  0  0  0  0  0  0
    7.9810   -8.9776    0.0000 C   0  0  0  0  0  0  0  0  0  0  0  0
    7.2665   -9.3901    0.0000 C   0  0  0  0  0  0  0  0  0  0  0  0
    6.5520   -8.9776    0.0000 C   0  0  0  0  0  0  0  0  0  0  0  0
    5.8376   -9.3901    0.0000 C   0  0  0  0  0  0  0  0  0  0  0  0
    5.1231   -8.9776    0.0000 C   0  0  0  0  0  0  0  0  0  0  0  0
    4.4086   -9.3901    0.0000 C   0  0  0  0  0  0  0  0  0  0  0  0
    3.6942   -8.9776    0.0000 C   0  0  0  0  0  0  0  0  0  0  0  0
    2.9797   -9.3901    0.0000 C   0  0  0  0  0  0  0  0  0  0  0  0
    2.2652   -8.9776    0.0000 O   0  0  0  0  0  0  0  0  0  0  0  0
    1.5507   -9.3901    0.0000 C   0  0  0  0  0  0  0  0  0  0  0  0
    0.8363   -8.9776    0.0000 C   0  0  0  0  0  0  0  0  0  0  0  0
    1.5507  -10.2151    0.0000 O   0  0  0  0  0  0  0  0  0  0  0  0
   10.1244  -10.2151    0.0000 C   0  0  0  0  0  0  0  0  0  0  0  0
   10.8389  -10.6276    0.0000 C   0  0  0  0  0  0  0  0  0  0  0  0
   11.5533  -10.2151    0.0000 C   0  0  0  0  0  0  0  0  0  0  0  0
   12.2678  -10.6276    0.0000 C   0  0  0  0  0  0  0  0  0  0  0  0
   12.9823  -10.2151    0.0000 C   0  0  0  0  0  0  0  0  0  0  0  0
  2  1  2  0  0  0  0
  3  2  1  0  0  0  0
  4  3  1  0  0  0  0
  5  4  1  0  0  0  0
  6  5  1  0  0  0  0
  7  6  1  0  0  0  0
  8  7  1  0  0  0  0
  9  8  1  0  0  0  0
 10  9  1  0  0  0  0
 11 10  1  0  0  0  0
 12 11  1  0  0  0  0
 13 12  1  0  0  0  0
 14 13  1  0  0  0  0
 13 15  2  0  0  0  0
  1 16  1  0  0  0  0
 16 17  2  0  0  0  0
 17 18  1  0  0  0  0
 18 19  1  0  0  0  0
 19 20  1  0  0  0  0
M  END
>  <cdx:fragmentId>
3

$$$$
