91185.cdx
  Mrv1902 05222410262D          

 49 54  0  0  0  0            999 V2000
    2.4318   -7.9601    0.0000 C   0  0  1  0  0  0  0  0  0  0  0  0
    2.4318   -8.7851    0.0000 C   0  0  2  0  0  0  0  0  0  0  0  0
    3.1463   -9.1976    0.0000 C   0  0  1  0  0  0  0  0  0  0  0  0
    3.8607   -8.7851    0.0000 C   0  0  1  0  0  0  0  0  0  0  0  0
    3.8607   -7.9601    0.0000 C   0  0  2  0  0  0  0  0  0  0  0  0
    3.1463   -7.5476    0.0000 C   0  0  0  0  0  0  0  0  0  0  0  0
    4.5752   -9.1976    0.0000 C   0  0  0  0  0  0  0  0  0  0  0  0
    5.2897   -8.7851    0.0000 C   0  0  0  0  0  0  0  0  0  0  0  0
    5.2897   -7.9601    0.0000 C   0  0  2  0  0  0  0  0  0  0  0  0
    4.5752   -7.5476    0.0000 C   0  0  2  0  0  0  0  0  0  0  0  0
    6.0042   -7.5476    0.0000 C   0  0  1  0  0  0  0  0  0  0  0  0
    6.0042   -6.7226    0.0000 C   0  0  0  0  0  0  0  0  0  0  0  0
    5.2897   -6.3101    0.0000 C   0  0  0  0  0  0  0  0  0  0  0  0
    4.5752   -6.7226    0.0000 C   0  0  0  0  0  0  0  0  0  0  0  0
    6.7186   -7.9601    0.0000 C   0  0  0  0  0  0  0  0  0  0  0  0
    7.4331   -7.5476    0.0000 C   0  0  0  0  0  0  0  0  0  0  0  0
    7.4331   -6.7226    0.0000 C   0  0  2  0  0  0  0  0  0  0  0  0
    6.7186   -6.3101    0.0000 C   0  0  1  0  0  0  0  0  0  0  0  0
    8.1476   -6.3101    0.0000 C   0  0  0  0  0  0  0  0  0  0  0  0
    8.1476   -5.4851    0.0000 C   0  0  0  0  0  0  0  0  0  0  0  0
    7.4331   -5.0726    0.0000 C   0  0  0  0  0  0  0  0  0  0  0  0
    6.7186   -5.4851    0.0000 C   0  0  0  0  0  0  0  0  0  0  0  0
    2.7172   -9.9408    0.0000 C   0  0  0  0  0  0  0  0  0  0  0  0
    3.8607   -7.1351    0.0000 C   0  0  0  0  0  0  0  0  0  0  0  0
    5.2897   -7.1351    0.0000 C   0  0  0  0  0  0  0  0  0  0  0  0
    7.0206   -4.3582    0.0000 C   0  0  0  0  0  0  0  0  0  0  0  0
   10.9389   -9.6397    0.0000 O   0  0  0  0  0  0  0  0  0  0  0  0
   11.6737   -8.4142    0.0000 O   0  0  0  0  0  0  0  0  0  0  0  0
   10.2857   -5.9160    0.0000 O   0  0  0  0  0  0  0  0  0  0  0  0
   11.7008   -6.7644    0.0000 O   0  0  0  0  0  0  0  0  0  0  0  0
   10.2313   -9.2155    0.0000 C   0  0  0  0  0  0  0  0  0  0  0  0
    9.5373   -7.9664    0.0000 O   0  0  0  0  0  0  0  0  0  0  0  0
   10.2449   -8.3906    0.0000 C   0  0  1  0  0  0  0  0  0  0  0  0
   10.9661   -7.9900    0.0000 C   0  0  2  0  0  0  0  0  0  0  0  0
   10.9797   -7.1651    0.0000 C   0  0  1  0  0  0  0  0  0  0  0  0
   10.2721   -6.7408    0.0000 C   0  0  2  0  0  0  0  0  0  0  0  0
    9.5509   -7.1415    0.0000 C   0  0  2  0  0  0  0  0  0  0  0  0
    8.8620   -6.7226    0.0000 O   0  0  0  0  0  0  0  0  0  0  0  0
    1.7173   -7.5476    0.0000 O   0  0  0  0  0  0  0  0  0  0  0  0
    1.7173   -9.1976    0.0000 O   0  0  0  0  0  0  0  0  0  0  0  0
    3.5695   -9.9307    0.0000 C   0  0  0  0  0  0  0  0  0  0  0  0
    6.0042   -8.3726    0.0000 C   0  0  0  0  0  0  0  0  0  0  0  0
    7.8456   -4.3582    0.0000 C   0  0  0  0  0  0  0  0  0  0  0  0
    8.1476   -7.9601    0.0000 O   0  0  0  0  0  0  0  0  0  0  0  0
    8.1476   -7.1351    0.0000 C   0  0  0  0  0  0  0  0  0  0  0  0
    3.1463  -10.6839    0.0000 O   0  0  0  0  0  0  0  0  0  0  0  0
    3.8607   -9.6101    0.0000 H   0  0  0  0  0  0  0  0  0  0  0  0
    4.5752   -8.3726    0.0000 H   0  0  0  0  0  0  0  0  0  0  0  0
    6.7186   -7.1351    0.0000 H   0  0  0  0  0  0  0  0  0  0  0  0
  1  2  1  0  0  0  0
  2  3  1  0  0  0  0
  3  4  1  0  0  0  0
  4  5  1  0  0  0  0
  5  6  1  0  0  0  0
  6  1  1  0  0  0  0
  4  7  1  0  0  0  0
  7  8  1  0  0  0  0
  8  9  1  0  0  0  0
  9 10  1  0  0  0  0
 10  5  1  0  0  0  0
  9 11  1  0  0  0  0
 11 12  1  0  0  0  0
 12 13  2  0  0  0  0
 13 14  1  0  0  0  0
 14 10  1  0  0  0  0
 11 15  1  0  0  0  0
 15 16  1  0  0  0  0
 16 17  1  0  0  0  0
 17 18  1  0  0  0  0
 18 12  1  0  0  0  0
 17 19  1  0  0  0  0
 19 20  1  0  0  0  0
 20 21  1  0  0  0  0
 21 22  1  0  0  0  0
 22 18  1  0  0  0  0
  3 23  1  0  0  0  0
  5 24  1  1  0  0  0
  9 25  1  1  0  0  0
 21 26  1  0  0  0  0
 31 27  1  0  0  0  0
 17 45  1  1  0  0  0
 37 38  1  1  0  0  0
 34 28  1  6  0  0  0
 36 29  1  6  0  0  0
 35 30  1  1  0  0  0
 33 31  1  1  0  0  0
 32 37  1  0  0  0  0
 33 32  1  0  0  0  0
 34 33  1  0  0  0  0
 35 34  1  0  0  0  0
 36 35  1  0  0  0  0
 37 36  1  0  0  0  0
 45 38  1  0  0  0  0
  1 39  1  6  0  0  0
  2 40  1  6  0  0  0
  3 41  1  6  0  0  0
 11 42  1  6  0  0  0
 21 43  1  0  0  0  0
 45 44  2  0  0  0  0
 23 46  1  0  0  0  0
  4 47  1  6  0  0  0
 10 48  1  6  0  0  0
 18 49  1  1  0  0  0
M  END
>  <cdx:fragmentId>
5

$$$$
