91180.cdx
  Mrv1902 05222410232D          

 23 24  0  0  0  0            999 V2000
    4.0543   -9.0326    0.0000 O   0  0  0  0  0  0  0  0  0  0  0  0
    4.0543   -9.8576    0.0000 C   0  0  0  0  0  0  0  0  0  0  0  0
    4.7688  -10.2701    0.0000 C   0  0  1  0  0  0  0  0  0  0  0  0
    5.4832   -9.8576    0.0000 O   0  0  0  0  0  0  0  0  0  0  0  0
    6.1977  -10.2701    0.0000 C   0  0  1  0  0  0  0  0  0  0  0  0
    6.9122   -9.8576    0.0000 O   0  0  0  0  0  0  0  0  0  0  0  0
    6.9122   -9.0326    0.0000 C   0  0  0  0  0  0  0  0  0  0  0  0
    6.1977   -8.6201    0.0000 O   0  0  0  0  0  0  0  0  0  0  0  0
    4.7688  -11.0951    0.0000 C   0  0  2  0  0  0  0  0  0  0  0  0
    5.4832  -11.5076    0.0000 C   0  0  1  0  0  0  0  0  0  0  0  0
    6.1977  -11.0951    0.0000 C   0  0  1  0  0  0  0  0  0  0  0  0
    8.3411   -9.0326    0.0000 C   0  0  0  0  0  0  0  0  0  0  0  0
    7.6267   -8.6201    0.0000 C   0  0  0  0  0  0  0  0  0  0  0  0
    9.0556   -8.6201    0.0000 C   0  0  0  0  0  0  0  0  0  0  0  0
    9.0556   -7.7951    0.0000 C   0  0  0  0  0  0  0  0  0  0  0  0
    8.3411   -7.3826    0.0000 C   0  0  0  0  0  0  0  0  0  0  0  0
    7.6267   -7.7951    0.0000 C   0  0  0  0  0  0  0  0  0  0  0  0
    9.7701   -9.0326    0.0000 O   0  0  0  0  0  0  0  0  0  0  0  0
   10.4845   -8.6201    0.0000 C   0  0  0  0  0  0  0  0  0  0  0  0
    9.7701   -7.3826    0.0000 O   0  0  0  0  0  0  0  0  0  0  0  0
    5.4832  -12.3326    0.0000 O   0  0  0  0  0  0  0  0  0  0  0  0
    4.0543  -11.5076    0.0000 O   0  0  0  0  0  0  0  0  0  0  0  0
    6.9122  -11.5076    0.0000 O   0  0  0  0  0  0  0  0  0  0  0  0
  1  2  1  0  0  0  0
  3  2  1  1  0  0  0
  3  4  1  0  0  0  0
  4  5  1  0  0  0  0
  5  6  1  1  0  0  0
  6  7  1  0  0  0  0
  7  8  2  0  0  0  0
  3  9  1  0  0  0  0
  9 10  1  0  0  0  0
 10 11  1  0  0  0  0
 11  5  1  0  0  0  0
 12 13  2  0  0  0  0
 13  7  1  0  0  0  0
 12 14  1  0  0  0  0
 14 15  2  0  0  0  0
 15 16  1  0  0  0  0
 16 17  2  0  0  0  0
 17 13  1  0  0  0  0
 14 18  1  0  0  0  0
 18 19  1  0  0  0  0
 20 15  1  0  0  0  0
 10 21  1  1  0  0  0
  9 22  1  6  0  0  0
 11 23  1  6  0  0  0
M  END
>  <cdx:fragmentId>
5

$$$$
