91190.cdx
  Mrv1902 05222410252D          

 22 24  0  0  0  0            999 V2000
    4.2193   -8.1251    0.0000 C   0  0  0  0  0  0  0  0  0  0  0  0
    4.2193   -8.9501    0.0000 C   0  0  0  0  0  0  0  0  0  0  0  0
    4.9338   -9.3626    0.0000 C   0  0  0  0  0  0  0  0  0  0  0  0
    5.6482   -8.9501    0.0000 C   0  0  0  0  0  0  0  0  0  0  0  0
    5.6482   -8.1251    0.0000 C   0  0  0  0  0  0  0  0  0  0  0  0
    4.9338   -7.7126    0.0000 C   0  0  0  0  0  0  0  0  0  0  0  0
    6.3627   -9.3626    0.0000 C   0  0  0  0  0  0  0  0  0  0  0  0
    7.0772   -8.9501    0.0000 C   0  0  0  0  0  0  0  0  0  0  0  0
    7.0772   -8.1251    0.0000 C   0  0  0  0  0  0  0  0  0  0  0  0
    6.3627   -7.7126    0.0000 C   0  0  0  0  0  0  0  0  0  0  0  0
    7.7917   -9.3626    0.0000 C   0  0  0  0  0  0  0  0  0  0  0  0
    8.5061   -8.9501    0.0000 C   0  0  0  0  0  0  0  0  0  0  0  0
    8.5061   -8.1251    0.0000 C   0  0  0  0  0  0  0  0  0  0  0  0
    7.7917   -7.7126    0.0000 C   0  0  0  0  0  0  0  0  0  0  0  0
    6.3627   -6.8876    0.0000 O   0  0  0  0  0  0  0  0  0  0  0  0
    6.3627  -10.1876    0.0000 O   0  0  0  0  0  0  0  0  0  0  0  0
    7.7917   -6.8876    0.0000 O   0  0  0  0  0  0  0  0  0  0  0  0
    9.2206   -9.3626    0.0000 O   0  0  0  0  0  0  0  0  0  0  0  0
    4.9338  -10.1876    0.0000 O   0  0  0  0  0  0  0  0  0  0  0  0
    9.2206   -7.7126    0.0000 C   0  0  0  0  0  0  0  0  0  0  0  0
    3.5048   -9.3626    0.0000 O   0  0  0  0  0  0  0  0  0  0  0  0
    2.7904   -8.9501    0.0000 C   0  0  0  0  0  0  0  0  0  0  0  0
  1  2  2  0  0  0  0
  2  3  1  0  0  0  0
  3  4  2  0  0  0  0
  4  5  1  0  0  0  0
  5  6  2  0  0  0  0
  6  1  1  0  0  0  0
  4  7  1  0  0  0  0
  7  8  1  0  0  0  0
  8  9  2  0  0  0  0
  9 10  1  0  0  0  0
 10  5  1  0  0  0  0
  8 11  1  0  0  0  0
 11 12  2  0  0  0  0
 12 13  1  0  0  0  0
 13 14  2  0  0  0  0
 14  9  1  0  0  0  0
 10 15  2  0  0  0  0
  7 16  2  0  0  0  0
 14 17  1  0  0  0  0
 12 18  1  0  0  0  0
  3 19  1  0  0  0  0
 13 20  1  0  0  0  0
  2 21  1  0  0  0  0
 21 22  1  0  0  0  0
M  END
>  <cdx:fragmentId>
5

$$$$
