91195.cdx
  Mrv1902 05222410232D          

 11 12  0  0  0  0            999 V2000
    8.3646   -5.0667    0.0000 C   0  0  0  0  0  0  0  0  0  0  0  0
    7.8797   -5.7341    0.0000 C   0  0  0  0  0  0  0  0  0  0  0  0
    7.0951   -5.4792    0.0000 C   0  0  0  0  0  0  0  0  0  0  0  0
    6.7595   -6.2329    0.0000 C   0  0  0  0  0  0  0  0  0  0  0  0
    7.2445   -6.9003    0.0000 C   0  0  0  0  0  0  0  0  0  0  0  0
    5.9391   -6.3191    0.0000 C   0  0  0  0  0  0  0  0  0  0  0  0
    6.3806   -5.0667    0.0000 C   0  0  0  0  0  0  0  0  0  0  0  0
    7.0951   -4.6542    0.0000 C   0  0  0  0  0  0  0  0  0  0  0  0
    7.8797   -4.3992    0.0000 C   0  0  0  0  0  0  0  0  0  0  0  0
    8.1347   -3.6146    0.0000 C   0  0  0  0  0  0  0  0  0  0  0  0
    8.1347   -6.5187    0.0000 O   0  0  0  0  0  0  0  0  0  0  0  0
  1  2  1  0  0  0  0
  2  3  1  0  0  0  0
  3  4  1  0  0  0  0
  4  5  1  0  0  0  0
  4  6  1  0  0  0  0
  3  7  1  0  0  0  0
  7  8  1  0  0  0  0
  3  8  1  0  0  0  0
  8  9  1  0  0  0  0
  1  9  2  0  0  0  0
  9 10  1  0  0  0  0
  2 11  2  0  0  0  0
M  END
>  <cdx:fragmentId>
5

$$$$
