91192.cdx
  Mrv1902 05222410252D          

 46 50  0  0  0  0            999 V2000
    3.4906   -7.8639    0.0000 C   0  0  0  0  0  0  0  0  0  0  0  0
    3.4906   -8.6889    0.0000 C   0  0  0  0  0  0  0  0  0  0  0  0
    4.2050   -9.1014    0.0000 C   0  0  0  0  0  0  0  0  0  0  0  0
    4.9195   -8.6889    0.0000 C   0  0  0  0  0  0  0  0  0  0  0  0
    4.9195   -7.8639    0.0000 C   0  0  0  0  0  0  0  0  0  0  0  0
    4.2050   -7.4514    0.0000 C   0  0  0  0  0  0  0  0  0  0  0  0
    5.6340   -9.1014    0.0000 C   0  0  0  0  0  0  0  0  0  0  0  0
    6.3484   -8.6889    0.0000 C   0  0  0  0  0  0  0  0  0  0  0  0
    6.3484   -7.8639    0.0000 C   0  0  0  0  0  0  0  0  0  0  0  0
    5.6340   -7.4514    0.0000 C   0  0  0  0  0  0  0  0  0  0  0  0
    4.2050   -9.9264    0.0000 O   0  0  0  0  0  0  0  0  0  0  0  0
    5.6340   -9.9264    0.0000 O   0  0  0  0  0  0  0  0  0  0  0  0
    7.0629   -9.1014    0.0000 O   0  0  0  0  0  0  0  0  0  0  0  0
    7.7774   -7.8639    0.0000 C   0  0  0  0  0  0  0  0  0  0  0  0
    7.0629   -7.4514    0.0000 C   0  0  0  0  0  0  0  0  0  0  0  0
    8.4919   -7.4514    0.0000 C   0  0  0  0  0  0  0  0  0  0  0  0
    8.4919   -6.6264    0.0000 C   0  0  0  0  0  0  0  0  0  0  0  0
    7.7774   -6.2139    0.0000 C   0  0  0  0  0  0  0  0  0  0  0  0
    7.0629   -6.6264    0.0000 C   0  0  0  0  0  0  0  0  0  0  0  0
    9.2063   -6.2139    0.0000 O   0  0  0  0  0  0  0  0  0  0  0  0
    2.7761   -7.4514    0.0000 O   0  0  0  0  0  0  0  0  0  0  0  0
    6.3377  -11.1567    0.0000 C   0  0  2  0  0  0  0  0  0  0  0  0
    7.0518  -11.5699    0.0000 C   0  0  2  0  0  0  0  0  0  0  0  0
    7.7667  -11.1582    0.0000 C   0  0  1  0  0  0  0  0  0  0  0  0
    7.7676  -10.3332    0.0000 C   0  0  2  0  0  0  0  0  0  0  0  0
    7.0536   -9.9199    0.0000 C   0  0  1  0  0  0  0  0  0  0  0  0
    6.3386  -10.3317    0.0000 O   0  0  0  0  0  0  0  0  0  0  0  0
    5.6228  -11.5684    0.0000 C   0  0  0  0  0  0  0  0  0  0  0  0
    8.4807  -11.5715    0.0000 O   0  0  0  0  0  0  0  0  0  0  0  0
    7.0508  -12.3949    0.0000 O   0  0  0  0  0  0  0  0  0  0  0  0
    8.4825   -9.9215    0.0000 O   0  0  0  0  0  0  0  0  0  0  0  0
    5.6219  -12.3934    0.0000 O   0  0  0  0  0  0  0  0  0  0  0  0
    9.1965  -10.3348    0.0000 C   0  0  2  0  0  0  0  0  0  0  0  0
    9.1956  -11.1598    0.0000 O   0  0  0  0  0  0  0  0  0  0  0  0
    9.9096  -11.5731    0.0000 C   0  0  1  0  0  0  0  0  0  0  0  0
   10.6246  -11.1614    0.0000 C   0  0  2  0  0  0  0  0  0  0  0  0
   10.6255  -10.3364    0.0000 C   0  0  1  0  0  0  0  0  0  0  0  0
    9.9114   -9.9231    0.0000 C   0  0  1  0  0  0  0  0  0  0  0  0
    9.9087  -12.3981    0.0000 C   0  0  0  0  0  0  0  0  0  0  0  0
   11.3404   -9.9246    0.0000 O   0  0  0  0  0  0  0  0  0  0  0  0
    9.9123   -9.0981    0.0000 O   0  0  0  0  0  0  0  0  0  0  0  0
   11.3386  -11.5746    0.0000 O   0  0  0  0  0  0  0  0  0  0  0  0
   10.6227  -12.8114    0.0000 O   0  0  0  0  0  0  0  0  0  0  0  0
   10.6218  -13.6364    0.0000 C   0  0  0  0  0  0  0  0  0  0  0  0
   11.3359  -14.0496    0.0000 O   0  0  0  0  0  0  0  0  0  0  0  0
    9.9069  -14.0481    0.0000 C   0  0  0  0  0  0  0  0  0  0  0  0
  1  2  2  0  0  0  0
  2  3  1  0  0  0  0
  3  4  2  0  0  0  0
  4  5  1  0  0  0  0
  5  6  2  0  0  0  0
  6  1  1  0  0  0  0
  4  7  1  0  0  0  0
  7  8  1  0  0  0  0
  8  9  2  0  0  0  0
  9 10  1  0  0  0  0
 10  5  1  0  0  0  0
  3 11  1  0  0  0  0
 12  7  2  0  0  0  0
  8 13  1  0  0  0  0
 14 15  2  0  0  0  0
 15  9  1  0  0  0  0
 14 16  1  0  0  0  0
 16 17  2  0  0  0  0
 17 18  1  0  0  0  0
 18 19  2  0  0  0  0
 19 15  1  0  0  0  0
 17 20  1  0  0  0  0
  1 21  1  0  0  0  0
 22 23  1  0  0  0  0
 23 24  1  0  0  0  0
 24 25  1  0  0  0  0
 25 26  1  0  0  0  0
 26 27  1  0  0  0  0
 27 22  1  0  0  0  0
 22 28  1  1  0  0  0
 24 29  1  1  0  0  0
 23 30  1  6  0  0  0
 25 31  1  6  0  0  0
 28 32  1  0  0  0  0
 33 31  1  1  0  0  0
 33 34  1  0  0  0  0
 34 35  1  0  0  0  0
 35 36  1  0  0  0  0
 36 37  1  0  0  0  0
 37 38  1  0  0  0  0
 38 33  1  0  0  0  0
 35 39  1  1  0  0  0
 37 40  1  1  0  0  0
 38 41  1  6  0  0  0
 36 42  1  6  0  0  0
 39 43  1  0  0  0  0
 26 13  1  1  0  0  0
 43 44  1  0  0  0  0
 44 45  2  0  0  0  0
 44 46  1  0  0  0  0
M  END
>  <cdx:fragmentId>
88

$$$$
