91197.cdx
  Mrv1902 05222410242D          

 45 50  0  0  0  0            999 V2000
    5.5943   -6.0489    0.0000 C   0  0  0  0  0  0  0  0  0  0  0  0
    5.5943   -6.8739    0.0000 C   0  0  0  0  0  0  0  0  0  0  0  0
    6.3088   -7.2864    0.0000 C   0  0  0  0  0  0  0  0  0  0  0  0
    7.0232   -6.8739    0.0000 C   0  0  0  0  0  0  0  0  0  0  0  0
    7.0232   -6.0489    0.0000 C   0  0  0  0  0  0  0  0  0  0  0  0
    6.3088   -5.6364    0.0000 C   0  0  0  0  0  0  0  0  0  0  0  0
    7.7377   -7.2864    0.0000 C   0  0  2  0  0  0  0  0  0  0  0  0
    8.4522   -6.8739    0.0000 N   0  0  0  0  0  0  0  0  0  0  0  0
    8.4522   -6.0489    0.0000 C   0  0  0  0  0  0  0  0  0  0  0  0
    7.7377   -5.6364    0.0000 C   0  0  0  0  0  0  0  0  0  0  0  0
    7.7377   -8.1114    0.0000 C   0  0  0  0  0  0  0  0  0  0  0  0
    8.4522   -8.5239    0.0000 C   0  0  0  0  0  0  0  0  0  0  0  0
    9.1667   -8.1114    0.0000 C   0  0  0  0  0  0  0  0  0  0  0  0
    9.1667   -7.2864    0.0000 C   0  0  0  0  0  0  0  0  0  0  0  0
    8.4522   -9.3489    0.0000 C   0  0  0  0  0  0  0  0  0  0  0  0
    9.1667   -9.7614    0.0000 C   0  0  0  0  0  0  0  0  0  0  0  0
    9.8811   -9.3489    0.0000 C   0  0  0  0  0  0  0  0  0  0  0  0
    9.8811   -8.5239    0.0000 C   0  0  0  0  0  0  0  0  0  0  0  0
    4.8798   -5.6364    0.0000 O   0  0  0  0  0  0  0  0  0  0  0  0
    4.8798   -7.2864    0.0000 O   0  0  0  0  0  0  0  0  0  0  0  0
    4.8798   -8.1114    0.0000 C   0  0  0  0  0  0  0  0  0  0  0  0
    5.5943   -8.5239    0.0000 C   0  0  0  0  0  0  0  0  0  0  0  0
    4.1654   -8.5239    0.0000 C   0  0  0  0  0  0  0  0  0  0  0  0
    4.1654   -9.3489    0.0000 C   0  0  0  0  0  0  0  0  0  0  0  0
    4.8798   -9.7614    0.0000 C   0  0  0  0  0  0  0  0  0  0  0  0
    5.5943   -9.3489    0.0000 C   0  0  0  0  0  0  0  0  0  0  0  0
    4.8798  -10.5864    0.0000 C   0  0  0  0  0  0  0  0  0  0  0  0
    5.5943  -10.9989    0.0000 N   0  0  0  0  0  0  0  0  0  0  0  0
    6.3088  -10.5864    0.0000 C   0  0  2  0  0  0  0  0  0  0  0  0
    6.3088   -9.7614    0.0000 C   0  0  0  0  0  0  0  0  0  0  0  0
    5.5943  -11.8239    0.0000 C   0  0  0  0  0  0  0  0  0  0  0  0
    6.3088  -12.2364    0.0000 C   0  0  0  0  0  0  0  0  0  0  0  0
    7.0232  -11.8239    0.0000 C   0  0  0  0  0  0  0  0  0  0  0  0
    7.0232  -10.9989    0.0000 C   0  0  0  0  0  0  0  0  0  0  0  0
    7.7377  -12.2364    0.0000 C   0  0  0  0  0  0  0  0  0  0  0  0
    8.4522  -11.8239    0.0000 C   0  0  0  0  0  0  0  0  0  0  0  0
    8.4522  -10.9989    0.0000 C   0  0  0  0  0  0  0  0  0  0  0  0
    7.7377  -10.5864    0.0000 C   0  0  0  0  0  0  0  0  0  0  0  0
    9.1667  -12.2364    0.0000 O   0  0  0  0  0  0  0  0  0  0  0  0
    9.8811  -10.9989    0.0000 C   0  0  0  0  0  0  0  0  0  0  0  0
    9.1667  -10.5864    0.0000 O   0  0  0  0  0  0  0  0  0  0  0  0
   10.5956   -9.7614    0.0000 O   0  0  0  0  0  0  0  0  0  0  0  0
    4.8798   -4.8114    0.0000 C   0  0  0  0  0  0  0  0  0  0  0  0
    3.4509   -8.1114    0.0000 O   0  0  0  0  0  0  0  0  0  0  0  0
    9.1667  -13.0614    0.0000 C   0  0  0  0  0  0  0  0  0  0  0  0
  1  2  2  0  0  0  0
  2  3  1  0  0  0  0
  3  4  2  0  0  0  0
  4  5  1  0  0  0  0
  5  6  2  0  0  0  0
  6  1  1  0  0  0  0
  4  7  1  0  0  0  0
  7  8  1  0  0  0  0
  8  9  1  0  0  0  0
  9 10  1  0  0  0  0
 10  5  1  0  0  0  0
  7 11  1  6  0  0  0
 11 12  1  0  0  0  0
 12 13  2  0  0  0  0
 14  8  1  0  0  0  0
 12 15  1  0  0  0  0
 15 16  2  0  0  0  0
 16 17  1  0  0  0  0
 17 18  2  0  0  0  0
 18 13  1  0  0  0  0
  1 19  1  0  0  0  0
 20  2  1  0  0  0  0
 20 21  1  0  0  0  0
 21 22  1  0  0  0  0
 21 23  2  0  0  0  0
 23 24  1  0  0  0  0
 24 25  2  0  0  0  0
 25 26  1  0  0  0  0
 26 22  2  0  0  0  0
 27 28  1  0  0  0  0
 28 29  1  0  0  0  0
 29 30  1  6  0  0  0
 30 26  1  0  0  0  0
 28 31  1  0  0  0  0
 31 32  1  0  0  0  0
 32 33  1  0  0  0  0
 33 34  1  0  0  0  0
 34 29  1  0  0  0  0
 33 35  2  0  0  0  0
 35 36  1  0  0  0  0
 36 37  2  0  0  0  0
 37 38  1  0  0  0  0
 38 34  2  0  0  0  0
 36 39  1  0  0  0  0
 40 41  1  0  0  0  0
 41 37  1  0  0  0  0
 17 42  1  0  0  0  0
 19 43  1  0  0  0  0
 23 44  1  0  0  0  0
 39 45  1  0  0  0  0
M  END
>  <cdx:fragmentId>
5

$$$$
