91191.cdx
  Mrv1902 05222410262D          

 20 22  0  0  0  0            999 V2000
    3.4570   -7.7183    0.0000 C   0  0  0  0  0  0  0  0  0  0  0  0
    5.4443   -6.7914    0.0000 O   0  0  0  0  0  0  0  0  0  0  0  0
    4.6400   -6.9750    0.0000 C   0  0  0  0  0  0  0  0  0  0  0  0
    4.2820   -7.7183    0.0000 C   0  0  0  0  0  0  0  0  0  0  0  0
    4.6400   -8.4616    0.0000 C   0  0  0  0  0  0  0  0  0  0  0  0
    5.4443   -8.6452    0.0000 C   0  0  0  0  0  0  0  0  0  0  0  0
   10.3761   -7.3058    0.0000 O   0  0  0  0  0  0  0  0  0  0  0  0
    9.6617   -6.8933    0.0000 C   0  0  0  0  0  0  0  0  0  0  0  0
    6.8038   -9.3683    0.0000 O   0  0  0  0  0  0  0  0  0  0  0  0
    8.2327   -9.3683    0.0000 O   0  0  0  0  0  0  0  0  0  0  0  0
    8.2327   -8.5433    0.0000 C   0  0  0  0  0  0  0  0  0  0  0  0
    8.9472   -8.1308    0.0000 C   0  0  0  0  0  0  0  0  0  0  0  0
    8.9472   -7.3058    0.0000 C   0  0  0  0  0  0  0  0  0  0  0  0
    8.2327   -6.8933    0.0000 O   0  0  0  0  0  0  0  0  0  0  0  0
    6.8038   -8.5433    0.0000 C   0  0  0  0  0  0  0  0  0  0  0  0
    7.5182   -8.1308    0.0000 C   0  0  0  0  0  0  0  0  0  0  0  0
    7.5182   -7.3058    0.0000 C   0  0  0  0  0  0  0  0  0  0  0  0
    6.8038   -6.8933    0.0000 C   0  0  0  0  0  0  0  0  0  0  0  0
    6.0893   -7.3058    0.0000 C   0  0  0  0  0  0  0  0  0  0  0  0
    6.0893   -8.1308    0.0000 C   0  0  0  0  0  0  0  0  0  0  0  0
  4  1  1  0  0  0  0
  2 19  1  0  0  0  0
  3  2  1  0  0  0  0
  4  3  1  0  0  0  0
  5  4  2  0  0  0  0
  6  5  1  0  0  0  0
 20  6  1  0  0  0  0
  8  7  1  0  0  0  0
 13  8  1  0  0  0  0
  9 15  1  0  0  0  0
 11 10  2  0  0  0  0
 11 16  1  0  0  0  0
 12 11  1  0  0  0  0
 13 12  2  0  0  0  0
 14 13  1  0  0  0  0
 17 14  1  0  0  0  0
 15 20  1  0  0  0  0
 16 15  2  0  0  0  0
 17 16  1  0  0  0  0
 18 17  2  0  0  0  0
 19 18  1  0  0  0  0
 20 19  2  0  0  0  0
M  END
>  <cdx:fragmentId>
5

$$$$
