91204.cdx
  Mrv1902 05222410232D          

 31 34  0  0  0  0            999 V2000
    7.0449  -11.8837    0.0000 O   0  0  0  0  0  0  0  0  0  0  0  0
    8.4737  -11.8637    0.0000 O   0  0  0  0  0  0  0  0  0  0  0  0
    8.4621  -11.0388    0.0000 C   0  0  2  0  0  0  0  0  0  0  0  0
    7.7419  -10.6363    0.0000 C   0  0  1  0  0  0  0  0  0  0  0  0
    9.1188   -7.3267    0.0000 O   0  0  0  0  0  0  0  0  0  0  0  0
    6.9639   -6.1093    0.0000 O   0  0  0  0  0  0  0  0  0  0  0  0
    5.5814   -9.4290    0.0000 O   0  0  0  0  0  0  0  0  0  0  0  0
    5.5351   -6.1293    0.0000 O   0  0  0  0  0  0  0  0  0  0  0  0
    4.1179   -6.9743    0.0000 C   0  0  0  0  0  0  0  0  0  0  0  0
    3.4093   -7.3967    0.0000 C   0  0  0  0  0  0  0  0  0  0  0  0
    3.4208   -8.2216    0.0000 C   0  0  0  0  0  0  0  0  0  0  0  0
    4.1410   -8.6241    0.0000 C   0  0  0  0  0  0  0  0  0  0  0  0
    5.5467   -6.9542    0.0000 C   0  0  0  0  0  0  0  0  0  0  0  0
    4.8381   -7.3767    0.0000 C   0  0  0  0  0  0  0  0  0  0  0  0
    4.8496   -8.2016    0.0000 C   0  0  0  0  0  0  0  0  0  0  0  0
    5.5698   -8.6041    0.0000 C   0  0  0  0  0  0  0  0  0  0  0  0
    6.9755   -6.9342    0.0000 C   0  0  0  0  0  0  0  0  0  0  0  0
    6.2669   -7.3567    0.0000 C   0  0  0  0  0  0  0  0  0  0  0  0
    6.2784   -8.1816    0.0000 C   0  0  0  0  0  0  0  0  0  0  0  0
    6.9986   -8.5840    0.0000 C   0  0  0  0  0  0  0  0  0  0  0  0
    7.0333  -11.0588    0.0000 C   0  0  0  0  0  0  0  0  0  0  0  0
    8.4043   -6.9142    0.0000 C   0  0  0  0  0  0  0  0  0  0  0  0
    7.6957   -7.3367    0.0000 C   0  0  0  0  0  0  0  0  0  0  0  0
    7.7072   -8.1616    0.0000 C   0  0  0  0  0  0  0  0  0  0  0  0
    9.1707  -10.6163    0.0000 C   0  0  1  0  0  0  0  0  0  0  0  0
    9.1592   -9.7914    0.0000 C   0  0  2  0  0  0  0  0  0  0  0  0
    8.4390   -9.3889    0.0000 C   0  0  1  0  0  0  0  0  0  0  0  0
    7.7304   -9.8114    0.0000 O   0  0  0  0  0  0  0  0  0  0  0  0
    8.4274   -8.5640    0.0000 O   0  0  0  0  0  0  0  0  0  0  0  0
    9.8909  -11.0188    0.0000 O   0  0  0  0  0  0  0  0  0  0  0  0
    9.8678   -9.3689    0.0000 O   0  0  0  0  0  0  0  0  0  0  0  0
 22  5  1  0  0  0  0
 17  6  1  0  0  0  0
 16  7  2  0  0  0  0
 13  8  2  0  0  0  0
  9 14  2  0  0  0  0
 10  9  1  0  0  0  0
 11 10  2  0  0  0  0
 12 11  1  0  0  0  0
 15 12  2  0  0  0  0
 13 18  1  0  0  0  0
 14 13  1  0  0  0  0
 15 14  1  0  0  0  0
 16 15  1  0  0  0  0
 19 16  1  0  0  0  0
 17 23  1  0  0  0  0
 18 17  2  0  0  0  0
 19 18  1  0  0  0  0
 20 19  2  0  0  0  0
 24 20  1  0  0  0  0
 23 22  1  0  0  0  0
 24 23  2  0  0  0  0
 29 24  1  0  0  0  0
  3  2  1  6  0  0  0
  3  4  1  0  0  0  0
  4 21  1  1  0  0  0
 21  1  1  0  0  0  0
  3 25  1  0  0  0  0
 25 26  1  0  0  0  0
 26 27  1  0  0  0  0
 27 28  1  0  0  0  0
 28  4  1  0  0  0  0
 27 29  1  1  0  0  0
 25 30  1  1  0  0  0
 26 31  1  6  0  0  0
M  END
>  <cdx:fragmentId>
5

$$$$
