91202.cdx
  Mrv1902 05222410212D          

 19 21  0  0  0  0            999 V2000
    5.6008   -7.1657    0.0000 C   0  0  0  0  0  0  0  0  0  0  0  0
    5.7938   -7.9678    0.0000 C   0  0  2  0  0  0  0  0  0  0  0  0
    6.5412   -8.3170    0.0000 C   0  0  2  0  0  0  0  0  0  0  0  0
    7.2803   -7.9504    0.0000 C   0  0  2  0  0  0  0  0  0  0  0  0
    7.4544   -7.1439    0.0000 C   0  0  0  0  0  0  0  0  0  0  0  0
    6.9325   -6.5050    0.0000 C   0  0  0  0  0  0  0  0  0  0  0  0
    6.1076   -6.5147    0.0000 C   0  0  0  0  0  0  0  0  0  0  0  0
    4.8039   -7.3792    0.0000 C   0  0  0  0  0  0  0  0  0  0  0  0
    5.0174   -6.5823    0.0000 C   0  0  0  0  0  0  0  0  0  0  0  0
    5.7938   -8.7928    0.0000 C   0  0  1  0  0  0  0  0  0  0  0  0
    7.2803   -8.7754    0.0000 C   0  0  0  0  0  0  0  0  0  0  0  0
    8.0772   -8.9889    0.0000 C   0  0  0  0  0  0  0  0  0  0  0  0
    8.4897   -9.7033    0.0000 O   0  0  0  0  0  0  0  0  0  0  0  0
    6.2063   -9.5072    0.0000 C   0  0  0  0  0  0  0  0  0  0  0  0
    6.9208   -9.0947    0.0000 C   0  0  0  0  0  0  0  0  0  0  0  0
    4.9745   -8.0649    0.0000 H   0  0  0  0  0  0  0  0  0  0  0  0
    8.1006   -8.0379    0.0000 C   0  0  0  0  0  0  0  0  0  0  0  0
    6.1287   -9.0315    0.0000 H   0  0  0  0  0  0  0  0  0  0  0  0
    4.9969   -9.0063    0.0000 H   0  0  0  0  0  0  0  0  0  0  0  0
  1  2  1  0  0  0  0
  2  3  1  0  0  0  0
  3  4  1  0  0  0  0
  4  5  1  0  0  0  0
  5  6  1  0  0  0  0
  6  7  1  0  0  0  0
  7  1  1  0  0  0  0
  1  8  1  0  0  0  0
  1  9  1  0  0  0  0
  2 10  1  0  0  0  0
  4 11  1  0  0  0  0
 10 11  1  0  0  0  0
 11 12  1  0  0  0  0
 12 13  1  0  0  0  0
 10 14  1  0  0  0  0
 14 15  1  0  0  0  0
  3 15  1  0  0  0  0
  2 16  1  1  0  0  0
  4 17  1  1  0  0  0
  3 18  1  1  0  0  0
 10 19  1  6  0  0  0
M  END
>  <cdx:fragmentId>
5

$$$$
