91226.cdx
  Mrv1902 05222410252D          

 12 11  0  0  0  0            999 V2000
    8.5011   -7.1673    0.0000 O   0  0  0  0  0  0  0  0  0  0  0  0
    8.5026   -7.9923    0.0000 C   0  0  0  0  0  0  0  0  0  0  0  0
    7.7889   -8.4061    0.0000 C   0  0  2  0  0  0  0  0  0  0  0  0
    7.7903   -9.2311    0.0000 C   0  0  0  0  0  0  0  0  0  0  0  0
    7.0766   -9.6448    0.0000 C   0  0  0  0  0  0  0  0  0  0  0  0
    7.0781  -10.4698    0.0000 C   0  0  0  0  0  0  0  0  0  0  0  0
    6.3643  -10.8836    0.0000 N   0  0  0  0  0  0  0  0  0  0  0  0
    6.3658  -11.7086    0.0000 C   0  0  0  0  0  0  0  0  0  0  0  0
    5.6521  -12.1224    0.0000 C   0  0  0  0  0  0  0  0  0  0  0  0
    7.0810  -12.1198    0.0000 O   0  0  0  0  0  0  0  0  0  0  0  0
    9.2178   -8.4035    0.0000 O   0  0  0  0  0  0  0  0  0  0  0  0
    7.0737   -7.9948    0.0000 N   0  0  0  0  0  0  0  0  0  0  0  0
  1  2  2  0  0  0  0
  2  3  1  0  0  0  0
  3  4  1  0  0  0  0
  4  5  1  0  0  0  0
  5  6  1  0  0  0  0
  6  7  1  0  0  0  0
  7  8  1  0  0  0  0
  8  9  1  0  0  0  0
  8 10  2  0  0  0  0
  2 11  1  0  0  0  0
  3 12  1  6  0  0  0
M  END
>  <cdx:fragmentId>
3

$$$$
