91221.cdx
  Mrv1902 05222410232D          

 32 31  0  0  0  0            999 V2000
   12.6775  -10.0639    0.0000 C   0  0  0  0  0  0  0  0  0  0  0  0
   12.2774  -10.2949    0.0000 C   0  0  0  0  0  0  0  0  0  0  0  0
   11.8773  -10.0639    0.0000 C   0  0  0  0  0  0  0  0  0  0  0  0
   11.4772  -10.2949    0.0000 C   0  0  0  0  0  0  0  0  0  0  0  0
   11.0771  -10.0639    0.0000 C   0  0  0  0  0  0  0  0  0  0  0  0
   10.6770  -10.2949    0.0000 C   0  0  0  0  0  0  0  0  0  0  0  0
   10.2769  -10.0639    0.0000 C   0  0  0  0  0  0  0  0  0  0  0  0
    9.8768  -10.2949    0.0000 C   0  0  0  0  0  0  0  0  0  0  0  0
    9.4767  -10.0639    0.0000 C   0  0  0  0  0  0  0  0  0  0  0  0
    9.0766  -10.2949    0.0000 C   0  0  0  0  0  0  0  0  0  0  0  0
    8.6765  -10.0639    0.0000 C   0  0  0  0  0  0  0  0  0  0  0  0
    8.2764  -10.2949    0.0000 C   0  0  0  0  0  0  0  0  0  0  0  0
    7.8763  -10.0639    0.0000 C   0  0  0  0  0  0  0  0  0  0  0  0
    7.4762  -10.2949    0.0000 C   0  0  0  0  0  0  0  0  0  0  0  0
    7.0761  -10.0639    0.0000 C   0  0  0  0  0  0  0  0  0  0  0  0
    6.6760  -10.2949    0.0000 C   0  0  0  0  0  0  0  0  0  0  0  0
    6.2759  -10.0639    0.0000 C   0  0  0  0  0  0  0  0  0  0  0  0
    5.8758  -10.2949    0.0000 C   0  0  0  0  0  0  0  0  0  0  0  0
    5.4757  -10.0639    0.0000 C   0  0  0  0  0  0  0  0  0  0  0  0
    5.0756  -10.2949    0.0000 C   0  0  0  0  0  0  0  0  0  0  0  0
    4.6754  -10.0639    0.0000 C   0  0  0  0  0  0  0  0  0  0  0  0
    4.2753  -10.2949    0.0000 C   0  0  0  0  0  0  0  0  0  0  0  0
    3.8752  -10.0639    0.0000 C   0  0  0  0  0  0  0  0  0  0  0  0
    3.4751  -10.2949    0.0000 C   0  0  0  0  0  0  0  0  0  0  0  0
    3.0750  -10.0639    0.0000 C   0  0  0  0  0  0  0  0  0  0  0  0
    2.6749  -10.2949    0.0000 C   0  0  0  0  0  0  0  0  0  0  0  0
    2.2748  -10.0639    0.0000 C   0  0  0  0  0  0  0  0  0  0  0  0
    1.8747  -10.2949    0.0000 C   0  0  0  0  0  0  0  0  0  0  0  0
    1.4746  -10.0639    0.0000 C   0  0  0  0  0  0  0  0  0  0  0  0
    1.0745  -10.2949    0.0000 C   0  0  0  0  0  0  0  0  0  0  0  0
    0.6744  -10.0639    0.0000 O   0  0  0  0  0  0  0  0  0  0  0  0
    1.0745  -10.7569    0.0000 O   0  0  0  0  0  0  0  0  0  0  0  0
  2  1  1  0  0  0  0
  3  2  1  0  0  0  0
  4  3  1  0  0  0  0
  5  4  1  0  0  0  0
  6  5  1  0  0  0  0
  7  6  1  0  0  0  0
  8  7  1  0  0  0  0
  9  8  1  0  0  0  0
 10  9  1  0  0  0  0
 11 10  1  0  0  0  0
 12 11  1  0  0  0  0
 13 12  1  0  0  0  0
 14 13  1  0  0  0  0
 15 14  1  0  0  0  0
 16 15  1  0  0  0  0
 17 16  1  0  0  0  0
 18 17  1  0  0  0  0
 19 18  1  0  0  0  0
 20 19  1  0  0  0  0
 21 20  1  0  0  0  0
 22 21  1  0  0  0  0
 23 22  1  0  0  0  0
 24 23  1  0  0  0  0
 25 24  1  0  0  0  0
 26 25  1  0  0  0  0
 27 26  1  0  0  0  0
 28 27  1  0  0  0  0
 29 28  1  0  0  0  0
 30 29  1  0  0  0  0
 31 30  1  0  0  0  0
 30 32  2  0  0  0  0
M  END
>  <cdx:fragmentId>
3

$$$$
