91223.cdx
  Mrv1902 05222410242D          

 20 21  0  0  0  0            999 V2000
    3.8618   -6.8189    0.0000 C   0  0  0  0  0  0  0  0  0  0  0  0
    3.8618   -7.6439    0.0000 C   0  0  0  0  0  0  0  0  0  0  0  0
    4.5763   -8.0564    0.0000 C   0  0  0  0  0  0  0  0  0  0  0  0
    5.2907   -7.6439    0.0000 C   0  0  0  0  0  0  0  0  0  0  0  0
    5.2907   -6.8189    0.0000 C   0  0  0  0  0  0  0  0  0  0  0  0
    4.5763   -6.4064    0.0000 C   0  0  0  0  0  0  0  0  0  0  0  0
    6.0052   -8.0564    0.0000 C   0  0  0  0  0  0  0  0  0  0  0  0
    6.7197   -7.6439    0.0000 N   0  0  0  0  0  0  0  0  0  0  0  0
    6.0052   -8.8814    0.0000 O   0  0  0  0  0  0  0  0  0  0  0  0
    7.4734   -7.9795    0.0000 C   0  0  0  0  0  0  0  0  0  0  0  0
    8.0254   -7.3664    0.0000 C   0  0  0  0  0  0  0  0  0  0  0  0
    7.6129   -6.6519    0.0000 C   0  0  0  0  0  0  0  0  0  0  0  0
    6.8059   -6.8234    0.0000 C   0  0  0  0  0  0  0  0  0  0  0  0
    7.6449   -8.7864    0.0000 C   0  0  0  0  0  0  0  0  0  0  0  0
    7.0318   -9.3385    0.0000 O   0  0  0  0  0  0  0  0  0  0  0  0
    8.4295   -9.0414    0.0000 O   0  0  0  0  0  0  0  0  0  0  0  0
    9.0426   -8.4893    0.0000 C   0  0  0  0  0  0  0  0  0  0  0  0
    9.8272   -8.7443    0.0000 C   0  0  0  0  0  0  0  0  0  0  0  0
   10.4403   -8.1922    0.0000 C   0  0  0  0  0  0  0  0  0  0  0  0
    9.9988   -9.5512    0.0000 C   0  0  0  0  0  0  0  0  0  0  0  0
  1  2  1  0  0  0  0
  2  3  1  0  0  0  0
  3  4  1  0  0  0  0
  4  5  1  0  0  0  0
  5  6  1  0  0  0  0
  6  1  1  0  0  0  0
  4  7  1  0  0  0  0
  7  8  1  0  0  0  0
  7  9  2  0  0  0  0
  8 10  1  0  0  0  0
 10 11  1  0  0  0  0
 11 12  1  0  0  0  0
 12 13  1  0  0  0  0
 13  8  1  0  0  0  0
 10 14  1  0  0  0  0
 14 15  2  0  0  0  0
 14 16  1  0  0  0  0
 16 17  1  0  0  0  0
 17 18  1  0  0  0  0
 18 19  1  0  0  0  0
 18 20  1  0  0  0  0
M  END
>  <cdx:fragmentId>
5

$$$$
