6912281.cdx
  Mrv1902 05222410252D          

 27 29  0  0  0  0            999 V2000
    8.7953  -13.4837    0.0000 C   0  0  2  0  0  0  0  0  0  0  0  0
    7.9811  -13.6165    0.0000 O   0  0  0  0  0  0  0  0  0  0  0  0
    7.5349  -14.3104    0.0000 C   0  0  0  0  0  0  0  0  0  0  0  0
    6.7108  -14.2709    0.0000 C   0  0  0  0  0  0  0  0  0  0  0  0
    6.3330  -13.5376    0.0000 C   0  0  0  0  0  0  0  0  0  0  0  0
    5.5351  -13.3276    0.0000 C   0  0  2  0  0  0  0  0  0  0  0  0
    5.4882  -12.5040    0.0000 C   0  0  1  0  0  0  0  0  0  0  0  0
    6.2571  -12.2048    0.0000 C   0  0  0  0  0  0  0  0  0  0  0  0
    6.7792  -12.8436    0.0000 O   0  0  0  0  0  0  0  0  0  0  0  0
    7.6032  -12.8831    0.0000 C   0  0  0  0  0  0  0  0  0  0  0  0
    8.1839  -12.2971    0.0000 C   0  0  1  0  0  0  0  0  0  0  0  0
    8.6649  -11.6255    0.0000 C   0  0  0  0  0  0  0  0  0  0  0  0
    9.4803  -11.7508    0.0000 C   0  0  0  0  0  0  0  0  0  0  0  0
    9.7350  -12.5356    0.0000 N   0  0  0  0  0  0  0  0  0  0  0  0
   10.1128  -13.2690    0.0000 C   0  0  0  0  0  0  0  0  0  0  0  0
    9.5321  -13.8549    0.0000 C   0  0  0  0  0  0  0  0  0  0  0  0
    8.9207  -12.6683    0.0000 C   0  0  1  0  0  0  0  0  0  0  0  0
    7.9474  -15.0249    0.0000 O   0  0  0  0  0  0  0  0  0  0  0  0
    6.4670  -11.4070    0.0000 O   0  0  0  0  0  0  0  0  0  0  0  0
    5.0757  -11.7895    0.0000 C   0  0  0  0  0  0  0  0  0  0  0  0
    4.8963  -13.8497    0.0000 C   0  0  0  0  0  0  0  0  0  0  0  0
    4.6632  -12.5040    0.0000 O   0  0  0  0  0  0  0  0  0  0  0  0
    6.2983  -14.9854    0.0000 C   0  0  0  0  0  0  0  0  0  0  0  0
    5.4733  -14.9854    0.0000 C   0  0  0  0  0  0  0  0  0  0  0  0
    8.6700  -14.2991    0.0000 H   0  0  0  0  0  0  0  0  0  0  0  0
    7.5536  -11.7649    0.0000 H   0  0  0  0  0  0  0  0  0  0  0  0
    8.9207  -12.0496    0.0000 H   0  0  0  0  0  0  0  0  0  0  0  0
  1  2  1  0  0  0  0
  2  3  1  0  0  0  0
  3  4  1  0  0  0  0
  4  5  1  0  0  0  0
  5  6  1  0  0  0  0
  6  7  1  0  0  0  0
  7  8  1  0  0  0  0
  8  9  1  0  0  0  0
  9 10  1  0  0  0  0
 10 11  1  0  0  0  0
 11 12  1  0  0  0  0
 12 13  1  0  0  0  0
 13 14  1  0  0  0  0
 14 15  1  0  0  0  0
 15 16  1  0  0  0  0
  1 16  1  0  0  0  0
  1 17  1  0  0  0  0
 17 11  1  0  0  0  0
 14 17  1  0  0  0  0
  3 18  2  0  0  0  0
  8 19  2  0  0  0  0
  7 20  1  6  0  0  0
  6 21  1  1  0  0  0
  7 22  1  1  0  0  0
 23 24  1  0  0  0  0
  4 23  2  0  0  0  0
  1 25  1  6  0  0  0
 11 26  1  6  0  0  0
 17 27  1  6  0  0  0
M  END
>  <cdx:groupId>
27063

>  <cdx:fragmentId>
26983

$$$$
