91225.cdx
  Mrv1902 05222410252D          

 18 19  0  0  0  0            999 V2000
    5.2643  -10.6826    0.0000 C   0  0  0  0  0  0  0  0  0  0  0  0
    5.2643  -11.5076    0.0000 C   0  0  0  0  0  0  0  0  0  0  0  0
    5.9788  -11.9201    0.0000 C   0  0  0  0  0  0  0  0  0  0  0  0
    6.6932  -11.5076    0.0000 C   0  0  0  0  0  0  0  0  0  0  0  0
    6.6932  -10.6826    0.0000 C   0  0  0  0  0  0  0  0  0  0  0  0
    5.9788  -10.2701    0.0000 C   0  0  0  0  0  0  0  0  0  0  0  0
    7.4779  -11.7626    0.0000 N   0  0  0  0  0  0  0  0  0  0  0  0
    7.9628  -11.0951    0.0000 C   0  0  0  0  0  0  0  0  0  0  0  0
    7.4779  -10.4277    0.0000 C   0  0  0  0  0  0  0  0  0  0  0  0
    7.7328   -9.6431    0.0000 C   0  0  0  0  0  0  0  0  0  0  0  0
    8.5297   -9.4296    0.0000 C   0  0  2  0  0  0  0  0  0  0  0  0
    8.7432   -8.6327    0.0000 N   0  3  0  0  0  0  0  0  0  0  0  0
    9.1131  -10.0129    0.0000 C   0  0  0  0  0  0  0  0  0  0  0  0
    9.9099   -9.7994    0.0000 O   0  5  0  0  0  0  0  0  0  0  0  0
    8.8995  -10.8098    0.0000 O   0  0  0  0  0  0  0  0  0  0  0  0
    8.9567   -7.8358    0.0000 C   0  0  0  0  0  0  0  0  0  0  0  0
    7.9463   -8.4191    0.0000 C   0  0  0  0  0  0  0  0  0  0  0  0
    9.5401   -8.8462    0.0000 C   0  0  0  0  0  0  0  0  0  0  0  0
  1  2  2  0  0  0  0
  2  3  1  0  0  0  0
  3  4  2  0  0  0  0
  4  5  1  0  0  0  0
  5  6  2  0  0  0  0
  6  1  1  0  0  0  0
  4  7  1  0  0  0  0
  7  8  1  0  0  0  0
  8  9  2  0  0  0  0
  9  5  1  0  0  0  0
  9 10  1  0  0  0  0
 10 11  1  0  0  0  0
 11 12  1  0  0  0  0
 11 13  1  6  0  0  0
 13 14  1  0  0  0  0
 13 15  2  0  0  0  0
 12 16  1  0  0  0  0
 12 17  1  0  0  0  0
 12 18  1  0  0  0  0
M  CHG  2  12   1  14  -1
M  END
>  <cdx:fragmentId>
5

$$$$
