91237.cdx
  Mrv1902 05222410242D          

 50 54  0  0  0  0            999 V2000
    6.6668   -9.1289    0.0000 C   0  0  2  0  0  0  0  0  0  0  0  0
    6.6668   -9.9539    0.0000 C   0  0  2  0  0  0  0  0  0  0  0  0
    7.3813  -10.3664    0.0000 C   0  0  1  0  0  0  0  0  0  0  0  0
    8.0957   -9.9539    0.0000 C   0  0  2  0  0  0  0  0  0  0  0  0
    8.0957   -9.1289    0.0000 C   0  0  1  0  0  0  0  0  0  0  0  0
    7.3813   -8.7164    0.0000 O   0  0  0  0  0  0  0  0  0  0  0  0
    5.2379   -7.4789    0.0000 C   0  0  0  0  0  0  0  0  0  0  0  0
    6.6668  -11.6039    0.0000 C   0  0  0  0  0  0  0  0  0  0  0  0
    5.9523  -10.3664    0.0000 O   0  0  0  0  0  0  0  0  0  0  0  0
    8.8102  -10.3664    0.0000 O   0  0  0  0  0  0  0  0  0  0  0  0
    4.5234   -7.8914    0.0000 C   0  0  0  0  0  0  0  0  0  0  0  0
    9.5247   -9.9539    0.0000 C   0  0  0  0  0  0  0  0  0  0  0  0
   10.2392  -10.3664    0.0000 C   0  0  0  0  0  0  0  0  0  0  0  0
    9.5247   -9.1289    0.0000 O   0  0  0  0  0  0  0  0  0  0  0  0
    5.9523  -11.1914    0.0000 C   0  0  0  0  0  0  0  0  0  0  0  0
    6.6668  -12.4289    0.0000 O   0  0  0  0  0  0  0  0  0  0  0  0
    7.3813  -11.1914    0.0000 O   0  0  0  0  0  0  0  0  0  0  0  0
    5.2379   -6.6539    0.0000 O   0  0  0  0  0  0  0  0  0  0  0  0
    5.9523   -7.8914    0.0000 O   0  0  0  0  0  0  0  0  0  0  0  0
    5.9523   -8.7164    0.0000 C   0  0  0  0  0  0  0  0  0  0  0  0
    5.2356   -9.9579    0.0000 C   0  0  0  0  0  0  0  0  0  0  0  0
    5.2309   -9.1329    0.0000 O   0  0  0  0  0  0  0  0  0  0  0  0
    2.3777   -9.9740    0.0000 O   0  0  0  0  0  0  0  0  0  0  0  0
    3.8020   -9.1410    0.0000 O   0  0  0  0  0  0  0  0  0  0  0  0
    3.8066   -9.9660    0.0000 C   0  0  0  0  0  0  0  0  0  0  0  0
    3.0945  -10.3825    0.0000 C   0  0  0  0  0  0  0  0  0  0  0  0
    3.0991  -11.2075    0.0000 C   0  0  0  0  0  0  0  0  0  0  0  0
    3.8159  -11.6159    0.0000 C   0  0  0  0  0  0  0  0  0  0  0  0
    4.5281  -11.1994    0.0000 C   0  0  0  0  0  0  0  0  0  0  0  0
    4.5234  -10.3744    0.0000 C   0  0  0  0  0  0  0  0  0  0  0  0
   10.2326   -7.0607    0.0000 H   0  0  0  0  0  0  0  0  0  0  0  0
   10.2359   -8.7107    0.0000 C   0  0  0  0  0  0  0  0  0  0  0  0
   10.2359   -7.8857    0.0000 C   0  0  0  0  0  0  0  0  0  0  0  0
    8.0810   -5.0068    0.0000 O   0  0  0  0  0  0  0  0  0  0  0  0
   10.2293   -6.2357    0.0000 C   0  0  0  0  0  0  0  0  0  0  0  0
   10.2260   -5.4107    0.0000 C   0  0  0  0  0  0  0  0  0  0  0  0
    9.5099   -5.0011    0.0000 O   0  0  0  0  0  0  0  0  0  0  0  0
    8.7971   -5.4164    0.0000 C   0  0  0  0  0  0  0  0  0  0  0  0
    9.5198   -7.4761    0.0000 C   0  0  2  0  0  0  0  0  0  0  0  0
    9.5165   -6.6511    0.0000 C   0  0  1  0  0  0  0  0  0  0  0  0
    8.8004   -6.2414    0.0000 C   0  0  0  0  0  0  0  0  0  0  0  0
    8.0876   -6.6568    0.0000 C   0  0  0  0  0  0  0  0  0  0  0  0
    8.0908   -7.4818    0.0000 O   0  0  0  0  0  0  0  0  0  0  0  0
    8.8069   -7.8914    0.0000 C   0  0  1  0  0  0  0  0  0  0  0  0
    8.8102   -8.7164    0.0000 O   0  0  0  0  0  0  0  0  0  0  0  0
   10.2392  -11.1914    0.0000 C   0  0  0  0  0  0  0  0  0  0  0  0
   10.9536  -11.6039    0.0000 C   0  0  0  0  0  0  0  0  0  0  0  0
   11.6681  -11.1914    0.0000 C   0  0  0  0  0  0  0  0  0  0  0  0
   11.6681  -10.3664    0.0000 C   0  0  0  0  0  0  0  0  0  0  0  0
   10.9536   -9.9539    0.0000 C   0  0  0  0  0  0  0  0  0  0  0  0
  1  2  1  0  0  0  0
  2  3  1  0  0  0  0
  3  4  1  0  0  0  0
  4  5  1  0  0  0  0
  5  6  1  0  0  0  0
  6  1  1  0  0  0  0
  1 20  1  1  0  0  0
 40 31  1  6  0  0  0
  5 45  1  1  0  0  0
  3 17  1  1  0  0  0
  2  9  1  6  0  0  0
  4 10  1  6  0  0  0
  7 11  1  0  0  0  0
 10 12  1  0  0  0  0
 12 13  1  0  0  0  0
 12 14  2  0  0  0  0
  8 15  1  0  0  0  0
 17  8  1  0  0  0  0
  8 16  2  0  0  0  0
 19  7  1  0  0  0  0
  7 18  2  0  0  0  0
 20 19  1  0  0  0  0
  9 21  1  0  0  0  0
 21 22  2  0  0  0  0
 26 23  1  0  0  0  0
 21 30  1  0  0  0  0
 25 24  1  0  0  0  0
 25 30  1  0  0  0  0
 26 25  2  0  0  0  0
 27 26  1  0  0  0  0
 28 27  2  0  0  0  0
 29 28  1  0  0  0  0
 30 29  2  0  0  0  0
 33 32  2  0  0  0  0
 39 33  1  1  0  0  0
 38 34  2  0  0  0  0
 35 40  1  0  0  0  0
 36 35  1  0  0  0  0
 37 36  1  0  0  0  0
 38 37  1  0  0  0  0
 41 38  1  0  0  0  0
 39 44  1  0  0  0  0
 40 39  1  0  0  0  0
 41 40  1  0  0  0  0
 42 41  2  0  0  0  0
 43 42  1  0  0  0  0
 44 43  1  0  0  0  0
 44 45  1  6  0  0  0
 13 46  2  0  0  0  0
 46 47  1  0  0  0  0
 47 48  2  0  0  0  0
 48 49  1  0  0  0  0
 49 50  2  0  0  0  0
 50 13  1  0  0  0  0
M  END
>  <cdx:fragmentId>
23

$$$$
