91239.cdx
  Mrv1902 05222410232D          

 37 39  0  0  0  0            999 V2000
    6.4420   -7.4523    0.0000 O   0  0  0  0  0  0  0  0  0  0  0  0
    6.4466   -8.2773    0.0000 C   0  0  0  0  0  0  0  0  0  0  0  0
    5.7344   -8.6938    0.0000 C   0  0  0  0  0  0  0  0  0  0  0  0
    5.0177   -8.2853    0.0000 C   0  0  0  0  0  0  0  0  0  0  0  0
    2.8812   -9.5348    0.0000 C   0  0  0  0  0  0  0  0  0  0  0  0
    3.5980   -9.9433    0.0000 C   0  0  0  0  0  0  0  0  0  0  0  0
    4.3101   -9.5268    0.0000 C   0  0  0  0  0  0  0  0  0  0  0  0
    4.3055   -8.7018    0.0000 C   0  0  0  0  0  0  0  0  0  0  0  0
    3.5887   -8.2933    0.0000 C   0  0  0  0  0  0  0  0  0  0  0  0
    2.8766   -8.7098    0.0000 C   0  0  0  0  0  0  0  0  0  0  0  0
    2.1691   -9.9513    0.0000 O   0  0  0  0  0  0  0  0  0  0  0  0
    2.1598   -8.3013    0.0000 O   0  0  0  0  0  0  0  0  0  0  0  0
    8.5845   -6.9882    0.0000 C   0  0  1  0  0  0  0  0  0  0  0  0
    8.1713   -6.2742    0.0000 O   0  0  0  0  0  0  0  0  0  0  0  0
    8.5830   -5.5593    0.0000 O   0  0  0  0  0  0  0  0  0  0  0  0
    9.8213   -6.2724    0.0000 O   0  0  0  0  0  0  0  0  0  0  0  0
    8.9963   -6.2733    0.0000 C   0  0  0  0  0  0  0  0  0  0  0  0
    4.9523   -3.3278    0.0000 C   0  0  0  0  0  0  0  0  0  0  0  0
    4.5256   -4.0340    0.0000 C   0  0  0  0  0  0  0  0  0  0  0  0
    4.9238   -4.7565    0.0000 C   0  0  0  0  0  0  0  0  0  0  0  0
    5.7487   -4.7729    0.0000 C   0  0  0  0  0  0  0  0  0  0  0  0
    6.1753   -4.0668    0.0000 C   0  0  0  0  0  0  0  0  0  0  0  0
    5.7771   -3.3443    0.0000 C   0  0  0  0  0  0  0  0  0  0  0  0
    4.5541   -2.6053    0.0000 O   0  0  0  0  0  0  0  0  0  0  0  0
    6.2038   -2.6382    0.0000 O   0  0  0  0  0  0  0  0  0  0  0  0
    6.1469   -5.4955    0.0000 C   0  0  0  0  0  0  0  0  0  0  0  0
    6.9717   -5.5119    0.0000 C   0  0  0  0  0  0  0  0  0  0  0  0
    7.3699   -6.2344    0.0000 C   0  0  0  0  0  0  0  0  0  0  0  0
    6.9432   -6.9406    0.0000 O   0  0  0  0  0  0  0  0  0  0  0  0
   10.0152   -8.6367    0.0000 O   0  0  0  0  0  0  0  0  0  0  0  0
    8.5871   -9.4632    0.0000 O   0  0  0  0  0  0  0  0  0  0  0  0
    7.1573   -8.6397    0.0000 O   0  0  0  0  0  0  0  0  0  0  0  0
    7.8714   -8.2264    0.0000 C   0  0  1  0  0  0  0  0  0  0  0  0
    8.5863   -8.6382    0.0000 C   0  0  1  0  0  0  0  0  0  0  0  0
    9.3003   -8.2250    0.0000 C   0  0  1  0  0  0  0  0  0  0  0  0
    9.2994   -7.4000    0.0000 C   0  0  0  0  0  0  0  0  0  0  0  0
    7.8705   -7.4014    0.0000 C   0  0  0  0  0  0  0  0  0  0  0  0
  2 32  1  0  0  0  0
  2  1  2  0  0  0  0
  3  2  1  0  0  0  0
  4  3  2  0  0  0  0
  8  4  1  0  0  0  0
  5  6  2  0  0  0  0
  6  7  1  0  0  0  0
  7  8  2  0  0  0  0
  8  9  1  0  0  0  0
  9 10  2  0  0  0  0
 10  5  1  0  0  0  0
  5 11  1  0  0  0  0
 10 12  1  0  0  0  0
 17 15  2  0  0  0  0
 13 17  1  0  0  0  0
 13 14  1  1  0  0  0
 17 16  1  0  0  0  0
 18 19  2  0  0  0  0
 19 20  1  0  0  0  0
 20 21  2  0  0  0  0
 21 22  1  0  0  0  0
 22 23  2  0  0  0  0
 23 18  1  0  0  0  0
 18 24  1  0  0  0  0
 23 25  1  0  0  0  0
 21 26  1  0  0  0  0
 26 27  2  0  0  0  0
 27 28  1  0  0  0  0
 28 29  2  0  0  0  0
 35 30  1  1  0  0  0
 34 31  1  1  0  0  0
 33 32  1  6  0  0  0
 33 37  1  0  0  0  0
 34 33  1  0  0  0  0
 35 34  1  0  0  0  0
 36 35  1  0  0  0  0
 13 36  1  0  0  0  0
 37 13  1  0  0  0  0
 28 14  1  0  0  0  0
M  END
>  <cdx:fragmentId>
5

$$$$
