91232.cdx
  Mrv1902 05222410252D          

 20 20  0  0  0  0            999 V2000
    4.0813   -8.6619    0.0000 C   0  0  0  0  0  0  0  0  0  0  0  0
    3.6688   -9.3764    0.0000 C   0  0  0  0  0  0  0  0  0  0  0  0
    4.0813  -10.0909    0.0000 C   0  0  0  0  0  0  0  0  0  0  0  0
    4.9063  -10.0909    0.0000 C   0  0  0  0  0  0  0  0  0  0  0  0
    5.3188   -9.3764    0.0000 C   0  0  0  0  0  0  0  0  0  0  0  0
    4.9063   -8.6619    0.0000 C   0  0  0  0  0  0  0  0  0  0  0  0
    2.8438   -9.3764    0.0000 C   0  0  0  0  0  0  0  0  0  0  0  0
    5.3188  -10.8053    0.0000 O   0  0  0  0  0  0  0  0  0  0  0  0
    6.1438   -9.3764    0.0000 C   0  0  0  0  0  0  0  0  0  0  0  0
    6.1438  -10.2014    0.0000 C   0  0  0  0  0  0  0  0  0  0  0  0
    6.8582  -10.6139    0.0000 O   0  0  0  0  0  0  0  0  0  0  0  0
    6.9688   -9.3764    0.0000 O   0  0  0  0  0  0  0  0  0  0  0  0
    6.1438   -8.5514    0.0000 C   0  0  0  0  0  0  0  0  0  0  0  0
    6.8582   -8.1389    0.0000 O   0  0  0  0  0  0  0  0  0  0  0  0
    7.5727   -8.5514    0.0000 C   0  0  0  0  0  0  0  0  0  0  0  0
    8.2872   -8.1389    0.0000 C   0  0  0  0  0  0  0  0  0  0  0  0
    7.5727   -9.3764    0.0000 O   0  0  0  0  0  0  0  0  0  0  0  0
    9.0017   -8.5514    0.0000 C   0  0  0  0  0  0  0  0  0  0  0  0
    8.2872   -7.3139    0.0000 C   0  0  0  0  0  0  0  0  0  0  0  0
    9.0017   -9.3764    0.0000 C   0  0  0  0  0  0  0  0  0  0  0  0
  1  2  2  0  0  0  0
  2  3  1  0  0  0  0
  3  4  2  0  0  0  0
  4  5  1  0  0  0  0
  5  6  2  0  0  0  0
  6  1  1  0  0  0  0
  2  7  1  0  0  0  0
  4  8  1  0  0  0  0
  5  9  1  0  0  0  0
  9 10  1  0  0  0  0
 10 11  1  0  0  0  0
  9 12  1  0  0  0  0
  9 13  1  0  0  0  0
 13 14  1  0  0  0  0
 14 15  1  0  0  0  0
 15 16  1  0  0  0  0
 15 17  2  0  0  0  0
 16 18  1  0  0  0  0
 16 19  1  0  0  0  0
 18 20  1  0  0  0  0
M  END
>  <cdx:fragmentId>
5

$$$$
