91234.cdx
  Mrv1902 05222410232D          

 33 35  0  0  0  0            999 V2000
    3.3806  -12.0714    0.0000 O   0  0  0  0  0  0  0  0  0  0  0  0
    4.0950  -13.3089    0.0000 O   0  0  0  0  0  0  0  0  0  0  0  0
    4.8095  -12.8964    0.0000 C   0  0  2  0  0  0  0  0  0  0  0  0
    4.8095  -12.0714    0.0000 C   0  0  1  0  0  0  0  0  0  0  0  0
    4.0950  -11.6589    0.0000 C   0  0  0  0  0  0  0  0  0  0  0  0
    5.5240  -13.3089    0.0000 C   0  0  1  0  0  0  0  0  0  0  0  0
    6.2384  -12.8964    0.0000 C   0  0  2  0  0  0  0  0  0  0  0  0
    6.2384  -12.0714    0.0000 C   0  0  1  0  0  0  0  0  0  0  0  0
    5.5240  -11.6589    0.0000 O   0  0  0  0  0  0  0  0  0  0  0  0
    6.9529  -11.6589    0.0000 O   0  0  0  0  0  0  0  0  0  0  0  0
    6.9529  -10.8339    0.0000 C   0  0  2  0  0  0  0  0  0  0  0  0
    6.2384  -10.4214    0.0000 O   0  0  0  0  0  0  0  0  0  0  0  0
    7.6674  -10.4214    0.0000 C   0  0  1  0  0  0  0  0  0  0  0  0
    7.6674   -9.5964    0.0000 C   0  0  1  0  0  0  0  0  0  0  0  0
    6.9529   -9.1839    0.0000 C   0  0  0  0  0  0  0  0  0  0  0  0
    6.2384   -9.5964    0.0000 C   0  0  0  0  0  0  0  0  0  0  0  0
    8.4520  -10.6763    0.0000 C   0  0  1  0  0  0  0  0  0  0  0  0
    8.9369  -10.0089    0.0000 C   0  0  0  0  0  0  0  0  0  0  0  0
    8.4520   -9.3415    0.0000 C   0  0  1  0  0  0  0  0  0  0  0  0
    6.9529   -8.3589    0.0000 C   0  0  0  0  0  0  0  0  0  0  0  0
    6.2384   -7.9464    0.0000 O   0  0  0  0  0  0  0  0  0  0  0  0
    7.6674   -7.9464    0.0000 O   0  0  0  0  0  0  0  0  0  0  0  0
    6.2384   -7.1214    0.0000 C   0  0  0  0  0  0  0  0  0  0  0  0
    8.2385  -11.4732    0.0000 C   0  0  0  0  0  0  0  0  0  0  0  0
    9.1665  -11.0888    0.0000 O   0  0  0  0  0  0  0  0  0  0  0  0
    9.8809  -10.6763    0.0000 C   0  0  0  0  0  0  0  0  0  0  0  0
   10.5954  -11.0888    0.0000 C   0  0  0  0  0  0  0  0  0  0  0  0
    9.8809   -9.8513    0.0000 O   0  0  0  0  0  0  0  0  0  0  0  0
    5.5240  -14.1339    0.0000 O   0  0  0  0  0  0  0  0  0  0  0  0
    6.9529  -13.3089    0.0000 O   0  0  0  0  0  0  0  0  0  0  0  0
    8.7069   -8.5568    0.0000 O   0  0  0  0  0  0  0  0  0  0  0  0
    7.7536   -8.7759    0.0000 H   0  0  0  0  0  0  0  0  0  0  0  0
    7.7536  -11.2419    0.0000 H   0  0  0  0  0  0  0  0  0  0  0  0
  3  2  1  6  0  0  0
  3  4  1  0  0  0  0
  4  5  1  1  0  0  0
  5  1  1  0  0  0  0
  3  6  1  0  0  0  0
  6  7  1  0  0  0  0
  7  8  1  0  0  0  0
  8  9  1  0  0  0  0
  9  4  1  0  0  0  0
  8 10  1  1  0  0  0
 11 10  1  6  0  0  0
 11 12  1  0  0  0  0
 11 13  1  0  0  0  0
 13 14  1  0  0  0  0
 14 15  1  0  0  0  0
 15 16  2  0  0  0  0
 16 12  1  0  0  0  0
 13 17  1  0  0  0  0
 17 18  1  0  0  0  0
 18 19  1  0  0  0  0
 19 14  1  0  0  0  0
 15 20  1  0  0  0  0
 20 21  1  0  0  0  0
 20 22  2  0  0  0  0
 21 23  1  0  0  0  0
 17 24  1  0  0  0  0
 17 25  1  6  0  0  0
 25 26  1  0  0  0  0
 26 27  1  0  0  0  0
 26 28  2  0  0  0  0
  6 29  1  1  0  0  0
  7 30  1  6  0  0  0
 19 31  1  6  0  0  0
 14 32  1  6  0  0  0
 13 33  1  6  0  0  0
M  END
>  <cdx:fragmentId>
5

$$$$
