91236.cdx
  Mrv1902 05222410242D          

 45 48  0  0  0  0            999 V2000
    6.5068  -11.6721    0.0000 C   0  0  0  0  0  0  0  0  0  0  0  0
    7.2192  -12.9107    0.0000 O   0  0  0  0  0  0  0  0  0  0  0  0
    7.2206  -12.0857    0.0000 C   0  0  0  0  0  0  0  0  0  0  0  0
    7.9357  -11.6744    0.0000 O   0  0  0  0  0  0  0  0  0  0  0  0
   10.0784  -12.0904    0.0000 C   0  0  0  0  0  0  0  0  0  0  0  0
    8.6495  -12.0881    0.0000 O   0  0  0  0  0  0  0  0  0  0  0  0
    9.3646  -11.6767    0.0000 C   0  0  0  0  0  0  0  0  0  0  0  0
    9.3660  -10.8517    0.0000 O   0  0  0  0  0  0  0  0  0  0  0  0
    5.0832   -8.3698    0.0000 C   0  0  0  0  0  0  0  0  0  0  0  0
    5.7996   -7.1334    0.0000 O   0  0  0  0  0  0  0  0  0  0  0  0
    5.7983   -7.9584    0.0000 C   0  0  0  0  0  0  0  0  0  0  0  0
    6.5121   -8.3721    0.0000 O   0  0  0  0  0  0  0  0  0  0  0  0
    6.5108   -9.1971    0.0000 C   0  0  0  0  0  0  0  0  0  0  0  0
    8.6535   -9.6131    0.0000 C   0  0  1  0  0  0  0  0  0  0  0  0
    8.6522  -10.4381    0.0000 C   0  0  1  0  0  0  0  0  0  0  0  0
    7.9370  -10.8494    0.0000 C   0  0  2  0  0  0  0  0  0  0  0  0
    7.2232  -10.4357    0.0000 C   0  0  1  0  0  0  0  0  0  0  0  0
    7.2246   -9.6108    0.0000 C   0  0  2  0  0  0  0  0  0  0  0  0
    7.9397   -9.1994    0.0000 O   0  0  0  0  0  0  0  0  0  0  0  0
    4.3667   -9.6061    0.0000 O   0  0  0  0  0  0  0  0  0  0  0  0
    2.9364  -10.4288    0.0000 O   0  0  0  0  0  0  0  0  0  0  0  0
    6.5081  -10.8471    0.0000 O   0  0  0  0  0  0  0  0  0  0  0  0
    5.7956   -9.6084    0.0000 O   0  0  0  0  0  0  0  0  0  0  0  0
    5.0778  -11.6698    0.0000 C   0  0  0  0  0  0  0  0  0  0  0  0
    4.3627  -12.0811    0.0000 C   0  0  0  0  0  0  0  0  0  0  0  0
    3.6489  -11.6675    0.0000 C   0  0  0  0  0  0  0  0  0  0  0  0
    3.6502  -10.8425    0.0000 C   0  0  0  0  0  0  0  0  0  0  0  0
    4.3654  -10.4311    0.0000 C   0  0  0  0  0  0  0  0  0  0  0  0
    5.0792  -10.8448    0.0000 C   0  0  0  0  0  0  0  0  0  0  0  0
    5.7943  -10.4334    0.0000 C   0  0  0  0  0  0  0  0  0  0  0  0
    9.3687   -9.2017    0.0000 O   0  0  0  0  0  0  0  0  0  0  0  0
    8.6575   -7.1381    0.0000 C   0  0  0  0  0  0  0  0  0  0  0  0
    9.3727   -6.7267    0.0000 C   0  0  0  0  0  0  0  0  0  0  0  0
   10.0865   -7.1404    0.0000 C   0  0  2  0  0  0  0  0  0  0  0  0
   10.0851   -7.9654    0.0000 C   0  0  2  0  0  0  0  0  0  0  0  0
    9.3700   -8.3767    0.0000 C   0  0  1  0  0  0  0  0  0  0  0  0
    8.6562   -7.9631    0.0000 O   0  0  0  0  0  0  0  0  0  0  0  0
    9.3740   -5.9017    0.0000 C   0  0  0  0  0  0  0  0  0  0  0  0
   10.8016   -6.7290    0.0000 C   0  0  0  0  0  0  0  0  0  0  0  0
   10.8029   -5.9040    0.0000 C   0  0  0  0  0  0  0  0  0  0  0  0
   10.0891   -5.4904    0.0000 O   0  0  0  0  0  0  0  0  0  0  0  0
    8.6602   -5.4881    0.0000 O   0  0  0  0  0  0  0  0  0  0  0  0
   10.7989   -8.3790    0.0000 C   0  0  0  0  0  0  0  0  0  0  0  0
   10.7976   -9.2040    0.0000 C   0  0  0  0  0  0  0  0  0  0  0  0
   10.8003   -7.5540    0.0000 O   0  0  0  0  0  0  0  0  0  0  0  0
 16 15  1  0  0  0  0
 17 16  1  0  0  0  0
 18 17  1  0  0  0  0
 19 18  1  0  0  0  0
 28 20  1  0  0  0  0
 27 21  1  0  0  0  0
 30 22  1  0  0  0  0
 30 23  2  0  0  0  0
 29 24  2  0  0  0  0
 25 24  1  0  0  0  0
 26 25  2  0  0  0  0
 27 26  1  0  0  0  0
 28 27  2  0  0  0  0
 29 28  1  0  0  0  0
 30 29  1  0  0  0  0
 32 33  2  0  0  0  0
 33 34  1  0  0  0  0
 34 35  1  0  0  0  0
 35 36  1  0  0  0  0
 36 37  1  0  0  0  0
 32 37  1  0  0  0  0
 39 40  1  0  0  0  0
 40 41  1  0  0  0  0
 38 41  1  0  0  0  0
 38 33  1  0  0  0  0
 39 34  1  0  0  0  0
 38 42  2  0  0  0  0
 43 44  2  0  0  0  0
 35 43  1  1  0  0  0
 36 31  1  6  0  0  0
 34 45  1  6  0  0  0
 17 22  1  6  0  0  0
 16  4  1  1  0  0  0
  4  3  1  0  0  0  0
  3  1  1  0  0  0  0
  3  2  2  0  0  0  0
 15  8  1  6  0  0  0
  8  7  1  0  0  0  0
  7  5  1  0  0  0  0
  7  6  2  0  0  0  0
 18 13  1  1  0  0  0
 13 12  1  0  0  0  0
 12 11  1  0  0  0  0
 11  9  1  0  0  0  0
 11 10  2  0  0  0  0
 14 31  1  1  0  0  0
 19 14  1  0  0  0  0
 15 14  1  0  0  0  0
M  END
>  <cdx:fragmentId>
262051

$$$$
