91240.cdx
  Mrv1902 05222410272D          

 50 54  0  0  0  0            999 V2000
    3.7931   -8.7714    0.0000 C   0  0  0  0  0  0  0  0  0  0  0  0
    3.7931   -9.5964    0.0000 C   0  0  0  0  0  0  0  0  0  0  0  0
    4.5075  -10.0089    0.0000 C   0  0  0  0  0  0  0  0  0  0  0  0
    5.2220   -9.5964    0.0000 C   0  0  0  0  0  0  0  0  0  0  0  0
    5.2220   -8.7714    0.0000 C   0  0  0  0  0  0  0  0  0  0  0  0
    4.5075   -8.3589    0.0000 C   0  0  0  0  0  0  0  0  0  0  0  0
    5.9365  -10.0089    0.0000 C   0  0  2  0  0  0  0  0  0  0  0  0
    6.6509   -9.5964    0.0000 C   0  0  1  0  0  0  0  0  0  0  0  0
    6.6509   -8.7714    0.0000 C   0  0  0  0  0  0  0  0  0  0  0  0
    5.9365   -8.3589    0.0000 C   0  0  0  0  0  0  0  0  0  0  0  0
    7.3654  -10.0089    0.0000 C   0  0  0  0  0  0  0  0  0  0  0  0
    8.0799   -9.5964    0.0000 O   0  0  0  0  0  0  0  0  0  0  0  0
    8.0799   -8.7714    0.0000 O   0  0  0  0  0  0  0  0  0  0  0  0
    7.3654   -8.3589    0.0000 C   0  0  0  0  0  0  0  0  0  0  0  0
    8.7944   -8.3589    0.0000 C   0  0  1  0  0  0  0  0  0  0  0  0
    8.7944   -7.5339    0.0000 C   0  0  2  0  0  0  0  0  0  0  0  0
    8.0799   -7.1214    0.0000 O   0  0  0  0  0  0  0  0  0  0  0  0
    7.3654   -7.5339    0.0000 O   0  0  0  0  0  0  0  0  0  0  0  0
    9.5088   -8.7714    0.0000 C   0  0  0  0  0  0  0  0  0  0  0  0
   10.2233   -8.3589    0.0000 C   0  0  1  0  0  0  0  0  0  0  0  0
   10.2233   -7.5339    0.0000 C   0  0  0  0  0  0  0  0  0  0  0  0
    9.5088   -7.1214    0.0000 C   0  0  1  0  0  0  0  0  0  0  0  0
    5.9365  -10.8339    0.0000 C   0  0  0  0  0  0  0  0  0  0  0  0
    6.6509  -11.2464    0.0000 C   0  0  0  0  0  0  0  0  0  0  0  0
    7.3654  -10.8339    0.0000 O   0  0  0  0  0  0  0  0  0  0  0  0
    5.2220  -11.2464    0.0000 C   0  0  0  0  0  0  0  0  0  0  0  0
    5.2220  -12.0714    0.0000 C   0  0  0  0  0  0  0  0  0  0  0  0
    5.9365  -12.4839    0.0000 C   0  0  0  0  0  0  0  0  0  0  0  0
    6.6509  -12.0714    0.0000 C   0  0  0  0  0  0  0  0  0  0  0  0
    7.3654  -12.4839    0.0000 O   0  0  0  0  0  0  0  0  0  0  0  0
    8.0799  -12.0714    0.0000 C   0  0  1  0  0  0  0  0  0  0  0  0
    8.0799  -11.2464    0.0000 C   0  0  1  0  0  0  0  0  0  0  0  0
    8.7944  -12.4839    0.0000 C   0  0  1  0  0  0  0  0  0  0  0  0
    9.5088  -12.0714    0.0000 C   0  0  0  0  0  0  0  0  0  0  0  0
    9.5088  -11.2464    0.0000 C   0  0  2  0  0  0  0  0  0  0  0  0
    8.7944  -10.8339    0.0000 C   0  0  0  0  0  0  0  0  0  0  0  0
    3.0786   -8.3589    0.0000 O   0  0  0  0  0  0  0  0  0  0  0  0
    3.0786  -10.0089    0.0000 O   0  0  0  0  0  0  0  0  0  0  0  0
   10.9378   -8.7714    0.0000 C   0  0  0  0  0  0  0  0  0  0  0  0
   11.6522   -8.3589    0.0000 O   0  0  0  0  0  0  0  0  0  0  0  0
   10.9378   -9.5964    0.0000 O   0  0  0  0  0  0  0  0  0  0  0  0
   10.9378   -7.9464    0.0000 O   0  0  0  0  0  0  0  0  0  0  0  0
    5.9365  -13.3089    0.0000 O   0  0  0  0  0  0  0  0  0  0  0  0
    4.5075  -12.4839    0.0000 O   0  0  0  0  0  0  0  0  0  0  0  0
   10.2233  -10.8339    0.0000 C   0  0  0  0  0  0  0  0  0  0  0  0
   10.9378  -11.2464    0.0000 O   0  0  0  0  0  0  0  0  0  0  0  0
   10.2233  -10.0089    0.0000 O   0  0  0  0  0  0  0  0  0  0  0  0
   10.2233  -11.6589    0.0000 O   0  0  0  0  0  0  0  0  0  0  0  0
    8.7944  -13.3089    0.0000 O   0  0  0  0  0  0  0  0  0  0  0  0
    9.5088   -6.2964    0.0000 O   0  0  0  0  0  0  0  0  0  0  0  0
  1  2  2  0  0  0  0
  2  3  1  0  0  0  0
  3  4  2  0  0  0  0
  4  5  1  0  0  0  0
  5  6  2  0  0  0  0
  6  1  1  0  0  0  0
  4  7  1  0  0  0  0
  7  8  1  0  0  0  0
  8  9  1  0  0  0  0
  9 10  2  0  0  0  0
 10  5  1  0  0  0  0
  8 11  1  1  0  0  0
 11 12  2  0  0  0  0
 13 14  1  0  0  0  0
 14  9  1  0  0  0  0
 15 13  1  1  0  0  0
 15 16  1  0  0  0  0
 16 17  1  6  0  0  0
 18 14  2  0  0  0  0
 15 19  1  0  0  0  0
 19 20  1  0  0  0  0
 20 21  1  0  0  0  0
 21 22  1  0  0  0  0
 22 16  1  0  0  0  0
  7 23  1  6  0  0  0
 23 24  1  0  0  0  0
 25 11  1  0  0  0  0
 23 26  2  0  0  0  0
 26 27  1  0  0  0  0
 27 28  2  0  0  0  0
 28 29  1  0  0  0  0
 29 24  2  0  0  0  0
 31 30  1  1  0  0  0
 31 32  1  0  0  0  0
 32 25  1  6  0  0  0
 31 33  1  0  0  0  0
 33 34  1  0  0  0  0
 34 35  1  0  0  0  0
 35 36  1  0  0  0  0
 36 32  1  0  0  0  0
  1 37  1  0  0  0  0
  2 38  1  0  0  0  0
 20 39  1  1  0  0  0
 39 40  2  0  0  0  0
 39 41  1  0  0  0  0
 20 42  1  0  0  0  0
 28 43  1  0  0  0  0
 27 44  1  0  0  0  0
 35 45  1  6  0  0  0
 45 46  1  0  0  0  0
 45 47  2  0  0  0  0
 35 48  1  0  0  0  0
 33 49  1  1  0  0  0
 22 50  1  6  0  0  0
M  END
>  <cdx:fragmentId>
5

$$$$
