91242.cdx
  Mrv1902 05222410262D          

 37 39  0  0  0  0            999 V2000
    6.8070   -7.8964    0.0000 C   0  0  0  0  0  0  0  0  0  0  0  0
    6.0930   -7.4832    0.0000 C   0  0  1  0  0  0  0  0  0  0  0  0
    5.3781   -7.8950    0.0000 C   0  0  0  0  0  0  0  0  0  0  0  0
    5.3772   -8.7200    0.0000 C   0  0  2  0  0  0  0  0  0  0  0  0
    6.0913   -9.1332    0.0000 C   0  0  1  0  0  0  0  0  0  0  0  0
    6.8062   -8.7214    0.0000 C   0  0  2  0  0  0  0  0  0  0  0  0
    7.5202   -9.1347    0.0000 O   0  0  0  0  0  0  0  0  0  0  0  0
    6.0904   -9.9582    0.0000 O   0  0  0  0  0  0  0  0  0  0  0  0
    4.6623   -9.1317    0.0000 O   0  0  0  0  0  0  0  0  0  0  0  0
    5.6812   -6.7683    0.0000 O   0  0  0  0  0  0  0  0  0  0  0  0
    6.0945   -6.0543    0.0000 O   0  0  0  0  0  0  0  0  0  0  0  0
    7.3312   -6.7700    0.0000 O   0  0  0  0  0  0  0  0  0  0  0  0
    6.5062   -6.7692    0.0000 C   0  0  0  0  0  0  0  0  0  0  0  0
    2.4684   -3.8152    0.0000 C   0  0  0  0  0  0  0  0  0  0  0  0
    2.0403   -4.5205    0.0000 C   0  0  0  0  0  0  0  0  0  0  0  0
    2.4370   -5.2438    0.0000 C   0  0  0  0  0  0  0  0  0  0  0  0
    3.2618   -5.2620    0.0000 C   0  0  0  0  0  0  0  0  0  0  0  0
    3.6899   -4.5568    0.0000 C   0  0  0  0  0  0  0  0  0  0  0  0
    3.2932   -3.8334    0.0000 C   0  0  0  0  0  0  0  0  0  0  0  0
    2.0717   -3.0919    0.0000 O   0  0  0  0  0  0  0  0  0  0  0  0
    3.7213   -3.1282    0.0000 O   0  0  0  0  0  0  0  0  0  0  0  0
    3.6584   -5.9854    0.0000 C   0  0  0  0  0  0  0  0  0  0  0  0
    4.4832   -6.0035    0.0000 C   0  0  0  0  0  0  0  0  0  0  0  0
    4.8799   -6.7269    0.0000 C   0  0  0  0  0  0  0  0  0  0  0  0
    4.4518   -7.4321    0.0000 O   0  0  0  0  0  0  0  0  0  0  0  0
   12.5177   -8.7963    0.0000 O   0  0  0  0  0  0  0  0  0  0  0  0
   12.5085  -10.4463    0.0000 O   0  0  0  0  0  0  0  0  0  0  0  0
   11.8009   -9.2048    0.0000 C   0  0  0  0  0  0  0  0  0  0  0  0
   11.0888   -8.7883    0.0000 C   0  0  0  0  0  0  0  0  0  0  0  0
   10.3720   -9.1968    0.0000 C   0  0  0  0  0  0  0  0  0  0  0  0
   10.3674  -10.0218    0.0000 C   0  0  0  0  0  0  0  0  0  0  0  0
   11.0796  -10.4383    0.0000 C   0  0  0  0  0  0  0  0  0  0  0  0
   11.7963  -10.0298    0.0000 C   0  0  0  0  0  0  0  0  0  0  0  0
    9.6599   -8.7803    0.0000 C   0  0  0  0  0  0  0  0  0  0  0  0
    8.9431   -9.1888    0.0000 C   0  0  0  0  0  0  0  0  0  0  0  0
    8.2310   -8.7723    0.0000 C   0  0  0  0  0  0  0  0  0  0  0  0
    8.2356   -7.9473    0.0000 O   0  0  0  0  0  0  0  0  0  0  0  0
  1  2  1  0  0  0  0
  2  3  1  0  0  0  0
  3  4  1  0  0  0  0
  4  5  1  0  0  0  0
  5  6  1  0  0  0  0
  6  1  1  0  0  0  0
  6  7  1  1  0  0  0
  5  8  1  1  0  0  0
  4  9  1  6  0  0  0
 13 11  2  0  0  0  0
  2 13  1  0  0  0  0
  2 10  1  1  0  0  0
 13 12  1  0  0  0  0
 14 15  2  0  0  0  0
 15 16  1  0  0  0  0
 16 17  2  0  0  0  0
 17 18  1  0  0  0  0
 18 19  2  0  0  0  0
 19 14  1  0  0  0  0
 14 20  1  0  0  0  0
 19 21  1  0  0  0  0
 17 22  1  0  0  0  0
 22 23  2  0  0  0  0
 23 24  1  0  0  0  0
 24 25  2  0  0  0  0
 24 10  1  0  0  0  0
 28 26  1  0  0  0  0
 33 27  1  0  0  0  0
 28 33  1  0  0  0  0
 29 28  2  0  0  0  0
 30 29  1  0  0  0  0
 31 30  2  0  0  0  0
 32 31  1  0  0  0  0
 33 32  2  0  0  0  0
 30 34  1  0  0  0  0
 34 35  2  0  0  0  0
 35 36  1  0  0  0  0
 36 37  2  0  0  0  0
 36  7  1  0  0  0  0
M  END
>  <cdx:fragmentId>
5

$$$$
