91244.cdx
  Mrv1902 05222410272D          

 44 49  0  0  0  0            999 V2000
    4.2812   -6.1463    0.0000 C   0  0  0  0  0  0  0  0  0  0  0  0
    4.2812   -6.9712    0.0000 C   0  0  0  0  0  0  0  0  0  0  0  0
    4.9956   -7.3838    0.0000 C   0  0  0  0  0  0  0  0  0  0  0  0
    5.7101   -6.9712    0.0000 C   0  0  0  0  0  0  0  0  0  0  0  0
    5.7101   -6.1463    0.0000 C   0  0  0  0  0  0  0  0  0  0  0  0
    4.9956   -5.7338    0.0000 C   0  0  0  0  0  0  0  0  0  0  0  0
    6.4246   -7.3838    0.0000 C   0  0  2  0  0  0  0  0  0  0  0  0
    7.1391   -6.9712    0.0000 C   0  0  1  0  0  0  0  0  0  0  0  0
    7.1391   -6.1463    0.0000 C   0  0  2  0  0  0  0  0  0  0  0  0
    6.4246   -5.7338    0.0000 O   0  0  0  0  0  0  0  0  0  0  0  0
    7.8535   -7.3838    0.0000 O   0  0  0  0  0  0  0  0  0  0  0  0
    8.5680   -6.1463    0.0000 C   0  0  0  0  0  0  0  0  0  0  0  0
    7.8535   -5.7338    0.0000 C   0  0  0  0  0  0  0  0  0  0  0  0
    9.2825   -5.7338    0.0000 C   0  0  0  0  0  0  0  0  0  0  0  0
    9.2825   -4.9088    0.0000 C   0  0  0  0  0  0  0  0  0  0  0  0
    8.5680   -4.4962    0.0000 C   0  0  0  0  0  0  0  0  0  0  0  0
    7.8535   -4.9088    0.0000 C   0  0  0  0  0  0  0  0  0  0  0  0
    3.5667   -5.7338    0.0000 O   0  0  0  0  0  0  0  0  0  0  0  0
    4.9956   -8.2088    0.0000 O   0  0  0  0  0  0  0  0  0  0  0  0
    9.9969   -4.4962    0.0000 O   0  0  0  0  0  0  0  0  0  0  0  0
    7.8683   -8.5525    0.0000 O   0  0  0  0  0  0  0  0  0  0  0  0
    7.1539   -8.9650    0.0000 C   0  0  0  0  0  0  0  0  0  0  0  0
    7.1539   -9.7900    0.0000 C   0  0  0  0  0  0  0  0  0  0  0  0
    7.8683  -10.2025    0.0000 C   0  0  0  0  0  0  0  0  0  0  0  0
    8.5828   -9.7900    0.0000 C   0  0  1  0  0  0  0  0  0  0  0  0
    8.5828   -8.9650    0.0000 C   0  0  1  0  0  0  0  0  0  0  0  0
    6.4394   -8.5525    0.0000 C   0  0  0  0  0  0  0  0  0  0  0  0
    5.7249   -8.9650    0.0000 C   0  0  0  0  0  0  0  0  0  0  0  0
    5.7249   -9.7900    0.0000 C   0  0  0  0  0  0  0  0  0  0  0  0
    6.4394  -10.2025    0.0000 C   0  0  0  0  0  0  0  0  0  0  0  0
    5.0105   -8.5525    0.0000 O   0  0  0  0  0  0  0  0  0  0  0  0
    6.4394  -11.0275    0.0000 O   0  0  0  0  0  0  0  0  0  0  0  0
    9.2973   -8.5525    0.0000 C   0  0  0  0  0  0  0  0  0  0  0  0
    9.2973  -10.2025    0.0000 O   0  0  0  0  0  0  0  0  0  0  0  0
   10.0118   -8.9650    0.0000 C   0  0  0  0  0  0  0  0  0  0  0  0
   10.7262   -8.5525    0.0000 C   0  0  0  0  0  0  0  0  0  0  0  0
   10.7262   -7.7275    0.0000 C   0  0  0  0  0  0  0  0  0  0  0  0
   10.0118   -7.3150    0.0000 C   0  0  0  0  0  0  0  0  0  0  0  0
    9.2973   -7.7275    0.0000 C   0  0  0  0  0  0  0  0  0  0  0  0
   10.0118   -6.4900    0.0000 O   0  0  0  0  0  0  0  0  0  0  0  0
   11.4407   -7.3150    0.0000 O   0  0  0  0  0  0  0  0  0  0  0  0
    8.5680   -3.6713    0.0000 O   0  0  0  0  0  0  0  0  0  0  0  0
    9.9969   -6.1463    0.0000 O   0  0  0  0  0  0  0  0  0  0  0  0
    7.1391   -7.7962    0.0000 H   0  0  0  0  0  0  0  0  0  0  0  0
  1  2  2  0  0  0  0
  2  3  1  0  0  0  0
  3  4  2  0  0  0  0
  4  5  1  0  0  0  0
  5  6  2  0  0  0  0
  6  1  1  0  0  0  0
  4  7  1  0  0  0  0
  7  8  1  0  0  0  0
  8  9  1  0  0  0  0
  9 10  1  0  0  0  0
 10  5  1  0  0  0  0
  8 11  1  1  0  0  0
 12 13  2  0  0  0  0
  9 13  1  6  0  0  0
 12 14  1  0  0  0  0
 14 15  2  0  0  0  0
 15 16  1  0  0  0  0
 16 17  2  0  0  0  0
 17 13  1  0  0  0  0
  1 18  1  0  0  0  0
  3 19  1  0  0  0  0
 15 20  1  0  0  0  0
 21 22  1  0  0  0  0
 22 23  2  0  0  0  0
 23 24  1  0  0  0  0
 24 25  1  0  0  0  0
 25 26  1  0  0  0  0
 26 21  1  0  0  0  0
 22 27  1  0  0  0  0
 27 28  2  0  0  0  0
 28 29  1  0  0  0  0
 29 30  2  0  0  0  0
 30 23  1  0  0  0  0
 28 31  1  0  0  0  0
 30 32  1  0  0  0  0
 26 33  1  6  0  0  0
 25 34  1  1  0  0  0
 33 35  2  0  0  0  0
 35 36  1  0  0  0  0
 36 37  2  0  0  0  0
 37 38  1  0  0  0  0
 38 39  2  0  0  0  0
 39 33  1  0  0  0  0
 38 40  1  0  0  0  0
 37 41  1  0  0  0  0
  7 27  1  0  0  0  0
 16 42  1  0  0  0  0
 14 43  1  0  0  0  0
  7 44  1  1  0  0  0
M  END
>  <cdx:fragmentId>
5

$$$$
