91255.cdx
  Mrv1902 05222410272D          

 14 14  0  0  0  0            999 V2000
    4.2758   -5.4018    0.0000 C   0  0  0  0  0  0  0  0  0  0  0  0
    3.5614   -4.9893    0.0000 C   0  0  0  0  0  0  0  0  0  0  0  0
    2.8469   -5.4018    0.0000 C   0  0  0  0  0  0  0  0  0  0  0  0
    3.5614   -4.1643    0.0000 N   0  0  0  0  0  0  0  0  0  0  0  0
    4.9903   -4.9893    0.0000 C   0  0  0  0  0  0  0  0  0  0  0  0
    4.9903   -4.1643    0.0000 C   0  0  0  0  0  0  0  0  0  0  0  0
    5.7048   -3.7518    0.0000 C   0  0  0  0  0  0  0  0  0  0  0  0
    6.4192   -4.1643    0.0000 C   0  0  0  0  0  0  0  0  0  0  0  0
    6.4192   -4.9893    0.0000 C   0  0  0  0  0  0  0  0  0  0  0  0
    5.7048   -5.4018    0.0000 C   0  0  0  0  0  0  0  0  0  0  0  0
    5.7048   -2.9268    0.0000 O   0  0  0  0  0  0  0  0  0  0  0  0
    6.4192   -2.5143    0.0000 C   0  0  0  0  0  0  0  0  0  0  0  0
    4.2758   -3.7518    0.0000 O   0  0  0  0  0  0  0  0  0  0  0  0
    4.2758   -2.9268    0.0000 C   0  0  0  0  0  0  0  0  0  0  0  0
  1  2  1  0  0  0  0
  2  3  1  0  0  0  0
  2  4  1  0  0  0  0
  5  6  1  0  0  0  0
  6  7  2  0  0  0  0
  7  8  1  0  0  0  0
  8  9  2  0  0  0  0
  9 10  1  0  0  0  0
  5 10  2  0  0  0  0
 11 12  1  0  0  0  0
  7 11  1  0  0  0  0
 13 14  1  0  0  0  0
  6 13  1  0  0  0  0
  1  5  1  0  0  0  0
M  END
>  <cdx:groupId>
44

>  <cdx:fragmentId>
13

$$$$
