12581.cdx
  Mrv1902 05222410262D          

 26 28  0  0  0  0            999 V2000
    3.6127   -5.1975    0.0000 C   0  0  0  0  0  0  0  0  0  0  0  0
    3.6127   -6.0225    0.0000 C   0  0  0  0  0  0  0  0  0  0  0  0
    4.3271   -6.4350    0.0000 C   0  0  0  0  0  0  0  0  0  0  0  0
    5.0416   -6.0225    0.0000 C   0  0  0  0  0  0  0  0  0  0  0  0
    5.0416   -5.1975    0.0000 C   0  0  0  0  0  0  0  0  0  0  0  0
    4.3271   -4.7850    0.0000 C   0  0  0  0  0  0  0  0  0  0  0  0
    5.7561   -6.4350    0.0000 C   0  0  0  0  0  0  0  0  0  0  0  0
    6.4705   -6.0225    0.0000 C   0  0  0  0  0  0  0  0  0  0  0  0
    6.4705   -5.1975    0.0000 C   0  0  0  0  0  0  0  0  0  0  0  0
    5.7561   -4.7850    0.0000 O   0  0  0  0  0  0  0  0  0  0  0  0
    7.1850   -6.4350    0.0000 C   0  0  0  0  0  0  0  0  0  0  0  0
    7.8995   -6.0225    0.0000 C   0  0  0  0  0  0  0  0  0  0  0  0
    7.1850   -7.2600    0.0000 C   0  0  0  0  0  0  0  0  0  0  0  0
    7.8995   -7.6725    0.0000 C   0  0  0  0  0  0  0  0  0  0  0  0
    8.6140   -7.2600    0.0000 C   0  0  0  0  0  0  0  0  0  0  0  0
    8.6140   -6.4350    0.0000 C   0  0  0  0  0  0  0  0  0  0  0  0
    5.7561   -7.2600    0.0000 O   0  0  0  0  0  0  0  0  0  0  0  0
    4.3271   -7.2600    0.0000 O   0  0  0  0  0  0  0  0  0  0  0  0
    2.8982   -4.7850    0.0000 O   0  0  0  0  0  0  0  0  0  0  0  0
    7.8995   -5.1975    0.0000 O   0  0  0  0  0  0  0  0  0  0  0  0
    9.3284   -7.6725    0.0000 O   0  0  0  0  0  0  0  0  0  0  0  0
    9.3284   -6.0225    0.0000 C   0  0  0  0  0  0  0  0  0  0  0  0
    9.3284   -5.1975    0.0000 C   0  0  0  0  0  0  0  0  0  0  0  0
   10.0429   -4.7850    0.0000 C   0  0  0  0  0  0  0  0  0  0  0  0
   10.0429   -3.9600    0.0000 C   0  0  0  0  0  0  0  0  0  0  0  0
   10.8398   -4.9985    0.0000 C   0  0  0  0  0  0  0  0  0  0  0  0
  1  2  2  0  0  0  0
  2  3  1  0  0  0  0
  3  4  2  0  0  0  0
  4  5  1  0  0  0  0
  5  6  2  0  0  0  0
  6  1  1  0  0  0  0
  4  7  1  0  0  0  0
  7  8  1  0  0  0  0
  8  9  2  0  0  0  0
  9 10  1  0  0  0  0
 10  5  1  0  0  0  0
  8 11  1  0  0  0  0
 11 12  1  0  0  0  0
 11 13  2  0  0  0  0
 13 14  1  0  0  0  0
 14 15  2  0  0  0  0
 15 16  1  0  0  0  0
 16 12  2  0  0  0  0
  7 17  2  0  0  0  0
  3 18  1  0  0  0  0
  1 19  1  0  0  0  0
 12 20  1  0  0  0  0
 15 21  1  0  0  0  0
 16 22  1  0  0  0  0
 22 23  1  0  0  0  0
 23 24  2  0  0  0  0
 24 25  1  0  0  0  0
 24 26  1  0  0  0  0
M  END
>  <cdx:fragmentId>
5

$$$$
