91279.cdx
  Mrv1902 05222410272D          

 21 22  0  0  0  0            999 V2000
    7.1956   -9.9880    0.0000 O   0  0  0  0  0  0  0  0  0  0  0  0
    5.7667   -7.5130    0.0000 O   0  0  0  0  0  0  0  0  0  0  0  0
   10.7680   -7.9255    0.0000 O   0  0  0  0  0  0  0  0  0  0  0  0
   10.0535   -7.5130    0.0000 C   0  0  0  0  0  0  0  0  0  0  0  0
    3.6233   -8.7505    0.0000 C   0  0  0  0  0  0  0  0  0  0  0  0
    4.3378   -9.9880    0.0000 C   0  0  0  0  0  0  0  0  0  0  0  0
    4.3378   -9.1630    0.0000 C   0  0  0  0  0  0  0  0  0  0  0  0
    5.0522   -8.7505    0.0000 C   0  0  0  0  0  0  0  0  0  0  0  0
    5.7667   -9.1630    0.0000 C   0  0  0  0  0  0  0  0  0  0  0  0
    8.6246   -9.9880    0.0000 O   0  0  0  0  0  0  0  0  0  0  0  0
    8.6246   -7.5130    0.0000 O   0  0  0  0  0  0  0  0  0  0  0  0
    7.9101   -7.9255    0.0000 C   0  0  0  0  0  0  0  0  0  0  0  0
    7.1956   -7.5130    0.0000 C   0  0  0  0  0  0  0  0  0  0  0  0
    6.4812   -7.9255    0.0000 C   0  0  0  0  0  0  0  0  0  0  0  0
    6.4812   -8.7505    0.0000 C   0  0  0  0  0  0  0  0  0  0  0  0
    7.1956   -9.1630    0.0000 C   0  0  0  0  0  0  0  0  0  0  0  0
    7.9101   -8.7505    0.0000 C   0  0  0  0  0  0  0  0  0  0  0  0
    8.6246   -9.1630    0.0000 C   0  0  0  0  0  0  0  0  0  0  0  0
    9.3391   -8.7505    0.0000 C   0  0  0  0  0  0  0  0  0  0  0  0
    9.3391   -7.9255    0.0000 C   0  0  0  0  0  0  0  0  0  0  0  0
    5.0522   -7.9255    0.0000 O   0  0  0  0  0  0  0  0  0  0  0  0
 16  1  1  0  0  0  0
 14  2  1  0  0  0  0
 20  4  1  0  0  0  0
  4  3  1  0  0  0  0
 15  9  1  0  0  0  0
  7  5  1  0  0  0  0
  7  6  2  0  0  0  0
  8  7  1  0  0  0  0
  9  8  1  0  0  0  0
 18 10  2  0  0  0  0
 20 11  1  0  0  0  0
 12 11  1  0  0  0  0
 17 12  2  0  0  0  0
 13 12  1  0  0  0  0
 14 13  2  0  0  0  0
 15 14  1  0  0  0  0
 16 15  2  0  0  0  0
 17 16  1  0  0  0  0
 18 17  1  0  0  0  0
 19 18  1  0  0  0  0
 20 19  2  0  0  0  0
  8 21  1  0  0  0  0
M  END
>  <cdx:fragmentId>
5

$$$$
