91274.cdx
  Mrv1902 05222410192D          

 44 48  0  0  0  0            999 V2000
    3.2293   -9.0876    0.0000 C   0  0  0  0  0  0  0  0  0  0  0  0
    3.2293   -9.9126    0.0000 C   0  0  0  0  0  0  0  0  0  0  0  0
    3.9438  -10.3251    0.0000 C   0  0  0  0  0  0  0  0  0  0  0  0
    4.6582   -9.9126    0.0000 C   0  0  0  0  0  0  0  0  0  0  0  0
    4.6582   -9.0876    0.0000 C   0  0  0  0  0  0  0  0  0  0  0  0
    3.9438   -8.6751    0.0000 C   0  0  0  0  0  0  0  0  0  0  0  0
    5.3727  -10.3251    0.0000 C   0  0  0  0  0  0  0  0  0  0  0  0
    6.0872   -9.9126    0.0000 C   0  0  0  0  0  0  0  0  0  0  0  0
    6.0872   -9.0876    0.0000 C   0  0  0  0  0  0  0  0  0  0  0  0
    5.3727   -8.6751    0.0000 O   0  0  0  0  0  0  0  0  0  0  0  0
    6.8017  -10.3251    0.0000 O   0  0  0  0  0  0  0  0  0  0  0  0
    7.5161   -9.0876    0.0000 C   0  0  0  0  0  0  0  0  0  0  0  0
    6.8017   -8.6751    0.0000 C   0  0  0  0  0  0  0  0  0  0  0  0
    8.2306   -8.6751    0.0000 C   0  0  0  0  0  0  0  0  0  0  0  0
    8.2306   -7.8501    0.0000 C   0  0  0  0  0  0  0  0  0  0  0  0
    7.5161   -7.4376    0.0000 C   0  0  0  0  0  0  0  0  0  0  0  0
    6.8017   -7.8501    0.0000 C   0  0  0  0  0  0  0  0  0  0  0  0
    2.5148   -8.6751    0.0000 O   0  0  0  0  0  0  0  0  0  0  0  0
    3.9438  -11.1501    0.0000 O   0  0  0  0  0  0  0  0  0  0  0  0
    5.3727  -11.1501    0.0000 O   0  0  0  0  0  0  0  0  0  0  0  0
    8.9451   -7.4376    0.0000 O   0  0  0  0  0  0  0  0  0  0  0  0
    1.8004   -9.0876    0.0000 C   0  0  0  0  0  0  0  0  0  0  0  0
    6.8017  -11.1501    0.0000 C   0  0  2  0  0  0  0  0  0  0  0  0
    6.0872  -11.5626    0.0000 O   0  0  0  0  0  0  0  0  0  0  0  0
    6.0872  -12.3876    0.0000 C   0  0  1  0  0  0  0  0  0  0  0  0
    6.8017  -12.8001    0.0000 C   0  0  2  0  0  0  0  0  0  0  0  0
    7.5161  -12.3876    0.0000 C   0  0  1  0  0  0  0  0  0  0  0  0
    7.5161  -11.5626    0.0000 C   0  0  1  0  0  0  0  0  0  0  0  0
    8.2306  -11.1501    0.0000 O   0  0  0  0  0  0  0  0  0  0  0  0
    8.2306  -12.8001    0.0000 O   0  0  0  0  0  0  0  0  0  0  0  0
    6.8017  -13.6251    0.0000 O   0  0  0  0  0  0  0  0  0  0  0  0
    5.3727  -12.8001    0.0000 C   0  0  0  0  0  0  0  0  0  0  0  0
    5.3727  -13.6251    0.0000 O   0  0  0  0  0  0  0  0  0  0  0  0
    9.6595   -7.8501    0.0000 C   0  0  2  0  0  0  0  0  0  0  0  0
    9.6595   -8.6751    0.0000 O   0  0  0  0  0  0  0  0  0  0  0  0
   10.3740   -9.0876    0.0000 C   0  0  1  0  0  0  0  0  0  0  0  0
   11.0885   -8.6751    0.0000 C   0  0  2  0  0  0  0  0  0  0  0  0
   11.0885   -7.8501    0.0000 C   0  0  1  0  0  0  0  0  0  0  0  0
   10.3740   -7.4376    0.0000 C   0  0  1  0  0  0  0  0  0  0  0  0
   10.3740   -9.9126    0.0000 C   0  0  0  0  0  0  0  0  0  0  0  0
   11.0885  -10.3251    0.0000 O   0  0  0  0  0  0  0  0  0  0  0  0
   11.8030   -9.0876    0.0000 O   0  0  0  0  0  0  0  0  0  0  0  0
   11.8030   -7.4376    0.0000 O   0  0  0  0  0  0  0  0  0  0  0  0
   10.3740   -6.6126    0.0000 O   0  0  0  0  0  0  0  0  0  0  0  0
  1  2  2  0  0  0  0
  2  3  1  0  0  0  0
  3  4  2  0  0  0  0
  4  5  1  0  0  0  0
  5  6  2  0  0  0  0
  6  1  1  0  0  0  0
  4  7  1  0  0  0  0
  7  8  1  0  0  0  0
  8  9  2  0  0  0  0
  9 10  1  0  0  0  0
 10  5  1  0  0  0  0
  8 11  1  0  0  0  0
 12 13  2  0  0  0  0
 13  9  1  0  0  0  0
 12 14  1  0  0  0  0
 14 15  2  0  0  0  0
 15 16  1  0  0  0  0
 16 17  2  0  0  0  0
 17 13  1  0  0  0  0
  1 18  1  0  0  0  0
  3 19  1  0  0  0  0
  7 20  2  0  0  0  0
 15 21  1  0  0  0  0
 18 22  1  0  0  0  0
 23 11  1  1  0  0  0
 23 24  1  0  0  0  0
 24 25  1  0  0  0  0
 25 26  1  0  0  0  0
 26 27  1  0  0  0  0
 27 28  1  0  0  0  0
 28 23  1  0  0  0  0
 28 29  1  6  0  0  0
 27 30  1  1  0  0  0
 26 31  1  6  0  0  0
 25 32  1  1  0  0  0
 32 33  1  0  0  0  0
 34 21  1  1  0  0  0
 34 35  1  0  0  0  0
 35 36  1  0  0  0  0
 36 37  1  0  0  0  0
 37 38  1  0  0  0  0
 38 39  1  0  0  0  0
 39 34  1  0  0  0  0
 36 40  1  1  0  0  0
 40 41  1  0  0  0  0
 37 42  1  6  0  0  0
 38 43  1  1  0  0  0
 39 44  1  6  0  0  0
M  END
>  <cdx:fragmentId>
5

$$$$
