91282.cdx
  Mrv1902 05222410272D          

 26 29  0  0  0  0            999 V2000
    7.7759   -4.8048    0.0000 C   0  0  0  0  0  0  0  0  0  0  0  0
    7.0582   -6.0405    0.0000 O   0  5  0  0  0  0  0  0  0  0  0  0
    7.7716   -6.4548    0.0000 C   0  0  0  0  0  0  0  0  0  0  0  0
    8.4872   -6.0442    0.0000 C   0  0  0  0  0  0  0  0  0  0  0  0
    8.4893   -5.2192    0.0000 O   0  0  0  0  0  0  0  0  0  0  0  0
    7.7695   -7.2798    0.0000 C   0  0  0  0  0  0  0  0  0  0  0  0
    8.4829   -7.6942    0.0000 C   0  0  0  0  0  0  0  0  0  0  0  0
    9.1985   -7.2835    0.0000 C   0  0  0  0  0  0  0  0  0  0  0  0
    9.2006   -6.4585    0.0000 C   0  0  0  0  0  0  0  0  0  0  0  0
    8.4808   -8.5192    0.0000 C   0  0  0  0  0  0  0  0  0  0  0  0
    9.1942   -8.9335    0.0000 N   0  3  0  0  0  0  0  0  0  0  0  0
    9.9097   -8.5228    0.0000 C   0  0  0  0  0  0  0  0  0  0  0  0
    9.9119   -7.6978    0.0000 C   0  0  0  0  0  0  0  0  0  0  0  0
    7.0540   -7.6905    0.0000 C   0  0  0  0  0  0  0  0  0  0  0  0
    7.0519   -8.5155    0.0000 C   0  0  0  0  0  0  0  0  0  0  0  0
    7.7653   -8.9298    0.0000 C   0  0  0  0  0  0  0  0  0  0  0  0
    6.3406   -7.2762    0.0000 C   0  0  0  0  0  0  0  0  0  0  0  0
    5.6250   -7.6868    0.0000 C   0  0  0  0  0  0  0  0  0  0  0  0
    5.6229   -8.5118    0.0000 C   0  0  0  0  0  0  0  0  0  0  0  0
    6.3363   -8.9261    0.0000 C   0  0  0  0  0  0  0  0  0  0  0  0
    4.9116   -7.2725    0.0000 O   0  0  0  0  0  0  0  0  0  0  0  0
    4.1961   -7.6831    0.0000 C   0  0  0  0  0  0  0  0  0  0  0  0
    4.9074   -8.9225    0.0000 O   0  0  0  0  0  0  0  0  0  0  0  0
    4.9053   -9.7475    0.0000 C   0  0  0  0  0  0  0  0  0  0  0  0
    7.7632   -9.7548    0.0000 O   0  0  0  0  0  0  0  0  0  0  0  0
    9.1921   -9.7585    0.0000 C   0  0  0  0  0  0  0  0  0  0  0  0
  2  3  1  0  0  0  0
  3  4  2  0  0  0  0
  4  5  1  0  0  0  0
  5  1  1  0  0  0  0
  3  6  1  0  0  0  0
  6  7  2  0  0  0  0
  7  8  1  0  0  0  0
  8  9  2  0  0  0  0
  9  4  1  0  0  0  0
  7 10  1  0  0  0  0
 10 11  2  0  0  0  0
 11 12  1  0  0  0  0
 12 13  2  0  0  0  0
 13  8  1  0  0  0  0
  6 14  1  0  0  0  0
 14 15  2  0  0  0  0
 15 16  1  0  0  0  0
 16 10  1  0  0  0  0
 14 17  1  0  0  0  0
 17 18  2  0  0  0  0
 18 19  1  0  0  0  0
 19 20  2  0  0  0  0
 20 15  1  0  0  0  0
 18 21  1  0  0  0  0
 21 22  1  0  0  0  0
 23 19  1  0  0  0  0
 23 24  1  0  0  0  0
 16 25  2  0  0  0  0
 11 26  1  0  0  0  0
M  CHG  2   2  -1  11   1
M  END
>  <cdx:fragmentId>
5

$$$$
