91287.cdx
  Mrv1902 05222410272D          

 22 21  0  0  0  0            999 V2000
    3.2154  -10.2973    0.0000 O   0  0  0  0  0  0  0  0  0  0  0  0
    1.0726   -9.0601    0.0000 C   0  0  0  0  0  0  0  0  0  0  0  0
    1.7869   -9.4725    0.0000 C   0  0  0  0  0  0  0  0  0  0  0  0
    2.5011   -9.0601    0.0000 O   0  0  0  0  0  0  0  0  0  0  0  0
    3.2154   -9.4725    0.0000 C   0  0  0  0  0  0  0  0  0  0  0  0
    3.9296   -9.0601    0.0000 C   0  0  0  0  0  0  0  0  0  0  0  0
    4.6439   -9.4725    0.0000 C   0  0  0  0  0  0  0  0  0  0  0  0
    5.3581   -9.0601    0.0000 C   0  0  0  0  0  0  0  0  0  0  0  0
    6.0724   -9.4725    0.0000 C   0  0  0  0  0  0  0  0  0  0  0  0
    6.7866   -9.0601    0.0000 C   0  0  0  0  0  0  0  0  0  0  0  0
    7.5008   -9.4725    0.0000 C   0  0  0  0  0  0  0  0  0  0  0  0
    8.2151   -9.0601    0.0000 C   0  0  0  0  0  0  0  0  0  0  0  0
    8.9293   -9.4725    0.0000 C   0  0  0  0  0  0  0  0  0  0  0  0
    9.6436   -9.0601    0.0000 C   0  0  0  0  0  0  0  0  0  0  0  0
   10.3578   -9.4725    0.0000 C   0  0  0  0  0  0  0  0  0  0  0  0
   11.0721   -9.0601    0.0000 C   0  0  0  0  0  0  0  0  0  0  0  0
   11.7863   -9.4725    0.0000 C   0  0  0  0  0  0  0  0  0  0  0  0
   12.5006   -9.0601    0.0000 C   0  0  0  0  0  0  0  0  0  0  0  0
   13.2148   -9.4725    0.0000 C   0  0  0  0  0  0  0  0  0  0  0  0
   13.9291   -9.0601    0.0000 C   0  0  0  0  0  0  0  0  0  0  0  0
   14.6433   -9.4725    0.0000 C   0  0  0  0  0  0  0  0  0  0  0  0
   15.3576   -9.0601    0.0000 C   0  0  0  0  0  0  0  0  0  0  0  0
  5  1  2  0  0  0  0
  3  2  1  0  0  0  0
  4  3  1  0  0  0  0
  5  4  1  0  0  0  0
  6  5  1  0  0  0  0
  7  6  1  0  0  0  0
  8  7  1  0  0  0  0
  9  8  1  0  0  0  0
 10  9  1  0  0  0  0
 11 10  1  0  0  0  0
 12 11  1  0  0  0  0
 13 12  1  0  0  0  0
 14 13  1  0  0  0  0
 15 14  2  0  0  0  0
 16 15  1  0  0  0  0
 17 16  1  0  0  0  0
 18 17  2  0  0  0  0
 19 18  1  0  0  0  0
 20 19  1  0  0  0  0
 21 20  1  0  0  0  0
 22 21  1  0  0  0  0
M  END
>  <cdx:fragmentId>
3

$$$$
