91284.cdx
  Mrv1902 05222410282D          

  8  8  0  0  0  0            999 V2000
    5.9042   -8.7989    0.0000 S   0  0  0  0  0  0  0  0  0  0  0  0
    5.9042   -9.6239    0.0000 S   0  0  0  0  0  0  0  0  0  0  0  0
    6.4875  -10.2073    0.0000 S   0  0  0  0  0  0  0  0  0  0  0  0
    7.3125  -10.2073    0.0000 S   0  0  0  0  0  0  0  0  0  0  0  0
    7.8959   -9.6239    0.0000 S   0  0  0  0  0  0  0  0  0  0  0  0
    7.8959   -8.7989    0.0000 S   0  0  0  0  0  0  0  0  0  0  0  0
    7.3125   -8.2155    0.0000 S   0  0  0  0  0  0  0  0  0  0  0  0
    6.4875   -8.2155    0.0000 S   0  0  0  0  0  0  0  0  0  0  0  0
  1  2  1  0  0  0  0
  2  3  1  0  0  0  0
  3  4  1  0  0  0  0
  4  5  1  0  0  0  0
  5  6  1  0  0  0  0
  6  7  1  0  0  0  0
  7  8  1  0  0  0  0
  8  1  1  0  0  0  0
M  END
>  <cdx:fragmentId>
5

$$$$
