91285.cdx
  Mrv1902 05222410282D          

 14 16  0  0  0  0            999 V2000
    5.9324   -9.1899    0.0000 C   0  0  0  0  0  0  0  0  0  0  0  0
    6.0263  -10.0096    0.0000 C   0  0  0  0  0  0  0  0  0  0  0  0
    6.6723  -10.5227    0.0000 C   0  0  0  0  0  0  0  0  0  0  0  0
    7.4920  -10.4288    0.0000 C   0  0  0  0  0  0  0  0  0  0  0  0
    8.0051   -9.7829    0.0000 C   0  0  0  0  0  0  0  0  0  0  0  0
    7.9112   -8.9632    0.0000 C   0  0  0  0  0  0  0  0  0  0  0  0
    7.2652   -8.4501    0.0000 C   0  0  0  0  0  0  0  0  0  0  0  0
    6.4456   -8.5440    0.0000 C   0  0  0  0  0  0  0  0  0  0  0  0
    7.1693   -8.9627    0.0000 C   0  0  0  0  0  0  0  0  0  0  0  0
    6.8581   -7.8295    0.0000 C   0  0  0  0  0  0  0  0  0  0  0  0
    8.1247   -8.1663    0.0000 C   0  0  0  0  0  0  0  0  0  0  0  0
    7.5587   -7.7260    0.0000 C   0  0  0  0  0  0  0  0  0  0  0  0
    7.0517   -7.6532    0.0000 O   0  0  0  0  0  0  0  0  0  0  0  0
    7.8838   -8.5502    0.0000 O   0  0  0  0  0  0  0  0  0  0  0  0
  1  2  1  0  0  0  0
  2  3  1  0  0  0  0
  3  4  1  0  0  0  0
  4  5  1  0  0  0  0
  5  6  1  0  0  0  0
  6  7  1  0  0  0  0
  7  8  1  0  0  0  0
  8  1  1  0  0  0  0
  1  9  1  0  0  0  0
  9  5  1  0  0  0  0
  8 10  1  0  0  0  0
  6 11  1  0  0  0  0
 10 12  1  0  0  0  0
 12 11  1  0  0  0  0
  7 13  2  0  0  0  0
  9 14  2  0  0  0  0
M  END
>  <cdx:fragmentId>
5

$$$$
