91281.cdx
  Mrv1902 05222410262D          

 25 27  0  0  0  0            999 V2000
    7.5056   -8.4964    0.0000 C   0  0  0  0  0  0  0  0  0  0  0  0
    7.5056   -9.3214    0.0000 C   0  0  0  0  0  0  0  0  0  0  0  0
    8.2200   -9.7339    0.0000 N   0  0  0  0  0  0  0  0  0  0  0  0
    8.9345   -9.3214    0.0000 C   0  0  0  0  0  0  0  0  0  0  0  0
    8.9345   -8.4964    0.0000 N   0  0  0  0  0  0  0  0  0  0  0  0
    8.2200   -8.0839    0.0000 C   0  0  0  0  0  0  0  0  0  0  0  0
    6.7209   -8.2415    0.0000 N   0  0  0  0  0  0  0  0  0  0  0  0
    6.2360   -8.9089    0.0000 C   0  0  0  0  0  0  0  0  0  0  0  0
    6.7209   -9.5763    0.0000 N   0  0  0  0  0  0  0  0  0  0  0  0
    8.2200   -7.2589    0.0000 N   0  0  0  0  0  0  0  0  0  0  0  0
    8.9345   -6.8464    0.0000 C   0  0  0  0  0  0  0  0  0  0  0  0
    9.6490   -7.2589    0.0000 C   0  0  0  0  0  0  0  0  0  0  0  0
   10.3634   -6.8464    0.0000 O   0  0  0  0  0  0  0  0  0  0  0  0
    6.4660  -10.3610    0.0000 C   0  0  2  0  0  0  0  0  0  0  0  0
    5.6814  -10.6159    0.0000 O   0  0  0  0  0  0  0  0  0  0  0  0
    5.6814  -11.4409    0.0000 C   0  0  1  0  0  0  0  0  0  0  0  0
    6.4660  -11.6958    0.0000 C   0  0  2  0  0  0  0  0  0  0  0  0
    6.9509  -11.0284    0.0000 C   0  0  1  0  0  0  0  0  0  0  0  0
    5.0139  -11.9258    0.0000 C   0  0  0  0  0  0  0  0  0  0  0  0
    6.7209  -12.4805    0.0000 O   0  0  0  0  0  0  0  0  0  0  0  0
    7.7759  -11.0284    0.0000 O   0  0  0  0  0  0  0  0  0  0  0  0
    4.2603  -11.5903    0.0000 O   0  0  0  0  0  0  0  0  0  0  0  0
   11.0779   -7.2589    0.0000 C   0  0  0  0  0  0  0  0  0  0  0  0
   11.0779   -8.0839    0.0000 C   0  0  0  0  0  0  0  0  0  0  0  0
   11.7924   -6.8464    0.0000 O   0  0  0  0  0  0  0  0  0  0  0  0
  1  2  2  0  0  0  0
  2  3  1  0  0  0  0
  3  4  2  0  0  0  0
  4  5  1  0  0  0  0
  5  6  2  0  0  0  0
  6  1  1  0  0  0  0
  1  7  1  0  0  0  0
  7  8  2  0  0  0  0
  8  9  1  0  0  0  0
  9  2  1  0  0  0  0
  6 10  1  0  0  0  0
 10 11  1  0  0  0  0
 11 12  1  0  0  0  0
 12 13  1  0  0  0  0
 14  9  1  1  0  0  0
 14 15  1  0  0  0  0
 15 16  1  0  0  0  0
 16 17  1  0  0  0  0
 17 18  1  0  0  0  0
 18 14  1  0  0  0  0
 16 19  1  1  0  0  0
 17 20  1  6  0  0  0
 18 21  1  6  0  0  0
 19 22  1  0  0  0  0
 13 23  1  0  0  0  0
 23 24  1  0  0  0  0
 23 25  2  0  0  0  0
M  END
>  <cdx:fragmentId>
5

$$$$
