91289.cdx
  Mrv1902 05222410182D          

 45 48  0  0  0  0            999 V2000
    6.7543  -10.4621    0.0000 C   0  0  0  0  0  0  0  0  0  0  0  0
    7.4667  -11.7007    0.0000 O   0  0  0  0  0  0  0  0  0  0  0  0
    7.4681  -10.8757    0.0000 C   0  0  0  0  0  0  0  0  0  0  0  0
    8.1832  -10.4644    0.0000 O   0  0  0  0  0  0  0  0  0  0  0  0
   10.3259  -10.8804    0.0000 C   0  0  0  0  0  0  0  0  0  0  0  0
    8.8970  -10.8781    0.0000 O   0  0  0  0  0  0  0  0  0  0  0  0
    9.6121  -10.4667    0.0000 C   0  0  0  0  0  0  0  0  0  0  0  0
    9.6135   -9.6417    0.0000 O   0  0  0  0  0  0  0  0  0  0  0  0
    5.3307   -7.1598    0.0000 C   0  0  0  0  0  0  0  0  0  0  0  0
    6.0471   -5.9234    0.0000 O   0  0  0  0  0  0  0  0  0  0  0  0
    6.0458   -6.7484    0.0000 C   0  0  0  0  0  0  0  0  0  0  0  0
    6.7596   -7.1621    0.0000 O   0  0  0  0  0  0  0  0  0  0  0  0
    6.7583   -7.9871    0.0000 C   0  0  0  0  0  0  0  0  0  0  0  0
    8.9010   -8.4031    0.0000 C   0  0  1  0  0  0  0  0  0  0  0  0
    8.8997   -9.2281    0.0000 C   0  0  1  0  0  0  0  0  0  0  0  0
    8.1845   -9.6394    0.0000 C   0  0  2  0  0  0  0  0  0  0  0  0
    7.4707   -9.2257    0.0000 C   0  0  1  0  0  0  0  0  0  0  0  0
    7.4721   -8.4008    0.0000 C   0  0  2  0  0  0  0  0  0  0  0  0
    8.1872   -7.9894    0.0000 O   0  0  0  0  0  0  0  0  0  0  0  0
    4.6142   -8.3961    0.0000 O   0  0  0  0  0  0  0  0  0  0  0  0
    3.1839   -9.2188    0.0000 O   0  0  0  0  0  0  0  0  0  0  0  0
    6.7556   -9.6371    0.0000 O   0  0  0  0  0  0  0  0  0  0  0  0
    6.0431   -8.3984    0.0000 O   0  0  0  0  0  0  0  0  0  0  0  0
    5.3253  -10.4598    0.0000 C   0  0  0  0  0  0  0  0  0  0  0  0
    4.6102  -10.8711    0.0000 C   0  0  0  0  0  0  0  0  0  0  0  0
    3.8964  -10.4575    0.0000 C   0  0  0  0  0  0  0  0  0  0  0  0
    3.8977   -9.6325    0.0000 C   0  0  0  0  0  0  0  0  0  0  0  0
    4.6129   -9.2211    0.0000 C   0  0  0  0  0  0  0  0  0  0  0  0
    5.3267   -9.6348    0.0000 C   0  0  0  0  0  0  0  0  0  0  0  0
    6.0418   -9.2234    0.0000 C   0  0  0  0  0  0  0  0  0  0  0  0
    9.6162   -7.9917    0.0000 O   0  0  0  0  0  0  0  0  0  0  0  0
    8.9050   -5.9281    0.0000 C   0  0  0  0  0  0  0  0  0  0  0  0
    9.6202   -5.5167    0.0000 C   0  0  0  0  0  0  0  0  0  0  0  0
   10.3340   -5.9304    0.0000 C   0  0  1  0  0  0  0  0  0  0  0  0
   10.3326   -6.7554    0.0000 C   0  0  2  0  0  0  0  0  0  0  0  0
    9.6175   -7.1667    0.0000 C   0  0  1  0  0  0  0  0  0  0  0  0
    8.9037   -6.7531    0.0000 O   0  0  0  0  0  0  0  0  0  0  0  0
    9.6215   -4.6917    0.0000 C   0  0  0  0  0  0  0  0  0  0  0  0
   11.0491   -5.5190    0.0000 C   0  0  0  0  0  0  0  0  0  0  0  0
   11.0504   -4.6940    0.0000 C   0  0  0  0  0  0  0  0  0  0  0  0
   10.3366   -4.2804    0.0000 O   0  0  0  0  0  0  0  0  0  0  0  0
    8.9077   -4.2781    0.0000 O   0  0  0  0  0  0  0  0  0  0  0  0
   11.0464   -7.1690    0.0000 C   0  0  0  0  0  0  0  0  0  0  0  0
   11.0451   -7.9940    0.0000 C   0  0  0  0  0  0  0  0  0  0  0  0
   11.0478   -6.3440    0.0000 H   0  0  0  0  0  0  0  0  0  0  0  0
 16 15  1  0  0  0  0
 17 16  1  0  0  0  0
 18 17  1  0  0  0  0
 19 18  1  0  0  0  0
 28 20  1  0  0  0  0
 27 21  1  0  0  0  0
 30 22  1  0  0  0  0
 30 23  2  0  0  0  0
 29 24  2  0  0  0  0
 25 24  1  0  0  0  0
 26 25  2  0  0  0  0
 27 26  1  0  0  0  0
 28 27  2  0  0  0  0
 29 28  1  0  0  0  0
 30 29  1  0  0  0  0
 32 33  2  0  0  0  0
 33 34  1  0  0  0  0
 34 35  1  0  0  0  0
 35 36  1  0  0  0  0
 36 37  1  0  0  0  0
 32 37  1  0  0  0  0
 39 40  1  0  0  0  0
 40 41  1  0  0  0  0
 38 41  1  0  0  0  0
 38 33  1  0  0  0  0
 39 34  1  0  0  0  0
 38 42  2  0  0  0  0
 43 44  2  0  0  0  0
 35 43  1  1  0  0  0
 36 31  1  6  0  0  0
 34 45  1  1  0  0  0
 17 22  1  6  0  0  0
 16  4  1  1  0  0  0
  4  3  1  0  0  0  0
  3  1  1  0  0  0  0
  3  2  2  0  0  0  0
 15  8  1  6  0  0  0
  8  7  1  0  0  0  0
  7  5  1  0  0  0  0
  7  6  2  0  0  0  0
 18 13  1  1  0  0  0
 13 12  1  0  0  0  0
 12 11  1  0  0  0  0
 11  9  1  0  0  0  0
 11 10  2  0  0  0  0
 14 31  1  1  0  0  0
 19 14  1  0  0  0  0
 15 14  1  0  0  0  0
M  END
>  <cdx:fragmentId>
262051

$$$$
