912867.cdx
  Mrv1902 05222410242D          

 63 68  0  0  0  0            999 V2000
   12.6889  -13.1246    0.0000 O   0  0  0  0  0  0  0  0  0  0  0  0
   12.6955  -12.2996    0.0000 C   0  0  0  0  0  0  0  0  0  0  0  0
    9.1786   -6.9089    0.0000 O   0  0  0  0  0  0  0  0  0  0  0  0
    7.7366   -8.5475    0.0000 C   0  0  0  0  0  0  0  0  0  0  0  0
    8.4543   -8.1407    0.0000 C   0  0  0  0  0  0  0  0  0  0  0  0
    8.4609   -7.3157    0.0000 C   0  0  0  0  0  0  0  0  0  0  0  0
    7.7497   -6.8975    0.0000 C   0  0  0  0  0  0  0  0  0  0  0  0
    7.0320   -7.3043    0.0000 C   0  0  0  0  0  0  0  0  0  0  0  0
    7.0254   -8.1293    0.0000 C   0  0  0  0  0  0  0  0  0  0  0  0
    0.3344   -8.5835    0.0000 O   0  0  0  0  0  0  0  0  0  0  0  0
    1.1210   -8.3348    0.0000 C   0  0  0  0  0  0  0  0  0  0  0  0
    1.3822   -7.5522    0.0000 C   0  0  0  0  0  0  0  0  0  0  0  0
    2.2072   -7.5588    0.0000 C   0  0  0  0  0  0  0  0  0  0  0  0
    2.4558   -8.3454    0.0000 C   0  0  2  0  0  0  0  0  0  0  0  0
    1.7846   -8.8250    0.0000 N   0  0  0  0  0  0  0  0  0  0  0  0
    3.8559   -8.0595    0.0000 O   0  0  0  0  0  0  0  0  0  0  0  0
    3.2384   -8.6066    0.0000 C   0  0  0  0  0  0  0  0  0  0  0  0
    2.8466  -10.0236    0.0000 C   0  0  0  0  0  0  0  0  0  0  0  0
    3.2534  -10.7413    0.0000 C   0  0  0  0  0  0  0  0  0  0  0  0
    4.0617  -10.5762    0.0000 C   0  0  0  0  0  0  0  0  0  0  0  0
    4.1545   -9.7565    0.0000 C   0  0  2  0  0  0  0  0  0  0  0  0
    3.4035   -9.4149    0.0000 N   0  0  0  0  0  0  0  0  0  0  0  0
    4.8788   -8.5247    0.0000 O   0  0  0  0  0  0  0  0  0  0  0  0
    4.8722   -9.3497    0.0000 C   0  0  0  0  0  0  0  0  0  0  0  0
    5.5834   -9.7679    0.0000 N   0  0  0  0  0  0  0  0  0  0  0  0
    7.0057  -10.6042    0.0000 O   0  0  0  0  0  0  0  0  0  0  0  0
    6.3077   -8.5361    0.0000 C   0  0  0  0  0  0  0  0  0  0  0  0
    6.3011   -9.3611    0.0000 C   0  0  1  0  0  0  0  0  0  0  0  0
    7.0123   -9.7792    0.0000 C   0  0  0  0  0  0  0  0  0  0  0  0
    7.7300   -9.3724    0.0000 N   0  0  0  0  0  0  0  0  0  0  0  0
    9.1655   -8.5589    0.0000 O   0  0  0  0  0  0  0  0  0  0  0  0
   11.2924  -10.6384    0.0000 O   0  0  0  0  0  0  0  0  0  0  0  0
   13.4198  -11.0678    0.0000 O   0  0  0  0  0  0  0  0  0  0  0  0
   10.6436  -11.7474    0.0000 O   0  0  0  0  0  0  0  0  0  0  0  0
   11.3121   -8.1634    0.0000 C   0  0  0  0  0  0  0  0  0  0  0  0
   10.5944   -8.5702    0.0000 C   0  0  0  0  0  0  0  0  0  0  0  0
    9.8832   -8.1521    0.0000 C   0  0  0  0  0  0  0  0  0  0  0  0
   10.1285  -14.4784    0.0000 O   0  0  0  0  0  0  0  0  0  0  0  0
    8.8967  -13.7541    0.0000 O   0  0  0  0  0  0  0  0  0  0  0  0
    9.7217  -13.7606    0.0000 C   0  0  0  0  0  0  0  0  0  0  0  0
    9.8503  -12.2769    0.0000 C   0  0  0  0  0  0  0  0  0  0  0  0
   10.1399  -13.0495    0.0000 C   0  0  2  0  0  0  0  0  0  0  0  0
   10.9648  -13.0560    0.0000 N   0  0  0  0  0  0  0  0  0  0  0  0
   11.2666  -12.2882    0.0000 C   0  0  0  0  0  0  0  0  0  0  0  0
   11.9843  -11.8814    0.0000 C   0  0  1  0  0  0  0  0  0  0  0  0
   11.9909  -11.0564    0.0000 N   0  0  0  0  0  0  0  0  0  0  0  0
   12.7086  -10.6497    0.0000 C   0  0  0  0  0  0  0  0  0  0  0  0
   12.7152   -9.8247    0.0000 C   0  0  0  0  0  0  0  0  0  0  0  0
   12.0167   -9.4066    0.0000 N   0  0  0  0  0  0  0  0  0  0  0  0
   11.2990   -9.8134    0.0000 C   0  0  0  0  0  0  0  0  0  0  0  0
   10.5878   -9.3952    0.0000 C   0  0  1  0  0  0  0  0  0  0  0  0
    9.8701   -9.8020    0.0000 N   0  0  0  0  0  0  0  0  0  0  0  0
    9.1589   -9.3838    0.0000 C   0  0  0  0  0  0  0  0  0  0  0  0
    8.4412   -9.7906    0.0000 C   0  0  1  0  0  0  0  0  0  0  0  0
    8.4346  -10.6156    0.0000 N   0  0  0  0  0  0  0  0  0  0  0  0
    7.7743  -11.1102    0.0000 C   0  0  0  0  0  0  0  0  0  0  0  0
    8.0406  -11.8910    0.0000 C   0  0  0  0  0  0  0  0  0  0  0  0
    8.8655  -11.8910    0.0000 C   0  0  0  0  0  0  0  0  0  0  0  0
    9.1090  -11.1102    0.0000 C   0  0  0  0  0  0  0  0  0  0  0  0
    6.9649  -10.9504    0.0000 C   0  0  0  0  0  0  0  0  0  0  0  0
    6.4218  -11.5715    0.0000 C   0  0  0  0  0  0  0  0  0  0  0  0
    6.6882  -12.3523    0.0000 C   0  0  0  0  0  0  0  0  0  0  0  0
    7.4975  -12.5121    0.0000 C   0  0  0  0  0  0  0  0  0  0  0  0
 45  2  1  1  0  0  0
  2  1  1  0  0  0  0
 54 30  1  1  0  0  0
 30 29  1  0  0  0  0
 27  9  1  0  0  0  0
  6  3  1  0  0  0  0
  9  4  2  0  0  0  0
  5  4  1  0  0  0  0
  6  5  2  0  0  0  0
  7  6  1  0  0  0  0
  8  7  2  0  0  0  0
  9  8  1  0  0  0  0
 28 25  1  1  0  0  0
 25 24  1  0  0  0  0
 22 17  1  0  0  0  0
 11 10  2  0  0  0  0
 14 17  1  1  0  0  0
 15 11  1  0  0  0  0
 12 11  1  0  0  0  0
 13 12  1  0  0  0  0
 14 13  1  0  0  0  0
 15 14  1  0  0  0  0
 17 16  2  0  0  0  0
 21 24  1  6  0  0  0
 22 18  1  0  0  0  0
 19 18  1  0  0  0  0
 20 19  1  0  0  0  0
 21 20  1  0  0  0  0
 22 21  1  0  0  0  0
 24 23  2  0  0  0  0
 29 26  2  0  0  0  0
 28 27  1  0  0  0  0
 29 28  1  0  0  0  0
 53 31  2  0  0  0  0
 50 32  2  0  0  0  0
 47 33  2  0  0  0  0
 44 34  2  0  0  0  0
 51 36  1  1  0  0  0
 36 35  1  0  0  0  0
 37 36  1  0  0  0  0
 42 40  1  6  0  0  0
 40 38  1  0  0  0  0
 40 39  2  0  0  0  0
 42 41  1  0  0  0  0
 43 42  1  0  0  0  0
 44 43  1  0  0  0  0
 45 44  1  0  0  0  0
 46 45  1  0  0  0  0
 47 46  1  0  0  0  0
 48 47  1  0  0  0  0
 49 48  1  0  0  0  0
 50 49  1  0  0  0  0
 51 50  1  0  0  0  0
 52 51  1  0  0  0  0
 53 52  1  0  0  0  0
 54 53  1  0  0  0  0
 55 54  1  0  0  0  0
 55 56  1  0  0  0  0
 56 57  2  0  0  0  0
 57 58  1  0  0  0  0
 58 59  2  0  0  0  0
 59 55  1  0  0  0  0
 56 60  1  0  0  0  0
 60 61  2  0  0  0  0
 61 62  1  0  0  0  0
 62 63  2  0  0  0  0
 63 57  1  0  0  0  0
 58 41  1  0  0  0  0
M  END
>  <cdx:fragmentId>
170048

$$$$
