91298.cdx
  Mrv1902 05222410202D          

  9  9  0  0  0  0            999 V2000
    6.6256   -9.5001    0.0000 C   0  0  2  0  0  0  0  0  0  0  0  0
    6.6256  -10.3251    0.0000 C   0  0  0  0  0  0  0  0  0  0  0  0
    7.3400  -10.7376    0.0000 C   0  0  0  0  0  0  0  0  0  0  0  0
    8.0545  -10.3251    0.0000 C   0  0  2  0  0  0  0  0  0  0  0  0
    8.0545   -9.5001    0.0000 C   0  0  0  0  0  0  0  0  0  0  0  0
    7.3400   -9.0876    0.0000 C   0  0  1  0  0  0  0  0  0  0  0  0
    5.9111   -9.0876    0.0000 C   0  0  0  0  0  0  0  0  0  0  0  0
    7.3400   -8.2626    0.0000 C   0  0  0  0  0  0  0  0  0  0  0  0
    8.7690  -10.7376    0.0000 C   0  0  0  0  0  0  0  0  0  0  0  0
  1  2  1  0  0  0  0
  2  3  1  0  0  0  0
  3  4  1  0  0  0  0
  4  5  1  0  0  0  0
  5  6  1  0  0  0  0
  6  1  1  0  0  0  0
  1  7  1  1  0  0  0
  6  8  1  6  0  0  0
  4  9  1  6  0  0  0
M  END
>  <cdx:fragmentId>
5

$$$$
