91295.cdx
  Mrv1902 05222410262D          

 33 34  0  0  0  0            999 V2000
    8.9218   -8.7164    0.0000 C   0  0  0  0  0  0  0  0  0  0  0  0
    8.9218   -9.5414    0.0000 C   0  0  2  0  0  0  0  0  0  0  0  0
    9.6363   -9.9539    0.0000 C   0  0  1  0  0  0  0  0  0  0  0  0
   10.3507   -9.5414    0.0000 O   0  0  0  0  0  0  0  0  0  0  0  0
   10.3507   -8.7164    0.0000 C   0  0  0  0  0  0  0  0  0  0  0  0
    9.6363   -8.3039    0.0000 C   0  0  0  0  0  0  0  0  0  0  0  0
    8.1372   -8.4615    0.0000 C   0  0  0  0  0  0  0  0  0  0  0  0
    7.6523   -9.1289    0.0000 C   0  0  1  0  0  0  0  0  0  0  0  0
    8.1372   -9.7963    0.0000 C   0  0  2  0  0  0  0  0  0  0  0  0
    9.6363   -7.4789    0.0000 C   0  0  0  0  0  0  0  0  0  0  0  0
   10.3507   -7.0664    0.0000 O   0  0  0  0  0  0  0  0  0  0  0  0
    7.4227  -10.2088    0.0000 C   0  0  0  0  0  0  0  0  0  0  0  0
    6.7082   -9.7963    0.0000 Cl  0  0  0  0  0  0  0  0  0  0  0  0
    6.8273   -9.1289    0.0000 O   0  0  0  0  0  0  0  0  0  0  0  0
    8.8356  -10.3619    0.0000 H   0  0  0  0  0  0  0  0  0  0  0  0
    9.6363  -10.7789    0.0000 O   0  0  0  0  0  0  0  0  0  0  0  0
    8.1372  -10.6213    0.0000 O   0  0  0  0  0  0  0  0  0  0  0  0
   10.3507  -11.1914    0.0000 C   0  0  0  0  0  0  0  0  0  0  0  0
   10.3507  -12.0164    0.0000 C   0  0  0  0  0  0  0  0  0  0  0  0
   11.0652  -10.7789    0.0000 O   0  0  0  0  0  0  0  0  0  0  0  0
   11.0652  -12.4289    0.0000 C   0  0  0  0  0  0  0  0  0  0  0  0
   11.0652  -13.2539    0.0000 C   0  0  0  0  0  0  0  0  0  0  0  0
   11.7797  -12.0164    0.0000 C   0  0  0  0  0  0  0  0  0  0  0  0
    6.1167   -8.7096    0.0000 C   0  0  0  0  0  0  0  0  0  0  0  0
    5.3984   -9.1153    0.0000 C   0  0  0  0  0  0  0  0  0  0  0  0
    6.1246   -7.8847    0.0000 O   0  0  0  0  0  0  0  0  0  0  0  0
   10.3507   -6.2414    0.0000 C   0  0  0  0  0  0  0  0  0  0  0  0
   11.0652   -5.8289    0.0000 C   0  0  0  0  0  0  0  0  0  0  0  0
    9.6363   -5.8289    0.0000 O   0  0  0  0  0  0  0  0  0  0  0  0
    4.6879   -8.6960    0.0000 C   0  0  1  0  0  0  0  0  0  0  0  0
    4.6957   -7.8711    0.0000 C   0  0  0  0  0  0  0  0  0  0  0  0
    3.9695   -9.1017    0.0000 C   0  0  0  0  0  0  0  0  0  0  0  0
    3.9852   -7.4518    0.0000 C   0  0  0  0  0  0  0  0  0  0  0  0
  1  2  1  0  0  0  0
  2  3  1  0  0  0  0
  3  4  1  0  0  0  0
  4  5  1  0  0  0  0
  5  6  2  0  0  0  0
  6  1  1  0  0  0  0
  1  7  2  0  0  0  0
  7  8  1  0  0  0  0
  8  9  1  0  0  0  0
  9  2  1  0  0  0  0
  6 10  1  0  0  0  0
 10 11  1  0  0  0  0
  9 12  1  0  0  0  0
 12 13  1  0  0  0  0
  8 14  1  1  0  0  0
  2 15  1  1  0  0  0
  3 16  1  1  0  0  0
  9 17  1  6  0  0  0
 16 18  1  0  0  0  0
 18 19  1  0  0  0  0
 18 20  2  0  0  0  0
 19 21  1  0  0  0  0
 21 22  1  0  0  0  0
 21 23  1  0  0  0  0
 14 24  1  0  0  0  0
 24 25  1  0  0  0  0
 24 26  2  0  0  0  0
 11 27  1  0  0  0  0
 27 28  1  0  0  0  0
 27 29  2  0  0  0  0
 25 30  1  0  0  0  0
 30 31  1  0  0  0  0
 30 32  1  6  0  0  0
 31 33  1  0  0  0  0
M  END
>  <cdx:fragmentId>
6

$$$$
