91290.cdx
  Mrv1902 05222410282D          

 61 66  0  0  0  0            999 V2000
    9.0318   -8.0426    0.0000 C   0  0  2  0  0  0  0  0  0  0  0  0
    9.0318   -8.8676    0.0000 C   0  0  2  0  0  0  0  0  0  0  0  0
    9.7463   -9.2801    0.0000 C   0  0  1  0  0  0  0  0  0  0  0  0
   10.4607   -8.8676    0.0000 C   0  0  2  0  0  0  0  0  0  0  0  0
   10.4607   -8.0426    0.0000 C   0  0  1  0  0  0  0  0  0  0  0  0
    9.7463   -7.6301    0.0000 O   0  0  0  0  0  0  0  0  0  0  0  0
    9.0318  -10.5176    0.0000 C   0  0  0  0  0  0  0  0  0  0  0  0
    8.3173   -7.6301    0.0000 C   0  0  0  0  0  0  0  0  0  0  0  0
   11.1752   -9.2801    0.0000 O   0  0  0  0  0  0  0  0  0  0  0  0
    8.3173   -9.2801    0.0000 O   0  0  0  0  0  0  0  0  0  0  0  0
    8.3173   -6.8051    0.0000 O   0  0  0  0  0  0  0  0  0  0  0  0
    7.6029   -6.3926    0.0000 C   0  0  0  0  0  0  0  0  0  0  0  0
    7.6029   -5.5676    0.0000 O   0  0  0  0  0  0  0  0  0  0  0  0
    6.8884   -6.8051    0.0000 C   0  0  0  0  0  0  0  0  0  0  0  0
   11.8897   -8.8676    0.0000 C   0  0  0  0  0  0  0  0  0  0  0  0
   12.6042   -9.2801    0.0000 C   0  0  0  0  0  0  0  0  0  0  0  0
   11.8897   -8.0426    0.0000 O   0  0  0  0  0  0  0  0  0  0  0  0
    8.3173  -10.1051    0.0000 C   0  0  0  0  0  0  0  0  0  0  0  0
    9.0318  -11.3426    0.0000 O   0  0  0  0  0  0  0  0  0  0  0  0
    9.7463  -10.1051    0.0000 O   0  0  0  0  0  0  0  0  0  0  0  0
    7.6029   -8.8676    0.0000 C   0  0  0  0  0  0  0  0  0  0  0  0
    4.7450   -8.8676    0.0000 O   0  0  0  0  0  0  0  0  0  0  0  0
    7.6029   -8.0426    0.0000 O   0  0  0  0  0  0  0  0  0  0  0  0
    4.0296   -9.2786    0.0000 C   0  0  2  0  0  0  0  0  0  0  0  0
    3.3160   -8.8645    0.0000 O   0  0  0  0  0  0  0  0  0  0  0  0
    2.6007   -9.2754    0.0000 C   0  0  1  0  0  0  0  0  0  0  0  0
    2.5988  -10.1004    0.0000 C   0  0  2  0  0  0  0  0  0  0  0  0
    3.3124  -10.5145    0.0000 C   0  0  1  0  0  0  0  0  0  0  0  0
    4.0278  -10.1036    0.0000 C   0  0  1  0  0  0  0  0  0  0  0  0
    1.8871   -8.8614    0.0000 C   0  0  0  0  0  0  0  0  0  0  0  0
   12.5762   -5.9563    0.0000 H   0  0  0  0  0  0  0  0  0  0  0  0
   10.3983   -3.9302    0.0000 O   0  0  0  0  0  0  0  0  0  0  0  0
   12.5901   -7.6062    0.0000 C   0  0  0  0  0  0  0  0  0  0  0  0
   12.5901   -6.7812    0.0000 C   0  0  0  0  0  0  0  0  0  0  0  0
   12.5623   -5.1314    0.0000 C   0  0  0  0  0  0  0  0  0  0  0  0
   12.5484   -4.3065    0.0000 C   0  0  0  0  0  0  0  0  0  0  0  0
   11.8271   -3.9061    0.0000 O   0  0  0  0  0  0  0  0  0  0  0  0
   11.1196   -4.3306    0.0000 C   0  0  0  0  0  0  0  0  0  0  0  0
   11.8687   -6.3808    0.0000 C   0  0  2  0  0  0  0  0  0  0  0  0
   11.8548   -5.5559    0.0000 C   0  0  2  0  0  0  0  0  0  0  0  0
   11.1335   -5.1555    0.0000 C   0  0  0  0  0  0  0  0  0  0  0  0
   10.4261   -5.5800    0.0000 C   0  0  0  0  0  0  0  0  0  0  0  0
   10.4400   -6.4049    0.0000 O   0  0  0  0  0  0  0  0  0  0  0  0
   11.1613   -6.8053    0.0000 C   0  0  1  0  0  0  0  0  0  0  0  0
   11.1752   -7.6301    0.0000 O   0  0  0  0  0  0  0  0  0  0  0  0
   12.6042  -10.1051    0.0000 C   0  0  0  0  0  0  0  0  0  0  0  0
   13.3186  -10.5176    0.0000 C   0  0  0  0  0  0  0  0  0  0  0  0
   14.0331  -10.1051    0.0000 C   0  0  0  0  0  0  0  0  0  0  0  0
   14.0331   -9.2801    0.0000 C   0  0  0  0  0  0  0  0  0  0  0  0
   13.3186   -8.8676    0.0000 C   0  0  0  0  0  0  0  0  0  0  0  0
    3.3106  -11.3395    0.0000 O   0  0  0  0  0  0  0  0  0  0  0  0
    4.7413  -10.5176    0.0000 O   0  0  0  0  0  0  0  0  0  0  0  0
    1.8835  -10.5114    0.0000 O   0  0  0  0  0  0  0  0  0  0  0  0
    1.1717   -9.2723    0.0000 O   0  0  0  0  0  0  0  0  0  0  0  0
    6.1739   -8.0426    0.0000 O   0  0  0  0  0  0  0  0  0  0  0  0
    6.1739   -8.8676    0.0000 C   0  0  0  0  0  0  0  0  0  0  0  0
    5.4594   -9.2801    0.0000 C   0  0  0  0  0  0  0  0  0  0  0  0
    5.4594  -10.1051    0.0000 C   0  0  0  0  0  0  0  0  0  0  0  0
    6.1739  -10.5176    0.0000 C   0  0  0  0  0  0  0  0  0  0  0  0
    6.8884  -10.1051    0.0000 C   0  0  0  0  0  0  0  0  0  0  0  0
    6.8884   -9.2801    0.0000 C   0  0  0  0  0  0  0  0  0  0  0  0
  1  2  1  0  0  0  0
  2  3  1  0  0  0  0
  3  4  1  0  0  0  0
  4  5  1  0  0  0  0
  5  6  1  0  0  0  0
  6  1  1  0  0  0  0
 40 31  1  1  0  0  0
  5 45  1  1  0  0  0
  3 20  1  1  0  0  0
  1  8  1  1  0  0  0
  4  9  1  6  0  0  0
  2 10  1  6  0  0  0
  8 11  1  0  0  0  0
 11 12  1  0  0  0  0
 12 13  2  0  0  0  0
 12 14  1  0  0  0  0
  9 15  1  0  0  0  0
 15 16  1  0  0  0  0
 15 17  2  0  0  0  0
  7 18  1  0  0  0  0
 20  7  1  0  0  0  0
  7 19  2  0  0  0  0
 10 21  1  0  0  0  0
 21 61  1  0  0  0  0
 21 23  2  0  0  0  0
 24 22  1  1  0  0  0
 24 25  1  0  0  0  0
 25 26  1  0  0  0  0
 26 27  1  0  0  0  0
 27 28  1  0  0  0  0
 28 29  1  0  0  0  0
 29 24  1  0  0  0  0
 26 30  1  1  0  0  0
 38 32  2  0  0  0  0
 34 33  2  0  0  0  0
 39 34  1  1  0  0  0
 35 40  1  0  0  0  0
 36 35  1  0  0  0  0
 37 36  1  0  0  0  0
 38 37  1  0  0  0  0
 41 38  1  0  0  0  0
 39 44  1  0  0  0  0
 40 39  1  0  0  0  0
 41 40  1  0  0  0  0
 42 41  2  0  0  0  0
 43 42  1  0  0  0  0
 44 43  1  0  0  0  0
 44 45  1  6  0  0  0
 16 46  2  0  0  0  0
 46 47  1  0  0  0  0
 47 48  2  0  0  0  0
 48 49  1  0  0  0  0
 49 50  2  0  0  0  0
 50 16  1  0  0  0  0
 28 51  1  1  0  0  0
 29 52  1  6  0  0  0
 27 53  1  6  0  0  0
 57 22  1  0  0  0  0
 30 54  1  0  0  0  0
 56 55  1  0  0  0  0
 56 61  1  0  0  0  0
 57 56  2  0  0  0  0
 58 57  1  0  0  0  0
 59 58  2  0  0  0  0
 60 59  1  0  0  0  0
 61 60  2  0  0  0  0
M  END
>  <cdx:fragmentId>
5

$$$$
