91292.cdx
  Mrv1902 05222410272D          

 33 34  0  0  0  0            999 V2000
    6.6531   -7.7951    0.0000 C   0  0  1  0  0  0  0  0  0  0  0  0
    6.6531   -8.6201    0.0000 C   0  0  2  0  0  0  0  0  0  0  0  0
    7.3675   -9.0326    0.0000 C   0  0  1  0  0  0  0  0  0  0  0  0
    8.0820   -8.6201    0.0000 O   0  0  0  0  0  0  0  0  0  0  0  0
    8.0820   -7.7951    0.0000 C   0  0  0  0  0  0  0  0  0  0  0  0
    7.3675   -7.3826    0.0000 C   0  0  0  0  0  0  0  0  0  0  0  0
    5.8684   -7.5402    0.0000 C   0  0  0  0  0  0  0  0  0  0  0  0
    5.3835   -8.2076    0.0000 C   0  0  1  0  0  0  0  0  0  0  0  0
    5.8684   -8.8751    0.0000 C   0  0  1  0  0  0  0  0  0  0  0  0
    4.5585   -8.2076    0.0000 O   0  0  0  0  0  0  0  0  0  0  0  0
    6.6531   -6.9701    0.0000 H   0  0  0  0  0  0  0  0  0  0  0  0
    6.6531   -9.4451    0.0000 H   0  0  0  0  0  0  0  0  0  0  0  0
    7.3675   -9.8576    0.0000 O   0  0  0  0  0  0  0  0  0  0  0  0
    5.8684   -9.7001    0.0000 O   0  0  0  0  0  0  0  0  0  0  0  0
    7.3675   -6.5576    0.0000 C   0  0  0  0  0  0  0  0  0  0  0  0
    8.0820   -6.1451    0.0000 O   0  0  0  0  0  0  0  0  0  0  0  0
    5.1540   -9.2876    0.0000 C   0  0  0  0  0  0  0  0  0  0  0  0
    4.3571   -9.0741    0.0000 Cl  0  0  0  0  0  0  0  0  0  0  0  0
    8.0820  -10.2701    0.0000 C   0  0  0  0  0  0  0  0  0  0  0  0
    8.0820  -11.0951    0.0000 C   0  0  0  0  0  0  0  0  0  0  0  0
    8.7965  -11.5076    0.0000 C   0  0  0  0  0  0  0  0  0  0  0  0
    8.7965  -12.3326    0.0000 C   0  0  0  0  0  0  0  0  0  0  0  0
    8.7965   -9.8576    0.0000 O   0  0  0  0  0  0  0  0  0  0  0  0
    9.5109  -11.0951    0.0000 C   0  0  0  0  0  0  0  0  0  0  0  0
    8.0574   -5.3205    0.0000 C   0  0  0  0  0  0  0  0  0  0  0  0
    8.7593   -4.8869    0.0000 C   0  0  0  0  0  0  0  0  0  0  0  0
    8.7348   -4.0623    0.0000 C   0  0  0  0  0  0  0  0  0  0  0  0
    9.4366   -3.6287    0.0000 C   0  0  0  0  0  0  0  0  0  0  0  0
    8.0083   -3.6712    0.0000 C   0  0  0  0  0  0  0  0  0  0  0  0
    7.3310   -4.9295    0.0000 O   0  0  0  0  0  0  0  0  0  0  0  0
    3.8400   -7.8023    0.0000 C   0  0  0  0  0  0  0  0  0  0  0  0
    3.1296   -8.2219    0.0000 C   0  0  0  0  0  0  0  0  0  0  0  0
    3.8318   -6.9773    0.0000 O   0  0  0  0  0  0  0  0  0  0  0  0
  1  2  1  0  0  0  0
  2  3  1  0  0  0  0
  3  4  1  0  0  0  0
  4  5  1  0  0  0  0
  5  6  2  0  0  0  0
  6  1  1  0  0  0  0
  1  7  1  0  0  0  0
  7  8  1  0  0  0  0
  8  9  1  0  0  0  0
  9  2  1  0  0  0  0
  8 10  1  1  0  0  0
  1 11  1  1  0  0  0
  2 12  1  1  0  0  0
  3 13  1  1  0  0  0
  9 14  1  6  0  0  0
  6 15  1  0  0  0  0
 15 16  1  0  0  0  0
  9 17  1  0  0  0  0
 17 18  1  0  0  0  0
 13 19  1  0  0  0  0
 19 20  1  0  0  0  0
 20 21  1  0  0  0  0
 21 22  1  0  0  0  0
 19 23  2  0  0  0  0
 21 24  1  0  0  0  0
 16 25  1  0  0  0  0
 25 26  1  0  0  0  0
 26 27  1  0  0  0  0
 27 28  1  0  0  0  0
 27 29  1  0  0  0  0
 25 30  2  0  0  0  0
 10 31  1  0  0  0  0
 31 32  1  0  0  0  0
 31 33  2  0  0  0  0
M  END
>  <cdx:fragmentId>
5

$$$$
