91297.cdx
  Mrv1902 05222410272D          

  9 11  0  0  0  0            999 V2000
    5.2399  -12.0116    0.0000 C   0  0  0  0  0  0  0  0  0  0  0  0
    6.5179  -11.6325    0.0000 C   0  0  0  0  0  0  0  0  0  0  0  0
    7.9334  -12.0391    0.0000 C   0  0  0  0  0  0  0  0  0  0  0  0
    8.3471  -11.3254    0.0000 C   0  0  0  0  0  0  0  0  0  0  0  0
    5.6536  -11.2979    0.0000 C   0  0  0  0  0  0  0  0  0  0  0  0
    6.9316  -10.9188    0.0000 C   0  0  0  0  0  0  0  0  0  0  0  0
    6.4231   -9.8751    0.0000 C   0  0  0  0  0  0  0  0  0  0  0  0
    4.7462  -11.7929    0.0000 C   0  0  0  0  0  0  0  0  0  0  0  0
    6.2161   -9.0765    0.0000 C   0  0  0  0  0  0  0  0  0  0  0  0
  1  2  1  0  0  0  0
  2  3  1  0  0  0  0
  3  4  1  0  0  0  0
  1  5  1  0  0  0  0
  5  6  1  0  0  0  0
  4  6  1  0  0  0  0
  6  7  1  0  0  0  0
  2  7  1  0  0  0  0
  5  8  1  0  0  0  0
  8  1  1  0  0  0  0
  7  9  2  0  0  0  0
M  END
>  <cdx:groupId>
799

>  <cdx:fragmentId>
800

$$$$
