913.cdx
  Mrv1902 05222410262D          

 11 11  0  0  0  0            999 V2000
    6.5649   -7.9824    0.0000 C   0  0  0  0  0  0  0  0  0  0  0  0
    7.2794   -8.3949    0.0000 C   0  0  0  0  0  0  0  0  0  0  0  0
    5.8505   -8.3949    0.0000 C   0  0  0  0  0  0  0  0  0  0  0  0
    5.8505   -9.2199    0.0000 C   0  0  0  0  0  0  0  0  0  0  0  0
    5.1360   -9.6324    0.0000 C   0  0  0  0  0  0  0  0  0  0  0  0
    4.4215   -9.2199    0.0000 C   0  0  0  0  0  0  0  0  0  0  0  0
    4.4215   -8.3949    0.0000 C   0  0  0  0  0  0  0  0  0  0  0  0
    5.1360   -7.9824    0.0000 C   0  0  0  0  0  0  0  0  0  0  0  0
    7.9939   -7.9824    0.0000 N   0  0  0  0  0  0  0  0  0  0  0  0
    8.7084   -8.3949    0.0000 C   0  0  0  0  0  0  0  0  0  0  0  0
    6.5649   -7.1574    0.0000 O   0  0  0  0  0  0  0  0  0  0  0  0
  1  2  1  0  0  0  0
  3  4  1  0  0  0  0
  4  5  2  0  0  0  0
  5  6  1  0  0  0  0
  6  7  2  0  0  0  0
  7  8  1  0  0  0  0
  3  8  2  0  0  0  0
  1  3  1  0  0  0  0
  9 10  1  0  0  0  0
  2  9  1  0  0  0  0
  1 11  1  0  0  0  0
M  END
>  <cdx:fragmentId>
9

$$$$
