91309.cdx
  Mrv1902 05222410272D          

 12 13  0  0  0  0            999 V2000
    5.1268  -10.7789    0.0000 C   0  0  0  0  0  0  0  0  0  0  0  0
    5.1268  -11.6039    0.0000 C   0  0  0  0  0  0  0  0  0  0  0  0
    5.8413  -12.0164    0.0000 C   0  0  0  0  0  0  0  0  0  0  0  0
    6.5557  -11.6039    0.0000 C   0  0  0  0  0  0  0  0  0  0  0  0
    6.5557  -10.7789    0.0000 C   0  0  0  0  0  0  0  0  0  0  0  0
    5.8413  -10.3664    0.0000 C   0  0  0  0  0  0  0  0  0  0  0  0
    7.2702  -12.0164    0.0000 C   0  0  0  0  0  0  0  0  0  0  0  0
    7.9847  -11.6039    0.0000 C   0  0  0  0  0  0  0  0  0  0  0  0
    7.9847  -10.7789    0.0000 C   0  0  0  0  0  0  0  0  0  0  0  0
    7.2702  -10.3664    0.0000 C   0  0  0  0  0  0  0  0  0  0  0  0
    5.8413   -9.5414    0.0000 C   0  0  0  0  0  0  0  0  0  0  0  0
    5.8413  -12.8414    0.0000 C   0  0  0  0  0  0  0  0  0  0  0  0
  1  2  1  0  0  0  0
  2  3  1  0  0  0  0
  3  4  1  0  0  0  0
  4  5  2  0  0  0  0
  5  6  1  0  0  0  0
  6  1  1  0  0  0  0
  4  7  1  0  0  0  0
  7  8  2  0  0  0  0
  8  9  1  0  0  0  0
  9 10  2  0  0  0  0
 10  5  1  0  0  0  0
  6 11  1  0  0  0  0
  3 12  1  0  0  0  0
M  END
>  <cdx:fragmentId>
5

$$$$
