91306.cdx
  Mrv1902 05222410202D          

 13 14  0  0  0  0            999 V2000
    4.4113   -7.6582    0.0000 C   0  0  0  0  0  0  0  0  0  0  0  0
    3.9988   -8.3726    0.0000 C   0  0  0  0  0  0  0  0  0  0  0  0
    4.4113   -9.0871    0.0000 C   0  0  0  0  0  0  0  0  0  0  0  0
    5.2363   -9.0871    0.0000 C   0  0  0  0  0  0  0  0  0  0  0  0
    5.6488   -8.3726    0.0000 C   0  0  0  0  0  0  0  0  0  0  0  0
    5.2363   -7.6582    0.0000 C   0  0  0  0  0  0  0  0  0  0  0  0
    6.4738   -8.3726    0.0000 C   0  0  0  0  0  0  0  0  0  0  0  0
    6.8863   -9.0871    0.0000 C   0  0  0  0  0  0  0  0  0  0  0  0
    7.7113   -9.0871    0.0000 C   0  0  0  0  0  0  0  0  0  0  0  0
    8.1238   -8.3726    0.0000 C   0  0  0  0  0  0  0  0  0  0  0  0
    7.7113   -7.6582    0.0000 C   0  0  0  0  0  0  0  0  0  0  0  0
    6.8863   -7.6582    0.0000 C   0  0  0  0  0  0  0  0  0  0  0  0
    6.4738   -9.8016    0.0000 C   0  0  0  0  0  0  0  0  0  0  0  0
  1  2  2  0  0  0  0
  2  3  1  0  0  0  0
  3  4  2  0  0  0  0
  4  5  1  0  0  0  0
  5  6  2  0  0  0  0
  6  1  1  0  0  0  0
  5  7  1  0  0  0  0
  7  8  2  0  0  0  0
  8  9  1  0  0  0  0
  9 10  2  0  0  0  0
 10 11  1  0  0  0  0
 11 12  2  0  0  0  0
 12  7  1  0  0  0  0
  8 13  1  0  0  0  0
M  END
>  <cdx:fragmentId>
5

$$$$
