91300.cdx
  Mrv1902 05222410192D          

 14 14  0  0  0  0            999 V2000
    6.3368   -8.8264    0.0000 C   0  0  0  0  0  0  0  0  0  0  0  0
    6.3368   -9.6514    0.0000 C   0  0  0  0  0  0  0  0  0  0  0  0
    7.0513  -10.0639    0.0000 C   0  0  0  0  0  0  0  0  0  0  0  0
    7.7657   -9.6514    0.0000 C   0  0  0  0  0  0  0  0  0  0  0  0
    7.7657   -8.8264    0.0000 C   0  0  0  0  0  0  0  0  0  0  0  0
    7.0513   -8.4139    0.0000 C   0  0  0  0  0  0  0  0  0  0  0  0
    5.6223   -8.4139    0.0000 C   0  0  0  0  0  0  0  0  0  0  0  0
    8.4802   -8.4139    0.0000 C   0  0  0  0  0  0  0  0  0  0  0  0
    7.0513  -10.8889    0.0000 C   0  0  0  0  0  0  0  0  0  0  0  0
    7.0513   -7.5889    0.0000 C   0  0  0  0  0  0  0  0  0  0  0  0
    7.7657   -7.1764    0.0000 O   0  0  0  0  0  0  0  0  0  0  0  0
    9.1947   -8.8264    0.0000 C   0  0  0  0  0  0  0  0  0  0  0  0
    6.3368  -11.3014    0.0000 C   0  0  0  0  0  0  0  0  0  0  0  0
    5.6223   -7.5889    0.0000 C   0  0  0  0  0  0  0  0  0  0  0  0
  1  2  1  0  0  0  0
  2  3  1  0  0  0  0
  3  4  1  0  0  0  0
  4  5  1  0  0  0  0
  5  6  1  0  0  0  0
  6  1  1  0  0  0  0
  1  7  1  0  0  0  0
  5  8  1  0  0  0  0
  3  9  1  0  0  0  0
  6 10  1  0  0  0  0
 10 11  1  0  0  0  0
  8 12  1  0  0  0  0
  9 13  1  0  0  0  0
  7 14  1  0  0  0  0
M  END
>  <cdx:fragmentId>
5

$$$$
