913110.cdx
  Mrv1902 05222410272D          

 19 18  0  0  0  0            999 V2000
    0.7700   -8.4700    0.0000 C   0  0  0  0  0  0  0  0  0  0  0  0
    1.5950   -8.4700    0.0000 C   0  0  0  0  0  0  0  0  0  0  0  0
    2.0075   -9.1845    0.0000 C   0  0  1  0  0  0  0  0  0  0  0  0
    1.5950   -9.8989    0.0000 O   0  0  0  0  0  0  0  0  0  0  0  0
    2.8325   -9.1845    0.0000 C   0  0  0  0  0  0  0  0  0  0  0  0
    3.6575   -9.1845    0.0000 C   0  0  0  0  0  0  0  0  0  0  0  0
    4.4825   -9.1845    0.0000 C   0  0  0  0  0  0  0  0  0  0  0  0
    5.3075   -9.1845    0.0000 C   0  0  0  0  0  0  0  0  0  0  0  0
    6.1325   -9.1845    0.0000 C   0  0  0  0  0  0  0  0  0  0  0  0
    6.8470   -9.5970    0.0000 C   0  0  0  0  0  0  0  0  0  0  0  0
    7.6720   -9.5970    0.0000 C   0  0  0  0  0  0  0  0  0  0  0  0
    8.3864   -9.1845    0.0000 C   0  0  0  0  0  0  0  0  0  0  0  0
    9.1009   -9.5970    0.0000 C   0  0  0  0  0  0  0  0  0  0  0  0
    9.8154   -9.1845    0.0000 C   0  0  0  0  0  0  0  0  0  0  0  0
   10.5299   -9.5970    0.0000 C   0  0  0  0  0  0  0  0  0  0  0  0
   11.2443   -9.1845    0.0000 C   0  0  0  0  0  0  0  0  0  0  0  0
   11.9588   -9.5970    0.0000 C   0  0  0  0  0  0  0  0  0  0  0  0
   12.6733   -9.1845    0.0000 C   0  0  0  0  0  0  0  0  0  0  0  0
   13.3877   -9.5970    0.0000 C   0  0  0  0  0  0  0  0  0  0  0  0
  1  2  2  0  0  0  0
  2  3  1  0  0  0  0
  3  4  1  6  0  0  0
  3  5  1  0  0  0  0
  5  6  3  0  0  0  0
  6  7  1  0  0  0  0
  7  8  3  0  0  0  0
  8  9  1  0  0  0  0
  9 10  1  0  0  0  0
 10 11  2  0  0  0  0
 11 12  1  0  0  0  0
 12 13  1  0  0  0  0
 13 14  1  0  0  0  0
 14 15  1  0  0  0  0
 15 16  1  0  0  0  0
 16 17  1  0  0  0  0
 17 18  1  0  0  0  0
 18 19  1  0  0  0  0
M  END
>  <cdx:fragmentId>
117

$$$$
