913113.cdx
  Mrv1902 05222410262D          

 20 19  0  0  0  0            999 V2000
    0.7700   -8.4700    0.0000 C   0  0  0  0  0  0  0  0  0  0  0  0
    1.5950   -8.4700    0.0000 C   0  0  0  0  0  0  0  0  0  0  0  0
    2.0075   -9.1845    0.0000 C   0  0  0  0  0  0  0  0  0  0  0  0
    1.5950   -9.8989    0.0000 O   0  0  0  0  0  0  0  0  0  0  0  0
    2.8325   -9.1845    0.0000 C   0  0  0  0  0  0  0  0  0  0  0  0
    3.6575   -9.1845    0.0000 C   0  0  0  0  0  0  0  0  0  0  0  0
    4.4825   -9.1845    0.0000 C   0  0  0  0  0  0  0  0  0  0  0  0
    5.3075   -9.1845    0.0000 C   0  0  0  0  0  0  0  0  0  0  0  0
    6.1325   -9.1845    0.0000 C   0  0  0  0  0  0  0  0  0  0  0  0
    8.4145   -9.2120    0.0000 C   0  0  0  0  0  0  0  0  0  0  0  0
    9.1289   -8.7995    0.0000 C   0  0  0  0  0  0  0  0  0  0  0  0
    9.8434   -9.2120    0.0000 C   0  0  0  0  0  0  0  0  0  0  0  0
   10.5579   -8.7995    0.0000 C   0  0  0  0  0  0  0  0  0  0  0  0
   11.2724   -9.2120    0.0000 C   0  0  0  0  0  0  0  0  0  0  0  0
   11.9868   -8.7995    0.0000 C   0  0  0  0  0  0  0  0  0  0  0  0
   12.7013   -9.2120    0.0000 C   0  0  0  0  0  0  0  0  0  0  0  0
   13.4158   -8.7995    0.0000 C   0  0  0  0  0  0  0  0  0  0  0  0
    6.8470   -8.7720    0.0000 C   0  0  0  0  0  0  0  0  0  0  0  0
    7.6720   -8.7720    0.0000 C   0  0  0  0  0  0  0  0  0  0  0  0
    8.0845   -8.0575    0.0000 O   0  0  0  0  0  0  0  0  0  0  0  0
  1  2  2  0  0  0  0
  2  3  1  0  0  0  0
  3  4  1  0  0  0  0
  3  5  1  0  0  0  0
  5  6  3  0  0  0  0
  6  7  1  0  0  0  0
  7  8  3  0  0  0  0
  8  9  1  0  0  0  0
 10 11  1  0  0  0  0
 11 12  1  0  0  0  0
 12 13  1  0  0  0  0
 13 14  1  0  0  0  0
 14 15  1  0  0  0  0
 15 16  1  0  0  0  0
 16 17  1  0  0  0  0
  9 18  2  0  0  0  0
 18 19  1  0  0  0  0
 19 10  1  0  0  0  0
 19 20  1  0  0  0  0
M  END
>  <cdx:fragmentId>
117

$$$$
