91317.cdx
  Mrv1902 05222410182D          

 24 26  0  0  0  0            999 V2000
    4.5218   -9.0326    0.0000 C   0  0  0  0  0  0  0  0  0  0  0  0
    4.5218   -9.8576    0.0000 C   0  0  2  0  0  0  0  0  0  0  0  0
    5.2363  -10.2701    0.0000 C   0  0  1  0  0  0  0  0  0  0  0  0
    5.9507   -9.8576    0.0000 C   0  0  1  0  0  0  0  0  0  0  0  0
    5.9507   -9.0326    0.0000 C   0  0  2  0  0  0  0  0  0  0  0  0
    5.2363   -8.6201    0.0000 C   0  0  0  0  0  0  0  0  0  0  0  0
    6.6652  -10.2701    0.0000 C   0  0  0  0  0  0  0  0  0  0  0  0
    7.3797   -9.8576    0.0000 C   0  0  0  0  0  0  0  0  0  0  0  0
    7.3797   -9.0326    0.0000 C   0  0  0  0  0  0  0  0  0  0  0  0
    6.6652   -8.6201    0.0000 C   0  0  0  0  0  0  0  0  0  0  0  0
    8.0942   -8.6201    0.0000 C   0  0  0  0  0  0  0  0  0  0  0  0
    7.3797   -7.3826    0.0000 C   0  0  0  0  0  0  0  0  0  0  0  0
    6.6652   -7.7951    0.0000 C   0  0  0  0  0  0  0  0  0  0  0  0
    8.3706   -8.5724    0.0000 C   0  0  0  0  0  0  0  0  0  0  0  0
    9.1953   -8.5497    0.0000 C   0  0  0  0  0  0  0  0  0  0  0  0
    9.4285   -7.7583    0.0000 O   0  0  0  0  0  0  0  0  0  0  0  0
    8.7480   -7.2920    0.0000 C   0  0  0  0  0  0  0  0  0  0  0  0
    8.0942   -7.7951    0.0000 C   0  0  0  0  0  0  0  0  0  0  0  0
    8.0942  -10.2701    0.0000 O   0  0  0  0  0  0  0  0  0  0  0  0
    4.8238  -10.9846    0.0000 C   0  0  0  0  0  0  0  0  0  0  0  0
    5.9507   -8.2076    0.0000 C   0  0  0  0  0  0  0  0  0  0  0  0
    3.7178  -10.3218    0.0000 O   0  0  0  0  0  0  0  0  0  0  0  0
    5.6488  -10.9846    0.0000 C   0  0  0  0  0  0  0  0  0  0  0  0
    5.9507  -10.6826    0.0000 H   0  0  0  0  0  0  0  0  0  0  0  0
  1  2  1  0  0  0  0
  2  3  1  0  0  0  0
  3  4  1  0  0  0  0
  4  5  1  0  0  0  0
  5  6  1  0  0  0  0
  6  1  1  0  0  0  0
  4  7  1  0  0  0  0
  7  8  1  0  0  0  0
  8  9  1  0  0  0  0
  9 10  2  0  0  0  0
 10  5  1  0  0  0  0
 14 18  1  0  0  0  0
  9 11  1  0  0  0  0
 18 12  1  0  0  0  0
 12 13  1  0  0  0  0
 13 10  1  0  0  0  0
 15 14  2  0  0  0  0
 16 15  1  0  0  0  0
 17 16  1  0  0  0  0
 18 17  2  0  0  0  0
  8 19  2  0  0  0  0
  3 20  1  1  0  0  0
  5 21  1  1  0  0  0
  2 22  1  6  0  0  0
  3 23  1  6  0  0  0
  4 24  1  6  0  0  0
M  END
>  <cdx:fragmentId>
5

$$$$
