91312.cdx
  Mrv1902 05222410202D          

 17 18  0  0  0  0            999 V2000
    5.1956   -9.3351    0.0000 C   0  0  0  0  0  0  0  0  0  0  0  0
    5.1956  -10.1601    0.0000 C   0  0  0  0  0  0  0  0  0  0  0  0
    5.9100  -10.5726    0.0000 C   0  0  0  0  0  0  0  0  0  0  0  0
    6.6245  -10.1601    0.0000 C   0  0  0  0  0  0  0  0  0  0  0  0
    6.6245   -9.3351    0.0000 C   0  0  0  0  0  0  0  0  0  0  0  0
    5.9100   -8.9226    0.0000 C   0  0  0  0  0  0  0  0  0  0  0  0
    7.3390  -10.5726    0.0000 C   0  0  0  0  0  0  0  0  0  0  0  0
    8.0534  -10.1601    0.0000 C   0  0  0  0  0  0  0  0  0  0  0  0
    8.0534   -9.3351    0.0000 C   0  0  0  0  0  0  0  0  0  0  0  0
    7.3390   -8.9226    0.0000 C   0  0  0  0  0  0  0  0  0  0  0  0
    7.3390   -8.0976    0.0000 O   0  0  0  0  0  0  0  0  0  0  0  0
    6.6245   -8.5101    0.0000 C   0  0  0  0  0  0  0  0  0  0  0  0
    6.6245  -10.9851    0.0000 C   0  0  0  0  0  0  0  0  0  0  0  0
    4.4811   -8.9226    0.0000 C   0  0  0  0  0  0  0  0  0  0  0  0
    3.7666   -9.3351    0.0000 C   0  0  0  0  0  0  0  0  0  0  0  0
    4.4811   -8.0976    0.0000 C   0  0  0  0  0  0  0  0  0  0  0  0
    3.7666   -7.6851    0.0000 C   0  0  0  0  0  0  0  0  0  0  0  0
  1  2  1  0  0  0  0
  2  3  1  0  0  0  0
  3  4  1  0  0  0  0
  4  5  1  0  0  0  0
  5  6  1  0  0  0  0
  6  1  1  0  0  0  0
  4  7  1  0  0  0  0
  7  8  1  0  0  0  0
  8  9  1  0  0  0  0
  9 10  1  0  0  0  0
 10  5  1  0  0  0  0
 10 11  2  0  0  0  0
  5 12  1  0  0  0  0
  4 13  1  0  0  0  0
  1 14  1  0  0  0  0
 14 15  1  0  0  0  0
 14 16  1  0  0  0  0
 16 17  1  0  0  0  0
M  END
>  <cdx:fragmentId>
5

$$$$
