91311.cdx
  Mrv1902 05222410202D          

 18 17  0  0  0  0            999 V2000
    6.2329   -9.5625    0.0000 C   0  0  0  0  0  0  0  0  0  0  0  0
    5.5168   -9.9720    0.0000 C   0  0  0  0  0  0  0  0  0  0  0  0
    4.8006  -10.3815    0.0000 C   0  0  0  0  0  0  0  0  0  0  0  0
    4.0844  -10.7911    0.0000 C   0  0  0  0  0  0  0  0  0  0  0  0
    3.3682  -11.2006    0.0000 C   0  0  0  0  0  0  0  0  0  0  0  0
    1.9393  -11.1947    0.0000 O   0  0  0  0  0  0  0  0  0  0  0  0
    2.6521  -11.6101    0.0000 C   0  0  2  0  0  0  0  0  0  0  0  0
    2.6486  -12.4351    0.0000 C   0  0  0  0  0  0  0  0  0  0  0  0
    3.3631  -12.8476    0.0000 C   0  0  0  0  0  0  0  0  0  0  0  0
    6.2364   -8.7375    0.0000 C   0  0  0  0  0  0  0  0  0  0  0  0
    6.9525   -8.3280    0.0000 C   0  0  0  0  0  0  0  0  0  0  0  0
    7.6653   -8.7434    0.0000 C   0  0  0  0  0  0  0  0  0  0  0  0
    8.3815   -8.3339    0.0000 C   0  0  0  0  0  0  0  0  0  0  0  0
    9.0942   -8.7493    0.0000 C   0  0  0  0  0  0  0  0  0  0  0  0
    9.8104   -8.3398    0.0000 C   0  0  0  0  0  0  0  0  0  0  0  0
   10.5232   -8.7553    0.0000 C   0  0  0  0  0  0  0  0  0  0  0  0
   11.2393   -8.3457    0.0000 C   0  0  0  0  0  0  0  0  0  0  0  0
   11.9521   -8.7612    0.0000 C   0  0  0  0  0  0  0  0  0  0  0  0
  2  1  1  0  0  0  0
  3  2  3  0  0  0  0
  4  3  1  0  0  0  0
  5  4  3  0  0  0  0
  7  5  1  0  0  0  0
  7  6  1  1  0  0  0
  8  7  1  0  0  0  0
  9  8  2  0  0  0  0
  1 10  1  0  0  0  0
 10 11  2  0  0  0  0
 11 12  1  0  0  0  0
 12 13  1  0  0  0  0
 13 14  1  0  0  0  0
 14 15  1  0  0  0  0
 15 16  1  0  0  0  0
 16 17  1  0  0  0  0
 17 18  1  0  0  0  0
M  END
>  <cdx:fragmentId>
122

$$$$
