91318.cdx
  Mrv1902 05222410272D          

 26 28  0  0  0  0            999 V2000
    4.5768   -9.8439    0.0000 C   0  0  0  0  0  0  0  0  0  0  0  0
    4.5768  -10.6689    0.0000 C   0  0  0  0  0  0  0  0  0  0  0  0
    5.2913  -11.0814    0.0000 C   0  0  1  0  0  0  0  0  0  0  0  0
    6.0057  -10.6689    0.0000 C   0  0  1  0  0  0  0  0  0  0  0  0
    6.0057   -9.8439    0.0000 C   0  0  2  0  0  0  0  0  0  0  0  0
    5.2913   -9.4314    0.0000 C   0  0  0  0  0  0  0  0  0  0  0  0
    6.7202  -11.0814    0.0000 C   0  0  1  0  0  0  0  0  0  0  0  0
    7.4347  -10.6689    0.0000 C   0  0  0  0  0  0  0  0  0  0  0  0
    7.4347   -9.8439    0.0000 C   0  0  2  0  0  0  0  0  0  0  0  0
    6.7202   -9.4314    0.0000 C   0  0  2  0  0  0  0  0  0  0  0  0
    8.1492   -9.4314    0.0000 C   0  0  0  0  0  0  0  0  0  0  0  0
    7.4347   -8.1939    0.0000 C   0  0  0  0  0  0  0  0  0  0  0  0
    6.7202   -8.6064    0.0000 C   0  0  0  0  0  0  0  0  0  0  0  0
    8.4232   -9.3846    0.0000 C   0  0  0  0  0  0  0  0  0  0  0  0
    9.2479   -9.3645    0.0000 C   0  0  0  0  0  0  0  0  0  0  0  0
    9.4836   -8.5739    0.0000 O   0  0  0  0  0  0  0  0  0  0  0  0
    8.8046   -8.1053    0.0000 C   0  0  0  0  0  0  0  0  0  0  0  0
    8.1492   -8.6064    0.0000 C   0  0  0  0  0  0  0  0  0  0  0  0
    4.8788  -11.7959    0.0000 C   0  0  0  0  0  0  0  0  0  0  0  0
    6.0057   -9.0189    0.0000 C   0  0  0  0  0  0  0  0  0  0  0  0
    6.7202  -11.9064    0.0000 O   0  0  0  0  0  0  0  0  0  0  0  0
    5.7038  -11.7959    0.0000 C   0  0  0  0  0  0  0  0  0  0  0  0
    6.0057  -11.4939    0.0000 H   0  0  0  0  0  0  0  0  0  0  0  0
    7.3609   -8.7907    0.0000 O   0  0  0  0  0  0  0  0  0  0  0  0
    8.1492  -11.0814    0.0000 O   0  0  0  0  0  0  0  0  0  0  0  0
    3.8623  -11.0814    0.0000 O   0  0  0  0  0  0  0  0  0  0  0  0
  1  2  1  0  0  0  0
  2  3  1  0  0  0  0
  3  4  1  0  0  0  0
  4  5  1  0  0  0  0
  5  6  1  0  0  0  0
  6  1  1  0  0  0  0
  4  7  1  0  0  0  0
  7  8  1  0  0  0  0
  8  9  1  0  0  0  0
  9 10  1  0  0  0  0
 10  5  1  0  0  0  0
 14 18  1  0  0  0  0
  9 11  1  6  0  0  0
 18 12  1  0  0  0  0
 12 13  1  0  0  0  0
 10 13  1  1  0  0  0
 15 14  2  0  0  0  0
 16 15  1  0  0  0  0
 17 16  1  0  0  0  0
 18 17  2  0  0  0  0
  3 19  1  1  0  0  0
  5 20  1  1  0  0  0
  7 21  1  1  0  0  0
  3 22  1  6  0  0  0
  4 23  1  6  0  0  0
 10 24  1  6  0  0  0
  8 25  2  0  0  0  0
  2 26  2  0  0  0  0
M  END
>  <cdx:fragmentId>
5

$$$$
