91310.cdx
  Mrv1902 05222410192D          

 20 19  0  0  0  0            999 V2000
    4.1775   -9.8851    0.0000 C   0  0  0  0  0  0  0  0  0  0  0  0
    4.8920   -9.4726    0.0000 S   0  0  0  0  0  0  0  0  0  0  0  0
    5.6065   -9.8851    0.0000 C   0  0  0  0  0  0  0  0  0  0  0  0
    6.3209   -9.4726    0.0000 C   0  0  0  0  0  0  0  0  0  0  0  0
    7.0354   -9.8851    0.0000 C   0  0  0  0  0  0  0  0  0  0  0  0
    7.7499   -9.4726    0.0000 C   0  0  0  0  0  0  0  0  0  0  0  0
    8.4644   -9.8851    0.0000 C   0  0  0  0  0  0  0  0  0  0  0  0
    9.1788   -9.4726    0.0000 N   0  0  0  0  0  0  0  0  0  0  0  0
    9.8933   -9.8851    0.0000 S   0  0  0  0  0  0  0  0  0  0  0  0
    4.8920   -8.6476    0.0000 O   0  0  0  0  0  0  0  0  0  0  0  0
    8.4644  -10.7101    0.0000 C   0  0  0  0  0  0  0  0  0  0  0  0
    7.7499  -11.1226    0.0000 C   0  0  0  0  0  0  0  0  0  0  0  0
    7.0354  -10.7101    0.0000 C   0  0  0  0  0  0  0  0  0  0  0  0
    6.3209  -11.1226    0.0000 C   0  0  0  0  0  0  0  0  0  0  0  0
    5.6065  -10.7101    0.0000 S   0  0  0  0  0  0  0  0  0  0  0  0
    4.8920  -11.1226    0.0000 C   0  0  0  0  0  0  0  0  0  0  0  0
    5.6065  -11.5351    0.0000 O   0  0  0  0  0  0  0  0  0  0  0  0
   10.4767  -10.4685    0.0000 O   0  0  0  0  0  0  0  0  0  0  0  0
    9.3099  -10.4685    0.0000 O   0  0  0  0  0  0  0  0  0  0  0  0
   10.4767   -9.3018    0.0000 O   0  0  0  0  0  0  0  0  0  0  0  0
  1  2  1  0  0  0  0
  2  3  1  0  0  0  0
  3  4  2  0  0  0  0
  4  5  1  0  0  0  0
  5  6  1  0  0  0  0
  6  7  1  0  0  0  0
  7  8  2  0  0  0  0
  8  9  1  0  0  0  0
  2 10  2  0  0  0  0
  7 11  1  0  0  0  0
 11 12  1  0  0  0  0
 12 13  1  0  0  0  0
 13 14  2  0  0  0  0
 14 15  1  0  0  0  0
 15 16  1  0  0  0  0
 15 17  2  0  0  0  0
  9 18  1  0  0  0  0
  9 19  2  0  0  0  0
  9 20  2  0  0  0  0
M  END
>  <cdx:fragmentId>
3

$$$$
