91321.cdx
  Mrv1902 05222410272D          

 21 20  0  0  0  0            999 V2000
   13.6280   -9.3214    0.0000 C   0  0  0  0  0  0  0  0  0  0  0  0
   12.9135   -9.7339    0.0000 C   0  0  0  0  0  0  0  0  0  0  0  0
   12.1991   -9.3214    0.0000 C   0  0  0  0  0  0  0  0  0  0  0  0
   11.4846   -9.7339    0.0000 C   0  0  0  0  0  0  0  0  0  0  0  0
   10.7701   -9.3214    0.0000 C   0  0  0  0  0  0  0  0  0  0  0  0
   10.0556   -9.7339    0.0000 C   0  0  0  0  0  0  0  0  0  0  0  0
    9.3412   -9.3214    0.0000 C   0  0  0  0  0  0  0  0  0  0  0  0
    8.6267   -9.7339    0.0000 C   0  0  0  0  0  0  0  0  0  0  0  0
    7.9122   -9.3214    0.0000 C   0  0  0  0  0  0  0  0  0  0  0  0
    7.1978   -9.7339    0.0000 C   0  0  0  0  0  0  0  0  0  0  0  0
    6.4833   -9.3214    0.0000 C   0  0  0  0  0  0  0  0  0  0  0  0
    5.7688   -9.7339    0.0000 C   0  0  0  0  0  0  0  0  0  0  0  0
    5.0544   -9.3214    0.0000 C   0  0  0  0  0  0  0  0  0  0  0  0
    4.3399   -9.7339    0.0000 C   0  0  0  0  0  0  0  0  0  0  0  0
    3.6254   -9.3214    0.0000 C   0  0  0  0  0  0  0  0  0  0  0  0
    2.9109   -9.7339    0.0000 C   0  0  0  0  0  0  0  0  0  0  0  0
    2.1965   -9.3214    0.0000 O   0  0  0  0  0  0  0  0  0  0  0  0
    1.4820   -9.7339    0.0000 C   0  0  0  0  0  0  0  0  0  0  0  0
    0.7675   -9.3214    0.0000 C   0  0  0  0  0  0  0  0  0  0  0  0
    2.9109  -10.5589    0.0000 O   0  0  0  0  0  0  0  0  0  0  0  0
   12.1991   -8.4964    0.0000 C   0  0  0  0  0  0  0  0  0  0  0  0
  2  1  1  0  0  0  0
  3  2  1  0  0  0  0
  4  3  1  0  0  0  0
  5  4  1  0  0  0  0
  6  5  1  0  0  0  0
  7  6  1  0  0  0  0
  8  7  1  0  0  0  0
  9  8  1  0  0  0  0
 10  9  1  0  0  0  0
 11 10  1  0  0  0  0
 12 11  1  0  0  0  0
 13 12  1  0  0  0  0
 14 13  1  0  0  0  0
 15 14  1  0  0  0  0
 16 15  1  0  0  0  0
 17 16  1  0  0  0  0
 18 17  1  0  0  0  0
 19 18  1  0  0  0  0
 16 20  2  0  0  0  0
  3 21  1  0  0  0  0
M  END
>  <cdx:fragmentId>
3

$$$$
