91325.cdx
  Mrv1902 05222410272D          

 21 22  0  0  0  0            999 V2000
    5.0168  -10.3664    0.0000 C   0  0  0  0  0  0  0  0  0  0  0  0
    5.0168  -11.1914    0.0000 C   0  0  0  0  0  0  0  0  0  0  0  0
    5.7313  -11.6039    0.0000 C   0  0  1  0  0  0  0  0  0  0  0  0
    6.4457  -11.1914    0.0000 C   0  0  0  0  0  0  0  0  0  0  0  0
    6.4457  -10.3664    0.0000 C   0  0  2  0  0  0  0  0  0  0  0  0
    5.7313   -9.9539    0.0000 C   0  0  0  0  0  0  0  0  0  0  0  0
    7.1602  -11.6039    0.0000 C   0  0  0  0  0  0  0  0  0  0  0  0
    7.8747  -11.1914    0.0000 C   0  0  0  0  0  0  0  0  0  0  0  0
    7.8747  -10.3664    0.0000 C   0  0  0  0  0  0  0  0  0  0  0  0
    7.1602   -9.9539    0.0000 C   0  0  2  0  0  0  0  0  0  0  0  0
    8.5892   -9.9539    0.0000 C   0  0  0  0  0  0  0  0  0  0  0  0
    7.8747   -8.7164    0.0000 C   0  0  0  0  0  0  0  0  0  0  0  0
    7.1602   -9.1289    0.0000 C   0  0  0  0  0  0  0  0  0  0  0  0
    5.3188  -12.3184    0.0000 C   0  0  0  0  0  0  0  0  0  0  0  0
    6.4457   -9.5414    0.0000 C   0  0  0  0  0  0  0  0  0  0  0  0
    6.1438  -12.3184    0.0000 C   0  0  0  0  0  0  0  0  0  0  0  0
    8.5892   -7.4789    0.0000 C   0  0  0  0  0  0  0  0  0  0  0  0
    7.1602   -7.4789    0.0000 O   0  0  0  0  0  0  0  0  0  0  0  0
    7.8747   -7.8914    0.0000 C   0  0  0  0  0  0  0  0  0  0  0  0
    5.7313  -13.0328    0.0000 O   0  0  0  0  0  0  0  0  0  0  0  0
    4.4938  -12.3184    0.0000 O   0  0  0  0  0  0  0  0  0  0  0  0
  1  2  1  0  0  0  0
  2  3  1  0  0  0  0
  3  4  1  0  0  0  0
  4  5  1  0  0  0  0
  5  6  1  0  0  0  0
  6  1  1  0  0  0  0
  4  7  1  0  0  0  0
  7  8  1  0  0  0  0
  8  9  1  0  0  0  0
  9 10  1  0  0  0  0
 10  5  1  0  0  0  0
  9 11  2  0  0  0  0
 12 13  1  0  0  0  0
 10 13  1  1  0  0  0
  3 14  1  1  0  0  0
  5 15  1  1  0  0  0
  3 16  1  6  0  0  0
 19 17  1  0  0  0  0
 12 19  1  0  0  0  0
 19 18  2  0  0  0  0
 14 20  1  0  0  0  0
 14 21  2  0  0  0  0
M  END
>  <cdx:fragmentId>
5

$$$$
