91328.cdx
  Mrv1902 05222410192D          

 34 38  0  0  0  0            999 V2000
    3.7518   -8.4551    0.0000 C   0  0  0  0  0  0  0  0  0  0  0  0
    3.7518   -9.2801    0.0000 C   0  0  0  0  0  0  0  0  0  0  0  0
    4.4663   -9.6926    0.0000 C   0  0  0  0  0  0  0  0  0  0  0  0
    5.1807   -9.2801    0.0000 C   0  0  1  0  0  0  0  0  0  0  0  0
    5.1807   -8.4551    0.0000 C   0  0  2  0  0  0  0  0  0  0  0  0
    4.4663   -8.0426    0.0000 C   0  0  0  0  0  0  0  0  0  0  0  0
    5.8952   -9.6926    0.0000 C   0  0  0  0  0  0  0  0  0  0  0  0
    6.6097   -9.2801    0.0000 C   0  0  0  0  0  0  0  0  0  0  0  0
    6.6097   -8.4551    0.0000 C   0  0  2  0  0  0  0  0  0  0  0  0
    5.8952   -8.0426    0.0000 C   0  0  2  0  0  0  0  0  0  0  0  0
    7.3242   -8.0426    0.0000 C   0  0  1  0  0  0  0  0  0  0  0  0
    7.3242   -7.2176    0.0000 C   0  0  2  0  0  0  0  0  0  0  0  0
    6.6097   -6.8051    0.0000 C   0  0  0  0  0  0  0  0  0  0  0  0
    5.8952   -7.2176    0.0000 C   0  0  0  0  0  0  0  0  0  0  0  0
    8.0386   -8.4551    0.0000 C   0  0  0  0  0  0  0  0  0  0  0  0
    8.7531   -8.0426    0.0000 C   0  0  0  0  0  0  0  0  0  0  0  0
    8.7531   -7.2176    0.0000 C   0  0  1  0  0  0  0  0  0  0  0  0
    8.0386   -6.8051    0.0000 C   0  0  2  0  0  0  0  0  0  0  0  0
    9.3662   -6.6656    0.0000 C   0  0  2  0  0  0  0  0  0  0  0  0
    9.0306   -5.9119    0.0000 C   0  0  0  0  0  0  0  0  0  0  0  0
    8.2102   -5.9982    0.0000 C   0  0  0  0  0  0  0  0  0  0  0  0
   10.1732   -6.8371    0.0000 C   0  0  0  0  0  0  0  0  0  0  0  0
    9.5068   -7.5532    0.0000 H   0  0  0  0  0  0  0  0  0  0  0  0
    8.0386   -7.6301    0.0000 C   0  0  0  0  0  0  0  0  0  0  0  0
    7.3242   -8.8676    0.0000 C   0  0  0  0  0  0  0  0  0  0  0  0
    5.8952   -8.8676    0.0000 H   0  0  0  0  0  0  0  0  0  0  0  0
    5.1807  -10.1051    0.0000 H   0  0  0  0  0  0  0  0  0  0  0  0
    5.1807   -7.6301    0.0000 C   0  0  0  0  0  0  0  0  0  0  0  0
    6.6097   -7.6301    0.0000 C   0  0  0  0  0  0  0  0  0  0  0  0
    7.3242   -6.3926    0.0000 H   0  0  0  0  0  0  0  0  0  0  0  0
   10.7252   -6.2240    0.0000 C   0  0  0  0  0  0  0  0  0  0  0  0
   10.4281   -7.6218    0.0000 C   0  0  0  0  0  0  0  0  0  0  0  0
    4.0538  -10.4071    0.0000 C   0  0  0  0  0  0  0  0  0  0  0  0
    4.8788  -10.4071    0.0000 C   0  0  0  0  0  0  0  0  0  0  0  0
  1  2  1  0  0  0  0
  2  3  1  0  0  0  0
  3  4  1  0  0  0  0
  4  5  1  0  0  0  0
  5  6  1  0  0  0  0
  6  1  1  0  0  0  0
  4  7  1  0  0  0  0
  7  8  1  0  0  0  0
  8  9  1  0  0  0  0
  9 10  1  0  0  0  0
 10  5  1  0  0  0  0
  9 11  1  0  0  0  0
 11 12  1  0  0  0  0
 12 13  1  0  0  0  0
 13 14  1  0  0  0  0
 14 10  1  0  0  0  0
 11 15  1  0  0  0  0
 15 16  1  0  0  0  0
 16 17  1  0  0  0  0
 17 18  1  0  0  0  0
 18 12  1  0  0  0  0
 17 19  1  0  0  0  0
 19 20  1  0  0  0  0
 20 21  1  0  0  0  0
 21 18  1  0  0  0  0
 19 22  1  6  0  0  0
 17 23  1  6  0  0  0
 18 24  1  6  0  0  0
 11 25  1  6  0  0  0
 10 26  1  6  0  0  0
  4 27  1  6  0  0  0
  5 28  1  1  0  0  0
  9 29  1  1  0  0  0
 12 30  1  1  0  0  0
 22 31  1  0  0  0  0
 22 32  1  0  0  0  0
  3 33  1  0  0  0  0
  3 34  1  0  0  0  0
M  END
>  <cdx:fragmentId>
5

$$$$
