91329.cdx
  Mrv1902 05222410182D          

 33 37  0  0  0  0            999 V2000
    4.4806  -10.3251    0.0000 C   0  0  0  0  0  0  0  0  0  0  0  0
    4.4806  -11.1501    0.0000 C   0  0  0  0  0  0  0  0  0  0  0  0
    5.1950  -11.5626    0.0000 C   0  0  0  0  0  0  0  0  0  0  0  0
    5.9095  -11.1501    0.0000 C   0  0  1  0  0  0  0  0  0  0  0  0
    5.9095  -10.3251    0.0000 C   0  0  2  0  0  0  0  0  0  0  0  0
    5.1950   -9.9126    0.0000 C   0  0  0  0  0  0  0  0  0  0  0  0
    6.6240  -11.5626    0.0000 C   0  0  0  0  0  0  0  0  0  0  0  0
    7.3384  -11.1501    0.0000 C   0  0  0  0  0  0  0  0  0  0  0  0
    7.3384  -10.3251    0.0000 C   0  0  2  0  0  0  0  0  0  0  0  0
    6.6240   -9.9126    0.0000 C   0  0  2  0  0  0  0  0  0  0  0  0
    8.0529   -9.9126    0.0000 C   0  0  1  0  0  0  0  0  0  0  0  0
    8.0529   -9.0876    0.0000 C   0  0  2  0  0  0  0  0  0  0  0  0
    7.3384   -8.6751    0.0000 C   0  0  0  0  0  0  0  0  0  0  0  0
    6.6240   -9.0876    0.0000 C   0  0  0  0  0  0  0  0  0  0  0  0
    8.7674  -10.3251    0.0000 C   0  0  0  0  0  0  0  0  0  0  0  0
    9.4819   -9.9126    0.0000 C   0  0  0  0  0  0  0  0  0  0  0  0
    9.4819   -9.0876    0.0000 C   0  0  2  0  0  0  0  0  0  0  0  0
    8.7674   -8.6751    0.0000 C   0  0  2  0  0  0  0  0  0  0  0  0
   10.0949   -8.5356    0.0000 C   0  0  1  0  0  0  0  0  0  0  0  0
    9.7594   -7.7819    0.0000 C   0  0  0  0  0  0  0  0  0  0  0  0
    8.9389   -7.8682    0.0000 C   0  0  0  0  0  0  0  0  0  0  0  0
    4.7825  -12.2771    0.0000 C   0  0  0  0  0  0  0  0  0  0  0  0
    5.6075  -12.2771    0.0000 C   0  0  0  0  0  0  0  0  0  0  0  0
   10.9019   -8.7071    0.0000 C   0  0  0  0  0  0  0  0  0  0  0  0
   11.4539   -8.0940    0.0000 C   0  0  0  0  0  0  0  0  0  0  0  0
   10.2355   -9.4232    0.0000 H   0  0  0  0  0  0  0  0  0  0  0  0
    8.0529   -8.2626    0.0000 H   0  0  0  0  0  0  0  0  0  0  0  0
    7.3384   -9.5001    0.0000 C   0  0  0  0  0  0  0  0  0  0  0  0
    5.9095   -9.5001    0.0000 C   0  0  0  0  0  0  0  0  0  0  0  0
    5.9095  -11.9751    0.0000 H   0  0  0  0  0  0  0  0  0  0  0  0
    6.6240  -10.7376    0.0000 H   0  0  0  0  0  0  0  0  0  0  0  0
    8.0529  -10.7376    0.0000 C   0  0  0  0  0  0  0  0  0  0  0  0
    8.7674   -9.5001    0.0000 C   0  0  0  0  0  0  0  0  0  0  0  0
  1  2  1  0  0  0  0
  2  3  1  0  0  0  0
  3  4  1  0  0  0  0
  4  5  1  0  0  0  0
  5  6  1  0  0  0  0
  6  1  1  0  0  0  0
  4  7  1  0  0  0  0
  7  8  1  0  0  0  0
  8  9  1  0  0  0  0
  9 10  1  0  0  0  0
 10  5  1  0  0  0  0
  9 11  1  0  0  0  0
 11 12  1  0  0  0  0
 12 13  1  0  0  0  0
 13 14  1  0  0  0  0
 14 10  1  0  0  0  0
 11 15  1  0  0  0  0
 15 16  1  0  0  0  0
 16 17  1  0  0  0  0
 17 18  1  0  0  0  0
 18 12  1  0  0  0  0
 17 19  1  0  0  0  0
 19 20  1  0  0  0  0
 20 21  1  0  0  0  0
 21 18  1  0  0  0  0
  3 22  1  0  0  0  0
  3 23  1  0  0  0  0
 19 24  1  1  0  0  0
 24 25  1  0  0  0  0
 17 26  1  1  0  0  0
 12 27  1  1  0  0  0
  9 28  1  1  0  0  0
  5 29  1  1  0  0  0
  4 30  1  6  0  0  0
 10 31  1  6  0  0  0
 11 32  1  6  0  0  0
 18 33  1  6  0  0  0
M  END
>  <cdx:fragmentId>
5

$$$$
