91324.cdx
  Mrv1902 05222410272D          

 22 24  0  0  0  0            999 V2000
    4.5356   -9.6789    0.0000 C   0  0  0  0  0  0  0  0  0  0  0  0
    4.5356  -10.5039    0.0000 C   0  0  1  0  0  0  0  0  0  0  0  0
    5.2500  -10.9164    0.0000 C   0  0  1  0  0  0  0  0  0  0  0  0
    5.9645  -10.5039    0.0000 C   0  0  0  0  0  0  0  0  0  0  0  0
    5.9645   -9.6789    0.0000 C   0  0  2  0  0  0  0  0  0  0  0  0
    5.2500   -9.2664    0.0000 C   0  0  0  0  0  0  0  0  0  0  0  0
    6.6790  -10.9164    0.0000 C   0  0  0  0  0  0  0  0  0  0  0  0
    7.3934  -10.5039    0.0000 C   0  0  0  0  0  0  0  0  0  0  0  0
    7.3934   -9.6789    0.0000 C   0  0  2  0  0  0  0  0  0  0  0  0
    6.6790   -9.2664    0.0000 C   0  0  0  0  0  0  0  0  0  0  0  0
    8.1079   -9.2664    0.0000 C   0  0  0  0  0  0  0  0  0  0  0  0
    8.1079   -8.4414    0.0000 C   0  0  1  0  0  0  0  0  0  0  0  0
    7.3934   -8.0289    0.0000 C   0  0  0  0  0  0  0  0  0  0  0  0
    6.6790   -8.4414    0.0000 C   0  0  0  0  0  0  0  0  0  0  0  0
    3.8211  -10.9164    0.0000 O   0  0  0  0  0  0  0  0  0  0  0  0
    4.8375  -11.6309    0.0000 C   0  0  0  0  0  0  0  0  0  0  0  0
    5.9645   -8.8539    0.0000 C   0  0  0  0  0  0  0  0  0  0  0  0
    8.1079  -10.0914    0.0000 O   0  0  0  0  0  0  0  0  0  0  0  0
    8.3214   -7.6445    0.0000 C   0  0  0  0  0  0  0  0  0  0  0  0
    8.9329   -8.4414    0.0000 C   0  0  0  0  0  0  0  0  0  0  0  0
    9.5163   -9.0248    0.0000 C   0  0  0  0  0  0  0  0  0  0  0  0
    5.6625  -11.6309    0.0000 C   0  0  0  0  0  0  0  0  0  0  0  0
  1  2  1  0  0  0  0
  2  3  1  0  0  0  0
  3  4  1  0  0  0  0
  4  5  1  0  0  0  0
  5  6  1  0  0  0  0
  6  1  1  0  0  0  0
  4  7  1  0  0  0  0
  7  8  1  0  0  0  0
  8  9  1  0  0  0  0
  9 10  1  0  0  0  0
 10  5  1  0  0  0  0
  9 11  1  0  0  0  0
 11 12  1  0  0  0  0
 12 13  1  0  0  0  0
 13 14  1  0  0  0  0
 14 10  1  0  0  0  0
  2 15  1  1  0  0  0
  3 16  1  1  0  0  0
  5 17  1  1  0  0  0
  9 18  1  1  0  0  0
 12 19  1  1  0  0  0
 12 20  1  6  0  0  0
 20 21  2  0  0  0  0
  3 22  1  6  0  0  0
M  END
>  <cdx:fragmentId>
5

$$$$
