91336.cdx
  Mrv1902 05222410262D          

 33 35  0  0  0  0            999 V2000
    6.4056  -10.4901    0.0000 C   0  0  1  0  0  0  0  0  0  0  0  0
    6.4056  -11.3151    0.0000 C   0  0  2  0  0  0  0  0  0  0  0  0
    7.1200  -11.7276    0.0000 C   0  0  1  0  0  0  0  0  0  0  0  0
    7.8345  -11.3151    0.0000 O   0  0  0  0  0  0  0  0  0  0  0  0
    7.8345  -10.4901    0.0000 C   0  0  0  0  0  0  0  0  0  0  0  0
    7.1200  -10.0776    0.0000 C   0  0  0  0  0  0  0  0  0  0  0  0
    5.6209  -10.2352    0.0000 C   0  0  0  0  0  0  0  0  0  0  0  0
    5.1360  -10.9026    0.0000 C   0  0  1  0  0  0  0  0  0  0  0  0
    5.6209  -11.5701    0.0000 C   0  0  2  0  0  0  0  0  0  0  0  0
    7.1200  -12.5526    0.0000 O   0  0  0  0  0  0  0  0  0  0  0  0
    7.8345  -12.9651    0.0000 C   0  0  0  0  0  0  0  0  0  0  0  0
    8.5490  -12.5526    0.0000 C   0  0  0  0  0  0  0  0  0  0  0  0
    9.2634  -12.9651    0.0000 C   0  0  0  0  0  0  0  0  0  0  0  0
    9.9779  -12.5526    0.0000 C   0  0  0  0  0  0  0  0  0  0  0  0
    7.8345  -13.7901    0.0000 O   0  0  0  0  0  0  0  0  0  0  0  0
    9.2634  -13.7901    0.0000 C   0  0  0  0  0  0  0  0  0  0  0  0
    5.3660  -12.3547    0.0000 C   0  0  0  0  0  0  0  0  0  0  0  0
    4.5691  -12.5682    0.0000 O   0  0  0  0  0  0  0  0  0  0  0  0
    7.1200   -9.2526    0.0000 O   0  0  0  0  0  0  0  0  0  0  0  0
    7.8319   -8.8357    0.0000 C   0  0  2  0  0  0  0  0  0  0  0  0
    8.5489   -9.2437    0.0000 O   0  0  0  0  0  0  0  0  0  0  0  0
    9.2608   -8.8267    0.0000 C   0  0  1  0  0  0  0  0  0  0  0  0
    9.2556   -8.0017    0.0000 C   0  0  2  0  0  0  0  0  0  0  0  0
    8.5386   -7.5937    0.0000 C   0  0  2  0  0  0  0  0  0  0  0  0
    7.8267   -8.0107    0.0000 C   0  0  1  0  0  0  0  0  0  0  0  0
    8.5334   -6.7687    0.0000 O   0  0  0  0  0  0  0  0  0  0  0  0
    9.9675   -7.5847    0.0000 O   0  0  0  0  0  0  0  0  0  0  0  0
    9.9779   -9.2347    0.0000 C   0  0  0  0  0  0  0  0  0  0  0  0
   10.6897   -8.8177    0.0000 O   0  0  0  0  0  0  0  0  0  0  0  0
    7.1097   -7.6027    0.0000 O   0  0  0  0  0  0  0  0  0  0  0  0
    6.3193   -9.6697    0.0000 H   0  0  0  0  0  0  0  0  0  0  0  0
    6.3193  -12.1356    0.0000 H   0  0  0  0  0  0  0  0  0  0  0  0
    4.3110  -10.9026    0.0000 O   0  0  0  0  0  0  0  0  0  0  0  0
  1  2  1  0  0  0  0
  2  3  1  0  0  0  0
  3  4  1  0  0  0  0
  4  5  1  0  0  0  0
  5  6  2  0  0  0  0
  6  1  1  0  0  0  0
  1  7  1  0  0  0  0
  7  8  1  0  0  0  0
  8  9  1  0  0  0  0
  9  2  1  0  0  0  0
  3 10  1  1  0  0  0
 10 11  1  0  0  0  0
 11 12  1  0  0  0  0
 12 13  1  0  0  0  0
 13 14  1  0  0  0  0
 11 15  2  0  0  0  0
 16 13  1  0  0  0  0
  9 17  1  1  0  0  0
 17 18  1  0  0  0  0
  6 19  1  0  0  0  0
 20 19  1  1  0  0  0
 20 21  1  0  0  0  0
 21 22  1  0  0  0  0
 22 23  1  0  0  0  0
 23 24  1  0  0  0  0
 24 25  1  0  0  0  0
 25 20  1  0  0  0  0
 24 26  1  6  0  0  0
 23 27  1  6  0  0  0
 22 28  1  1  0  0  0
 28 29  1  0  0  0  0
 25 30  1  6  0  0  0
  1 31  1  1  0  0  0
  2 32  1  1  0  0  0
  8 33  1  1  0  0  0
M  END
>  <cdx:fragmentId>
5

$$$$
