91334.cdx
  Mrv1902 05222410262D          

 35 38  0  0  0  0            999 V2000
    4.1231  -11.8376    0.0000 C   0  0  0  0  0  0  0  0  0  0  0  0
    4.1231  -12.6626    0.0000 C   0  0  1  0  0  0  0  0  0  0  0  0
    4.8375  -13.0751    0.0000 C   0  0  0  0  0  0  0  0  0  0  0  0
    5.5520  -12.6626    0.0000 C   0  0  1  0  0  0  0  0  0  0  0  0
    5.5520  -11.8376    0.0000 C   0  0  2  0  0  0  0  0  0  0  0  0
    4.8375  -11.4251    0.0000 C   0  0  0  0  0  0  0  0  0  0  0  0
    6.2665  -13.0751    0.0000 C   0  0  0  0  0  0  0  0  0  0  0  0
    6.9809  -12.6626    0.0000 C   0  0  0  0  0  0  0  0  0  0  0  0
    6.9809  -11.8376    0.0000 C   0  0  0  0  0  0  0  0  0  0  0  0
    6.2665  -11.4251    0.0000 C   0  0  0  0  0  0  0  0  0  0  0  0
    7.6954  -11.4251    0.0000 C   0  0  1  0  0  0  0  0  0  0  0  0
    7.6954  -10.6001    0.0000 C   0  0  2  0  0  0  0  0  0  0  0  0
    6.9809  -10.1876    0.0000 C   0  0  0  0  0  0  0  0  0  0  0  0
    6.2665  -10.6001    0.0000 C   0  0  2  0  0  0  0  0  0  0  0  0
    8.4800  -11.6801    0.0000 C   0  0  0  0  0  0  0  0  0  0  0  0
    8.9650  -11.0126    0.0000 C   0  0  0  0  0  0  0  0  0  0  0  0
    8.4800  -10.3452    0.0000 C   0  0  2  0  0  0  0  0  0  0  0  0
    7.6954  -13.0751    0.0000 O   0  0  0  0  0  0  0  0  0  0  0  0
    8.7350   -9.5606    0.0000 C   0  0  2  0  0  0  0  0  0  0  0  0
    8.1829   -8.9475    0.0000 C   0  0  0  0  0  0  0  0  0  0  0  0
   10.3068   -7.0352    0.0000 C   0  0  0  0  0  0  0  0  0  0  0  0
   11.6658   -7.4768    0.0000 C   0  0  0  0  0  0  0  0  0  0  0  0
   10.8588   -7.6483    0.0000 C   0  0  0  0  0  0  0  0  0  0  0  0
   10.6039   -8.4329    0.0000 C   0  0  0  0  0  0  0  0  0  0  0  0
    9.7969   -8.6044    0.0000 C   0  0  0  0  0  0  0  0  0  0  0  0
    9.5419   -9.3891    0.0000 C   0  0  0  0  0  0  0  0  0  0  0  0
    7.6954  -12.2501    0.0000 C   0  0  0  0  0  0  0  0  0  0  0  0
    4.4250  -13.7896    0.0000 C   0  0  0  0  0  0  0  0  0  0  0  0
    3.4086  -13.0751    0.0000 O   0  0  0  0  0  0  0  0  0  0  0  0
    5.2500  -13.7896    0.0000 C   0  0  0  0  0  0  0  0  0  0  0  0
    5.5520  -11.0126    0.0000 C   0  0  0  0  0  0  0  0  0  0  0  0
    5.5520  -10.1876    0.0000 O   0  0  0  0  0  0  0  0  0  0  0  0
    7.6954   -9.7751    0.0000 C   0  0  0  0  0  0  0  0  0  0  0  0
    9.2647  -10.0903    0.0000 H   0  0  0  0  0  0  0  0  0  0  0  0
    5.5520  -13.4876    0.0000 H   0  0  0  0  0  0  0  0  0  0  0  0
  1  2  1  0  0  0  0
  2  3  1  0  0  0  0
  3  4  1  0  0  0  0
  4  5  1  0  0  0  0
  5  6  1  0  0  0  0
  6  1  1  0  0  0  0
  4  7  1  0  0  0  0
  7  8  1  0  0  0  0
  8  9  1  0  0  0  0
  9 10  2  0  0  0  0
 10  5  1  0  0  0  0
  9 11  1  0  0  0  0
 11 12  1  0  0  0  0
 12 13  1  0  0  0  0
 13 14  1  0  0  0  0
 14 10  1  0  0  0  0
 11 15  1  0  0  0  0
 15 16  1  0  0  0  0
 16 17  1  0  0  0  0
 17 12  1  0  0  0  0
  8 18  2  0  0  0  0
 17 19  1  0  0  0  0
 19 20  1  6  0  0  0
 23 21  1  0  0  0  0
 19 26  1  0  0  0  0
 23 22  1  0  0  0  0
 24 23  2  0  0  0  0
 25 24  1  0  0  0  0
 26 25  1  0  0  0  0
 11 27  1  6  0  0  0
  3 28  1  0  0  0  0
  2 29  1  1  0  0  0
  3 30  1  0  0  0  0
  5 31  1  1  0  0  0
 14 32  1  1  0  0  0
 12 33  1  1  0  0  0
 17 34  1  6  0  0  0
  4 35  1  6  0  0  0
M  END
>  <cdx:fragmentId>
5

$$$$
