91339.cdx
  Mrv1902 05222410192D          

 23 24  0  0  0  0            999 V2000
    2.5281  -13.2401    0.0000 C   0  0  0  0  0  0  0  0  0  0  0  0
    2.5281  -14.0651    0.0000 C   0  0  0  0  0  0  0  0  0  0  0  0
    3.2425  -14.4776    0.0000 C   0  0  0  0  0  0  0  0  0  0  0  0
    3.9570  -14.0651    0.0000 C   0  0  0  0  0  0  0  0  0  0  0  0
    3.9570  -13.2401    0.0000 C   0  0  0  0  0  0  0  0  0  0  0  0
    3.2425  -12.8276    0.0000 C   0  0  0  0  0  0  0  0  0  0  0  0
    4.6715  -12.8276    0.0000 C   0  0  0  0  0  0  0  0  0  0  0  0
    5.3859  -13.2401    0.0000 C   0  0  1  0  0  0  0  0  0  0  0  0
    6.1004  -12.8276    0.0000 C   0  0  0  0  0  0  0  0  0  0  0  0
    6.8149  -13.2401    0.0000 O   0  0  0  0  0  0  0  0  0  0  0  0
    6.1004  -12.0026    0.0000 O   0  0  0  0  0  0  0  0  0  0  0  0
    7.5294  -12.8276    0.0000 C   0  0  2  0  0  0  0  0  0  0  0  0
    8.2438  -13.2401    0.0000 C   0  0  2  0  0  0  0  0  0  0  0  0
    8.9583  -12.8276    0.0000 C   0  0  1  0  0  0  0  0  0  0  0  0
    8.9583  -12.0026    0.0000 C   0  0  2  0  0  0  0  0  0  0  0  0
    8.2438  -11.5901    0.0000 C   0  0  1  0  0  0  0  0  0  0  0  0
    7.5294  -12.0026    0.0000 O   0  0  0  0  0  0  0  0  0  0  0  0
    8.2438  -10.7651    0.0000 C   0  0  0  0  0  0  0  0  0  0  0  0
    9.6728  -13.2401    0.0000 O   0  0  0  0  0  0  0  0  0  0  0  0
    8.2438  -14.0651    0.0000 O   0  0  0  0  0  0  0  0  0  0  0  0
    9.6728  -11.5901    0.0000 O   0  0  0  0  0  0  0  0  0  0  0  0
    8.9583  -10.3526    0.0000 O   0  0  0  0  0  0  0  0  0  0  0  0
    5.3859  -14.0651    0.0000 N   0  0  0  0  0  0  0  0  0  0  0  0
  1  2  2  0  0  0  0
  2  3  1  0  0  0  0
  3  4  2  0  0  0  0
  4  5  1  0  0  0  0
  5  6  2  0  0  0  0
  6  1  1  0  0  0  0
  5  7  1  0  0  0  0
  7  8  1  0  0  0  0
  8  9  1  0  0  0  0
  9 10  1  0  0  0  0
  9 11  2  0  0  0  0
 12 10  1  1  0  0  0
 12 13  1  0  0  0  0
 13 14  1  0  0  0  0
 14 15  1  0  0  0  0
 15 16  1  0  0  0  0
 16 17  1  0  0  0  0
 17 12  1  0  0  0  0
 16 18  1  1  0  0  0
 14 19  1  1  0  0  0
 13 20  1  6  0  0  0
 15 21  1  6  0  0  0
 18 22  1  0  0  0  0
  8 23  1  1  0  0  0
M  END
>  <cdx:fragmentId>
5

$$$$
