91332.cdx
  Mrv1902 05222410282D          

 21 22  0  0  0  0            999 V2000
    6.0618  -15.0689    0.0000 C   0  0  0  0  0  0  0  0  0  0  0  0
    6.0618  -15.8939    0.0000 C   0  0  0  0  0  0  0  0  0  0  0  0
    6.7763  -16.3064    0.0000 C   0  0  0  0  0  0  0  0  0  0  0  0
    7.4907  -15.8939    0.0000 C   0  0  0  0  0  0  0  0  0  0  0  0
    7.4907  -15.0689    0.0000 C   0  0  0  0  0  0  0  0  0  0  0  0
    6.7763  -14.6564    0.0000 C   0  0  0  0  0  0  0  0  0  0  0  0
    6.7763  -13.8314    0.0000 C   0  0  0  0  0  0  0  0  0  0  0  0
    7.4907  -13.4189    0.0000 C   0  0  0  0  0  0  0  0  0  0  0  0
    7.4907  -12.5939    0.0000 C   0  0  2  0  0  0  0  0  0  0  0  0
    8.2052  -12.1814    0.0000 C   0  0  0  0  0  0  0  0  0  0  0  0
    8.2052  -11.3564    0.0000 C   0  0  2  0  0  0  0  0  0  0  0  0
    8.9197  -10.9439    0.0000 C   0  0  0  0  0  0  0  0  0  0  0  0
    8.9197  -10.1189    0.0000 C   0  0  0  0  0  0  0  0  0  0  0  0
    9.6342   -9.7064    0.0000 C   0  0  0  0  0  0  0  0  0  0  0  0
   10.3486  -10.1189    0.0000 C   0  0  0  0  0  0  0  0  0  0  0  0
   11.0631   -9.7064    0.0000 C   0  0  0  0  0  0  0  0  0  0  0  0
   11.0631   -8.8814    0.0000 C   0  0  0  0  0  0  0  0  0  0  0  0
   10.3486   -8.4689    0.0000 C   0  0  0  0  0  0  0  0  0  0  0  0
    9.6342   -8.8814    0.0000 C   0  0  0  0  0  0  0  0  0  0  0  0
    6.7763  -12.1814    0.0000 O   0  0  0  0  0  0  0  0  0  0  0  0
    7.4907  -10.9439    0.0000 O   0  0  0  0  0  0  0  0  0  0  0  0
  1  2  2  0  0  0  0
  2  3  1  0  0  0  0
  3  4  2  0  0  0  0
  4  5  1  0  0  0  0
  5  6  2  0  0  0  0
  6  1  1  0  0  0  0
  6  7  1  0  0  0  0
  7  8  2  0  0  0  0
  8  9  1  0  0  0  0
  9 10  1  0  0  0  0
 10 11  1  0  0  0  0
 11 12  1  0  0  0  0
 12 13  1  0  0  0  0
 13 14  1  0  0  0  0
 14 15  2  0  0  0  0
 15 16  1  0  0  0  0
 16 17  2  0  0  0  0
 17 18  1  0  0  0  0
 18 19  2  0  0  0  0
 19 14  1  0  0  0  0
  9 20  1  1  0  0  0
 11 21  1  1  0  0  0
M  END
>  <cdx:fragmentId>
5

$$$$
