91337.cdx
  Mrv1902 05222410262D          

 87 97  0  0  0  0            999 V2000
    8.5219   -7.0553    0.0000 C   0  0  0  0  0  0  0  0  0  0  0  0
    8.5306   -7.6327    0.0000 C   0  0  1  0  0  0  0  0  0  0  0  0
    9.0350   -7.9139    0.0000 C   0  0  0  0  0  0  0  0  0  0  0  0
    9.5307   -7.6177    0.0000 C   0  0  0  0  0  0  0  0  0  0  0  0
    9.5220   -7.0402    0.0000 C   0  0  2  0  0  0  0  0  0  0  0  0
    9.0176   -6.7590    0.0000 C   0  0  0  0  0  0  0  0  0  0  0  0
   10.0352   -7.8988    0.0000 C   0  0  0  0  0  0  0  0  0  0  0  0
   10.5309   -7.6026    0.0000 C   0  0  0  0  0  0  0  0  0  0  0  0
   10.5222   -7.0252    0.0000 C   0  0  0  0  0  0  0  0  0  0  0  0
   10.0178   -6.7440    0.0000 C   0  0  0  0  0  0  0  0  0  0  0  0
   11.0179   -6.7289    0.0000 C   0  0  0  0  0  0  0  0  0  0  0  0
   11.0092   -6.1515    0.0000 C   0  0  2  0  0  0  0  0  0  0  0  0
   10.5048   -5.8703    0.0000 C   0  0  0  0  0  0  0  0  0  0  0  0
   10.0091   -6.1665    0.0000 C   0  0  0  0  0  0  0  0  0  0  0  0
   11.5698   -6.8991    0.0000 C   0  0  0  0  0  0  0  0  0  0  0  0
   11.9021   -6.4268    0.0000 C   0  0  0  0  0  0  0  0  0  0  0  0
   11.5557   -5.9648    0.0000 C   0  0  1  0  0  0  0  0  0  0  0  0
   11.3978   -5.4092    0.0000 O   0  0  0  0  0  0  0  0  0  0  0  0
   12.0514   -5.6685    0.0000 C   0  0  0  0  0  0  0  0  0  0  0  0
   12.5558   -5.9497    0.0000 O   0  0  0  0  0  0  0  0  0  0  0  0
   12.0427   -5.0911    0.0000 C   0  0  0  0  0  0  0  0  0  0  0  0
   12.5633   -9.0010    0.0000 C   0  0  0  0  0  0  0  0  0  0  0  0
   11.9859   -9.0115    0.0000 C   0  0  0  0  0  0  0  0  0  0  0  0
   11.7127   -9.5203    0.0000 C   0  0  0  0  0  0  0  0  0  0  0  0
   12.0170  -10.0185    0.0000 C   0  0  0  0  0  0  0  0  0  0  0  0
   12.5944  -10.0080    0.0000 C   0  0  0  0  0  0  0  0  0  0  0  0
   12.8675   -9.4993    0.0000 O   0  0  0  0  0  0  0  0  0  0  0  0
   12.8953  -10.5009    0.0000 C   0  0  0  0  0  0  0  0  0  0  0  0
   11.1335   -9.4475    0.0000 O   0  0  0  0  0  0  0  0  0  0  0  0
   10.7155   -9.8550    0.0000 C   0  0  0  0  0  0  0  0  0  0  0  0
   10.7734  -10.4359    0.0000 C   0  0  0  0  0  0  0  0  0  0  0  0
   11.2636  -10.7528    0.0000 O   0  0  0  0  0  0  0  0  0  0  0  0
   11.8171  -10.5670    0.0000 O   0  0  0  0  0  0  0  0  0  0  0  0
   10.2637  -10.1643    0.0000 O   0  0  0  0  0  0  0  0  0  0  0  0
    9.7737  -10.4699    0.0000 C   0  0  1  0  0  0  0  0  0  0  0  0
    9.7934  -11.0471    0.0000 C   0  0  2  0  0  0  0  0  0  0  0  0
   10.3030  -11.3186    0.0000 C   0  0  2  0  0  0  0  0  0  0  0  0
   10.7930  -11.0130    0.0000 C   0  0  0  0  0  0  0  0  0  0  0  0
    9.3034  -11.3527    0.0000 O   0  0  0  0  0  0  0  0  0  0  0  0
    8.7937  -11.0812    0.0000 C   0  0  1  0  0  0  0  0  0  0  0  0
    8.7740  -10.5040    0.0000 O   0  0  0  0  0  0  0  0  0  0  0  0
    8.2643  -10.2325    0.0000 C   0  0  1  0  0  0  0  0  0  0  0  0
    7.7743  -10.5381    0.0000 C   0  0  2  0  0  0  0  0  0  0  0  0
    7.7940  -11.1153    0.0000 C   0  0  2  0  0  0  0  0  0  0  0  0
    8.3037  -11.3868    0.0000 C   0  0  0  0  0  0  0  0  0  0  0  0
    7.2647  -10.2665    0.0000 O   0  0  0  0  0  0  0  0  0  0  0  0
    6.7689  -10.5628    0.0000 C   0  0  1  0  0  0  0  0  0  0  0  0
    6.2645  -10.2816    0.0000 O   0  0  0  0  0  0  0  0  0  0  0  0
    5.7688  -10.5779    0.0000 C   0  0  1  0  0  0  0  0  0  0  0  0
    5.7775  -11.1553    0.0000 C   0  0  2  0  0  0  0  0  0  0  0  0
    6.2819  -11.4365    0.0000 C   0  0  2  0  0  0  0  0  0  0  0  0
    6.7776  -11.1402    0.0000 C   0  0  0  0  0  0  0  0  0  0  0  0
    5.2818  -11.4516    0.0000 O   0  0  0  0  0  0  0  0  0  0  0  0
    4.7773  -11.1704    0.0000 C   0  0  1  0  0  0  0  0  0  0  0  0
    4.7686  -10.5929    0.0000 O   0  0  0  0  0  0  0  0  0  0  0  0
    4.2642  -10.3118    0.0000 C   0  0  1  0  0  0  0  0  0  0  0  0
    3.7685  -10.6080    0.0000 C   0  0  2  0  0  0  0  0  0  0  0  0
    3.7772  -11.1854    0.0000 C   0  0  2  0  0  0  0  0  0  0  0  0
    4.2816  -11.4666    0.0000 C   0  0  0  0  0  0  0  0  0  0  0  0
    3.2641  -10.3268    0.0000 O   0  0  0  0  0  0  0  0  0  0  0  0
    2.7684  -10.6231    0.0000 C   0  0  1  0  0  0  0  0  0  0  0  0
    8.0349   -7.9290    0.0000 O   0  0  0  0  0  0  0  0  0  0  0  0
    9.5133   -6.4628    0.0000 C   0  0  0  0  0  0  0  0  0  0  0  0
   11.0609   -5.5763    0.0000 C   0  0  0  0  0  0  0  0  0  0  0  0
    9.2640  -10.1984    0.0000 C   0  0  0  0  0  0  0  0  0  0  0  0
    8.2447   -9.6553    0.0000 C   0  0  0  0  0  0  0  0  0  0  0  0
    5.2644  -10.2967    0.0000 C   0  0  0  0  0  0  0  0  0  0  0  0
    4.2555   -9.7343    0.0000 C   0  0  0  0  0  0  0  0  0  0  0  0
   10.3227  -11.8958    0.0000 O   0  0  0  0  0  0  0  0  0  0  0  0
    7.3040  -11.4209    0.0000 O   0  0  0  0  0  0  0  0  0  0  0  0
    6.2906  -12.0139    0.0000 O   0  0  0  0  0  0  0  0  0  0  0  0
    3.2815  -11.4817    0.0000 O   0  0  0  0  0  0  0  0  0  0  0  0
    2.2639  -10.3419    0.0000 O   0  0  0  0  0  0  0  0  0  0  0  0
    1.7682  -10.6381    0.0000 C   0  0  1  0  0  0  0  0  0  0  0  0
    1.7769  -11.2156    0.0000 C   0  0  2  0  0  0  0  0  0  0  0  0
    2.2813  -11.4968    0.0000 C   0  0  1  0  0  0  0  0  0  0  0  0
    2.7771  -11.2005    0.0000 C   0  0  1  0  0  0  0  0  0  0  0  0
    1.2638  -10.3570    0.0000 C   0  0  0  0  0  0  0  0  0  0  0  0
    2.2900  -12.0742    0.0000 O   0  0  0  0  0  0  0  0  0  0  0  0
    1.2812  -11.5118    0.0000 O   0  0  0  0  0  0  0  0  0  0  0  0
    2.8426  -11.7743    0.0000 O   0  0  0  0  0  0  0  0  0  0  0  0
    2.2733  -13.0849    0.0000 O   0  0  0  0  0  0  0  0  0  0  0  0
    2.9363  -12.5939    0.0000 C   0  0  0  0  0  0  0  0  0  0  0  0
    3.6930  -12.9226    0.0000 C   0  0  0  0  0  0  0  0  0  0  0  0
    6.7427  -12.3733    0.0000 C   0  0  0  0  0  0  0  0  0  0  0  0
    3.5652  -12.0041    0.0000 C   0  0  0  0  0  0  0  0  0  0  0  0
    1.7943  -12.3704    0.0000 C   0  0  0  0  0  0  0  0  0  0  0  0
  1  2  1  0  0  0  0
  2  3  1  0  0  0  0
  3  4  1  0  0  0  0
  4  5  1  0  0  0  0
  5  6  1  0  0  0  0
  6  1  1  0  0  0  0
  4  7  2  0  0  0  0
  7  8  1  0  0  0  0
  8  9  1  0  0  0  0
  9 10  1  0  0  0  0
 10  5  1  0  0  0  0
  9 11  1  0  0  0  0
 11 12  1  0  0  0  0
 12 13  1  0  0  0  0
 13 14  1  0  0  0  0
 14 10  1  0  0  0  0
 11 15  1  0  0  0  0
 15 16  1  0  0  0  0
 16 17  1  0  0  0  0
 17 12  1  0  0  0  0
 17 18  1  6  0  0  0
 17 19  1  0  0  0  0
 19 20  1  0  0  0  0
 19 21  1  0  0  0  0
 20 22  1  0  0  0  0
 22 23  1  0  0  0  0
 23 24  1  0  0  0  0
 24 25  1  0  0  0  0
 25 26  1  0  0  0  0
 26 27  1  0  0  0  0
 27 22  1  0  0  0  0
 26 28  1  0  0  0  0
 24 29  1  0  0  0  0
 29 30  1  0  0  0  0
 30 31  1  0  0  0  0
 31 32  1  0  0  0  0
 32 33  1  0  0  0  0
 33 25  1  0  0  0  0
 31 34  1  0  0  0  0
 34 35  1  0  0  0  0
 35 36  1  0  0  0  0
 36 37  1  0  0  0  0
 37 38  1  0  0  0  0
 38 31  1  0  0  0  0
 36 39  1  6  0  0  0
 40 39  1  6  0  0  0
 40 41  1  0  0  0  0
 41 42  1  0  0  0  0
 42 43  1  0  0  0  0
 43 44  1  0  0  0  0
 44 45  1  0  0  0  0
 45 40  1  0  0  0  0
 43 46  1  6  0  0  0
 47 46  1  6  0  0  0
 47 48  1  0  0  0  0
 48 49  1  0  0  0  0
 49 50  1  0  0  0  0
 50 51  1  0  0  0  0
 51 52  1  0  0  0  0
 52 47  1  0  0  0  0
 50 53  1  6  0  0  0
 54 53  1  6  0  0  0
 54 55  1  0  0  0  0
 55 56  1  0  0  0  0
 56 57  1  0  0  0  0
 57 58  1  0  0  0  0
 58 59  1  0  0  0  0
 59 54  1  0  0  0  0
 57 60  1  6  0  0  0
 61 60  1  6  0  0  0
  2 62  1  1  0  0  0
  5 63  1  1  0  0  0
 12 64  1  1  0  0  0
 35 65  1  1  0  0  0
 42 66  1  1  0  0  0
 49 67  1  1  0  0  0
 56 68  1  1  0  0  0
 37 69  1  6  0  0  0
 44 70  1  6  0  0  0
 51 71  1  6  0  0  0
 58 72  1  6  0  0  0
 61 73  1  0  0  0  0
 73 74  1  0  0  0  0
 74 75  1  0  0  0  0
 75 76  1  0  0  0  0
 76 77  1  0  0  0  0
 77 61  1  0  0  0  0
 74 78  1  1  0  0  0
 76 79  1  1  0  0  0
 75 80  1  6  0  0  0
 77 81  1  6  0  0  0
 71 85  1  0  0  0  0
 72 86  1  0  0  0  0
 79 87  1  0  0  0  0
 81 83  1  0  0  0  0
 82 83  2  0  0  0  0
 83 84  1  0  0  0  0
M  STY  1   1 SUP
M  SAL   1  4  81  82  83  84
M  SBL   1  1  91
M  SMT   1 OAc
M  SAP   1  1  81  77  1
M  END
>  <cdx:fragmentId>
5

$$$$
