91331.cdx
  Mrv1902 05222410272D          

 28 30  0  0  0  0            999 V2000
    6.7493   -7.0400    0.0000 C   0  0  0  0  0  0  0  0  0  0  0  0
    6.7493   -7.8650    0.0000 C   0  0  2  0  0  0  0  0  0  0  0  0
    7.4638   -8.2775    0.0000 C   0  0  2  0  0  0  0  0  0  0  0  0
    8.1782   -7.8650    0.0000 C   0  0  2  0  0  0  0  0  0  0  0  0
    8.1782   -7.0400    0.0000 C   0  0  1  0  0  0  0  0  0  0  0  0
    7.4638   -6.6275    0.0000 C   0  0  0  0  0  0  0  0  0  0  0  0
    8.8927   -8.2775    0.0000 C   0  0  0  0  0  0  0  0  0  0  0  0
    9.6072   -7.8650    0.0000 C   0  0  0  0  0  0  0  0  0  0  0  0
    9.6072   -7.0400    0.0000 C   0  0  0  0  0  0  0  0  0  0  0  0
    8.8927   -6.6275    0.0000 C   0  0  1  0  0  0  0  0  0  0  0  0
    7.0513   -8.9920    0.0000 C   0  0  0  0  0  0  0  0  0  0  0  0
    8.1782   -6.2150    0.0000 C   0  0  0  0  0  0  0  0  0  0  0  0
    8.8927   -5.8025    0.0000 C   0  0  0  0  0  0  0  0  0  0  0  0
    7.8763   -8.9920    0.0000 C   0  0  0  0  0  0  0  0  0  0  0  0
   10.3217   -6.6275    0.0000 C   0  0  0  0  0  0  0  0  0  0  0  0
    9.6072   -5.3900    0.0000 C   0  0  0  0  0  0  0  0  0  0  0  0
    6.2263   -8.9920    0.0000 O   0  0  0  0  0  0  0  0  0  0  0  0
    6.0348   -8.2775    0.0000 O   0  0  0  0  0  0  0  0  0  0  0  0
    9.6042   -4.5535    0.0000 C   0  0  0  0  0  0  0  0  0  0  0  0
   10.2716   -4.0686    0.0000 C   0  0  0  0  0  0  0  0  0  0  0  0
   10.0167   -3.2840    0.0000 O   0  0  0  0  0  0  0  0  0  0  0  0
    9.1917   -3.2840    0.0000 C   0  0  0  0  0  0  0  0  0  0  0  0
    8.9368   -4.0686    0.0000 C   0  0  0  0  0  0  0  0  0  0  0  0
   11.0563   -4.3235    0.0000 O   0  0  0  0  0  0  0  0  0  0  0  0
    8.1782   -8.6900    0.0000 H   0  0  0  0  0  0  0  0  0  0  0  0
    5.8138   -9.7064    0.0000 C   0  0  0  0  0  0  0  0  0  0  0  0
    4.9888   -9.7064    0.0000 O   0  0  0  0  0  0  0  0  0  0  0  0
    6.2263  -10.4209    0.0000 C   0  0  0  0  0  0  0  0  0  0  0  0
  1  2  1  0  0  0  0
  2  3  1  0  0  0  0
  3  4  1  0  0  0  0
  4  5  1  0  0  0  0
  5  6  1  0  0  0  0
  6  1  1  0  0  0  0
  4  7  1  0  0  0  0
  7  8  1  0  0  0  0
  8  9  1  0  0  0  0
  9 10  1  0  0  0  0
 10  5  1  0  0  0  0
  3 11  1  6  0  0  0
  5 12  1  6  0  0  0
 10 13  1  6  0  0  0
  3 14  1  1  0  0  0
  9 15  2  0  0  0  0
 13 16  1  0  0  0  0
 11 17  1  0  0  0  0
  2 18  1  6  0  0  0
 19 20  1  0  0  0  0
 20 21  1  0  0  0  0
 21 22  1  0  0  0  0
 22 23  2  0  0  0  0
 23 19  1  0  0  0  0
 20 24  2  0  0  0  0
 16 19  2  0  0  0  0
  4 25  1  1  0  0  0
 17 26  1  0  0  0  0
 26 27  2  0  0  0  0
 26 28  1  0  0  0  0
M  END
>  <cdx:fragmentId>
5

$$$$
