91330.cdx
  Mrv1902 05222410272D          

 24 26  0  0  0  0            999 V2000
    7.9764   -6.7364    0.0000 C   0  0  0  0  0  0  0  0  0  0  0  0
    7.2721   -7.1661    0.0000 C   0  0  0  0  0  0  0  0  0  0  0  0
    7.2920   -7.9908    0.0000 C   0  0  2  0  0  0  0  0  0  0  0  0
    8.0162   -8.3860    0.0000 C   0  0  0  0  0  0  0  0  0  0  0  0
    8.0361   -9.2107    0.0000 C   0  0  0  0  0  0  0  0  0  0  0  0
    7.3319   -9.6404    0.0000 C   0  0  0  0  0  0  0  0  0  0  0  0
    6.6076   -9.2452    0.0000 C   0  0  2  0  0  0  0  0  0  0  0  0
    5.9033   -9.6749    0.0000 C   0  0  2  0  0  0  0  0  0  0  0  0
    5.1791   -9.2798    0.0000 C   0  0  0  0  0  0  0  0  0  0  0  0
    5.1592   -8.4550    0.0000 C   0  0  0  0  0  0  0  0  0  0  0  0
    5.8635   -8.0254    0.0000 C   0  0  0  0  0  0  0  0  0  0  0  0
    6.5877   -8.4205    0.0000 C   0  0  1  0  0  0  0  0  0  0  0  0
    8.7205   -7.9563    0.0000 C   0  0  0  0  0  0  0  0  0  0  0  0
    6.5678   -7.5957    0.0000 C   0  0  0  0  0  0  0  0  0  0  0  0
    5.5082  -10.3991    0.0000 C   0  0  0  0  0  0  0  0  0  0  0  0
    6.3330  -10.3792    0.0000 C   0  0  0  0  0  0  0  0  0  0  0  0
    5.9378  -11.1034    0.0000 O   0  0  0  0  0  0  0  0  0  0  0  0
    6.6276  -10.0700    0.0000 H   0  0  0  0  0  0  0  0  0  0  0  0
    9.4025   -5.6467    0.0000 O   0  0  0  0  0  0  0  0  0  0  0  0
    8.6120   -5.4108    0.0000 C   0  0  0  0  0  0  0  0  0  0  0  0
    7.9564   -5.9117    0.0000 C   0  0  0  0  0  0  0  0  0  0  0  0
    7.2775   -5.4430    0.0000 C   0  0  0  0  0  0  0  0  0  0  0  0
    7.5134   -4.6525    0.0000 C   0  0  0  0  0  0  0  0  0  0  0  0
    8.3381   -4.6325    0.0000 O   0  0  0  0  0  0  0  0  0  0  0  0
 21  1  1  0  0  0  0
  1  2  1  0  0  0  0
 20 19  2  0  0  0  0
 24 20  1  0  0  0  0
 21 20  1  0  0  0  0
 22 21  2  0  0  0  0
 23 22  1  0  0  0  0
 24 23  1  0  0  0  0
  3  4  1  0  0  0  0
  4  5  1  0  0  0  0
  5  6  1  0  0  0  0
  6  7  1  0  0  0  0
  7  8  1  0  0  0  0
  8  9  1  0  0  0  0
  9 10  1  0  0  0  0
 10 11  1  0  0  0  0
 11 12  1  0  0  0  0
  3 12  1  0  0  0  0
  7 12  1  0  0  0  0
  4 13  2  0  0  0  0
 12 14  1  6  0  0  0
  8 15  1  1  0  0  0
 16 17  1  0  0  0  0
  8 16  1  6  0  0  0
  3  2  1  6  0  0  0
  7 18  1  1  0  0  0
M  END
>  <cdx:fragmentId>
21

$$$$
