91333.cdx
  Mrv1902 05222410282D          

 20 19  0  0  0  0            999 V2000
    6.1300   -8.6476    0.0000 C   0  0  0  0  0  0  0  0  0  0  0  0
    6.8445   -8.2351    0.0000 C   0  0  0  0  0  0  0  0  0  0  0  0
    7.5590   -8.6476    0.0000 C   0  0  2  0  0  0  0  0  0  0  0  0
    8.2734   -8.2351    0.0000 C   0  0  1  0  0  0  0  0  0  0  0  0
    8.9879   -8.6476    0.0000 C   0  0  0  0  0  0  0  0  0  0  0  0
    9.7024   -8.2351    0.0000 C   0  0  0  0  0  0  0  0  0  0  0  0
   10.4169   -8.6476    0.0000 C   0  0  0  0  0  0  0  0  0  0  0  0
   11.1313   -8.2351    0.0000 C   0  0  0  0  0  0  0  0  0  0  0  0
   11.8458   -8.6476    0.0000 C   0  0  0  0  0  0  0  0  0  0  0  0
   12.5603   -8.2351    0.0000 C   0  0  0  0  0  0  0  0  0  0  0  0
   13.2747   -8.6476    0.0000 C   0  0  0  0  0  0  0  0  0  0  0  0
    8.2734   -7.4101    0.0000 O   0  0  0  0  0  0  0  0  0  0  0  0
    7.5590   -9.4726    0.0000 O   0  0  0  0  0  0  0  0  0  0  0  0
    5.4156   -9.0601    0.0000 C   0  0  0  0  0  0  0  0  0  0  0  0
    4.7011   -9.4726    0.0000 C   0  0  0  0  0  0  0  0  0  0  0  0
    3.9866   -9.8851    0.0000 C   0  0  0  0  0  0  0  0  0  0  0  0
    3.2721  -10.2976    0.0000 C   0  0  1  0  0  0  0  0  0  0  0  0
    2.5577   -9.8851    0.0000 O   0  0  0  0  0  0  0  0  0  0  0  0
    3.2721  -11.1226    0.0000 C   0  0  0  0  0  0  0  0  0  0  0  0
    2.5577  -11.5351    0.0000 C   0  0  0  0  0  0  0  0  0  0  0  0
  1  2  1  0  0  0  0
  2  3  1  0  0  0  0
  3  4  1  0  0  0  0
  4  5  1  0  0  0  0
  5  6  1  0  0  0  0
  6  7  1  0  0  0  0
  7  8  1  0  0  0  0
  8  9  1  0  0  0  0
  9 10  1  0  0  0  0
 10 11  2  0  0  0  0
  4 12  1  6  0  0  0
  3 13  1  6  0  0  0
  1 14  3  0  0  0  0
 14 15  1  0  0  0  0
 15 16  3  0  0  0  0
 16 17  1  0  0  0  0
 17 18  1  6  0  0  0
 17 19  1  0  0  0  0
 19 20  2  0  0  0  0
M  END
>  <cdx:fragmentId>
3

$$$$
