91342.cdx
  Mrv1902 05222410242D          

 34 34  0  0  0  0            999 V2000
   11.8972   -7.5119    0.0000 C   0  0  0  0  0  0  0  0  0  0  0  0
   11.8972   -8.1719    0.0000 C   0  0  0  0  0  0  0  0  0  0  0  0
   12.4688   -8.5019    0.0000 C   0  0  0  0  0  0  0  0  0  0  0  0
   13.0404   -8.1719    0.0000 C   0  0  0  0  0  0  0  0  0  0  0  0
   13.0404   -7.5119    0.0000 C   0  0  0  0  0  0  0  0  0  0  0  0
   12.4688   -7.1819    0.0000 C   0  0  0  0  0  0  0  0  0  0  0  0
   12.4688   -6.5219    0.0000 C   0  0  0  0  0  0  0  0  0  0  0  0
   11.8972   -6.1919    0.0000 O   0  0  0  0  0  0  0  0  0  0  0  0
   13.0404   -6.1919    0.0000 O   0  0  0  0  0  0  0  0  0  0  0  0
   13.0404   -5.5319    0.0000 C   0  0  0  0  0  0  0  0  0  0  0  0
   13.6119   -5.2019    0.0000 C   0  0  0  0  0  0  0  0  0  0  0  0
   13.6119   -4.5419    0.0000 C   0  0  0  0  0  0  0  0  0  0  0  0
   14.1835   -5.5319    0.0000 C   0  0  0  0  0  0  0  0  0  0  0  0
   11.3256   -7.1819    0.0000 C   0  0  0  0  0  0  0  0  0  0  0  0
   10.7540   -7.5119    0.0000 O   0  0  0  0  0  0  0  0  0  0  0  0
   11.3256   -6.5219    0.0000 O   0  0  0  0  0  0  0  0  0  0  0  0
    0.4650   -7.5201    0.0000 C   0  0  0  0  0  0  0  0  0  0  0  0
    1.0366   -7.1901    0.0000 C   0  0  0  0  0  0  0  0  0  0  0  0
    1.6082   -7.5201    0.0000 C   0  0  0  0  0  0  0  0  0  0  0  0
    2.1798   -7.1901    0.0000 C   0  0  0  0  0  0  0  0  0  0  0  0
    2.7513   -7.5201    0.0000 C   0  0  0  0  0  0  0  0  0  0  0  0
    3.3229   -7.1901    0.0000 C   0  0  0  0  0  0  0  0  0  0  0  0
    3.8945   -7.5201    0.0000 C   0  0  0  0  0  0  0  0  0  0  0  0
    4.4661   -7.1901    0.0000 C   0  0  0  0  0  0  0  0  0  0  0  0
    5.0376   -7.5201    0.0000 C   0  0  0  0  0  0  0  0  0  0  0  0
    5.6092   -7.1901    0.0000 C   0  0  0  0  0  0  0  0  0  0  0  0
    6.1808   -7.5201    0.0000 C   0  0  0  0  0  0  0  0  0  0  0  0
    6.7524   -7.1901    0.0000 C   0  0  0  0  0  0  0  0  0  0  0  0
    7.3239   -7.5201    0.0000 C   0  0  0  0  0  0  0  0  0  0  0  0
    7.8955   -7.1901    0.0000 C   0  0  0  0  0  0  0  0  0  0  0  0
    8.4671   -7.5201    0.0000 C   0  0  0  0  0  0  0  0  0  0  0  0
    9.0387   -7.1901    0.0000 C   0  0  0  0  0  0  0  0  0  0  0  0
    9.6103   -7.5201    0.0000 C   0  0  0  0  0  0  0  0  0  0  0  0
   10.1818   -7.1901    0.0000 C   0  0  0  0  0  0  0  0  0  0  0  0
  1  2  2  0  0  0  0
  2  3  1  0  0  0  0
  3  4  2  0  0  0  0
  4  5  1  0  0  0  0
  5  6  2  0  0  0  0
  6  1  1  0  0  0  0
  6  7  1  0  0  0  0
  7  8  2  0  0  0  0
  7  9  1  0  0  0  0
  9 10  1  0  0  0  0
 10 11  1  0  0  0  0
 11 12  1  0  0  0  0
 11 13  1  0  0  0  0
  1 14  1  0  0  0  0
 14 15  1  0  0  0  0
 14 16  2  0  0  0  0
 17 18  1  0  0  0  0
 18 19  1  0  0  0  0
 19 20  1  0  0  0  0
 20 21  1  0  0  0  0
 21 22  1  0  0  0  0
 22 23  1  0  0  0  0
 23 24  1  0  0  0  0
 24 25  1  0  0  0  0
 25 26  1  0  0  0  0
 26 27  1  0  0  0  0
 27 28  1  0  0  0  0
 28 29  1  0  0  0  0
 29 30  1  0  0  0  0
 30 31  1  0  0  0  0
 31 32  1  0  0  0  0
 32 33  1  0  0  0  0
 33 34  1  0  0  0  0
 34 15  1  0  0  0  0
M  END
>  <cdx:fragmentId>
43

$$$$
