91347.cdx
  Mrv1902 05222410252D          

 34 37  0  0  0  0            999 V2000
    2.4043  -10.2701    0.0000 C   0  0  0  0  0  0  0  0  0  0  0  0
    3.8332  -11.0951    0.0000 C   0  0  0  0  0  0  0  0  0  0  0  0
    3.8332  -10.2701    0.0000 C   0  0  0  0  0  0  0  0  0  0  0  0
    3.1188   -9.8576    0.0000 O   0  0  0  0  0  0  0  0  0  0  0  0
    4.5477  -11.5076    0.0000 C   0  0  0  0  0  0  0  0  0  0  0  0
    5.2622  -11.0951    0.0000 C   0  0  0  0  0  0  0  0  0  0  0  0
    5.2622  -10.2701    0.0000 C   0  0  0  0  0  0  0  0  0  0  0  0
    4.5477   -9.8576    0.0000 C   0  0  0  0  0  0  0  0  0  0  0  0
    4.5477  -12.3326    0.0000 O   0  0  0  0  0  0  0  0  0  0  0  0
    5.9767  -12.3326    0.0000 O   0  0  0  0  0  0  0  0  0  0  0  0
    5.9767  -11.5076    0.0000 C   0  0  0  0  0  0  0  0  0  0  0  0
    6.6911  -11.0951    0.0000 C   0  0  0  0  0  0  0  0  0  0  0  0
    6.6911  -10.2701    0.0000 C   0  0  0  0  0  0  0  0  0  0  0  0
    5.9767   -9.8576    0.0000 O   0  0  0  0  0  0  0  0  0  0  0  0
    6.6911  -12.7451    0.0000 O   0  0  0  0  0  0  0  0  0  0  0  0
    7.4056  -12.3326    0.0000 C   0  0  1  0  0  0  0  0  0  0  0  0
    7.4056  -11.5076    0.0000 O   0  0  0  0  0  0  0  0  0  0  0  0
    8.1201  -10.2701    0.0000 C   0  0  0  0  0  0  0  0  0  0  0  0
    7.4056   -9.8576    0.0000 C   0  0  0  0  0  0  0  0  0  0  0  0
    8.8345   -9.8576    0.0000 C   0  0  0  0  0  0  0  0  0  0  0  0
    8.8345   -9.0326    0.0000 C   0  0  0  0  0  0  0  0  0  0  0  0
    8.1201   -8.6201    0.0000 C   0  0  0  0  0  0  0  0  0  0  0  0
    7.4056   -9.0326    0.0000 C   0  0  0  0  0  0  0  0  0  0  0  0
    6.6911  -13.5701    0.0000 C   0  0  1  0  0  0  0  0  0  0  0  0
    7.4056  -13.9826    0.0000 C   0  0  2  0  0  0  0  0  0  0  0  0
    8.1201  -13.5701    0.0000 C   0  0  1  0  0  0  0  0  0  0  0  0
    8.1201  -12.7451    0.0000 C   0  0  1  0  0  0  0  0  0  0  0  0
    5.2622  -13.5701    0.0000 O   0  0  0  0  0  0  0  0  0  0  0  0
    5.9767  -13.9826    0.0000 C   0  0  0  0  0  0  0  0  0  0  0  0
    4.5477   -9.0326    0.0000 O   0  0  0  0  0  0  0  0  0  0  0  0
    9.5490   -8.6201    0.0000 O   0  0  0  0  0  0  0  0  0  0  0  0
    8.8345  -13.9826    0.0000 O   0  0  0  0  0  0  0  0  0  0  0  0
    7.4056  -14.8076    0.0000 O   0  0  0  0  0  0  0  0  0  0  0  0
    8.8345  -12.3326    0.0000 O   0  0  0  0  0  0  0  0  0  0  0  0
  2  3  2  0  0  0  0
  3  4  1  0  0  0  0
  4  1  1  0  0  0  0
  2  5  1  0  0  0  0
  5  6  2  0  0  0  0
  6  7  1  0  0  0  0
  7  8  2  0  0  0  0
  8  3  1  0  0  0  0
  5  9  1  0  0  0  0
 10 11  2  0  0  0  0
 11  6  1  0  0  0  0
 11 12  1  0  0  0  0
 12 13  2  0  0  0  0
 13 14  1  0  0  0  0
 14  7  1  0  0  0  0
 15 16  1  0  0  0  0
 16 17  1  1  0  0  0
 17 12  1  0  0  0  0
 18 19  1  0  0  0  0
 19 13  1  0  0  0  0
 18 20  2  0  0  0  0
 20 21  1  0  0  0  0
 21 22  2  0  0  0  0
 22 23  1  0  0  0  0
 23 19  2  0  0  0  0
 15 24  1  0  0  0  0
 24 25  1  0  0  0  0
 25 26  1  0  0  0  0
 26 27  1  0  0  0  0
 27 16  1  0  0  0  0
 28 29  1  0  0  0  0
 24 29  1  1  0  0  0
  8 30  1  0  0  0  0
 21 31  1  0  0  0  0
 26 32  1  1  0  0  0
 25 33  1  6  0  0  0
 27 34  1  6  0  0  0
M  END
>  <cdx:fragmentId>
5

$$$$
