913414.cdx
  Mrv1902 05222410232D          

 26 30  0  0  0  0            999 V2000
    5.2659   -7.6972    0.0000 O   0  0  0  0  0  0  0  0  0  0  0  0
    5.0260   -8.4866    0.0000 C   0  0  1  0  0  0  0  0  0  0  0  0
    5.7026   -8.9587    0.0000 C   0  0  0  0  0  0  0  0  0  0  0  0
    6.3606   -8.4611    0.0000 C   0  0  2  0  0  0  0  0  0  0  0  0
    6.0908   -7.6815    0.0000 C   0  0  1  0  0  0  0  0  0  0  0  0
    4.2900   -8.9925    0.0000 C   0  0  0  0  0  0  0  0  0  0  0  0
    5.0445   -9.4562    0.0000 C   0  0  1  0  0  0  0  0  0  0  0  0
    5.3143  -10.2358    0.0000 C   0  0  0  0  0  0  0  0  0  0  0  0
    6.1392  -10.2201    0.0000 C   0  0  0  0  0  0  0  0  0  0  0  0
    6.3791   -9.4308    0.0000 C   0  0  2  0  0  0  0  0  0  0  0  0
    7.1225   -8.7175    0.0000 O   0  0  0  0  0  0  0  0  0  0  0  0
    4.8422  -10.9124    0.0000 O   0  0  0  0  0  0  0  0  0  0  0  0
    7.0936   -9.8433    0.0000 C   0  0  0  0  0  0  0  0  0  0  0  0
    4.4426   -7.9032    0.0000 O   0  0  0  0  0  0  0  0  0  0  0  0
    9.2185   -9.2861    0.0000 C   0  0  0  0  0  0  0  0  0  0  0  0
    9.9330   -9.6986    0.0000 C   0  0  0  0  0  0  0  0  0  0  0  0
   10.6475   -9.2861    0.0000 C   0  0  0  0  0  0  0  0  0  0  0  0
   10.6475   -8.4611    0.0000 C   0  0  0  0  0  0  0  0  0  0  0  0
    9.9330   -8.0486    0.0000 C   0  0  0  0  0  0  0  0  0  0  0  0
    8.5040   -7.2236    0.0000 O   0  0  0  0  0  0  0  0  0  0  0  0
    9.2185   -8.4611    0.0000 C   0  0  0  0  0  0  0  0  0  0  0  0
    8.5040   -8.0486    0.0000 C   0  0  0  0  0  0  0  0  0  0  0  0
    7.7896   -8.4611    0.0000 O   0  0  0  0  0  0  0  0  0  0  0  0
    7.0751   -8.0486    0.0000 C   0  0  0  0  0  0  0  0  0  0  0  0
    6.5033   -6.9670    0.0000 H   0  0  0  0  0  0  0  0  0  0  0  0
    4.3300   -9.8687    0.0000 H   0  0  0  0  0  0  0  0  0  0  0  0
  1  2  1  0  0  0  0
  2  3  1  0  0  0  0
  3  4  1  0  0  0  0
  4  5  1  0  0  0  0
  5  1  1  0  0  0  0
  2  6  1  0  0  0  0
  3  7  1  0  0  0  0
  7  8  1  0  0  0  0
  8  9  1  0  0  0  0
  9 10  1  0  0  0  0
 10  3  1  0  0  0  0
  7  6  1  0  0  0  0
 10 11  1  0  0  0  0
  5 11  1  0  0  0  0
  8 12  2  0  0  0  0
 10 13  1  6  0  0  0
  2 14  1  6  0  0  0
 15 21  1  0  0  0  0
  4 24  1  6  0  0  0
 16 15  2  0  0  0  0
 17 16  1  0  0  0  0
 18 17  2  0  0  0  0
 19 18  1  0  0  0  0
 21 19  2  0  0  0  0
 22 20  2  0  0  0  0
 22 21  1  0  0  0  0
 23 22  1  0  0  0  0
 24 23  1  0  0  0  0
  5 25  1  1  0  0  0
  7 26  1  1  0  0  0
M  END
>  <cdx:fragmentId>
120

$$$$
