91340.cdx
  Mrv1902 05222410232D          

 10 10  0  0  0  0            999 V2000
    5.8006  -10.8476    0.0000 C   0  0  0  0  0  0  0  0  0  0  0  0
    5.8006  -11.6726    0.0000 C   0  0  0  0  0  0  0  0  0  0  0  0
    6.5150  -12.0851    0.0000 C   0  0  0  0  0  0  0  0  0  0  0  0
    7.2295  -11.6726    0.0000 C   0  0  0  0  0  0  0  0  0  0  0  0
    7.2295  -10.8476    0.0000 C   0  0  0  0  0  0  0  0  0  0  0  0
    6.5150  -10.4351    0.0000 C   0  0  0  0  0  0  0  0  0  0  0  0
    6.5150   -9.6101    0.0000 C   0  0  0  0  0  0  0  0  0  0  0  0
    7.2295   -9.1976    0.0000 O   0  0  0  0  0  0  0  0  0  0  0  0
    7.2295   -8.3726    0.0000 C   0  0  0  0  0  0  0  0  0  0  0  0
    7.9440   -7.9601    0.0000 O   0  0  0  0  0  0  0  0  0  0  0  0
  1  2  2  0  0  0  0
  2  3  1  0  0  0  0
  3  4  2  0  0  0  0
  4  5  1  0  0  0  0
  5  6  2  0  0  0  0
  6  1  1  0  0  0  0
  6  7  1  0  0  0  0
  7  8  1  0  0  0  0
  8  9  1  0  0  0  0
  9 10  2  0  0  0  0
M  END
>  <cdx:fragmentId>
5

$$$$
