91349.cdx
  Mrv1902 05222410202D          

 20 20  0  0  0  0            999 V2000
   12.4365   -7.8776    0.0000 C   0  0  0  0  0  0  0  0  0  0  0  0
   11.7220   -7.4651    0.0000 C   0  0  0  0  0  0  0  0  0  0  0  0
   11.0076   -7.8776    0.0000 C   0  0  0  0  0  0  0  0  0  0  0  0
   10.2931   -7.4651    0.0000 C   0  0  0  0  0  0  0  0  0  0  0  0
    9.5786   -7.8776    0.0000 C   0  0  0  0  0  0  0  0  0  0  0  0
    8.8642   -7.4651    0.0000 C   0  0  0  0  0  0  0  0  0  0  0  0
    8.1497   -7.8776    0.0000 C   0  0  0  0  0  0  0  0  0  0  0  0
    7.4352   -7.4651    0.0000 C   0  0  0  0  0  0  0  0  0  0  0  0
    6.7207   -7.8776    0.0000 C   0  0  0  0  0  0  0  0  0  0  0  0
    6.0063   -7.4651    0.0000 C   0  0  0  0  0  0  0  0  0  0  0  0
    5.2918   -7.8776    0.0000 C   0  0  0  0  0  0  0  0  0  0  0  0
    4.5773   -8.2901    0.0000 C   0  0  0  0  0  0  0  0  0  0  0  0
    3.8629   -8.7026    0.0000 C   0  0  0  0  0  0  0  0  0  0  0  0
    3.1484   -9.1151    0.0000 C   0  0  0  0  0  0  0  0  0  0  0  0
    2.4339   -9.5276    0.0000 C   0  0  0  0  0  0  0  0  0  0  0  0
    1.7194   -9.1151    0.0000 C   0  0  0  0  0  0  0  0  0  0  0  0
    2.4339  -10.3526    0.0000 O   0  0  0  0  0  0  0  0  0  0  0  0
    1.7194   -8.2901    0.0000 C   0  0  0  0  0  0  0  0  0  0  0  0
    6.0063   -6.6401    0.0000 O   0  0  0  0  0  0  0  0  0  0  0  0
    7.4352   -8.2901    0.0000 O   0  0  0  0  0  0  0  0  0  0  0  0
  2  1  1  0  0  0  0
  3  2  1  0  0  0  0
  4  3  1  0  0  0  0
  5  4  1  0  0  0  0
  6  5  1  0  0  0  0
  7  6  1  0  0  0  0
  8  7  1  0  0  0  0
  9  8  1  0  0  0  0
 10  9  1  0  0  0  0
 10 11  1  0  0  0  0
 11 12  3  0  0  0  0
 12 13  1  0  0  0  0
 13 14  3  0  0  0  0
 14 15  1  0  0  0  0
 15 16  1  0  0  0  0
 15 17  1  0  0  0  0
 16 18  2  0  0  0  0
 10 19  1  0  0  0  0
  9 20  1  0  0  0  0
 20  8  1  0  0  0  0
M  END
>  <cdx:fragmentId>
98

$$$$
