91346.cdx
  Mrv1902 05222410242D          

 13 13  0  0  0  0            999 V2000
    6.3781   -9.8301    0.0000 C   0  0  0  0  0  0  0  0  0  0  0  0
    6.3781  -10.6551    0.0000 C   0  0  0  0  0  0  0  0  0  0  0  0
    7.0925  -11.0676    0.0000 C   0  0  0  0  0  0  0  0  0  0  0  0
    7.8070  -10.6551    0.0000 C   0  0  0  0  0  0  0  0  0  0  0  0
    7.8070   -9.8301    0.0000 C   0  0  0  0  0  0  0  0  0  0  0  0
    7.0925   -9.4176    0.0000 C   0  0  0  0  0  0  0  0  0  0  0  0
    7.0925  -11.8926    0.0000 O   0  0  0  0  0  0  0  0  0  0  0  0
    6.3781  -12.3051    0.0000 C   0  0  0  0  0  0  0  0  0  0  0  0
    7.0925   -8.5926    0.0000 C   0  0  0  0  0  0  0  0  0  0  0  0
    7.8070   -8.1801    0.0000 C   0  0  0  0  0  0  0  0  0  0  0  0
    7.8070   -7.3551    0.0000 O   0  0  0  0  0  0  0  0  0  0  0  0
    6.3781   -8.1801    0.0000 O   0  0  0  0  0  0  0  0  0  0  0  0
    8.5215   -8.5926    0.0000 O   0  0  0  0  0  0  0  0  0  0  0  0
  1  2  2  0  0  0  0
  2  3  1  0  0  0  0
  3  4  2  0  0  0  0
  4  5  1  0  0  0  0
  5  6  2  0  0  0  0
  6  1  1  0  0  0  0
  3  7  1  0  0  0  0
  7  8  1  0  0  0  0
  6  9  1  0  0  0  0
  9 10  1  0  0  0  0
 10 11  2  0  0  0  0
  9 12  2  0  0  0  0
 10 13  1  0  0  0  0
M  END
>  <cdx:fragmentId>
5

$$$$
