91343.cdx
  Mrv1902 05222410242D          

 22 22  0  0  0  0            999 V2000
    7.9593  -13.5701    0.0000 C   0  0  0  0  0  0  0  0  0  0  0  0
    7.9593  -14.3951    0.0000 C   0  0  0  0  0  0  0  0  0  0  0  0
    8.6738  -14.8076    0.0000 C   0  0  0  0  0  0  0  0  0  0  0  0
    9.3882  -14.3951    0.0000 C   0  0  0  0  0  0  0  0  0  0  0  0
    9.3882  -13.5701    0.0000 C   0  0  0  0  0  0  0  0  0  0  0  0
    8.6738  -13.1576    0.0000 C   0  0  0  0  0  0  0  0  0  0  0  0
    7.2448  -13.1576    0.0000 C   0  0  0  0  0  0  0  0  0  0  0  0
    6.5304  -13.5701    0.0000 O   0  0  0  0  0  0  0  0  0  0  0  0
    5.8159  -13.1576    0.0000 C   0  0  0  0  0  0  0  0  0  0  0  0
    5.1014  -13.5701    0.0000 C   0  0  0  0  0  0  0  0  0  0  0  0
    4.3869  -13.1576    0.0000 C   0  0  0  0  0  0  0  0  0  0  0  0
    3.6725  -13.5701    0.0000 C   0  0  0  0  0  0  0  0  0  0  0  0
    2.9580  -13.1576    0.0000 C   0  0  0  0  0  0  0  0  0  0  0  0
    2.2435  -13.5701    0.0000 C   0  0  0  0  0  0  0  0  0  0  0  0
    7.2448  -12.3326    0.0000 O   0  0  0  0  0  0  0  0  0  0  0  0
    8.6738  -12.3326    0.0000 C   0  0  0  0  0  0  0  0  0  0  0  0
    7.9593  -11.9201    0.0000 O   0  0  0  0  0  0  0  0  0  0  0  0
    9.3882  -11.9201    0.0000 O   0  0  0  0  0  0  0  0  0  0  0  0
    9.3882  -11.0951    0.0000 C   0  0  0  0  0  0  0  0  0  0  0  0
   10.1027  -10.6826    0.0000 C   0  0  0  0  0  0  0  0  0  0  0  0
   10.1027   -9.8576    0.0000 C   0  0  0  0  0  0  0  0  0  0  0  0
   10.8172  -11.0951    0.0000 C   0  0  0  0  0  0  0  0  0  0  0  0
  1  2  2  0  0  0  0
  2  3  1  0  0  0  0
  3  4  2  0  0  0  0
  4  5  1  0  0  0  0
  5  6  2  0  0  0  0
  6  1  1  0  0  0  0
  1  7  1  0  0  0  0
  7  8  1  0  0  0  0
  8  9  1  0  0  0  0
  9 10  1  0  0  0  0
 10 11  1  0  0  0  0
 11 12  2  0  0  0  0
 12 13  1  0  0  0  0
 13 14  1  0  0  0  0
  7 15  2  0  0  0  0
  6 16  1  0  0  0  0
 16 17  2  0  0  0  0
 16 18  1  0  0  0  0
 18 19  1  0  0  0  0
 19 20  1  0  0  0  0
 20 21  1  0  0  0  0
 20 22  1  0  0  0  0
M  END
>  <cdx:fragmentId>
5

$$$$
