91351.cdx
  Mrv1902 05222410252D          

 16 17  0  0  0  0            999 V2000
    4.0085  -11.3014    0.0000 C   0  0  1  0  0  0  0  0  0  0  0  0
    4.0085  -12.1264    0.0000 C   0  0  1  0  0  0  0  0  0  0  0  0
    4.7931  -12.3813    0.0000 C   0  0  1  0  0  0  0  0  0  0  0  0
    5.2781  -11.7139    0.0000 C   0  0  2  0  0  0  0  0  0  0  0  0
    4.7931  -11.0465    0.0000 O   0  0  0  0  0  0  0  0  0  0  0  0
    3.3411  -10.8165    0.0000 C   0  0  0  0  0  0  0  0  0  0  0  0
    6.1031  -11.7139    0.0000 C   0  0  0  0  0  0  0  0  0  0  0  0
    6.5880  -12.3813    0.0000 C   0  0  0  0  0  0  0  0  0  0  0  0
    7.3726  -12.1264    0.0000 O   0  0  0  0  0  0  0  0  0  0  0  0
    7.3726  -11.3014    0.0000 C   0  0  1  0  0  0  0  0  0  0  0  0
    6.5880  -11.0465    0.0000 C   0  0  0  0  0  0  0  0  0  0  0  0
    3.3411  -12.6113    0.0000 O   0  0  0  0  0  0  0  0  0  0  0  0
    5.0481  -13.1660    0.0000 O   0  0  0  0  0  0  0  0  0  0  0  0
    8.0400  -10.8165    0.0000 O   0  0  0  0  0  0  0  0  0  0  0  0
    2.5874  -11.1520    0.0000 O   0  0  0  0  0  0  0  0  0  0  0  0
    6.3330  -13.1660    0.0000 O   0  0  0  0  0  0  0  0  0  0  0  0
  1  2  1  0  0  0  0
  2  3  1  0  0  0  0
  3  4  1  0  0  0  0
  4  5  1  0  0  0  0
  5  1  1  0  0  0  0
  1  6  1  6  0  0  0
  4  7  1  6  0  0  0
  7  8  1  0  0  0  0
  8  9  1  0  0  0  0
  9 10  1  0  0  0  0
 10 11  1  0  0  0  0
 11  7  2  0  0  0  0
  2 12  1  1  0  0  0
  3 13  1  1  0  0  0
 10 14  1  1  0  0  0
  6 15  1  0  0  0  0
  8 16  2  0  0  0  0
M  END
>  <cdx:fragmentId>
5

$$$$
