91355.cdx
  Mrv1902 05222410242D          

 10 10  0  0  0  0            999 V2000
    5.8693   -3.8351    0.0000 C   0  0  0  0  0  0  0  0  0  0  0  0
    5.8693   -4.6601    0.0000 C   0  0  0  0  0  0  0  0  0  0  0  0
    6.5838   -5.0726    0.0000 C   0  0  0  0  0  0  0  0  0  0  0  0
    7.2982   -4.6601    0.0000 C   0  0  0  0  0  0  0  0  0  0  0  0
    7.2982   -3.8351    0.0000 C   0  0  0  0  0  0  0  0  0  0  0  0
    6.5838   -3.4226    0.0000 C   0  0  0  0  0  0  0  0  0  0  0  0
    6.5838   -5.8976    0.0000 O   0  0  0  0  0  0  0  0  0  0  0  0
    8.0127   -5.0726    0.0000 O   0  0  0  0  0  0  0  0  0  0  0  0
    6.5838   -2.5976    0.0000 C   0  0  0  0  0  0  0  0  0  0  0  0
    5.8693   -2.1851    0.0000 O   0  0  0  0  0  0  0  0  0  0  0  0
  1  2  2  0  0  0  0
  2  3  1  0  0  0  0
  3  4  2  0  0  0  0
  4  5  1  0  0  0  0
  5  6  2  0  0  0  0
  6  1  1  0  0  0  0
  3  7  1  0  0  0  0
  4  8  1  0  0  0  0
  6  9  1  0  0  0  0
  9 10  2  0  0  0  0
M  END
>  <cdx:fragmentId>
5

$$$$
