91358.cdx
  Mrv1902 05222410222D          

 39 44  0  0  0  0            999 V2000
    4.0268   -7.3001    0.0000 C   0  0  0  0  0  0  0  0  0  0  0  0
    4.0268   -8.1251    0.0000 C   0  0  0  0  0  0  0  0  0  0  0  0
    4.7413   -8.5376    0.0000 C   0  0  0  0  0  0  0  0  0  0  0  0
    5.4557   -8.1251    0.0000 C   0  0  0  0  0  0  0  0  0  0  0  0
    5.4557   -7.3001    0.0000 C   0  0  0  0  0  0  0  0  0  0  0  0
    4.7413   -6.8876    0.0000 C   0  0  0  0  0  0  0  0  0  0  0  0
    6.1702   -8.5376    0.0000 C   0  0  0  0  0  0  0  0  0  0  0  0
    6.8847   -8.1251    0.0000 C   0  0  0  0  0  0  0  0  0  0  0  0
    6.8847   -7.3001    0.0000 C   0  0  0  0  0  0  0  0  0  0  0  0
    6.1702   -6.8876    0.0000 C   0  0  0  0  0  0  0  0  0  0  0  0
    7.5992   -8.5376    0.0000 C   0  0  0  0  0  0  0  0  0  0  0  0
    8.3136   -8.1251    0.0000 C   0  0  0  0  0  0  0  0  0  0  0  0
    8.3136   -7.3001    0.0000 C   0  0  0  0  0  0  0  0  0  0  0  0
    7.5992   -6.8876    0.0000 C   0  0  0  0  0  0  0  0  0  0  0  0
    4.7413   -9.3626    0.0000 C   0  0  0  0  0  0  0  0  0  0  0  0
    5.4557   -9.7751    0.0000 C   0  0  0  0  0  0  0  0  0  0  0  0
    6.1702   -9.3626    0.0000 C   0  0  0  0  0  0  0  0  0  0  0  0
    5.4557  -10.6001    0.0000 C   0  0  0  0  0  0  0  0  0  0  0  0
    6.1702  -11.0126    0.0000 C   0  0  0  0  0  0  0  0  0  0  0  0
    6.8847  -10.6001    0.0000 C   0  0  0  0  0  0  0  0  0  0  0  0
    6.8847   -9.7751    0.0000 C   0  0  0  0  0  0  0  0  0  0  0  0
    4.0268   -9.7751    0.0000 C   0  0  0  0  0  0  0  0  0  0  0  0
    4.0268  -10.6001    0.0000 C   0  0  0  0  0  0  0  0  0  0  0  0
    4.7413  -11.0126    0.0000 C   0  0  0  0  0  0  0  0  0  0  0  0
    7.5992  -11.0126    0.0000 C   0  0  0  0  0  0  0  0  0  0  0  0
    8.3136  -10.6001    0.0000 C   0  0  0  0  0  0  0  0  0  0  0  0
    8.3136   -9.7751    0.0000 C   0  0  0  0  0  0  0  0  0  0  0  0
    7.5992   -9.3626    0.0000 C   0  0  0  0  0  0  0  0  0  0  0  0
    3.3123   -8.5376    0.0000 O   0  0  0  0  0  0  0  0  0  0  0  0
    4.7413   -6.0626    0.0000 O   0  0  0  0  0  0  0  0  0  0  0  0
    6.1702   -6.0626    0.0000 O   0  0  0  0  0  0  0  0  0  0  0  0
    7.5992   -6.0626    0.0000 O   0  0  0  0  0  0  0  0  0  0  0  0
    9.0281   -8.5376    0.0000 C   0  0  0  0  0  0  0  0  0  0  0  0
    3.3123   -9.3626    0.0000 O   0  0  0  0  0  0  0  0  0  0  0  0
    4.7413  -11.8376    0.0000 O   0  0  0  0  0  0  0  0  0  0  0  0
    6.1702  -11.8376    0.0000 O   0  0  0  0  0  0  0  0  0  0  0  0
    7.5992  -11.8376    0.0000 O   0  0  0  0  0  0  0  0  0  0  0  0
    9.0281   -9.3626    0.0000 C   0  0  0  0  0  0  0  0  0  0  0  0
    9.7426   -8.1251    0.0000 O   0  0  0  0  0  0  0  0  0  0  0  0
  1  2  1  0  0  0  0
  2  3  2  0  0  0  0
  3  4  1  0  0  0  0
  4  5  2  0  0  0  0
  5  6  1  0  0  0  0
  6  1  2  0  0  0  0
  4  7  1  0  0  0  0
  7  8  1  0  0  0  0
  8  9  2  0  0  0  0
  9 10  1  0  0  0  0
 10  5  1  0  0  0  0
  8 11  1  0  0  0  0
 11 12  2  0  0  0  0
 12 13  1  0  0  0  0
 13 14  2  0  0  0  0
 14  9  1  0  0  0  0
 15 16  1  0  0  0  0
 16 17  1  0  0  0  0
 17  7  2  0  0  0  0
 16 18  2  0  0  0  0
 18 19  1  0  0  0  0
 19 20  1  0  0  0  0
 20 21  2  0  0  0  0
 21 17  1  0  0  0  0
 15 22  2  0  0  0  0
 22 23  1  0  0  0  0
 23 24  2  0  0  0  0
 24 18  1  0  0  0  0
 20 25  1  0  0  0  0
 25 26  2  0  0  0  0
 26 27  1  0  0  0  0
 27 28  2  0  0  0  0
 28 21  1  0  0  0  0
  2 29  1  0  0  0  0
  6 30  1  0  0  0  0
 10 31  2  0  0  0  0
 14 32  1  0  0  0  0
 12 33  1  0  0  0  0
 22 34  1  0  0  0  0
 24 35  1  0  0  0  0
 19 36  2  0  0  0  0
 25 37  1  0  0  0  0
 27 38  1  0  0  0  0
 33 39  1  0  0  0  0
M  END
>  <cdx:fragmentId>
5

$$$$
