91359.cdx
  Mrv1902 05222410232D          

 46 55  0  0  0  0            999 V2000
    6.4241   -8.6966    0.0000 O   0  0  0  0  0  0  0  0  0  0  0  0
    6.4241  -12.8216    0.0000 O   0  0  0  0  0  0  0  0  0  0  0  0
    8.5675   -9.1091    0.0000 C   0  0  0  0  0  0  0  0  0  0  0  0
    7.8530   -8.6966    0.0000 C   0  0  0  0  0  0  0  0  0  0  0  0
    7.1386   -9.1091    0.0000 C   0  0  0  0  0  0  0  0  0  0  0  0
    7.1386   -9.9341    0.0000 C   0  0  0  0  0  0  0  0  0  0  0  0
    6.5175  -10.7525    0.0000 O   0  0  0  0  0  0  0  0  0  0  0  0
    7.8530  -10.3466    0.0000 C   0  0  0  0  0  0  0  0  0  0  0  0
    7.8530  -11.1716    0.0000 C   0  0  1  0  0  0  0  0  0  0  0  0
    7.1386  -11.5841    0.0000 C   0  0  2  0  0  0  0  0  0  0  0  0
    7.1386  -12.4091    0.0000 C   0  0  2  0  0  0  0  0  0  0  0  0
    7.8530  -12.8216    0.0000 C   0  0  0  0  0  0  0  0  0  0  0  0
    8.5675  -12.4091    0.0000 C   0  0  0  0  0  0  0  0  0  0  0  0
    8.5675  -11.5841    0.0000 C   0  0  1  0  0  0  0  0  0  0  0  0
    8.5675  -10.7591    0.0000 H   0  0  0  0  0  0  0  0  0  0  0  0
    9.2820  -11.1716    0.0000 C   0  0  2  0  0  0  0  0  0  0  0  0
    9.2675  -12.0725    0.0000 N   0  0  0  0  0  0  0  0  0  0  0  0
    9.9820  -12.4850    0.0000 C   0  0  0  0  0  0  0  0  0  0  0  0
    8.5666  -12.5824    0.0000 C   0  0  0  0  0  0  0  0  0  0  0  0
    7.8650  -12.0725    0.0000 C   0  0  0  0  0  0  0  0  0  0  0  0
    9.2820  -10.3466    0.0000 C   0  0  0  0  0  0  0  0  0  0  0  0
    8.5675   -9.9341    0.0000 C   0  0  0  0  0  0  0  0  0  0  0  0
    6.3417  -11.7976    0.0000 H   0  0  0  0  0  0  0  0  0  0  0  0
    9.2674   -7.9008    0.0000 O   0  0  0  0  0  0  0  0  0  0  0  0
    9.2633   -3.7758    0.0000 O   0  0  0  0  0  0  0  0  0  0  0  0
    7.1236   -7.4904    0.0000 C   0  0  0  0  0  0  0  0  0  0  0  0
    7.8384   -7.9022    0.0000 C   0  0  0  0  0  0  0  0  0  0  0  0
    8.5525   -7.4890    0.0000 C   0  0  0  0  0  0  0  0  0  0  0  0
    8.5517   -6.6640    0.0000 C   0  0  0  0  0  0  0  0  0  0  0  0
    9.1719   -5.8450    0.0000 O   0  0  0  0  0  0  0  0  0  0  0  0
    7.8368   -6.2522    0.0000 C   0  0  0  0  0  0  0  0  0  0  0  0
    7.8360   -5.4272    0.0000 C   0  0  1  0  0  0  0  0  0  0  0  0
    8.5500   -5.0140    0.0000 C   0  0  2  0  0  0  0  0  0  0  0  0
    8.5492   -4.1890    0.0000 C   0  0  2  0  0  0  0  0  0  0  0  0
    7.8343   -3.7772    0.0000 C   0  0  0  0  0  0  0  0  0  0  0  0
    7.1203   -4.1905    0.0000 C   0  0  0  0  0  0  0  0  0  0  0  0
    7.1211   -5.0155    0.0000 C   0  0  1  0  0  0  0  0  0  0  0  0
    7.1219   -5.8404    0.0000 H   0  0  0  0  0  0  0  0  0  0  0  0
    6.4070   -5.4287    0.0000 C   0  0  2  0  0  0  0  0  0  0  0  0
    6.4206   -4.5277    0.0000 N   0  0  0  0  0  0  0  0  0  0  0  0
    5.7057   -4.1160    0.0000 C   0  0  0  0  0  0  0  0  0  0  0  0
    7.1210   -4.0172    0.0000 C   0  0  0  0  0  0  0  0  0  0  0  0
    7.8231   -4.5263    0.0000 C   0  0  0  0  0  0  0  0  0  0  0  0
    6.4078   -6.2537    0.0000 C   0  0  0  0  0  0  0  0  0  0  0  0
    7.1227   -6.6654    0.0000 C   0  0  0  0  0  0  0  0  0  0  0  0
    9.3467   -4.7997    0.0000 H   0  0  0  0  0  0  0  0  0  0  0  0
  3  4  2  0  0  0  0
  4  5  1  0  0  0  0
  1  5  1  0  0  0  0
  5  6  2  0  0  0  0
  6  7  1  0  0  0  0
  6  8  1  0  0  0  0
  8  9  1  0  0  0  0
  9 10  1  0  0  0  0
 10  7  1  0  0  0  0
 10 11  1  0  0  0  0
 11  2  1  6  0  0  0
 11 12  1  0  0  0  0
 12 13  2  0  0  0  0
 13 14  1  0  0  0  0
  9 14  1  0  0  0  0
 14 15  1  1  0  0  0
 14 16  1  0  0  0  0
 16 17  1  1  0  0  0
 17 18  1  0  0  0  0
 17 19  1  0  0  0  0
 19 20  1  0  0  0  0
  9 20  1  1  0  0  0
 16 21  1  0  0  0  0
 21 22  1  0  0  0  0
  8 22  2  0  0  0  0
  3 22  1  0  0  0  0
 10 23  1  1  0  0  0
 26 27  2  0  0  0  0
 27 28  1  0  0  0  0
 24 28  1  0  0  0  0
 28 29  2  0  0  0  0
 29 30  1  0  0  0  0
 29 31  1  0  0  0  0
 31 32  1  0  0  0  0
 32 33  1  0  0  0  0
 33 30  1  0  0  0  0
 33 34  1  0  0  0  0
 34 25  1  6  0  0  0
 34 35  1  0  0  0  0
 35 36  2  0  0  0  0
 36 37  1  0  0  0  0
 32 37  1  0  0  0  0
 37 38  1  1  0  0  0
 37 39  1  0  0  0  0
 39 40  1  1  0  0  0
 40 41  1  0  0  0  0
 40 42  1  0  0  0  0
 42 43  1  0  0  0  0
 32 43  1  1  0  0  0
 39 44  1  0  0  0  0
 44 45  1  0  0  0  0
 31 45  2  0  0  0  0
 26 45  1  0  0  0  0
 33 46  1  1  0  0  0
 27  4  1  0  0  0  0
M  END
>  <cdx:fragmentId>
1183

$$$$
