91353.cdx
  Mrv1902 05222410252D          

 88 97  0  0  0  0            999 V2000
    6.3093   -4.0001    0.0000 C   0  0  1  0  0  0  0  0  0  0  0  0
    6.3093   -4.8251    0.0000 C   0  0  1  0  0  0  0  0  0  0  0  0
    7.0238   -5.2376    0.0000 C   0  0  2  0  0  0  0  0  0  0  0  0
    7.7382   -4.8251    0.0000 C   0  0  0  0  0  0  0  0  0  0  0  0
    7.7382   -4.0001    0.0000 C   0  0  1  0  0  0  0  0  0  0  0  0
    7.0238   -3.5876    0.0000 C   0  0  2  0  0  0  0  0  0  0  0  0
    8.4527   -3.5876    0.0000 O   0  0  0  0  0  0  0  0  0  0  0  0
    8.4527   -2.7626    0.0000 O   0  0  0  0  0  0  0  0  0  0  0  0
    7.7382   -2.3501    0.0000 C   0  0  1  0  0  0  0  0  0  0  0  0
    7.0238   -2.7626    0.0000 O   0  0  0  0  0  0  0  0  0  0  0  0
    9.1672   -2.3501    0.0000 C   0  0  1  0  0  0  0  0  0  0  0  0
    9.1672   -1.5251    0.0000 C   0  0  2  0  0  0  0  0  0  0  0  0
    8.4527   -1.1126    0.0000 C   0  0  1  0  0  0  0  0  0  0  0  0
    7.7382   -1.5251    0.0000 C   0  0  1  0  0  0  0  0  0  0  0  0
    5.5948   -5.2376    0.0000 C   0  0  0  0  0  0  0  0  0  0  0  0
    5.5948   -6.0626    0.0000 C   0  0  0  0  0  0  0  0  0  0  0  0
    6.3093   -6.4751    0.0000 C   0  0  2  0  0  0  0  0  0  0  0  0
    7.0238   -6.0626    0.0000 C   0  0  2  0  0  0  0  0  0  0  0  0
    6.3093   -7.3001    0.0000 C   0  0  1  0  0  0  0  0  0  0  0  0
    7.0238   -7.7126    0.0000 C   0  0  0  0  0  0  0  0  0  0  0  0
    7.7382   -7.3001    0.0000 C   0  0  0  0  0  0  0  0  0  0  0  0
    7.7382   -6.4751    0.0000 C   0  0  0  0  0  0  0  0  0  0  0  0
    5.5948   -7.7126    0.0000 C   0  0  0  0  0  0  0  0  0  0  0  0
    5.5948   -8.5376    0.0000 C   0  0  0  0  0  0  0  0  0  0  0  0
    6.3093   -8.9501    0.0000 C   0  0  2  0  0  0  0  0  0  0  0  0
    7.0238   -8.5376    0.0000 C   0  0  1  0  0  0  0  0  0  0  0  0
    6.3093   -9.7751    0.0000 C   0  0  0  0  0  0  0  0  0  0  0  0
    7.0238  -10.1876    0.0000 C   0  0  0  0  0  0  0  0  0  0  0  0
    7.7382   -9.7751    0.0000 C   0  0  0  0  0  0  0  0  0  0  0  0
    7.7382   -8.9501    0.0000 C   0  0  0  0  0  0  0  0  0  0  0  0
    5.5948   -9.3626    0.0000 C   0  0  0  0  0  0  0  0  0  0  0  0
    4.8804   -8.9501    0.0000 O   0  0  0  0  0  0  0  0  0  0  0  0
    5.5948  -10.1876    0.0000 O   0  0  0  0  0  0  0  0  0  0  0  0
    4.8804  -10.6001    0.0000 C   0  0  2  0  0  0  0  0  0  0  0  0
    4.1659  -10.1876    0.0000 O   0  0  0  0  0  0  0  0  0  0  0  0
    3.4514  -10.6001    0.0000 C   0  0  1  0  0  0  0  0  0  0  0  0
    3.4514  -11.4251    0.0000 C   0  0  2  0  0  0  0  0  0  0  0  0
    4.1659  -11.8376    0.0000 C   0  0  1  0  0  0  0  0  0  0  0  0
    4.8804  -11.4251    0.0000 C   0  0  1  0  0  0  0  0  0  0  0  0
    4.1659  -12.6626    0.0000 O   0  0  0  0  0  0  0  0  0  0  0  0
    4.8804  -13.0751    0.0000 O   0  0  0  0  0  0  0  0  0  0  0  0
    5.5948  -12.6626    0.0000 C   0  0  1  0  0  0  0  0  0  0  0  0
    5.5948  -11.8376    0.0000 O   0  0  0  0  0  0  0  0  0  0  0  0
    4.8804  -13.9001    0.0000 C   0  0  2  0  0  0  0  0  0  0  0  0
    5.5948  -14.3126    0.0000 C   0  0  1  0  0  0  0  0  0  0  0  0
    6.3093  -13.9001    0.0000 C   0  0  2  0  0  0  0  0  0  0  0  0
    6.3093  -13.0751    0.0000 C   0  0  1  0  0  0  0  0  0  0  0  0
    7.0238  -14.3126    0.0000 O   0  0  0  0  0  0  0  0  0  0  0  0
    7.7382  -13.9001    0.0000 C   0  0  2  0  0  0  0  0  0  0  0  0
    7.7382  -13.0751    0.0000 O   0  0  0  0  0  0  0  0  0  0  0  0
    7.0238  -12.6626    0.0000 O   0  0  0  0  0  0  0  0  0  0  0  0
    8.5229  -14.1551    0.0000 C   0  0  1  0  0  0  0  0  0  0  0  0
    9.0078  -13.4876    0.0000 C   0  0  2  0  0  0  0  0  0  0  0  0
    8.5229  -12.8202    0.0000 C   0  0  0  0  0  0  0  0  0  0  0  0
    5.5948  -15.1376    0.0000 O   0  0  0  0  0  0  0  0  0  0  0  0
    6.3093  -15.5501    0.0000 C   0  0  2  0  0  0  0  0  0  0  0  0
    7.0238  -15.1376    0.0000 O   0  0  0  0  0  0  0  0  0  0  0  0
    6.3093  -16.3751    0.0000 C   0  0  1  0  0  0  0  0  0  0  0  0
    7.0238  -16.7876    0.0000 C   0  0  2  0  0  0  0  0  0  0  0  0
    7.7382  -16.3751    0.0000 C   0  0  1  0  0  0  0  0  0  0  0  0
    7.7382  -15.5501    0.0000 C   0  0  0  0  0  0  0  0  0  0  0  0
    9.8817   -2.7626    0.0000 C   0  0  0  0  0  0  0  0  0  0  0  0
    9.8817   -3.5876    0.0000 O   0  0  0  0  0  0  0  0  0  0  0  0
    5.7259   -3.4168    0.0000 C   0  0  0  0  0  0  0  0  0  0  0  0
    4.9009   -3.4168    0.0000 O   0  0  0  0  0  0  0  0  0  0  0  0
    8.5632   -9.7751    0.0000 C   0  0  0  0  0  0  0  0  0  0  0  0
    7.9518  -10.5720    0.0000 C   0  0  0  0  0  0  0  0  0  0  0  0
    2.7369  -10.1876    0.0000 C   0  0  0  0  0  0  0  0  0  0  0  0
    2.7369   -9.3626    0.0000 O   0  0  0  0  0  0  0  0  0  0  0  0
    9.8328  -13.4876    0.0000 C   0  0  0  0  0  0  0  0  0  0  0  0
   10.2453  -12.7732    0.0000 O   0  0  0  0  0  0  0  0  0  0  0  0
    8.4527   -0.2876    0.0000 O   0  0  0  0  0  0  0  0  0  0  0  0
    5.4843   -4.0001    0.0000 C   0  0  0  0  0  0  0  0  0  0  0  0
    7.8488   -5.2376    0.0000 C   0  0  0  0  0  0  0  0  0  0  0  0
    5.4843   -6.4751    0.0000 C   0  0  0  0  0  0  0  0  0  0  0  0
    7.7382   -8.1251    0.0000 H   0  0  0  0  0  0  0  0  0  0  0  0
    8.7778  -14.9397    0.0000 O   0  0  0  0  0  0  0  0  0  0  0  0
    8.4527  -16.7876    0.0000 O   0  0  0  0  0  0  0  0  0  0  0  0
    5.5948  -16.7876    0.0000 O   0  0  0  0  0  0  0  0  0  0  0  0
    9.5912  -14.0710    0.0000 O   0  0  0  0  0  0  0  0  0  0  0  0
    7.0238   -1.1126    0.0000 O   0  0  0  0  0  0  0  0  0  0  0  0
    9.8817   -1.1126    0.0000 O   0  0  0  0  0  0  0  0  0  0  0  0
    5.5124   -4.6116    0.0000 H   0  0  0  0  0  0  0  0  0  0  0  0
    7.8488   -6.0626    0.0000 H   0  0  0  0  0  0  0  0  0  0  0  0
    5.4843   -7.3001    0.0000 C   0  0  0  0  0  0  0  0  0  0  0  0
    2.7369  -11.8376    0.0000 O   0  0  0  0  0  0  0  0  0  0  0  0
    4.1659  -14.3126    0.0000 C   0  0  0  0  0  0  0  0  0  0  0  0
    7.0238  -17.6126    0.0000 O   0  0  0  0  0  0  0  0  0  0  0  0
  1  2  1  0  0  0  0
  2  3  1  0  0  0  0
  3  4  1  0  0  0  0
  4  5  1  0  0  0  0
  5  6  1  0  0  0  0
  6  1  1  0  0  0  0
  5  7  1  1  0  0  0
  8  9  1  0  0  0  0
  9 10  1  1  0  0  0
  6 10  1  1  0  0  0
  8 11  1  0  0  0  0
 11 12  1  0  0  0  0
 12 13  1  0  0  0  0
 13 14  1  0  0  0  0
 14  9  1  0  0  0  0
  2 15  1  0  0  0  0
 15 16  1  0  0  0  0
 16 17  1  0  0  0  0
 17 18  1  0  0  0  0
 18  3  1  0  0  0  0
 17 19  1  0  0  0  0
 19 20  1  0  0  0  0
 20 21  2  0  0  0  0
 21 22  1  0  0  0  0
 22 18  1  0  0  0  0
 19 23  1  0  0  0  0
 23 24  1  0  0  0  0
 24 25  1  0  0  0  0
 25 26  1  0  0  0  0
 26 20  1  0  0  0  0
 25 27  1  0  0  0  0
 27 28  1  0  0  0  0
 28 29  1  0  0  0  0
 29 30  1  0  0  0  0
 30 26  1  0  0  0  0
 25 31  1  1  0  0  0
 31 32  2  0  0  0  0
 31 33  1  0  0  0  0
 34 33  1  1  0  0  0
 34 35  1  0  0  0  0
 35 36  1  0  0  0  0
 36 37  1  0  0  0  0
 37 38  1  0  0  0  0
 38 39  1  0  0  0  0
 39 34  1  0  0  0  0
 38 40  1  1  0  0  0
 41 42  1  0  0  0  0
 42 43  1  1  0  0  0
 39 43  1  6  0  0  0
 41 44  1  0  0  0  0
 44 45  1  0  0  0  0
 45 46  1  0  0  0  0
 46 47  1  0  0  0  0
 47 42  1  0  0  0  0
 46 48  1  6  0  0  0
 49 48  1  6  0  0  0
 49 50  1  0  0  0  0
 47 51  1  6  0  0  0
 49 52  1  0  0  0  0
 52 53  1  0  0  0  0
 53 54  1  0  0  0  0
 54 50  1  0  0  0  0
 45 55  1  1  0  0  0
 56 55  1  6  0  0  0
 56 57  1  0  0  0  0
 56 58  1  0  0  0  0
 58 59  1  0  0  0  0
 59 60  1  0  0  0  0
 60 61  1  0  0  0  0
 61 57  1  0  0  0  0
 11 62  1  1  0  0  0
 62 63  1  0  0  0  0
  1 64  1  0  0  0  0
 64 65  1  0  0  0  0
 29 66  1  0  0  0  0
 29 67  1  0  0  0  0
 36 68  1  1  0  0  0
 68 69  1  0  0  0  0
 53 70  1  0  0  0  0
 70 71  1  0  0  0  0
 13 72  1  1  0  0  0
  1 73  1  1  0  0  0
  3 74  1  1  0  0  0
 17 75  1  1  0  0  0
 26 76  1  1  0  0  0
 52 77  1  1  0  0  0
 60 78  1  1  0  0  0
 58 79  1  1  0  0  0
 53 80  1  1  0  0  0
 14 81  1  6  0  0  0
 12 82  1  6  0  0  0
  2 83  1  6  0  0  0
 18 84  1  6  0  0  0
 19 85  1  6  0  0  0
 37 86  1  6  0  0  0
 44 87  1  6  0  0  0
 59 88  1  6  0  0  0
M  END
>  <cdx:fragmentId>
5

$$$$
