91350.cdx
  Mrv1902 05222410262D          

 19 19  0  0  0  0            999 V2000
   12.9348   -4.8275    0.0000 C   0  0  0  0  0  0  0  0  0  0  0  0
   12.2203   -5.2400    0.0000 C   0  0  0  0  0  0  0  0  0  0  0  0
   11.5058   -4.8275    0.0000 C   0  0  0  0  0  0  0  0  0  0  0  0
   10.7914   -5.2400    0.0000 C   0  0  0  0  0  0  0  0  0  0  0  0
   10.0769   -5.6525    0.0000 C   0  0  0  0  0  0  0  0  0  0  0  0
    9.3624   -6.0650    0.0000 C   0  0  0  0  0  0  0  0  0  0  0  0
    8.6480   -6.4775    0.0000 C   0  0  0  0  0  0  0  0  0  0  0  0
    7.9335   -6.8900    0.0000 C   0  0  0  0  0  0  0  0  0  0  0  0
   11.5058   -4.0025    0.0000 O   0  0  0  0  0  0  0  0  0  0  0  0
    6.8065   -5.7630    0.0000 O   0  0  0  0  0  0  0  0  0  0  0  0
    7.2190   -6.4775    0.0000 C   0  0  0  0  0  0  0  0  0  0  0  0
    6.3940   -6.4775    0.0000 C   0  0  0  0  0  0  0  0  0  0  0  0
    5.6795   -6.8900    0.0000 C   0  0  0  0  0  0  0  0  0  0  0  0
    4.9651   -6.4775    0.0000 C   0  0  0  0  0  0  0  0  0  0  0  0
    4.2506   -6.8900    0.0000 C   0  0  0  0  0  0  0  0  0  0  0  0
    3.5361   -6.4775    0.0000 C   0  0  0  0  0  0  0  0  0  0  0  0
    2.8217   -6.8900    0.0000 C   0  0  0  0  0  0  0  0  0  0  0  0
    2.1072   -6.4775    0.0000 C   0  0  0  0  0  0  0  0  0  0  0  0
    1.3927   -6.8900    0.0000 C   0  0  0  0  0  0  0  0  0  0  0  0
  1  2  2  0  0  0  0
  2  3  1  0  0  0  0
  3  4  1  0  0  0  0
  4  5  3  0  0  0  0
  5  6  1  0  0  0  0
  6  7  3  0  0  0  0
  7  8  1  0  0  0  0
  3  9  2  0  0  0  0
 10 11  1  0  0  0  0
 11 12  1  0  0  0  0
 10 12  1  0  0  0  0
 13 14  1  0  0  0  0
 14 15  1  0  0  0  0
 15 16  1  0  0  0  0
 16 17  1  0  0  0  0
 17 18  1  0  0  0  0
 18 19  1  0  0  0  0
 12 13  1  0  0  0  0
  8 11  1  0  0  0  0
M  END
>  <cdx:fragmentId>
17067

$$$$
