91352.cdx
  Mrv1902 05222410242D          

 51 51  0  0  0  0            999 V2000
   19.3862   -7.6161    0.0000 C   0  0  0  0  0  0  0  0  0  0  0  0
   18.6720   -8.0285    0.0000 C   0  0  0  0  0  0  0  0  0  0  0  0
   17.9577   -7.6161    0.0000 C   0  0  0  0  0  0  0  0  0  0  0  0
   17.2435   -8.0285    0.0000 C   0  0  0  0  0  0  0  0  0  0  0  0
   16.5293   -7.6161    0.0000 C   0  0  0  0  0  0  0  0  0  0  0  0
   15.8150   -8.0285    0.0000 C   0  0  0  0  0  0  0  0  0  0  0  0
   15.1008   -7.6161    0.0000 C   0  0  0  0  0  0  0  0  0  0  0  0
   14.3865   -8.0285    0.0000 C   0  0  0  0  0  0  0  0  0  0  0  0
   13.6723   -7.6161    0.0000 C   0  0  0  0  0  0  0  0  0  0  0  0
   12.9580   -8.0285    0.0000 C   0  0  0  0  0  0  0  0  0  0  0  0
   12.2438   -7.6161    0.0000 C   0  0  0  0  0  0  0  0  0  0  0  0
   11.5295   -8.0285    0.0000 C   0  0  0  0  0  0  0  0  0  0  0  0
   10.8153   -7.6161    0.0000 C   0  0  0  0  0  0  0  0  0  0  0  0
   10.1010   -8.0285    0.0000 C   0  0  0  0  0  0  0  0  0  0  0  0
    9.3868   -7.6161    0.0000 C   0  0  2  0  0  0  0  0  0  0  0  0
    8.6725   -8.0285    0.0000 C   0  0  0  0  0  0  0  0  0  0  0  0
    7.9583   -7.6161    0.0000 O   0  0  0  0  0  0  0  0  0  0  0  0
    9.3868   -6.7914    0.0000 O   0  0  0  0  0  0  0  0  0  0  0  0
    8.6725   -8.8532    0.0000 N   0  0  0  0  0  0  0  0  0  0  0  0
    8.6725   -9.6780    0.0000 C   0  0  1  0  0  0  0  0  0  0  0  0
    7.9583  -10.0904    0.0000 C   0  0  0  0  0  0  0  0  0  0  0  0
    9.3868  -10.0904    0.0000 C   0  0  1  0  0  0  0  0  0  0  0  0
   10.1010   -9.6780    0.0000 C   0  0  1  0  0  0  0  0  0  0  0  0
   10.8153  -10.0904    0.0000 C   0  0  0  0  0  0  0  0  0  0  0  0
   11.5295   -9.6780    0.0000 C   0  0  0  0  0  0  0  0  0  0  0  0
   12.2438  -10.0904    0.0000 C   0  0  0  0  0  0  0  0  0  0  0  0
   12.9580   -9.6780    0.0000 C   0  0  0  0  0  0  0  0  0  0  0  0
   13.6723  -10.0904    0.0000 C   0  0  0  0  0  0  0  0  0  0  0  0
   14.3865   -9.6780    0.0000 C   0  0  0  0  0  0  0  0  0  0  0  0
   15.1008  -10.0904    0.0000 C   0  0  0  0  0  0  0  0  0  0  0  0
   15.8150   -9.6780    0.0000 C   0  0  0  0  0  0  0  0  0  0  0  0
   16.5293  -10.0904    0.0000 C   0  0  0  0  0  0  0  0  0  0  0  0
   17.2435   -9.6780    0.0000 C   0  0  0  0  0  0  0  0  0  0  0  0
   17.9577  -10.0904    0.0000 C   0  0  0  0  0  0  0  0  0  0  0  0
   18.6720   -9.6780    0.0000 C   0  0  0  0  0  0  0  0  0  0  0  0
   19.3862  -10.0904    0.0000 C   0  0  0  0  0  0  0  0  0  0  0  0
   20.1005   -9.6780    0.0000 C   0  0  0  0  0  0  0  0  0  0  0  0
    7.2441   -9.6780    0.0000 O   0  0  0  0  0  0  0  0  0  0  0  0
    5.0952  -10.0949    0.0000 C   0  0  2  0  0  0  0  0  0  0  0  0
    5.0952  -10.9197    0.0000 C   0  0  2  0  0  0  0  0  0  0  0  0
    5.8094  -11.3321    0.0000 C   0  0  1  0  0  0  0  0  0  0  0  0
    6.5236  -10.9197    0.0000 C   0  0  2  0  0  0  0  0  0  0  0  0
    6.5236  -10.0949    0.0000 C   0  0  1  0  0  0  0  0  0  0  0  0
    5.8094   -9.6826    0.0000 O   0  0  0  0  0  0  0  0  0  0  0  0
    5.8094  -12.1568    0.0000 O   0  0  0  0  0  0  0  0  0  0  0  0
    4.3809   -9.6826    0.0000 C   0  0  0  0  0  0  0  0  0  0  0  0
    4.3809  -11.3321    0.0000 O   0  0  0  0  0  0  0  0  0  0  0  0
    7.2379  -11.3321    0.0000 O   0  0  0  0  0  0  0  0  0  0  0  0
    3.6667  -10.0949    0.0000 O   0  0  0  0  0  0  0  0  0  0  0  0
    9.3868  -10.9151    0.0000 O   0  0  0  0  0  0  0  0  0  0  0  0
   10.1010   -8.8530    0.0000 O   0  0  0  0  0  0  0  0  0  0  0  0
  2  1  1  0  0  0  0
  3  2  1  0  0  0  0
  4  3  1  0  0  0  0
  5  4  1  0  0  0  0
  6  5  1  0  0  0  0
  7  6  1  0  0  0  0
  8  7  1  0  0  0  0
  9  8  1  0  0  0  0
 10  9  1  0  0  0  0
 11 10  1  0  0  0  0
 12 11  1  0  0  0  0
 13 12  1  0  0  0  0
 14 13  1  0  0  0  0
 15 14  1  0  0  0  0
 16 15  1  0  0  0  0
 17 16  2  0  0  0  0
 15 18  1  6  0  0  0
 16 19  1  0  0  0  0
 20 19  1  6  0  0  0
 20 21  1  0  0  0  0
 20 22  1  0  0  0  0
 22 23  1  0  0  0  0
 23 24  1  0  0  0  0
 24 25  1  0  0  0  0
 25 26  1  0  0  0  0
 26 27  1  0  0  0  0
 27 28  1  0  0  0  0
 28 29  1  0  0  0  0
 29 30  1  0  0  0  0
 30 31  2  0  0  0  0
 31 32  1  0  0  0  0
 32 33  1  0  0  0  0
 33 34  1  0  0  0  0
 34 35  1  0  0  0  0
 35 36  1  0  0  0  0
 36 37  1  0  0  0  0
 21 38  1  0  0  0  0
 39 40  1  0  0  0  0
 40 41  1  0  0  0  0
 41 42  1  0  0  0  0
 42 43  1  0  0  0  0
 43 44  1  0  0  0  0
 44 39  1  0  0  0  0
 41 45  1  1  0  0  0
 39 46  1  1  0  0  0
 40 47  1  6  0  0  0
 42 48  1  6  0  0  0
 46 49  1  0  0  0  0
 22 50  1  1  0  0  0
 43 38  1  1  0  0  0
 23 51  1  6  0  0  0
M  END
>  <cdx:fragmentId>
3

$$$$
