91361.cdx
  Mrv1902 05222410202D          

 34 38  0  0  0  0            999 V2000
    4.3431  -12.0026    0.0000 C   0  0  0  0  0  0  0  0  0  0  0  0
    4.3431  -12.8276    0.0000 C   0  0  1  0  0  0  0  0  0  0  0  0
    5.0575  -13.2401    0.0000 C   0  0  1  0  0  0  0  0  0  0  0  0
    5.7720  -12.8276    0.0000 C   0  0  0  0  0  0  0  0  0  0  0  0
    5.7720  -12.0026    0.0000 C   0  0  2  0  0  0  0  0  0  0  0  0
    5.0575  -11.5901    0.0000 C   0  0  0  0  0  0  0  0  0  0  0  0
    6.4865  -13.2401    0.0000 C   0  0  0  0  0  0  0  0  0  0  0  0
    7.2009  -12.8276    0.0000 C   0  0  0  0  0  0  0  0  0  0  0  0
    7.2009  -12.0026    0.0000 C   0  0  2  0  0  0  0  0  0  0  0  0
    6.4865  -11.5901    0.0000 C   0  0  0  0  0  0  0  0  0  0  0  0
    7.9154  -11.5901    0.0000 C   0  0  1  0  0  0  0  0  0  0  0  0
    7.9154  -10.7651    0.0000 C   0  0  0  0  0  0  0  0  0  0  0  0
    7.2009  -10.3526    0.0000 C   0  0  0  0  0  0  0  0  0  0  0  0
    6.4865  -10.7651    0.0000 C   0  0  0  0  0  0  0  0  0  0  0  0
    8.6299  -12.0026    0.0000 C   0  0  0  0  0  0  0  0  0  0  0  0
    9.3444  -11.5901    0.0000 C   0  0  0  0  0  0  0  0  0  0  0  0
    9.3444  -10.7651    0.0000 C   0  0  2  0  0  0  0  0  0  0  0  0
    8.6299  -10.3526    0.0000 C   0  0  0  0  0  0  0  0  0  0  0  0
   10.0588  -10.3526    0.0000 C   0  0  0  0  0  0  0  0  0  0  0  0
   10.0588   -9.5276    0.0000 C   0  0  0  0  0  0  0  0  0  0  0  0
    9.3444   -9.1151    0.0000 C   0  0  0  0  0  0  0  0  0  0  0  0
    8.6299   -9.5276    0.0000 C   0  0  1  0  0  0  0  0  0  0  0  0
    3.6286  -13.2401    0.0000 O   0  0  0  0  0  0  0  0  0  0  0  0
    5.4700  -13.9546    0.0000 C   0  0  0  0  0  0  0  0  0  0  0  0
    5.7720  -11.1776    0.0000 C   0  0  0  0  0  0  0  0  0  0  0  0
    7.2009  -11.1776    0.0000 C   0  0  0  0  0  0  0  0  0  0  0  0
   10.0588  -11.1776    0.0000 C   0  0  0  0  0  0  0  0  0  0  0  0
    9.3444   -8.2901    0.0000 C   0  0  0  0  0  0  0  0  0  0  0  0
    7.9154   -9.1151    0.0000 C   0  0  0  0  0  0  0  0  0  0  0  0
    7.9154  -12.4151    0.0000 C   0  0  0  0  0  0  0  0  0  0  0  0
    4.6450  -13.9546    0.0000 C   0  0  0  0  0  0  0  0  0  0  0  0
    2.9141  -12.8276    0.0000 C   0  0  0  0  0  0  0  0  0  0  0  0
    2.1996  -13.2401    0.0000 C   0  0  0  0  0  0  0  0  0  0  0  0
    2.9141  -12.0026    0.0000 O   0  0  0  0  0  0  0  0  0  0  0  0
  1  2  1  0  0  0  0
  2  3  1  0  0  0  0
  3  4  1  0  0  0  0
  4  5  1  0  0  0  0
  5  6  1  0  0  0  0
  6  1  1  0  0  0  0
  4  7  1  0  0  0  0
  7  8  1  0  0  0  0
  8  9  1  0  0  0  0
  9 10  1  0  0  0  0
 10  5  1  0  0  0  0
  9 11  1  0  0  0  0
 11 12  1  0  0  0  0
 12 13  1  0  0  0  0
 13 14  1  0  0  0  0
 14 10  1  0  0  0  0
 11 15  1  0  0  0  0
 15 16  1  0  0  0  0
 16 17  1  0  0  0  0
 17 18  1  0  0  0  0
 18 12  1  0  0  0  0
 17 19  1  0  0  0  0
 19 20  1  0  0  0  0
 20 21  2  0  0  0  0
 21 22  1  0  0  0  0
 22 18  1  0  0  0  0
  2 23  1  1  0  0  0
  3 24  1  1  0  0  0
  5 25  1  1  0  0  0
  9 26  1  1  0  0  0
 17 27  1  1  0  0  0
 21 28  1  0  0  0  0
 22 29  1  6  0  0  0
 11 30  1  6  0  0  0
  3 31  1  6  0  0  0
 23 32  1  0  0  0  0
 32 33  1  0  0  0  0
 32 34  2  0  0  0  0
M  END
>  <cdx:fragmentId>
5

$$$$
