91369.cdx
  Mrv1902 05222410242D          

 53 56  0  0  0  0            999 V2000
    4.0152   -3.6874    0.0000 C   0  0  0  0  0  0  0  0  0  0  0  0
    3.3062   -4.1092    0.0000 C   0  0  0  0  0  0  0  0  0  0  0  0
    3.3169   -4.9341    0.0000 C   0  0  0  0  0  0  0  0  0  0  0  0
    4.0366   -5.3373    0.0000 C   0  0  0  0  0  0  0  0  0  0  0  0
    4.7457   -4.9156    0.0000 C   0  0  0  0  0  0  0  0  0  0  0  0
    4.7350   -4.0906    0.0000 C   0  0  0  0  0  0  0  0  0  0  0  0
    4.0045   -2.8625    0.0000 O   0  0  0  0  0  0  0  0  0  0  0  0
    5.4441   -3.6689    0.0000 O   0  0  0  0  0  0  0  0  0  0  0  0
    6.1638   -4.0721    0.0000 C   0  0  0  0  0  0  0  0  0  0  0  0
    2.5864   -3.7060    0.0000 O   0  0  0  0  0  0  0  0  0  0  0  0
    1.8773   -4.1277    0.0000 C   0  0  0  0  0  0  0  0  0  0  0  0
    4.0473   -6.1622    0.0000 C   0  0  0  0  0  0  0  0  0  0  0  0
    4.7671   -6.5654    0.0000 C   0  0  0  0  0  0  0  0  0  0  0  0
    4.7778   -7.3904    0.0000 C   0  0  0  0  0  0  0  0  0  0  0  0
    5.4975   -7.7936    0.0000 O   0  0  0  0  0  0  0  0  0  0  0  0
    4.0687   -7.8121    0.0000 O   0  0  0  0  0  0  0  0  0  0  0  0
    6.3225   -7.7936    0.0000 C   0  0  0  0  0  0  0  0  0  0  0  0
    6.7350   -8.5080    0.0000 C   0  0  2  0  0  0  0  0  0  0  0  0
    6.3225   -9.2225    0.0000 C   0  0  2  0  0  0  0  0  0  0  0  0
    6.7350   -9.9370    0.0000 C   0  0  1  0  0  0  0  0  0  0  0  0
    7.5600   -9.9370    0.0000 C   0  0  2  0  0  0  0  0  0  0  0  0
    7.9725   -9.2225    0.0000 C   0  0  1  0  0  0  0  0  0  0  0  0
    7.5600   -8.5080    0.0000 O   0  0  0  0  0  0  0  0  0  0  0  0
    8.7975   -9.2225    0.0000 O   0  0  0  0  0  0  0  0  0  0  0  0
    6.3225  -10.6514    0.0000 O   0  0  0  0  0  0  0  0  0  0  0  0
    9.2100   -9.9370    0.0000 C   0  0  2  0  0  0  0  0  0  0  0  0
    8.8745  -10.6907    0.0000 C   0  0  2  0  0  0  0  0  0  0  0  0
    9.4876  -11.2427    0.0000 C   0  0  2  0  0  0  0  0  0  0  0  0
   10.2020  -10.8302    0.0000 C   0  0  1  0  0  0  0  0  0  0  0  0
   10.0305  -10.0232    0.0000 O   0  0  0  0  0  0  0  0  0  0  0  0
   10.9557  -11.1657    0.0000 C   0  0  0  0  0  0  0  0  0  0  0  0
    5.4975   -9.2225    0.0000 O   0  0  0  0  0  0  0  0  0  0  0  0
    7.9725  -10.6514    0.0000 O   0  0  0  0  0  0  0  0  0  0  0  0
    9.6225   -9.2225    0.0000 C   0  0  0  0  0  0  0  0  0  0  0  0
    8.2911  -11.2740    0.0000 O   0  0  0  0  0  0  0  0  0  0  0  0
    9.4013  -12.0632    0.0000 O   0  0  0  0  0  0  0  0  0  0  0  0
    9.2100   -8.5080    0.0000 O   0  0  0  0  0  0  0  0  0  0  0  0
    8.2911  -12.0990    0.0000 C   0  0  0  0  0  0  0  0  0  0  0  0
    7.5766  -12.5115    0.0000 C   0  0  0  0  0  0  0  0  0  0  0  0
    9.0056  -12.5115    0.0000 O   0  0  0  0  0  0  0  0  0  0  0  0
    7.5766  -13.3365    0.0000 C   0  0  0  0  0  0  0  0  0  0  0  0
    6.8622  -13.7490    0.0000 C   0  0  0  0  0  0  0  0  0  0  0  0
    6.1477  -13.3365    0.0000 C   0  0  0  0  0  0  0  0  0  0  0  0
    5.4332  -13.7490    0.0000 C   0  0  0  0  0  0  0  0  0  0  0  0
    5.4332  -14.5740    0.0000 C   0  0  0  0  0  0  0  0  0  0  0  0
    6.1477  -14.9865    0.0000 C   0  0  0  0  0  0  0  0  0  0  0  0
    6.8622  -14.5740    0.0000 C   0  0  0  0  0  0  0  0  0  0  0  0
    4.7187  -14.9865    0.0000 O   0  0  0  0  0  0  0  0  0  0  0  0
    4.7187  -13.3365    0.0000 O   0  0  0  0  0  0  0  0  0  0  0  0
    4.0043  -13.7490    0.0000 C   0  0  0  0  0  0  0  0  0  0  0  0
    6.1477  -15.8115    0.0000 O   0  0  0  0  0  0  0  0  0  0  0  0
    5.4332  -16.2240    0.0000 C   0  0  0  0  0  0  0  0  0  0  0  0
   11.6231  -10.6808    0.0000 O   0  0  0  0  0  0  0  0  0  0  0  0
  1  2  2  0  0  0  0
  2  3  1  0  0  0  0
  3  4  2  0  0  0  0
  4  5  1  0  0  0  0
  5  6  2  0  0  0  0
  6  1  1  0  0  0  0
  1  7  1  0  0  0  0
  6  8  1  0  0  0  0
  8  9  1  0  0  0  0
  2 10  1  0  0  0  0
 10 11  1  0  0  0  0
  4 12  1  0  0  0  0
 12 13  2  0  0  0  0
 13 14  1  0  0  0  0
 14 15  1  0  0  0  0
 14 16  2  0  0  0  0
 15 17  1  0  0  0  0
 18 17  1  1  0  0  0
 18 19  1  0  0  0  0
 19 20  1  0  0  0  0
 20 21  1  0  0  0  0
 21 22  1  0  0  0  0
 22 23  1  0  0  0  0
 23 18  1  0  0  0  0
 22 24  1  1  0  0  0
 20 25  1  1  0  0  0
 26 24  1  1  0  0  0
 26 27  1  0  0  0  0
 27 28  1  0  0  0  0
 28 29  1  0  0  0  0
 29 30  1  0  0  0  0
 30 26  1  0  0  0  0
 29 31  1  1  0  0  0
 19 32  1  6  0  0  0
 21 33  1  6  0  0  0
 26 34  1  6  0  0  0
 27 35  1  6  0  0  0
 28 36  1  6  0  0  0
 34 37  1  0  0  0  0
 35 38  1  0  0  0  0
 38 39  1  0  0  0  0
 38 40  2  0  0  0  0
 39 41  2  0  0  0  0
 41 42  1  0  0  0  0
 42 43  2  0  0  0  0
 43 44  1  0  0  0  0
 44 45  2  0  0  0  0
 45 46  1  0  0  0  0
 46 47  2  0  0  0  0
 47 42  1  0  0  0  0
 45 48  1  0  0  0  0
 44 49  1  0  0  0  0
 49 50  1  0  0  0  0
 46 51  1  0  0  0  0
 51 52  1  0  0  0  0
 31 53  1  0  0  0  0
M  END
>  <cdx:fragmentId>
5

$$$$
