91365.cdx
  Mrv1902 05222410232D          

 23 24  0  0  0  0            999 V2000
    3.7650  -14.1476    0.0000 C   0  0  0  0  0  0  0  0  0  0  0  0
    4.4795  -13.7351    0.0000 C   0  0  0  0  0  0  0  0  0  0  0  0
    4.4795  -12.9101    0.0000 C   0  0  0  0  0  0  0  0  0  0  0  0
    3.7650  -12.4976    0.0000 O   0  0  0  0  0  0  0  0  0  0  0  0
    5.1940  -14.1476    0.0000 N   0  0  0  0  0  0  0  0  0  0  0  0
    5.9084  -13.7351    0.0000 C   0  0  0  0  0  0  0  0  0  0  0  0
    5.9084  -12.9101    0.0000 C   0  0  0  0  0  0  0  0  0  0  0  0
    5.1940  -12.4976    0.0000 C   0  0  0  0  0  0  0  0  0  0  0  0
    6.6229  -12.4976    0.0000 C   0  0  0  0  0  0  0  0  0  0  0  0
    5.9084  -11.2601    0.0000 O   0  0  0  0  0  0  0  0  0  0  0  0
    5.1940  -11.6726    0.0000 C   0  0  0  0  0  0  0  0  0  0  0  0
    7.3374  -12.9101    0.0000 O   0  0  0  0  0  0  0  0  0  0  0  0
    8.0519  -12.4976    0.0000 C   0  0  2  0  0  0  0  0  0  0  0  0
    8.7663  -12.9101    0.0000 O   0  0  0  0  0  0  0  0  0  0  0  0
    9.4808  -12.4976    0.0000 C   0  0  1  0  0  0  0  0  0  0  0  0
    9.4808  -11.6726    0.0000 C   0  0  2  0  0  0  0  0  0  0  0  0
    8.7663  -11.2601    0.0000 C   0  0  1  0  0  0  0  0  0  0  0  0
    8.0519  -11.6726    0.0000 C   0  0  1  0  0  0  0  0  0  0  0  0
   10.1953  -12.9101    0.0000 C   0  0  0  0  0  0  0  0  0  0  0  0
   10.9097  -12.4976    0.0000 O   0  0  0  0  0  0  0  0  0  0  0  0
    8.7663  -10.4351    0.0000 O   0  0  0  0  0  0  0  0  0  0  0  0
    7.3374  -11.2601    0.0000 O   0  0  0  0  0  0  0  0  0  0  0  0
   10.1953  -11.2601    0.0000 O   0  0  0  0  0  0  0  0  0  0  0  0
  1  2  1  0  0  0  0
  2  3  2  0  0  0  0
  3  4  1  0  0  0  0
  2  5  1  0  0  0  0
  5  6  2  0  0  0  0
  6  7  1  0  0  0  0
  7  8  2  0  0  0  0
  8  3  1  0  0  0  0
  7  9  1  0  0  0  0
 10 11  1  0  0  0  0
 11  8  1  0  0  0  0
  9 12  1  0  0  0  0
 13 12  1  1  0  0  0
 13 14  1  0  0  0  0
 14 15  1  0  0  0  0
 15 16  1  0  0  0  0
 16 17  1  0  0  0  0
 17 18  1  0  0  0  0
 18 13  1  0  0  0  0
 15 19  1  1  0  0  0
 19 20  1  0  0  0  0
 17 21  1  1  0  0  0
 18 22  1  6  0  0  0
 16 23  1  6  0  0  0
M  END
>  <cdx:fragmentId>
5

$$$$
