91368.cdx
  Mrv1902 05222410232D          

 44 48  0  0  0  0            999 V2000
    2.9544   -9.8060    0.0000 C   0  0  0  0  0  0  0  0  0  0  0  0
    3.6691  -10.2181    0.0000 C   0  0  0  0  0  0  0  0  0  0  0  0
    4.3833   -9.8052    0.0000 C   0  0  0  0  0  0  0  0  0  0  0  0
    4.3828   -8.9802    0.0000 C   0  0  0  0  0  0  0  0  0  0  0  0
    3.6681   -8.5681    0.0000 O   0  0  0  0  0  0  0  0  0  0  0  0
    2.9539   -8.9810    0.0000 C   0  0  0  0  0  0  0  0  0  0  0  0
    1.5247   -8.9815    0.0000 O   0  0  0  0  0  0  0  0  0  0  0  0
    2.2392   -8.5690    0.0000 C   0  0  0  0  0  0  0  0  0  0  0  0
    5.0980  -10.2172    0.0000 O   0  0  0  0  0  0  0  0  0  0  0  0
    5.8123   -9.8043    0.0000 C   0  0  0  0  0  0  0  0  0  0  0  0
    5.8118   -8.9793    0.0000 C   0  0  0  0  0  0  0  0  0  0  0  0
    5.0970   -8.5672    0.0000 O   0  0  0  0  0  0  0  0  0  0  0  0
    6.5270  -10.2164    0.0000 C   0  0  0  0  0  0  0  0  0  0  0  0
    7.2412   -9.8034    0.0000 C   0  0  0  0  0  0  0  0  0  0  0  0
    7.2407   -8.9784    0.0000 C   0  0  0  0  0  0  0  0  0  0  0  0
    6.5260   -8.5664    0.0000 C   0  0  0  0  0  0  0  0  0  0  0  0
    7.9559  -10.2155    0.0000 C   0  0  0  0  0  0  0  0  0  0  0  0
    8.6701   -9.8026    0.0000 C   0  0  0  0  0  0  0  0  0  0  0  0
    8.6696   -8.9776    0.0000 C   0  0  0  0  0  0  0  0  0  0  0  0
    7.9549   -8.5655    0.0000 O   0  0  0  0  0  0  0  0  0  0  0  0
    9.3849  -10.2146    0.0000 O   0  0  0  0  0  0  0  0  0  0  0  0
   10.0986   -8.9767    0.0000 C   0  0  0  0  0  0  0  0  0  0  0  0
    9.3839   -8.5646    0.0000 C   0  0  0  0  0  0  0  0  0  0  0  0
   10.8128   -8.5638    0.0000 C   0  0  0  0  0  0  0  0  0  0  0  0
   10.8123   -7.7388    0.0000 C   0  0  0  0  0  0  0  0  0  0  0  0
   10.0976   -7.3267    0.0000 C   0  0  0  0  0  0  0  0  0  0  0  0
    9.3834   -7.7396    0.0000 C   0  0  0  0  0  0  0  0  0  0  0  0
    7.9564  -11.0405    0.0000 O   0  0  0  0  0  0  0  0  0  0  0  0
    8.6711  -11.4526    0.0000 O   0  0  0  0  0  0  0  0  0  0  0  0
    9.3854  -11.0396    0.0000 C   0  0  0  0  0  0  0  0  0  0  0  0
    8.6716  -12.2776    0.0000 C   0  0  0  0  0  0  0  0  0  0  0  0
    9.3864  -12.6896    0.0000 C   0  0  0  0  0  0  0  0  0  0  0  0
   10.1006  -12.2767    0.0000 C   0  0  0  0  0  0  0  0  0  0  0  0
   10.1001  -11.4517    0.0000 C   0  0  0  0  0  0  0  0  0  0  0  0
    7.9574  -12.6905    0.0000 C   0  0  0  0  0  0  0  0  0  0  0  0
    7.9579  -13.5155    0.0000 O   0  0  0  0  0  0  0  0  0  0  0  0
    9.3869  -13.5146    0.0000 O   0  0  0  0  0  0  0  0  0  0  0  0
    2.2402  -10.2190    0.0000 O   0  0  0  0  0  0  0  0  0  0  0  0
    3.6696  -11.0431    0.0000 O   0  0  0  0  0  0  0  0  0  0  0  0
    6.5275  -11.0414    0.0000 O   0  0  0  0  0  0  0  0  0  0  0  0
   10.0971   -6.5017    0.0000 O   0  0  0  0  0  0  0  0  0  0  0  0
   11.5265   -7.3258    0.0000 O   0  0  0  0  0  0  0  0  0  0  0  0
   10.8143  -11.0388    0.0000 O   0  0  0  0  0  0  0  0  0  0  0  0
   10.8153  -12.6888    0.0000 O   0  0  0  0  0  0  0  0  0  0  0  0
  1  2  1  0  0  0  0
  2  3  1  0  0  0  0
  3  4  1  0  0  0  0
  4  5  1  0  0  0  0
  5  6  1  0  0  0  0
  6  1  1  0  0  0  0
  7  8  1  0  0  0  0
  8  6  1  0  0  0  0
  3  9  1  0  0  0  0
 10 11  2  0  0  0  0
 11 12  1  0  0  0  0
 12  4  1  0  0  0  0
 10 13  1  0  0  0  0
 13 14  2  0  0  0  0
 14 15  1  0  0  0  0
 15 16  2  0  0  0  0
 16 11  1  0  0  0  0
 14 17  1  0  0  0  0
 17 18  1  0  0  0  0
 18 19  2  0  0  0  0
 19 20  1  0  0  0  0
 20 15  1  0  0  0  0
 18 21  1  0  0  0  0
 22 23  1  0  0  0  0
 23 19  1  0  0  0  0
 22 24  2  0  0  0  0
 24 25  1  0  0  0  0
 25 26  2  0  0  0  0
 26 27  1  0  0  0  0
 27 23  2  0  0  0  0
 17 28  2  0  0  0  0
 29 30  1  0  0  0  0
 30 21  1  0  0  0  0
 29 31  1  0  0  0  0
 31 32  1  0  0  0  0
 32 33  1  0  0  0  0
 33 34  1  0  0  0  0
 34 30  1  0  0  0  0
 31 35  1  0  0  0  0
 35 36  1  0  0  0  0
 37 32  1  0  0  0  0
  1 38  1  0  0  0  0
  2 39  1  0  0  0  0
 13 40  1  0  0  0  0
 26 41  1  0  0  0  0
 25 42  1  0  0  0  0
 34 43  1  0  0  0  0
 33 44  1  0  0  0  0
M  END
>  <cdx:fragmentId>
5

$$$$
