91364.cdx
  Mrv1902 05222410222D          

 99109  0  0  0  0            999 V2000
    7.9670   -5.7733    0.0000 O   0  0  0  0  0  0  0  0  0  0  0  0
    7.9670   -6.5981    0.0000 C   0  0  2  0  0  0  0  0  0  0  0  0
    8.6812   -7.0104    0.0000 C   0  0  1  0  0  0  0  0  0  0  0  0
    9.3955   -6.5981    0.0000 C   0  0  0  0  0  0  0  0  0  0  0  0
    9.3955   -5.7733    0.0000 O   0  0  0  0  0  0  0  0  0  0  0  0
    7.2528   -7.0104    0.0000 C   0  0  1  0  0  0  0  0  0  0  0  0
    7.2528   -7.8352    0.0000 C   0  0  2  0  0  0  0  0  0  0  0  0
    7.9670   -8.2475    0.0000 C   0  0  1  0  0  0  0  0  0  0  0  0
    8.6812   -7.8352    0.0000 O   0  0  0  0  0  0  0  0  0  0  0  0
    7.9670   -9.0723    0.0000 O   0  0  0  0  0  0  0  0  0  0  0  0
    8.6812   -9.4847    0.0000 C   0  0  1  0  0  0  0  0  0  0  0  0
    9.3955   -9.0723    0.0000 C   0  0  0  0  0  0  0  0  0  0  0  0
    8.6812  -10.3094    0.0000 C   0  0  1  0  0  0  0  0  0  0  0  0
    9.3955  -10.7218    0.0000 C   0  0  2  0  0  0  0  0  0  0  0  0
   10.1097  -10.3094    0.0000 C   0  0  1  0  0  0  0  0  0  0  0  0
   10.1097   -9.4847    0.0000 O   0  0  0  0  0  0  0  0  0  0  0  0
    7.9670  -10.7218    0.0000 O   0  0  0  0  0  0  0  0  0  0  0  0
    7.9670  -11.5465    0.0000 O   0  0  0  0  0  0  0  0  0  0  0  0
    8.6812  -11.9589    0.0000 C   0  0  1  0  0  0  0  0  0  0  0  0
    9.3955  -11.5465    0.0000 O   0  0  0  0  0  0  0  0  0  0  0  0
    7.2528  -11.9589    0.0000 C   0  0  2  0  0  0  0  0  0  0  0  0
    7.2528  -12.7836    0.0000 C   0  0  1  0  0  0  0  0  0  0  0  0
    7.9670  -13.1960    0.0000 C   0  0  2  0  0  0  0  0  0  0  0  0
    8.6812  -12.7836    0.0000 C   0  0  1  0  0  0  0  0  0  0  0  0
   10.8240  -10.7218    0.0000 O   0  0  0  0  0  0  0  0  0  0  0  0
   11.5382  -10.3094    0.0000 C   0  0  1  0  0  0  0  0  0  0  0  0
   11.5382   -9.4847    0.0000 C   0  0  0  0  0  0  0  0  0  0  0  0
   12.2525  -10.7218    0.0000 C   0  0  1  0  0  0  0  0  0  0  0  0
   12.9667  -10.3094    0.0000 C   0  0  1  0  0  0  0  0  0  0  0  0
   12.9667   -9.4847    0.0000 C   0  0  2  0  0  0  0  0  0  0  0  0
   12.2525   -9.0723    0.0000 C   0  0  0  0  0  0  0  0  0  0  0  0
   13.6810  -10.7218    0.0000 C   0  0  0  0  0  0  0  0  0  0  0  0
   14.3952  -10.3094    0.0000 C   0  0  0  0  0  0  0  0  0  0  0  0
   14.3952   -9.4847    0.0000 C   0  0  2  0  0  0  0  0  0  0  0  0
   13.6810   -9.0723    0.0000 C   0  0  2  0  0  0  0  0  0  0  0  0
   15.1095   -9.0723    0.0000 C   0  0  1  0  0  0  0  0  0  0  0  0
   15.1095   -8.2475    0.0000 C   0  0  0  0  0  0  0  0  0  0  0  0
   14.3952   -7.8352    0.0000 C   0  0  0  0  0  0  0  0  0  0  0  0
   13.6810   -8.2475    0.0000 C   0  0  0  0  0  0  0  0  0  0  0  0
   15.8237   -9.4847    0.0000 C   0  0  0  0  0  0  0  0  0  0  0  0
   16.5380   -9.0723    0.0000 C   0  0  0  0  0  0  0  0  0  0  0  0
   16.5380   -8.2475    0.0000 C   0  0  2  0  0  0  0  0  0  0  0  0
   15.8237   -7.8352    0.0000 C   0  0  1  0  0  0  0  0  0  0  0  0
   17.2522   -7.8352    0.0000 C   0  0  0  0  0  0  0  0  0  0  0  0
   17.2522   -7.0104    0.0000 C   0  0  0  0  0  0  0  0  0  0  0  0
   16.5380   -6.5981    0.0000 C   0  0  0  0  0  0  0  0  0  0  0  0
   15.8237   -7.0104    0.0000 C   0  0  0  0  0  0  0  0  0  0  0  0
   17.2522   -8.6599    0.0000 C   0  0  0  0  0  0  0  0  0  0  0  0
   17.2522   -9.4847    0.0000 O   0  0  0  0  0  0  0  0  0  0  0  0
   18.6807   -9.4847    0.0000 O   0  0  0  0  0  0  0  0  0  0  0  0
   18.6807   -8.6599    0.0000 C   0  0  1  0  0  0  0  0  0  0  0  0
   17.9664   -8.2475    0.0000 O   0  0  0  0  0  0  0  0  0  0  0  0
   19.3949   -9.8970    0.0000 C   0  0  1  0  0  0  0  0  0  0  0  0
   20.1092   -9.4847    0.0000 C   0  0  2  0  0  0  0  0  0  0  0  0
   20.1092   -8.6599    0.0000 C   0  0  1  0  0  0  0  0  0  0  0  0
   19.3949   -8.2475    0.0000 C   0  0  1  0  0  0  0  0  0  0  0  0
   18.6807  -11.1341    0.0000 O   0  0  0  0  0  0  0  0  0  0  0  0
   19.3949  -10.7218    0.0000 C   0  0  0  0  0  0  0  0  0  0  0  0
   18.6807  -11.9589    0.0000 C   0  0  1  0  0  0  0  0  0  0  0  0
   19.3949  -12.3712    0.0000 C   0  0  2  0  0  0  0  0  0  0  0  0
   20.1092  -11.9589    0.0000 O   0  0  0  0  0  0  0  0  0  0  0  0
   17.9664  -12.3712    0.0000 O   0  0  0  0  0  0  0  0  0  0  0  0
   17.9664  -13.1960    0.0000 C   0  0  1  0  0  0  0  0  0  0  0  0
   18.6807  -13.6084    0.0000 C   0  0  2  0  0  0  0  0  0  0  0  0
   19.3949  -13.1960    0.0000 C   0  0  2  0  0  0  0  0  0  0  0  0
   17.2522  -13.6084    0.0000 C   0  0  0  0  0  0  0  0  0  0  0  0
   17.2522  -14.4331    0.0000 O   0  0  0  0  0  0  0  0  0  0  0  0
   20.3298  -14.3957    0.0000 O   0  0  0  0  0  0  0  0  0  0  0  0
   20.1092  -13.6084    0.0000 O   0  0  0  0  0  0  0  0  0  0  0  0
   21.1866  -15.8052    0.0000 O   0  0  0  0  0  0  0  0  0  0  0  0
   20.3945  -17.2520    0.0000 O   0  0  0  0  0  0  0  0  0  0  0  0
   18.7454  -17.2893    0.0000 C   0  0  0  0  0  0  0  0  0  0  0  0
   19.1415  -16.5659    0.0000 C   0  0  1  0  0  0  0  0  0  0  0  0
    6.5385   -6.5981    0.0000 O   0  0  0  0  0  0  0  0  0  0  0  0
    6.5385   -8.2475    0.0000 O   0  0  0  0  0  0  0  0  0  0  0  0
    6.5385  -11.5465    0.0000 C   0  0  0  0  0  0  0  0  0  0  0  0
    6.5385  -13.1960    0.0000 O   0  0  0  0  0  0  0  0  0  0  0  0
    7.9670  -14.0207    0.0000 O   0  0  0  0  0  0  0  0  0  0  0  0
    9.3955  -13.1960    0.0000 O   0  0  0  0  0  0  0  0  0  0  0  0
   11.8401  -11.4360    0.0000 C   0  0  0  0  0  0  0  0  0  0  0  0
   12.6648  -11.4360    0.0000 C   0  0  0  0  0  0  0  0  0  0  0  0
   12.2523  -12.1505    0.0000 O   0  0  0  0  0  0  0  0  0  0  0  0
   12.9667  -11.1341    0.0000 H   0  0  0  0  0  0  0  0  0  0  0  0
   12.9667   -8.6599    0.0000 C   0  0  0  0  0  0  0  0  0  0  0  0
   13.6810   -9.8970    0.0000 H   0  0  0  0  0  0  0  0  0  0  0  0
   14.3952   -8.6599    0.0000 C   0  0  0  0  0  0  0  0  0  0  0  0
   15.1095   -9.8970    0.0000 C   0  0  0  0  0  0  0  0  0  0  0  0
   15.8237   -8.6599    0.0000 H   0  0  0  0  0  0  0  0  0  0  0  0
   16.1256   -5.8838    0.0000 C   0  0  0  0  0  0  0  0  0  0  0  0
   16.9503   -5.8838    0.0000 C   0  0  0  0  0  0  0  0  0  0  0  0
   19.3949   -7.4228    0.0000 O   0  0  0  0  0  0  0  0  0  0  0  0
   20.8234   -8.2475    0.0000 O   0  0  0  0  0  0  0  0  0  0  0  0
   20.8234   -9.8970    0.0000 O   0  0  0  0  0  0  0  0  0  0  0  0
   19.9660  -16.5473    0.0000 C   0  0  1  0  0  0  0  0  0  0  0  0
   20.3621  -15.8239    0.0000 C   0  0  2  0  0  0  0  0  0  0  0  0
   19.9337  -15.1191    0.0000 C   0  0  2  0  0  0  0  0  0  0  0  0
   18.7130  -15.8612    0.0000 O   0  0  0  0  0  0  0  0  0  0  0  0
   19.1091  -15.1378    0.0000 C   0  0  1  0  0  0  0  0  0  0  0  0
   18.6807  -14.4331    0.0000 O   0  0  0  0  0  0  0  0  0  0  0  0
  2  1  1  6  0  0  0
  2  3  1  0  0  0  0
  3  4  1  1  0  0  0
  4  5  1  0  0  0  0
  2  6  1  0  0  0  0
  6  7  1  0  0  0  0
  7  8  1  0  0  0  0
  8  9  1  0  0  0  0
  9  3  1  0  0  0  0
  8 10  1  1  0  0  0
 11 10  1  1  0  0  0
 11 12  1  0  0  0  0
 11 13  1  0  0  0  0
 13 14  1  0  0  0  0
 14 15  1  0  0  0  0
 15 16  1  0  0  0  0
 16 12  1  0  0  0  0
 13 17  1  1  0  0  0
 18 19  1  0  0  0  0
 19 20  1  1  0  0  0
 14 20  1  6  0  0  0
 18 21  1  0  0  0  0
 21 22  1  0  0  0  0
 22 23  1  0  0  0  0
 23 24  1  0  0  0  0
 24 19  1  0  0  0  0
 15 25  1  1  0  0  0
 26 25  1  1  0  0  0
 26 27  1  0  0  0  0
 26 28  1  0  0  0  0
 28 29  1  0  0  0  0
 29 30  1  0  0  0  0
 30 31  1  0  0  0  0
 31 27  1  0  0  0  0
 29 32  1  0  0  0  0
 32 33  1  0  0  0  0
 33 34  1  0  0  0  0
 34 35  1  0  0  0  0
 35 30  1  0  0  0  0
 34 36  1  0  0  0  0
 36 37  1  0  0  0  0
 37 38  2  0  0  0  0
 38 39  1  0  0  0  0
 39 35  1  0  0  0  0
 36 40  1  0  0  0  0
 40 41  1  0  0  0  0
 41 42  1  0  0  0  0
 42 43  1  0  0  0  0
 43 37  1  0  0  0  0
 42 44  1  0  0  0  0
 44 45  1  0  0  0  0
 45 46  1  0  0  0  0
 46 47  1  0  0  0  0
 47 43  1  0  0  0  0
 42 48  1  1  0  0  0
 48 49  2  0  0  0  0
 50 51  1  0  0  0  0
 51 52  1  1  0  0  0
 52 48  1  0  0  0  0
 50 53  1  0  0  0  0
 53 54  1  0  0  0  0
 54 55  1  0  0  0  0
 55 56  1  0  0  0  0
 56 51  1  0  0  0  0
 57 58  1  0  0  0  0
 53 58  1  1  0  0  0
 59 57  1  1  0  0  0
 59 60  1  0  0  0  0
 60 61  1  6  0  0  0
 59 62  1  0  0  0  0
 62 63  1  0  0  0  0
 63 64  1  0  0  0  0
 64 65  1  0  0  0  0
 65 60  1  0  0  0  0
 96 68  1  6  0  0  0
 63 66  1  1  0  0  0
 66 67  1  0  0  0  0
 64 99  1  6  0  0  0
 95 70  1  6  0  0  0
 94 71  1  1  0  0  0
 65 69  1  1  0  0  0
 73 72  1  6  0  0  0
 73 97  1  0  0  0  0
 94 73  1  0  0  0  0
 95 94  1  0  0  0  0
 96 95  1  0  0  0  0
 98 96  1  0  0  0  0
  6 74  1  1  0  0  0
  7 75  1  6  0  0  0
 21 76  1  6  0  0  0
 22 77  1  1  0  0  0
 23 78  1  6  0  0  0
 24 79  1  6  0  0  0
 28 80  1  1  0  0  0
 28 81  1  6  0  0  0
 81 82  1  0  0  0  0
 29 83  1  6  0  0  0
 30 84  1  1  0  0  0
 35 85  1  6  0  0  0
 34 86  1  1  0  0  0
 36 87  1  6  0  0  0
 43 88  1  1  0  0  0
 46 89  1  0  0  0  0
 46 90  1  0  0  0  0
 56 91  1  6  0  0  0
 55 92  1  1  0  0  0
 54 93  1  6  0  0  0
 98 97  1  0  0  0  0
 98 99  1  1  0  0  0
M  END
>  <cdx:fragmentId>
5

$$$$
