91363.cdx
  Mrv1902 05222410212D          

 19 20  0  0  0  0            999 V2000
    4.6593   -8.7026    0.0000 C   0  0  0  0  0  0  0  0  0  0  0  0
    4.6593   -9.5276    0.0000 C   0  0  0  0  0  0  0  0  0  0  0  0
    5.3738   -9.9401    0.0000 C   0  0  1  0  0  0  0  0  0  0  0  0
    6.0882   -9.5276    0.0000 C   0  0  2  0  0  0  0  0  0  0  0  0
    6.0882   -8.7026    0.0000 C   0  0  1  0  0  0  0  0  0  0  0  0
    5.3738   -8.2901    0.0000 C   0  0  1  0  0  0  0  0  0  0  0  0
    6.8027   -9.9401    0.0000 C   0  0  0  0  0  0  0  0  0  0  0  0
    7.5172   -9.5276    0.0000 C   0  0  1  0  0  0  0  0  0  0  0  0
    7.5172   -8.7026    0.0000 C   0  0  0  0  0  0  0  0  0  0  0  0
    6.8027   -8.2901    0.0000 C   0  0  0  0  0  0  0  0  0  0  0  0
    4.9613  -10.6546    0.0000 O   0  0  0  0  0  0  0  0  0  0  0  0
    6.0882  -10.3526    0.0000 H   0  0  0  0  0  0  0  0  0  0  0  0
    8.2317   -9.9401    0.0000 C   0  0  0  0  0  0  0  0  0  0  0  0
    8.9461   -9.5276    0.0000 C   0  0  0  0  0  0  0  0  0  0  0  0
    8.2317  -10.7651    0.0000 C   0  0  0  0  0  0  0  0  0  0  0  0
    8.9461  -10.3526    0.0000 O   0  0  0  0  0  0  0  0  0  0  0  0
    5.7863  -10.6546    0.0000 C   0  0  0  0  0  0  0  0  0  0  0  0
    5.3738   -7.4651    0.0000 O   0  0  0  0  0  0  0  0  0  0  0  0
    6.0882   -7.8776    0.0000 C   0  0  0  0  0  0  0  0  0  0  0  0
  1  2  1  0  0  0  0
  2  3  1  0  0  0  0
  3  4  1  0  0  0  0
  4  5  1  0  0  0  0
  5  6  1  0  0  0  0
  6  1  1  0  0  0  0
  4  7  1  0  0  0  0
  7  8  1  0  0  0  0
  8  9  1  0  0  0  0
  9 10  1  0  0  0  0
 10  5  1  0  0  0  0
  3 11  1  1  0  0  0
  4 12  1  1  0  0  0
  8 13  1  1  0  0  0
 13 14  1  0  0  0  0
 13 15  1  0  0  0  0
 13 16  1  0  0  0  0
  3 17  1  0  0  0  0
  6 18  1  6  0  0  0
  5 19  1  6  0  0  0
M  END
>  <cdx:fragmentId>
5

$$$$
