91362.cdx
  Mrv1902 05222410212D          

 20 21  0  0  0  0            999 V2000
    3.9168  -10.8064    0.0000 C   0  0  0  0  0  0  0  0  0  0  0  0
    3.9168  -11.6314    0.0000 C   0  0  0  0  0  0  0  0  0  0  0  0
    4.6313  -12.0439    0.0000 C   0  0  0  0  0  0  0  0  0  0  0  0
    5.3457  -11.6314    0.0000 C   0  0  0  0  0  0  0  0  0  0  0  0
    5.3457  -10.8064    0.0000 C   0  0  0  0  0  0  0  0  0  0  0  0
    4.6313  -10.3939    0.0000 C   0  0  0  0  0  0  0  0  0  0  0  0
    6.0602  -12.0439    0.0000 C   0  0  0  0  0  0  0  0  0  0  0  0
    6.7747  -11.6314    0.0000 C   0  0  0  0  0  0  0  0  0  0  0  0
    6.7747  -10.8064    0.0000 C   0  0  0  0  0  0  0  0  0  0  0  0
    6.0602  -10.3939    0.0000 C   0  0  1  0  0  0  0  0  0  0  0  0
    7.4892  -10.3939    0.0000 C   0  0  0  0  0  0  0  0  0  0  0  0
    7.4892   -9.5689    0.0000 C   0  0  0  0  0  0  0  0  0  0  0  0
    6.7747   -9.1564    0.0000 C   0  0  1  0  0  0  0  0  0  0  0  0
    6.0602   -9.5689    0.0000 C   0  0  2  0  0  0  0  0  0  0  0  0
    3.2023  -12.0439    0.0000 O   0  0  0  0  0  0  0  0  0  0  0  0
    7.4892  -12.0439    0.0000 C   0  0  0  0  0  0  0  0  0  0  0  0
    5.3457   -9.1564    0.0000 O   0  0  0  0  0  0  0  0  0  0  0  0
    6.3622   -8.4419    0.0000 C   0  0  0  0  0  0  0  0  0  0  0  0
    7.1872   -8.4419    0.0000 C   0  0  0  0  0  0  0  0  0  0  0  0
    6.7747   -7.7275    0.0000 C   0  0  0  0  0  0  0  0  0  0  0  0
  1  2  2  0  0  0  0
  2  3  1  0  0  0  0
  3  4  2  0  0  0  0
  4  5  1  0  0  0  0
  5  6  2  0  0  0  0
  6  1  1  0  0  0  0
  7  8  2  0  0  0  0
  8  9  1  0  0  0  0
  9 10  1  0  0  0  0
 10  5  1  6  0  0  0
  9 11  1  0  0  0  0
 11 12  1  0  0  0  0
 12 13  1  0  0  0  0
 13 14  1  0  0  0  0
 14 10  1  0  0  0  0
  2 15  1  0  0  0  0
  8 16  1  0  0  0  0
 14 17  1  1  0  0  0
 13 18  1  1  0  0  0
 13 19  1  6  0  0  0
 19 20  2  0  0  0  0
M  END
>  <cdx:fragmentId>
5

$$$$
