91360.cdx
  Mrv1902 05222410212D          

 25 26  0  0  0  0            999 V2000
    3.8206  -11.2189    0.0000 C   0  0  0  0  0  0  0  0  0  0  0  0
    3.8206  -12.0439    0.0000 C   0  0  0  0  0  0  0  0  0  0  0  0
    4.5350  -12.4564    0.0000 C   0  0  0  0  0  0  0  0  0  0  0  0
    5.2495  -12.0439    0.0000 C   0  0  0  0  0  0  0  0  0  0  0  0
    5.2495  -11.2189    0.0000 C   0  0  0  0  0  0  0  0  0  0  0  0
    4.5350  -10.8064    0.0000 C   0  0  0  0  0  0  0  0  0  0  0  0
    5.9640  -12.4564    0.0000 C   0  0  0  0  0  0  0  0  0  0  0  0
    6.6784  -12.0439    0.0000 C   0  0  0  0  0  0  0  0  0  0  0  0
    6.6784  -11.2189    0.0000 C   0  0  0  0  0  0  0  0  0  0  0  0
    5.9640  -10.8064    0.0000 C   0  0  0  0  0  0  0  0  0  0  0  0
    8.1074  -11.2189    0.0000 C   0  0  0  0  0  0  0  0  0  0  0  0
    7.3929  -10.8064    0.0000 C   0  0  2  0  0  0  0  0  0  0  0  0
    8.8219  -10.8064    0.0000 C   0  0  0  0  0  0  0  0  0  0  0  0
    8.8219   -9.9814    0.0000 O   0  0  0  0  0  0  0  0  0  0  0  0
    8.1074   -9.5689    0.0000 C   0  0  0  0  0  0  0  0  0  0  0  0
    7.3929   -9.9814    0.0000 O   0  0  0  0  0  0  0  0  0  0  0  0
    9.5363  -12.0439    0.0000 C   0  0  0  0  0  0  0  0  0  0  0  0
    9.5363  -11.2189    0.0000 C   0  0  0  0  0  0  0  0  0  0  0  0
   10.2508  -10.8064    0.0000 C   0  0  0  0  0  0  0  0  0  0  0  0
    9.5363   -8.7439    0.0000 C   0  0  0  0  0  0  0  0  0  0  0  0
    8.8219   -8.3314    0.0000 C   0  0  0  0  0  0  0  0  0  0  0  0
    8.1074   -8.7439    0.0000 C   0  0  0  0  0  0  0  0  0  0  0  0
    8.8219   -7.5064    0.0000 C   0  0  0  0  0  0  0  0  0  0  0  0
    5.9640  -13.2814    0.0000 O   0  0  0  0  0  0  0  0  0  0  0  0
    3.1061  -12.4564    0.0000 O   0  0  0  0  0  0  0  0  0  0  0  0
  1  2  2  0  0  0  0
  2  3  1  0  0  0  0
  3  4  2  0  0  0  0
  4  5  1  0  0  0  0
  5  6  2  0  0  0  0
  6  1  1  0  0  0  0
  4  7  1  0  0  0  0
  7  8  2  0  0  0  0
  8  9  1  0  0  0  0
  9 10  2  0  0  0  0
 10  5  1  0  0  0  0
 11 12  1  0  0  0  0
 12  9  1  0  0  0  0
 11 13  1  0  0  0  0
 14 15  2  0  0  0  0
 15 16  1  0  0  0  0
 12 16  1  1  0  0  0
 17 18  1  0  0  0  0
 18 13  2  0  0  0  0
 19 18  1  0  0  0  0
 20 21  1  0  0  0  0
 21 22  2  0  0  0  0
 22 15  1  0  0  0  0
 21 23  1  0  0  0  0
  7 24  1  0  0  0  0
  2 25  1  0  0  0  0
M  END
>  <cdx:fragmentId>
5

$$$$
