91374.cdx
  Mrv1902 05222410212D          

 11 11  0  0  0  0            999 V2000
    6.9246   -8.8063    0.0000 C   0  0  2  0  0  0  0  0  0  0  0  0
    6.6781   -9.5936    0.0000 C   0  0  0  0  0  0  0  0  0  0  0  0
    7.3506  -10.0714    0.0000 O   0  0  0  0  0  0  0  0  0  0  0  0
    8.0129   -9.5794    0.0000 C   0  0  0  0  0  0  0  0  0  0  0  0
    7.7496   -8.7975    0.0000 C   0  0  2  0  0  0  0  0  0  0  0  0
    6.4326   -8.1441    0.0000 O   0  0  0  0  0  0  0  0  0  0  0  0
    8.2274   -8.1250    0.0000 O   0  0  0  0  0  0  0  0  0  0  0  0
    5.8962   -9.8569    0.0000 C   0  0  2  0  0  0  0  0  0  0  0  0
    5.2773   -9.3114    0.0000 C   0  0  0  0  0  0  0  0  0  0  0  0
    8.8002   -9.8259    0.0000 O   0  0  0  0  0  0  0  0  0  0  0  0
    5.7333  -10.6656    0.0000 O   0  0  0  0  0  0  0  0  0  0  0  0
  1  2  1  0  0  0  0
  2  3  1  0  0  0  0
  3  4  1  0  0  0  0
  4  5  1  0  0  0  0
  5  1  1  0  0  0  0
  1  6  1  1  0  0  0
  5  7  1  1  0  0  0
  2  8  1  0  0  0  0
  8  9  1  0  0  0  0
  4 10  2  0  0  0  0
  8 11  1  1  0  0  0
M  END
>  <cdx:fragmentId>
5

$$$$
