91370.cdx
  Mrv1902 05222410222D          

 51 55  0  0  0  0            999 V2000
    5.4843   -9.2526    0.0000 C   0  0  0  0  0  0  0  0  0  0  0  0
    5.4843  -10.0776    0.0000 C   0  0  0  0  0  0  0  0  0  0  0  0
    6.1988  -10.4901    0.0000 C   0  0  0  0  0  0  0  0  0  0  0  0
    6.9132  -10.0776    0.0000 C   0  0  0  0  0  0  0  0  0  0  0  0
    6.9132   -9.2526    0.0000 C   0  0  0  0  0  0  0  0  0  0  0  0
    6.1988   -8.8401    0.0000 C   0  0  0  0  0  0  0  0  0  0  0  0
    4.7698   -8.8401    0.0000 O   0  0  0  0  0  0  0  0  0  0  0  0
    6.1988  -11.3151    0.0000 O   0  0  0  0  0  0  0  0  0  0  0  0
    7.6277   -8.8401    0.0000 C   0  0  0  0  0  0  0  0  0  0  0  0
    8.3422   -9.2526    0.0000 C   0  0  0  0  0  0  0  0  0  0  0  0
    9.0567   -8.8401    0.0000 C   0  0  0  0  0  0  0  0  0  0  0  0
    9.7711   -9.2526    0.0000 C   0  0  0  0  0  0  0  0  0  0  0  0
   10.4856   -8.8401    0.0000 C   0  0  0  0  0  0  0  0  0  0  0  0
   10.4856   -8.0151    0.0000 C   0  0  0  0  0  0  0  0  0  0  0  0
    9.7711   -7.6026    0.0000 C   0  0  0  0  0  0  0  0  0  0  0  0
    9.0567   -8.0151    0.0000 C   0  0  0  0  0  0  0  0  0  0  0  0
   11.2001   -9.2526    0.0000 H   0  0  0  0  0  0  0  0  0  0  0  0
    4.0554   -9.2526    0.0000 C   0  0  2  0  0  0  0  0  0  0  0  0
    3.3409   -8.8401    0.0000 O   0  0  0  0  0  0  0  0  0  0  0  0
    2.6264   -9.2526    0.0000 C   0  0  1  0  0  0  0  0  0  0  0  0
    2.6264  -10.0776    0.0000 C   0  0  2  0  0  0  0  0  0  0  0  0
    3.3409  -10.4901    0.0000 C   0  0  1  0  0  0  0  0  0  0  0  0
    4.0554  -10.0776    0.0000 C   0  0  1  0  0  0  0  0  0  0  0  0
    1.9119   -8.8401    0.0000 C   0  0  0  0  0  0  0  0  0  0  0  0
    3.3409  -11.3151    0.0000 O   0  0  0  0  0  0  0  0  0  0  0  0
    1.9119  -10.4901    0.0000 O   0  0  0  0  0  0  0  0  0  0  0  0
    4.7698  -10.4901    0.0000 O   0  0  0  0  0  0  0  0  0  0  0  0
    1.1975   -9.2526    0.0000 O   0  0  0  0  0  0  0  0  0  0  0  0
   11.1765   -7.5015    0.0000 O   0  0  0  0  0  0  0  0  0  0  0  0
   11.1660   -4.2703    0.0000 C   0  0  2  0  0  0  0  0  0  0  0  0
   11.8821   -3.8606    0.0000 O   0  0  0  0  0  0  0  0  0  0  0  0
   11.8853   -3.0356    0.0000 C   0  0  1  0  0  0  0  0  0  0  0  0
   11.1725   -2.6203    0.0000 C   0  0  2  0  0  0  0  0  0  0  0  0
   10.4564   -3.0300    0.0000 C   0  0  1  0  0  0  0  0  0  0  0  0
   10.4532   -3.8550    0.0000 C   0  0  1  0  0  0  0  0  0  0  0  0
   12.6014   -2.6259    0.0000 C   0  0  0  0  0  0  0  0  0  0  0  0
    9.7435   -2.6147    0.0000 O   0  0  0  0  0  0  0  0  0  0  0  0
   11.1757   -1.7953    0.0000 O   0  0  0  0  0  0  0  0  0  0  0  0
    9.7371   -4.2647    0.0000 O   0  0  0  0  0  0  0  0  0  0  0  0
   12.6046   -1.8009    0.0000 O   0  0  0  0  0  0  0  0  0  0  0  0
    9.7339   -5.0897    0.0000 C   0  0  0  0  0  0  0  0  0  0  0  0
    9.0178   -5.4994    0.0000 C   0  0  0  0  0  0  0  0  0  0  0  0
   10.4467   -5.5050    0.0000 O   0  0  0  0  0  0  0  0  0  0  0  0
    8.3049   -5.0841    0.0000 C   0  0  0  0  0  0  0  0  0  0  0  0
    7.5888   -5.4938    0.0000 C   0  0  0  0  0  0  0  0  0  0  0  0
    7.5856   -6.3188    0.0000 C   0  0  0  0  0  0  0  0  0  0  0  0
    8.2985   -6.7341    0.0000 C   0  0  0  0  0  0  0  0  0  0  0  0
    9.0146   -6.3244    0.0000 C   0  0  0  0  0  0  0  0  0  0  0  0
    8.2952   -7.5591    0.0000 O   0  0  0  0  0  0  0  0  0  0  0  0
    6.8695   -6.7285    0.0000 O   0  0  0  0  0  0  0  0  0  0  0  0
    6.8760   -5.0785    0.0000 O   0  0  0  0  0  0  0  0  0  0  0  0
  1  2  2  0  0  0  0
  2  3  1  0  0  0  0
  3  4  2  0  0  0  0
  4  5  1  0  0  0  0
  5  6  2  0  0  0  0
  6  1  1  0  0  0  0
  1  7  1  0  0  0  0
  3  8  1  0  0  0  0
  5  9  1  0  0  0  0
  9 10  2  0  0  0  0
 10 11  1  0  0  0  0
 11 12  2  0  0  0  0
 12 13  1  0  0  0  0
 13 14  2  0  0  0  0
 14 15  1  0  0  0  0
 15 16  2  0  0  0  0
 16 11  1  0  0  0  0
 13 17  1  0  0  0  0
 18  7  1  1  0  0  0
 18 19  1  0  0  0  0
 19 20  1  0  0  0  0
 20 21  1  0  0  0  0
 21 22  1  0  0  0  0
 22 23  1  0  0  0  0
 23 18  1  0  0  0  0
 20 24  1  1  0  0  0
 22 25  1  1  0  0  0
 21 26  1  6  0  0  0
 23 27  1  6  0  0  0
 24 28  1  0  0  0  0
 30 29  1  1  0  0  0
 30 31  1  0  0  0  0
 31 32  1  0  0  0  0
 32 33  1  0  0  0  0
 33 34  1  0  0  0  0
 34 35  1  0  0  0  0
 35 30  1  0  0  0  0
 32 36  1  1  0  0  0
 34 37  1  1  0  0  0
 33 38  1  6  0  0  0
 35 39  1  6  0  0  0
 36 40  1  0  0  0  0
 39 41  1  0  0  0  0
 41 42  1  0  0  0  0
 41 43  2  0  0  0  0
 42 44  2  0  0  0  0
 44 45  1  0  0  0  0
 45 46  2  0  0  0  0
 46 47  1  0  0  0  0
 47 48  2  0  0  0  0
 48 42  1  0  0  0  0
 47 49  1  0  0  0  0
 46 50  1  0  0  0  0
 45 51  1  0  0  0  0
 14 29  1  0  0  0  0
M  END
>  <cdx:fragmentId>
5

$$$$
