91379.cdx
  Mrv1902 05222410252D          

 26 27  0  0  0  0            999 V2000
    2.9956   -7.6439    0.0000 C   0  0  0  0  0  0  0  0  0  0  0  0
    2.9956   -8.4689    0.0000 C   0  0  0  0  0  0  0  0  0  0  0  0
    3.7100   -8.8814    0.0000 C   0  0  0  0  0  0  0  0  0  0  0  0
    4.4245   -8.4689    0.0000 C   0  0  0  0  0  0  0  0  0  0  0  0
    4.4245   -7.6439    0.0000 C   0  0  0  0  0  0  0  0  0  0  0  0
    3.7100   -7.2314    0.0000 C   0  0  0  0  0  0  0  0  0  0  0  0
    2.2811   -7.2314    0.0000 O   0  0  0  0  0  0  0  0  0  0  0  0
    2.2811   -8.8814    0.0000 O   0  0  0  0  0  0  0  0  0  0  0  0
    5.1390   -7.2314    0.0000 C   0  0  0  0  0  0  0  0  0  0  0  0
    5.8534   -7.6439    0.0000 C   0  0  0  0  0  0  0  0  0  0  0  0
    6.5679   -7.2314    0.0000 C   0  0  0  0  0  0  0  0  0  0  0  0
    6.5679   -6.4064    0.0000 O   0  0  0  0  0  0  0  0  0  0  0  0
   12.2841   -8.8796    0.0000 O   0  0  0  0  0  0  0  0  0  0  0  0
   10.1406   -8.4679    0.0000 C   0  0  0  0  0  0  0  0  0  0  0  0
   10.8552   -8.8801    0.0000 C   0  0  0  0  0  0  0  0  0  0  0  0
   11.5695   -8.4674    0.0000 C   0  0  0  0  0  0  0  0  0  0  0  0
   11.5692   -7.6424    0.0000 C   0  0  0  0  0  0  0  0  0  0  0  0
   10.8546   -7.2301    0.0000 C   0  0  0  0  0  0  0  0  0  0  0  0
   10.1403   -7.6429    0.0000 C   0  0  0  0  0  0  0  0  0  0  0  0
    9.4256   -7.2306    0.0000 C   0  0  0  0  0  0  0  0  0  0  0  0
    8.7116   -8.4684    0.0000 O   0  0  0  0  0  0  0  0  0  0  0  0
    8.7113   -7.6434    0.0000 C   0  0  0  0  0  0  0  0  0  0  0  0
    7.9964   -6.4061    0.0000 O   0  0  0  0  0  0  0  0  0  0  0  0
    7.9967   -7.2311    0.0000 C   0  0  0  0  0  0  0  0  0  0  0  0
    7.2824   -7.6439    0.0000 O   0  0  0  0  0  0  0  0  0  0  0  0
   12.2835   -7.2296    0.0000 O   0  0  0  0  0  0  0  0  0  0  0  0
  1  2  2  0  0  0  0
  2  3  1  0  0  0  0
  3  4  2  0  0  0  0
  4  5  1  0  0  0  0
  5  6  2  0  0  0  0
  6  1  1  0  0  0  0
  1  7  1  0  0  0  0
  2  8  1  0  0  0  0
  5  9  1  0  0  0  0
  9 10  2  0  0  0  0
 10 11  1  0  0  0  0
 11 25  1  0  0  0  0
 11 12  2  0  0  0  0
 16 13  1  0  0  0  0
 14 19  1  0  0  0  0
 15 14  2  0  0  0  0
 16 15  1  0  0  0  0
 17 16  2  0  0  0  0
 18 17  1  0  0  0  0
 19 18  2  0  0  0  0
 20 19  1  0  0  0  0
 22 20  1  0  0  0  0
 22 21  1  0  0  0  0
 24 22  1  0  0  0  0
 24 23  2  0  0  0  0
 25 24  1  0  0  0  0
 17 26  1  0  0  0  0
M  END
>  <cdx:fragmentId>
5

$$$$
