91372.cdx
  Mrv1902 05222410222D          

 39 42  0  0  0  0            999 V2000
    4.5636   -6.6117    0.0000 C   0  0  0  0  0  0  0  0  0  0  0  0
    5.2827   -7.0162    0.0000 C   0  0  0  0  0  0  0  0  0  0  0  0
    5.9925   -6.5957    0.0000 C   0  0  0  0  0  0  0  0  0  0  0  0
    5.9832   -5.7707    0.0000 C   0  0  0  0  0  0  0  0  0  0  0  0
    5.2641   -5.3663    0.0000 C   0  0  0  0  0  0  0  0  0  0  0  0
    4.5544   -5.7868    0.0000 C   0  0  0  0  0  0  0  0  0  0  0  0
    3.8538   -7.0322    0.0000 O   0  0  0  0  0  0  0  0  0  0  0  0
    6.6930   -5.3502    0.0000 C   0  0  0  0  0  0  0  0  0  0  0  0
    7.4121   -5.7547    0.0000 C   0  0  0  0  0  0  0  0  0  0  0  0
    8.1218   -5.3342    0.0000 C   0  0  0  0  0  0  0  0  0  0  0  0
    8.8409   -5.7386    0.0000 C   0  0  0  0  0  0  0  0  0  0  0  0
    9.5507   -5.3181    0.0000 C   0  0  0  0  0  0  0  0  0  0  0  0
    9.5414   -4.4932    0.0000 C   0  0  0  0  0  0  0  0  0  0  0  0
    8.8224   -4.0887    0.0000 C   0  0  0  0  0  0  0  0  0  0  0  0
    8.1126   -4.5092    0.0000 C   0  0  0  0  0  0  0  0  0  0  0  0
    8.8131   -3.2638    0.0000 O   0  0  0  0  0  0  0  0  0  0  0  0
   10.2698   -5.7226    0.0000 O   0  0  0  0  0  0  0  0  0  0  0  0
    3.1353   -6.6268    0.0000 C   0  0  2  0  0  0  0  0  0  0  0  0
    3.1272   -5.8018    0.0000 O   0  0  0  0  0  0  0  0  0  0  0  0
    2.4087   -5.3964    0.0000 C   0  0  1  0  0  0  0  0  0  0  0  0
    1.6983   -5.8159    0.0000 C   0  0  2  0  0  0  0  0  0  0  0  0
    1.7064   -6.6409    0.0000 C   0  0  1  0  0  0  0  0  0  0  0  0
    2.4249   -7.0463    0.0000 C   0  0  1  0  0  0  0  0  0  0  0  0
    2.4005   -4.5714    0.0000 C   0  0  0  0  0  0  0  0  0  0  0  0
    0.9961   -7.0604    0.0000 O   0  0  0  0  0  0  0  0  0  0  0  0
    0.9798   -5.4105    0.0000 O   0  0  0  0  0  0  0  0  0  0  0  0
    2.4331   -7.8712    0.0000 O   0  0  0  0  0  0  0  0  0  0  0  0
    1.6820   -4.1660    0.0000 O   0  0  0  0  0  0  0  0  0  0  0  0
   10.9814   -5.2982    0.0000 C   0  0  2  0  0  0  0  0  0  0  0  0
   11.6979   -5.7074    0.0000 O   0  0  0  0  0  0  0  0  0  0  0  0
   12.4104   -5.2915    0.0000 C   0  0  1  0  0  0  0  0  0  0  0  0
   12.4065   -4.4665    0.0000 C   0  0  2  0  0  0  0  0  0  0  0  0
   11.6900   -4.0574    0.0000 C   0  0  1  0  0  0  0  0  0  0  0  0
   10.9775   -4.4732    0.0000 C   0  0  1  0  0  0  0  0  0  0  0  0
   13.1268   -5.7006    0.0000 C   0  0  0  0  0  0  0  0  0  0  0  0
   11.6861   -3.2324    0.0000 O   0  0  0  0  0  0  0  0  0  0  0  0
   13.1190   -4.0506    0.0000 O   0  0  0  0  0  0  0  0  0  0  0  0
   10.2611   -4.0641    0.0000 O   0  0  0  0  0  0  0  0  0  0  0  0
   13.8393   -5.2847    0.0000 O   0  0  0  0  0  0  0  0  0  0  0  0
  1  2  2  0  0  0  0
  2  3  1  0  0  0  0
  3  4  2  0  0  0  0
  4  5  1  0  0  0  0
  5  6  2  0  0  0  0
  6  1  1  0  0  0  0
  1  7  1  0  0  0  0
  4  8  1  0  0  0  0
  8  9  2  0  0  0  0
  9 10  1  0  0  0  0
 10 11  2  0  0  0  0
 11 12  1  0  0  0  0
 12 13  2  0  0  0  0
 13 14  1  0  0  0  0
 14 15  2  0  0  0  0
 15 10  1  0  0  0  0
 14 16  1  0  0  0  0
 12 17  1  0  0  0  0
 18  7  1  1  0  0  0
 18 19  1  0  0  0  0
 19 20  1  0  0  0  0
 20 21  1  0  0  0  0
 21 22  1  0  0  0  0
 22 23  1  0  0  0  0
 23 18  1  0  0  0  0
 20 24  1  1  0  0  0
 22 25  1  1  0  0  0
 21 26  1  6  0  0  0
 23 27  1  6  0  0  0
 24 28  1  0  0  0  0
 29 30  1  0  0  0  0
 30 31  1  0  0  0  0
 31 32  1  0  0  0  0
 32 33  1  0  0  0  0
 33 34  1  0  0  0  0
 34 29  1  0  0  0  0
 31 35  1  1  0  0  0
 33 36  1  1  0  0  0
 32 37  1  6  0  0  0
 34 38  1  6  0  0  0
 35 39  1  0  0  0  0
 29 17  1  1  0  0  0
M  END
>  <cdx:fragmentId>
5

$$$$
