91371.cdx
  Mrv1902 05222410232D          

 51 55  0  0  0  0            999 V2000
    4.1319  -13.3766    0.0000 C   0  0  0  0  0  0  0  0  0  0  0  0
    4.1319  -14.0366    0.0000 C   0  0  0  0  0  0  0  0  0  0  0  0
    4.7035  -14.3666    0.0000 C   0  0  0  0  0  0  0  0  0  0  0  0
    5.2751  -14.0366    0.0000 C   0  0  0  0  0  0  0  0  0  0  0  0
    5.2751  -13.3766    0.0000 C   0  0  0  0  0  0  0  0  0  0  0  0
    4.7035  -13.0466    0.0000 C   0  0  0  0  0  0  0  0  0  0  0  0
    3.5604  -13.0466    0.0000 O   0  0  0  0  0  0  0  0  0  0  0  0
    4.7035  -15.0266    0.0000 O   0  0  0  0  0  0  0  0  0  0  0  0
    5.8467  -13.0466    0.0000 C   0  0  0  0  0  0  0  0  0  0  0  0
    6.4182  -13.3766    0.0000 C   0  0  0  0  0  0  0  0  0  0  0  0
    6.9898  -13.0466    0.0000 C   0  0  0  0  0  0  0  0  0  0  0  0
    7.5614  -13.3766    0.0000 C   0  0  0  0  0  0  0  0  0  0  0  0
    8.1330  -13.0466    0.0000 C   0  0  0  0  0  0  0  0  0  0  0  0
    8.1330  -12.3866    0.0000 C   0  0  0  0  0  0  0  0  0  0  0  0
    7.5614  -12.0566    0.0000 C   0  0  0  0  0  0  0  0  0  0  0  0
    6.9898  -12.3866    0.0000 C   0  0  0  0  0  0  0  0  0  0  0  0
    8.7046  -13.3766    0.0000 H   0  0  0  0  0  0  0  0  0  0  0  0
    2.9888  -13.3766    0.0000 C   0  0  2  0  0  0  0  0  0  0  0  0
    2.4172  -13.0466    0.0000 O   0  0  0  0  0  0  0  0  0  0  0  0
    1.8456  -13.3766    0.0000 C   0  0  1  0  0  0  0  0  0  0  0  0
    1.8456  -14.0366    0.0000 C   0  0  2  0  0  0  0  0  0  0  0  0
    2.4172  -14.3666    0.0000 C   0  0  1  0  0  0  0  0  0  0  0  0
    2.9888  -14.0366    0.0000 C   0  0  1  0  0  0  0  0  0  0  0  0
    1.2741  -13.0466    0.0000 C   0  0  0  0  0  0  0  0  0  0  0  0
    2.4172  -15.0266    0.0000 O   0  0  0  0  0  0  0  0  0  0  0  0
    1.2741  -14.3666    0.0000 O   0  0  0  0  0  0  0  0  0  0  0  0
    3.5604  -14.3666    0.0000 O   0  0  0  0  0  0  0  0  0  0  0  0
    0.7025  -13.3766    0.0000 O   0  0  0  0  0  0  0  0  0  0  0  0
    8.6857  -11.9757    0.0000 O   0  0  0  0  0  0  0  0  0  0  0  0
    8.6773   -9.3907    0.0000 C   0  0  2  0  0  0  0  0  0  0  0  0
    9.2502   -9.0629    0.0000 O   0  0  0  0  0  0  0  0  0  0  0  0
    9.2528   -8.4029    0.0000 C   0  0  1  0  0  0  0  0  0  0  0  0
    8.6825   -8.0707    0.0000 C   0  0  2  0  0  0  0  0  0  0  0  0
    8.1096   -8.3985    0.0000 C   0  0  1  0  0  0  0  0  0  0  0  0
    8.1070   -9.0585    0.0000 C   0  0  1  0  0  0  0  0  0  0  0  0
    9.8256   -8.0752    0.0000 C   0  0  0  0  0  0  0  0  0  0  0  0
    7.5393   -8.0662    0.0000 O   0  0  0  0  0  0  0  0  0  0  0  0
    8.6851   -7.4107    0.0000 O   0  0  0  0  0  0  0  0  0  0  0  0
    7.5342   -9.3862    0.0000 O   0  0  0  0  0  0  0  0  0  0  0  0
    9.8282   -7.4152    0.0000 O   0  0  0  0  0  0  0  0  0  0  0  0
   10.3885   -7.0829    0.0000 C   0  0  0  0  0  0  0  0  0  0  0  0
   10.9615   -7.4103    0.0000 C   0  0  0  0  0  0  0  0  0  0  0  0
   10.3855   -6.4229    0.0000 O   0  0  0  0  0  0  0  0  0  0  0  0
   10.9645   -8.0703    0.0000 C   0  0  0  0  0  0  0  0  0  0  0  0
   11.5375   -8.3978    0.0000 C   0  0  0  0  0  0  0  0  0  0  0  0
   12.1076   -8.0652    0.0000 C   0  0  0  0  0  0  0  0  0  0  0  0
   12.1047   -7.4052    0.0000 C   0  0  0  0  0  0  0  0  0  0  0  0
   11.5316   -7.0778    0.0000 C   0  0  0  0  0  0  0  0  0  0  0  0
   12.6748   -7.0727    0.0000 O   0  0  0  0  0  0  0  0  0  0  0  0
   12.6807   -8.3926    0.0000 O   0  0  0  0  0  0  0  0  0  0  0  0
   11.5405   -9.0577    0.0000 O   0  0  0  0  0  0  0  0  0  0  0  0
  1  2  2  0  0  0  0
  2  3  1  0  0  0  0
  3  4  2  0  0  0  0
  4  5  1  0  0  0  0
  5  6  2  0  0  0  0
  6  1  1  0  0  0  0
  1  7  1  0  0  0  0
  3  8  1  0  0  0  0
  5  9  1  0  0  0  0
  9 10  2  0  0  0  0
 10 11  1  0  0  0  0
 11 12  2  0  0  0  0
 12 13  1  0  0  0  0
 13 14  2  0  0  0  0
 14 15  1  0  0  0  0
 15 16  2  0  0  0  0
 16 11  1  0  0  0  0
 13 17  1  0  0  0  0
 18  7  1  1  0  0  0
 18 19  1  0  0  0  0
 19 20  1  0  0  0  0
 20 21  1  0  0  0  0
 21 22  1  0  0  0  0
 22 23  1  0  0  0  0
 23 18  1  0  0  0  0
 20 24  1  1  0  0  0
 22 25  1  1  0  0  0
 21 26  1  6  0  0  0
 23 27  1  6  0  0  0
 24 28  1  0  0  0  0
 30 29  1  1  0  0  0
 30 31  1  0  0  0  0
 31 32  1  0  0  0  0
 32 33  1  0  0  0  0
 33 34  1  0  0  0  0
 34 35  1  0  0  0  0
 35 30  1  0  0  0  0
 32 36  1  1  0  0  0
 34 37  1  1  0  0  0
 33 38  1  6  0  0  0
 35 39  1  6  0  0  0
 36 40  1  0  0  0  0
 14 29  1  0  0  0  0
 41 42  1  0  0  0  0
 41 43  2  0  0  0  0
 42 44  2  0  0  0  0
 44 45  1  0  0  0  0
 45 46  2  0  0  0  0
 46 47  1  0  0  0  0
 47 48  2  0  0  0  0
 48 42  1  0  0  0  0
 47 49  1  0  0  0  0
 46 50  1  0  0  0  0
 45 51  1  0  0  0  0
 41 40  1  0  0  0  0
M  END
>  <cdx:fragmentId>
5

$$$$
