91377.cdx
  Mrv1902 05222410212D          

 10 10  0  0  0  0            999 V2000
    5.9909   -9.2590    0.0000 C   0  0  2  0  0  0  0  0  0  0  0  0
    5.7426  -10.0457    0.0000 C   0  0  2  0  0  0  0  0  0  0  0  0
    6.4141  -10.5250    0.0000 O   0  0  0  0  0  0  0  0  0  0  0  0
    7.0775  -10.0345    0.0000 C   0  0  0  0  0  0  0  0  0  0  0  0
    6.8159   -9.2520    0.0000 C   0  0  2  0  0  0  0  0  0  0  0  0
    5.5004   -8.5957    0.0000 O   0  0  0  0  0  0  0  0  0  0  0  0
    7.2952   -8.5805    0.0000 O   0  0  0  0  0  0  0  0  0  0  0  0
    4.9602  -10.3073    0.0000 C   0  0  0  0  0  0  0  0  0  0  0  0
    7.8642  -10.2828    0.0000 O   0  0  0  0  0  0  0  0  0  0  0  0
    4.7466  -11.1042    0.0000 O   0  0  0  0  0  0  0  0  0  0  0  0
  1  2  1  0  0  0  0
  2  3  1  0  0  0  0
  3  4  1  0  0  0  0
  4  5  1  0  0  0  0
  5  1  1  0  0  0  0
  1  6  1  1  0  0  0
  5  7  1  1  0  0  0
  2  8  1  6  0  0  0
  4  9  2  0  0  0  0
  8 10  1  0  0  0  0
M  END
>  <cdx:fragmentId>
5

$$$$
