913845.cdx
  Mrv1902 05222410272D          

 35 38  0  0  0  0            999 V2000
    6.9663   -9.0278    0.0000 C   0  0  0  0  0  0  0  0  0  0  0  0
    7.6806   -8.6150    0.0000 C   0  0  0  0  0  0  0  0  0  0  0  0
    7.6802   -7.7900    0.0000 C   0  0  0  0  0  0  0  0  0  0  0  0
    6.9655   -7.3778    0.0000 C   0  0  0  0  0  0  0  0  0  0  0  0
    6.2512   -7.7907    0.0000 C   0  0  0  0  0  0  0  0  0  0  0  0
    6.2517   -8.6157    0.0000 C   0  0  0  0  0  0  0  0  0  0  0  0
    5.5366   -7.3786    0.0000 C   0  0  0  0  0  0  0  0  0  0  0  0
    4.8223   -7.7914    0.0000 C   0  0  0  0  0  0  0  0  0  0  0  0
    4.8227   -8.6164    0.0000 C   0  0  0  0  0  0  0  0  0  0  0  0
    5.5374   -9.0286    0.0000 C   0  0  0  0  0  0  0  0  0  0  0  0
    4.1076   -7.3793    0.0000 C   0  0  0  0  0  0  0  0  0  0  0  0
    3.3934   -7.7921    0.0000 C   0  0  0  0  0  0  0  0  0  0  0  0
    3.3938   -8.6171    0.0000 C   0  0  0  0  0  0  0  0  0  0  0  0
    4.1084   -9.0293    0.0000 C   0  0  0  0  0  0  0  0  0  0  0  0
    8.3953   -9.0271    0.0000 C   0  0  0  0  0  0  0  0  0  0  0  0
    9.1095   -8.6143    0.0000 O   0  0  0  0  0  0  0  0  0  0  0  0
    9.1091   -7.7893    0.0000 C   0  0  1  0  0  0  0  0  0  0  0  0
    8.3945   -7.3771    0.0000 O   0  0  0  0  0  0  0  0  0  0  0  0
    9.8242   -9.0264    0.0000 C   0  0  1  0  0  0  0  0  0  0  0  0
   10.5385   -8.6136    0.0000 C   0  0  2  0  0  0  0  0  0  0  0  0
   10.5381   -7.7886    0.0000 C   0  0  1  0  0  0  0  0  0  0  0  0
    9.8234   -7.3764    0.0000 C   0  0  1  0  0  0  0  0  0  0  0  0
    4.1072   -6.5543    0.0000 O   0  0  0  0  0  0  0  0  0  0  0  0
    5.5362   -6.5536    0.0000 O   0  0  0  0  0  0  0  0  0  0  0  0
    5.5378   -9.8536    0.0000 O   0  0  0  0  0  0  0  0  0  0  0  0
    6.9651   -6.5528    0.0000 O   0  0  0  0  0  0  0  0  0  0  0  0
    7.6794   -6.1400    0.0000 C   0  0  0  0  0  0  0  0  0  0  0  0
    9.8246   -9.8514    0.0000 C   0  0  0  0  0  0  0  0  0  0  0  0
   10.5393  -10.2636    0.0000 O   0  0  0  0  0  0  0  0  0  0  0  0
   10.5397  -11.0886    0.0000 C   0  0  0  0  0  0  0  0  0  0  0  0
   11.2544  -11.5007    0.0000 C   0  0  0  0  0  0  0  0  0  0  0  0
    9.8254  -11.5014    0.0000 O   0  0  0  0  0  0  0  0  0  0  0  0
   11.2523   -7.3757    0.0000 O   0  0  0  0  0  0  0  0  0  0  0  0
    9.8230   -6.5514    0.0000 O   0  0  0  0  0  0  0  0  0  0  0  0
   11.2532   -9.0257    0.0000 O   0  0  0  0  0  0  0  0  0  0  0  0
  1  2  1  0  0  0  0
  2  3  2  0  0  0  0
  3  4  1  0  0  0  0
  4  5  2  0  0  0  0
  5  6  1  0  0  0  0
  6  1  2  0  0  0  0
  5  7  1  0  0  0  0
  7  8  1  0  0  0  0
  8  9  2  0  0  0  0
  9 10  1  0  0  0  0
 10  6  1  0  0  0  0
  8 11  1  0  0  0  0
 11 12  2  0  0  0  0
 12 13  1  0  0  0  0
 13 14  2  0  0  0  0
 14  9  1  0  0  0  0
  2 15  1  0  0  0  0
 16 17  1  0  0  0  0
 17 18  1  1  0  0  0
 18  3  1  0  0  0  0
 16 19  1  0  0  0  0
 19 20  1  0  0  0  0
 20 21  1  0  0  0  0
 21 22  1  0  0  0  0
 22 17  1  0  0  0  0
 11 23  1  0  0  0  0
  7 24  2  0  0  0  0
 10 25  2  0  0  0  0
  4 26  1  0  0  0  0
 26 27  1  0  0  0  0
 19 28  1  1  0  0  0
 28 29  1  0  0  0  0
 29 30  1  0  0  0  0
 30 31  1  0  0  0  0
 30 32  2  0  0  0  0
 21 33  1  1  0  0  0
 22 34  1  6  0  0  0
 20 35  1  6  0  0  0
M  END
>  <cdx:fragmentId>
5

$$$$
