91382.cdx
  Mrv1902 05222410242D          

 24 28  0  0  0  0            999 V2000
    8.3872   -4.8411    0.0000 N   0  0  0  0  0  0  0  0  0  0  0  0
    7.8287   -5.4490    0.0000 C   0  0  1  0  0  0  0  0  0  0  0  0
    7.0317   -5.2657    0.0000 C   0  0  0  0  0  0  0  0  0  0  0  0
    8.0788   -6.2343    0.0000 N   0  0  0  0  0  0  0  0  0  0  0  0
    9.1899   -5.0243    0.0000 C   0  0  0  0  0  0  0  0  0  0  0  0
    6.7816   -4.4746    0.0000 C   0  0  0  0  0  0  0  0  0  0  0  0
    9.4400   -5.8184    0.0000 C   0  0  0  0  0  0  0  0  0  0  0  0
    6.3541   -5.7456    0.0000 N   0  0  0  0  0  0  0  0  0  0  0  0
    8.8845   -6.4117    0.0000 C   0  0  0  0  0  0  0  0  0  0  0  0
    5.9585   -4.4630    0.0000 C   0  0  0  0  0  0  0  0  0  0  0  0
    5.6967   -5.2512    0.0000 C   0  0  0  0  0  0  0  0  0  0  0  0
    8.1428   -4.0558    0.0000 C   0  0  0  0  0  0  0  0  0  0  0  0
    7.3371   -3.8784    0.0000 C   0  0  0  0  0  0  0  0  0  0  0  0
    9.7484   -4.4193    0.0000 O   0  0  0  0  0  0  0  0  0  0  0  0
    7.5146   -6.8363    0.0000 C   0  0  0  0  0  0  0  0  0  0  0  0
   10.2370   -6.0016    0.0000 C   0  0  0  0  0  0  0  0  0  0  0  0
    9.1346   -7.1970    0.0000 C   0  0  0  0  0  0  0  0  0  0  0  0
    5.4117   -3.8435    0.0000 C   0  0  0  0  0  0  0  0  0  0  0  0
    4.8852   -5.4141    0.0000 C   0  0  0  0  0  0  0  0  0  0  0  0
   10.4871   -6.7957    0.0000 C   0  0  0  0  0  0  0  0  0  0  0  0
    9.9403   -7.3803    0.0000 C   0  0  0  0  0  0  0  0  0  0  0  0
    4.6060   -4.0092    0.0000 C   0  0  0  0  0  0  0  0  0  0  0  0
    4.3355   -4.7945    0.0000 C   0  0  0  0  0  0  0  0  0  0  0  0
    7.2354   -6.0191    0.0000 H   0  0  0  0  0  0  0  0  0  0  0  0
  2  1  1  0  0  0  0
  3  2  1  0  0  0  0
  4  2  1  0  0  0  0
  5  1  1  0  0  0  0
  6 13  1  0  0  0  0
  7  5  1  0  0  0  0
  8  3  1  0  0  0  0
  9  7  1  0  0  0  0
 10  6  1  0  0  0  0
 11  8  1  0  0  0  0
 12  1  1  0  0  0  0
 13 12  1  0  0  0  0
 14  5  2  0  0  0  0
 15  4  1  0  0  0  0
 16  7  2  0  0  0  0
 17  9  2  0  0  0  0
 18 10  2  0  0  0  0
 19 11  2  0  0  0  0
 20 16  1  0  0  0  0
 21 20  2  0  0  0  0
 22 18  1  0  0  0  0
 23 19  1  0  0  0  0
  2 24  1  1  0  0  0
  6  3  2  0  0  0  0
  9  4  1  0  0  0  0
 10 11  1  0  0  0  0
 21 17  1  0  0  0  0
 23 22  2  0  0  0  0
M  END
>  <cdx:fragmentId>
9360

$$$$
