91385.cdx
  Mrv1902 05222410242D          

 39 41  0  0  0  0            999 V2000
    2.8306   -5.9114    0.0000 C   0  0  0  0  0  0  0  0  0  0  0  0
    2.8306   -6.7364    0.0000 C   0  0  0  0  0  0  0  0  0  0  0  0
    3.5450   -7.1489    0.0000 C   0  0  0  0  0  0  0  0  0  0  0  0
    4.2595   -6.7364    0.0000 C   0  0  0  0  0  0  0  0  0  0  0  0
    4.2595   -5.9114    0.0000 C   0  0  0  0  0  0  0  0  0  0  0  0
    3.5450   -5.4989    0.0000 C   0  0  0  0  0  0  0  0  0  0  0  0
    5.6884   -5.9114    0.0000 C   0  0  0  0  0  0  0  0  0  0  0  0
    4.9740   -5.4989    0.0000 C   0  0  0  0  0  0  0  0  0  0  0  0
    7.1174   -5.9114    0.0000 O   0  0  0  0  0  0  0  0  0  0  0  0
    6.4029   -5.4989    0.0000 C   0  0  0  0  0  0  0  0  0  0  0  0
    5.6884   -7.5614    0.0000 C   0  0  0  0  0  0  0  0  0  0  0  0
    4.9740   -7.9739    0.0000 C   0  0  0  0  0  0  0  0  0  0  0  0
    4.9740   -8.7989    0.0000 C   0  0  0  0  0  0  0  0  0  0  0  0
    5.6884   -9.2114    0.0000 C   0  0  0  0  0  0  0  0  0  0  0  0
    6.4029   -8.7989    0.0000 C   0  0  0  0  0  0  0  0  0  0  0  0
    6.4029   -7.9739    0.0000 C   0  0  0  0  0  0  0  0  0  0  0  0
    7.8319   -7.9739    0.0000 C   0  0  0  0  0  0  0  0  0  0  0  0
    7.1174   -7.5614    0.0000 C   0  0  0  0  0  0  0  0  0  0  0  0
    8.5463   -9.2114    0.0000 C   0  0  0  0  0  0  0  0  0  0  0  0
    9.2608   -8.7989    0.0000 C   0  0  1  0  0  0  0  0  0  0  0  0
    9.2608   -7.9739    0.0000 O   0  0  0  0  0  0  0  0  0  0  0  0
    8.5463   -7.5614    0.0000 C   0  0  0  0  0  0  0  0  0  0  0  0
    8.5463  -10.0364    0.0000 C   0  0  0  0  0  0  0  0  0  0  0  0
    9.2608  -10.4489    0.0000 C   0  0  0  0  0  0  0  0  0  0  0  0
    9.9753  -10.0364    0.0000 O   0  0  0  0  0  0  0  0  0  0  0  0
    9.9753   -9.2114    0.0000 C   0  0  0  0  0  0  0  0  0  0  0  0
    7.8319  -10.4489    0.0000 C   0  0  0  0  0  0  0  0  0  0  0  0
    7.8319  -11.2739    0.0000 C   0  0  0  0  0  0  0  0  0  0  0  0
    8.5463  -11.6864    0.0000 C   0  0  0  0  0  0  0  0  0  0  0  0
    9.2608  -11.2739    0.0000 C   0  0  0  0  0  0  0  0  0  0  0  0
   10.6897   -8.7989    0.0000 O   0  0  0  0  0  0  0  0  0  0  0  0
    2.1161   -5.4989    0.0000 O   0  0  0  0  0  0  0  0  0  0  0  0
    2.1161   -7.1489    0.0000 O   0  0  0  0  0  0  0  0  0  0  0  0
    6.4029   -4.6739    0.0000 O   0  0  0  0  0  0  0  0  0  0  0  0
    4.2595   -7.5614    0.0000 O   0  0  0  0  0  0  0  0  0  0  0  0
    4.2595   -9.2114    0.0000 O   0  0  0  0  0  0  0  0  0  0  0  0
    8.5463   -6.7364    0.0000 O   0  0  0  0  0  0  0  0  0  0  0  0
    8.5463  -12.5114    0.0000 O   0  0  0  0  0  0  0  0  0  0  0  0
    7.1174  -11.6864    0.0000 O   0  0  0  0  0  0  0  0  0  0  0  0
  1  2  2  0  0  0  0
  2  3  1  0  0  0  0
  3  4  2  0  0  0  0
  4  5  1  0  0  0  0
  5  6  2  0  0  0  0
  6  1  1  0  0  0  0
  7  8  2  0  0  0  0
  8  5  1  0  0  0  0
  9 10  1  0  0  0  0
 10  7  1  0  0  0  0
 11 12  2  0  0  0  0
 12 13  1  0  0  0  0
 13 14  2  0  0  0  0
 14 15  1  1  0  0  0
 15 16  2  1  0  0  0
 11 16  1  1  0  0  0
 17 18  2  0  0  0  0
 18 16  1  0  0  0  0
 19 20  1  0  0  0  0
 20 21  1  1  0  0  0
 21 22  1  0  0  0  0
 22 17  1  0  0  0  0
 19 23  1  0  0  0  0
 23 24  1  0  0  0  0
 25 26  1  0  0  0  0
 26 20  1  0  0  0  0
 23 27  2  0  0  0  0
 27 28  1  0  0  0  0
 28 29  2  0  0  0  0
 29 30  1  0  0  0  0
 30 24  2  0  0  0  0
 26 31  2  0  0  0  0
  7 11  1  0  0  0  0
  1 32  1  0  0  0  0
  2 33  1  0  0  0  0
 10 34  2  0  0  0  0
 12 35  1  0  0  0  0
 13 36  1  0  0  0  0
 22 37  2  0  0  0  0
 29 38  1  0  0  0  0
 28 39  1  0  0  0  0
M  END
>  <cdx:fragmentId>
5

$$$$
