91388.cdx
  Mrv1902 05222410222D          

 19 22  0  0  0  0            999 V2000
    5.2093   -8.8401    0.0000 C   0  0  0  0  0  0  0  0  0  0  0  0
    5.2093   -9.6651    0.0000 C   0  0  0  0  0  0  0  0  0  0  0  0
    5.9238  -10.0776    0.0000 C   0  0  0  0  0  0  0  0  0  0  0  0
    6.6382   -9.6651    0.0000 C   0  0  0  0  0  0  0  0  0  0  0  0
    6.6382   -8.8401    0.0000 C   0  0  0  0  0  0  0  0  0  0  0  0
    5.9238   -8.4276    0.0000 C   0  0  0  0  0  0  0  0  0  0  0  0
    7.3527  -10.0776    0.0000 O   0  0  0  0  0  0  0  0  0  0  0  0
    8.0672   -9.6651    0.0000 C   0  0  0  0  0  0  0  0  0  0  0  0
    8.0672   -8.8401    0.0000 C   0  0  0  0  0  0  0  0  0  0  0  0
    7.3527   -8.4276    0.0000 C   0  0  0  0  0  0  0  0  0  0  0  0
    8.7817  -10.0776    0.0000 C   0  0  0  0  0  0  0  0  0  0  0  0
    9.4961   -9.6651    0.0000 C   0  0  0  0  0  0  0  0  0  0  0  0
    9.4961   -8.8401    0.0000 C   0  0  0  0  0  0  0  0  0  0  0  0
    8.7817   -8.4276    0.0000 C   0  0  0  0  0  0  0  0  0  0  0  0
    7.3527   -7.6026    0.0000 C   0  0  0  0  0  0  0  0  0  0  0  0
    6.6382   -7.1901    0.0000 O   0  0  0  0  0  0  0  0  0  0  0  0
    5.9238   -7.6026    0.0000 C   0  0  0  0  0  0  0  0  0  0  0  0
    5.2093   -7.1901    0.0000 O   0  0  0  0  0  0  0  0  0  0  0  0
    4.4948   -8.4276    0.0000 O   0  0  0  0  0  0  0  0  0  0  0  0
  1  2  2  0  0  0  0
  2  3  1  0  0  0  0
  3  4  2  0  0  0  0
  4  5  1  0  0  0  0
  5  6  2  0  0  0  0
  6  1  1  0  0  0  0
  4  7  1  0  0  0  0
  7  8  1  0  0  0  0
  8  9  2  0  0  0  0
  9 10  1  0  0  0  0
 10  5  1  0  0  0  0
  8 11  1  0  0  0  0
 11 12  2  0  0  0  0
 12 13  1  0  0  0  0
 13 14  2  0  0  0  0
 14  9  1  0  0  0  0
 10 15  2  0  0  0  0
 15 16  1  0  0  0  0
 16 17  1  0  0  0  0
 17  6  1  0  0  0  0
 17 18  2  0  0  0  0
  1 19  1  0  0  0  0
M  END
>  <cdx:fragmentId>
5

$$$$
