91386.cdx
  Mrv1902 05222410252D          

 39 40  0  0  0  0            999 V2000
    5.7041   -9.9201    0.0000 O   0  0  0  0  0  0  0  0  0  0  0  0
    5.6744   -7.4453    0.0000 O   0  0  0  0  0  0  0  0  0  0  0  0
    4.2845  -10.7612    0.0000 O   0  0  0  0  0  0  0  0  0  0  0  0
    4.9362   -5.3907    0.0000 C   0  0  0  0  0  0  0  0  0  0  0  0
    6.3650   -5.3739    0.0000 C   0  0  0  0  0  0  0  0  0  0  0  0
    5.6554   -5.7948    0.0000 C   0  0  0  0  0  0  0  0  0  0  0  0
    8.5710  -10.7110    0.0000 C   0  0  0  0  0  0  0  0  0  0  0  0
    7.1422  -10.7277    0.0000 C   0  0  0  0  0  0  0  0  0  0  0  0
    7.8518  -10.3069    0.0000 C   0  0  0  0  0  0  0  0  0  0  0  0
    7.8421   -9.4819    0.0000 C   0  0  0  0  0  0  0  0  0  0  0  0
   10.6515   -5.3238    0.0000 C   0  0  0  0  0  0  0  0  0  0  0  0
   10.6419   -4.4988    0.0000 C   0  0  0  0  0  0  0  0  0  0  0  0
    9.9226   -4.0947    0.0000 C   0  0  0  0  0  0  0  0  0  0  0  0
    9.2130   -4.5155    0.0000 C   0  0  0  0  0  0  0  0  0  0  0  0
    9.9516   -6.5695    0.0000 C   0  0  0  0  0  0  0  0  0  0  0  0
    9.9419   -5.7446    0.0000 C   0  0  0  0  0  0  0  0  0  0  0  0
    9.2227   -5.3405    0.0000 C   0  0  0  0  0  0  0  0  0  0  0  0
    8.5131   -5.7613    0.0000 C   0  0  0  0  0  0  0  0  0  0  0  0
    9.2517   -7.8153    0.0000 C   0  0  0  0  0  0  0  0  0  0  0  0
    9.2420   -6.9904    0.0000 N   0  0  0  0  0  0  0  0  0  0  0  0
    8.5228   -6.5863    0.0000 C   0  0  0  0  0  0  0  0  0  0  0  0
    7.8228   -7.8320    0.0000 O   0  0  0  0  0  0  0  0  0  0  0  0
    7.8132   -7.0071    0.0000 C   0  0  0  0  0  0  0  0  0  0  0  0
    7.0939   -6.6030    0.0000 N   0  0  0  0  0  0  0  0  0  0  0  0
    4.9941  -10.3403    0.0000 C   0  0  0  0  0  0  0  0  0  0  0  0
    6.4230  -10.3236    0.0000 N   0  0  0  0  0  0  0  0  0  0  0  0
    6.4133   -9.4987    0.0000 C   0  0  0  0  0  0  0  0  0  0  0  0
    7.1229   -9.0778    0.0000 C   0  0  1  0  0  0  0  0  0  0  0  0
    7.1132   -8.2529    0.0000 N   0  0  0  0  0  0  0  0  0  0  0  0
    6.3940   -7.8488    0.0000 C   0  0  0  0  0  0  0  0  0  0  0  0
    6.3843   -7.0238    0.0000 C   0  0  2  0  0  0  0  0  0  0  0  0
    5.6651   -6.6197    0.0000 C   0  0  1  0  0  0  0  0  0  0  0  0
    4.9555   -7.0406    0.0000 O   0  0  0  0  0  0  0  0  0  0  0  0
    4.2652   -9.1113    0.0000 C   0  0  0  0  0  0  0  0  0  0  0  0
    4.9845   -9.5154    0.0000 C   0  0  0  0  0  0  0  0  0  0  0  0
    5.6940   -9.0946    0.0000 C   0  0  0  0  0  0  0  0  0  0  0  0
    5.6844   -8.2696    0.0000 C   0  0  0  0  0  0  0  0  0  0  0  0
    4.9651   -7.8655    0.0000 C   0  0  0  0  0  0  0  0  0  0  0  0
    4.2555   -8.2863    0.0000 C   0  0  0  0  0  0  0  0  0  0  0  0
 27  1  2  0  0  0  0
 30  2  2  0  0  0  0
 25  3  2  0  0  0  0
  6  4  1  0  0  0  0
  6  5  1  0  0  0  0
 32  6  1  1  0  0  0
  7  9  1  0  0  0  0
  9  8  1  0  0  0  0
 10  9  1  0  0  0  0
 28 10  1  1  0  0  0
 11 16  2  0  0  0  0
 12 11  1  0  0  0  0
 13 12  2  0  0  0  0
 14 13  1  0  0  0  0
 17 14  2  0  0  0  0
 15 20  1  0  0  0  0
 17 16  1  0  0  0  0
 18 17  1  0  0  0  0
 21 18  1  0  0  0  0
 20 19  1  0  0  0  0
 21 20  1  0  0  0  0
 23 21  1  0  0  0  0
 23 22  2  0  0  0  0
 24 23  1  0  0  0  0
 31 24  1  6  0  0  0
 25 35  1  0  0  0  0
 27 26  1  0  0  0  0
 28 27  1  0  0  0  0
 29 28  1  0  0  0  0
 30 29  1  0  0  0  0
 31 30  1  0  0  0  0
 32 31  1  0  0  0  0
 33 32  1  0  0  0  0
 38 33  1  0  0  0  0
 34 39  1  0  0  0  0
 35 34  2  0  0  0  0
 36 35  1  0  0  0  0
 37 36  2  0  0  0  0
 38 37  1  0  0  0  0
 39 38  2  0  0  0  0
M  END
>  <cdx:fragmentId>
5

$$$$
