91387.cdx
  Mrv1902 05222410262D          

 21 22  0  0  0  0            999 V2000
    5.5525   -8.2632    0.0000 C   0  0  0  0  0  0  0  0  0  0  0  0
    5.1400   -8.9776    0.0000 C   0  0  0  0  0  0  0  0  0  0  0  0
    5.5525   -9.6921    0.0000 C   0  0  0  0  0  0  0  0  0  0  0  0
    6.3775   -9.6921    0.0000 C   0  0  0  0  0  0  0  0  0  0  0  0
    6.7900   -8.9776    0.0000 C   0  0  0  0  0  0  0  0  0  0  0  0
    6.3775   -8.2632    0.0000 C   0  0  0  0  0  0  0  0  0  0  0  0
    5.1400   -7.5487    0.0000 O   0  0  0  0  0  0  0  0  0  0  0  0
    6.7900   -7.5487    0.0000 C   0  0  0  0  0  0  0  0  0  0  0  0
    6.3775   -6.8342    0.0000 O   0  0  0  0  0  0  0  0  0  0  0  0
    7.6150   -7.5487    0.0000 O   0  0  0  0  0  0  0  0  0  0  0  0
    8.0275   -6.8342    0.0000 C   0  0  0  0  0  0  0  0  0  0  0  0
    6.7900  -10.4066    0.0000 O   0  0  0  0  0  0  0  0  0  0  0  0
    7.6150   -8.9776    0.0000 C   0  0  0  0  0  0  0  0  0  0  0  0
    8.4400   -8.9776    0.0000 C   0  0  0  0  0  0  0  0  0  0  0  0
    9.2650   -8.9776    0.0000 C   0  0  0  0  0  0  0  0  0  0  0  0
    9.6775   -9.6921    0.0000 C   0  0  0  0  0  0  0  0  0  0  0  0
   10.5025   -9.6921    0.0000 C   0  0  0  0  0  0  0  0  0  0  0  0
   10.9150   -8.9776    0.0000 C   0  0  0  0  0  0  0  0  0  0  0  0
   10.5025   -8.2632    0.0000 C   0  0  0  0  0  0  0  0  0  0  0  0
    9.6775   -8.2632    0.0000 C   0  0  0  0  0  0  0  0  0  0  0  0
    9.2650  -10.4066    0.0000 O   0  0  0  0  0  0  0  0  0  0  0  0
  1  2  2  0  0  0  0
  2  3  1  0  0  0  0
  3  4  2  0  0  0  0
  4  5  1  0  0  0  0
  5  6  2  0  0  0  0
  6  1  1  0  0  0  0
  1  7  1  0  0  0  0
  6  8  1  0  0  0  0
  8  9  2  0  0  0  0
  8 10  1  0  0  0  0
 10 11  1  0  0  0  0
  4 12  1  0  0  0  0
  5 13  1  0  0  0  0
 13 14  3  0  0  0  0
 14 15  1  0  0  0  0
 15 16  2  0  0  0  0
 16 17  1  0  0  0  0
 17 18  2  0  0  0  0
 18 19  1  0  0  0  0
 19 20  2  0  0  0  0
 20 15  1  0  0  0  0
 16 21  1  0  0  0  0
M  END
>  <cdx:fragmentId>
5

$$$$
