91381.cdx
  Mrv1902 05222410242D          

 32 33  0  0  0  0            999 V2000
    6.6806   -8.9639    0.0000 C   0  0  0  0  0  0  0  0  0  0  0  0
    6.6806   -9.7889    0.0000 C   0  0  2  0  0  0  0  0  0  0  0  0
    7.3950  -10.2014    0.0000 C   0  0  1  0  0  0  0  0  0  0  0  0
    8.1095   -9.7889    0.0000 O   0  0  0  0  0  0  0  0  0  0  0  0
    8.1095   -8.9639    0.0000 C   0  0  0  0  0  0  0  0  0  0  0  0
    7.3950   -8.5514    0.0000 C   0  0  0  0  0  0  0  0  0  0  0  0
    5.8959   -8.7090    0.0000 C   0  0  0  0  0  0  0  0  0  0  0  0
    5.4110   -9.3764    0.0000 C   0  0  1  0  0  0  0  0  0  0  0  0
    5.8959  -10.0438    0.0000 C   0  0  2  0  0  0  0  0  0  0  0  0
    7.3950   -7.7264    0.0000 C   0  0  0  0  0  0  0  0  0  0  0  0
    8.1095   -7.3139    0.0000 O   0  0  0  0  0  0  0  0  0  0  0  0
    5.1815  -10.4563    0.0000 C   0  0  0  0  0  0  0  0  0  0  0  0
    4.4670  -10.0438    0.0000 Cl  0  0  0  0  0  0  0  0  0  0  0  0
    4.5860   -9.3764    0.0000 O   0  0  0  0  0  0  0  0  0  0  0  0
    6.5943  -10.6094    0.0000 H   0  0  0  0  0  0  0  0  0  0  0  0
    7.3950  -11.0264    0.0000 O   0  0  0  0  0  0  0  0  0  0  0  0
    5.8959  -10.8688    0.0000 O   0  0  0  0  0  0  0  0  0  0  0  0
    8.0881   -6.4887    0.0000 C   0  0  0  0  0  0  0  0  0  0  0  0
    8.7915   -6.0576    0.0000 C   0  0  0  0  0  0  0  0  0  0  0  0
    7.3630   -6.0951    0.0000 O   0  0  0  0  0  0  0  0  0  0  0  0
    8.7698   -5.2329    0.0000 C   0  0  0  0  0  0  0  0  0  0  0  0
    9.4732   -4.8018    0.0000 C   0  0  0  0  0  0  0  0  0  0  0  0
    8.0448   -4.8393    0.0000 C   0  0  0  0  0  0  0  0  0  0  0  0
    8.0898  -11.4186    0.0000 C   0  0  0  0  0  0  0  0  0  0  0  0
    8.0898  -12.2436    0.0000 C   0  0  0  0  0  0  0  0  0  0  0  0
    8.8042  -11.0060    0.0000 O   0  0  0  0  0  0  0  0  0  0  0  0
    8.8043  -12.6560    0.0000 C   0  0  0  0  0  0  0  0  0  0  0  0
    8.8044  -13.4810    0.0000 C   0  0  0  0  0  0  0  0  0  0  0  0
    9.5188  -12.2435    0.0000 C   0  0  0  0  0  0  0  0  0  0  0  0
    3.8763   -8.9558    0.0000 C   0  0  0  0  0  0  0  0  0  0  0  0
    3.1572   -9.3601    0.0000 C   0  0  0  0  0  0  0  0  0  0  0  0
    3.8857   -8.1308    0.0000 O   0  0  0  0  0  0  0  0  0  0  0  0
  1  2  1  0  0  0  0
  2  3  1  0  0  0  0
  3  4  1  0  0  0  0
  4  5  1  0  0  0  0
  5  6  2  0  0  0  0
  6  1  1  0  0  0  0
  1  7  2  0  0  0  0
  7  8  1  0  0  0  0
  8  9  1  0  0  0  0
  9  2  1  0  0  0  0
  6 10  1  0  0  0  0
 10 11  1  0  0  0  0
  9 12  1  0  0  0  0
 12 13  1  0  0  0  0
  8 14  1  1  0  0  0
  2 15  1  1  0  0  0
  3 16  1  1  0  0  0
  9 17  1  6  0  0  0
 18 19  1  0  0  0  0
 18 20  2  0  0  0  0
 19 21  1  0  0  0  0
 21 22  1  0  0  0  0
 21 23  1  0  0  0  0
 24 25  1  0  0  0  0
 24 26  2  0  0  0  0
 25 27  1  0  0  0  0
 27 28  1  0  0  0  0
 27 29  1  0  0  0  0
 18 11  1  0  0  0  0
 24 16  1  0  0  0  0
 14 30  1  0  0  0  0
 30 31  1  0  0  0  0
 30 32  2  0  0  0  0
M  END
>  <cdx:fragmentId>
5

$$$$
