913849.cdx
  Mrv1902 05222410192D          

 23 24  0  0  0  0            999 V2000
    3.7983   -8.4563    0.0000 C   0  0  2  0  0  0  0  0  0  0  0  0
    3.7983   -9.2813    0.0000 C   0  0  2  0  0  0  0  0  0  0  0  0
    4.5127   -9.6937    0.0000 C   0  0  1  0  0  0  0  0  0  0  0  0
    5.2272   -9.2813    0.0000 C   0  0  2  0  0  0  0  0  0  0  0  0
    5.2272   -8.4563    0.0000 C   0  0  1  0  0  0  0  0  0  0  0  0
    4.5127   -8.0437    0.0000 O   0  0  0  0  0  0  0  0  0  0  0  0
    5.9417   -8.0437    0.0000 O   0  0  0  0  0  0  0  0  0  0  0  0
    5.9417   -7.2188    0.0000 C   0  0  0  0  0  0  0  0  0  0  0  0
    5.2272   -6.8062    0.0000 C   0  0  0  0  0  0  0  0  0  0  0  0
    6.6562   -6.8062    0.0000 C   0  0  0  0  0  0  0  0  0  0  0  0
    6.6562   -5.9813    0.0000 C   0  0  0  0  0  0  0  0  0  0  0  0
    5.9417   -5.5687    0.0000 C   0  0  0  0  0  0  0  0  0  0  0  0
    5.2272   -5.9813    0.0000 C   0  0  0  0  0  0  0  0  0  0  0  0
    7.3706   -7.2188    0.0000 C   0  0  0  0  0  0  0  0  0  0  0  0
    8.0851   -6.8062    0.0000 C   0  0  0  0  0  0  0  0  0  0  0  0
    8.7996   -7.2188    0.0000 C   0  0  0  0  0  0  0  0  0  0  0  0
    9.5140   -6.8062    0.0000 O   0  0  0  0  0  0  0  0  0  0  0  0
    5.9417   -9.6937    0.0000 O   0  0  0  0  0  0  0  0  0  0  0  0
    4.5127  -10.5188    0.0000 O   0  0  0  0  0  0  0  0  0  0  0  0
    3.0838   -9.6937    0.0000 O   0  0  0  0  0  0  0  0  0  0  0  0
    3.0838   -8.0437    0.0000 C   0  0  0  0  0  0  0  0  0  0  0  0
    2.3693   -8.4563    0.0000 O   0  0  0  0  0  0  0  0  0  0  0  0
    8.7996   -8.0437    0.0000 O   0  0  0  0  0  0  0  0  0  0  0  0
  1  2  1  0  0  0  0
  2  3  1  0  0  0  0
  3  4  1  0  0  0  0
  4  5  1  0  0  0  0
  5  6  1  0  0  0  0
  6  1  1  0  0  0  0
  5  7  1  1  0  0  0
  7  8  1  0  0  0  0
  8  9  2  0  0  0  0
  8 10  1  0  0  0  0
 10 11  2  0  0  0  0
 11 12  1  0  0  0  0
 12 13  2  0  0  0  0
 13  9  1  0  0  0  0
 10 14  1  0  0  0  0
 14 15  2  0  0  0  0
 15 16  1  0  0  0  0
 16 17  1  0  0  0  0
  4 18  1  6  0  0  0
  3 19  1  1  0  0  0
  2 20  1  6  0  0  0
  1 21  1  1  0  0  0
 21 22  1  0  0  0  0
 16 23  2  0  0  0  0
M  END
>  <cdx:fragmentId>
5

$$$$
