91399.cdx
  Mrv1902 05222410222D          

 16 17  0  0  0  0            999 V2000
    4.9893   -9.3214    0.0000 C   0  0  0  0  0  0  0  0  0  0  0  0
    4.9893  -10.1464    0.0000 C   0  0  0  0  0  0  0  0  0  0  0  0
    5.7038  -10.5589    0.0000 C   0  0  0  0  0  0  0  0  0  0  0  0
    6.4182  -10.1464    0.0000 C   0  0  0  0  0  0  0  0  0  0  0  0
    6.4182   -9.3214    0.0000 C   0  0  0  0  0  0  0  0  0  0  0  0
    5.7038   -8.9089    0.0000 C   0  0  0  0  0  0  0  0  0  0  0  0
    7.1327  -10.5589    0.0000 C   0  0  0  0  0  0  0  0  0  0  0  0
    7.8472  -10.1464    0.0000 C   0  0  0  0  0  0  0  0  0  0  0  0
    7.8472   -9.3214    0.0000 C   0  0  0  0  0  0  0  0  0  0  0  0
    7.1327   -8.9089    0.0000 C   0  0  0  0  0  0  0  0  0  0  0  0
    8.5617  -11.3839    0.0000 C   0  0  0  0  0  0  0  0  0  0  0  0
    8.5617  -10.5589    0.0000 C   0  0  0  0  0  0  0  0  0  0  0  0
    9.2761  -10.1464    0.0000 C   0  0  0  0  0  0  0  0  0  0  0  0
    6.4182   -8.4964    0.0000 C   0  0  0  0  0  0  0  0  0  0  0  0
    5.2913  -11.2734    0.0000 O   0  0  0  0  0  0  0  0  0  0  0  0
    6.1163  -11.2734    0.0000 C   0  0  0  0  0  0  0  0  0  0  0  0
  1  2  1  0  0  0  0
  2  3  1  0  0  0  0
  3  4  1  0  0  0  0
  4  5  1  0  0  0  0
  5  6  1  0  0  0  0
  6  1  1  0  0  0  0
  4  7  1  0  0  0  0
  7  8  2  0  0  0  0
  8  9  1  0  0  0  0
  9 10  1  0  0  0  0
 10  5  1  0  0  0  0
 11 12  1  0  0  0  0
 12  8  1  0  0  0  0
 12 13  1  0  0  0  0
  5 14  1  0  0  0  0
  3 15  1  0  0  0  0
  3 16  1  0  0  0  0
M  END
>  <cdx:fragmentId>
5

$$$$
