91396.cdx
  Mrv1902 05222410242D          

 38 42  0  0  0  0            999 V2000
    3.6138   -8.0982    0.0000 C   0  0  0  0  0  0  0  0  0  0  0  0
    3.2013   -8.8126    0.0000 C   0  0  0  0  0  0  0  0  0  0  0  0
    3.6138   -9.5271    0.0000 C   0  0  0  0  0  0  0  0  0  0  0  0
    4.4388   -9.5271    0.0000 C   0  0  0  0  0  0  0  0  0  0  0  0
    4.8513   -8.8126    0.0000 C   0  0  0  0  0  0  0  0  0  0  0  0
    4.4388   -8.0982    0.0000 C   0  0  0  0  0  0  0  0  0  0  0  0
    2.3763   -8.8126    0.0000 O   0  0  0  0  0  0  0  0  0  0  0  0
    5.6763   -8.8126    0.0000 C   0  0  0  0  0  0  0  0  0  0  0  0
    6.5013   -8.8126    0.0000 C   0  0  0  0  0  0  0  0  0  0  0  0
    7.3263   -8.8126    0.0000 C   0  0  0  0  0  0  0  0  0  0  0  0
    7.7388   -9.5271    0.0000 C   0  0  0  0  0  0  0  0  0  0  0  0
    8.5638   -9.5271    0.0000 C   0  0  0  0  0  0  0  0  0  0  0  0
    8.9763   -8.8126    0.0000 C   0  0  0  0  0  0  0  0  0  0  0  0
    8.5638   -8.0982    0.0000 C   0  0  0  0  0  0  0  0  0  0  0  0
    7.7388   -8.0982    0.0000 C   0  0  0  0  0  0  0  0  0  0  0  0
    7.3263   -7.3837    0.0000 C   0  0  0  0  0  0  0  0  0  0  0  0
    8.9763  -10.2416    0.0000 C   0  0  0  0  0  0  0  0  0  0  0  0
    7.3263  -10.2416    0.0000 C   0  0  0  0  0  0  0  0  0  0  0  0
    8.5638  -10.9561    0.0000 C   0  0  0  0  0  0  0  0  0  0  0  0
    8.9763  -11.6705    0.0000 C   0  0  0  0  0  0  0  0  0  0  0  0
    9.8013  -11.6705    0.0000 C   0  0  0  0  0  0  0  0  0  0  0  0
   10.2138  -10.9561    0.0000 C   0  0  0  0  0  0  0  0  0  0  0  0
    9.8013  -10.2416    0.0000 C   0  0  0  0  0  0  0  0  0  0  0  0
   10.2138  -12.3850    0.0000 O   0  0  0  0  0  0  0  0  0  0  0  0
    7.7388  -10.9561    0.0000 C   0  0  0  0  0  0  0  0  0  0  0  0
    6.5013  -10.2416    0.0000 C   0  0  0  0  0  0  0  0  0  0  0  0
    7.0243  -11.3686    0.0000 C   0  0  0  0  0  0  0  0  0  0  0  0
    7.0243  -12.1936    0.0000 C   0  0  0  0  0  0  0  0  0  0  0  0
    7.7388  -12.6061    0.0000 C   0  0  0  0  0  0  0  0  0  0  0  0
    8.4532  -12.1936    0.0000 C   0  0  0  0  0  0  0  0  0  0  0  0
    8.4532  -11.3686    0.0000 C   0  0  0  0  0  0  0  0  0  0  0  0
    6.0888   -9.5271    0.0000 C   0  0  0  0  0  0  0  0  0  0  0  0
    5.2638   -9.5271    0.0000 C   0  0  0  0  0  0  0  0  0  0  0  0
    4.8513  -10.2416    0.0000 C   0  0  0  0  0  0  0  0  0  0  0  0
    5.2638  -10.9561    0.0000 C   0  0  0  0  0  0  0  0  0  0  0  0
    6.0888  -10.9561    0.0000 C   0  0  0  0  0  0  0  0  0  0  0  0
    4.0263  -10.2416    0.0000 O   0  0  0  0  0  0  0  0  0  0  0  0
    7.7388  -13.4311    0.0000 O   0  0  0  0  0  0  0  0  0  0  0  0
  1  2  2  0  0  0  0
  2  3  1  0  0  0  0
  3  4  2  0  0  0  0
  4  5  1  0  0  0  0
  5  6  2  0  0  0  0
  6  1  1  0  0  0  0
  2  7  1  0  0  0  0
  5  8  1  0  0  0  0
  8  9  3  0  0  0  0
  9 10  1  0  0  0  0
 10 11  2  0  0  0  0
 11 12  1  0  0  0  0
 12 13  2  0  0  0  0
 13 14  1  0  0  0  0
 14 15  2  0  0  0  0
 15 10  1  0  0  0  0
 15 16  1  0  0  0  0
 12 17  1  0  0  0  0
 11 18  1  0  0  0  0
 17 19  2  0  0  0  0
 19 20  1  0  0  0  0
 20 21  2  0  0  0  0
 21 22  1  0  0  0  0
 22 23  2  0  0  0  0
 23 17  1  0  0  0  0
 21 24  1  0  0  0  0
 18 25  1  0  0  0  0
 18 26  2  0  0  0  0
 25 27  2  0  0  0  0
 27 28  1  0  0  0  0
 28 29  2  0  0  0  0
 29 30  1  0  0  0  0
 30 31  2  0  0  0  0
 31 25  1  0  0  0  0
 26 32  1  0  0  0  0
 32 33  2  0  0  0  0
 33 34  1  0  0  0  0
 34 35  1  0  0  0  0
 35 36  2  0  0  0  0
 36 26  1  0  0  0  0
 34 37  2  0  0  0  0
 29 38  1  0  0  0  0
M  END
>  <cdx:fragmentId>
5

$$$$
