91397.cdx
  Mrv1902 05222410232D          

 46 51  0  0  0  0            999 V2000
    5.0581   -6.9564    0.0000 C   0  0  0  0  0  0  0  0  0  0  0  0
    5.0581   -7.7814    0.0000 C   0  0  0  0  0  0  0  0  0  0  0  0
    5.7725   -8.1939    0.0000 C   0  0  0  0  0  0  0  0  0  0  0  0
    6.4870   -7.7814    0.0000 C   0  0  0  0  0  0  0  0  0  0  0  0
    6.4870   -6.9564    0.0000 C   0  0  0  0  0  0  0  0  0  0  0  0
    5.7725   -6.5439    0.0000 C   0  0  0  0  0  0  0  0  0  0  0  0
    4.3436   -9.0189    0.0000 C   0  0  0  0  0  0  0  0  0  0  0  0
    5.0581   -9.4314    0.0000 C   0  0  0  0  0  0  0  0  0  0  0  0
    5.7725   -9.0189    0.0000 C   0  0  0  0  0  0  0  0  0  0  0  0
    6.4870   -9.4314    0.0000 C   0  0  0  0  0  0  0  0  0  0  0  0
    7.2015   -9.0189    0.0000 C   0  0  0  0  0  0  0  0  0  0  0  0
    3.6291   -9.4314    0.0000 C   0  0  0  0  0  0  0  0  0  0  0  0
    3.6291  -10.2564    0.0000 C   0  0  0  0  0  0  0  0  0  0  0  0
    4.3436  -10.6689    0.0000 C   0  0  0  0  0  0  0  0  0  0  0  0
    5.0581  -10.2564    0.0000 C   0  0  0  0  0  0  0  0  0  0  0  0
    6.4870  -10.2564    0.0000 C   0  0  0  0  0  0  0  0  0  0  0  0
    7.2015  -10.6689    0.0000 C   0  0  0  0  0  0  0  0  0  0  0  0
    7.9159  -10.2564    0.0000 C   0  0  0  0  0  0  0  0  0  0  0  0
    7.9159   -9.4314    0.0000 C   0  0  0  0  0  0  0  0  0  0  0  0
    7.2015  -11.4939    0.0000 C   0  0  0  0  0  0  0  0  0  0  0  0
    7.9159  -11.9064    0.0000 C   0  0  0  0  0  0  0  0  0  0  0  0
    8.6304  -11.4939    0.0000 C   0  0  0  0  0  0  0  0  0  0  0  0
    6.4870  -11.9064    0.0000 C   0  0  0  0  0  0  0  0  0  0  0  0
    6.4870  -12.7314    0.0000 C   0  0  0  0  0  0  0  0  0  0  0  0
    7.2015  -13.1439    0.0000 C   0  0  0  0  0  0  0  0  0  0  0  0
    7.9159  -12.7314    0.0000 C   0  0  0  0  0  0  0  0  0  0  0  0
    8.6304  -13.1439    0.0000 C   0  0  0  0  0  0  0  0  0  0  0  0
    9.3449  -12.7314    0.0000 O   0  0  0  0  0  0  0  0  0  0  0  0
    5.7725   -5.7189    0.0000 O   0  0  0  0  0  0  0  0  0  0  0  0
    2.9146  -10.6689    0.0000 O   0  0  0  0  0  0  0  0  0  0  0  0
    2.2002  -10.2564    0.0000 C   0  0  0  0  0  0  0  0  0  0  0  0
    9.3449  -11.0814    0.0000 C   0  0  0  0  0  0  0  0  0  0  0  0
   10.0594  -10.6689    0.0000 C   0  0  0  0  0  0  0  0  0  0  0  0
   10.7738  -11.0814    0.0000 C   0  0  0  0  0  0  0  0  0  0  0  0
   11.4883  -10.6689    0.0000 C   0  0  0  0  0  0  0  0  0  0  0  0
   11.4883   -9.8439    0.0000 C   0  0  0  0  0  0  0  0  0  0  0  0
   10.7738   -9.4314    0.0000 C   0  0  0  0  0  0  0  0  0  0  0  0
   10.0594   -9.8439    0.0000 C   0  0  0  0  0  0  0  0  0  0  0  0
   12.2028   -9.4314    0.0000 O   0  0  0  0  0  0  0  0  0  0  0  0
    5.6620  -11.9064    0.0000 C   0  0  0  0  0  0  0  0  0  0  0  0
    5.2495  -11.1919    0.0000 C   0  0  0  0  0  0  0  0  0  0  0  0
    4.4245  -11.1919    0.0000 C   0  0  0  0  0  0  0  0  0  0  0  0
    4.0120  -11.9064    0.0000 C   0  0  0  0  0  0  0  0  0  0  0  0
    4.4245  -12.6209    0.0000 C   0  0  0  0  0  0  0  0  0  0  0  0
    5.2495  -12.6209    0.0000 C   0  0  0  0  0  0  0  0  0  0  0  0
    3.1870  -11.9064    0.0000 O   0  0  0  0  0  0  0  0  0  0  0  0
  1  2  2  0  0  0  0
  2  3  1  0  0  0  0
  3  4  1  0  0  0  0
  4  5  2  0  0  0  0
  5  6  1  0  0  0  0
  6  1  1  0  0  0  0
  7  8  2  0  0  0  0
  8  9  1  0  0  0  0
  9  3  2  0  0  0  0
  9 10  1  0  0  0  0
 10 11  1  0  0  0  0
  7 12  1  0  0  0  0
 12 13  2  0  0  0  0
 13 14  1  0  0  0  0
 14 15  2  0  0  0  0
 15  8  1  0  0  0  0
 10 16  2  0  0  0  0
 16 17  1  0  0  0  0
 17 18  2  0  0  0  0
 18 19  1  0  0  0  0
 19 11  2  0  0  0  0
 17 20  1  0  0  0  0
 20 21  2  0  0  0  0
 21 22  1  0  0  0  0
 20 23  1  0  0  0  0
 23 24  2  0  0  0  0
 24 25  1  0  0  0  0
 25 26  2  0  0  0  0
 26 21  1  0  0  0  0
 26 27  1  0  0  0  0
 27 28  1  0  0  0  0
  6 29  2  0  0  0  0
 13 30  1  0  0  0  0
 30 31  1  0  0  0  0
 22 32  3  0  0  0  0
 32 33  1  0  0  0  0
 33 34  2  0  0  0  0
 34 35  1  0  0  0  0
 35 36  2  0  0  0  0
 36 37  1  0  0  0  0
 37 38  2  0  0  0  0
 38 33  1  0  0  0  0
 36 39  1  0  0  0  0
 23 40  1  0  0  0  0
 40 41  2  0  0  0  0
 41 42  1  0  0  0  0
 42 43  2  0  0  0  0
 43 44  1  0  0  0  0
 44 45  2  0  0  0  0
 45 40  1  0  0  0  0
 43 46  1  0  0  0  0
M  END
>  <cdx:fragmentId>
5

$$$$
