91392.cdx
  Mrv1902 05222410252D          

 45 48  0  0  0  0            999 V2000
    6.8043   -9.1976    0.0000 C   0  0  2  0  0  0  0  0  0  0  0  0
    6.8043  -10.0226    0.0000 C   0  0  2  0  0  0  0  0  0  0  0  0
    7.5188  -10.4351    0.0000 C   0  0  1  0  0  0  0  0  0  0  0  0
    8.2332  -10.0226    0.0000 C   0  0  2  0  0  0  0  0  0  0  0  0
    8.2332   -9.1976    0.0000 C   0  0  1  0  0  0  0  0  0  0  0  0
    7.5188   -8.7851    0.0000 O   0  0  0  0  0  0  0  0  0  0  0  0
    8.9477   -8.7851    0.0000 O   0  0  0  0  0  0  0  0  0  0  0  0
    7.5188  -11.2601    0.0000 O   0  0  0  0  0  0  0  0  0  0  0  0
    6.0898   -8.7851    0.0000 C   0  0  0  0  0  0  0  0  0  0  0  0
    6.0898  -10.4351    0.0000 O   0  0  0  0  0  0  0  0  0  0  0  0
    8.9477  -10.4351    0.0000 O   0  0  0  0  0  0  0  0  0  0  0  0
    9.6622   -9.1976    0.0000 C   0  0  0  0  0  0  0  0  0  0  0  0
   10.3767   -8.7851    0.0000 C   0  0  0  0  0  0  0  0  0  0  0  0
   13.9490   -9.1977    0.0000 C   0  0  0  0  0  0  0  0  0  0  0  0
   13.2345   -8.7852    0.0000 O   0  0  0  0  0  0  0  0  0  0  0  0
   13.2345  -10.4351    0.0000 O   0  0  0  0  0  0  0  0  0  0  0  0
   11.0911  -10.0226    0.0000 C   0  0  0  0  0  0  0  0  0  0  0  0
   11.8056  -10.4351    0.0000 C   0  0  0  0  0  0  0  0  0  0  0  0
   12.5201  -10.0226    0.0000 C   0  0  0  0  0  0  0  0  0  0  0  0
   12.5201   -9.1977    0.0000 C   0  0  0  0  0  0  0  0  0  0  0  0
   11.8056   -8.7851    0.0000 C   0  0  0  0  0  0  0  0  0  0  0  0
   11.0911   -9.1976    0.0000 C   0  0  0  0  0  0  0  0  0  0  0  0
    6.0898   -7.9601    0.0000 O   0  0  0  0  0  0  0  0  0  0  0  0
    6.8043   -7.5476    0.0000 C   0  0  2  0  0  0  0  0  0  0  0  0
    7.5188   -7.9601    0.0000 O   0  0  0  0  0  0  0  0  0  0  0  0
    8.2332   -7.5476    0.0000 C   0  0  0  0  0  0  0  0  0  0  0  0
    8.2332   -6.7226    0.0000 C   0  0  1  0  0  0  0  0  0  0  0  0
    7.5188   -6.3101    0.0000 C   0  0  1  0  0  0  0  0  0  0  0  0
    6.8043   -6.7226    0.0000 C   0  0  1  0  0  0  0  0  0  0  0  0
    6.0898   -6.3101    0.0000 O   0  0  0  0  0  0  0  0  0  0  0  0
    7.5188   -5.4851    0.0000 O   0  0  0  0  0  0  0  0  0  0  0  0
    8.9477   -6.3101    0.0000 O   0  0  0  0  0  0  0  0  0  0  0  0
    5.3754  -10.0226    0.0000 C   0  0  0  0  0  0  0  0  0  0  0  0
    4.6609  -10.4351    0.0000 C   0  0  0  0  0  0  0  0  0  0  0  0
    5.3754   -9.1976    0.0000 O   0  0  0  0  0  0  0  0  0  0  0  0
    3.9464  -10.0226    0.0000 C   0  0  0  0  0  0  0  0  0  0  0  0
    0.3741  -10.4351    0.0000 C   0  0  0  0  0  0  0  0  0  0  0  0
    1.0885  -10.0226    0.0000 O   0  0  0  0  0  0  0  0  0  0  0  0
    1.0885  -11.6726    0.0000 O   0  0  0  0  0  0  0  0  0  0  0  0
    2.5175  -10.0226    0.0000 C   0  0  0  0  0  0  0  0  0  0  0  0
    1.8030  -10.4351    0.0000 C   0  0  0  0  0  0  0  0  0  0  0  0
    1.8030  -11.2601    0.0000 C   0  0  0  0  0  0  0  0  0  0  0  0
    2.5175  -11.6726    0.0000 C   0  0  0  0  0  0  0  0  0  0  0  0
    3.2319  -11.2601    0.0000 C   0  0  0  0  0  0  0  0  0  0  0  0
    3.2319  -10.4351    0.0000 C   0  0  0  0  0  0  0  0  0  0  0  0
  1  2  1  0  0  0  0
  2  3  1  0  0  0  0
  3  4  1  0  0  0  0
  4  5  1  0  0  0  0
  5  6  1  0  0  0  0
  6  1  1  0  0  0  0
  5  7  1  1  0  0  0
  3  8  1  1  0  0  0
  1  9  1  1  0  0  0
  2 10  1  6  0  0  0
  4 11  1  6  0  0  0
  7 12  1  0  0  0  0
 12 13  1  0  0  0  0
 15 14  1  0  0  0  0
 13 22  1  0  0  0  0
 20 15  1  0  0  0  0
 19 16  1  0  0  0  0
 17 22  1  0  0  0  0
 18 17  2  0  0  0  0
 19 18  1  0  0  0  0
 20 19  2  0  0  0  0
 21 20  1  0  0  0  0
 22 21  2  0  0  0  0
  9 23  1  0  0  0  0
 24 23  1  1  0  0  0
 24 25  1  0  0  0  0
 25 26  1  0  0  0  0
 26 27  1  0  0  0  0
 27 28  1  0  0  0  0
 28 29  1  0  0  0  0
 29 24  1  0  0  0  0
 29 30  1  6  0  0  0
 28 31  1  1  0  0  0
 27 32  1  1  0  0  0
 10 33  1  0  0  0  0
 33 34  1  0  0  0  0
 33 35  2  0  0  0  0
 34 36  2  0  0  0  0
 38 37  1  0  0  0  0
 36 45  1  0  0  0  0
 41 38  1  0  0  0  0
 42 39  1  0  0  0  0
 40 45  1  0  0  0  0
 41 40  2  0  0  0  0
 42 41  1  0  0  0  0
 43 42  2  0  0  0  0
 44 43  1  0  0  0  0
 45 44  2  0  0  0  0
M  END
>  <cdx:fragmentId>
5

$$$$
