91393.cdx
  Mrv1902 05222410262D          

 32 35  0  0  0  0            999 V2000
    6.5653   -4.4525    0.0000 O   0  0  0  0  0  0  0  0  0  0  0  0
    5.1365   -4.4322    0.0000 O   0  0  0  0  0  0  0  0  0  0  0  0
    5.1247   -5.2571    0.0000 C   0  0  2  0  0  0  0  0  0  0  0  0
    5.8333   -5.6797    0.0000 C   0  0  1  0  0  0  0  0  0  0  0  0
   11.5367   -6.5861    0.0000 O   0  0  0  0  0  0  0  0  0  0  0  0
    6.4830  -10.2269    0.0000 O   0  0  0  0  0  0  0  0  0  0  0  0
    7.9117  -10.2473    0.0000 O   0  0  0  0  0  0  0  0  0  0  0  0
   10.0844   -8.2156    0.0000 C   0  0  0  0  0  0  0  0  0  0  0  0
   10.8046   -7.8133    0.0000 C   0  0  0  0  0  0  0  0  0  0  0  0
   10.8164   -6.9884    0.0000 C   0  0  0  0  0  0  0  0  0  0  0  0
   10.1079   -6.5658    0.0000 C   0  0  0  0  0  0  0  0  0  0  0  0
    9.3758   -7.7930    0.0000 C   0  0  0  0  0  0  0  0  0  0  0  0
    9.3876   -6.9680    0.0000 C   0  0  0  0  0  0  0  0  0  0  0  0
    7.9235   -9.4224    0.0000 C   0  0  0  0  0  0  0  0  0  0  0  0
    8.6438   -9.0201    0.0000 C   0  0  0  0  0  0  0  0  0  0  0  0
    8.6556   -8.1952    0.0000 C   0  0  0  0  0  0  0  0  0  0  0  0
    7.9470   -7.7726    0.0000 O   0  0  0  0  0  0  0  0  0  0  0  0
    6.4947   -9.4020    0.0000 C   0  0  0  0  0  0  0  0  0  0  0  0
    7.2150   -8.9998    0.0000 C   0  0  0  0  0  0  0  0  0  0  0  0
    7.2268   -8.1748    0.0000 C   0  0  0  0  0  0  0  0  0  0  0  0
    6.5182   -7.7522    0.0000 C   0  0  0  0  0  0  0  0  0  0  0  0
    6.5535   -5.2775    0.0000 C   0  0  0  0  0  0  0  0  0  0  0  0
    5.0659   -9.3817    0.0000 O   0  0  0  0  0  0  0  0  0  0  0  0
    5.7862   -8.9794    0.0000 C   0  0  0  0  0  0  0  0  0  0  0  0
    5.7980   -8.1545    0.0000 C   0  0  0  0  0  0  0  0  0  0  0  0
    4.4045   -5.6593    0.0000 C   0  0  1  0  0  0  0  0  0  0  0  0
    4.3927   -6.4843    0.0000 C   0  0  2  0  0  0  0  0  0  0  0  0
    5.1012   -6.9069    0.0000 C   0  0  1  0  0  0  0  0  0  0  0  0
    5.8215   -6.5046    0.0000 O   0  0  0  0  0  0  0  0  0  0  0  0
    5.0894   -7.7318    0.0000 O   0  0  0  0  0  0  0  0  0  0  0  0
    3.6724   -6.8865    0.0000 O   0  0  0  0  0  0  0  0  0  0  0  0
    3.6959   -5.2367    0.0000 O   0  0  0  0  0  0  0  0  0  0  0  0
 10  5  1  0  0  0  0
  6 18  1  0  0  0  0
 14  7  2  0  0  0  0
  8 12  2  0  0  0  0
  9  8  1  0  0  0  0
 10  9  2  0  0  0  0
 11 10  1  0  0  0  0
 13 11  2  0  0  0  0
 12 16  1  0  0  0  0
 13 12  1  0  0  0  0
 14 19  1  0  0  0  0
 15 14  1  0  0  0  0
 16 15  2  0  0  0  0
 17 16  1  0  0  0  0
 20 17  1  0  0  0  0
 18 24  1  0  0  0  0
 19 18  2  0  0  0  0
 20 19  1  0  0  0  0
 21 20  2  0  0  0  0
 25 21  1  0  0  0  0
 24 23  1  0  0  0  0
 25 24  2  0  0  0  0
 30 25  1  0  0  0  0
  3  2  1  6  0  0  0
  3  4  1  0  0  0  0
  4 22  1  1  0  0  0
 22  1  1  0  0  0  0
  3 26  1  0  0  0  0
 26 27  1  0  0  0  0
 27 28  1  0  0  0  0
 28 29  1  0  0  0  0
 29  4  1  0  0  0  0
 28 30  1  1  0  0  0
 27 31  1  6  0  0  0
 26 32  1  1  0  0  0
M  END
>  <cdx:fragmentId>
5

$$$$
