91390.cdx
  Mrv1902 05222410252D          

 22 24  0  0  0  0            999 V2000
    7.2272  -10.2968    0.0000 C   0  0  0  0  0  0  0  0  0  0  0  0
    6.7402   -9.6251    0.0000 C   0  0  0  0  0  0  0  0  0  0  0  0
    6.7356  -10.9661    0.0000 N   0  0  0  0  0  0  0  0  0  0  0  0
    5.9555   -9.8738    0.0000 C   0  0  0  0  0  0  0  0  0  0  0  0
    5.9558  -10.7043    0.0000 C   0  0  0  0  0  0  0  0  0  0  0  0
    5.2411   -9.4585    0.0000 C   0  0  0  0  0  0  0  0  0  0  0  0
    5.2372  -11.1150    0.0000 C   0  0  0  0  0  0  0  0  0  0  0  0
    4.5289   -9.8700    0.0000 C   0  0  0  0  0  0  0  0  0  0  0  0
    4.5201  -10.7006    0.0000 C   0  0  0  0  0  0  0  0  0  0  0  0
    6.9984   -8.8415    0.0000 C   0  0  0  0  0  0  0  0  0  0  0  0
    7.8061   -8.6733    0.0000 C   0  0  0  0  0  0  0  0  0  0  0  0
    8.0643   -7.8898    0.0000 N   0  0  0  0  0  0  0  0  0  0  0  0
    7.5148   -7.2744    0.0000 C   0  0  0  0  0  0  0  0  0  0  0  0
    8.8720   -7.7216    0.0000 C   0  0  0  0  0  0  0  0  0  0  0  0
    9.4215   -8.3370    0.0000 O   0  0  0  0  0  0  0  0  0  0  0  0
    9.1302   -6.9380    0.0000 C   0  0  0  0  0  0  0  0  0  0  0  0
    9.9378   -6.7699    0.0000 C   0  0  0  0  0  0  0  0  0  0  0  0
   10.1960   -5.9863    0.0000 C   0  0  0  0  0  0  0  0  0  0  0  0
    9.6465   -5.3709    0.0000 C   0  0  0  0  0  0  0  0  0  0  0  0
    8.8389   -5.5391    0.0000 C   0  0  0  0  0  0  0  0  0  0  0  0
    8.5807   -6.3227    0.0000 C   0  0  0  0  0  0  0  0  0  0  0  0
   10.4873   -7.3852    0.0000 N   0  0  0  0  0  0  0  0  0  0  0  0
  3  1  1  0  0  0  0
  4  2  1  0  0  0  0
  5  3  1  0  0  0  0
  6  4  2  0  0  0  0
  7  5  2  0  0  0  0
  8  6  1  0  0  0  0
  9  7  1  0  0  0  0
  2  1  2  0  0  0  0
  4  5  1  0  0  0  0
  9  8  2  0  0  0  0
  2 10  1  0  0  0  0
 10 11  1  0  0  0  0
 11 12  1  0  0  0  0
 12 13  1  0  0  0  0
 12 14  1  0  0  0  0
 14 15  2  0  0  0  0
 14 16  1  0  0  0  0
 16 17  2  0  0  0  0
 17 18  1  0  0  0  0
 18 19  2  0  0  0  0
 19 20  1  0  0  0  0
 20 21  2  0  0  0  0
 21 16  1  0  0  0  0
 17 22  1  0  0  0  0
M  END
>  <cdx:fragmentId>
9417

$$$$
