91391.cdx
  Mrv1902 05222410242D          

 63 69  0  0  0  0            999 V2000
    2.5208  -12.5312    0.0000 O   0  0  0  0  0  0  0  0  0  0  0  0
    3.2353  -12.9437    0.0000 C   0  0  2  0  0  0  0  0  0  0  0  0
    3.2353  -13.7687    0.0000 C   0  0  1  0  0  0  0  0  0  0  0  0
    2.5208  -14.1812    0.0000 C   0  0  2  0  0  0  0  0  0  0  0  0
    1.8063  -13.7687    0.0000 C   0  0  1  0  0  0  0  0  0  0  0  0
    1.8063  -12.9437    0.0000 C   0  0  1  0  0  0  0  0  0  0  0  0
    3.9497  -14.1812    0.0000 O   0  0  0  0  0  0  0  0  0  0  0  0
    2.5208  -15.0062    0.0000 O   0  0  0  0  0  0  0  0  0  0  0  0
    1.0919  -14.1812    0.0000 O   0  0  0  0  0  0  0  0  0  0  0  0
    1.0919  -12.5312    0.0000 C   0  0  0  0  0  0  0  0  0  0  0  0
    0.3774  -12.9437    0.0000 O   0  0  0  0  0  0  0  0  0  0  0  0
    3.9497  -12.5312    0.0000 O   0  0  0  0  0  0  0  0  0  0  0  0
    4.6642  -11.2937    0.0000 C   0  0  2  0  0  0  0  0  0  0  0  0
    5.4488  -11.5486    0.0000 C   0  0  1  0  0  0  0  0  0  0  0  0
    6.2693  -11.6349    0.0000 O   0  0  0  0  0  0  0  0  0  0  0  0
    5.9338  -10.8812    0.0000 C   0  0  1  0  0  0  0  0  0  0  0  0
    5.4488  -10.2138    0.0000 C   0  0  2  0  0  0  0  0  0  0  0  0
    4.6642  -10.4687    0.0000 C   0  0  2  0  0  0  0  0  0  0  0  0
    3.9497  -10.0562    0.0000 C   0  0  0  0  0  0  0  0  0  0  0  0
    3.2353  -10.4687    0.0000 C   0  0  0  0  0  0  0  0  0  0  0  0
    3.2353  -11.2937    0.0000 O   0  0  0  0  0  0  0  0  0  0  0  0
    3.9497  -11.7062    0.0000 C   0  0  1  0  0  0  0  0  0  0  0  0
    5.2773  -12.3556    0.0000 C   0  0  0  0  0  0  0  0  0  0  0  0
    5.7038   -9.4291    0.0000 O   0  0  0  0  0  0  0  0  0  0  0  0
    4.6642  -12.1187    0.0000 H   0  0  0  0  0  0  0  0  0  0  0  0
    6.6482  -10.4687    0.0000 H   0  0  0  0  0  0  0  0  0  0  0  0
    4.7504   -9.6482    0.0000 H   0  0  0  0  0  0  0  0  0  0  0  0
    5.8904  -12.9077    0.0000 O   0  0  0  0  0  0  0  0  0  0  0  0
    6.4157   -9.0123    0.0000 C   0  0  2  0  0  0  0  0  0  0  0  0
    7.1327   -9.4203    0.0000 O   0  0  0  0  0  0  0  0  0  0  0  0
    7.8446   -9.0035    0.0000 C   0  0  2  0  0  0  0  0  0  0  0  0
    7.8395   -8.1785    0.0000 C   0  0  1  0  0  0  0  0  0  0  0  0
    7.1225   -7.7704    0.0000 C   0  0  2  0  0  0  0  0  0  0  0  0
    6.4106   -8.1873    0.0000 C   0  0  1  0  0  0  0  0  0  0  0  0
    8.5514   -7.7616    0.0000 O   0  0  0  0  0  0  0  0  0  0  0  0
    7.1174   -6.9454    0.0000 O   0  0  0  0  0  0  0  0  0  0  0  0
    8.5616   -9.4115    0.0000 C   0  0  0  0  0  0  0  0  0  0  0  0
    5.6936   -7.7792    0.0000 O   0  0  0  0  0  0  0  0  0  0  0  0
    4.9817   -8.1961    0.0000 C   0  0  0  0  0  0  0  0  0  0  0  0
    4.2647   -7.7880    0.0000 C   0  0  0  0  0  0  0  0  0  0  0  0
    4.9868   -9.0211    0.0000 O   0  0  0  0  0  0  0  0  0  0  0  0
    6.4004   -6.5373    0.0000 C   0  0  0  0  0  0  0  0  0  0  0  0
    5.6885   -6.9542    0.0000 O   0  0  0  0  0  0  0  0  0  0  0  0
    6.3954   -5.7123    0.0000 C   0  0  0  0  0  0  0  0  0  0  0  0
    5.6784   -5.3042    0.0000 C   0  0  0  0  0  0  0  0  0  0  0  0
    5.6733   -4.4792    0.0000 C   0  0  0  0  0  0  0  0  0  0  0  0
    6.3890   -4.0689    0.0000 C   0  0  0  0  0  0  0  0  0  0  0  0
    6.3890   -3.2439    0.0000 C   0  0  0  0  0  0  0  0  0  0  0  0
    5.6733   -2.8292    0.0000 C   0  0  0  0  0  0  0  0  0  0  0  0
    4.9576   -3.2439    0.0000 C   0  0  0  0  0  0  0  0  0  0  0  0
    4.9576   -4.0689    0.0000 C   0  0  0  0  0  0  0  0  0  0  0  0
    9.2684   -8.1697    0.0000 C   0  0  0  0  0  0  0  0  0  0  0  0
    9.9804   -7.7528    0.0000 C   0  0  0  0  0  0  0  0  0  0  0  0
    9.2735   -8.9947    0.0000 O   0  0  0  0  0  0  0  0  0  0  0  0
   10.6974   -8.1609    0.0000 C   0  0  0  0  0  0  0  0  0  0  0  0
   11.4093   -7.7440    0.0000 C   0  0  0  0  0  0  0  0  0  0  0  0
   12.1288   -8.1476    0.0000 C   0  0  0  0  0  0  0  0  0  0  0  0
   12.8381   -7.7440    0.0000 C   0  0  0  0  0  0  0  0  0  0  0  0
   12.8381   -6.9190    0.0000 C   0  0  0  0  0  0  0  0  0  0  0  0
   12.1288   -6.5154    0.0000 C   0  0  0  0  0  0  0  0  0  0  0  0
   11.4093   -6.9190    0.0000 C   0  0  0  0  0  0  0  0  0  0  0  0
   13.5513   -6.5043    0.0000 O   0  0  0  0  0  0  0  0  0  0  0  0
   14.2670   -6.9146    0.0000 C   0  0  0  0  0  0  0  0  0  0  0  0
  1  2  1  0  0  0  0
  2  3  1  0  0  0  0
  3  4  1  0  0  0  0
  4  5  1  0  0  0  0
  5  6  1  0  0  0  0
  1  6  1  0  0  0  0
  3  7  1  6  0  0  0
  4  8  1  1  0  0  0
  5  9  1  6  0  0  0
 10 11  1  0  0  0  0
  6 10  1  1  0  0  0
 13 14  1  0  0  0  0
 14 15  1  0  0  0  0
 15 16  1  0  0  0  0
 16 17  1  0  0  0  0
 17 18  1  0  0  0  0
 18 19  1  0  0  0  0
 19 20  2  0  0  0  0
 20 21  1  0  0  0  0
 21 22  1  0  0  0  0
 13 22  1  0  0  0  0
 13 18  1  0  0  0  0
 14 16  1  0  0  0  0
 14 23  1  1  0  0  0
 17 24  1  6  0  0  0
 22 12  1  6  0  0  0
  2 12  1  1  0  0  0
 13 25  1  6  0  0  0
 16 26  1  1  0  0  0
 18 27  1  6  0  0  0
 23 28  1  0  0  0  0
 29 24  1  1  0  0  0
 29 30  1  0  0  0  0
 30 31  1  0  0  0  0
 31 32  1  0  0  0  0
 32 33  1  0  0  0  0
 33 34  1  0  0  0  0
 34 29  1  0  0  0  0
 32 35  1  1  0  0  0
 33 36  1  6  0  0  0
 31 37  1  6  0  0  0
 34 38  1  6  0  0  0
 38 39  1  0  0  0  0
 39 40  1  0  0  0  0
 39 41  2  0  0  0  0
 36 42  1  0  0  0  0
 42 43  2  0  0  0  0
 42 44  1  0  0  0  0
 44 45  2  0  0  0  0
 45 46  1  0  0  0  0
 46 47  2  0  0  0  0
 47 48  1  0  0  0  0
 48 49  2  0  0  0  0
 49 50  1  0  0  0  0
 50 51  2  0  0  0  0
 51 46  1  0  0  0  0
 35 52  1  0  0  0  0
 52 53  1  0  0  0  0
 52 54  2  0  0  0  0
 53 55  2  0  0  0  0
 55 56  1  0  0  0  0
 56 57  2  0  0  0  0
 57 58  1  0  0  0  0
 58 59  2  0  0  0  0
 59 60  1  0  0  0  0
 60 61  2  0  0  0  0
 61 56  1  0  0  0  0
 59 62  1  0  0  0  0
 62 63  1  0  0  0  0
M  END
>  <cdx:fragmentId>
146540

$$$$
