91398.cdx
  Mrv1902 05222410222D          

 33 36  0  0  0  0            999 V2000
    5.9381  -11.8926    0.0000 C   0  0  0  0  0  0  0  0  0  0  0  0
    5.9381  -12.7176    0.0000 C   0  0  0  0  0  0  0  0  0  0  0  0
    6.6525  -13.1301    0.0000 C   0  0  0  0  0  0  0  0  0  0  0  0
    7.3670  -12.7176    0.0000 C   0  0  0  0  0  0  0  0  0  0  0  0
    7.3670  -11.8926    0.0000 C   0  0  0  0  0  0  0  0  0  0  0  0
    6.6525  -11.4801    0.0000 C   0  0  0  0  0  0  0  0  0  0  0  0
    5.2236  -11.4801    0.0000 C   0  0  0  0  0  0  0  0  0  0  0  0
    4.5091  -12.7176    0.0000 O   0  0  0  0  0  0  0  0  0  0  0  0
    5.2236  -13.1301    0.0000 C   0  0  0  0  0  0  0  0  0  0  0  0
    8.0815  -11.4801    0.0000 C   0  0  0  0  0  0  0  0  0  0  0  0
    8.0815  -10.6551    0.0000 C   0  0  0  0  0  0  0  0  0  0  0  0
    7.3670  -10.2426    0.0000 O   0  0  0  0  0  0  0  0  0  0  0  0
    6.6525  -10.6551    0.0000 C   0  0  0  0  0  0  0  0  0  0  0  0
    8.7959  -11.8926    0.0000 C   0  0  0  0  0  0  0  0  0  0  0  0
    9.5104  -11.4801    0.0000 C   0  0  0  0  0  0  0  0  0  0  0  0
    9.5104  -10.6551    0.0000 C   0  0  0  0  0  0  0  0  0  0  0  0
    8.7959  -10.2426    0.0000 C   0  0  0  0  0  0  0  0  0  0  0  0
    5.9381  -10.2426    0.0000 C   0  0  0  0  0  0  0  0  0  0  0  0
    5.2236  -10.6551    0.0000 C   0  0  0  0  0  0  0  0  0  0  0  0
    5.9381   -9.4176    0.0000 C   0  0  0  0  0  0  0  0  0  0  0  0
    5.2236   -9.0051    0.0000 C   0  0  0  0  0  0  0  0  0  0  0  0
    4.5091   -9.4176    0.0000 C   0  0  0  0  0  0  0  0  0  0  0  0
    4.5091  -10.2426    0.0000 C   0  0  0  0  0  0  0  0  0  0  0  0
    3.7946   -9.0051    0.0000 O   0  0  0  0  0  0  0  0  0  0  0  0
    4.5091  -11.0676    0.0000 C   0  0  0  0  0  0  0  0  0  0  0  0
    3.7946  -10.6551    0.0000 C   0  0  0  0  0  0  0  0  0  0  0  0
    3.7946   -9.8301    0.0000 C   0  0  0  0  0  0  0  0  0  0  0  0
    3.0802   -9.4176    0.0000 C   0  0  0  0  0  0  0  0  0  0  0  0
    2.3657   -9.8301    0.0000 C   0  0  0  0  0  0  0  0  0  0  0  0
    2.3657  -10.6551    0.0000 C   0  0  0  0  0  0  0  0  0  0  0  0
    3.0802  -11.0676    0.0000 C   0  0  0  0  0  0  0  0  0  0  0  0
    1.6512   -9.4176    0.0000 O   0  0  0  0  0  0  0  0  0  0  0  0
   10.2249  -10.2426    0.0000 O   0  0  0  0  0  0  0  0  0  0  0  0
  1  2  2  0  0  0  0
  2  3  1  0  0  0  0
  3  4  2  0  0  0  0
  4  5  1  0  0  0  0
  5  6  2  0  0  0  0
  6  1  1  0  0  0  0
  1  7  1  0  0  0  0
  8  9  1  0  0  0  0
  9  2  1  0  0  0  0
  5 10  1  0  0  0  0
 10 11  1  0  0  0  0
 12 13  2  0  0  0  0
 13  6  1  0  0  0  0
 10 14  2  0  0  0  0
 14 15  1  0  0  0  0
 15 16  2  0  0  0  0
 16 17  1  0  0  0  0
 17 11  2  0  0  0  0
 13 18  1  0  0  0  0
 18 19  1  0  0  0  0
 18 20  2  0  0  0  0
 20 21  1  0  0  0  0
 21 22  2  0  0  0  0
 22 23  1  0  0  0  0
 23 19  2  0  0  0  0
 22 24  1  0  0  0  0
  7 25  3  0  0  0  0
 25 26  1  0  0  0  0
 26 27  2  0  0  0  0
 27 28  1  0  0  0  0
 28 29  2  0  0  0  0
 29 30  1  0  0  0  0
 30 31  2  0  0  0  0
 31 26  1  0  0  0  0
 29 32  1  0  0  0  0
 16 33  1  0  0  0  0
M  END
>  <cdx:fragmentId>
5

$$$$
