91402.cdx
  Mrv1902 05222410222D          

 10  9  0  0  0  0            999 V2000
    6.3582   -4.0867    0.0000 N   0  0  0  0  0  0  0  0  0  0  0  0
    7.0719   -4.5004    0.0000 C   0  0  2  0  0  0  0  0  0  0  0  0
    7.7871   -4.0891    0.0000 C   0  0  0  0  0  0  0  0  0  0  0  0
    7.7885   -3.2641    0.0000 O   0  0  0  0  0  0  0  0  0  0  0  0
    8.5009   -4.5029    0.0000 O   0  0  0  0  0  0  0  0  0  0  0  0
    6.3553   -5.7367    0.0000 Se  0  0  0  0  0  0  0  0  0  0  0  0
    7.0705   -5.3254    0.0000 C   0  0  0  0  0  0  0  0  0  0  0  0
    6.3547   -6.5617    0.0000 C   0  0  0  0  0  0  0  0  0  0  0  0
    5.6402   -6.9742    0.0000 C   0  0  0  0  0  0  0  0  0  0  0  0
    5.6402   -7.7992    0.0000 C   0  0  0  0  0  0  0  0  0  0  0  0
  2  1  1  6  0  0  0
  7  6  1  0  0  0  0
  2  7  1  0  0  0  0
  2  3  1  0  0  0  0
  3  4  2  0  0  0  0
  3  5  1  0  0  0  0
  6  8  1  0  0  0  0
  8  9  1  0  0  0  0
  9 10  1  0  0  0  0
M  END
>  <cdx:fragmentId>
47

$$$$
