91409.cdx
  Mrv1902 05222410252D          

 26 27  0  0  0  0            999 V2000
    9.9339  -11.0895    0.0000 O   0  0  0  0  0  0  0  0  0  0  0  0
   11.3682  -10.2740    0.0000 O   0  0  0  0  0  0  0  0  0  0  0  0
    2.8112   -7.7422    0.0000 C   0  0  0  0  0  0  0  0  0  0  0  0
    2.8057   -8.5672    0.0000 O   0  0  0  0  0  0  0  0  0  0  0  0
    2.7948  -10.2171    0.0000 O   0  0  0  0  0  0  0  0  0  0  0  0
    3.5010  -11.4593    0.0000 C   0  0  0  0  0  0  0  0  0  0  0  0
    4.2182  -11.0516    0.0000 O   0  0  0  0  0  0  0  0  0  0  0  0
    4.2346   -8.5767    0.0000 C   0  0  0  0  0  0  0  0  0  0  0  0
    3.5174   -8.9844    0.0000 C   0  0  0  0  0  0  0  0  0  0  0  0
    3.5120   -9.8094    0.0000 C   0  0  0  0  0  0  0  0  0  0  0  0
    4.2237  -10.2266    0.0000 C   0  0  0  0  0  0  0  0  0  0  0  0
    4.9464   -8.9939    0.0000 C   0  0  0  0  0  0  0  0  0  0  0  0
    4.9409   -9.8189    0.0000 C   0  0  0  0  0  0  0  0  0  0  0  0
    5.6635   -8.5861    0.0000 C   0  0  0  0  0  0  0  0  0  0  0  0
    6.3753   -9.0034    0.0000 C   0  0  0  0  0  0  0  0  0  0  0  0
    7.0979   -7.7706    0.0000 O   0  0  0  0  0  0  0  0  0  0  0  0
    7.0925   -8.5956    0.0000 C   0  0  0  0  0  0  0  0  0  0  0  0
    8.5214   -8.6051    0.0000 C   0  0  0  0  0  0  0  0  0  0  0  0
    7.8042   -9.0129    0.0000 O   0  0  0  0  0  0  0  0  0  0  0  0
    8.5104  -10.2551    0.0000 O   0  0  0  0  0  0  0  0  0  0  0  0
   10.6620   -9.0318    0.0000 C   0  0  0  0  0  0  0  0  0  0  0  0
    9.9503   -8.6146    0.0000 O   0  0  0  0  0  0  0  0  0  0  0  0
    9.2331   -9.0223    0.0000 C   0  0  1  0  0  0  0  0  0  0  0  0
    9.2276   -9.8473    0.0000 C   0  0  2  0  0  0  0  0  0  0  0  0
    9.9393  -10.2645    0.0000 C   0  0  1  0  0  0  0  0  0  0  0  0
   10.6565   -9.8568    0.0000 C   0  0  1  0  0  0  0  0  0  0  0  0
 25  1  1  1  0  0  0
 26  2  1  6  0  0  0
  4  3  1  0  0  0  0
  9  4  1  0  0  0  0
  5 10  1  0  0  0  0
  7  6  1  0  0  0  0
 11  7  1  0  0  0  0
  8 12  2  0  0  0  0
  9  8  1  0  0  0  0
 10  9  2  0  0  0  0
 11 10  1  0  0  0  0
 13 11  2  0  0  0  0
 12 14  1  0  0  0  0
 13 12  1  0  0  0  0
 15 14  2  0  0  0  0
 17 15  1  0  0  0  0
 17 16  2  0  0  0  0
 19 17  1  0  0  0  0
 23 18  1  1  0  0  0
 19 18  1  0  0  0  0
 24 20  1  6  0  0  0
 21 26  1  0  0  0  0
 22 21  1  0  0  0  0
 23 22  1  0  0  0  0
 24 23  1  0  0  0  0
 25 24  1  0  0  0  0
 26 25  1  0  0  0  0
M  END
>  <cdx:fragmentId>
5

$$$$
