91401.cdx
  Mrv1902 05222410222D          

 62 69  0  0  0  0            999 V2000
    3.9031   -8.5376    0.0000 O   0  0  0  0  0  0  0  0  0  0  0  0
    4.6175   -8.9501    0.0000 C   0  0  0  0  0  0  0  0  0  0  0  0
    5.3320   -8.5376    0.0000 C   0  0  0  0  0  0  0  0  0  0  0  0
    5.3320   -7.7126    0.0000 C   0  0  0  0  0  0  0  0  0  0  0  0
    6.0465   -8.9501    0.0000 C   0  0  0  0  0  0  0  0  0  0  0  0
    6.7609   -8.5376    0.0000 C   0  0  0  0  0  0  0  0  0  0  0  0
    6.7609   -7.7126    0.0000 C   0  0  0  0  0  0  0  0  0  0  0  0
    6.0465   -7.3001    0.0000 C   0  0  0  0  0  0  0  0  0  0  0  0
    7.4754   -8.9501    0.0000 C   0  0  0  0  0  0  0  0  0  0  0  0
    8.1899   -8.5376    0.0000 C   0  0  0  0  0  0  0  0  0  0  0  0
    8.1899   -7.7126    0.0000 C   0  0  0  0  0  0  0  0  0  0  0  0
    7.4754   -7.3001    0.0000 C   0  0  0  0  0  0  0  0  0  0  0  0
    8.9044   -8.9501    0.0000 C   0  0  0  0  0  0  0  0  0  0  0  0
    9.6188   -8.5376    0.0000 C   0  0  0  0  0  0  0  0  0  0  0  0
    9.6188   -7.7126    0.0000 C   0  0  0  0  0  0  0  0  0  0  0  0
    8.9044   -7.3001    0.0000 C   0  0  0  0  0  0  0  0  0  0  0  0
    7.4754   -6.4751    0.0000 O   0  0  0  0  0  0  0  0  0  0  0  0
    6.0465   -6.4751    0.0000 O   0  0  0  0  0  0  0  0  0  0  0  0
    8.9044   -6.4751    0.0000 O   0  0  0  0  0  0  0  0  0  0  0  0
   10.3333   -6.4751    0.0000 O   0  0  0  0  0  0  0  0  0  0  0  0
    9.6188   -6.0626    0.0000 C   0  0  0  0  0  0  0  0  0  0  0  0
   11.0478   -6.0626    0.0000 C   0  0  0  0  0  0  0  0  0  0  0  0
   11.0478   -5.2376    0.0000 C   0  0  0  0  0  0  0  0  0  0  0  0
   10.3333   -4.8251    0.0000 C   0  0  0  0  0  0  0  0  0  0  0  0
    9.6188   -5.2376    0.0000 C   0  0  0  0  0  0  0  0  0  0  0  0
   11.7622   -6.4751    0.0000 C   0  0  0  0  0  0  0  0  0  0  0  0
   12.4767   -6.0626    0.0000 O   0  0  0  0  0  0  0  0  0  0  0  0
   11.7622   -4.8251    0.0000 O   0  0  0  0  0  0  0  0  0  0  0  0
    6.0465   -9.7751    0.0000 C   0  0  0  0  0  0  0  0  0  0  0  0
    6.7609  -10.1876    0.0000 C   0  0  0  0  0  0  0  0  0  0  0  0
    7.4754   -9.7751    0.0000 C   0  0  0  0  0  0  0  0  0  0  0  0
    5.3320  -10.1876    0.0000 C   0  0  0  0  0  0  0  0  0  0  0  0
    5.3320  -11.0126    0.0000 C   0  0  0  0  0  0  0  0  0  0  0  0
    6.0465  -11.4251    0.0000 C   0  0  0  0  0  0  0  0  0  0  0  0
    6.7609  -11.0126    0.0000 C   0  0  0  0  0  0  0  0  0  0  0  0
    7.4754  -11.4251    0.0000 C   0  0  0  0  0  0  0  0  0  0  0  0
    8.1899  -11.0126    0.0000 C   0  0  0  0  0  0  0  0  0  0  0  0
    8.1899  -10.1876    0.0000 C   0  0  0  0  0  0  0  0  0  0  0  0
    8.9044  -11.4251    0.0000 C   0  0  0  0  0  0  0  0  0  0  0  0
    9.6188  -11.0126    0.0000 C   0  0  0  0  0  0  0  0  0  0  0  0
    9.6188  -10.1876    0.0000 C   0  0  0  0  0  0  0  0  0  0  0  0
    8.9044   -9.7751    0.0000 C   0  0  0  0  0  0  0  0  0  0  0  0
   11.0478  -10.1876    0.0000 O   0  0  0  0  0  0  0  0  0  0  0  0
   10.3333   -9.7751    0.0000 C   0  0  0  0  0  0  0  0  0  0  0  0
    6.0465  -12.2501    0.0000 O   0  0  0  0  0  0  0  0  0  0  0  0
    7.4754  -12.2501    0.0000 O   0  0  0  0  0  0  0  0  0  0  0  0
    8.9044  -12.2501    0.0000 O   0  0  0  0  0  0  0  0  0  0  0  0
    4.6175  -12.2501    0.0000 O   0  0  0  0  0  0  0  0  0  0  0  0
    5.3320  -12.6626    0.0000 C   0  0  0  0  0  0  0  0  0  0  0  0
    3.9031  -12.6626    0.0000 C   0  0  0  0  0  0  0  0  0  0  0  0
    3.9031  -13.4876    0.0000 C   0  0  0  0  0  0  0  0  0  0  0  0
    4.6175  -13.9001    0.0000 C   0  0  0  0  0  0  0  0  0  0  0  0
    5.3320  -13.4876    0.0000 C   0  0  0  0  0  0  0  0  0  0  0  0
    3.1886  -12.2501    0.0000 C   0  0  0  0  0  0  0  0  0  0  0  0
    2.4741  -12.6626    0.0000 O   0  0  0  0  0  0  0  0  0  0  0  0
    3.1886  -13.9001    0.0000 O   0  0  0  0  0  0  0  0  0  0  0  0
    4.6175  -14.7251    0.0000 O   0  0  0  0  0  0  0  0  0  0  0  0
    6.0465  -13.9001    0.0000 O   0  0  0  0  0  0  0  0  0  0  0  0
   10.3333   -8.9501    0.0000 O   0  0  0  0  0  0  0  0  0  0  0  0
    4.6175   -9.7751    0.0000 O   0  0  0  0  0  0  0  0  0  0  0  0
    8.9044   -4.8251    0.0000 O   0  0  0  0  0  0  0  0  0  0  0  0
   10.3333   -4.0001    0.0000 O   0  0  0  0  0  0  0  0  0  0  0  0
  1  2  1  0  0  0  0
  2  3  1  0  0  0  0
  3  4  1  0  0  0  0
  3  5  2  0  0  0  0
  5  6  1  0  0  0  0
  6  7  2  0  0  0  0
  7  8  1  0  0  0  0
  8  4  2  0  0  0  0
  6  9  1  0  0  0  0
  9 10  1  0  0  0  0
 10 11  2  0  0  0  0
 11 12  1  0  0  0  0
 12  7  1  0  0  0  0
 10 13  1  0  0  0  0
 13 14  2  0  0  0  0
 14 15  1  0  0  0  0
 15 16  2  0  0  0  0
 16 11  1  0  0  0  0
 12 17  2  0  0  0  0
 18  8  1  0  0  0  0
 16 19  1  0  0  0  0
 20 21  1  0  0  0  0
 21 19  1  0  0  0  0
 20 22  1  0  0  0  0
 22 23  1  0  0  0  0
 23 24  1  0  0  0  0
 24 25  1  0  0  0  0
 25 21  1  0  0  0  0
 22 26  1  0  0  0  0
 26 27  1  0  0  0  0
 28 23  1  0  0  0  0
 29 30  1  0  0  0  0
 30 31  1  0  0  0  0
 31  9  1  0  0  0  0
 29 32  2  0  0  0  0
 32 33  1  0  0  0  0
 33 34  2  0  0  0  0
 34 35  1  0  0  0  0
 35 30  2  0  0  0  0
 35 36  1  0  0  0  0
 36 37  1  0  0  0  0
 37 38  2  0  0  0  0
 38 31  1  0  0  0  0
 37 39  1  0  0  0  0
 39 40  2  0  0  0  0
 40 41  1  0  0  0  0
 41 42  2  0  0  0  0
 42 38  1  0  0  0  0
 43 44  1  0  0  0  0
 44 41  1  0  0  0  0
 34 45  1  0  0  0  0
 46 36  2  0  0  0  0
 47 39  1  0  0  0  0
 48 49  1  0  0  0  0
 49 45  1  0  0  0  0
 48 50  1  0  0  0  0
 50 51  1  0  0  0  0
 51 52  1  0  0  0  0
 52 53  1  0  0  0  0
 53 49  1  0  0  0  0
 50 54  1  0  0  0  0
 54 55  1  0  0  0  0
 56 51  1  0  0  0  0
 52 57  1  0  0  0  0
 53 58  1  0  0  0  0
 44 59  2  0  0  0  0
  2 60  2  0  0  0  0
 25 61  1  0  0  0  0
 24 62  1  0  0  0  0
M  END
>  <cdx:fragmentId>
5

$$$$
