91406.cdx
  Mrv1902 05222410212D          

 20 23  0  0  0  0            999 V2000
    3.9443   -8.2764    0.0000 C   0  0  0  0  0  0  0  0  0  0  0  0
    3.9443   -9.1014    0.0000 C   0  0  2  0  0  0  0  0  0  0  0  0
    4.6588   -9.5139    0.0000 C   0  0  1  0  0  0  0  0  0  0  0  0
    5.3732   -9.1014    0.0000 C   0  0  1  0  0  0  0  0  0  0  0  0
    5.3732   -8.2764    0.0000 C   0  0  2  0  0  0  0  0  0  0  0  0
    4.6588   -7.8639    0.0000 C   0  0  2  0  0  0  0  0  0  0  0  0
    6.0877   -9.5139    0.0000 C   0  0  0  0  0  0  0  0  0  0  0  0
    6.8022   -9.1014    0.0000 C   0  0  0  0  0  0  0  0  0  0  0  0
    6.8022   -8.2764    0.0000 C   0  0  0  0  0  0  0  0  0  0  0  0
    6.0877   -7.8639    0.0000 C   0  0  0  0  0  0  0  0  0  0  0  0
    7.5868   -9.3563    0.0000 C   0  0  0  0  0  0  0  0  0  0  0  0
    8.0717   -8.6889    0.0000 C   0  0  0  0  0  0  0  0  0  0  0  0
    7.5868   -8.0215    0.0000 O   0  0  0  0  0  0  0  0  0  0  0  0
    7.8417  -10.1410    0.0000 C   0  0  0  0  0  0  0  0  0  0  0  0
    5.3732   -7.4514    0.0000 C   0  0  0  0  0  0  0  0  0  0  0  0
    5.0713  -10.2284    0.0000 C   0  0  0  0  0  0  0  0  0  0  0  0
    4.2463  -10.2284    0.0000 O   0  0  0  0  0  0  0  0  0  0  0  0
    5.3732   -9.9264    0.0000 H   0  0  0  0  0  0  0  0  0  0  0  0
    8.8967   -8.6889    0.0000 O   0  0  0  0  0  0  0  0  0  0  0  0
    4.6588  -10.9428    0.0000 O   0  0  0  0  0  0  0  0  0  0  0  0
  2  1  1  1  0  0  0
  2  3  1  0  0  0  0
  3  4  1  0  0  0  0
  4  5  1  0  0  0  0
  5  6  1  0  0  0  0
  6  1  1  1  0  0  0
  4  7  1  0  0  0  0
  7  8  1  0  0  0  0
  8  9  1  0  0  0  0
  9 10  2  0  0  0  0
 10  5  1  0  0  0  0
  8 11  2  0  0  0  0
 11 12  1  0  0  0  0
 12 13  1  0  0  0  0
 13  9  1  0  0  0  0
 11 14  1  0  0  0  0
  2  6  1  0  0  0  0
  5 15  1  1  0  0  0
  3 16  1  1  0  0  0
  3 17  1  6  0  0  0
  4 18  1  6  0  0  0
 12 19  2  0  0  0  0
 16 20  1  0  0  0  0
M  END
>  <cdx:fragmentId>
5

$$$$
