91400.cdx
  Mrv1902 05222410222D          

 16 18  0  0  0  0            999 V2000
    4.7556  -11.8514    0.0000 C   0  0  0  0  0  0  0  0  0  0  0  0
    4.7556  -12.6764    0.0000 C   0  0  0  0  0  0  0  0  0  0  0  0
    5.4700  -13.0889    0.0000 C   0  0  0  0  0  0  0  0  0  0  0  0
    6.1845  -12.6764    0.0000 C   0  0  0  0  0  0  0  0  0  0  0  0
    6.1845  -11.8514    0.0000 C   0  0  0  0  0  0  0  0  0  0  0  0
    5.4700  -11.4389    0.0000 C   0  0  0  0  0  0  0  0  0  0  0  0
    6.8990  -11.4389    0.0000 C   0  0  0  0  0  0  0  0  0  0  0  0
    6.8990  -10.6139    0.0000 C   0  0  0  0  0  0  0  0  0  0  0  0
    6.1845  -10.2014    0.0000 C   0  0  0  0  0  0  0  0  0  0  0  0
    5.4700  -10.6139    0.0000 C   0  0  0  0  0  0  0  0  0  0  0  0
    6.0130   -9.3944    0.0000 C   0  0  0  0  0  0  0  0  0  0  0  0
    5.1925   -9.3082    0.0000 C   0  0  0  0  0  0  0  0  0  0  0  0
    4.8569  -10.0619    0.0000 O   0  0  0  0  0  0  0  0  0  0  0  0
    6.5650   -8.7813    0.0000 C   0  0  0  0  0  0  0  0  0  0  0  0
    7.0095  -12.6764    0.0000 C   0  0  0  0  0  0  0  0  0  0  0  0
    6.7679  -13.2598    0.0000 C   0  0  0  0  0  0  0  0  0  0  0  0
  1  2  1  0  0  0  0
  2  3  1  0  0  0  0
  3  4  1  0  0  0  0
  4  5  1  0  0  0  0
  5  6  1  0  0  0  0
  6  1  1  0  0  0  0
  5  7  2  0  0  0  0
  7  8  1  0  0  0  0
  8  9  2  0  0  0  0
  9 10  1  0  0  0  0
 10  6  2  0  0  0  0
  9 11  1  0  0  0  0
 11 12  2  0  0  0  0
 12 13  1  0  0  0  0
 13 10  1  0  0  0  0
 11 14  1  0  0  0  0
  4 15  1  0  0  0  0
  4 16  1  0  0  0  0
M  END
>  <cdx:fragmentId>
5

$$$$
