91404.cdx
  Mrv1902 05222410212D          

 44 48  0  0  0  0            999 V2000
    1.9368   -8.1251    0.0000 C   0  0  0  0  0  0  0  0  0  0  0  0
    1.9368   -8.9501    0.0000 C   0  0  0  0  0  0  0  0  0  0  0  0
    2.6513   -9.3626    0.0000 C   0  0  0  0  0  0  0  0  0  0  0  0
    3.3657   -8.9501    0.0000 C   0  0  0  0  0  0  0  0  0  0  0  0
    3.3657   -8.1251    0.0000 C   0  0  0  0  0  0  0  0  0  0  0  0
    2.6513   -7.7126    0.0000 C   0  0  0  0  0  0  0  0  0  0  0  0
    4.0802   -9.3626    0.0000 C   0  0  0  0  0  0  0  0  0  0  0  0
    4.7947   -8.9501    0.0000 C   0  0  0  0  0  0  0  0  0  0  0  0
    4.7947   -8.1251    0.0000 C   0  0  0  0  0  0  0  0  0  0  0  0
    4.0802   -7.7126    0.0000 C   0  0  0  0  0  0  0  0  0  0  0  0
    6.2236   -8.9501    0.0000 C   0  0  0  0  0  0  0  0  0  0  0  0
    6.2236   -8.1251    0.0000 C   0  0  0  0  0  0  0  0  0  0  0  0
    5.5092   -7.7126    0.0000 C   0  0  0  0  0  0  0  0  0  0  0  0
    6.9381   -9.3626    0.0000 C   0  0  0  0  0  0  0  0  0  0  0  0
    7.6526   -8.9501    0.0000 C   0  0  0  0  0  0  0  0  0  0  0  0
    7.6526   -8.1251    0.0000 C   0  0  0  0  0  0  0  0  0  0  0  0
    6.9381   -7.7126    0.0000 C   0  0  0  0  0  0  0  0  0  0  0  0
    8.3670   -9.3626    0.0000 C   0  0  0  0  0  0  0  0  0  0  0  0
    9.0815   -8.9501    0.0000 C   0  0  0  0  0  0  0  0  0  0  0  0
    9.0815   -8.1251    0.0000 C   0  0  0  0  0  0  0  0  0  0  0  0
    8.3670   -7.7126    0.0000 C   0  0  0  0  0  0  0  0  0  0  0  0
   10.5105   -8.1251    0.0000 C   0  0  0  0  0  0  0  0  0  0  0  0
    9.7960   -7.7126    0.0000 C   0  0  0  0  0  0  0  0  0  0  0  0
   11.9394   -8.9501    0.0000 C   0  0  0  0  0  0  0  0  0  0  0  0
   11.9394   -8.1251    0.0000 C   0  0  0  0  0  0  0  0  0  0  0  0
   11.2249   -7.7126    0.0000 C   0  0  0  0  0  0  0  0  0  0  0  0
   12.6539   -7.7126    0.0000 C   0  0  0  0  0  0  0  0  0  0  0  0
    2.6513   -6.8876    0.0000 O   0  0  0  0  0  0  0  0  0  0  0  0
    2.6513  -10.1876    0.0000 O   0  0  0  0  0  0  0  0  0  0  0  0
    4.0802   -6.8876    0.0000 O   0  0  0  0  0  0  0  0  0  0  0  0
    4.0802  -10.1876    0.0000 O   0  0  0  0  0  0  0  0  0  0  0  0
    5.5092   -6.8876    0.0000 C   0  0  0  0  0  0  0  0  0  0  0  0
    4.7947   -6.4751    0.0000 C   0  0  0  0  0  0  0  0  0  0  0  0
    4.7947   -5.6501    0.0000 C   0  0  0  0  0  0  0  0  0  0  0  0
    4.0802   -5.2376    0.0000 C   0  0  0  0  0  0  0  0  0  0  0  0
    5.5092   -5.2376    0.0000 C   0  0  0  0  0  0  0  0  0  0  0  0
    6.9381   -6.8876    0.0000 O   0  0  0  0  0  0  0  0  0  0  0  0
    6.9381  -10.1876    0.0000 O   0  0  0  0  0  0  0  0  0  0  0  0
    8.3670   -6.8876    0.0000 O   0  0  0  0  0  0  0  0  0  0  0  0
    8.3670  -10.1876    0.0000 O   0  0  0  0  0  0  0  0  0  0  0  0
    9.7960   -6.8876    0.0000 O   0  0  0  0  0  0  0  0  0  0  0  0
   10.5105   -6.4751    0.0000 C   0  0  0  0  0  0  0  0  0  0  0  0
   10.5105   -5.6501    0.0000 O   0  0  0  0  0  0  0  0  0  0  0  0
   11.2249   -6.8876    0.0000 C   0  0  0  0  0  0  0  0  0  0  0  0
  1  2  1  0  0  0  0
  2  3  2  0  0  0  0
  3  4  1  0  0  0  0
  4  5  2  0  0  0  0
  5  6  1  0  0  0  0
  6  1  2  0  0  0  0
  4  7  1  0  0  0  0
  7  8  2  0  0  0  0
  8  9  1  0  0  0  0
  9 10  1  0  0  0  0
 10  5  1  0  0  0  0
 11 12  1  0  0  0  0
 12 13  1  0  0  0  0
 13  9  2  0  0  0  0
 11 14  1  0  0  0  0
 14 15  1  0  0  0  0
 15 16  2  0  0  0  0
 16 17  1  0  0  0  0
 17 12  1  0  0  0  0
 15 18  1  0  0  0  0
 18 19  2  0  0  0  0
 19 20  1  0  0  0  0
 20 21  2  0  0  0  0
 21 16  1  0  0  0  0
 22 23  1  0  0  0  0
 23 20  1  0  0  0  0
 24 25  1  0  0  0  0
 25 26  2  0  0  0  0
 26 22  1  0  0  0  0
 27 25  1  0  0  0  0
  6 28  1  0  0  0  0
  3 29  1  0  0  0  0
 10 30  2  0  0  0  0
  7 31  1  0  0  0  0
  8 11  1  0  0  0  0
 13 32  1  0  0  0  0
 32 33  1  0  0  0  0
 33 34  2  0  0  0  0
 34 35  1  0  0  0  0
 34 36  1  0  0  0  0
 17 37  2  0  0  0  0
 14 38  2  0  0  0  0
 21 39  1  0  0  0  0
 18 40  1  0  0  0  0
 23 41  1  0  0  0  0
 41 42  1  0  0  0  0
 42 43  2  0  0  0  0
 42 44  1  0  0  0  0
M  END
>  <cdx:fragmentId>
168

$$$$
