91416.cdx
  Mrv1902 05222410222D          

 26 29  0  0  0  0            999 V2000
    2.2668   -9.3764    0.0000 C   0  0  0  0  0  0  0  0  0  0  0  0
    2.9813   -9.7889    0.0000 O   0  0  0  0  0  0  0  0  0  0  0  0
    3.6957   -9.3764    0.0000 C   0  0  0  0  0  0  0  0  0  0  0  0
    3.6957   -8.5514    0.0000 C   0  0  0  0  0  0  0  0  0  0  0  0
    2.9813   -8.1389    0.0000 O   0  0  0  0  0  0  0  0  0  0  0  0
    4.4102   -9.7889    0.0000 C   0  0  0  0  0  0  0  0  0  0  0  0
    5.1247   -9.3764    0.0000 C   0  0  0  0  0  0  0  0  0  0  0  0
    5.1247   -8.5514    0.0000 C   0  0  0  0  0  0  0  0  0  0  0  0
    4.4102   -8.1389    0.0000 C   0  0  0  0  0  0  0  0  0  0  0  0
    5.8392   -9.7889    0.0000 C   0  0  0  0  0  0  0  0  0  0  0  0
    6.5536   -9.3764    0.0000 C   0  0  0  0  0  0  0  0  0  0  0  0
    6.5536   -8.5514    0.0000 C   0  0  0  0  0  0  0  0  0  0  0  0
    5.8392   -8.1389    0.0000 O   0  0  0  0  0  0  0  0  0  0  0  0
    7.2681   -9.7889    0.0000 O   0  0  0  0  0  0  0  0  0  0  0  0
    7.9826   -9.3764    0.0000 C   0  0  0  0  0  0  0  0  0  0  0  0
    7.9826   -8.5514    0.0000 C   0  0  0  0  0  0  0  0  0  0  0  0
    7.2681   -8.1389    0.0000 O   0  0  0  0  0  0  0  0  0  0  0  0
    8.6970   -9.7889    0.0000 C   0  0  0  0  0  0  0  0  0  0  0  0
    9.4115   -9.3764    0.0000 C   0  0  0  0  0  0  0  0  0  0  0  0
    9.4115   -8.5514    0.0000 C   0  0  0  0  0  0  0  0  0  0  0  0
    8.6970   -8.1389    0.0000 C   0  0  0  0  0  0  0  0  0  0  0  0
   10.1260   -9.7889    0.0000 C   0  0  0  0  0  0  0  0  0  0  0  0
   10.8405   -9.3764    0.0000 C   0  0  0  0  0  0  0  0  0  0  0  0
   10.8405   -8.5514    0.0000 C   0  0  0  0  0  0  0  0  0  0  0  0
   10.1260   -8.1389    0.0000 O   0  0  0  0  0  0  0  0  0  0  0  0
   11.5549   -8.1389    0.0000 O   0  0  0  0  0  0  0  0  0  0  0  0
  1  2  1  0  0  0  0
  2  3  1  0  0  0  0
  3  4  1  0  0  0  0
  4  5  1  0  0  0  0
  3  6  2  0  0  0  0
  6  7  1  0  0  0  0
  7  8  2  0  0  0  0
  8  9  1  0  0  0  0
  9  4  2  0  0  0  0
  7 10  1  0  0  0  0
 10 11  2  0  0  0  0
 11 12  1  0  0  0  0
 12 13  1  0  0  0  0
 13  8  1  0  0  0  0
 11 14  1  0  0  0  0
 14 15  1  0  0  0  0
 15 16  1  0  0  0  0
 17 12  2  0  0  0  0
 15 18  2  0  0  0  0
 18 19  1  0  0  0  0
 19 20  2  0  0  0  0
 20 21  1  0  0  0  0
 21 16  2  0  0  0  0
 19 22  1  0  0  0  0
 22 23  2  0  0  0  0
 23 24  1  0  0  0  0
 24 25  1  0  0  0  0
 25 20  1  0  0  0  0
 24 26  2  0  0  0  0
M  END
>  <cdx:fragmentId>
5

$$$$
