91413.cdx
  Mrv1902 05222410202D          

 53 57  0  0  0  0            999 V2000
    3.3118   -4.6601    0.0000 C   0  0  0  0  0  0  0  0  0  0  0  0
    3.3118   -5.4851    0.0000 C   0  0  0  0  0  0  0  0  0  0  0  0
    4.0263   -5.8976    0.0000 C   0  0  0  0  0  0  0  0  0  0  0  0
    4.7407   -5.4851    0.0000 C   0  0  0  0  0  0  0  0  0  0  0  0
    4.7407   -4.6601    0.0000 C   0  0  0  0  0  0  0  0  0  0  0  0
    4.0263   -4.2476    0.0000 C   0  0  0  0  0  0  0  0  0  0  0  0
    4.0263   -6.7226    0.0000 C   0  0  0  0  0  0  0  0  0  0  0  0
    4.7407   -7.1351    0.0000 C   0  0  2  0  0  0  0  0  0  0  0  0
    5.4552   -6.7226    0.0000 C   0  0  0  0  0  0  0  0  0  0  0  0
    5.4552   -5.8976    0.0000 O   0  0  0  0  0  0  0  0  0  0  0  0
    5.4552   -5.0726    0.0000 Na  0  0  0  0  0  0  0  0  0  0  0  0
    4.7407   -7.9601    0.0000 O   0  0  0  0  0  0  0  0  0  0  0  0
    5.4552   -8.3726    0.0000 C   0  0  0  0  0  0  0  0  0  0  0  0
    6.1697   -7.9601    0.0000 O   0  0  0  0  0  0  0  0  0  0  0  0
    6.1697   -7.1351    0.0000 O   0  0  0  0  0  0  0  0  0  0  0  0
    5.4552   -9.1976    0.0000 C   0  0  0  0  0  0  0  0  0  0  0  0
    6.1697   -9.6101    0.0000 C   0  0  0  0  0  0  0  0  0  0  0  0
    5.4552  -10.8476    0.0000 C   0  0  0  0  0  0  0  0  0  0  0  0
    6.1697  -10.4351    0.0000 C   0  0  0  0  0  0  0  0  0  0  0  0
    5.4552  -11.6726    0.0000 C   0  0  0  0  0  0  0  0  0  0  0  0
    6.1697  -12.0851    0.0000 C   0  0  0  0  0  0  0  0  0  0  0  0
    6.8842  -11.6726    0.0000 C   0  0  0  0  0  0  0  0  0  0  0  0
    6.8842  -10.8476    0.0000 C   0  0  0  0  0  0  0  0  0  0  0  0
    7.6688  -11.9276    0.0000 O   0  0  0  0  0  0  0  0  0  0  0  0
    8.1537  -11.2601    0.0000 C   0  0  1  0  0  0  0  0  0  0  0  0
    7.6688  -10.5927    0.0000 C   0  0  1  0  0  0  0  0  0  0  0  0
    7.9237   -9.8081    0.0000 C   0  0  0  0  0  0  0  0  0  0  0  0
    8.9787  -11.2601    0.0000 C   0  0  0  0  0  0  0  0  0  0  0  0
    9.3912  -11.9746    0.0000 C   0  0  0  0  0  0  0  0  0  0  0  0
   10.2162  -11.9746    0.0000 C   0  0  0  0  0  0  0  0  0  0  0  0
   10.6287  -11.2601    0.0000 C   0  0  0  0  0  0  0  0  0  0  0  0
   10.2162  -10.5457    0.0000 C   0  0  0  0  0  0  0  0  0  0  0  0
    9.3912  -10.5457    0.0000 C   0  0  0  0  0  0  0  0  0  0  0  0
    8.7307   -9.6366    0.0000 O   0  0  0  0  0  0  0  0  0  0  0  0
    8.9856   -8.8519    0.0000 O   0  0  0  0  0  0  0  0  0  0  0  0
    8.4336   -8.2388    0.0000 C   0  0  0  0  0  0  0  0  0  0  0  0
    7.6266   -8.4104    0.0000 C   0  0  2  0  0  0  0  0  0  0  0  0
    7.3717   -9.1950    0.0000 O   0  0  0  0  0  0  0  0  0  0  0  0
    8.6885   -7.4542    0.0000 O   0  0  0  0  0  0  0  0  0  0  0  0
    8.1365   -6.8411    0.0000 C   0  0  0  0  0  0  0  0  0  0  0  0
    7.3295   -7.0127    0.0000 C   0  0  0  0  0  0  0  0  0  0  0  0
    7.0746   -7.7973    0.0000 C   0  0  0  0  0  0  0  0  0  0  0  0
    8.3914   -6.0565    0.0000 C   0  0  0  0  0  0  0  0  0  0  0  0
    7.8394   -5.4434    0.0000 C   0  0  0  0  0  0  0  0  0  0  0  0
    7.0324   -5.6149    0.0000 C   0  0  0  0  0  0  0  0  0  0  0  0
    6.7775   -6.3996    0.0000 C   0  0  0  0  0  0  0  0  0  0  0  0
    4.0263   -3.4226    0.0000 O   0  0  0  0  0  0  0  0  0  0  0  0
    5.4552   -4.2476    0.0000 O   0  0  0  0  0  0  0  0  0  0  0  0
    6.1697  -12.9101    0.0000 O   0  0  0  0  0  0  0  0  0  0  0  0
   11.4537  -11.2601    0.0000 O   0  0  0  0  0  0  0  0  0  0  0  0
   10.6287  -12.6891    0.0000 O   0  0  0  0  0  0  0  0  0  0  0  0
    8.0943   -4.6588    0.0000 O   0  0  0  0  0  0  0  0  0  0  0  0
    9.1984   -5.8850    0.0000 O   0  0  0  0  0  0  0  0  0  0  0  0
  1  2  2  0  0  0  0
  2  3  1  0  0  0  0
  3  4  2  0  0  0  0
  4  5  1  0  0  0  0
  5  6  2  0  0  0  0
  6  1  1  0  0  0  0
  3  7  1  0  0  0  0
  7  8  1  0  0  0  0
  8  9  1  0  0  0  0
  9 10  1  0  0  0  0
  8 12  1  6  0  0  0
 12 13  1  0  0  0  0
 13 14  2  0  0  0  0
 15  9  2  0  0  0  0
 13 16  1  0  0  0  0
 16 17  2  0  0  0  0
 18 19  1  0  0  0  0
 19 17  1  0  0  0  0
 18 20  2  0  0  0  0
 20 21  1  0  0  0  0
 21 22  2  0  0  0  0
 22 23  1  0  0  0  0
 23 19  2  0  0  0  0
 22 24  1  0  0  0  0
 24 25  1  0  0  0  0
 25 26  1  0  0  0  0
 26 23  1  0  0  0  0
 26 27  1  6  0  0  0
 25 28  1  1  0  0  0
 28 29  2  0  0  0  0
 29 30  1  0  0  0  0
 30 31  2  0  0  0  0
 31 32  1  0  0  0  0
 32 33  2  0  0  0  0
 33 28  1  0  0  0  0
 27 34  2  0  0  0  0
 35 36  2  0  0  0  0
 36 37  1  0  0  0  0
 37 38  1  6  0  0  0
 38 27  1  0  0  0  0
 36 39  1  0  0  0  0
 40 41  2  0  0  0  0
 41 42  1  0  0  0  0
 42 37  1  0  0  0  0
 40 43  1  0  0  0  0
 43 44  2  0  0  0  0
 44 45  1  0  0  0  0
 45 46  2  0  0  0  0
 46 41  1  0  0  0  0
  6 47  1  0  0  0  0
  5 48  1  0  0  0  0
 21 49  1  0  0  0  0
 31 50  1  0  0  0  0
 30 51  1  0  0  0  0
 44 52  1  0  0  0  0
 43 53  1  0  0  0  0
 10 11  1  0  0  0  0
M  STY  1   1 SUP
M  SAL   1  2  10  11
M  SBL   1  1  10
M  SMT   1 ONa
M  SAP   1  1  10   9  1
M  END
>  <cdx:fragmentId>
5

$$$$
