91412.cdx
  Mrv1902 05222410212D          

 24 26  0  0  0  0            999 V2000
    4.7556   -9.2801    0.0000 C   0  0  0  0  0  0  0  0  0  0  0  0
    4.7556  -10.1051    0.0000 C   0  0  0  0  0  0  0  0  0  0  0  0
    5.4700  -10.5176    0.0000 C   0  0  0  0  0  0  0  0  0  0  0  0
    6.1845  -10.1051    0.0000 C   0  0  0  0  0  0  0  0  0  0  0  0
    6.1845   -9.2801    0.0000 C   0  0  0  0  0  0  0  0  0  0  0  0
    5.4700   -8.8676    0.0000 C   0  0  0  0  0  0  0  0  0  0  0  0
    6.8990  -10.5176    0.0000 C   0  0  0  0  0  0  0  0  0  0  0  0
    7.6134  -10.1051    0.0000 C   0  0  0  0  0  0  0  0  0  0  0  0
    7.6134   -9.2801    0.0000 C   0  0  0  0  0  0  0  0  0  0  0  0
    6.8990   -8.8676    0.0000 O   0  0  0  0  0  0  0  0  0  0  0  0
    4.0411   -8.8676    0.0000 O   0  0  0  0  0  0  0  0  0  0  0  0
    5.4700  -11.3426    0.0000 O   0  0  0  0  0  0  0  0  0  0  0  0
    6.8990  -11.3426    0.0000 O   0  0  0  0  0  0  0  0  0  0  0  0
    8.3279  -10.5176    0.0000 O   0  0  0  0  0  0  0  0  0  0  0  0
    8.3279  -11.3426    0.0000 C   0  0  2  0  0  0  0  0  0  0  0  0
    7.6134  -11.7551    0.0000 O   0  0  0  0  0  0  0  0  0  0  0  0
    7.6134  -12.5801    0.0000 C   0  0  2  0  0  0  0  0  0  0  0  0
    8.3279  -12.9926    0.0000 C   0  0  1  0  0  0  0  0  0  0  0  0
    9.0424  -12.5801    0.0000 C   0  0  2  0  0  0  0  0  0  0  0  0
    9.0424  -11.7551    0.0000 C   0  0  1  0  0  0  0  0  0  0  0  0
    8.3279  -13.8176    0.0000 O   0  0  0  0  0  0  0  0  0  0  0  0
    6.8990  -12.9926    0.0000 C   0  0  0  0  0  0  0  0  0  0  0  0
    9.7569  -11.3426    0.0000 O   0  0  0  0  0  0  0  0  0  0  0  0
    9.7569  -12.9926    0.0000 O   0  0  0  0  0  0  0  0  0  0  0  0
  1  2  2  0  0  0  0
  2  3  1  0  0  0  0
  3  4  2  0  0  0  0
  4  5  1  0  0  0  0
  5  6  2  0  0  0  0
  6  1  1  0  0  0  0
  4  7  1  0  0  0  0
  7  8  1  0  0  0  0
  8  9  2  0  0  0  0
  9 10  1  0  0  0  0
 10  5  1  0  0  0  0
  1 11  1  0  0  0  0
  3 12  1  0  0  0  0
  7 13  2  0  0  0  0
  8 14  1  1  0  0  0
 15 14  1  1  0  0  0
 15 16  1  0  0  0  0
 16 17  1  0  0  0  0
 17 18  1  0  0  0  0
 18 19  1  0  0  0  0
 19 20  1  0  0  0  0
 20 15  1  0  0  0  0
 18 21  1  1  0  0  0
 17 22  1  6  0  0  0
 20 23  1  6  0  0  0
 19 24  1  6  0  0  0
M  END
>  <cdx:fragmentId>
5

$$$$
