91410.cdx
  Mrv1902 05222410212D          

 38 40  0  0  0  0            999 V2000
    6.3065   -5.9214    0.0000 O   0  0  0  0  0  0  0  0  0  0  0  0
    4.6539  -11.3370    0.0000 O   0  0  0  0  0  0  0  0  0  0  0  0
    6.0882  -10.5215    0.0000 O   0  0  0  0  0  0  0  0  0  0  0  0
    7.3975   -7.3466    0.0000 O   0  0  0  0  0  0  0  0  0  0  0  0
    4.6139   -5.6936    0.0000 O   0  0  0  0  0  0  0  0  0  0  0  0
    4.6139   -6.5186    0.0000 C   0  0  0  0  0  0  0  0  0  0  0  0
    6.5727   -7.3672    0.0000 C   0  0  1  0  0  0  0  0  0  0  0  0
    6.0712   -6.7121    0.0000 C   0  0  1  0  0  0  0  0  0  0  0  0
    5.2932   -6.9866    0.0000 C   0  0  2  0  0  0  0  0  0  0  0  0
    5.3139   -7.8114    0.0000 O   0  0  0  0  0  0  0  0  0  0  0  0
    6.1047   -8.0466    0.0000 C   0  0  1  0  0  0  0  0  0  0  0  0
    6.0992   -8.8716    0.0000 O   0  0  0  0  0  0  0  0  0  0  0  0
    3.2414   -8.8526    0.0000 C   0  0  0  0  0  0  0  0  0  0  0  0
    2.5242   -9.2604    0.0000 O   0  0  0  0  0  0  0  0  0  0  0  0
    3.2304  -10.5026    0.0000 O   0  0  0  0  0  0  0  0  0  0  0  0
    5.3820   -9.2793    0.0000 C   0  0  1  0  0  0  0  0  0  0  0  0
    4.6703   -8.8621    0.0000 O   0  0  0  0  0  0  0  0  0  0  0  0
    3.9531   -9.2698    0.0000 C   0  0  1  0  0  0  0  0  0  0  0  0
    3.9476  -10.0948    0.0000 C   0  0  2  0  0  0  0  0  0  0  0  0
    4.6593  -10.5120    0.0000 C   0  0  1  0  0  0  0  0  0  0  0  0
    5.3765  -10.1043    0.0000 C   0  0  1  0  0  0  0  0  0  0  0  0
    6.8191   -8.4591    0.0000 C   0  0  0  0  0  0  0  0  0  0  0  0
    7.5336   -8.0466    0.0000 O   0  0  0  0  0  0  0  0  0  0  0  0
    7.8100   -6.6321    0.0000 C   0  0  0  0  0  0  0  0  0  0  0  0
    8.6350   -6.6321    0.0000 C   0  0  0  0  0  0  0  0  0  0  0  0
    7.3975   -5.9176    0.0000 O   0  0  0  0  0  0  0  0  0  0  0  0
    9.0475   -5.9176    0.0000 C   0  0  0  0  0  0  0  0  0  0  0  0
    9.8725   -5.9176    0.0000 C   0  0  0  0  0  0  0  0  0  0  0  0
   10.2850   -6.6321    0.0000 C   0  0  0  0  0  0  0  0  0  0  0  0
   11.1100   -6.6321    0.0000 C   0  0  0  0  0  0  0  0  0  0  0  0
   11.5225   -5.9176    0.0000 C   0  0  0  0  0  0  0  0  0  0  0  0
   11.1100   -5.2031    0.0000 C   0  0  0  0  0  0  0  0  0  0  0  0
   10.2850   -5.2031    0.0000 C   0  0  0  0  0  0  0  0  0  0  0  0
   12.3475   -5.9176    0.0000 O   0  0  0  0  0  0  0  0  0  0  0  0
   11.5225   -7.3466    0.0000 O   0  0  0  0  0  0  0  0  0  0  0  0
   12.3475   -7.3466    0.0000 C   0  0  0  0  0  0  0  0  0  0  0  0
   11.5225   -4.4887    0.0000 O   0  0  0  0  0  0  0  0  0  0  0  0
   12.3475   -4.4887    0.0000 C   0  0  0  0  0  0  0  0  0  0  0  0
  8  1  1  1  0  0  0
 20  2  1  1  0  0  0
 21  3  1  6  0  0  0
  7  4  1  6  0  0  0
  6  5  1  0  0  0  0
  9  6  1  6  0  0  0
  7 11  1  0  0  0  0
  8  7  1  0  0  0  0
  9  8  1  0  0  0  0
 10  9  1  0  0  0  0
 11 10  1  0  0  0  0
 11 12  1  6  0  0  0
 16 12  1  6  0  0  0
 18 13  1  1  0  0  0
 14 13  1  0  0  0  0
 19 15  1  6  0  0  0
 16 21  1  0  0  0  0
 17 16  1  0  0  0  0
 18 17  1  0  0  0  0
 19 18  1  0  0  0  0
 20 19  1  0  0  0  0
 21 20  1  0  0  0  0
 11 22  1  0  0  0  0
 22 23  1  0  0  0  0
  4 24  1  0  0  0  0
 24 25  1  0  0  0  0
 24 26  2  0  0  0  0
 25 27  2  0  0  0  0
 27 28  1  0  0  0  0
 28 29  2  0  0  0  0
 29 30  1  0  0  0  0
 30 31  2  0  0  0  0
 31 32  1  0  0  0  0
 32 33  2  0  0  0  0
 33 28  1  0  0  0  0
 31 34  1  0  0  0  0
 30 35  1  0  0  0  0
 35 36  1  0  0  0  0
 32 37  1  0  0  0  0
 37 38  1  0  0  0  0
M  END
>  <cdx:fragmentId>
5

$$$$
