91419.cdx
  Mrv1902 05222410242D          

 46 50  0  0  0  0            999 V2000
    3.9612   -8.7480    0.0000 C   0  0  0  0  0  0  0  0  0  0  0  0
    4.6702   -9.1698    0.0000 C   0  0  0  0  0  0  0  0  0  0  0  0
    5.3900   -8.7668    0.0000 C   0  0  0  0  0  0  0  0  0  0  0  0
    5.4009   -7.9419    0.0000 C   0  0  0  0  0  0  0  0  0  0  0  0
    4.6919   -7.5200    0.0000 C   0  0  0  0  0  0  0  0  0  0  0  0
    3.9721   -7.9231    0.0000 C   0  0  0  0  0  0  0  0  0  0  0  0
    6.0990   -9.1886    0.0000 C   0  0  0  0  0  0  0  0  0  0  0  0
    6.8189   -8.7856    0.0000 C   0  0  0  0  0  0  0  0  0  0  0  0
    6.8297   -7.9607    0.0000 C   0  0  0  0  0  0  0  0  0  0  0  0
    6.1207   -7.5388    0.0000 O   0  0  0  0  0  0  0  0  0  0  0  0
    4.6593   -9.9948    0.0000 O   0  0  0  0  0  0  0  0  0  0  0  0
    6.0882  -10.0136    0.0000 O   0  0  0  0  0  0  0  0  0  0  0  0
    7.5278   -9.2074    0.0000 O   0  0  0  0  0  0  0  0  0  0  0  0
    8.2585   -7.9795    0.0000 C   0  0  0  0  0  0  0  0  0  0  0  0
    7.5495   -7.5576    0.0000 C   0  0  0  0  0  0  0  0  0  0  0  0
    8.9784   -7.5764    0.0000 C   0  0  0  0  0  0  0  0  0  0  0  0
    8.9892   -6.7515    0.0000 C   0  0  0  0  0  0  0  0  0  0  0  0
    8.2802   -6.3296    0.0000 C   0  0  0  0  0  0  0  0  0  0  0  0
    7.5604   -6.7327    0.0000 C   0  0  0  0  0  0  0  0  0  0  0  0
    9.7091   -6.3484    0.0000 O   0  0  0  0  0  0  0  0  0  0  0  0
    8.2911   -5.5047    0.0000 O   0  0  0  0  0  0  0  0  0  0  0  0
    3.2631   -7.5012    0.0000 O   0  0  0  0  0  0  0  0  0  0  0  0
    7.5821   -5.0828    0.0000 C   0  0  0  0  0  0  0  0  0  0  0  0
    9.6873   -7.9983    0.0000 O   0  0  0  0  0  0  0  0  0  0  0  0
    9.6765   -8.8232    0.0000 C   0  0  0  0  0  0  0  0  0  0  0  0
    7.5170  -10.0324    0.0000 C   0  0  2  0  0  0  0  0  0  0  0  0
    6.7971  -10.4354    0.0000 O   0  0  0  0  0  0  0  0  0  0  0  0
    6.7863  -11.2604    0.0000 C   0  0  2  0  0  0  0  0  0  0  0  0
    7.4953  -11.6822    0.0000 C   0  0  1  0  0  0  0  0  0  0  0  0
    8.2151  -11.2792    0.0000 C   0  0  2  0  0  0  0  0  0  0  0  0
    8.2260  -10.4542    0.0000 C   0  0  1  0  0  0  0  0  0  0  0  0
    7.4844  -12.5072    0.0000 O   0  0  0  0  0  0  0  0  0  0  0  0
    6.0665  -11.6634    0.0000 C   0  0  0  0  0  0  0  0  0  0  0  0
    8.9241  -11.7010    0.0000 O   0  0  0  0  0  0  0  0  0  0  0  0
    8.9458  -10.0512    0.0000 O   0  0  0  0  0  0  0  0  0  0  0  0
    9.6548  -10.4730    0.0000 C   0  0  2  0  0  0  0  0  0  0  0  0
    9.6439  -11.2980    0.0000 O   0  0  0  0  0  0  0  0  0  0  0  0
   10.3529  -11.7198    0.0000 C   0  0  1  0  0  0  0  0  0  0  0  0
   11.0727  -11.3168    0.0000 C   0  0  2  0  0  0  0  0  0  0  0  0
   11.0836  -10.4918    0.0000 C   0  0  1  0  0  0  0  0  0  0  0  0
   10.3746  -10.0700    0.0000 C   0  0  1  0  0  0  0  0  0  0  0  0
   10.3421  -12.5448    0.0000 C   0  0  0  0  0  0  0  0  0  0  0  0
   11.8034  -10.0888    0.0000 O   0  0  0  0  0  0  0  0  0  0  0  0
   10.3855   -9.2450    0.0000 O   0  0  0  0  0  0  0  0  0  0  0  0
   11.7817  -11.7386    0.0000 O   0  0  0  0  0  0  0  0  0  0  0  0
   11.0510  -12.9666    0.0000 O   0  0  0  0  0  0  0  0  0  0  0  0
  1  2  1  0  0  0  0
  2  3  2  0  0  0  0
  3  4  1  0  0  0  0
  4  5  2  0  0  0  0
  5  6  1  0  0  0  0
  6  1  2  0  0  0  0
  3  7  1  0  0  0  0
  7  8  1  0  0  0  0
  8  9  2  0  0  0  0
  9 10  1  0  0  0  0
 10  4  1  0  0  0  0
  2 11  1  0  0  0  0
 12  7  2  0  0  0  0
  8 13  1  0  0  0  0
 14 15  1  0  0  0  0
 15  9  1  0  0  0  0
 14 16  2  0  0  0  0
 16 17  1  0  0  0  0
 17 18  2  0  0  0  0
 18 19  1  0  0  0  0
 19 15  2  0  0  0  0
 20 17  1  0  0  0  0
 21 18  1  0  0  0  0
  6 22  1  0  0  0  0
 21 23  1  0  0  0  0
 16 24  1  0  0  0  0
 24 25  1  0  0  0  0
 26 13  1  1  0  0  0
 26 27  1  0  0  0  0
 27 28  1  0  0  0  0
 28 29  1  0  0  0  0
 29 30  1  0  0  0  0
 30 31  1  0  0  0  0
 31 26  1  0  0  0  0
 29 32  1  1  0  0  0
 28 33  1  6  0  0  0
 30 34  1  6  0  0  0
 31 35  1  6  0  0  0
 36 35  1  1  0  0  0
 36 37  1  0  0  0  0
 37 38  1  0  0  0  0
 38 39  1  0  0  0  0
 39 40  1  0  0  0  0
 40 41  1  0  0  0  0
 41 36  1  0  0  0  0
 38 42  1  1  0  0  0
 40 43  1  1  0  0  0
 41 44  1  6  0  0  0
 39 45  1  6  0  0  0
 42 46  1  0  0  0  0
M  END
>  <cdx:fragmentId>
23

$$$$
