91414.cdx
  Mrv1902 05222410222D          

 26 28  0  0  0  0            999 V2000
    4.4806   -8.7301    0.0000 C   0  0  0  0  0  0  0  0  0  0  0  0
    4.4806   -9.5551    0.0000 C   0  0  0  0  0  0  0  0  0  0  0  0
    5.1950   -9.9676    0.0000 C   0  0  0  0  0  0  0  0  0  0  0  0
    5.9095   -9.5551    0.0000 C   0  0  0  0  0  0  0  0  0  0  0  0
    5.9095   -8.7301    0.0000 C   0  0  0  0  0  0  0  0  0  0  0  0
    5.1950   -8.3176    0.0000 C   0  0  0  0  0  0  0  0  0  0  0  0
    6.6240   -9.9676    0.0000 C   0  0  0  0  0  0  0  0  0  0  0  0
    7.3384   -9.5551    0.0000 C   0  0  0  0  0  0  0  0  0  0  0  0
    7.3384   -8.7301    0.0000 C   0  0  0  0  0  0  0  0  0  0  0  0
    6.6240   -8.3176    0.0000 C   0  0  0  0  0  0  0  0  0  0  0  0
    8.0529   -8.3176    0.0000 C   0  0  0  0  0  0  0  0  0  0  0  0
    8.0529   -7.4926    0.0000 C   0  0  0  0  0  0  0  0  0  0  0  0
    7.3384   -7.0801    0.0000 C   0  0  0  0  0  0  0  0  0  0  0  0
    6.6240   -7.4926    0.0000 C   0  0  0  0  0  0  0  0  0  0  0  0
    5.1950  -10.7926    0.0000 C   0  0  0  0  0  0  0  0  0  0  0  0
    5.9095   -7.0801    0.0000 O   0  0  0  0  0  0  0  0  0  0  0  0
    7.3384   -6.2551    0.0000 O   0  0  0  0  0  0  0  0  0  0  0  0
    8.8375   -8.5726    0.0000 O   0  0  0  0  0  0  0  0  0  0  0  0
    9.3225   -7.9051    0.0000 C   0  0  0  0  0  0  0  0  0  0  0  0
    8.8375   -7.2377    0.0000 C   0  0  0  0  0  0  0  0  0  0  0  0
    9.0925   -6.4531    0.0000 C   0  0  0  0  0  0  0  0  0  0  0  0
   10.1475   -7.9051    0.0000 S   0  0  0  0  0  0  0  0  0  0  0  0
   10.1475   -7.0801    0.0000 O   0  0  0  0  0  0  0  0  0  0  0  0
   10.1475   -8.7301    0.0000 O   0  0  0  0  0  0  0  0  0  0  0  0
   10.9725   -7.9051    0.0000 O   0  5  0  0  0  0  0  0  0  0  0  0
   10.5600   -8.6196    0.0000 Na  0  3  0  0  0  0  0  0  0  0  0  0
  1  2  1  0  0  0  0
  2  3  2  0  0  0  0
  3  4  1  0  0  0  0
  4  5  2  0  0  0  0
  5  6  1  0  0  0  0
  6  1  2  0  0  0  0
  4  7  1  0  0  0  0
  7  8  2  0  0  0  0
  8  9  1  0  0  0  0
  9 10  2  0  0  0  0
 10  5  1  0  0  0  0
  9 11  1  0  0  0  0
 11 12  2  0  0  0  0
 12 13  1  0  0  0  0
 13 14  1  0  0  0  0
 14 10  1  0  0  0  0
  3 15  1  0  0  0  0
 14 16  2  0  0  0  0
 13 17  2  0  0  0  0
 11 18  1  0  0  0  0
 18 19  1  0  0  0  0
 19 20  2  0  0  0  0
 20 12  1  0  0  0  0
 20 21  1  0  0  0  0
 19 22  1  0  0  0  0
 22 23  2  0  0  0  0
 22 24  2  0  0  0  0
 22 25  1  0  0  0  0
M  CHG  2  25  -1  26   1
M  STY  1   1 SUP
M  SAL   1  2  25  26
M  SBL   1  1  28
M  SMT   1 O-Na\S+
M  SAP   1  1  25  22  1
M  END
>  <cdx:fragmentId>
5

$$$$
