91415.cdx
  Mrv1902 05222410222D          

 27 29  0  0  0  0            999 V2000
   10.4857   -6.3438    0.0000 Na  0  3  0  0  0  0  0  0  0  0  0  0
    7.9383   -7.7257    0.0000 O   0  0  0  0  0  0  0  0  0  0  0  0
    8.4232   -7.0583    0.0000 C   0  0  0  0  0  0  0  0  0  0  0  0
    7.9383   -6.3908    0.0000 C   0  0  0  0  0  0  0  0  0  0  0  0
    7.1537   -6.6458    0.0000 C   0  0  0  0  0  0  0  0  0  0  0  0
    6.4392   -6.2333    0.0000 C   0  0  0  0  0  0  0  0  0  0  0  0
    5.7247   -6.6458    0.0000 C   0  0  0  0  0  0  0  0  0  0  0  0
    5.7247   -7.4708    0.0000 C   0  0  0  0  0  0  0  0  0  0  0  0
    6.4392   -7.8833    0.0000 C   0  0  0  0  0  0  0  0  0  0  0  0
    7.1537   -7.4708    0.0000 C   0  0  0  0  0  0  0  0  0  0  0  0
    6.4392   -8.7083    0.0000 C   0  0  0  0  0  0  0  0  0  0  0  0
    5.7247   -9.1208    0.0000 C   0  0  0  0  0  0  0  0  0  0  0  0
    5.0103   -8.7083    0.0000 C   0  0  0  0  0  0  0  0  0  0  0  0
    4.2958   -9.1208    0.0000 C   0  0  0  0  0  0  0  0  0  0  0  0
    3.5813   -8.7083    0.0000 C   0  0  0  0  0  0  0  0  0  0  0  0
    3.5813   -7.8833    0.0000 C   0  0  0  0  0  0  0  0  0  0  0  0
    4.2958   -7.4708    0.0000 C   0  0  0  0  0  0  0  0  0  0  0  0
    5.0103   -7.8833    0.0000 C   0  0  0  0  0  0  0  0  0  0  0  0
    9.2482   -7.0583    0.0000 S   0  0  0  0  0  0  0  0  0  0  0  0
    9.2482   -7.8833    0.0000 O   0  0  0  0  0  0  0  0  0  0  0  0
    9.2482   -6.2333    0.0000 O   0  0  0  0  0  0  0  0  0  0  0  0
   10.0732   -7.0583    0.0000 O   0  5  0  0  0  0  0  0  0  0  0  0
    6.4392   -5.4083    0.0000 O   0  0  0  0  0  0  0  0  0  0  0  0
    5.0103   -6.2333    0.0000 O   0  0  0  0  0  0  0  0  0  0  0  0
    4.7083   -9.8352    0.0000 C   0  0  0  0  0  0  0  0  0  0  0  0
    3.8833   -9.8352    0.0000 C   0  0  0  0  0  0  0  0  0  0  0  0
    8.1932   -5.6062    0.0000 C   0  0  0  0  0  0  0  0  0  0  0  0
  2  3  1  0  0  0  0
  3  4  2  0  0  0  0
  4  5  1  0  0  0  0
  5  6  1  0  0  0  0
  6  7  1  0  0  0  0
  7  8  1  0  0  0  0
  8  9  1  0  0  0  0
  9 10  1  0  0  0  0
  5 10  2  0  0  0  0
  2 10  1  0  0  0  0
 11 12  1  0  0  0  0
 12 13  2  0  0  0  0
 13 14  1  0  0  0  0
 14 15  1  0  0  0  0
 15 16  1  0  0  0  0
 16 17  1  0  0  0  0
 17 18  1  0  0  0  0
 13 18  1  0  0  0  0
 18  8  2  0  0  0  0
 11  9  2  0  0  0  0
 19 20  2  0  0  0  0
 19 21  2  0  0  0  0
 19 22  1  0  0  0  0
  3 19  1  0  0  0  0
  6 23  2  0  0  0  0
  7 24  2  0  0  0  0
 14 25  1  0  0  0  0
 14 26  1  0  0  0  0
  4 27  1  0  0  0  0
M  CHG  2   1   1  22  -1
M  END
>  <cdx:groupId>
144998

>  <cdx:fragmentId>
144920

$$$$
