91425.cdx
  Mrv1902 05222410242D          

 40 43  0  0  0  0            999 V2000
    6.5497   -3.5373    0.0000 O   0  0  0  0  0  0  0  0  0  0  0  0
    5.8983   -5.0533    0.0000 O   0  0  0  0  0  0  0  0  0  0  0  0
    9.1754   -4.6656    0.0000 C   0  0  0  0  0  0  0  0  0  0  0  0
    9.5011   -3.9076    0.0000 O   0  0  0  0  0  0  0  0  0  0  0  0
    8.1883   -3.3435    0.0000 O   0  0  0  0  0  0  0  0  0  0  0  0
    8.3561   -4.7625    0.0000 C   0  0  2  0  0  0  0  0  0  0  0  0
    7.8626   -4.1015    0.0000 C   0  0  2  0  0  0  0  0  0  0  0  0
    7.0433   -4.1984    0.0000 C   0  0  1  0  0  0  0  0  0  0  0  0
    6.7176   -4.9564    0.0000 C   0  0  2  0  0  0  0  0  0  0  0  0
    8.0304   -5.5205    0.0000 O   0  0  0  0  0  0  0  0  0  0  0  0
    7.2111   -5.6174    0.0000 C   0  0  1  0  0  0  0  0  0  0  0  0
    6.8854   -6.3754    0.0000 O   0  0  0  0  0  0  0  0  0  0  0  0
    6.8895   -7.2004    0.0000 C   0  0  2  0  0  0  0  0  0  0  0  0
    9.7555   -8.8363    0.0000 O   0  0  0  0  0  0  0  0  0  0  0  0
   10.4639   -7.5952    0.0000 C   0  0  0  0  0  0  0  0  0  0  0  0
    9.7474   -7.1863    0.0000 O   0  0  0  0  0  0  0  0  0  0  0  0
    8.3184   -7.1933    0.0000 C   0  0  0  0  0  0  0  0  0  0  0  0
    7.6060   -7.6094    0.0000 C   0  0  0  0  0  0  0  0  0  0  0  0
    6.1771   -7.6164    0.0000 C   0  0  1  0  0  0  0  0  0  0  0  0
    6.1812   -8.4414    0.0000 C   0  0  2  0  0  0  0  0  0  0  0  0
    6.8977   -8.8504    0.0000 C   0  0  0  0  0  0  0  0  0  0  0  0
    5.3912   -7.3654    0.0000 C   0  0  0  0  0  0  0  0  0  0  0  0
    4.9096   -8.0352    0.0000 O   0  0  0  0  0  0  0  0  0  0  0  0
    5.3978   -8.7003    0.0000 C   0  0  2  0  0  0  0  0  0  0  0  0
    6.9018   -9.6754    0.0000 O   0  0  0  0  0  0  0  0  0  0  0  0
    5.1468   -9.4861    0.0000 C   0  0  0  0  0  0  0  0  0  0  0  0
    4.3407   -9.6616    0.0000 C   0  0  0  0  0  0  0  0  0  0  0  0
    4.0896  -10.4475    0.0000 C   0  0  0  0  0  0  0  0  0  0  0  0
    4.6447  -11.0579    0.0000 C   0  0  0  0  0  0  0  0  0  0  0  0
    5.4508  -10.8824    0.0000 C   0  0  0  0  0  0  0  0  0  0  0  0
    5.7018  -10.0965    0.0000 C   0  0  0  0  0  0  0  0  0  0  0  0
    4.3936  -11.8437    0.0000 O   0  0  0  0  0  0  0  0  0  0  0  0
    6.0058  -11.4927    0.0000 O   0  0  0  0  0  0  0  0  0  0  0  0
    5.7927  -12.2881    0.0000 C   0  0  0  0  0  0  0  0  0  0  0  0
    7.6101   -8.4344    0.0000 C   0  0  0  0  0  0  0  0  0  0  0  0
    8.3266   -8.8433    0.0000 C   0  0  0  0  0  0  0  0  0  0  0  0
    9.0390   -8.4273    0.0000 C   0  0  0  0  0  0  0  0  0  0  0  0
    9.0349   -7.6023    0.0000 C   0  0  0  0  0  0  0  0  0  0  0  0
    6.1771   -6.7649    0.0000 H   0  0  0  0  0  0  0  0  0  0  0  0
    7.4836   -6.6279    0.0000 H   0  0  0  0  0  0  0  0  0  0  0  0
  8  1  1  1  0  0  0
  9  2  1  6  0  0  0
  6  3  1  1  0  0  0
  4  3  1  0  0  0  0
  7  5  1  6  0  0  0
  6 10  1  0  0  0  0
  7  6  1  0  0  0  0
  8  7  1  0  0  0  0
  9  8  1  0  0  0  0
 11  9  1  0  0  0  0
 11 10  1  0  0  0  0
 11 12  1  1  0  0  0
 13 12  1  0  0  0  0
 18 13  1  0  0  0  0
 14 37  1  0  0  0  0
 16 15  1  0  0  0  0
 38 16  1  0  0  0  0
 17 38  1  0  0  0  0
 18 17  2  0  0  0  0
 35 18  1  0  0  0  0
 36 35  2  0  0  0  0
 37 36  1  0  0  0  0
 38 37  2  0  0  0  0
 13 19  1  0  0  0  0
 19 20  1  0  0  0  0
 20 21  1  6  0  0  0
 19 22  1  0  0  0  0
 22 23  1  0  0  0  0
 23 24  1  0  0  0  0
 24 20  1  0  0  0  0
 21 25  1  0  0  0  0
 24 26  1  1  0  0  0
 26 27  2  0  0  0  0
 27 28  1  0  0  0  0
 28 29  2  0  0  0  0
 29 30  1  0  0  0  0
 30 31  2  0  0  0  0
 31 26  1  0  0  0  0
 29 32  1  0  0  0  0
 30 33  1  0  0  0  0
 33 34  1  0  0  0  0
 19 39  1  6  0  0  0
 13 40  1  1  0  0  0
M  END
>  <cdx:fragmentId>
5

$$$$
