91429.cdx
  Mrv1902 05222410222D          

 31 33  0  0  0  0            999 V2000
    3.9163   -9.2944    0.0000 C   0  0  0  0  0  0  0  0  0  0  0  0
    3.5038  -10.0089    0.0000 C   0  0  0  0  0  0  0  0  0  0  0  0
    3.9163  -10.7234    0.0000 C   0  0  0  0  0  0  0  0  0  0  0  0
    4.7413  -10.7234    0.0000 C   0  0  0  0  0  0  0  0  0  0  0  0
    5.1538  -10.0089    0.0000 C   0  0  0  0  0  0  0  0  0  0  0  0
    4.7413   -9.2944    0.0000 C   0  0  0  0  0  0  0  0  0  0  0  0
    2.6788  -10.0089    0.0000 O   0  0  0  0  0  0  0  0  0  0  0  0
    2.2663   -9.2944    0.0000 C   0  0  0  0  0  0  0  0  0  0  0  0
    3.5038   -8.5800    0.0000 O   0  0  0  0  0  0  0  0  0  0  0  0
    3.9163   -7.8655    0.0000 C   0  0  0  0  0  0  0  0  0  0  0  0
    5.9788  -10.0089    0.0000 C   0  0  0  0  0  0  0  0  0  0  0  0
    6.4637  -10.6763    0.0000 O   0  0  0  0  0  0  0  0  0  0  0  0
    7.2483  -10.4214    0.0000 C   0  0  0  0  0  0  0  0  0  0  0  0
    7.2483   -9.5964    0.0000 C   0  0  0  0  0  0  0  0  0  0  0  0
    6.4637   -9.3415    0.0000 C   0  0  0  0  0  0  0  0  0  0  0  0
    7.7332   -8.9290    0.0000 C   0  0  0  0  0  0  0  0  0  0  0  0
    7.2483   -8.2615    0.0000 O   0  0  0  0  0  0  0  0  0  0  0  0
    6.4637   -8.5165    0.0000 C   0  0  0  0  0  0  0  0  0  0  0  0
    5.6791   -9.0865    0.0000 O   0  0  0  0  0  0  0  0  0  0  0  0
    8.0329   -9.8513    0.0000 O   0  0  0  0  0  0  0  0  0  0  0  0
    8.2465  -10.6482    0.0000 C   0  0  0  0  0  0  0  0  0  0  0  0
    8.5582   -8.9290    0.0000 C   0  0  0  0  0  0  0  0  0  0  0  0
    8.9707   -9.6434    0.0000 C   0  0  0  0  0  0  0  0  0  0  0  0
    9.7957   -9.6434    0.0000 C   0  0  0  0  0  0  0  0  0  0  0  0
   10.2082   -8.9290    0.0000 C   0  0  0  0  0  0  0  0  0  0  0  0
    9.7957   -8.2145    0.0000 C   0  0  0  0  0  0  0  0  0  0  0  0
    8.9707   -8.2145    0.0000 C   0  0  0  0  0  0  0  0  0  0  0  0
   11.0332   -8.9290    0.0000 O   0  0  0  0  0  0  0  0  0  0  0  0
   11.4457   -9.6434    0.0000 C   0  0  0  0  0  0  0  0  0  0  0  0
   10.2082   -7.5000    0.0000 O   0  0  0  0  0  0  0  0  0  0  0  0
   11.0332   -7.5000    0.0000 C   0  0  0  0  0  0  0  0  0  0  0  0
  1  2  2  0  0  0  0
  2  3  1  0  0  0  0
  3  4  2  0  0  0  0
  4  5  1  0  0  0  0
  5  6  2  0  0  0  0
  6  1  1  0  0  0  0
  2  7  1  0  0  0  0
  7  8  1  0  0  0  0
  1  9  1  0  0  0  0
  9 10  1  0  0  0  0
  5 11  1  0  0  0  0
 11 12  1  0  0  0  0
 12 13  1  0  0  0  0
 13 14  1  0  0  0  0
 15 11  1  0  0  0  0
 14 16  1  0  0  0  0
 16 17  1  0  0  0  0
 17 18  1  0  0  0  0
 18 15  1  0  0  0  0
 15 19  1  0  0  0  0
 14 20  1  0  0  0  0
 20 21  1  0  0  0  0
 16 22  1  0  0  0  0
 22 23  2  0  0  0  0
 23 24  1  0  0  0  0
 24 25  2  0  0  0  0
 25 26  1  0  0  0  0
 26 27  2  0  0  0  0
 27 22  1  0  0  0  0
 25 28  1  0  0  0  0
 28 29  1  0  0  0  0
 26 30  1  0  0  0  0
 30 31  1  0  0  0  0
M  END
>  <cdx:fragmentId>
5

$$$$
