91420.cdx
  Mrv1902 05222410242D          

 37 40  0  0  0  0            999 V2000
    4.3513   -7.8253    0.0000 C   0  0  0  0  0  0  0  0  0  0  0  0
    5.0658   -8.2378    0.0000 C   0  0  0  0  0  0  0  0  0  0  0  0
    5.7803   -7.8253    0.0000 C   0  0  0  0  0  0  0  0  0  0  0  0
    5.7803   -7.0003    0.0000 C   0  0  0  0  0  0  0  0  0  0  0  0
    5.0658   -6.5878    0.0000 C   0  0  0  0  0  0  0  0  0  0  0  0
    4.3513   -7.0003    0.0000 C   0  0  0  0  0  0  0  0  0  0  0  0
    6.4947   -8.2378    0.0000 C   0  0  0  0  0  0  0  0  0  0  0  0
    7.2092   -7.8253    0.0000 C   0  0  0  0  0  0  0  0  0  0  0  0
    7.2092   -7.0003    0.0000 C   0  0  0  0  0  0  0  0  0  0  0  0
    6.4947   -6.5878    0.0000 O   0  0  0  0  0  0  0  0  0  0  0  0
    5.0658   -9.0628    0.0000 O   0  0  0  0  0  0  0  0  0  0  0  0
    6.4947   -9.0628    0.0000 O   0  0  0  0  0  0  0  0  0  0  0  0
    7.9237   -8.2378    0.0000 O   0  0  0  0  0  0  0  0  0  0  0  0
    8.6381   -7.0003    0.0000 C   0  0  0  0  0  0  0  0  0  0  0  0
    7.9237   -6.5878    0.0000 C   0  0  0  0  0  0  0  0  0  0  0  0
    9.3526   -6.5878    0.0000 C   0  0  0  0  0  0  0  0  0  0  0  0
    9.3526   -5.7628    0.0000 C   0  0  0  0  0  0  0  0  0  0  0  0
    8.6381   -5.3503    0.0000 C   0  0  0  0  0  0  0  0  0  0  0  0
    7.9237   -5.7628    0.0000 C   0  0  0  0  0  0  0  0  0  0  0  0
   10.0671   -5.3503    0.0000 O   0  0  0  0  0  0  0  0  0  0  0  0
    8.6381   -4.5253    0.0000 O   0  0  0  0  0  0  0  0  0  0  0  0
    3.6369   -6.5878    0.0000 O   0  0  0  0  0  0  0  0  0  0  0  0
    7.9237   -4.1128    0.0000 C   0  0  0  0  0  0  0  0  0  0  0  0
   10.0671   -7.0003    0.0000 O   0  0  0  0  0  0  0  0  0  0  0  0
   10.0671   -7.8253    0.0000 C   0  0  0  0  0  0  0  0  0  0  0  0
    7.9237   -9.0628    0.0000 C   0  0  2  0  0  0  0  0  0  0  0  0
    7.2092   -9.4753    0.0000 O   0  0  0  0  0  0  0  0  0  0  0  0
    7.2092  -10.3003    0.0000 C   0  0  1  0  0  0  0  0  0  0  0  0
    7.9237  -10.7128    0.0000 C   0  0  2  0  0  0  0  0  0  0  0  0
    8.6381  -10.3003    0.0000 C   0  0  1  0  0  0  0  0  0  0  0  0
    8.6381   -9.4753    0.0000 C   0  0  1  0  0  0  0  0  0  0  0  0
    7.9237  -11.5378    0.0000 O   0  0  0  0  0  0  0  0  0  0  0  0
    6.4947  -10.7128    0.0000 C   0  0  0  0  0  0  0  0  0  0  0  0
    9.3526  -10.7128    0.0000 O   0  0  0  0  0  0  0  0  0  0  0  0
    9.3526   -9.0628    0.0000 O   0  0  0  0  0  0  0  0  0  0  0  0
    6.4947  -11.5378    0.0000 O   0  0  0  0  0  0  0  0  0  0  0  0
    5.7803  -10.3003    0.0000 O   0  0  0  0  0  0  0  0  0  0  0  0
  1  2  1  0  0  0  0
  2  3  2  0  0  0  0
  3  4  1  0  0  0  0
  4  5  2  0  0  0  0
  5  6  1  0  0  0  0
  6  1  2  0  0  0  0
  3  7  1  0  0  0  0
  7  8  1  0  0  0  0
  8  9  2  0  0  0  0
  9 10  1  0  0  0  0
 10  4  1  0  0  0  0
  2 11  1  0  0  0  0
 12  7  2  0  0  0  0
  8 13  1  0  0  0  0
 14 15  1  0  0  0  0
 15  9  1  0  0  0  0
 14 16  2  0  0  0  0
 16 17  1  0  0  0  0
 17 18  2  0  0  0  0
 18 19  1  0  0  0  0
 19 15  2  0  0  0  0
 20 17  1  0  0  0  0
 21 18  1  0  0  0  0
  6 22  1  0  0  0  0
 21 23  1  0  0  0  0
 16 24  1  0  0  0  0
 24 25  1  0  0  0  0
 26 13  1  1  0  0  0
 26 27  1  0  0  0  0
 27 28  1  0  0  0  0
 28 29  1  0  0  0  0
 29 30  1  0  0  0  0
 30 31  1  0  0  0  0
 31 26  1  0  0  0  0
 29 32  1  6  0  0  0
 28 33  1  1  0  0  0
 30 34  1  1  0  0  0
 31 35  1  6  0  0  0
 33 36  1  0  0  0  0
 33 37  2  0  0  0  0
M  END
>  <cdx:fragmentId>
23

$$$$
