91421.cdx
  Mrv1902 05222410252D          

 24 25  0  0  0  0            999 V2000
    8.0103   -7.9953    0.0000 C   0  0  0  0  0  0  0  0  0  0  0  0
    8.7287   -7.5897    0.0000 C   0  0  0  0  0  0  0  0  0  0  0  0
    8.7367   -6.7647    0.0000 C   0  0  0  0  0  0  0  0  0  0  0  0
    8.0262   -6.3454    0.0000 C   0  0  0  0  0  0  0  0  0  0  0  0
    7.3078   -6.7510    0.0000 C   0  0  0  0  0  0  0  0  0  0  0  0
    7.2999   -7.5759    0.0000 C   0  0  0  0  0  0  0  0  0  0  0  0
    9.4551   -6.3591    0.0000 C   0  0  0  0  0  0  0  0  0  0  0  0
    9.4630   -5.5342    0.0000 O   0  0  0  0  0  0  0  0  0  0  0  0
   10.1656   -6.7785    0.0000 O   0  0  0  0  0  0  0  0  0  0  0  0
    6.5815   -7.9816    0.0000 O   0  0  0  0  0  0  0  0  0  0  0  0
    8.0024   -8.8203    0.0000 O   0  0  0  0  0  0  0  0  0  0  0  0
    8.7129   -9.2396    0.0000 C   0  0  0  0  0  0  0  0  0  0  0  0
    6.5973   -6.3316    0.0000 O   0  0  0  0  0  0  0  0  0  0  0  0
    6.6053   -5.5067    0.0000 C   0  0  0  0  0  0  0  0  0  0  0  0
    5.8705   -7.5631    0.0000 C   0  0  2  0  0  0  0  0  0  0  0  0
    5.8774   -6.7381    0.0000 O   0  0  0  0  0  0  0  0  0  0  0  0
    5.1665   -6.3196    0.0000 C   0  0  2  0  0  0  0  0  0  0  0  0
    4.4485   -6.7260    0.0000 C   0  0  1  0  0  0  0  0  0  0  0  0
    4.4416   -7.5510    0.0000 C   0  0  2  0  0  0  0  0  0  0  0  0
    5.1526   -7.9695    0.0000 C   0  0  1  0  0  0  0  0  0  0  0  0
    3.7376   -6.3075    0.0000 O   0  0  0  0  0  0  0  0  0  0  0  0
    5.1456   -8.7945    0.0000 O   0  0  0  0  0  0  0  0  0  0  0  0
    3.7237   -7.9575    0.0000 O   0  0  0  0  0  0  0  0  0  0  0  0
    5.1734   -5.4946    0.0000 C   0  0  0  0  0  0  0  0  0  0  0  0
  1  2  2  0  0  0  0
  2  3  1  0  0  0  0
  3  4  2  0  0  0  0
  4  5  1  0  0  0  0
  5  6  2  0  0  0  0
  6  1  1  0  0  0  0
  3  7  1  0  0  0  0
  7  8  2  0  0  0  0
  7  9  1  0  0  0  0
  6 10  1  0  0  0  0
  1 11  1  0  0  0  0
 11 12  1  0  0  0  0
  5 13  1  0  0  0  0
 13 14  1  0  0  0  0
 15 10  1  1  0  0  0
 15 16  1  0  0  0  0
 16 17  1  0  0  0  0
 17 18  1  0  0  0  0
 18 19  1  0  0  0  0
 19 20  1  0  0  0  0
 20 15  1  0  0  0  0
 18 21  1  1  0  0  0
 20 22  1  6  0  0  0
 19 23  1  6  0  0  0
 17 24  1  6  0  0  0
M  END
>  <cdx:fragmentId>
5

$$$$
