91432.cdx
  Mrv1902 05222410232D          

 86 95  0  0  0  0            999 V2000
   10.0888   -8.7164    0.0000 C   0  0  0  0  0  0  0  0  0  0  0  0
   10.0888   -9.2939    0.0000 C   0  0  1  0  0  0  0  0  0  0  0  0
   10.5889   -9.5826    0.0000 C   0  0  0  0  0  0  0  0  0  0  0  0
   11.0891   -9.2939    0.0000 C   0  0  0  0  0  0  0  0  0  0  0  0
   11.0891   -8.7164    0.0000 C   0  0  2  0  0  0  0  0  0  0  0  0
   10.5889   -8.4276    0.0000 C   0  0  0  0  0  0  0  0  0  0  0  0
   11.5892   -9.5826    0.0000 C   0  0  0  0  0  0  0  0  0  0  0  0
   12.0893   -9.2939    0.0000 C   0  0  0  0  0  0  0  0  0  0  0  0
   12.0893   -8.7164    0.0000 C   0  0  2  0  0  0  0  0  0  0  0  0
   11.5892   -8.4276    0.0000 C   0  0  2  0  0  0  0  0  0  0  0  0
   12.5895   -8.4276    0.0000 C   0  0  2  0  0  0  0  0  0  0  0  0
   12.5895   -7.8501    0.0000 C   0  0  2  0  0  0  0  0  0  0  0  0
   12.0893   -7.5614    0.0000 C   0  0  1  0  0  0  0  0  0  0  0  0
   11.5892   -7.8501    0.0000 C   0  0  1  0  0  0  0  0  0  0  0  0
   12.0893   -6.9839    0.0000 O   0  0  0  0  0  0  0  0  0  0  0  0
   11.0891   -7.5614    0.0000 O   0  0  0  0  0  0  0  0  0  0  0  0
   13.1387   -8.6061    0.0000 C   0  0  0  0  0  0  0  0  0  0  0  0
   13.4781   -8.1389    0.0000 C   0  0  0  0  0  0  0  0  0  0  0  0
   13.1387   -7.6717    0.0000 C   0  0  1  0  0  0  0  0  0  0  0  0
   13.3171   -7.1225    0.0000 C   0  0  0  0  0  0  0  0  0  0  0  0
   12.9307   -6.6933    0.0000 C   0  0  0  0  0  0  0  0  0  0  0  0
   13.8820   -7.0024    0.0000 O   0  0  0  0  0  0  0  0  0  0  0  0
    9.5887   -9.5826    0.0000 O   0  0  0  0  0  0  0  0  0  0  0  0
   11.0891   -8.1389    0.0000 C   0  0  0  0  0  0  0  0  0  0  0  0
   12.6498   -7.2758    0.0000 C   0  0  0  0  0  0  0  0  0  0  0  0
   12.5895   -9.0051    0.0000 O   0  0  0  0  0  0  0  0  0  0  0  0
   11.5892   -9.0051    0.0000 H   0  0  0  0  0  0  0  0  0  0  0  0
   10.5797   -7.2726    0.0000 C   0  0  0  0  0  0  0  0  0  0  0  0
   10.0796   -7.5614    0.0000 C   0  0  0  0  0  0  0  0  0  0  0  0
   10.5797   -6.6951    0.0000 O   0  0  0  0  0  0  0  0  0  0  0  0
    9.5794   -7.2726    0.0000 C   0  0  0  0  0  0  0  0  0  0  0  0
    9.0793   -7.5614    0.0000 C   0  0  0  0  0  0  0  0  0  0  0  0
    8.5792   -7.2726    0.0000 C   0  0  0  0  0  0  0  0  0  0  0  0
    8.0790   -7.5614    0.0000 C   0  0  0  0  0  0  0  0  0  0  0  0
   10.0796   -8.1389    0.0000 C   0  0  0  0  0  0  0  0  0  0  0  0
    8.1399   -9.8201    0.0000 C   0  0  2  0  0  0  0  0  0  0  0  0
    8.1399  -10.3976    0.0000 C   0  0  2  0  0  0  0  0  0  0  0  0
    8.6400  -10.6864    0.0000 C   0  0  1  0  0  0  0  0  0  0  0  0
    9.1401  -10.3976    0.0000 C   0  0  0  0  0  0  0  0  0  0  0  0
    9.1401   -9.8201    0.0000 C   0  0  1  0  0  0  0  0  0  0  0  0
    8.6400   -9.5314    0.0000 O   0  0  0  0  0  0  0  0  0  0  0  0
    7.6398   -9.5314    0.0000 C   0  0  0  0  0  0  0  0  0  0  0  0
    8.6400  -11.2639    0.0000 O   0  0  0  0  0  0  0  0  0  0  0  0
    7.6398  -10.6864    0.0000 O   0  0  0  0  0  0  0  0  0  0  0  0
    9.1401  -11.5526    0.0000 C   0  0  0  0  0  0  0  0  0  0  0  0
    7.1396  -10.9751    0.0000 C   0  0  2  0  0  0  0  0  0  0  0  0
    6.6395  -10.6864    0.0000 O   0  0  0  0  0  0  0  0  0  0  0  0
    6.1394  -10.9751    0.0000 C   0  0  1  0  0  0  0  0  0  0  0  0
    6.1394  -11.5526    0.0000 C   0  0  2  0  0  0  0  0  0  0  0  0
    6.6395  -11.8414    0.0000 C   0  0  2  0  0  0  0  0  0  0  0  0
    7.1396  -11.5526    0.0000 C   0  0  1  0  0  0  0  0  0  0  0  0
    5.6392  -10.6864    0.0000 C   0  0  0  0  0  0  0  0  0  0  0  0
    5.6392  -11.8414    0.0000 O   0  0  0  0  0  0  0  0  0  0  0  0
    6.6395  -12.4189    0.0000 O   0  0  0  0  0  0  0  0  0  0  0  0
    7.6398  -11.8414    0.0000 O   0  0  0  0  0  0  0  0  0  0  0  0
    7.1396  -12.7076    0.0000 C   0  0  0  0  0  0  0  0  0  0  0  0
    5.1391  -12.1301    0.0000 C   0  0  2  0  0  0  0  0  0  0  0  0
    4.6390  -11.8414    0.0000 O   0  0  0  0  0  0  0  0  0  0  0  0
    4.1388  -12.1301    0.0000 C   0  0  1  0  0  0  0  0  0  0  0  0
    4.1388  -12.7076    0.0000 C   0  0  2  0  0  0  0  0  0  0  0  0
    4.6390  -12.9964    0.0000 C   0  0  1  0  0  0  0  0  0  0  0  0
    5.1391  -12.7076    0.0000 C   0  0  1  0  0  0  0  0  0  0  0  0
    3.6387  -11.8414    0.0000 C   0  0  0  0  0  0  0  0  0  0  0  0
    4.6390  -13.5739    0.0000 O   0  0  0  0  0  0  0  0  0  0  0  0
    3.6387  -12.9964    0.0000 O   0  0  0  0  0  0  0  0  0  0  0  0
    5.6392  -12.9964    0.0000 O   0  0  0  0  0  0  0  0  0  0  0  0
    3.1386  -12.1301    0.0000 O   0  0  0  0  0  0  0  0  0  0  0  0
    3.1386  -13.2851    0.0000 C   0  0  2  0  0  0  0  0  0  0  0  0
    2.6385  -12.9964    0.0000 O   0  0  0  0  0  0  0  0  0  0  0  0
    2.1383  -13.2851    0.0000 C   0  0  1  0  0  0  0  0  0  0  0  0
    2.1383  -13.8626    0.0000 C   0  0  2  0  0  0  0  0  0  0  0  0
    2.6385  -14.1514    0.0000 C   0  0  1  0  0  0  0  0  0  0  0  0
    3.1386  -13.8626    0.0000 C   0  0  1  0  0  0  0  0  0  0  0  0
    1.6382  -12.9964    0.0000 C   0  0  0  0  0  0  0  0  0  0  0  0
    2.6385  -14.7289    0.0000 O   0  0  0  0  0  0  0  0  0  0  0  0
    1.6382  -14.1514    0.0000 O   0  0  0  0  0  0  0  0  0  0  0  0
    3.6387  -14.1514    0.0000 O   0  0  0  0  0  0  0  0  0  0  0  0
    1.1381  -13.2851    0.0000 O   0  0  0  0  0  0  0  0  0  0  0  0
   11.5892   -6.6951    0.0000 C   0  0  0  0  0  0  0  0  0  0  0  0
   11.5892   -6.1176    0.0000 C   0  0  0  0  0  0  0  0  0  0  0  0
   11.0891   -6.9839    0.0000 O   0  0  0  0  0  0  0  0  0  0  0  0
   12.0893   -5.8289    0.0000 C   0  0  0  0  0  0  0  0  0  0  0  0
   12.0893   -5.2514    0.0000 C   0  0  0  0  0  0  0  0  0  0  0  0
   11.5892   -4.9626    0.0000 C   0  0  0  0  0  0  0  0  0  0  0  0
   11.0891   -5.2514    0.0000 C   0  0  0  0  0  0  0  0  0  0  0  0
   11.0891   -5.8289    0.0000 C   0  0  0  0  0  0  0  0  0  0  0  0
  1  2  1  0  0  0  0
  2  3  1  0  0  0  0
  3  4  1  0  0  0  0
  4  5  1  0  0  0  0
  5  6  1  0  0  0  0
  6  1  1  0  0  0  0
  4  7  1  0  0  0  0
  7  8  1  0  0  0  0
  8  9  1  0  0  0  0
  9 10  1  0  0  0  0
 10  5  1  0  0  0  0
  9 11  1  0  0  0  0
 11 12  1  0  0  0  0
 12 13  1  0  0  0  0
 13 14  1  0  0  0  0
 14 10  1  0  0  0  0
 13 15  1  1  0  0  0
 14 16  1  6  0  0  0
 11 17  1  0  0  0  0
 17 18  1  0  0  0  0
 18 19  1  0  0  0  0
 19 12  1  0  0  0  0
 19 20  1  6  0  0  0
 20 21  1  0  0  0  0
 20 22  2  0  0  0  0
  2 23  1  1  0  0  0
  5 24  1  1  0  0  0
 12 25  1  1  0  0  0
  9 26  1  1  0  0  0
 11 26  1  1  0  0  0
 10 27  1  6  0  0  0
 28 29  1  0  0  0  0
 28 30  2  0  0  0  0
 29 31  1  0  0  0  0
 31 32  1  0  0  0  0
 32 33  1  0  0  0  0
 33 34  1  0  0  0  0
 29 35  1  0  0  0  0
 36 37  1  0  0  0  0
 37 38  1  0  0  0  0
 38 39  1  0  0  0  0
 39 40  1  0  0  0  0
 40 41  1  0  0  0  0
 41 36  1  0  0  0  0
 36 42  1  1  0  0  0
 38 43  1  1  0  0  0
 37 44  1  6  0  0  0
 43 45  1  0  0  0  0
 46 44  1  1  0  0  0
 46 47  1  0  0  0  0
 47 48  1  0  0  0  0
 48 49  1  0  0  0  0
 49 50  1  0  0  0  0
 50 51  1  0  0  0  0
 51 46  1  0  0  0  0
 48 52  1  1  0  0  0
 49 53  1  6  0  0  0
 50 54  1  6  0  0  0
 51 55  1  6  0  0  0
 54 56  1  0  0  0  0
 57 53  1  1  0  0  0
 57 58  1  0  0  0  0
 58 59  1  0  0  0  0
 59 60  1  0  0  0  0
 60 61  1  0  0  0  0
 61 62  1  0  0  0  0
 62 57  1  0  0  0  0
 59 63  1  1  0  0  0
 61 64  1  1  0  0  0
 60 65  1  6  0  0  0
 62 66  1  6  0  0  0
 63 67  1  0  0  0  0
 68 65  1  1  0  0  0
 68 69  1  0  0  0  0
 69 70  1  0  0  0  0
 70 71  1  0  0  0  0
 71 72  1  0  0  0  0
 72 73  1  0  0  0  0
 73 68  1  0  0  0  0
 70 74  1  1  0  0  0
 72 75  1  1  0  0  0
 71 76  1  6  0  0  0
 73 77  1  6  0  0  0
 74 78  1  0  0  0  0
 28 16  1  0  0  0  0
 15 79  1  0  0  0  0
 79 80  1  0  0  0  0
 79 81  2  0  0  0  0
 80 82  2  0  0  0  0
 82 83  1  0  0  0  0
 83 84  2  0  0  0  0
 84 85  1  0  0  0  0
 85 86  2  0  0  0  0
 86 80  1  0  0  0  0
 40 23  1  1  0  0  0
M  END
>  <cdx:fragmentId>
5

$$$$
