91431.cdx
  Mrv1902 05222410242D          

 82 90  0  0  0  0            999 V2000
    9.7040   -8.5722    0.0000 C   0  0  0  0  0  0  0  0  0  0  0  0
    9.7040   -9.0672    0.0000 C   0  0  1  0  0  0  0  0  0  0  0  0
   10.1327   -9.3147    0.0000 C   0  0  0  0  0  0  0  0  0  0  0  0
   10.5614   -9.0672    0.0000 C   0  0  0  0  0  0  0  0  0  0  0  0
   10.5614   -8.5722    0.0000 C   0  0  2  0  0  0  0  0  0  0  0  0
   10.1327   -8.3247    0.0000 C   0  0  0  0  0  0  0  0  0  0  0  0
   10.9900   -9.3147    0.0000 C   0  0  0  0  0  0  0  0  0  0  0  0
   11.4187   -9.0672    0.0000 C   0  0  0  0  0  0  0  0  0  0  0  0
   11.4187   -8.5722    0.0000 C   0  0  2  0  0  0  0  0  0  0  0  0
   10.9900   -8.3247    0.0000 C   0  0  2  0  0  0  0  0  0  0  0  0
   11.8474   -8.3247    0.0000 C   0  0  2  0  0  0  0  0  0  0  0  0
   11.8474   -7.8297    0.0000 C   0  0  2  0  0  0  0  0  0  0  0  0
   11.4187   -7.5822    0.0000 C   0  0  1  0  0  0  0  0  0  0  0  0
   10.9900   -7.8297    0.0000 C   0  0  1  0  0  0  0  0  0  0  0  0
   12.3182   -8.4777    0.0000 C   0  0  0  0  0  0  0  0  0  0  0  0
   12.6091   -8.0772    0.0000 C   0  0  0  0  0  0  0  0  0  0  0  0
   12.3182   -7.6767    0.0000 C   0  0  1  0  0  0  0  0  0  0  0  0
    9.2753   -9.3147    0.0000 O   0  0  0  0  0  0  0  0  0  0  0  0
   10.5614   -8.0772    0.0000 C   0  0  0  0  0  0  0  0  0  0  0  0
   11.8474   -8.8197    0.0000 O   0  0  0  0  0  0  0  0  0  0  0  0
   11.4187   -7.0872    0.0000 O   0  0  0  0  0  0  0  0  0  0  0  0
   11.8992   -7.3374    0.0000 C   0  0  0  0  0  0  0  0  0  0  0  0
   12.4711   -7.2060    0.0000 C   0  0  0  0  0  0  0  0  0  0  0  0
   10.5614   -7.5822    0.0000 O   0  0  0  0  0  0  0  0  0  0  0  0
   10.9900   -8.8197    0.0000 H   0  0  0  0  0  0  0  0  0  0  0  0
   12.1399   -6.8381    0.0000 C   0  0  0  0  0  0  0  0  0  0  0  0
   12.9553   -7.1031    0.0000 O   0  0  0  0  0  0  0  0  0  0  0  0
    8.0265   -9.5292    0.0000 C   0  0  2  0  0  0  0  0  0  0  0  0
    8.0265  -10.0242    0.0000 C   0  0  2  0  0  0  0  0  0  0  0  0
    8.4552  -10.2717    0.0000 C   0  0  1  0  0  0  0  0  0  0  0  0
    8.8839  -10.0242    0.0000 C   0  0  0  0  0  0  0  0  0  0  0  0
    8.8839   -9.5292    0.0000 C   0  0  1  0  0  0  0  0  0  0  0  0
    8.4552   -9.2817    0.0000 O   0  0  0  0  0  0  0  0  0  0  0  0
    7.5978   -9.2817    0.0000 C   0  0  0  0  0  0  0  0  0  0  0  0
    8.4552  -10.7667    0.0000 O   0  0  0  0  0  0  0  0  0  0  0  0
    7.5978  -10.2717    0.0000 O   0  0  0  0  0  0  0  0  0  0  0  0
    8.8839  -11.0142    0.0000 C   0  0  0  0  0  0  0  0  0  0  0  0
    7.1691  -10.5192    0.0000 C   0  0  2  0  0  0  0  0  0  0  0  0
    6.7405  -10.2717    0.0000 O   0  0  0  0  0  0  0  0  0  0  0  0
    6.3118  -10.5192    0.0000 C   0  0  1  0  0  0  0  0  0  0  0  0
    6.3118  -11.0142    0.0000 C   0  0  2  0  0  0  0  0  0  0  0  0
    6.7405  -11.2617    0.0000 C   0  0  2  0  0  0  0  0  0  0  0  0
    7.1691  -11.0142    0.0000 C   0  0  1  0  0  0  0  0  0  0  0  0
    5.8831  -10.2717    0.0000 C   0  0  0  0  0  0  0  0  0  0  0  0
    5.8831  -11.2617    0.0000 O   0  0  0  0  0  0  0  0  0  0  0  0
    6.7405  -11.7567    0.0000 O   0  0  0  0  0  0  0  0  0  0  0  0
    7.5978  -11.2617    0.0000 O   0  0  0  0  0  0  0  0  0  0  0  0
    7.1691  -12.0042    0.0000 C   0  0  0  0  0  0  0  0  0  0  0  0
    5.4544  -11.5092    0.0000 C   0  0  2  0  0  0  0  0  0  0  0  0
    5.0257  -11.2617    0.0000 O   0  0  0  0  0  0  0  0  0  0  0  0
    4.5970  -11.5092    0.0000 C   0  0  1  0  0  0  0  0  0  0  0  0
    4.5970  -12.0042    0.0000 C   0  0  2  0  0  0  0  0  0  0  0  0
    5.0257  -12.2517    0.0000 C   0  0  1  0  0  0  0  0  0  0  0  0
    5.4544  -12.0042    0.0000 C   0  0  1  0  0  0  0  0  0  0  0  0
    4.1684  -11.2617    0.0000 C   0  0  0  0  0  0  0  0  0  0  0  0
    5.0257  -12.7467    0.0000 O   0  0  0  0  0  0  0  0  0  0  0  0
    4.1684  -12.2517    0.0000 O   0  0  0  0  0  0  0  0  0  0  0  0
    5.8831  -12.2517    0.0000 O   0  0  0  0  0  0  0  0  0  0  0  0
    3.7397  -11.5092    0.0000 O   0  0  0  0  0  0  0  0  0  0  0  0
    3.7397  -12.4992    0.0000 C   0  0  2  0  0  0  0  0  0  0  0  0
    3.3110  -12.2517    0.0000 O   0  0  0  0  0  0  0  0  0  0  0  0
    2.8823  -12.4992    0.0000 C   0  0  1  0  0  0  0  0  0  0  0  0
    2.8823  -12.9942    0.0000 C   0  0  2  0  0  0  0  0  0  0  0  0
    3.3110  -13.2417    0.0000 C   0  0  1  0  0  0  0  0  0  0  0  0
    3.7397  -12.9942    0.0000 C   0  0  1  0  0  0  0  0  0  0  0  0
    2.4536  -12.2517    0.0000 C   0  0  0  0  0  0  0  0  0  0  0  0
    3.3110  -13.7367    0.0000 O   0  0  0  0  0  0  0  0  0  0  0  0
    2.4536  -13.2417    0.0000 O   0  0  0  0  0  0  0  0  0  0  0  0
    4.1684  -13.2417    0.0000 O   0  0  0  0  0  0  0  0  0  0  0  0
    2.0249  -12.4992    0.0000 O   0  0  0  0  0  0  0  0  0  0  0  0
   10.1327   -7.3347    0.0000 C   0  0  0  0  0  0  0  0  0  0  0  0
    9.7040   -7.5822    0.0000 O   0  0  0  0  0  0  0  0  0  0  0  0
   10.1327   -6.8397    0.0000 C   0  0  0  0  0  0  0  0  0  0  0  0
    9.7040   -6.5922    0.0000 C   0  0  0  0  0  0  0  0  0  0  0  0
   10.5614   -6.5922    0.0000 C   0  0  0  0  0  0  0  0  0  0  0  0
    9.7040   -6.0972    0.0000 C   0  0  0  0  0  0  0  0  0  0  0  0
   11.4187   -6.5922    0.0000 C   0  0  0  0  0  0  0  0  0  0  0  0
   11.8474   -6.3447    0.0000 C   0  0  0  0  0  0  0  0  0  0  0  0
   10.9900   -6.3447    0.0000 O   0  0  0  0  0  0  0  0  0  0  0  0
   11.8474   -5.8497    0.0000 C   0  0  0  0  0  0  0  0  0  0  0  0
   12.2761   -5.6022    0.0000 C   0  0  0  0  0  0  0  0  0  0  0  0
   12.2761   -6.5922    0.0000 C   0  0  0  0  0  0  0  0  0  0  0  0
  1  2  1  0  0  0  0
  2  3  1  0  0  0  0
  3  4  1  0  0  0  0
  4  5  1  0  0  0  0
  5  6  1  0  0  0  0
  6  1  1  0  0  0  0
  4  7  1  0  0  0  0
  7  8  1  0  0  0  0
  8  9  1  0  0  0  0
  9 10  1  0  0  0  0
 10  5  1  0  0  0  0
  9 11  1  0  0  0  0
 11 12  1  0  0  0  0
 12 13  1  0  0  0  0
 13 14  1  0  0  0  0
 14 10  1  0  0  0  0
 11 15  1  0  0  0  0
 15 16  1  0  0  0  0
 16 17  1  0  0  0  0
 17 12  1  0  0  0  0
  2 18  1  1  0  0  0
  5 19  1  1  0  0  0
  9 20  1  1  0  0  0
 11 20  1  1  0  0  0
 13 21  1  1  0  0  0
 12 22  1  1  0  0  0
 17 23  1  6  0  0  0
 14 24  1  6  0  0  0
 10 25  1  6  0  0  0
 23 26  1  0  0  0  0
 23 27  2  0  0  0  0
 28 29  1  0  0  0  0
 29 30  1  0  0  0  0
 30 31  1  0  0  0  0
 31 32  1  0  0  0  0
 32 33  1  0  0  0  0
 33 28  1  0  0  0  0
 28 34  1  1  0  0  0
 30 35  1  1  0  0  0
 29 36  1  6  0  0  0
 35 37  1  0  0  0  0
 38 36  1  1  0  0  0
 38 39  1  0  0  0  0
 39 40  1  0  0  0  0
 40 41  1  0  0  0  0
 41 42  1  0  0  0  0
 42 43  1  0  0  0  0
 43 38  1  0  0  0  0
 40 44  1  1  0  0  0
 41 45  1  6  0  0  0
 42 46  1  6  0  0  0
 43 47  1  6  0  0  0
 46 48  1  0  0  0  0
 49 45  1  1  0  0  0
 49 50  1  0  0  0  0
 50 51  1  0  0  0  0
 51 52  1  0  0  0  0
 52 53  1  0  0  0  0
 53 54  1  0  0  0  0
 54 49  1  0  0  0  0
 51 55  1  1  0  0  0
 53 56  1  1  0  0  0
 52 57  1  6  0  0  0
 54 58  1  6  0  0  0
 55 59  1  0  0  0  0
 60 57  1  1  0  0  0
 60 61  1  0  0  0  0
 61 62  1  0  0  0  0
 62 63  1  0  0  0  0
 63 64  1  0  0  0  0
 64 65  1  0  0  0  0
 65 60  1  0  0  0  0
 62 66  1  1  0  0  0
 64 67  1  1  0  0  0
 63 68  1  6  0  0  0
 65 69  1  6  0  0  0
 66 70  1  0  0  0  0
 24 71  1  0  0  0  0
 71 72  2  0  0  0  0
 71 73  1  0  0  0  0
 73 74  2  0  0  0  0
 73 75  1  0  0  0  0
 74 76  1  0  0  0  0
 21 77  1  0  0  0  0
 77 78  1  0  0  0  0
 77 79  2  0  0  0  0
 78 80  2  0  0  0  0
 80 81  1  0  0  0  0
 78 82  1  0  0  0  0
 32 18  1  1  0  0  0
M  END
>  <cdx:fragmentId>
83

$$$$
