91435.cdx
  Mrv1902 05222410252D          

 73 80  0  0  0  0            999 V2000
    8.4753   -9.1265    0.0000 C   0  0  0  0  0  0  0  0  0  0  0  0
    8.4753   -9.7040    0.0000 C   0  0  1  0  0  0  0  0  0  0  0  0
    8.9754   -9.9928    0.0000 C   0  0  0  0  0  0  0  0  0  0  0  0
    9.4755   -9.7040    0.0000 C   0  0  0  0  0  0  0  0  0  0  0  0
    9.4755   -9.1265    0.0000 C   0  0  2  0  0  0  0  0  0  0  0  0
    8.9754   -8.8378    0.0000 C   0  0  0  0  0  0  0  0  0  0  0  0
    9.9757   -9.9928    0.0000 C   0  0  0  0  0  0  0  0  0  0  0  0
   10.4758   -9.7040    0.0000 C   0  0  0  0  0  0  0  0  0  0  0  0
   10.4758   -9.1265    0.0000 C   0  0  2  0  0  0  0  0  0  0  0  0
    9.9757   -8.8378    0.0000 C   0  0  2  0  0  0  0  0  0  0  0  0
   10.9759   -8.8378    0.0000 C   0  0  2  0  0  0  0  0  0  0  0  0
   10.9759   -8.2603    0.0000 C   0  0  2  0  0  0  0  0  0  0  0  0
   10.4758   -7.9715    0.0000 C   0  0  1  0  0  0  0  0  0  0  0  0
    9.9757   -8.2603    0.0000 C   0  0  1  0  0  0  0  0  0  0  0  0
   11.5252   -9.0162    0.0000 C   0  0  0  0  0  0  0  0  0  0  0  0
   11.8646   -8.5490    0.0000 C   0  0  0  0  0  0  0  0  0  0  0  0
   11.5252   -8.0818    0.0000 C   0  0  1  0  0  0  0  0  0  0  0  0
    7.9751   -9.9928    0.0000 O   0  0  0  0  0  0  0  0  0  0  0  0
    9.4755   -8.5490    0.0000 C   0  0  0  0  0  0  0  0  0  0  0  0
   10.9759   -9.4153    0.0000 O   0  0  0  0  0  0  0  0  0  0  0  0
   10.4758   -7.3940    0.0000 O   0  0  0  0  0  0  0  0  0  0  0  0
   11.0363   -7.6860    0.0000 C   0  0  0  0  0  0  0  0  0  0  0  0
   11.7036   -7.5326    0.0000 C   0  0  0  0  0  0  0  0  0  0  0  0
    9.9757   -9.4153    0.0000 H   0  0  0  0  0  0  0  0  0  0  0  0
   11.3172   -7.1034    0.0000 C   0  0  0  0  0  0  0  0  0  0  0  0
   12.2685   -7.4125    0.0000 O   0  0  0  0  0  0  0  0  0  0  0  0
    6.4839  -10.2884    0.0000 C   0  0  2  0  0  0  0  0  0  0  0  0
    6.4839  -10.8659    0.0000 C   0  0  2  0  0  0  0  0  0  0  0  0
    6.9841  -11.1546    0.0000 C   0  0  1  0  0  0  0  0  0  0  0  0
    7.4842  -10.8659    0.0000 C   0  0  0  0  0  0  0  0  0  0  0  0
    7.4842  -10.2884    0.0000 C   0  0  1  0  0  0  0  0  0  0  0  0
    6.9841   -9.9996    0.0000 O   0  0  0  0  0  0  0  0  0  0  0  0
    6.9841  -11.7321    0.0000 C   0  0  0  0  0  0  0  0  0  0  0  0
    5.9838   -9.9996    0.0000 C   0  0  0  0  0  0  0  0  0  0  0  0
    5.9838  -11.1546    0.0000 O   0  0  0  0  0  0  0  0  0  0  0  0
    7.4842  -12.0209    0.0000 C   0  0  0  0  0  0  0  0  0  0  0  0
    5.4837  -11.4434    0.0000 C   0  0  2  0  0  0  0  0  0  0  0  0
    4.9836  -11.1546    0.0000 O   0  0  0  0  0  0  0  0  0  0  0  0
    4.4834  -11.4434    0.0000 C   0  0  1  0  0  0  0  0  0  0  0  0
    4.4834  -12.0209    0.0000 C   0  0  2  0  0  0  0  0  0  0  0  0
    4.9836  -12.3096    0.0000 C   0  0  2  0  0  0  0  0  0  0  0  0
    5.4837  -12.0209    0.0000 C   0  0  1  0  0  0  0  0  0  0  0  0
    3.9833  -11.1546    0.0000 C   0  0  0  0  0  0  0  0  0  0  0  0
    3.9833  -12.3096    0.0000 O   0  0  0  0  0  0  0  0  0  0  0  0
    4.9836  -12.8871    0.0000 O   0  0  0  0  0  0  0  0  0  0  0  0
    5.9838  -12.3096    0.0000 O   0  0  0  0  0  0  0  0  0  0  0  0
    5.4837  -13.1759    0.0000 C   0  0  0  0  0  0  0  0  0  0  0  0
    3.4832  -12.5984    0.0000 C   0  0  2  0  0  0  0  0  0  0  0  0
    2.9830  -12.3096    0.0000 O   0  0  0  0  0  0  0  0  0  0  0  0
    2.4829  -12.5984    0.0000 C   0  0  1  0  0  0  0  0  0  0  0  0
    2.4829  -13.1759    0.0000 C   0  0  2  0  0  0  0  0  0  0  0  0
    2.9830  -13.4646    0.0000 C   0  0  1  0  0  0  0  0  0  0  0  0
    3.4832  -13.1759    0.0000 C   0  0  1  0  0  0  0  0  0  0  0  0
    1.9828  -12.3096    0.0000 C   0  0  0  0  0  0  0  0  0  0  0  0
    2.9830  -14.0421    0.0000 O   0  0  0  0  0  0  0  0  0  0  0  0
    1.9828  -13.4646    0.0000 O   0  0  0  0  0  0  0  0  0  0  0  0
    3.9833  -13.4646    0.0000 O   0  0  0  0  0  0  0  0  0  0  0  0
    1.4826  -12.5984    0.0000 O   0  0  0  0  0  0  0  0  0  0  0  0
    9.4824   -7.9686    0.0000 O   0  0  0  0  0  0  0  0  0  0  0  0
    8.9730   -7.6799    0.0000 C   0  0  0  0  0  0  0  0  0  0  0  0
    8.4728   -7.9686    0.0000 C   0  0  0  0  0  0  0  0  0  0  0  0
    8.9730   -7.1024    0.0000 O   0  0  0  0  0  0  0  0  0  0  0  0
    7.9727   -7.6799    0.0000 C   0  0  0  0  0  0  0  0  0  0  0  0
    7.4726   -7.9686    0.0000 C   0  0  0  0  0  0  0  0  0  0  0  0
    6.9725   -7.6799    0.0000 C   0  0  0  0  0  0  0  0  0  0  0  0
    6.4723   -7.9686    0.0000 C   0  0  0  0  0  0  0  0  0  0  0  0
    8.4728   -8.5461    0.0000 C   0  0  0  0  0  0  0  0  0  0  0  0
   10.0488   -7.1558    0.0000 C   0  0  0  0  0  0  0  0  0  0  0  0
    9.6201   -7.4033    0.0000 O   0  0  0  0  0  0  0  0  0  0  0  0
   10.0488   -6.6608    0.0000 C   0  0  0  0  0  0  0  0  0  0  0  0
    9.6201   -6.4133    0.0000 C   0  0  0  0  0  0  0  0  0  0  0  0
   10.4775   -6.4133    0.0000 C   0  0  0  0  0  0  0  0  0  0  0  0
    9.6201   -5.9183    0.0000 C   0  0  0  0  0  0  0  0  0  0  0  0
  1  2  1  0  0  0  0
  2  3  1  0  0  0  0
  3  4  1  0  0  0  0
  4  5  1  0  0  0  0
  5  6  1  0  0  0  0
  6  1  1  0  0  0  0
  4  7  1  0  0  0  0
  7  8  1  0  0  0  0
  8  9  1  0  0  0  0
  9 10  1  0  0  0  0
 10  5  1  0  0  0  0
  9 11  1  0  0  0  0
 11 12  1  0  0  0  0
 12 13  1  0  0  0  0
 13 14  1  0  0  0  0
 14 10  1  0  0  0  0
 11 15  1  0  0  0  0
 15 16  1  0  0  0  0
 16 17  1  0  0  0  0
 17 12  1  0  0  0  0
  2 18  1  1  0  0  0
  5 19  1  1  0  0  0
  9 20  1  1  0  0  0
 11 20  1  1  0  0  0
 13 21  1  1  0  0  0
 12 22  1  1  0  0  0
 17 23  1  6  0  0  0
 10 24  1  6  0  0  0
 23 25  1  0  0  0  0
 23 26  2  0  0  0  0
 27 28  1  0  0  0  0
 28 29  1  0  0  0  0
 29 30  1  0  0  0  0
 30 31  1  0  0  0  0
 31 32  1  0  0  0  0
 32 27  1  0  0  0  0
 29 33  1  1  0  0  0
 27 34  1  1  0  0  0
 28 35  1  6  0  0  0
 33 36  1  0  0  0  0
 37 35  1  1  0  0  0
 37 38  1  0  0  0  0
 38 39  1  0  0  0  0
 39 40  1  0  0  0  0
 40 41  1  0  0  0  0
 41 42  1  0  0  0  0
 42 37  1  0  0  0  0
 39 43  1  1  0  0  0
 40 44  1  6  0  0  0
 41 45  1  6  0  0  0
 42 46  1  6  0  0  0
 45 47  1  0  0  0  0
 48 44  1  1  0  0  0
 48 49  1  0  0  0  0
 49 50  1  0  0  0  0
 50 51  1  0  0  0  0
 51 52  1  0  0  0  0
 52 53  1  0  0  0  0
 53 48  1  0  0  0  0
 50 54  1  1  0  0  0
 52 55  1  1  0  0  0
 51 56  1  6  0  0  0
 53 57  1  6  0  0  0
 54 58  1  0  0  0  0
 31 18  1  1  0  0  0
 60 61  1  0  0  0  0
 60 62  2  0  0  0  0
 61 63  1  0  0  0  0
 63 64  1  0  0  0  0
 64 65  1  0  0  0  0
 65 66  1  0  0  0  0
 61 67  1  0  0  0  0
 60 59  1  0  0  0  0
 14 59  1  6  0  0  0
 68 69  2  0  0  0  0
 68 70  1  0  0  0  0
 70 71  2  0  0  0  0
 70 72  1  0  0  0  0
 71 73  1  0  0  0  0
 68 21  1  0  0  0  0
M  END
>  <cdx:fragmentId>
5

$$$$
