91439.cdx
  Mrv1902 05222410222D          

 36 41  0  0  0  0            999 V2000
    6.8100   -6.5409    0.0000 C   0  0  1  0  0  0  0  0  0  0  0  0
    7.5245   -6.1284    0.0000 C   0  0  2  0  0  0  0  0  0  0  0  0
    8.3091   -6.3833    0.0000 C   0  0  0  0  0  0  0  0  0  0  0  0
    8.7940   -5.7159    0.0000 C   0  0  2  0  0  0  0  0  0  0  0  0
    9.5786   -5.4609    0.0000 O   0  0  0  0  0  0  0  0  0  0  0  0
    9.5786   -4.6359    0.0000 C   0  0  2  0  0  0  0  0  0  0  0  0
    8.7940   -4.3810    0.0000 C   0  0  2  0  0  0  0  0  0  0  0  0
    8.3091   -5.0484    0.0000 C   0  0  2  0  0  0  0  0  0  0  0  0
    7.5245   -5.3034    0.0000 C   0  0  1  0  0  0  0  0  0  0  0  0
    6.8100   -4.8909    0.0000 C   0  0  0  0  0  0  0  0  0  0  0  0
    6.0955   -5.3034    0.0000 C   0  0  0  0  0  0  0  0  0  0  0  0
    6.0955   -6.1284    0.0000 C   0  0  2  0  0  0  0  0  0  0  0  0
    5.3811   -6.5409    0.0000 C   0  0  1  0  0  0  0  0  0  0  0  0
    4.6666   -6.1284    0.0000 C   0  0  0  0  0  0  0  0  0  0  0  0
    3.9521   -6.5409    0.0000 C   0  0  0  0  0  0  0  0  0  0  0  0
    3.9521   -7.3659    0.0000 C   0  0  1  0  0  0  0  0  0  0  0  0
    4.6666   -7.7784    0.0000 C   0  0  0  0  0  0  0  0  0  0  0  0
    5.3811   -7.3659    0.0000 C   0  0  1  0  0  0  0  0  0  0  0  0
    6.0955   -7.7784    0.0000 C   0  0  0  0  0  0  0  0  0  0  0  0
    6.8100   -7.3659    0.0000 C   0  0  0  0  0  0  0  0  0  0  0  0
    9.4924   -3.8154    0.0000 O   0  0  0  0  0  0  0  0  0  0  0  0
   10.3323   -4.9715    0.0000 C   0  0  0  0  0  0  0  0  0  0  0  0
   10.9998   -4.4865    0.0000 C   0  0  0  0  0  0  0  0  0  0  0  0
   10.9135   -3.6661    0.0000 C   0  0  2  0  0  0  0  0  0  0  0  0
   10.1598   -3.3305    0.0000 C   0  0  0  0  0  0  0  0  0  0  0  0
    3.2376   -7.7784    0.0000 O   0  0  0  0  0  0  0  0  0  0  0  0
    5.3811   -5.7159    0.0000 C   0  0  0  0  0  0  0  0  0  0  0  0
    7.5245   -4.4784    0.0000 C   0  0  0  0  0  0  0  0  0  0  0  0
    8.5391   -3.5964    0.0000 C   0  0  0  0  0  0  0  0  0  0  0  0
   11.5810   -3.1811    0.0000 C   0  0  0  0  0  0  0  0  0  0  0  0
    6.8100   -5.7159    0.0000 H   0  0  0  0  0  0  0  0  0  0  0  0
    7.5245   -6.9534    0.0000 H   0  0  0  0  0  0  0  0  0  0  0  0
    9.2789   -6.3833    0.0000 H   0  0  0  0  0  0  0  0  0  0  0  0
    7.9474   -4.3069    0.0000 H   0  0  0  0  0  0  0  0  0  0  0  0
    6.0955   -6.9534    0.0000 H   0  0  0  0  0  0  0  0  0  0  0  0
    5.3811   -8.1909    0.0000 H   0  0  0  0  0  0  0  0  0  0  0  0
  1  2  1  0  0  0  0
  2  3  1  0  0  0  0
  3  4  1  0  0  0  0
  4  5  1  0  0  0  0
  6  5  1  6  0  0  0
  6  7  1  0  0  0  0
  7  8  1  0  0  0  0
  8  9  1  0  0  0  0
  9 10  1  0  0  0  0
 10 11  1  0  0  0  0
 11 12  1  0  0  0  0
 12 13  1  0  0  0  0
 13 14  1  0  0  0  0
 14 15  1  0  0  0  0
 15 16  1  0  0  0  0
 16 17  1  0  0  0  0
 17 18  1  0  0  0  0
 18 19  1  0  0  0  0
 19 20  1  0  0  0  0
  1 20  1  0  0  0  0
  1 12  1  0  0  0  0
 13 18  1  0  0  0  0
  2  9  1  0  0  0  0
  4  8  1  0  0  0  0
 22 23  1  0  0  0  0
 23 24  1  0  0  0  0
 24 25  1  0  0  0  0
 21 25  1  0  0  0  0
  6 21  1  0  0  0  0
  6 22  1  0  0  0  0
 16 26  1  1  0  0  0
 13 27  1  1  0  0  0
  9 28  1  1  0  0  0
  7 29  1  6  0  0  0
 24 30  1  6  0  0  0
  1 31  1  1  0  0  0
  2 32  1  6  0  0  0
  4 33  1  6  0  0  0
  8 34  1  6  0  0  0
 12 35  1  6  0  0  0
 18 36  1  1  0  0  0
M  END
>  <cdx:fragmentId>
5

$$$$
