91430.cdx
  Mrv1902 05222410242D          

 33 36  0  0  0  0            999 V2000
    9.4602   -8.1828    0.0000 O   0  0  0  0  0  0  0  0  0  0  0  0
    3.7445   -5.7078    0.0000 O   0  0  0  0  0  0  0  0  0  0  0  0
    2.3155   -6.5328    0.0000 O   0  0  0  0  0  0  0  0  0  0  0  0
   10.1747   -4.4703    0.0000 O   0  0  0  0  0  0  0  0  0  0  0  0
   11.6037   -5.2953    0.0000 O   0  0  0  0  0  0  0  0  0  0  0  0
    6.6024   -9.0078    0.0000 O   0  0  0  0  0  0  0  0  0  0  0  0
    8.0313   -9.0078    0.0000 O   0  0  0  0  0  0  0  0  0  0  0  0
   10.1747   -6.9453    0.0000 C   0  0  0  0  0  0  0  0  0  0  0  0
   10.8892   -6.5328    0.0000 C   0  0  0  0  0  0  0  0  0  0  0  0
   10.8892   -5.7078    0.0000 C   0  0  0  0  0  0  0  0  0  0  0  0
   10.1747   -5.2953    0.0000 C   0  0  0  0  0  0  0  0  0  0  0  0
    9.4602   -6.5328    0.0000 C   0  0  0  0  0  0  0  0  0  0  0  0
    9.4602   -5.7078    0.0000 C   0  0  0  0  0  0  0  0  0  0  0  0
    8.0313   -8.1828    0.0000 C   0  0  0  0  0  0  0  0  0  0  0  0
    8.7458   -7.7703    0.0000 C   0  0  1  0  0  0  0  0  0  0  0  0
    8.7458   -6.9453    0.0000 C   0  0  2  0  0  0  0  0  0  0  0  0
    8.0313   -6.5328    0.0000 O   0  0  0  0  0  0  0  0  0  0  0  0
    6.6024   -8.1828    0.0000 C   0  0  0  0  0  0  0  0  0  0  0  0
    7.3168   -7.7703    0.0000 C   0  0  0  0  0  0  0  0  0  0  0  0
    7.3168   -6.9453    0.0000 C   0  0  0  0  0  0  0  0  0  0  0  0
    6.6024   -6.5328    0.0000 C   0  0  0  0  0  0  0  0  0  0  0  0
    5.8879   -7.7703    0.0000 C   0  0  0  0  0  0  0  0  0  0  0  0
    5.8879   -6.9453    0.0000 C   0  0  0  0  0  0  0  0  0  0  0  0
    5.1734   -6.5328    0.0000 O   0  0  0  0  0  0  0  0  0  0  0  0
    4.4589   -7.7703    0.0000 O   0  0  0  0  0  0  0  0  0  0  0  0
    4.4589   -6.9453    0.0000 C   0  0  0  0  0  0  0  0  0  0  0  0
    3.7445   -6.5328    0.0000 C   0  0  0  0  0  0  0  0  0  0  0  0
    3.0300   -6.9453    0.0000 C   0  0  0  0  0  0  0  0  0  0  0  0
    3.7445   -9.0078    0.0000 C   0  0  0  0  0  0  0  0  0  0  0  0
    3.7445   -8.1828    0.0000 C   0  0  0  0  0  0  0  0  0  0  0  0
    3.0300   -7.7703    0.0000 C   0  0  0  0  0  0  0  0  0  0  0  0
    2.3155   -8.1828    0.0000 O   0  0  0  0  0  0  0  0  0  0  0  0
    3.0300   -9.4203    0.0000 O   0  0  0  0  0  0  0  0  0  0  0  0
 15  1  1  1  0  0  0
 27  2  1  0  0  0  0
 28  3  1  0  0  0  0
 11  4  1  0  0  0  0
 10  5  1  0  0  0  0
  6 18  1  0  0  0  0
 14  7  2  0  0  0  0
  8 12  1  0  0  0  0
  9  8  2  0  0  0  0
 10  9  1  0  0  0  0
 11 10  2  0  0  0  0
 13 11  1  0  0  0  0
 16 12  1  6  0  0  0
 13 12  2  0  0  0  0
 14 19  1  0  0  0  0
 15 14  1  0  0  0  0
 16 15  1  0  0  0  0
 17 16  1  0  0  0  0
 20 17  1  0  0  0  0
 18 22  1  0  0  0  0
 19 18  2  0  0  0  0
 20 19  1  0  0  0  0
 21 20  2  0  0  0  0
 23 21  1  0  0  0  0
 23 22  2  0  0  0  0
 24 23  1  0  0  0  0
 26 24  1  0  0  0  0
 25 30  1  0  0  0  0
 26 25  1  0  0  0  0
 27 26  1  0  0  0  0
 28 27  1  0  0  0  0
 31 28  1  0  0  0  0
 29 33  1  0  0  0  0
 30 29  1  0  0  0  0
 31 30  1  0  0  0  0
 32 31  1  0  0  0  0
M  END
>  <cdx:fragmentId>
5

$$$$
