91433.cdx
  Mrv1902 05222410242D          

 81 89  0  0  0  0            999 V2000
   10.0888   -8.7164    0.0000 C   0  0  0  0  0  0  0  0  0  0  0  0
   10.0888   -9.2939    0.0000 C   0  0  1  0  0  0  0  0  0  0  0  0
   10.5889   -9.5826    0.0000 C   0  0  0  0  0  0  0  0  0  0  0  0
   11.0891   -9.2939    0.0000 C   0  0  0  0  0  0  0  0  0  0  0  0
   11.0891   -8.7164    0.0000 C   0  0  2  0  0  0  0  0  0  0  0  0
   10.5889   -8.4276    0.0000 C   0  0  0  0  0  0  0  0  0  0  0  0
   11.5892   -9.5826    0.0000 C   0  0  0  0  0  0  0  0  0  0  0  0
   12.0893   -9.2939    0.0000 C   0  0  0  0  0  0  0  0  0  0  0  0
   12.0893   -8.7164    0.0000 C   0  0  2  0  0  0  0  0  0  0  0  0
   11.5892   -8.4276    0.0000 C   0  0  2  0  0  0  0  0  0  0  0  0
   12.5895   -8.4276    0.0000 C   0  0  2  0  0  0  0  0  0  0  0  0
   12.5895   -7.8501    0.0000 C   0  0  2  0  0  0  0  0  0  0  0  0
   12.0893   -7.5614    0.0000 C   0  0  1  0  0  0  0  0  0  0  0  0
   11.5892   -7.8501    0.0000 C   0  0  1  0  0  0  0  0  0  0  0  0
   12.0893   -6.9839    0.0000 O   0  0  0  0  0  0  0  0  0  0  0  0
   12.8038   -5.7464    0.0000 O   0  0  0  0  0  0  0  0  0  0  0  0
   12.0893   -6.1589    0.0000 C   0  0  0  0  0  0  0  0  0  0  0  0
   11.3749   -5.7464    0.0000 C   0  0  0  0  0  0  0  0  0  0  0  0
   11.0891   -7.5614    0.0000 O   0  0  0  0  0  0  0  0  0  0  0  0
   13.1387   -8.6061    0.0000 C   0  0  0  0  0  0  0  0  0  0  0  0
   13.4781   -8.1389    0.0000 C   0  0  0  0  0  0  0  0  0  0  0  0
   13.1387   -7.6717    0.0000 C   0  0  1  0  0  0  0  0  0  0  0  0
   13.3171   -7.1225    0.0000 C   0  0  0  0  0  0  0  0  0  0  0  0
   12.9307   -6.6933    0.0000 C   0  0  0  0  0  0  0  0  0  0  0  0
   13.8820   -7.0024    0.0000 O   0  0  0  0  0  0  0  0  0  0  0  0
    9.5887   -9.5826    0.0000 O   0  0  0  0  0  0  0  0  0  0  0  0
   11.0891   -8.1389    0.0000 C   0  0  0  0  0  0  0  0  0  0  0  0
   12.6498   -7.2758    0.0000 C   0  0  0  0  0  0  0  0  0  0  0  0
   12.5895   -9.0051    0.0000 O   0  0  0  0  0  0  0  0  0  0  0  0
   11.5892   -9.0051    0.0000 H   0  0  0  0  0  0  0  0  0  0  0  0
   10.5797   -7.2726    0.0000 C   0  0  0  0  0  0  0  0  0  0  0  0
   10.0796   -7.5614    0.0000 C   0  0  0  0  0  0  0  0  0  0  0  0
   10.5797   -6.6951    0.0000 O   0  0  0  0  0  0  0  0  0  0  0  0
    9.5794   -7.2726    0.0000 C   0  0  0  0  0  0  0  0  0  0  0  0
    9.0793   -7.5614    0.0000 C   0  0  0  0  0  0  0  0  0  0  0  0
    8.5792   -7.2726    0.0000 C   0  0  0  0  0  0  0  0  0  0  0  0
    8.0790   -7.5614    0.0000 C   0  0  0  0  0  0  0  0  0  0  0  0
   10.0796   -8.1389    0.0000 C   0  0  0  0  0  0  0  0  0  0  0  0
    8.1399   -9.8201    0.0000 C   0  0  2  0  0  0  0  0  0  0  0  0
    8.1399  -10.3976    0.0000 C   0  0  2  0  0  0  0  0  0  0  0  0
    8.6400  -10.6864    0.0000 C   0  0  1  0  0  0  0  0  0  0  0  0
    9.1401  -10.3976    0.0000 C   0  0  0  0  0  0  0  0  0  0  0  0
    9.1401   -9.8201    0.0000 C   0  0  1  0  0  0  0  0  0  0  0  0
    8.6400   -9.5314    0.0000 O   0  0  0  0  0  0  0  0  0  0  0  0
    7.6398   -9.5314    0.0000 C   0  0  0  0  0  0  0  0  0  0  0  0
    8.6400  -11.2639    0.0000 O   0  0  0  0  0  0  0  0  0  0  0  0
    7.6398  -10.6864    0.0000 O   0  0  0  0  0  0  0  0  0  0  0  0
    9.1401  -11.5526    0.0000 C   0  0  0  0  0  0  0  0  0  0  0  0
    7.1396  -10.9751    0.0000 C   0  0  2  0  0  0  0  0  0  0  0  0
    6.6395  -10.6864    0.0000 O   0  0  0  0  0  0  0  0  0  0  0  0
    6.1394  -10.9751    0.0000 C   0  0  1  0  0  0  0  0  0  0  0  0
    6.1394  -11.5526    0.0000 C   0  0  2  0  0  0  0  0  0  0  0  0
    6.6395  -11.8414    0.0000 C   0  0  2  0  0  0  0  0  0  0  0  0
    7.1396  -11.5526    0.0000 C   0  0  1  0  0  0  0  0  0  0  0  0
    5.6392  -10.6864    0.0000 C   0  0  0  0  0  0  0  0  0  0  0  0
    5.6392  -11.8414    0.0000 O   0  0  0  0  0  0  0  0  0  0  0  0
    6.6395  -12.4189    0.0000 O   0  0  0  0  0  0  0  0  0  0  0  0
    7.6398  -11.8414    0.0000 O   0  0  0  0  0  0  0  0  0  0  0  0
    7.1396  -12.7076    0.0000 C   0  0  0  0  0  0  0  0  0  0  0  0
    5.1391  -12.1301    0.0000 C   0  0  2  0  0  0  0  0  0  0  0  0
    4.6390  -11.8414    0.0000 O   0  0  0  0  0  0  0  0  0  0  0  0
    4.1388  -12.1301    0.0000 C   0  0  1  0  0  0  0  0  0  0  0  0
    4.1388  -12.7076    0.0000 C   0  0  2  0  0  0  0  0  0  0  0  0
    4.6390  -12.9964    0.0000 C   0  0  1  0  0  0  0  0  0  0  0  0
    5.1391  -12.7076    0.0000 C   0  0  1  0  0  0  0  0  0  0  0  0
    3.6387  -11.8414    0.0000 C   0  0  0  0  0  0  0  0  0  0  0  0
    4.6390  -13.5739    0.0000 O   0  0  0  0  0  0  0  0  0  0  0  0
    3.6387  -12.9964    0.0000 O   0  0  0  0  0  0  0  0  0  0  0  0
    5.6392  -12.9964    0.0000 O   0  0  0  0  0  0  0  0  0  0  0  0
    3.1386  -12.1301    0.0000 O   0  0  0  0  0  0  0  0  0  0  0  0
    3.1386  -13.2851    0.0000 C   0  0  2  0  0  0  0  0  0  0  0  0
    2.6385  -12.9964    0.0000 O   0  0  0  0  0  0  0  0  0  0  0  0
    2.1383  -13.2851    0.0000 C   0  0  1  0  0  0  0  0  0  0  0  0
    2.1383  -13.8626    0.0000 C   0  0  2  0  0  0  0  0  0  0  0  0
    2.6385  -14.1514    0.0000 C   0  0  1  0  0  0  0  0  0  0  0  0
    3.1386  -13.8626    0.0000 C   0  0  1  0  0  0  0  0  0  0  0  0
    1.6382  -12.9964    0.0000 C   0  0  0  0  0  0  0  0  0  0  0  0
    2.6385  -14.7289    0.0000 O   0  0  0  0  0  0  0  0  0  0  0  0
    1.6382  -14.1514    0.0000 O   0  0  0  0  0  0  0  0  0  0  0  0
    3.6387  -14.1514    0.0000 O   0  0  0  0  0  0  0  0  0  0  0  0
    1.1381  -13.2851    0.0000 O   0  0  0  0  0  0  0  0  0  0  0  0
  1  2  1  0  0  0  0
  2  3  1  0  0  0  0
  3  4  1  0  0  0  0
  4  5  1  0  0  0  0
  5  6  1  0  0  0  0
  6  1  1  0  0  0  0
  4  7  1  0  0  0  0
  7  8  1  0  0  0  0
  8  9  1  0  0  0  0
  9 10  1  0  0  0  0
 10  5  1  0  0  0  0
  9 11  1  0  0  0  0
 11 12  1  0  0  0  0
 12 13  1  0  0  0  0
 13 14  1  0  0  0  0
 14 10  1  0  0  0  0
 13 15  1  1  0  0  0
 14 19  1  6  0  0  0
 11 20  1  0  0  0  0
 20 21  1  0  0  0  0
 21 22  1  0  0  0  0
 22 12  1  0  0  0  0
 22 23  1  6  0  0  0
 23 24  1  0  0  0  0
 23 25  2  0  0  0  0
  2 26  1  1  0  0  0
  5 27  1  1  0  0  0
 12 28  1  1  0  0  0
  9 29  1  1  0  0  0
 11 29  1  1  0  0  0
 10 30  1  6  0  0  0
 31 32  1  0  0  0  0
 31 33  2  0  0  0  0
 32 34  1  0  0  0  0
 34 35  1  0  0  0  0
 35 36  1  0  0  0  0
 36 37  1  0  0  0  0
 32 38  1  0  0  0  0
 39 40  1  0  0  0  0
 40 41  1  0  0  0  0
 41 42  1  0  0  0  0
 42 43  1  0  0  0  0
 43 44  1  0  0  0  0
 44 39  1  0  0  0  0
 39 45  1  1  0  0  0
 41 46  1  1  0  0  0
 40 47  1  6  0  0  0
 46 48  1  0  0  0  0
 49 47  1  1  0  0  0
 49 50  1  0  0  0  0
 50 51  1  0  0  0  0
 51 52  1  0  0  0  0
 52 53  1  0  0  0  0
 53 54  1  0  0  0  0
 54 49  1  0  0  0  0
 51 55  1  1  0  0  0
 52 56  1  6  0  0  0
 53 57  1  6  0  0  0
 54 58  1  6  0  0  0
 57 59  1  0  0  0  0
 60 56  1  1  0  0  0
 60 61  1  0  0  0  0
 61 62  1  0  0  0  0
 62 63  1  0  0  0  0
 63 64  1  0  0  0  0
 64 65  1  0  0  0  0
 65 60  1  0  0  0  0
 62 66  1  1  0  0  0
 64 67  1  1  0  0  0
 63 68  1  6  0  0  0
 65 69  1  6  0  0  0
 66 70  1  0  0  0  0
 71 68  1  1  0  0  0
 71 72  1  0  0  0  0
 72 73  1  0  0  0  0
 73 74  1  0  0  0  0
 74 75  1  0  0  0  0
 75 76  1  0  0  0  0
 76 71  1  0  0  0  0
 73 77  1  1  0  0  0
 75 78  1  1  0  0  0
 74 79  1  6  0  0  0
 76 80  1  6  0  0  0
 77 81  1  0  0  0  0
 31 19  1  0  0  0  0
 43 26  1  1  0  0  0
 15 17  1  0  0  0  0
 16 17  2  0  0  0  0
 17 18  1  0  0  0  0
M  STY  1   1 SUP
M  SAL   1  4  15  16  17  18
M  SBL   1  1  17
M  SMT   1 OAc
M  SAP   1  1  15  13  1
M  END
>  <cdx:fragmentId>
5

$$$$
