914328.cdx
  Mrv1902 05222410202D          

 19 19  0  0  0  0            999 V2000
    4.1599   -6.5619    0.0000 C   0  0  0  0  0  0  0  0  0  0  0  0
    3.4411   -6.9668    0.0000 C   0  0  0  0  0  0  0  0  0  0  0  0
    3.4323   -7.7917    0.0000 C   0  0  0  0  0  0  0  0  0  0  0  0
    4.1423   -8.2118    0.0000 C   0  0  0  0  0  0  0  0  0  0  0  0
    4.8611   -7.8070    0.0000 C   0  0  0  0  0  0  0  0  0  0  0  0
    4.8699   -6.9820    0.0000 C   0  0  0  0  0  0  0  0  0  0  0  0
    2.7134   -8.1966    0.0000 O   0  0  0  0  0  0  0  0  0  0  0  0
    5.5888   -6.5772    0.0000 C   0  0  0  0  0  0  0  0  0  0  0  0
    6.2988   -6.9973    0.0000 C   0  0  0  0  0  0  0  0  0  0  0  0
    7.0176   -6.5925    0.0000 C   0  0  0  0  0  0  0  0  0  0  0  0
    7.7277   -7.0126    0.0000 N   0  0  0  0  0  0  0  0  0  0  0  0
    8.4465   -6.6077    0.0000 C   0  0  0  0  0  0  0  0  0  0  0  0
    9.1565   -7.0278    0.0000 C   0  0  1  0  0  0  0  0  0  0  0  0
    9.8754   -6.6230    0.0000 C   0  0  2  0  0  0  0  0  0  0  0  0
   10.5854   -7.0431    0.0000 C   0  0  0  0  0  0  0  0  0  0  0  0
   11.3042   -6.6382    0.0000 N   0  0  0  0  0  0  0  0  0  0  0  0
    7.0265   -5.7675    0.0000 O   0  0  0  0  0  0  0  0  0  0  0  0
    9.1477   -7.8528    0.0000 O   0  0  0  0  0  0  0  0  0  0  0  0
    9.8842   -5.7980    0.0000 O   0  0  0  0  0  0  0  0  0  0  0  0
  1  2  2  0  0  0  0
  2  3  1  0  0  0  0
  3  4  2  0  0  0  0
  4  5  1  0  0  0  0
  5  6  2  0  0  0  0
  6  1  1  0  0  0  0
  3  7  1  0  0  0  0
  6  8  1  0  0  0  0
  8  9  2  0  0  0  0
  9 10  1  0  0  0  0
 10 11  1  0  0  0  0
 11 12  1  0  0  0  0
 12 13  1  0  0  0  0
 13 14  1  0  0  0  0
 14 15  1  0  0  0  0
 15 16  1  0  0  0  0
 10 17  2  0  0  0  0
 13 18  1  1  0  0  0
 14 19  1  1  0  0  0
M  END
>  <cdx:fragmentId>
5

$$$$
