91434.cdx
  Mrv1902 05222410242D          

 73 81  0  0  0  0            999 V2000
    8.8866   -8.8472    0.0000 C   0  0  0  0  0  0  0  0  0  0  0  0
    8.8866   -9.4247    0.0000 C   0  0  1  0  0  0  0  0  0  0  0  0
    9.3867   -9.7134    0.0000 C   0  0  0  0  0  0  0  0  0  0  0  0
    9.8869   -9.4247    0.0000 C   0  0  0  0  0  0  0  0  0  0  0  0
    9.8869   -8.8472    0.0000 C   0  0  2  0  0  0  0  0  0  0  0  0
    9.3867   -8.5584    0.0000 C   0  0  0  0  0  0  0  0  0  0  0  0
   10.3870   -9.7134    0.0000 C   0  0  0  0  0  0  0  0  0  0  0  0
   10.8871   -9.4247    0.0000 C   0  0  0  0  0  0  0  0  0  0  0  0
   10.8871   -8.8472    0.0000 C   0  0  2  0  0  0  0  0  0  0  0  0
   10.3870   -8.5584    0.0000 C   0  0  2  0  0  0  0  0  0  0  0  0
   11.3872   -8.5584    0.0000 C   0  0  2  0  0  0  0  0  0  0  0  0
   11.3872   -7.9809    0.0000 C   0  0  2  0  0  0  0  0  0  0  0  0
   10.8871   -7.6922    0.0000 C   0  0  1  0  0  0  0  0  0  0  0  0
   10.3870   -7.9809    0.0000 C   0  0  1  0  0  0  0  0  0  0  0  0
   11.9365   -8.7369    0.0000 C   0  0  0  0  0  0  0  0  0  0  0  0
   12.2759   -8.2697    0.0000 C   0  0  0  0  0  0  0  0  0  0  0  0
   11.9365   -7.8025    0.0000 C   0  0  1  0  0  0  0  0  0  0  0  0
    8.3865   -9.7134    0.0000 O   0  0  0  0  0  0  0  0  0  0  0  0
    9.8869   -8.2697    0.0000 C   0  0  0  0  0  0  0  0  0  0  0  0
   11.3872   -9.1359    0.0000 O   0  0  0  0  0  0  0  0  0  0  0  0
   10.8871   -7.1147    0.0000 O   0  0  0  0  0  0  0  0  0  0  0  0
   11.4476   -7.4066    0.0000 C   0  0  0  0  0  0  0  0  0  0  0  0
   12.1149   -7.2532    0.0000 C   0  0  0  0  0  0  0  0  0  0  0  0
    9.8869   -7.6922    0.0000 O   0  0  0  0  0  0  0  0  0  0  0  0
   10.3870   -9.1359    0.0000 H   0  0  0  0  0  0  0  0  0  0  0  0
   11.7285   -6.8241    0.0000 C   0  0  0  0  0  0  0  0  0  0  0  0
   12.6798   -7.1332    0.0000 O   0  0  0  0  0  0  0  0  0  0  0  0
    6.8953  -10.0090    0.0000 C   0  0  2  0  0  0  0  0  0  0  0  0
    6.8953  -10.5865    0.0000 C   0  0  2  0  0  0  0  0  0  0  0  0
    7.3954  -10.8753    0.0000 C   0  0  1  0  0  0  0  0  0  0  0  0
    7.8955  -10.5865    0.0000 C   0  0  0  0  0  0  0  0  0  0  0  0
    7.8955  -10.0090    0.0000 C   0  0  1  0  0  0  0  0  0  0  0  0
    7.3954   -9.7203    0.0000 O   0  0  0  0  0  0  0  0  0  0  0  0
    7.3954  -11.4528    0.0000 C   0  0  0  0  0  0  0  0  0  0  0  0
    6.3951   -9.7203    0.0000 C   0  0  0  0  0  0  0  0  0  0  0  0
    6.3951  -10.8753    0.0000 O   0  0  0  0  0  0  0  0  0  0  0  0
    7.8955  -11.7415    0.0000 C   0  0  0  0  0  0  0  0  0  0  0  0
    5.8950  -11.1640    0.0000 C   0  0  2  0  0  0  0  0  0  0  0  0
    5.3949  -10.8753    0.0000 O   0  0  0  0  0  0  0  0  0  0  0  0
    4.8947  -11.1640    0.0000 C   0  0  1  0  0  0  0  0  0  0  0  0
    4.8947  -11.7415    0.0000 C   0  0  2  0  0  0  0  0  0  0  0  0
    5.3949  -12.0303    0.0000 C   0  0  2  0  0  0  0  0  0  0  0  0
    5.8950  -11.7415    0.0000 C   0  0  1  0  0  0  0  0  0  0  0  0
    4.3946  -10.8753    0.0000 C   0  0  0  0  0  0  0  0  0  0  0  0
    4.3946  -12.0303    0.0000 O   0  0  0  0  0  0  0  0  0  0  0  0
    5.3949  -12.6078    0.0000 O   0  0  0  0  0  0  0  0  0  0  0  0
    6.3951  -12.0303    0.0000 O   0  0  0  0  0  0  0  0  0  0  0  0
    5.8950  -12.8965    0.0000 C   0  0  0  0  0  0  0  0  0  0  0  0
    3.8945  -12.3190    0.0000 C   0  0  2  0  0  0  0  0  0  0  0  0
    3.3944  -12.0303    0.0000 O   0  0  0  0  0  0  0  0  0  0  0  0
    2.8942  -12.3190    0.0000 C   0  0  1  0  0  0  0  0  0  0  0  0
    2.8942  -12.8965    0.0000 C   0  0  2  0  0  0  0  0  0  0  0  0
    3.3944  -13.1853    0.0000 C   0  0  1  0  0  0  0  0  0  0  0  0
    3.8945  -12.8965    0.0000 C   0  0  1  0  0  0  0  0  0  0  0  0
    2.3941  -12.0303    0.0000 C   0  0  0  0  0  0  0  0  0  0  0  0
    3.3944  -13.7628    0.0000 O   0  0  0  0  0  0  0  0  0  0  0  0
    2.3941  -13.1853    0.0000 O   0  0  0  0  0  0  0  0  0  0  0  0
    4.3946  -13.1853    0.0000 O   0  0  0  0  0  0  0  0  0  0  0  0
    1.8940  -12.3190    0.0000 O   0  0  0  0  0  0  0  0  0  0  0  0
   10.3870   -6.8259    0.0000 C   0  0  0  0  0  0  0  0  0  0  0  0
   10.3870   -6.2484    0.0000 C   0  0  0  0  0  0  0  0  0  0  0  0
    9.8869   -7.1147    0.0000 O   0  0  0  0  0  0  0  0  0  0  0  0
   10.8871   -5.9597    0.0000 C   0  0  0  0  0  0  0  0  0  0  0  0
   10.8871   -5.3822    0.0000 C   0  0  0  0  0  0  0  0  0  0  0  0
   10.3870   -5.0934    0.0000 C   0  0  0  0  0  0  0  0  0  0  0  0
    9.8869   -5.3822    0.0000 C   0  0  0  0  0  0  0  0  0  0  0  0
    9.8869   -5.9597    0.0000 C   0  0  0  0  0  0  0  0  0  0  0  0
    9.3094   -7.6922    0.0000 C   0  0  0  0  0  0  0  0  0  0  0  0
    9.0206   -7.1920    0.0000 C   0  0  0  0  0  0  0  0  0  0  0  0
    9.0206   -8.1923    0.0000 O   0  0  0  0  0  0  0  0  0  0  0  0
    9.3094   -6.6919    0.0000 C   0  0  0  0  0  0  0  0  0  0  0  0
    8.4431   -7.1920    0.0000 C   0  0  0  0  0  0  0  0  0  0  0  0
    8.1544   -6.6919    0.0000 C   0  0  0  0  0  0  0  0  0  0  0  0
  1  2  1  0  0  0  0
  2  3  1  0  0  0  0
  3  4  1  0  0  0  0
  4  5  1  0  0  0  0
  5  6  1  0  0  0  0
  6  1  1  0  0  0  0
  4  7  1  0  0  0  0
  7  8  1  0  0  0  0
  8  9  1  0  0  0  0
  9 10  1  0  0  0  0
 10  5  1  0  0  0  0
  9 11  1  0  0  0  0
 11 12  1  0  0  0  0
 12 13  1  0  0  0  0
 13 14  1  0  0  0  0
 14 10  1  0  0  0  0
 11 15  1  0  0  0  0
 15 16  1  0  0  0  0
 16 17  1  0  0  0  0
 17 12  1  0  0  0  0
  2 18  1  1  0  0  0
  5 19  1  1  0  0  0
  9 20  1  1  0  0  0
 11 20  1  1  0  0  0
 13 21  1  1  0  0  0
 12 22  1  1  0  0  0
 17 23  1  6  0  0  0
 14 24  1  6  0  0  0
 10 25  1  6  0  0  0
 23 26  1  0  0  0  0
 23 27  2  0  0  0  0
 28 29  1  0  0  0  0
 29 30  1  0  0  0  0
 30 31  1  0  0  0  0
 31 32  1  0  0  0  0
 32 33  1  0  0  0  0
 33 28  1  0  0  0  0
 30 34  1  1  0  0  0
 28 35  1  1  0  0  0
 29 36  1  6  0  0  0
 34 37  1  0  0  0  0
 38 36  1  1  0  0  0
 38 39  1  0  0  0  0
 39 40  1  0  0  0  0
 40 41  1  0  0  0  0
 41 42  1  0  0  0  0
 42 43  1  0  0  0  0
 43 38  1  0  0  0  0
 40 44  1  1  0  0  0
 41 45  1  6  0  0  0
 42 46  1  6  0  0  0
 43 47  1  6  0  0  0
 46 48  1  0  0  0  0
 49 45  1  1  0  0  0
 49 50  1  0  0  0  0
 50 51  1  0  0  0  0
 51 52  1  0  0  0  0
 52 53  1  0  0  0  0
 53 54  1  0  0  0  0
 54 49  1  0  0  0  0
 51 55  1  1  0  0  0
 53 56  1  1  0  0  0
 52 57  1  6  0  0  0
 54 58  1  6  0  0  0
 55 59  1  0  0  0  0
 21 60  1  0  0  0  0
 60 61  1  0  0  0  0
 60 62  2  0  0  0  0
 61 63  2  0  0  0  0
 63 64  1  0  0  0  0
 64 65  2  0  0  0  0
 65 66  1  0  0  0  0
 66 67  2  0  0  0  0
 67 61  1  0  0  0  0
 24 68  1  0  0  0  0
 68 69  1  0  0  0  0
 68 70  2  0  0  0  0
 69 71  1  0  0  0  0
 69 72  2  0  0  0  0
 72 73  1  0  0  0  0
 32 18  1  1  0  0  0
M  END
>  <cdx:fragmentId>
5

$$$$
