91448.cdx
  Mrv1902 05222410202D          

 40 43  0  0  0  0            999 V2000
    5.6768  -10.2564    0.0000 O   0  0  0  0  0  0  0  0  0  0  0  0
    6.3913  -11.4939    0.0000 O   0  0  0  0  0  0  0  0  0  0  0  0
    7.1057  -11.0814    0.0000 C   0  0  2  0  0  0  0  0  0  0  0  0
    7.1057  -10.2564    0.0000 C   0  0  1  0  0  0  0  0  0  0  0  0
    6.3913   -9.8439    0.0000 C   0  0  0  0  0  0  0  0  0  0  0  0
    7.8202  -11.4939    0.0000 C   0  0  1  0  0  0  0  0  0  0  0  0
    8.5347  -11.0814    0.0000 C   0  0  2  0  0  0  0  0  0  0  0  0
    8.5347  -10.2564    0.0000 C   0  0  1  0  0  0  0  0  0  0  0  0
    7.8202   -9.8439    0.0000 O   0  0  0  0  0  0  0  0  0  0  0  0
    9.2492   -9.8439    0.0000 O   0  0  0  0  0  0  0  0  0  0  0  0
    9.2492   -9.0189    0.0000 C   0  0  0  0  0  0  0  0  0  0  0  0
    8.5347   -8.6064    0.0000 C   0  0  0  0  0  0  0  0  0  0  0  0
    9.9636   -8.6064    0.0000 C   0  0  0  0  0  0  0  0  0  0  0  0
    9.9636   -7.7814    0.0000 C   0  0  0  0  0  0  0  0  0  0  0  0
    9.2492   -7.3689    0.0000 C   0  0  0  0  0  0  0  0  0  0  0  0
    8.5347   -7.7814    0.0000 C   0  0  0  0  0  0  0  0  0  0  0  0
   10.6781   -9.0189    0.0000 C   0  0  0  0  0  0  0  0  0  0  0  0
   11.3926   -8.6064    0.0000 C   0  0  0  0  0  0  0  0  0  0  0  0
   11.3926   -7.7814    0.0000 C   0  0  0  0  0  0  0  0  0  0  0  0
   10.6781   -7.3689    0.0000 C   0  0  0  0  0  0  0  0  0  0  0  0
   12.1070   -9.0189    0.0000 C   0  0  0  0  0  0  0  0  0  0  0  0
   12.8215   -8.6064    0.0000 C   0  0  0  0  0  0  0  0  0  0  0  0
   12.1070   -7.3689    0.0000 C   0  0  0  0  0  0  0  0  0  0  0  0
    7.1057   -7.7814    0.0000 C   0  0  0  0  0  0  0  0  0  0  0  0
    7.8202   -7.3689    0.0000 O   0  0  0  0  0  0  0  0  0  0  0  0
   10.6781   -9.8439    0.0000 O   0  0  0  0  0  0  0  0  0  0  0  0
   12.1070   -9.8439    0.0000 O   0  0  0  0  0  0  0  0  0  0  0  0
    7.8202  -12.3189    0.0000 O   0  0  0  0  0  0  0  0  0  0  0  0
    9.2492  -11.4939    0.0000 O   0  0  0  0  0  0  0  0  0  0  0  0
    4.9623   -9.8439    0.0000 C   0  0  0  0  0  0  0  0  0  0  0  0
    4.2479  -10.2564    0.0000 C   0  0  0  0  0  0  0  0  0  0  0  0
    4.9623   -9.0189    0.0000 O   0  0  0  0  0  0  0  0  0  0  0  0
    3.5334   -9.8439    0.0000 C   0  0  0  0  0  0  0  0  0  0  0  0
    2.8189  -10.2564    0.0000 C   0  0  0  0  0  0  0  0  0  0  0  0
    2.8189  -11.0814    0.0000 C   0  0  0  0  0  0  0  0  0  0  0  0
    3.5334  -11.4939    0.0000 C   0  0  0  0  0  0  0  0  0  0  0  0
    4.2479  -11.0814    0.0000 C   0  0  0  0  0  0  0  0  0  0  0  0
    2.1044   -9.8439    0.0000 O   0  0  0  0  0  0  0  0  0  0  0  0
    2.1044  -11.4939    0.0000 O   0  0  0  0  0  0  0  0  0  0  0  0
    3.5334  -12.3189    0.0000 O   0  0  0  0  0  0  0  0  0  0  0  0
  3  2  1  6  0  0  0
  3  4  1  0  0  0  0
  4  5  1  1  0  0  0
  5  1  1  0  0  0  0
  3  6  1  0  0  0  0
  6  7  1  0  0  0  0
  7  8  1  0  0  0  0
  8  9  1  0  0  0  0
  9  4  1  0  0  0  0
  8 10  1  1  0  0  0
 10 11  1  0  0  0  0
 11 12  1  0  0  0  0
 11 13  2  0  0  0  0
 13 14  1  0  0  0  0
 14 15  2  0  0  0  0
 15 16  1  0  0  0  0
 16 12  2  0  0  0  0
 13 17  1  0  0  0  0
 17 18  2  0  0  0  0
 18 19  1  0  0  0  0
 19 20  2  0  0  0  0
 20 14  1  0  0  0  0
 18 21  1  0  0  0  0
 21 22  1  0  0  0  0
 23 19  1  0  0  0  0
 24 25  1  0  0  0  0
 25 16  1  0  0  0  0
 17 26  1  0  0  0  0
 21 27  2  0  0  0  0
  6 28  1  1  0  0  0
  7 29  1  6  0  0  0
  1 30  1  0  0  0  0
 30 31  1  0  0  0  0
 30 32  2  0  0  0  0
 31 33  2  0  0  0  0
 33 34  1  0  0  0  0
 34 35  2  0  0  0  0
 35 36  1  0  0  0  0
 36 37  2  0  0  0  0
 37 31  1  0  0  0  0
 34 38  1  0  0  0  0
 35 39  1  0  0  0  0
 36 40  1  0  0  0  0
M  END
>  <cdx:fragmentId>
5

$$$$
