91449.cdx
  Mrv1902 05222410202D          

 50 54  0  0  0  0            999 V2000
    1.0431   -7.9739    0.0000 O   0  0  0  0  0  0  0  0  0  0  0  0
    1.7575   -8.3864    0.0000 C   0  0  2  0  0  0  0  0  0  0  0  0
    2.4720   -7.9739    0.0000 C   0  0  1  0  0  0  0  0  0  0  0  0
    2.4720   -7.1489    0.0000 C   0  0  0  0  0  0  0  0  0  0  0  0
    1.7575   -6.7364    0.0000 O   0  0  0  0  0  0  0  0  0  0  0  0
    1.7575   -9.2114    0.0000 C   0  0  1  0  0  0  0  0  0  0  0  0
    2.4720   -9.6239    0.0000 C   0  0  2  0  0  0  0  0  0  0  0  0
    3.1865   -9.2114    0.0000 C   0  0  1  0  0  0  0  0  0  0  0  0
    3.1865   -8.3864    0.0000 O   0  0  0  0  0  0  0  0  0  0  0  0
    3.9009   -9.6239    0.0000 O   0  0  0  0  0  0  0  0  0  0  0  0
    4.6154   -9.2114    0.0000 C   0  0  0  0  0  0  0  0  0  0  0  0
    4.6154  -10.8614    0.0000 O   0  0  0  0  0  0  0  0  0  0  0  0
    5.3299  -10.4489    0.0000 C   0  0  2  0  0  0  0  0  0  0  0  0
    5.3299   -9.6239    0.0000 C   0  0  2  0  0  0  0  0  0  0  0  0
    6.0444  -10.8614    0.0000 C   0  0  1  0  0  0  0  0  0  0  0  0
    6.7588  -10.4489    0.0000 C   0  0  2  0  0  0  0  0  0  0  0  0
    6.7588   -9.6239    0.0000 C   0  0  1  0  0  0  0  0  0  0  0  0
    6.0444   -9.2114    0.0000 O   0  0  0  0  0  0  0  0  0  0  0  0
    7.4733   -9.2114    0.0000 O   0  0  0  0  0  0  0  0  0  0  0  0
    8.1878   -8.7989    0.0000 C   0  0  0  0  0  0  0  0  0  0  0  0
    8.1878   -7.9739    0.0000 C   0  0  0  0  0  0  0  0  0  0  0  0
    8.9022   -9.2114    0.0000 C   0  0  0  0  0  0  0  0  0  0  0  0
    9.6167   -8.7989    0.0000 C   0  0  0  0  0  0  0  0  0  0  0  0
    9.6167   -7.9739    0.0000 C   0  0  0  0  0  0  0  0  0  0  0  0
    8.9022   -7.5614    0.0000 C   0  0  0  0  0  0  0  0  0  0  0  0
   10.3312   -9.2114    0.0000 C   0  0  0  0  0  0  0  0  0  0  0  0
   11.0456   -8.7989    0.0000 C   0  0  2  0  0  0  0  0  0  0  0  0
   11.0456   -7.9739    0.0000 C   0  0  1  0  0  0  0  0  0  0  0  0
   10.3312   -7.5614    0.0000 C   0  0  0  0  0  0  0  0  0  0  0  0
    7.4733   -7.5614    0.0000 O   0  0  0  0  0  0  0  0  0  0  0  0
    6.7588   -7.9739    0.0000 C   0  0  0  0  0  0  0  0  0  0  0  0
    9.6167  -10.4489    0.0000 C   0  0  0  0  0  0  0  0  0  0  0  0
   10.3312  -10.0364    0.0000 C   0  0  0  0  0  0  0  0  0  0  0  0
    9.6167  -11.2739    0.0000 C   0  0  0  0  0  0  0  0  0  0  0  0
   10.3312  -11.6864    0.0000 C   0  0  0  0  0  0  0  0  0  0  0  0
   11.0456  -11.2739    0.0000 C   0  0  0  0  0  0  0  0  0  0  0  0
   11.0456  -10.4489    0.0000 C   0  0  0  0  0  0  0  0  0  0  0  0
   10.3312  -12.5114    0.0000 O   0  0  0  0  0  0  0  0  0  0  0  0
   11.0456  -12.9239    0.0000 C   0  0  0  0  0  0  0  0  0  0  0  0
   11.7601  -12.5114    0.0000 C   0  0  0  0  0  0  0  0  0  0  0  0
   11.7601  -11.6864    0.0000 O   0  0  0  0  0  0  0  0  0  0  0  0
   11.8303   -9.0538    0.0000 C   0  0  0  0  0  0  0  0  0  0  0  0
   12.3152   -8.3864    0.0000 O   0  0  0  0  0  0  0  0  0  0  0  0
   11.8303   -7.7190    0.0000 C   0  0  0  0  0  0  0  0  0  0  0  0
    1.0431   -9.6239    0.0000 O   0  0  0  0  0  0  0  0  0  0  0  0
    6.0444  -11.6864    0.0000 O   0  0  0  0  0  0  0  0  0  0  0  0
    2.4720  -10.4489    0.0000 O   0  0  0  0  0  0  0  0  0  0  0  0
    7.4733  -10.8614    0.0000 O   0  0  0  0  0  0  0  0  0  0  0  0
   11.1319   -7.1534    0.0000 O   0  0  0  0  0  0  0  0  0  0  0  0
   12.0852   -6.9343    0.0000 O   0  0  0  0  0  0  0  0  0  0  0  0
  2  1  1  6  0  0  0
  2  3  1  0  0  0  0
  3  4  1  1  0  0  0
  4  5  1  0  0  0  0
  2  6  1  0  0  0  0
  6  7  1  0  0  0  0
  7  8  1  0  0  0  0
  8  9  1  0  0  0  0
  9  3  1  0  0  0  0
  8 10  1  1  0  0  0
 10 11  1  0  0  0  0
 13 12  1  6  0  0  0
 13 14  1  0  0  0  0
 14 11  1  1  0  0  0
 13 15  1  0  0  0  0
 15 16  1  0  0  0  0
 16 17  1  0  0  0  0
 17 18  1  0  0  0  0
 18 14  1  0  0  0  0
 17 19  1  1  0  0  0
 19 20  1  0  0  0  0
 20 21  2  0  0  0  0
 20 22  1  0  0  0  0
 22 23  2  0  0  0  0
 23 24  1  0  0  0  0
 24 25  2  0  0  0  0
 25 21  1  0  0  0  0
 27 26  1  6  0  0  0
 27 28  1  0  0  0  0
 28 29  1  1  0  0  0
 29 24  1  0  0  0  0
 21 30  1  0  0  0  0
 30 31  1  0  0  0  0
 32 33  2  0  0  0  0
 33 26  1  0  0  0  0
 32 34  1  0  0  0  0
 34 35  2  0  0  0  0
 35 36  1  0  0  0  0
 36 37  2  0  0  0  0
 37 33  1  0  0  0  0
 35 38  1  0  0  0  0
 38 39  1  0  0  0  0
 40 41  1  0  0  0  0
 41 36  1  0  0  0  0
 27 42  1  0  0  0  0
 42 43  1  0  0  0  0
 43 44  1  0  0  0  0
 44 28  1  0  0  0  0
  6 45  1  1  0  0  0
 15 46  1  1  0  0  0
  7 47  1  6  0  0  0
 16 48  1  6  0  0  0
 28 49  1  6  0  0  0
 44 50  2  0  0  0  0
M  END
>  <cdx:fragmentId>
5

$$$$
