91444.cdx
  Mrv1902 05222410262D          

 29 31  0  0  0  0            999 V2000
    4.4943  -13.0201    0.0000 O   0  0  0  0  0  0  0  0  0  0  0  0
    5.2088  -14.2576    0.0000 O   0  0  0  0  0  0  0  0  0  0  0  0
    5.9232  -13.8451    0.0000 C   0  0  2  0  0  0  0  0  0  0  0  0
    5.9232  -13.0201    0.0000 C   0  0  1  0  0  0  0  0  0  0  0  0
    5.2088  -12.6076    0.0000 C   0  0  0  0  0  0  0  0  0  0  0  0
    6.6377  -14.2576    0.0000 C   0  0  1  0  0  0  0  0  0  0  0  0
    7.3522  -13.8451    0.0000 C   0  0  2  0  0  0  0  0  0  0  0  0
    7.3522  -13.0201    0.0000 C   0  0  1  0  0  0  0  0  0  0  0  0
    6.6377  -12.6076    0.0000 O   0  0  0  0  0  0  0  0  0  0  0  0
    8.0667  -12.6076    0.0000 O   0  0  0  0  0  0  0  0  0  0  0  0
    8.0667  -11.7826    0.0000 C   0  0  0  0  0  0  0  0  0  0  0  0
    7.3522  -11.3701    0.0000 C   0  0  0  0  0  0  0  0  0  0  0  0
    8.7811  -11.3701    0.0000 C   0  0  0  0  0  0  0  0  0  0  0  0
    8.7811  -10.5451    0.0000 C   0  0  0  0  0  0  0  0  0  0  0  0
    8.0667  -10.1326    0.0000 C   0  0  0  0  0  0  0  0  0  0  0  0
    7.3522  -10.5451    0.0000 C   0  0  0  0  0  0  0  0  0  0  0  0
    9.4956  -10.1326    0.0000 C   0  0  0  0  0  0  0  0  0  0  0  0
    9.4956   -9.3076    0.0000 C   0  0  0  0  0  0  0  0  0  0  0  0
    8.7811   -8.8951    0.0000 C   0  0  0  0  0  0  0  0  0  0  0  0
    8.0667   -9.3076    0.0000 C   0  0  0  0  0  0  0  0  0  0  0  0
    8.7811   -8.0701    0.0000 C   0  0  0  0  0  0  0  0  0  0  0  0
    8.0667   -7.6576    0.0000 O   0  0  0  0  0  0  0  0  0  0  0  0
    7.3522   -8.8951    0.0000 O   0  0  0  0  0  0  0  0  0  0  0  0
   10.2101   -8.8951    0.0000 C   0  0  0  0  0  0  0  0  0  0  0  0
    9.4956   -7.6576    0.0000 C   0  0  0  0  0  0  0  0  0  0  0  0
    6.6377  -10.1326    0.0000 O   0  0  0  0  0  0  0  0  0  0  0  0
    5.9232  -10.5451    0.0000 C   0  0  0  0  0  0  0  0  0  0  0  0
    6.6377  -15.0826    0.0000 O   0  0  0  0  0  0  0  0  0  0  0  0
    8.0667  -14.2576    0.0000 O   0  0  0  0  0  0  0  0  0  0  0  0
  3  2  1  6  0  0  0
  3  4  1  0  0  0  0
  4  5  1  1  0  0  0
  5  1  1  0  0  0  0
  3  6  1  0  0  0  0
  6  7  1  0  0  0  0
  7  8  1  0  0  0  0
  8  9  1  0  0  0  0
  9  4  1  0  0  0  0
  8 10  1  1  0  0  0
 10 11  1  0  0  0  0
 11 12  2  0  0  0  0
 11 13  1  0  0  0  0
 13 14  2  0  0  0  0
 14 15  1  0  0  0  0
 15 16  2  0  0  0  0
 16 12  1  0  0  0  0
 14 17  1  0  0  0  0
 17 18  2  0  0  0  0
 18 19  1  0  0  0  0
 19 20  2  0  0  0  0
 20 15  1  0  0  0  0
 19 21  1  0  0  0  0
 21 22  2  0  0  0  0
 23 20  1  0  0  0  0
 18 24  1  0  0  0  0
 25 21  1  0  0  0  0
 26 16  1  0  0  0  0
 26 27  1  0  0  0  0
  6 28  1  1  0  0  0
  7 29  1  6  0  0  0
M  END
>  <cdx:fragmentId>
5

$$$$
