91447.cdx
  Mrv1902 05222410272D          

 29 31  0  0  0  0            999 V2000
    3.8343  -10.3114    0.0000 O   0  0  0  0  0  0  0  0  0  0  0  0
    4.5488  -11.5489    0.0000 O   0  0  0  0  0  0  0  0  0  0  0  0
    5.2632  -11.1364    0.0000 C   0  0  2  0  0  0  0  0  0  0  0  0
    5.2632  -10.3114    0.0000 C   0  0  1  0  0  0  0  0  0  0  0  0
    4.5488   -9.8989    0.0000 C   0  0  0  0  0  0  0  0  0  0  0  0
    5.9777  -11.5489    0.0000 C   0  0  1  0  0  0  0  0  0  0  0  0
    6.6922  -11.1364    0.0000 C   0  0  2  0  0  0  0  0  0  0  0  0
    6.6922  -10.3114    0.0000 C   0  0  1  0  0  0  0  0  0  0  0  0
    5.9777   -9.8989    0.0000 O   0  0  0  0  0  0  0  0  0  0  0  0
    7.4067   -9.8989    0.0000 O   0  0  0  0  0  0  0  0  0  0  0  0
    7.4067   -9.0739    0.0000 C   0  0  0  0  0  0  0  0  0  0  0  0
    6.6922   -8.6614    0.0000 C   0  0  0  0  0  0  0  0  0  0  0  0
    8.1211   -8.6614    0.0000 C   0  0  0  0  0  0  0  0  0  0  0  0
    8.1211   -7.8364    0.0000 C   0  0  0  0  0  0  0  0  0  0  0  0
    7.4067   -7.4239    0.0000 C   0  0  0  0  0  0  0  0  0  0  0  0
    6.6922   -7.8364    0.0000 C   0  0  0  0  0  0  0  0  0  0  0  0
    8.8356   -9.0739    0.0000 C   0  0  0  0  0  0  0  0  0  0  0  0
    9.5501   -8.6614    0.0000 C   0  0  0  0  0  0  0  0  0  0  0  0
    9.5501   -7.8364    0.0000 C   0  0  0  0  0  0  0  0  0  0  0  0
    8.8356   -7.4239    0.0000 C   0  0  0  0  0  0  0  0  0  0  0  0
   10.2645   -9.0739    0.0000 C   0  0  0  0  0  0  0  0  0  0  0  0
   10.9790   -8.6614    0.0000 C   0  0  0  0  0  0  0  0  0  0  0  0
   10.2645   -7.4239    0.0000 C   0  0  0  0  0  0  0  0  0  0  0  0
    5.2632   -7.8364    0.0000 C   0  0  0  0  0  0  0  0  0  0  0  0
    5.9777   -7.4239    0.0000 O   0  0  0  0  0  0  0  0  0  0  0  0
    8.8356   -9.8989    0.0000 O   0  0  0  0  0  0  0  0  0  0  0  0
   10.2645   -9.8989    0.0000 O   0  0  0  0  0  0  0  0  0  0  0  0
    5.9777  -12.3739    0.0000 O   0  0  0  0  0  0  0  0  0  0  0  0
    7.4067  -11.5489    0.0000 O   0  0  0  0  0  0  0  0  0  0  0  0
  3  2  1  6  0  0  0
  3  4  1  0  0  0  0
  4  5  1  1  0  0  0
  5  1  1  0  0  0  0
  3  6  1  0  0  0  0
  6  7  1  0  0  0  0
  7  8  1  0  0  0  0
  8  9  1  0  0  0  0
  9  4  1  0  0  0  0
  8 10  1  1  0  0  0
 10 11  1  0  0  0  0
 11 12  1  0  0  0  0
 11 13  2  0  0  0  0
 13 14  1  0  0  0  0
 14 15  2  0  0  0  0
 15 16  1  0  0  0  0
 16 12  2  0  0  0  0
 13 17  1  0  0  0  0
 17 18  2  0  0  0  0
 18 19  1  0  0  0  0
 19 20  2  0  0  0  0
 20 14  1  0  0  0  0
 18 21  1  0  0  0  0
 21 22  1  0  0  0  0
 23 19  1  0  0  0  0
 24 25  1  0  0  0  0
 25 16  1  0  0  0  0
 17 26  1  0  0  0  0
 21 27  2  0  0  0  0
  6 28  1  1  0  0  0
  7 29  1  6  0  0  0
M  END
>  <cdx:fragmentId>
5

$$$$
