91446.cdx
  Mrv1902 05222410262D          

 32 34  0  0  0  0            999 V2000
   10.0497   -7.0428    0.0000 C   0  0  0  0  0  0  0  0  0  0  0  0
   10.7641   -7.4553    0.0000 C   0  0  0  0  0  0  0  0  0  0  0  0
    8.6207   -7.0428    0.0000 C   0  0  0  0  0  0  0  0  0  0  0  0
    9.3352   -7.4553    0.0000 C   0  0  0  0  0  0  0  0  0  0  0  0
    9.3352   -8.2803    0.0000 C   0  0  0  0  0  0  0  0  0  0  0  0
    8.6207   -8.6928    0.0000 C   0  0  0  0  0  0  0  0  0  0  0  0
    7.9063   -8.2803    0.0000 C   0  0  0  0  0  0  0  0  0  0  0  0
    7.1918   -8.6928    0.0000 C   0  0  0  0  0  0  0  0  0  0  0  0
    6.4773   -8.2803    0.0000 C   0  0  0  0  0  0  0  0  0  0  0  0
    6.4773   -7.4553    0.0000 C   0  0  0  0  0  0  0  0  0  0  0  0
    7.1918   -7.0428    0.0000 C   0  0  0  0  0  0  0  0  0  0  0  0
    7.9063   -7.4553    0.0000 C   0  0  0  0  0  0  0  0  0  0  0  0
   10.0497   -8.6928    0.0000 C   0  0  0  0  0  0  0  0  0  0  0  0
    5.7628   -8.6928    0.0000 O   0  0  0  0  0  0  0  0  0  0  0  0
    5.0484   -8.2803    0.0000 C   0  0  0  0  0  0  0  0  0  0  0  0
    7.1918   -6.2178    0.0000 O   0  0  0  0  0  0  0  0  0  0  0  0
    8.6207   -6.2178    0.0000 O   0  0  0  0  0  0  0  0  0  0  0  0
   10.0497   -6.2178    0.0000 O   0  0  0  0  0  0  0  0  0  0  0  0
    6.4773   -5.8053    0.0000 C   0  0  2  0  0  0  0  0  0  0  0  0
    6.4773   -4.9803    0.0000 O   0  0  0  0  0  0  0  0  0  0  0  0
    5.7628   -4.5678    0.0000 C   0  0  1  0  0  0  0  0  0  0  0  0
    5.0484   -4.9803    0.0000 C   0  0  2  0  0  0  0  0  0  0  0  0
    5.0484   -5.8053    0.0000 C   0  0  1  0  0  0  0  0  0  0  0  0
    5.7628   -6.2178    0.0000 C   0  0  1  0  0  0  0  0  0  0  0  0
    5.7628   -3.7428    0.0000 C   0  0  0  0  0  0  0  0  0  0  0  0
    4.3339   -6.2178    0.0000 O   0  0  0  0  0  0  0  0  0  0  0  0
    4.3339   -4.5678    0.0000 O   0  0  0  0  0  0  0  0  0  0  0  0
    5.7628   -7.0428    0.0000 O   0  0  0  0  0  0  0  0  0  0  0  0
    5.0484   -3.3303    0.0000 O   0  0  0  0  0  0  0  0  0  0  0  0
    5.0484   -2.5053    0.0000 C   0  0  0  0  0  0  0  0  0  0  0  0
    4.3339   -2.0928    0.0000 C   0  0  0  0  0  0  0  0  0  0  0  0
    5.7628   -2.0928    0.0000 O   0  0  0  0  0  0  0  0  0  0  0  0
  1  2  1  0  0  0  0
  3  4  2  0  0  0  0
  4  5  1  0  0  0  0
  5  6  2  0  0  0  0
  6  7  1  0  0  0  0
  7  8  1  0  0  0  0
  8  9  2  0  0  0  0
  9 10  1  0  0  0  0
 10 11  2  0  0  0  0
 11 12  1  0  0  0  0
  3 12  1  0  0  0  0
  7 12  2  0  0  0  0
  5 13  1  0  0  0  0
 14 15  1  0  0  0  0
  9 14  1  0  0  0  0
 11 16  1  0  0  0  0
  3 17  1  0  0  0  0
  1  4  1  0  0  0  0
  1 18  2  0  0  0  0
 19 16  1  1  0  0  0
 19 20  1  0  0  0  0
 20 21  1  0  0  0  0
 21 22  1  0  0  0  0
 22 23  1  0  0  0  0
 23 24  1  0  0  0  0
 24 19  1  0  0  0  0
 21 25  1  1  0  0  0
 23 26  1  1  0  0  0
 22 27  1  6  0  0  0
 24 28  1  6  0  0  0
 25 29  1  0  0  0  0
 29 30  1  0  0  0  0
 30 31  1  0  0  0  0
 30 32  2  0  0  0  0
M  END
>  <cdx:fragmentId>
21109

$$$$
