91445.cdx
  Mrv1902 05222410262D          

 31 34  0  0  0  0            999 V2000
    3.7931  -10.0501    0.0000 C   0  0  0  0  0  0  0  0  0  0  0  0
    3.7931  -10.8751    0.0000 C   0  0  0  0  0  0  0  0  0  0  0  0
    4.5075  -11.2876    0.0000 C   0  0  0  0  0  0  0  0  0  0  0  0
    5.2220  -10.8751    0.0000 C   0  0  0  0  0  0  0  0  0  0  0  0
    5.2220  -10.0501    0.0000 C   0  0  0  0  0  0  0  0  0  0  0  0
    4.5075   -9.6376    0.0000 O   0  0  0  0  0  0  0  0  0  0  0  0
    5.9365  -11.2876    0.0000 C   0  0  0  0  0  0  0  0  0  0  0  0
    6.6509  -10.8751    0.0000 C   0  0  0  0  0  0  0  0  0  0  0  0
    6.6509  -10.0501    0.0000 C   0  0  0  0  0  0  0  0  0  0  0  0
    5.9365   -9.6376    0.0000 C   0  0  0  0  0  0  0  0  0  0  0  0
    7.3654  -11.2876    0.0000 C   0  0  0  0  0  0  0  0  0  0  0  0
    8.0799  -10.8751    0.0000 C   0  0  0  0  0  0  0  0  0  0  0  0
    8.0799  -10.0501    0.0000 C   0  0  0  0  0  0  0  0  0  0  0  0
    7.3654   -9.6376    0.0000 O   0  0  0  0  0  0  0  0  0  0  0  0
    8.7944  -11.2876    0.0000 O   0  0  0  0  0  0  0  0  0  0  0  0
    9.5088  -10.0501    0.0000 C   0  0  0  0  0  0  0  0  0  0  0  0
    8.7944   -9.6376    0.0000 C   0  0  0  0  0  0  0  0  0  0  0  0
   10.2233   -9.6376    0.0000 C   0  0  0  0  0  0  0  0  0  0  0  0
   10.2233   -8.8126    0.0000 C   0  0  0  0  0  0  0  0  0  0  0  0
    9.5088   -8.4001    0.0000 C   0  0  0  0  0  0  0  0  0  0  0  0
    8.7944   -8.8126    0.0000 C   0  0  0  0  0  0  0  0  0  0  0  0
    5.9365  -12.1126    0.0000 O   0  0  0  0  0  0  0  0  0  0  0  0
    7.3654  -12.1126    0.0000 O   0  0  0  0  0  0  0  0  0  0  0  0
    6.6509   -8.4001    0.0000 C   0  0  0  0  0  0  0  0  0  0  0  0
    5.9365   -8.8126    0.0000 C   0  0  0  0  0  0  0  0  0  0  0  0
    6.6509   -7.5751    0.0000 C   0  0  0  0  0  0  0  0  0  0  0  0
    5.9365   -7.1626    0.0000 C   0  0  0  0  0  0  0  0  0  0  0  0
    7.3654   -7.1626    0.0000 C   0  0  0  0  0  0  0  0  0  0  0  0
    2.9962  -10.2637    0.0000 C   0  0  0  0  0  0  0  0  0  0  0  0
    3.3806   -9.3357    0.0000 C   0  0  0  0  0  0  0  0  0  0  0  0
   10.9378   -8.4001    0.0000 O   0  0  0  0  0  0  0  0  0  0  0  0
  1  2  1  0  0  0  0
  2  3  1  0  0  0  0
  3  4  1  0  0  0  0
  4  5  2  0  0  0  0
  5  6  1  0  0  0  0
  6  1  1  0  0  0  0
  4  7  1  0  0  0  0
  7  8  2  0  0  0  0
  8  9  1  0  0  0  0
  9 10  2  0  0  0  0
 10  5  1  0  0  0  0
  8 11  1  0  0  0  0
 11 12  1  0  0  0  0
 12 13  2  0  0  0  0
 13 14  1  0  0  0  0
 14  9  1  0  0  0  0
 12 15  1  0  0  0  0
 16 17  2  0  0  0  0
 17 13  1  0  0  0  0
 16 18  1  0  0  0  0
 18 19  2  0  0  0  0
 19 20  1  0  0  0  0
 20 21  2  0  0  0  0
 21 17  1  0  0  0  0
  7 22  1  0  0  0  0
 23 11  2  0  0  0  0
 24 25  1  0  0  0  0
 25 10  1  0  0  0  0
 24 26  2  0  0  0  0
 26 27  1  0  0  0  0
 26 28  1  0  0  0  0
  1 29  1  0  0  0  0
  1 30  1  0  0  0  0
 19 31  1  0  0  0  0
M  END
>  <cdx:fragmentId>
5

$$$$
