91440.cdx
  Mrv1902 05222410282D          

 64 71  0  0  0  0            999 V2000
   10.4611   -6.7727    0.0000 O   0  0  0  0  0  0  0  0  0  0  0  0
    9.7466   -5.5352    0.0000 O   0  0  0  0  0  0  0  0  0  0  0  0
    9.7466   -6.3602    0.0000 C   0  0  0  0  0  0  0  0  0  0  0  0
    8.3177   -8.8352    0.0000 O   0  0  0  0  0  0  0  0  0  0  0  0
    6.8887   -8.8352    0.0000 O   0  0  0  0  0  0  0  0  0  0  0  0
    5.4598  -10.4852    0.0000 O   0  0  0  0  0  0  0  0  0  0  0  0
    4.0309  -11.3102    0.0000 O   0  0  0  0  0  0  0  0  0  0  0  0
    2.6019  -10.4852    0.0000 O   0  0  0  0  0  0  0  0  0  0  0  0
    1.8875   -9.2477    0.0000 O   0  0  0  0  0  0  0  0  0  0  0  0
    2.6019   -8.8352    0.0000 C   0  0  0  0  0  0  0  0  0  0  0  0
    3.3164   -9.2477    0.0000 C   0  0  2  0  0  0  0  0  0  0  0  0
    3.3164  -10.0727    0.0000 C   0  0  2  0  0  0  0  0  0  0  0  0
    4.0309  -10.4852    0.0000 C   0  0  1  0  0  0  0  0  0  0  0  0
    4.7453  -10.0727    0.0000 C   0  0  2  0  0  0  0  0  0  0  0  0
    4.7453   -9.2477    0.0000 C   0  0  1  0  0  0  0  0  0  0  0  0
    4.0309   -8.8352    0.0000 O   0  0  0  0  0  0  0  0  0  0  0  0
    5.4598   -8.8352    0.0000 O   0  0  0  0  0  0  0  0  0  0  0  0
    7.6032   -6.7727    0.0000 C   0  0  0  0  0  0  0  0  0  0  0  0
    6.8887   -6.3602    0.0000 C   0  0  2  0  0  0  0  0  0  0  0  0
    6.1743   -6.7727    0.0000 C   0  0  0  0  0  0  0  0  0  0  0  0
    5.4598   -6.3602    0.0000 C   0  0  0  0  0  0  0  0  0  0  0  0
    4.7453   -6.7727    0.0000 C   0  0  0  0  0  0  0  0  0  0  0  0
    4.7453   -7.5977    0.0000 C   0  0  0  0  0  0  0  0  0  0  0  0
    5.4598   -8.0102    0.0000 C   0  0  0  0  0  0  0  0  0  0  0  0
    6.1743   -7.5977    0.0000 C   0  0  0  0  0  0  0  0  0  0  0  0
    6.8887   -8.0102    0.0000 C   0  0  0  0  0  0  0  0  0  0  0  0
    7.6032   -7.5977    0.0000 C   0  0  0  0  0  0  0  0  0  0  0  0
    8.3177   -8.0102    0.0000 C   0  0  0  0  0  0  0  0  0  0  0  0
    9.0322   -7.5977    0.0000 C   0  0  0  0  0  0  0  0  0  0  0  0
    9.0322   -6.7727    0.0000 C   0  0  0  0  0  0  0  0  0  0  0  0
    8.3177   -6.3602    0.0000 C   0  0  0  0  0  0  0  0  0  0  0  0
    5.4598   -3.0602    0.0000 O   0  0  0  0  0  0  0  0  0  0  0  0
    6.8887   -3.0602    0.0000 O   0  0  0  0  0  0  0  0  0  0  0  0
    8.3177   -1.4102    0.0000 O   0  0  0  0  0  0  0  0  0  0  0  0
    9.7466   -0.5852    0.0000 O   0  0  0  0  0  0  0  0  0  0  0  0
   11.1756   -1.4102    0.0000 O   0  0  0  0  0  0  0  0  0  0  0  0
   11.8900   -2.6477    0.0000 O   0  0  0  0  0  0  0  0  0  0  0  0
   11.1756   -3.0602    0.0000 C   0  0  0  0  0  0  0  0  0  0  0  0
   10.4611   -2.6477    0.0000 C   0  0  2  0  0  0  0  0  0  0  0  0
   10.4611   -1.8227    0.0000 C   0  0  2  0  0  0  0  0  0  0  0  0
    9.7466   -1.4102    0.0000 C   0  0  1  0  0  0  0  0  0  0  0  0
    9.0322   -1.8227    0.0000 C   0  0  2  0  0  0  0  0  0  0  0  0
    9.0322   -2.6477    0.0000 C   0  0  1  0  0  0  0  0  0  0  0  0
    9.7466   -3.0602    0.0000 O   0  0  0  0  0  0  0  0  0  0  0  0
    8.3177   -3.0602    0.0000 O   0  0  0  0  0  0  0  0  0  0  0  0
    3.3164   -5.1227    0.0000 O   0  0  0  0  0  0  0  0  0  0  0  0
    4.0309   -6.3602    0.0000 O   0  0  0  0  0  0  0  0  0  0  0  0
    4.0309   -5.5352    0.0000 C   0  0  0  0  0  0  0  0  0  0  0  0
    6.1743   -5.1227    0.0000 C   0  0  0  0  0  0  0  0  0  0  0  0
    6.8887   -5.5352    0.0000 C   0  0  1  0  0  0  0  0  0  0  0  0
    7.6032   -5.1227    0.0000 C   0  0  0  0  0  0  0  0  0  0  0  0
    8.3177   -5.5352    0.0000 C   0  0  0  0  0  0  0  0  0  0  0  0
    9.0322   -5.1227    0.0000 C   0  0  0  0  0  0  0  0  0  0  0  0
    9.0322   -4.2977    0.0000 C   0  0  0  0  0  0  0  0  0  0  0  0
    8.3177   -3.8852    0.0000 C   0  0  0  0  0  0  0  0  0  0  0  0
    7.6032   -4.2977    0.0000 C   0  0  0  0  0  0  0  0  0  0  0  0
    6.8887   -3.8852    0.0000 C   0  0  0  0  0  0  0  0  0  0  0  0
    6.1743   -4.2977    0.0000 C   0  0  0  0  0  0  0  0  0  0  0  0
    5.4598   -3.8852    0.0000 C   0  0  0  0  0  0  0  0  0  0  0  0
    4.7453   -4.2977    0.0000 C   0  0  0  0  0  0  0  0  0  0  0  0
    4.7453   -5.1227    0.0000 C   0  0  0  0  0  0  0  0  0  0  0  0
    5.4598   -5.5352    0.0000 C   0  0  0  0  0  0  0  0  0  0  0  0
    7.6032   -5.9477    0.0000 H   0  0  0  0  0  0  0  0  0  0  0  0
    6.1743   -5.9477    0.0000 H   0  0  0  0  0  0  0  0  0  0  0  0
 50 19  1  0  0  0  0
 30  3  1  0  0  0  0
  3  1  1  0  0  0  0
  3  2  2  0  0  0  0
 28  4  1  0  0  0  0
 26  5  2  0  0  0  0
 24 17  1  0  0  0  0
 15 17  1  1  0  0  0
 14  6  1  6  0  0  0
 13  7  1  1  0  0  0
 12  8  1  6  0  0  0
 11 10  1  1  0  0  0
 10  9  1  0  0  0  0
 16 11  1  0  0  0  0
 12 11  1  0  0  0  0
 13 12  1  0  0  0  0
 14 13  1  0  0  0  0
 15 14  1  0  0  0  0
 16 15  1  0  0  0  0
 31 18  2  0  0  0  0
 27 18  1  0  0  0  0
 19 18  1  0  0  0  0
 19 20  1  0  0  0  0
 25 20  2  0  0  0  0
 21 20  1  0  0  0  0
 22 21  2  0  0  0  0
 23 22  1  0  0  0  0
 24 23  2  0  0  0  0
 25 24  1  0  0  0  0
 26 25  1  0  0  0  0
 27 26  1  0  0  0  0
 28 27  2  0  0  0  0
 29 28  1  0  0  0  0
 30 29  2  0  0  0  0
 31 30  1  0  0  0  0
 59 32  1  0  0  0  0
 57 33  2  0  0  0  0
 55 45  1  0  0  0  0
 43 45  1  1  0  0  0
 42 34  1  6  0  0  0
 41 35  1  1  0  0  0
 40 36  1  6  0  0  0
 39 38  1  1  0  0  0
 38 37  1  0  0  0  0
 44 39  1  0  0  0  0
 40 39  1  0  0  0  0
 41 40  1  0  0  0  0
 42 41  1  0  0  0  0
 43 42  1  0  0  0  0
 44 43  1  0  0  0  0
 61 48  1  0  0  0  0
 48 46  1  0  0  0  0
 48 47  2  0  0  0  0
 62 49  2  0  0  0  0
 58 49  1  0  0  0  0
 50 49  1  0  0  0  0
 50 51  1  0  0  0  0
 56 51  2  0  0  0  0
 52 51  1  0  0  0  0
 53 52  2  0  0  0  0
 54 53  1  0  0  0  0
 55 54  2  0  0  0  0
 56 55  1  0  0  0  0
 57 56  1  0  0  0  0
 58 57  1  0  0  0  0
 59 58  2  0  0  0  0
 60 59  1  0  0  0  0
 61 60  2  0  0  0  0
 62 61  1  0  0  0  0
 50 63  1  6  0  0  0
 19 64  1  1  0  0  0
M  END
>  <cdx:fragmentId>
67

$$$$
