91454.cdx
  Mrv1902 05222410282D          

 12 13  0  0  0  0            999 V2000
    5.1818   -8.5651    0.0000 C   0  0  0  0  0  0  0  0  0  0  0  0
    5.1818   -9.3901    0.0000 C   0  0  0  0  0  0  0  0  0  0  0  0
    5.8963   -9.8026    0.0000 C   0  0  0  0  0  0  0  0  0  0  0  0
    6.6107   -9.3901    0.0000 C   0  0  0  0  0  0  0  0  0  0  0  0
    6.6107   -8.5651    0.0000 C   0  0  0  0  0  0  0  0  0  0  0  0
    5.8963   -8.1526    0.0000 C   0  0  0  0  0  0  0  0  0  0  0  0
    7.3252   -9.8026    0.0000 C   0  0  0  0  0  0  0  0  0  0  0  0
    8.0397   -9.3901    0.0000 C   0  0  0  0  0  0  0  0  0  0  0  0
    8.0397   -8.5651    0.0000 C   0  0  0  0  0  0  0  0  0  0  0  0
    7.3252   -8.1526    0.0000 C   0  0  0  0  0  0  0  0  0  0  0  0
    5.8963   -7.3276    0.0000 O   0  0  0  0  0  0  0  0  0  0  0  0
    6.6107   -7.7401    0.0000 C   0  0  0  0  0  0  0  0  0  0  0  0
  1  2  1  0  0  0  0
  2  3  1  0  0  0  0
  3  4  1  0  0  0  0
  4  5  1  0  0  0  0
  5  6  1  0  0  0  0
  6  1  1  0  0  0  0
  4  7  1  0  0  0  0
  7  8  1  0  0  0  0
  8  9  1  0  0  0  0
  9 10  1  0  0  0  0
 10  5  1  0  0  0  0
  6 11  2  0  0  0  0
  5 12  1  0  0  0  0
M  END
>  <cdx:fragmentId>
5

$$$$
