91457.cdx
  Mrv1902 05222410272D          

 12 13  0  0  0  0            999 V2000
    6.9977   -9.3357    0.0000 C   0  0  1  0  0  0  0  0  0  0  0  0
    7.7917   -9.5598    0.0000 C   0  0  0  0  0  0  0  0  0  0  0  0
    8.2502   -8.8739    0.0000 C   0  0  0  0  0  0  0  0  0  0  0  0
    7.7395   -8.2259    0.0000 C   0  0  2  0  0  0  0  0  0  0  0  0
    6.9655   -8.5113    0.0000 C   0  0  1  0  0  0  0  0  0  0  0  0
    6.2677   -8.9515    0.0000 C   0  0  0  0  0  0  0  0  0  0  0  0
    9.0746   -8.8416    0.0000 O   0  0  0  0  0  0  0  0  0  0  0  0
    7.2026  -10.7499    0.0000 C   0  0  0  0  0  0  0  0  0  0  0  0
    6.6919  -10.1019    0.0000 C   0  0  0  0  0  0  0  0  0  0  0  0
    5.8754  -10.2202    0.0000 C   0  0  0  0  0  0  0  0  0  0  0  0
    7.9636   -7.4319    0.0000 C   0  0  0  0  0  0  0  0  0  0  0  0
    6.6007   -7.7714    0.0000 H   0  0  0  0  0  0  0  0  0  0  0  0
  1  2  1  0  0  0  0
  2  3  1  0  0  0  0
  3  4  1  0  0  0  0
  4  5  1  0  0  0  0
  5  6  1  0  0  0  0
  1  6  1  0  0  0  0
  1  5  1  0  0  0  0
  3  7  2  0  0  0  0
  8  9  1  0  0  0  0
  9 10  1  0  0  0  0
  1  9  1  1  0  0  0
  4 11  1  6  0  0  0
  5 12  1  1  0  0  0
M  END
>  <cdx:fragmentId>
2622

$$$$
