91451.cdx
  Mrv1902 05222410262D          

  6  5  0  0  0  0            999 V2000
    5.5938   -4.0414    0.0000 C   0  0  0  0  0  0  0  0  0  0  0  0
    6.3082   -3.6289    0.0000 S   0  0  0  0  0  0  0  0  0  0  0  0
    7.0227   -4.0414    0.0000 S   0  0  0  0  0  0  0  0  0  0  0  0
    7.7372   -3.6289    0.0000 C   0  0  0  0  0  0  0  0  0  0  0  0
    8.4517   -4.0414    0.0000 C   0  0  0  0  0  0  0  0  0  0  0  0
    9.1661   -3.6289    0.0000 C   0  0  0  0  0  0  0  0  0  0  0  0
  1  2  1  0  0  0  0
  2  3  1  0  0  0  0
  3  4  1  0  0  0  0
  4  5  1  0  0  0  0
  5  6  2  0  0  0  0
M  END
>  <cdx:fragmentId>
3

$$$$
