91458.cdx
  Mrv1902 05222410182D          

 26 28  0  0  0  0            999 V2000
    6.3189   -6.8250    0.0000 O   0  0  0  0  0  0  0  0  0  0  0  0
    7.0333   -7.2375    0.0000 C   0  0  2  0  0  0  0  0  0  0  0  0
    7.0333   -8.0625    0.0000 C   0  0  1  0  0  0  0  0  0  0  0  0
    6.3189   -8.4750    0.0000 C   0  0  2  0  0  0  0  0  0  0  0  0
    5.6044   -8.0625    0.0000 C   0  0  1  0  0  0  0  0  0  0  0  0
    5.6044   -7.2375    0.0000 C   0  0  1  0  0  0  0  0  0  0  0  0
    7.7478   -8.4750    0.0000 O   0  0  0  0  0  0  0  0  0  0  0  0
    6.3189   -9.3000    0.0000 O   0  0  0  0  0  0  0  0  0  0  0  0
    4.8899   -8.4750    0.0000 O   0  0  0  0  0  0  0  0  0  0  0  0
    4.8899   -6.8250    0.0000 C   0  0  0  0  0  0  0  0  0  0  0  0
    4.1754   -7.2375    0.0000 O   0  0  0  0  0  0  0  0  0  0  0  0
    7.7478   -6.8250    0.0000 O   0  0  0  0  0  0  0  0  0  0  0  0
    7.7478   -6.0000    0.0000 C   0  0  1  0  0  0  0  0  0  0  0  0
    8.4623   -5.5875    0.0000 C   0  0  1  0  0  0  0  0  0  0  0  0
    8.4623   -4.7625    0.0000 C   0  0  1  0  0  0  0  0  0  0  0  0
    7.7478   -4.3500    0.0000 C   0  0  0  0  0  0  0  0  0  0  0  0
    7.0333   -4.7625    0.0000 C   0  0  0  0  0  0  0  0  0  0  0  0
    7.0333   -5.5875    0.0000 O   0  0  0  0  0  0  0  0  0  0  0  0
    9.2469   -4.5075    0.0000 C   0  0  1  0  0  0  0  0  0  0  0  0
    9.7318   -5.1750    0.0000 C   0  0  0  0  0  0  0  0  0  0  0  0
    9.2469   -5.8424    0.0000 C   0  0  0  0  0  0  0  0  0  0  0  0
    9.5018   -6.6270    0.0000 C   0  0  0  0  0  0  0  0  0  0  0  0
   10.3088   -6.7985    0.0000 O   0  0  0  0  0  0  0  0  0  0  0  0
    9.5018   -3.7229    0.0000 O   0  0  0  0  0  0  0  0  0  0  0  0
    8.5485   -3.9420    0.0000 H   0  0  0  0  0  0  0  0  0  0  0  0
    8.5485   -6.4079    0.0000 H   0  0  0  0  0  0  0  0  0  0  0  0
  1  2  1  0  0  0  0
  2  3  1  0  0  0  0
  3  4  1  0  0  0  0
  4  5  1  0  0  0  0
  5  6  1  0  0  0  0
  1  6  1  0  0  0  0
  3  7  1  6  0  0  0
  4  8  1  1  0  0  0
  5  9  1  6  0  0  0
 10 11  1  0  0  0  0
  6 10  1  1  0  0  0
 13 14  1  0  0  0  0
 14 15  1  0  0  0  0
 15 16  1  0  0  0  0
 16 17  2  0  0  0  0
 17 18  1  0  0  0  0
 13 18  1  0  0  0  0
 19 20  1  0  0  0  0
 20 21  2  0  0  0  0
 21 14  1  0  0  0  0
 19 15  1  0  0  0  0
 22 23  1  0  0  0  0
 21 22  1  0  0  0  0
 19 24  1  6  0  0  0
 13 12  1  6  0  0  0
  2 12  1  1  0  0  0
 15 25  1  6  0  0  0
 14 26  1  6  0  0  0
M  END
>  <cdx:fragmentId>
29

$$$$
