91469.cdx
  Mrv1902 05222410282D          

 45 48  0  0  0  0            999 V2000
    4.5065   -8.8814    0.0000 O   0  0  0  0  0  0  0  0  0  0  0  0
    9.5078   -7.6439    0.0000 O   0  0  0  0  0  0  0  0  0  0  0  0
   12.3656  -10.1189    0.0000 O   0  0  0  0  0  0  0  0  0  0  0  0
   12.3656   -8.4689    0.0000 O   0  0  0  0  0  0  0  0  0  0  0  0
    6.6499  -10.9439    0.0000 O   0  0  0  0  0  0  0  0  0  0  0  0
    5.2209   -8.4689    0.0000 C   0  0  0  0  0  0  0  0  0  0  0  0
    5.2209  -10.1189    0.0000 O   0  0  0  0  0  0  0  0  0  0  0  0
    6.6499   -8.4689    0.0000 O   0  0  0  0  0  0  0  0  0  0  0  0
    5.9354   -8.8814    0.0000 C   0  0  1  0  0  0  0  0  0  0  0  0
    5.9354   -9.7064    0.0000 C   0  0  2  0  0  0  0  0  0  0  0  0
    6.6499  -10.1189    0.0000 C   0  0  1  0  0  0  0  0  0  0  0  0
    8.0788   -8.4689    0.0000 O   0  0  0  0  0  0  0  0  0  0  0  0
    7.3644   -8.8814    0.0000 C   0  0  1  0  0  0  0  0  0  0  0  0
    7.3644   -9.7064    0.0000 C   0  0  2  0  0  0  0  0  0  0  0  0
    8.0788  -10.1189    0.0000 O   0  0  0  0  0  0  0  0  0  0  0  0
    9.5078   -8.4689    0.0000 C   0  0  2  0  0  0  0  0  0  0  0  0
    8.7933   -8.8814    0.0000 C   0  0  0  0  0  0  0  0  0  0  0  0
   10.9367   -8.4689    0.0000 C   0  0  0  0  0  0  0  0  0  0  0  0
   10.2222   -8.8814    0.0000 C   0  0  0  0  0  0  0  0  0  0  0  0
   10.2222   -9.7064    0.0000 C   0  0  0  0  0  0  0  0  0  0  0  0
   10.9367  -10.1189    0.0000 C   0  0  0  0  0  0  0  0  0  0  0  0
   11.6512   -9.7064    0.0000 C   0  0  0  0  0  0  0  0  0  0  0  0
   11.6512   -8.8814    0.0000 C   0  0  0  0  0  0  0  0  0  0  0  0
    5.2211  -10.9439    0.0000 C   0  0  0  0  0  0  0  0  0  0  0  0
    4.5067  -11.3566    0.0000 C   0  0  0  0  0  0  0  0  0  0  0  0
    5.9357  -11.3562    0.0000 O   0  0  0  0  0  0  0  0  0  0  0  0
    4.5069  -12.1816    0.0000 C   0  0  0  0  0  0  0  0  0  0  0  0
    3.7926  -12.5942    0.0000 C   0  0  0  0  0  0  0  0  0  0  0  0
    3.0780  -12.1819    0.0000 C   0  0  0  0  0  0  0  0  0  0  0  0
    2.3636  -12.5945    0.0000 C   0  0  0  0  0  0  0  0  0  0  0  0
    2.3638  -13.4195    0.0000 C   0  0  0  0  0  0  0  0  0  0  0  0
    3.0784  -13.8319    0.0000 C   0  0  0  0  0  0  0  0  0  0  0  0
    3.7927  -13.4192    0.0000 C   0  0  0  0  0  0  0  0  0  0  0  0
    1.6494  -13.8322    0.0000 O   0  0  0  0  0  0  0  0  0  0  0  0
    7.0796  -11.6481    0.0000 C   0  0  2  0  0  0  0  0  0  0  0  0
    6.6846  -12.3724    0.0000 O   0  0  0  0  0  0  0  0  0  0  0  0
    7.1144  -13.0766    0.0000 C   0  0  2  0  0  0  0  0  0  0  0  0
    7.9391  -13.0566    0.0000 C   0  0  1  0  0  0  0  0  0  0  0  0
    8.3341  -12.3323    0.0000 C   0  0  2  0  0  0  0  0  0  0  0  0
    7.9044  -11.6281    0.0000 C   0  0  1  0  0  0  0  0  0  0  0  0
    8.3689  -13.7608    0.0000 O   0  0  0  0  0  0  0  0  0  0  0  0
    6.7194  -13.8009    0.0000 C   0  0  0  0  0  0  0  0  0  0  0  0
    9.1589  -12.3122    0.0000 O   0  0  0  0  0  0  0  0  0  0  0  0
    8.2994  -10.9038    0.0000 O   0  0  0  0  0  0  0  0  0  0  0  0
   10.2222   -7.2314    0.0000 C   0  0  0  0  0  0  0  0  0  0  0  0
  6  1  1  0  0  0  0
 16  2  1  1  0  0  0
 22  3  1  0  0  0  0
 23  4  1  0  0  0  0
 11  5  1  1  0  0  0
  9  6  1  1  0  0  0
 10  7  1  6  0  0  0
  8 13  1  0  0  0  0
  9  8  1  0  0  0  0
 10  9  1  0  0  0  0
 11 10  1  0  0  0  0
 14 11  1  0  0  0  0
 12 17  1  0  0  0  0
 13 12  1  1  0  0  0
 14 13  1  0  0  0  0
 14 15  1  6  0  0  0
 16 19  1  0  0  0  0
 17 16  1  0  0  0  0
 18 23  1  0  0  0  0
 19 18  2  0  0  0  0
 20 19  1  0  0  0  0
 21 20  2  0  0  0  0
 22 21  1  0  0  0  0
 23 22  2  0  0  0  0
  7 24  1  0  0  0  0
 24 25  1  0  0  0  0
 24 26  2  0  0  0  0
 25 27  2  0  0  0  0
 27 28  1  0  0  0  0
 28 29  2  0  0  0  0
 29 30  1  0  0  0  0
 30 31  2  0  0  0  0
 31 32  1  0  0  0  0
 32 33  2  0  0  0  0
 33 28  1  0  0  0  0
 31 34  1  0  0  0  0
 35  5  1  1  0  0  0
 35 36  1  0  0  0  0
 36 37  1  0  0  0  0
 37 38  1  0  0  0  0
 38 39  1  0  0  0  0
 39 40  1  0  0  0  0
 40 35  1  0  0  0  0
 38 41  1  1  0  0  0
 37 42  1  6  0  0  0
 39 43  1  6  0  0  0
 40 44  1  6  0  0  0
  2 45  1  0  0  0  0
M  END
>  <cdx:fragmentId>
423

$$$$
