91461.cdx
  Mrv1902 05222410202D          

 23 24  0  0  0  0            999 V2000
    3.2981   -6.3789    0.0000 C   0  0  0  0  0  0  0  0  0  0  0  0
    3.2981   -7.2039    0.0000 C   0  0  0  0  0  0  0  0  0  0  0  0
    4.0125   -7.6164    0.0000 C   0  0  0  0  0  0  0  0  0  0  0  0
    4.7270   -7.2039    0.0000 C   0  0  0  0  0  0  0  0  0  0  0  0
    4.7270   -6.3789    0.0000 C   0  0  0  0  0  0  0  0  0  0  0  0
    4.0125   -5.9664    0.0000 C   0  0  0  0  0  0  0  0  0  0  0  0
    5.4415   -7.6164    0.0000 C   0  0  0  0  0  0  0  0  0  0  0  0
    6.1559   -7.2039    0.0000 C   0  0  0  0  0  0  0  0  0  0  0  0
    6.8704   -7.6164    0.0000 C   0  0  0  0  0  0  0  0  0  0  0  0
    7.5849   -7.2039    0.0000 O   0  0  0  0  0  0  0  0  0  0  0  0
    8.2994   -7.6164    0.0000 C   0  0  0  0  0  0  0  0  0  0  0  0
    9.0138   -7.2039    0.0000 C   0  0  0  0  0  0  0  0  0  0  0  0
    9.0138   -6.3789    0.0000 O   0  0  0  0  0  0  0  0  0  0  0  0
    8.2994   -8.4414    0.0000 C   0  0  0  0  0  0  0  0  0  0  0  0
    9.0138   -8.8539    0.0000 C   0  0  0  0  0  0  0  0  0  0  0  0
    9.7283   -8.4414    0.0000 C   0  0  0  0  0  0  0  0  0  0  0  0
    9.7283   -7.6164    0.0000 C   0  0  0  0  0  0  0  0  0  0  0  0
   10.4428   -8.8539    0.0000 C   0  0  0  0  0  0  0  0  0  0  0  0
   11.1572   -8.4414    0.0000 O   0  0  0  0  0  0  0  0  0  0  0  0
    2.5836   -5.9664    0.0000 O   0  0  0  0  0  0  0  0  0  0  0  0
    2.5836   -7.6164    0.0000 O   0  0  0  0  0  0  0  0  0  0  0  0
    6.8704   -8.4414    0.0000 O   0  0  0  0  0  0  0  0  0  0  0  0
   10.4428   -9.6789    0.0000 O   0  0  0  0  0  0  0  0  0  0  0  0
  1  2  2  0  0  0  0
  2  3  1  0  0  0  0
  3  4  2  0  0  0  0
  4  5  1  0  0  0  0
  5  6  2  0  0  0  0
  6  1  1  0  0  0  0
  4  7  1  0  0  0  0
  7  8  2  0  0  0  0
  8  9  1  0  0  0  0
  9 10  1  0  0  0  0
 10 11  1  0  0  0  0
 11 12  1  0  0  0  0
 12 13  1  0  0  0  0
 11 14  2  0  0  0  0
 14 15  1  0  0  0  0
 15 16  2  0  0  0  0
 16 17  1  0  0  0  0
 17 12  2  0  0  0  0
 16 18  1  0  0  0  0
 18 19  2  0  0  0  0
  1 20  1  0  0  0  0
  2 21  1  0  0  0  0
  9 22  2  0  0  0  0
 18 23  1  0  0  0  0
M  END
>  <cdx:fragmentId>
5

$$$$
