91462.cdx
  Mrv1902 05222410192D          

 25 24  0  0  0  0            999 V2000
    2.0572   -9.0273    0.0000 Si  0  0  0  0  0  0  0  0  0  0  0  0
    2.6288   -8.6973    0.0000 O   0  0  0  0  0  0  0  0  0  0  0  0
    3.2004   -9.0273    0.0000 C   0  0  0  0  0  0  0  0  0  0  0  0
    3.7720   -8.6973    0.0000 C   0  0  0  0  0  0  0  0  0  0  0  0
    4.3435   -9.0273    0.0000 C   0  0  0  0  0  0  0  0  0  0  0  0
    4.9151   -8.6973    0.0000 C   0  0  0  0  0  0  0  0  0  0  0  0
    5.4867   -9.0273    0.0000 C   0  0  0  0  0  0  0  0  0  0  0  0
    6.0583   -8.6973    0.0000 C   0  0  0  0  0  0  0  0  0  0  0  0
    6.6299   -9.0273    0.0000 C   0  0  0  0  0  0  0  0  0  0  0  0
    7.2014   -8.6973    0.0000 C   0  0  0  0  0  0  0  0  0  0  0  0
    7.7730   -9.0273    0.0000 C   0  0  0  0  0  0  0  0  0  0  0  0
    8.3446   -8.6973    0.0000 C   0  0  0  0  0  0  0  0  0  0  0  0
    8.9162   -9.0273    0.0000 C   0  0  0  0  0  0  0  0  0  0  0  0
    9.4877   -8.6973    0.0000 C   0  0  0  0  0  0  0  0  0  0  0  0
   10.0593   -9.0273    0.0000 C   0  0  0  0  0  0  0  0  0  0  0  0
   10.6309   -8.6973    0.0000 C   0  0  0  0  0  0  0  0  0  0  0  0
   11.2025   -9.0273    0.0000 C   0  0  0  0  0  0  0  0  0  0  0  0
   11.7740   -8.6973    0.0000 C   0  0  0  0  0  0  0  0  0  0  0  0
   12.3456   -9.0273    0.0000 C   0  0  0  0  0  0  0  0  0  0  0  0
   12.9172   -8.6973    0.0000 C   0  0  0  0  0  0  0  0  0  0  0  0
   13.4888   -9.0273    0.0000 C   0  0  0  0  0  0  0  0  0  0  0  0
    3.2004   -9.6873    0.0000 O   0  0  0  0  0  0  0  0  0  0  0  0
    1.4857   -9.3573    0.0000 C   0  0  0  0  0  0  0  0  0  0  0  0
    1.7272   -8.4557    0.0000 C   0  0  0  0  0  0  0  0  0  0  0  0
    2.3872   -9.5988    0.0000 C   0  0  0  0  0  0  0  0  0  0  0  0
  1  2  1  0  0  0  0
  2  3  1  0  0  0  0
  3  4  1  0  0  0  0
  4  5  1  0  0  0  0
  5  6  1  0  0  0  0
  6  7  1  0  0  0  0
  7  8  1  0  0  0  0
  8  9  1  0  0  0  0
  9 10  1  0  0  0  0
 10 11  1  0  0  0  0
 11 12  1  0  0  0  0
 12 13  1  0  0  0  0
 13 14  1  0  0  0  0
 14 15  1  0  0  0  0
 15 16  1  0  0  0  0
 16 17  1  0  0  0  0
 17 18  1  0  0  0  0
 18 19  1  0  0  0  0
 19 20  1  0  0  0  0
 20 21  1  0  0  0  0
  3 22  2  0  0  0  0
  1 23  1  0  0  0  0
  1 24  1  0  0  0  0
  1 25  1  0  0  0  0
M  END
>  <cdx:fragmentId>
3

$$$$
