91466.cdx
  Mrv1902 05222410192D          

 22 25  0  0  0  0            999 V2000
    7.1666   -9.0271    0.0000 C   0  0  1  0  0  0  0  0  0  0  0  0
    6.4526   -9.4403    0.0000 C   0  0  1  0  0  0  0  0  0  0  0  0
    5.7379   -9.0280    0.0000 C   0  0  0  0  0  0  0  0  0  0  0  0
    5.0236   -9.4408    0.0000 C   0  0  0  0  0  0  0  0  0  0  0  0
    5.0239  -10.2658    0.0000 C   0  0  0  0  0  0  0  0  0  0  0  0
    5.7385  -10.6780    0.0000 C   0  0  0  0  0  0  0  0  0  0  0  0
    6.4528  -10.2653    0.0000 N   0  0  0  0  0  0  0  0  0  0  0  0
    7.1672  -10.6780    0.0000 C   0  0  0  0  0  0  0  0  0  0  0  0
    7.8811  -10.2646    0.0000 C   0  0  2  0  0  0  0  0  0  0  0  0
    8.5956  -10.6771    0.0000 C   0  0  0  0  0  0  0  0  0  0  0  0
    9.3100  -10.2646    0.0000 C   0  0  0  0  0  0  0  0  0  0  0  0
    9.3100   -9.4396    0.0000 C   0  0  0  0  0  0  0  0  0  0  0  0
    8.5956   -9.0271    0.0000 N   0  0  0  0  0  0  0  0  0  0  0  0
    8.5956   -8.2021    0.0000 C   0  0  0  0  0  0  0  0  0  0  0  0
    7.8811   -7.7896    0.0000 C   0  0  0  0  0  0  0  0  0  0  0  0
    7.1666   -8.2021    0.0000 C   0  0  0  0  0  0  0  0  0  0  0  0
    7.8811   -9.4396    0.0000 C   0  0  2  0  0  0  0  0  0  0  0  0
    5.7385  -11.5030    0.0000 O   0  0  0  0  0  0  0  0  0  0  0  0
    7.1666   -9.8521    0.0000 H   0  0  0  0  0  0  0  0  0  0  0  0
    6.4526   -8.6153    0.0000 H   0  0  0  0  0  0  0  0  0  0  0  0
    7.8811  -11.0896    0.0000 H   0  0  0  0  0  0  0  0  0  0  0  0
    7.8811   -8.6146    0.0000 H   0  0  0  0  0  0  0  0  0  0  0  0
  1  2  1  0  0  0  0
  2  3  1  0  0  0  0
  3  4  1  0  0  0  0
  4  5  1  0  0  0  0
  5  6  1  0  0  0  0
  6  7  1  0  0  0  0
  7  8  1  0  0  0  0
  8  9  1  0  0  0  0
  9 10  1  0  0  0  0
 10 11  1  0  0  0  0
 11 12  1  0  0  0  0
 12 13  1  0  0  0  0
 13 14  1  0  0  0  0
 14 15  1  0  0  0  0
 15 16  1  0  0  0  0
  1 16  1  0  0  0  0
  1 17  1  0  0  0  0
  9 17  1  0  0  0  0
  2  7  1  0  0  0  0
 13 17  1  0  0  0  0
  6 18  2  0  0  0  0
  1 19  1  6  0  0  0
  2 20  1  1  0  0  0
  9 21  1  6  0  0  0
 17 22  1  6  0  0  0
M  END
>  <cdx:fragmentId>
8284

$$$$
