91460.cdx
  Mrv1902 05222410202D          

 34 37  0  0  0  0            999 V2000
    2.1018   -9.5414    0.0000 C   0  0  0  0  0  0  0  0  0  0  0  0
    2.1018  -10.3664    0.0000 C   0  0  0  0  0  0  0  0  0  0  0  0
    2.8163  -10.7789    0.0000 C   0  0  0  0  0  0  0  0  0  0  0  0
    3.5307  -10.3664    0.0000 C   0  0  0  0  0  0  0  0  0  0  0  0
    3.5307   -9.5414    0.0000 C   0  0  0  0  0  0  0  0  0  0  0  0
    2.8163   -9.1289    0.0000 C   0  0  0  0  0  0  0  0  0  0  0  0
    2.8163  -11.6039    0.0000 O   0  0  0  0  0  0  0  0  0  0  0  0
    4.2452  -11.6039    0.0000 O   0  0  0  0  0  0  0  0  0  0  0  0
    4.2452  -10.7789    0.0000 C   0  0  0  0  0  0  0  0  0  0  0  0
    4.9597  -10.3664    0.0000 C   0  0  0  0  0  0  0  0  0  0  0  0
    4.9597   -9.5414    0.0000 C   0  0  0  0  0  0  0  0  0  0  0  0
    4.2452   -9.1289    0.0000 O   0  0  0  0  0  0  0  0  0  0  0  0
    6.3886   -9.5414    0.0000 C   0  0  0  0  0  0  0  0  0  0  0  0
    5.6742   -9.1289    0.0000 C   0  0  0  0  0  0  0  0  0  0  0  0
    7.1031   -9.1289    0.0000 C   0  0  0  0  0  0  0  0  0  0  0  0
    7.1031   -8.3039    0.0000 C   0  0  0  0  0  0  0  0  0  0  0  0
    6.3886   -7.8914    0.0000 C   0  0  0  0  0  0  0  0  0  0  0  0
    5.6742   -8.3039    0.0000 C   0  0  0  0  0  0  0  0  0  0  0  0
    7.8176   -9.5414    0.0000 O   0  0  0  0  0  0  0  0  0  0  0  0
    8.5320   -8.3039    0.0000 C   0  0  0  0  0  0  0  0  0  0  0  0
    7.8176   -7.8914    0.0000 O   0  0  0  0  0  0  0  0  0  0  0  0
    8.5320   -9.9539    0.0000 C   0  0  2  0  0  0  0  0  0  0  0  0
    8.5320  -10.7789    0.0000 O   0  0  0  0  0  0  0  0  0  0  0  0
    9.2465  -11.1914    0.0000 C   0  0  1  0  0  0  0  0  0  0  0  0
    9.9610  -10.7789    0.0000 C   0  0  2  0  0  0  0  0  0  0  0  0
    9.9610   -9.9539    0.0000 C   0  0  1  0  0  0  0  0  0  0  0  0
    9.2465   -9.5414    0.0000 C   0  0  1  0  0  0  0  0  0  0  0  0
   10.6755   -9.5414    0.0000 O   0  0  0  0  0  0  0  0  0  0  0  0
    9.2465  -12.0164    0.0000 C   0  0  0  0  0  0  0  0  0  0  0  0
    9.2465   -8.7164    0.0000 O   0  0  0  0  0  0  0  0  0  0  0  0
   10.6755  -11.1914    0.0000 O   0  0  0  0  0  0  0  0  0  0  0  0
    9.9610  -12.4289    0.0000 O   0  0  0  0  0  0  0  0  0  0  0  0
    1.3873   -9.1289    0.0000 O   0  0  0  0  0  0  0  0  0  0  0  0
    6.3886   -7.0664    0.0000 O   0  0  0  0  0  0  0  0  0  0  0  0
  1  2  2  0  0  0  0
  2  3  1  0  0  0  0
  3  4  2  0  0  0  0
  4  5  1  0  0  0  0
  5  6  2  0  0  0  0
  6  1  1  0  0  0  0
  3  7  1  0  0  0  0
  8  9  2  0  0  0  0
  9  4  1  0  0  0  0
  9 10  1  0  0  0  0
 10 11  2  0  0  0  0
 11 12  1  0  0  0  0
 12  5  1  0  0  0  0
 13 14  2  0  0  0  0
 14 11  1  0  0  0  0
 13 15  1  0  0  0  0
 15 16  2  0  0  0  0
 16 17  1  0  0  0  0
 17 18  2  0  0  0  0
 18 14  1  0  0  0  0
 15 19  1  0  0  0  0
 20 21  1  0  0  0  0
 21 16  1  0  0  0  0
 22 19  1  1  0  0  0
 22 23  1  0  0  0  0
 23 24  1  0  0  0  0
 24 25  1  0  0  0  0
 25 26  1  0  0  0  0
 26 27  1  0  0  0  0
 27 22  1  0  0  0  0
 26 28  1  1  0  0  0
 24 29  1  1  0  0  0
 27 30  1  6  0  0  0
 25 31  1  6  0  0  0
 29 32  1  0  0  0  0
  1 33  1  0  0  0  0
 17 34  1  0  0  0  0
M  END
>  <cdx:fragmentId>
5

$$$$
