91477.cdx
  Mrv1902 05222410202D          

 32 35  0  0  0  0            999 V2000
    4.7775   -7.9380    0.0000 C   0  0  0  0  0  0  0  0  0  0  0  0
    4.0631   -8.3505    0.0000 C   0  0  0  0  0  0  0  0  0  0  0  0
    4.0631   -9.1755    0.0000 C   0  0  0  0  0  0  0  0  0  0  0  0
    4.7775   -9.5880    0.0000 C   0  0  0  0  0  0  0  0  0  0  0  0
    5.4920   -9.1755    0.0000 C   0  0  0  0  0  0  0  0  0  0  0  0
    6.2065   -9.5880    0.0000 C   0  0  0  0  0  0  0  0  0  0  0  0
    6.9210   -9.1755    0.0000 C   0  0  0  0  0  0  0  0  0  0  0  0
    6.9210   -8.3505    0.0000 C   0  0  1  0  0  0  0  0  0  0  0  0
    7.6354   -7.9380    0.0000 C   0  0  2  0  0  0  0  0  0  0  0  0
    8.4201   -8.1929    0.0000 C   0  0  0  0  0  0  0  0  0  0  0  0
    8.9050   -7.5255    0.0000 C   0  0  0  0  0  0  0  0  0  0  0  0
    8.4201   -6.8580    0.0000 C   0  0  1  0  0  0  0  0  0  0  0  0
    7.6354   -7.1130    0.0000 C   0  0  1  0  0  0  0  0  0  0  0  0
    6.9210   -6.7005    0.0000 C   0  0  0  0  0  0  0  0  0  0  0  0
    6.2065   -7.1130    0.0000 C   0  0  0  0  0  0  0  0  0  0  0  0
    6.2065   -7.9380    0.0000 C   0  0  2  0  0  0  0  0  0  0  0  0
    5.4920   -8.3505    0.0000 C   0  0  1  0  0  0  0  0  0  0  0  0
    3.3486   -9.5880    0.0000 O   0  0  0  0  0  0  0  0  0  0  0  0
    8.0916   -5.4900    0.0000 C   0  0  0  0  0  0  0  0  0  0  0  0
    8.6750   -6.0734    0.0000 C   0  0  2  0  0  0  0  0  0  0  0  0
    9.4820   -5.9019    0.0000 C   0  0  0  0  0  0  0  0  0  0  0  0
    9.7369   -5.1173    0.0000 C   0  0  0  0  0  0  0  0  0  0  0  0
   10.5439   -4.9457    0.0000 C   0  0  0  0  0  0  0  0  0  0  0  0
   10.7988   -4.1611    0.0000 C   0  0  0  0  0  0  0  0  0  0  0  0
   10.2155   -3.5778    0.0000 C   0  0  0  0  0  0  0  0  0  0  0  0
   11.6058   -3.9896    0.0000 C   0  0  0  0  0  0  0  0  0  0  0  0
    7.6354   -6.3469    0.0000 C   0  0  0  0  0  0  0  0  0  0  0  0
    5.4920   -7.5255    0.0000 C   0  0  0  0  0  0  0  0  0  0  0  0
    6.9210   -7.5255    0.0000 H   0  0  0  0  0  0  0  0  0  0  0  0
    6.2065   -8.7630    0.0000 H   0  0  0  0  0  0  0  0  0  0  0  0
    7.6354   -8.7630    0.0000 H   0  0  0  0  0  0  0  0  0  0  0  0
    9.2047   -6.6031    0.0000 H   0  0  0  0  0  0  0  0  0  0  0  0
  1  2  1  0  0  0  0
  2  3  1  0  0  0  0
  3  4  1  0  0  0  0
  4  5  2  0  0  0  0
  5  6  1  0  0  0  0
  6  7  1  0  0  0  0
  7  8  1  0  0  0  0
  8  9  1  0  0  0  0
  9 10  1  0  0  0  0
 10 11  1  0  0  0  0
 12 11  1  0  0  0  0
 12 13  1  0  0  0  0
  9 13  1  0  0  0  0
 13 14  1  0  0  0  0
 14 15  1  0  0  0  0
 15 16  1  0  0  0  0
  8 16  1  0  0  0  0
 16 17  1  0  0  0  0
  5 17  1  0  0  0  0
  1 17  1  0  0  0  0
  3 18  2  0  0  0  0
 20 19  1  6  0  0  0
 20 21  1  0  0  0  0
 21 22  1  0  0  0  0
 22 23  1  0  0  0  0
 23 24  1  0  0  0  0
 24 25  1  0  0  0  0
 24 26  1  0  0  0  0
 12 20  1  0  0  0  0
 13 27  1  1  0  0  0
 17 28  1  1  0  0  0
  8 29  1  1  0  0  0
 16 30  1  6  0  0  0
  9 31  1  6  0  0  0
 12 32  1  6  0  0  0
M  END
>  <cdx:groupId>
98

>  <cdx:fragmentId>
5

$$$$
