914766.cdx
  Mrv1902 05222410222D          

 25 28  0  0  0  0            999 V2000
    7.7763   -9.6151    0.0000 C   0  0  2  0  0  0  0  0  0  0  0  0
    7.7807  -10.4401    0.0000 C   0  0  0  0  0  0  0  0  0  0  0  0
    7.0684  -10.8564    0.0000 C   0  0  0  0  0  0  0  0  0  0  0  0
    6.3518  -10.4477    0.0000 C   0  0  0  0  0  0  0  0  0  0  0  0
    5.6395  -10.8640    0.0000 C   0  0  0  0  0  0  0  0  0  0  0  0
    4.9229  -10.4553    0.0000 C   0  0  0  0  0  0  0  0  0  0  0  0
    4.9185   -9.6303    0.0000 C   0  0  0  0  0  0  0  0  0  0  0  0
    5.6307   -9.2140    0.0000 C   0  0  0  0  0  0  0  0  0  0  0  0
    6.3474   -9.6227    0.0000 C   0  0  0  0  0  0  0  0  0  0  0  0
    7.0596   -9.2064    0.0000 O   0  0  0  0  0  0  0  0  0  0  0  0
    5.6263   -8.3890    0.0000 C   0  0  0  0  0  0  0  0  0  0  0  0
    4.9097   -7.9803    0.0000 C   0  0  0  0  0  0  0  0  0  0  0  0
    4.1974   -8.3966    0.0000 C   0  0  0  0  0  0  0  0  0  0  0  0
    4.2018   -9.2216    0.0000 O   0  0  0  0  0  0  0  0  0  0  0  0
    7.0728  -11.6814    0.0000 O   0  0  0  0  0  0  0  0  0  0  0  0
    3.3724   -8.4010    0.0000 C   0  0  0  0  0  0  0  0  0  0  0  0
    3.7811   -7.6844    0.0000 C   0  0  0  0  0  0  0  0  0  0  0  0
    8.4886   -9.1988    0.0000 C   0  0  0  0  0  0  0  0  0  0  0  0
    8.4842   -8.3738    0.0000 C   0  0  0  0  0  0  0  0  0  0  0  0
    9.1964   -7.9575    0.0000 C   0  0  0  0  0  0  0  0  0  0  0  0
    9.9131   -8.3662    0.0000 C   0  0  0  0  0  0  0  0  0  0  0  0
    9.9175   -9.1912    0.0000 C   0  0  0  0  0  0  0  0  0  0  0  0
    9.2052   -9.6075    0.0000 C   0  0  0  0  0  0  0  0  0  0  0  0
   10.6254   -7.9499    0.0000 O   0  0  0  0  0  0  0  0  0  0  0  0
    4.9053   -7.1553    0.0000 O   0  0  0  0  0  0  0  0  0  0  0  0
  1  2  1  0  0  0  0
  2  3  1  0  0  0  0
  3  4  1  0  0  0  0
  4  5  1  0  0  0  0
  5  6  2  0  0  0  0
  6  7  1  0  0  0  0
  7  8  2  0  0  0  0
  8  9  1  0  0  0  0
  4  9  2  0  0  0  0
  9 10  1  0  0  0  0
  1 10  1  0  0  0  0
 11 12  1  0  0  0  0
 12 13  1  0  0  0  0
 13 14  1  0  0  0  0
 14  7  1  0  0  0  0
 11  8  1  0  0  0  0
  3 15  2  0  0  0  0
 13 16  1  0  0  0  0
 13 17  1  0  0  0  0
 18 19  1  0  0  0  0
 19 20  2  0  0  0  0
 20 21  1  0  0  0  0
 21 22  2  0  0  0  0
 22 23  1  0  0  0  0
 18 23  2  0  0  0  0
 21 24  1  0  0  0  0
  1 18  1  6  0  0  0
 12 25  1  0  0  0  0
M  END
>  <cdx:groupId>
63059

>  <cdx:fragmentId>
62984

$$$$
