91470.cdx
  Mrv1902 05222410182D          

 17 17  0  0  0  0            999 V2000
    5.2805   -6.2150    0.0000 C   0  0  0  0  0  0  0  0  0  0  0  0
    5.2805   -7.0400    0.0000 C   0  0  0  0  0  0  0  0  0  0  0  0
    5.9950   -7.4525    0.0000 C   0  0  0  0  0  0  0  0  0  0  0  0
    6.7095   -7.0400    0.0000 C   0  0  0  0  0  0  0  0  0  0  0  0
    6.7095   -6.2150    0.0000 C   0  0  0  0  0  0  0  0  0  0  0  0
    5.9950   -5.8025    0.0000 C   0  0  0  0  0  0  0  0  0  0  0  0
    7.4239   -7.4525    0.0000 C   0  0  0  0  0  0  0  0  0  0  0  0
    8.1384   -7.0400    0.0000 C   0  0  0  0  0  0  0  0  0  0  0  0
    8.1384   -6.2150    0.0000 C   0  0  0  0  0  0  0  0  0  0  0  0
    7.4239   -5.8025    0.0000 C   0  0  0  0  0  0  0  0  0  0  0  0
    8.8529   -7.4525    0.0000 C   0  0  0  0  0  0  0  0  0  0  0  0
    9.5674   -7.0400    0.0000 C   0  0  0  0  0  0  0  0  0  0  0  0
    8.8529   -8.2775    0.0000 C   0  0  0  0  0  0  0  0  0  0  0  0
    5.9950   -8.2775    0.0000 C   0  0  0  0  0  0  0  0  0  0  0  0
    5.9950   -4.9775    0.0000 H   0  0  0  0  0  0  0  0  0  0  0  0
    7.1220   -6.3255    0.0000 H   0  0  0  0  0  0  0  0  0  0  0  0
    7.1220   -6.9295    0.0000 C   0  0  0  0  0  0  0  0  0  0  0  0
  1  2  1  0  0  0  0
  2  3  1  0  0  0  0
  3  4  2  0  0  0  0
  5  6  2  0  0  0  0
  6  1  1  0  0  0  0
  4  7  1  0  0  0  0
  7  8  1  0  0  0  0
  8  9  1  0  0  0  0
  9 10  1  0  0  0  0
 10  5  1  0  0  0  0
  8 11  2  0  0  0  0
 11 12  1  0  0  0  0
 11 13  1  0  0  0  0
  3 14  1  0  0  0  0
  6 15  1  0  0  0  0
  4 16  1  0  0  0  0
 17  5  1  0  0  0  0
M  END
>  <cdx:fragmentId>
128

$$$$
