91472.cdx
  Mrv1902 05222410192D          

 33 37  0  0  0  0            999 V2000
    8.1219   -9.5546    0.0000 C   0  0  0  0  0  0  0  0  0  0  0  0
    7.4083   -8.3186    0.0000 C   0  0  0  0  0  0  0  0  0  0  0  0
    5.2640   -8.7356    0.0000 C   0  0  0  0  0  0  0  0  0  0  0  0
    4.5504   -9.1497    0.0000 C   0  0  0  0  0  0  0  0  0  0  0  0
    4.5522   -9.9747    0.0000 C   0  0  0  0  0  0  0  0  0  0  0  0
    5.2675  -10.3856    0.0000 C   0  0  1  0  0  0  0  0  0  0  0  0
    5.9811   -9.9716    0.0000 C   0  0  1  0  0  0  0  0  0  0  0  0
    6.6964  -10.3826    0.0000 C   0  0  0  0  0  0  0  0  0  0  0  0
    7.4100   -9.9686    0.0000 C   0  0  0  0  0  0  0  0  0  0  0  0
    7.4083   -9.1436    0.0000 C   0  0  1  0  0  0  0  0  0  0  0  0
    8.1219   -8.7296    0.0000 C   0  0  2  0  0  0  0  0  0  0  0  0
    8.8372   -9.1406    0.0000 C   0  0  0  0  0  0  0  0  0  0  0  0
    9.5508   -8.7266    0.0000 C   0  0  0  0  0  0  0  0  0  0  0  0
    9.5491   -7.9016    0.0000 C   0  0  1  0  0  0  0  0  0  0  0  0
   10.2627   -7.4875    0.0000 C   0  0  0  0  0  0  0  0  0  0  0  0
   10.2609   -6.6625    0.0000 C   0  0  0  0  0  0  0  0  0  0  0  0
    9.5456   -6.2516    0.0000 C   0  0  0  0  0  0  0  0  0  0  0  0
    8.8320   -6.6656    0.0000 C   0  0  0  0  0  0  0  0  0  0  0  0
    8.8337   -7.4906    0.0000 C   0  0  1  0  0  0  0  0  0  0  0  0
    8.1201   -7.9046    0.0000 C   0  0  0  0  0  0  0  0  0  0  0  0
    7.4048   -7.4936    0.0000 C   0  0  0  0  0  0  0  0  0  0  0  0
    6.6912   -7.9076    0.0000 C   0  0  0  0  0  0  0  0  0  0  0  0
    6.6929   -8.7326    0.0000 C   0  0  1  0  0  0  0  0  0  0  0  0
    5.9793   -9.1466    0.0000 C   0  0  1  0  0  0  0  0  0  0  0  0
    3.8386  -10.3887    0.0000 O   0  0  0  0  0  0  0  0  0  0  0  0
    6.6947   -9.5576    0.0000 C   0  0  0  0  0  0  0  0  0  0  0  0
    9.1315   -5.5380    0.0000 C   0  0  0  0  0  0  0  0  0  0  0  0
    9.9565   -5.5362    0.0000 C   0  0  0  0  0  0  0  0  0  0  0  0
   10.2644   -8.3125    0.0000 C   0  0  0  0  0  0  0  0  0  0  0  0
    5.9828  -10.7966    0.0000 C   0  0  0  0  0  0  0  0  0  0  0  0
    5.2692  -11.2106    0.0000 C   0  0  0  0  0  0  0  0  0  0  0  0
    8.8355   -8.3156    0.0000 H   0  0  0  0  0  0  0  0  0  0  0  0
    5.9776   -8.3216    0.0000 H   0  0  0  0  0  0  0  0  0  0  0  0
 11  1  1  1  0  0  0
 10  2  1  6  0  0  0
  3  4  1  0  0  0  0
  4  5  1  0  0  0  0
  5  6  1  0  0  0  0
  6  7  1  0  0  0  0
  7  8  1  0  0  0  0
  8  9  1  0  0  0  0
  9 10  1  0  0  0  0
 10 11  1  0  0  0  0
 11 12  1  0  0  0  0
 12 13  1  0  0  0  0
 13 14  1  0  0  0  0
 14 15  1  0  0  0  0
 15 16  1  0  0  0  0
 16 17  1  0  0  0  0
 17 18  1  0  0  0  0
 18 19  1  0  0  0  0
 14 19  1  0  0  0  0
 19 20  1  0  0  0  0
 11 20  1  0  0  0  0
 20 21  1  0  0  0  0
 21 22  1  0  0  0  0
 22 23  1  0  0  0  0
 10 23  1  0  0  0  0
 23 24  1  0  0  0  0
  7 24  1  0  0  0  0
  3 24  1  0  0  0  0
  5 25  2  0  0  0  0
 23 26  1  1  0  0  0
 17 27  1  0  0  0  0
 17 28  1  0  0  0  0
 14 29  1  1  0  0  0
  7 30  1  1  0  0  0
  6 31  1  1  0  0  0
 19 32  1  1  0  0  0
 24 33  1  1  0  0  0
M  END
>  <cdx:fragmentId>
5

$$$$
