91478.cdx
  Mrv1902 05222410262D          

 32 35  0  0  0  0            999 V2000
    3.4768   -6.8876    0.0000 C   0  0  0  0  0  0  0  0  0  0  0  0
    3.4768   -7.7126    0.0000 C   0  0  0  0  0  0  0  0  0  0  0  0
    4.1913   -8.1251    0.0000 C   0  0  0  0  0  0  0  0  0  0  0  0
    4.9057   -7.7126    0.0000 C   0  0  0  0  0  0  0  0  0  0  0  0
    4.9057   -6.8876    0.0000 C   0  0  0  0  0  0  0  0  0  0  0  0
    4.1913   -6.4751    0.0000 C   0  0  0  0  0  0  0  0  0  0  0  0
    5.6202   -8.1251    0.0000 C   0  0  0  0  0  0  0  0  0  0  0  0
    6.3347   -7.7126    0.0000 C   0  0  0  0  0  0  0  0  0  0  0  0
    6.3347   -6.8876    0.0000 C   0  0  0  0  0  0  0  0  0  0  0  0
    5.6202   -6.4751    0.0000 O   0  0  0  0  0  0  0  0  0  0  0  0
    4.1913   -8.9501    0.0000 O   0  0  0  0  0  0  0  0  0  0  0  0
    5.6202   -8.9501    0.0000 O   0  0  0  0  0  0  0  0  0  0  0  0
    6.3347   -9.3626    0.0000 O   0  0  0  0  0  0  0  0  0  0  0  0
    7.0492   -8.9501    0.0000 C   0  0  0  0  0  0  0  0  0  0  0  0
    7.0492   -8.1251    0.0000 O   0  0  0  0  0  0  0  0  0  0  0  0
    7.7636   -6.8876    0.0000 C   0  0  0  0  0  0  0  0  0  0  0  0
    7.0492   -6.4751    0.0000 C   0  0  0  0  0  0  0  0  0  0  0  0
    8.4781   -6.4751    0.0000 C   0  0  0  0  0  0  0  0  0  0  0  0
    8.4781   -5.6501    0.0000 C   0  0  0  0  0  0  0  0  0  0  0  0
    7.7636   -5.2376    0.0000 C   0  0  0  0  0  0  0  0  0  0  0  0
    7.0492   -5.6501    0.0000 C   0  0  0  0  0  0  0  0  0  0  0  0
    6.3347  -10.1876    0.0000 C   0  0  0  0  0  0  0  0  0  0  0  0
    7.0492  -10.6001    0.0000 C   0  0  0  0  0  0  0  0  0  0  0  0
    7.7636  -10.1876    0.0000 C   0  0  0  0  0  0  0  0  0  0  0  0
    7.7636   -9.3626    0.0000 C   0  0  0  0  0  0  0  0  0  0  0  0
    7.7636   -4.4126    0.0000 O   0  0  0  0  0  0  0  0  0  0  0  0
    9.1926   -5.2376    0.0000 O   0  0  0  0  0  0  0  0  0  0  0  0
    2.7623   -6.4751    0.0000 O   0  0  0  0  0  0  0  0  0  0  0  0
    5.6202  -10.6001    0.0000 C   0  0  0  0  0  0  0  0  0  0  0  0
    7.0492  -11.4251    0.0000 O   0  0  0  0  0  0  0  0  0  0  0  0
    8.4781  -10.6001    0.0000 O   0  0  0  0  0  0  0  0  0  0  0  0
    8.4781   -8.9501    0.0000 O   0  0  0  0  0  0  0  0  0  0  0  0
  1  2  2  0  0  0  0
  2  3  1  0  0  0  0
  3  4  2  0  0  0  0
  4  5  1  0  0  0  0
  5  6  2  0  0  0  0
  6  1  1  0  0  0  0
  4  7  1  0  0  0  0
  7  8  1  0  0  0  0
  8  9  2  0  0  0  0
  9 10  1  0  0  0  0
 10  5  1  0  0  0  0
  3 11  1  0  0  0  0
 12  7  2  0  0  0  0
 13 14  1  0  0  0  0
 14 15  1  0  0  0  0
 15  8  1  0  0  0  0
 16 17  1  0  0  0  0
 17  9  1  0  0  0  0
 16 18  2  0  0  0  0
 18 19  1  0  0  0  0
 19 20  2  0  0  0  0
 20 21  1  0  0  0  0
 21 17  2  0  0  0  0
 13 22  1  0  0  0  0
 22 23  1  0  0  0  0
 23 24  1  0  0  0  0
 24 25  1  0  0  0  0
 25 14  1  0  0  0  0
 20 26  1  0  0  0  0
 19 27  1  0  0  0  0
  1 28  1  0  0  0  0
 22 29  1  0  0  0  0
 23 30  1  0  0  0  0
 24 31  1  0  0  0  0
 25 32  1  0  0  0  0
M  END
>  <cdx:fragmentId>
5

$$$$
