91479.cdx
  Mrv1902 05222410262D          

 53 58  0  0  0  0            999 V2000
    1.8799   -9.3311    0.0000 C   0  0  2  0  0  0  0  0  0  0  0  0
    2.5927   -9.7465    0.0000 C   0  0  2  0  0  0  0  0  0  0  0  0
    3.3088   -9.3370    0.0000 C   0  0  2  0  0  0  0  0  0  0  0  0
    3.3122   -8.5120    0.0000 C   0  0  1  0  0  0  0  0  0  0  0  0
    2.5995   -8.0966    0.0000 O   0  0  0  0  0  0  0  0  0  0  0  0
    1.8833   -8.5061    0.0000 C   0  0  1  0  0  0  0  0  0  0  0  0
    4.0216   -9.7524    0.0000 O   0  0  0  0  0  0  0  0  0  0  0  0
    4.7378   -9.3429    0.0000 C   0  0  0  0  0  0  0  0  0  0  0  0
    4.7412   -8.5179    0.0000 C   0  0  0  0  0  0  0  0  0  0  0  0
    4.0284   -8.1024    0.0000 O   0  0  0  0  0  0  0  0  0  0  0  0
    5.4505   -9.7583    0.0000 C   0  0  0  0  0  0  0  0  0  0  0  0
    6.1667   -9.3488    0.0000 C   0  0  0  0  0  0  0  0  0  0  0  0
    6.1701   -8.5238    0.0000 C   0  0  0  0  0  0  0  0  0  0  0  0
    5.4573   -8.1083    0.0000 C   0  0  0  0  0  0  0  0  0  0  0  0
    6.8795   -9.7642    0.0000 C   0  0  0  0  0  0  0  0  0  0  0  0
    7.5956   -9.3546    0.0000 C   0  0  0  0  0  0  0  0  0  0  0  0
    7.5990   -8.5297    0.0000 C   0  0  0  0  0  0  0  0  0  0  0  0
    6.8863   -8.1142    0.0000 O   0  0  0  0  0  0  0  0  0  0  0  0
    8.3084   -9.7701    0.0000 O   0  0  0  0  0  0  0  0  0  0  0  0
    9.0280   -8.5355    0.0000 C   0  0  0  0  0  0  0  0  0  0  0  0
    8.3152   -8.1201    0.0000 C   0  0  0  0  0  0  0  0  0  0  0  0
    9.7441   -8.1260    0.0000 C   0  0  0  0  0  0  0  0  0  0  0  0
    9.7475   -7.3010    0.0000 C   0  0  0  0  0  0  0  0  0  0  0  0
    9.0348   -6.8856    0.0000 C   0  0  0  0  0  0  0  0  0  0  0  0
    8.3186   -7.2951    0.0000 C   0  0  0  0  0  0  0  0  0  0  0  0
    8.3050  -10.5951    0.0000 C   0  0  1  0  0  0  0  0  0  0  0  0
    9.0178  -11.0105    0.0000 C   0  0  2  0  0  0  0  0  0  0  0  0
    9.7339  -10.6010    0.0000 O   0  0  0  0  0  0  0  0  0  0  0  0
    9.0144  -11.8355    0.0000 C   0  0  1  0  0  0  0  0  0  0  0  0
    9.7271  -12.2510    0.0000 O   0  0  0  0  0  0  0  0  0  0  0  0
   10.4433  -11.8414    0.0000 O   0  0  0  0  0  0  0  0  0  0  0  0
   10.4467  -11.0164    0.0000 C   0  0  2  0  0  0  0  0  0  0  0  0
    8.2982  -12.2451    0.0000 C   0  0  2  0  0  0  0  0  0  0  0  0
    8.2948  -13.0701    0.0000 O   0  0  0  0  0  0  0  0  0  0  0  0
   11.1561  -12.2568    0.0000 C   0  0  2  0  0  0  0  0  0  0  0  0
   11.8722  -11.8473    0.0000 C   0  0  1  0  0  0  0  0  0  0  0  0
   11.8756  -11.0223    0.0000 C   0  0  2  0  0  0  0  0  0  0  0  0
   11.1628  -10.6069    0.0000 C   0  0  1  0  0  0  0  0  0  0  0  0
   12.5850  -12.2627    0.0000 O   0  0  0  0  0  0  0  0  0  0  0  0
   12.5918  -10.6127    0.0000 O   0  0  0  0  0  0  0  0  0  0  0  0
    7.5888  -11.0046    0.0000 O   0  0  0  0  0  0  0  0  0  0  0  0
    7.5854  -11.8296    0.0000 C   0  0  2  0  0  0  0  0  0  0  0  0
    1.1705   -8.0907    0.0000 C   0  0  0  0  0  0  0  0  0  0  0  0
    5.4471  -10.5833    0.0000 O   0  0  0  0  0  0  0  0  0  0  0  0
    6.8761  -10.5892    0.0000 O   0  0  0  0  0  0  0  0  0  0  0  0
    9.0382   -6.0606    0.0000 O   0  0  0  0  0  0  0  0  0  0  0  0
   10.4637   -6.8914    0.0000 O   0  0  0  0  0  0  0  0  0  0  0  0
    6.8693  -12.2392    0.0000 C   0  0  0  0  0  0  0  0  0  0  0  0
    6.8659  -13.0642    0.0000 O   0  0  0  0  0  0  0  0  0  0  0  0
   11.1527  -13.0818    0.0000 C   0  0  0  0  0  0  0  0  0  0  0  0
    1.1637   -9.7406    0.0000 O   0  0  0  0  0  0  0  0  0  0  0  0
    2.5893  -10.5715    0.0000 O   0  0  0  0  0  0  0  0  0  0  0  0
   11.1662   -9.7819    0.0000 O   0  0  0  0  0  0  0  0  0  0  0  0
  1  2  1  0  0  0  0
  2  3  1  0  0  0  0
  3  4  1  0  0  0  0
  4  5  1  0  0  0  0
  5  6  1  0  0  0  0
  6  1  1  0  0  0  0
  3  7  1  6  0  0  0
  8  9  2  0  0  0  0
  9 10  1  0  0  0  0
  4 10  1  1  0  0  0
  8 11  1  0  0  0  0
 11 12  2  0  0  0  0
 12 13  1  0  0  0  0
 13 14  2  0  0  0  0
 14  9  1  0  0  0  0
 12 15  1  0  0  0  0
 15 16  1  0  0  0  0
 16 17  2  0  0  0  0
 17 18  1  0  0  0  0
 18 13  1  0  0  0  0
 16 19  1  0  0  0  0
 20 21  1  0  0  0  0
 21 17  1  0  0  0  0
 20 22  2  0  0  0  0
 22 23  1  0  0  0  0
 23 24  2  0  0  0  0
 24 25  1  0  0  0  0
 25 21  2  0  0  0  0
 26 19  1  1  0  0  0
 26 27  1  0  0  0  0
 27 28  1  6  0  0  0
 27 29  1  0  0  0  0
 29 30  1  1  0  0  0
 31 32  1  0  0  0  0
 32 28  1  1  0  0  0
 29 33  1  0  0  0  0
 33 34  1  6  0  0  0
 31 35  1  0  0  0  0
 35 36  1  0  0  0  0
 36 37  1  0  0  0  0
 37 38  1  0  0  0  0
 38 32  1  0  0  0  0
 36 39  1  1  0  0  0
 37 40  1  6  0  0  0
 26 41  1  0  0  0  0
 41 42  1  0  0  0  0
 42 33  1  0  0  0  0
  6 43  1  6  0  0  0
 11 44  1  0  0  0  0
 15 45  2  0  0  0  0
 24 46  1  0  0  0  0
 23 47  1  0  0  0  0
 42 48  1  1  0  0  0
 48 49  1  0  0  0  0
 35 50  1  6  0  0  0
  1 51  1  1  0  0  0
  2 52  1  6  0  0  0
 38 53  1  6  0  0  0
M  END
>  <cdx:fragmentId>
5

$$$$
