91481.cdx
  Mrv1902 05222410272D          

 55 60  0  0  0  0            999 V2000
    2.6243   -6.8051    0.0000 C   0  0  0  0  0  0  0  0  0  0  0  0
    2.6243   -7.6301    0.0000 C   0  0  0  0  0  0  0  0  0  0  0  0
    3.3388   -8.0426    0.0000 C   0  0  0  0  0  0  0  0  0  0  0  0
    4.0532   -7.6301    0.0000 C   0  0  0  0  0  0  0  0  0  0  0  0
    4.0532   -6.8051    0.0000 C   0  0  0  0  0  0  0  0  0  0  0  0
    3.3388   -6.3926    0.0000 C   0  0  0  0  0  0  0  0  0  0  0  0
    4.7677   -8.0426    0.0000 C   0  0  0  0  0  0  0  0  0  0  0  0
    5.4822   -7.6301    0.0000 C   0  0  0  0  0  0  0  0  0  0  0  0
    5.4822   -6.8051    0.0000 C   0  0  0  0  0  0  0  0  0  0  0  0
    4.7677   -6.3926    0.0000 O   0  0  0  0  0  0  0  0  0  0  0  0
    6.1967   -8.0426    0.0000 O   0  0  0  0  0  0  0  0  0  0  0  0
    6.9111   -6.8051    0.0000 C   0  0  0  0  0  0  0  0  0  0  0  0
    6.1967   -6.3926    0.0000 C   0  0  0  0  0  0  0  0  0  0  0  0
    7.6256   -6.3926    0.0000 C   0  0  0  0  0  0  0  0  0  0  0  0
    7.6256   -5.5676    0.0000 C   0  0  0  0  0  0  0  0  0  0  0  0
    6.9111   -5.1551    0.0000 C   0  0  0  0  0  0  0  0  0  0  0  0
    6.1967   -5.5676    0.0000 C   0  0  0  0  0  0  0  0  0  0  0  0
    3.3388   -8.8676    0.0000 O   0  0  0  0  0  0  0  0  0  0  0  0
    4.7677   -8.8676    0.0000 O   0  0  0  0  0  0  0  0  0  0  0  0
    5.4822   -9.2801    0.0000 O   0  0  0  0  0  0  0  0  0  0  0  0
    6.1967   -8.8676    0.0000 C   0  0  2  0  0  0  0  0  0  0  0  0
    5.4822  -10.1051    0.0000 C   0  0  2  0  0  0  0  0  0  0  0  0
    6.1967  -10.5176    0.0000 C   0  0  1  0  0  0  0  0  0  0  0  0
    6.9111  -10.1051    0.0000 C   0  0  2  0  0  0  0  0  0  0  0  0
    6.9111   -9.2801    0.0000 C   0  0  1  0  0  0  0  0  0  0  0  0
    7.6256  -10.5176    0.0000 O   0  0  0  0  0  0  0  0  0  0  0  0
    8.3401  -10.1051    0.0000 O   0  0  0  0  0  0  0  0  0  0  0  0
    8.3401   -9.2801    0.0000 C   0  0  1  0  0  0  0  0  0  0  0  0
    7.6256   -8.8676    0.0000 O   0  0  0  0  0  0  0  0  0  0  0  0
    9.0545  -10.5176    0.0000 C   0  0  1  0  0  0  0  0  0  0  0  0
    9.7690  -10.1051    0.0000 C   0  0  2  0  0  0  0  0  0  0  0  0
    9.7690   -9.2801    0.0000 C   0  0  1  0  0  0  0  0  0  0  0  0
    9.0545   -8.8676    0.0000 C   0  0  1  0  0  0  0  0  0  0  0  0
    9.0545  -11.3426    0.0000 C   0  0  0  0  0  0  0  0  0  0  0  0
    9.7690  -11.7551    0.0000 O   0  0  0  0  0  0  0  0  0  0  0  0
   10.4835  -10.5176    0.0000 O   0  0  0  0  0  0  0  0  0  0  0  0
    8.3401  -12.5801    0.0000 C   0  0  0  0  0  0  0  0  0  0  0  0
    9.0545  -12.9926    0.0000 C   0  0  0  0  0  0  0  0  0  0  0  0
    9.7690  -12.5801    0.0000 C   0  0  0  0  0  0  0  0  0  0  0  0
    7.6256  -12.9926    0.0000 C   0  0  0  0  0  0  0  0  0  0  0  0
    7.6256  -13.8176    0.0000 C   0  0  0  0  0  0  0  0  0  0  0  0
    6.9111  -12.5801    0.0000 C   0  0  0  0  0  0  0  0  0  0  0  0
    6.1967  -12.9926    0.0000 C   0  0  0  0  0  0  0  0  0  0  0  0
    6.1967  -13.8176    0.0000 C   0  0  0  0  0  0  0  0  0  0  0  0
    6.9111  -14.2301    0.0000 C   0  0  0  0  0  0  0  0  0  0  0  0
    8.3401   -5.1551    0.0000 O   0  0  0  0  0  0  0  0  0  0  0  0
    1.9098   -6.3926    0.0000 O   0  0  0  0  0  0  0  0  0  0  0  0
   10.4835  -12.9926    0.0000 O   0  0  0  0  0  0  0  0  0  0  0  0
    5.4822  -12.5801    0.0000 O   0  0  0  0  0  0  0  0  0  0  0  0
    5.4822  -14.2301    0.0000 O   0  0  0  0  0  0  0  0  0  0  0  0
    6.1967  -11.3426    0.0000 O   0  0  0  0  0  0  0  0  0  0  0  0
   10.4835   -8.8676    0.0000 O   0  0  0  0  0  0  0  0  0  0  0  0
    4.7677  -10.5176    0.0000 C   0  0  0  0  0  0  0  0  0  0  0  0
    9.0545   -8.0426    0.0000 O   0  0  0  0  0  0  0  0  0  0  0  0
    6.9111   -4.3301    0.0000 O   0  0  0  0  0  0  0  0  0  0  0  0
  1  2  2  0  0  0  0
  2  3  1  0  0  0  0
  3  4  2  0  0  0  0
  4  5  1  0  0  0  0
  5  6  2  0  0  0  0
  6  1  1  0  0  0  0
  4  7  1  0  0  0  0
  7  8  1  0  0  0  0
  8  9  2  0  0  0  0
  9 10  1  0  0  0  0
 10  5  1  0  0  0  0
  8 11  1  0  0  0  0
 12 13  2  0  0  0  0
 13  9  1  0  0  0  0
 12 14  1  0  0  0  0
 14 15  2  0  0  0  0
 15 16  1  0  0  0  0
 16 17  2  0  0  0  0
 17 13  1  0  0  0  0
  3 18  1  0  0  0  0
 19  7  2  0  0  0  0
 20 21  1  0  0  0  0
 21 11  1  1  0  0  0
 20 22  1  0  0  0  0
 22 23  1  0  0  0  0
 23 24  1  0  0  0  0
 24 25  1  0  0  0  0
 25 21  1  0  0  0  0
 24 26  1  6  0  0  0
 27 28  1  0  0  0  0
 28 29  1  1  0  0  0
 25 29  1  6  0  0  0
 27 30  1  0  0  0  0
 30 31  1  0  0  0  0
 31 32  1  0  0  0  0
 32 33  1  0  0  0  0
 33 28  1  0  0  0  0
 30 34  1  1  0  0  0
 34 35  1  0  0  0  0
 31 36  1  6  0  0  0
 37 38  2  0  0  0  0
 38 39  1  0  0  0  0
 39 35  1  0  0  0  0
 37 40  1  0  0  0  0
 40 41  1  0  0  0  0
 40 42  2  0  0  0  0
 42 43  1  0  0  0  0
 43 44  2  0  0  0  0
 44 45  1  0  0  0  0
 45 41  2  0  0  0  0
 15 46  1  0  0  0  0
  1 47  1  0  0  0  0
 39 48  2  0  0  0  0
 43 49  1  0  0  0  0
 44 50  1  0  0  0  0
 23 51  1  1  0  0  0
 32 52  1  1  0  0  0
 22 53  1  6  0  0  0
 33 54  1  6  0  0  0
 16 55  1  0  0  0  0
M  END
>  <cdx:fragmentId>
5

$$$$
