91485.cdx
  Mrv1902 05222410262D          

 44 48  0  0  0  0            999 V2000
    6.3918   -8.1939    0.0000 C   0  0  0  0  0  0  0  0  0  0  0  0
    6.3918   -9.0189    0.0000 C   0  0  0  0  0  0  0  0  0  0  0  0
    7.1063   -9.4314    0.0000 C   0  0  0  0  0  0  0  0  0  0  0  0
    7.8207   -9.0189    0.0000 C   0  0  0  0  0  0  0  0  0  0  0  0
    7.8207   -8.1939    0.0000 C   0  0  0  0  0  0  0  0  0  0  0  0
    7.1063   -7.7814    0.0000 C   0  0  0  0  0  0  0  0  0  0  0  0
    8.5352   -9.4314    0.0000 C   0  0  0  0  0  0  0  0  0  0  0  0
    9.2497   -9.0189    0.0000 C   0  0  0  0  0  0  0  0  0  0  0  0
    9.2497   -8.1939    0.0000 C   0  0  0  0  0  0  0  0  0  0  0  0
    8.5352   -7.7814    0.0000 O   0  0  0  0  0  0  0  0  0  0  0  0
    9.9642   -9.4314    0.0000 O   0  0  0  0  0  0  0  0  0  0  0  0
   10.6786   -8.1939    0.0000 C   0  0  0  0  0  0  0  0  0  0  0  0
    9.9642   -7.7814    0.0000 C   0  0  0  0  0  0  0  0  0  0  0  0
   11.3931   -7.7814    0.0000 C   0  0  0  0  0  0  0  0  0  0  0  0
   11.3931   -6.9564    0.0000 C   0  0  0  0  0  0  0  0  0  0  0  0
   10.6786   -6.5439    0.0000 C   0  0  0  0  0  0  0  0  0  0  0  0
    9.9642   -6.9564    0.0000 C   0  0  0  0  0  0  0  0  0  0  0  0
    5.6773   -7.7814    0.0000 O   0  0  0  0  0  0  0  0  0  0  0  0
    7.1063  -10.2564    0.0000 O   0  0  0  0  0  0  0  0  0  0  0  0
    8.5352  -10.2564    0.0000 O   0  0  0  0  0  0  0  0  0  0  0  0
   12.1076   -6.5439    0.0000 O   0  0  0  0  0  0  0  0  0  0  0  0
   10.6786   -5.7189    0.0000 O   0  0  0  0  0  0  0  0  0  0  0  0
    4.9629   -8.1939    0.0000 C   0  0  2  0  0  0  0  0  0  0  0  0
    4.2484   -7.7814    0.0000 O   0  0  0  0  0  0  0  0  0  0  0  0
    3.5339   -8.1939    0.0000 C   0  0  1  0  0  0  0  0  0  0  0  0
    3.5339   -9.0189    0.0000 C   0  0  2  0  0  0  0  0  0  0  0  0
    4.2484   -9.4314    0.0000 C   0  0  1  0  0  0  0  0  0  0  0  0
    4.9629   -9.0189    0.0000 C   0  0  1  0  0  0  0  0  0  0  0  0
    2.8194   -7.7814    0.0000 C   0  0  0  0  0  0  0  0  0  0  0  0
    4.2484  -10.2564    0.0000 O   0  0  0  0  0  0  0  0  0  0  0  0
    2.1050   -8.1939    0.0000 O   0  0  0  0  0  0  0  0  0  0  0  0
    2.8194   -9.4314    0.0000 O   0  0  0  0  0  0  0  0  0  0  0  0
    5.6773   -9.4314    0.0000 O   0  0  0  0  0  0  0  0  0  0  0  0
    7.0971  -11.0791    0.0000 C   0  0  2  0  0  0  0  0  0  0  0  0
    6.3835  -11.4932    0.0000 O   0  0  0  0  0  0  0  0  0  0  0  0
    6.3853  -12.3182    0.0000 C   0  0  1  0  0  0  0  0  0  0  0  0
    7.1007  -12.7291    0.0000 C   0  0  2  0  0  0  0  0  0  0  0  0
    7.8143  -12.3151    0.0000 C   0  0  1  0  0  0  0  0  0  0  0  0
    7.8125  -11.4901    0.0000 C   0  0  1  0  0  0  0  0  0  0  0  0
    5.6717  -12.7322    0.0000 C   0  0  0  0  0  0  0  0  0  0  0  0
    8.5296  -12.7260    0.0000 O   0  0  0  0  0  0  0  0  0  0  0  0
    5.6735  -13.5572    0.0000 O   0  0  0  0  0  0  0  0  0  0  0  0
    7.1025  -13.5541    0.0000 O   0  0  0  0  0  0  0  0  0  0  0  0
    8.5260  -11.0760    0.0000 O   0  0  0  0  0  0  0  0  0  0  0  0
  1  2  1  0  0  0  0
  2  3  2  0  0  0  0
  3  4  1  0  0  0  0
  4  5  2  0  0  0  0
  5  6  1  0  0  0  0
  6  1  2  0  0  0  0
  4  7  1  0  0  0  0
  7  8  1  0  0  0  0
  8  9  2  0  0  0  0
  9 10  1  0  0  0  0
 10  5  1  0  0  0  0
  8 11  1  0  0  0  0
 12 13  2  0  0  0  0
 13  9  1  0  0  0  0
 12 14  1  0  0  0  0
 14 15  2  0  0  0  0
 15 16  1  0  0  0  0
 16 17  2  0  0  0  0
 17 13  1  0  0  0  0
  1 18  1  0  0  0  0
  3 19  1  0  0  0  0
  7 20  2  0  0  0  0
 15 21  1  0  0  0  0
 16 22  1  0  0  0  0
 23 18  1  1  0  0  0
 23 24  1  0  0  0  0
 24 25  1  0  0  0  0
 25 26  1  0  0  0  0
 26 27  1  0  0  0  0
 27 28  1  0  0  0  0
 28 23  1  0  0  0  0
 25 29  1  1  0  0  0
 27 30  1  1  0  0  0
 29 31  1  0  0  0  0
 26 32  1  6  0  0  0
 28 33  1  6  0  0  0
 34 35  1  0  0  0  0
 35 36  1  0  0  0  0
 36 37  1  0  0  0  0
 37 38  1  0  0  0  0
 38 39  1  0  0  0  0
 39 34  1  0  0  0  0
 36 40  1  1  0  0  0
 38 41  1  1  0  0  0
 40 42  1  0  0  0  0
 37 43  1  6  0  0  0
 39 44  1  6  0  0  0
 34 19  1  1  0  0  0
M  END
>  <cdx:fragmentId>
5

$$$$
