91483.cdx
  Mrv1902 05222410282D          

 55 60  0  0  0  0            999 V2000
    8.0418   -8.7714    0.0000 C   0  0  0  0  0  0  0  0  0  0  0  0
    8.0418   -9.5964    0.0000 C   0  0  0  0  0  0  0  0  0  0  0  0
    8.7563  -10.0089    0.0000 C   0  0  0  0  0  0  0  0  0  0  0  0
    9.4707   -9.5964    0.0000 C   0  0  0  0  0  0  0  0  0  0  0  0
    9.4707   -8.7714    0.0000 C   0  0  0  0  0  0  0  0  0  0  0  0
    8.7563   -8.3589    0.0000 C   0  0  0  0  0  0  0  0  0  0  0  0
   10.1852  -10.0089    0.0000 C   0  0  0  0  0  0  0  0  0  0  0  0
   10.8997   -9.5964    0.0000 C   0  0  0  0  0  0  0  0  0  0  0  0
   10.8997   -8.7714    0.0000 C   0  0  0  0  0  0  0  0  0  0  0  0
   10.1852   -8.3589    0.0000 O   0  0  0  0  0  0  0  0  0  0  0  0
    8.7563  -10.8339    0.0000 O   0  0  0  0  0  0  0  0  0  0  0  0
   10.1852  -10.8339    0.0000 O   0  0  0  0  0  0  0  0  0  0  0  0
   11.6142  -10.0089    0.0000 O   0  0  0  0  0  0  0  0  0  0  0  0
   12.3286   -8.7714    0.0000 C   0  0  0  0  0  0  0  0  0  0  0  0
   11.6142   -8.3589    0.0000 C   0  0  0  0  0  0  0  0  0  0  0  0
   13.0431   -8.3589    0.0000 C   0  0  0  0  0  0  0  0  0  0  0  0
   13.0431   -7.5339    0.0000 C   0  0  0  0  0  0  0  0  0  0  0  0
   12.3286   -7.1214    0.0000 C   0  0  0  0  0  0  0  0  0  0  0  0
   11.6142   -7.5339    0.0000 C   0  0  0  0  0  0  0  0  0  0  0  0
   11.6142  -10.8339    0.0000 C   0  0  2  0  0  0  0  0  0  0  0  0
   10.8997  -11.2464    0.0000 O   0  0  0  0  0  0  0  0  0  0  0  0
   10.8997  -12.0714    0.0000 C   0  0  1  0  0  0  0  0  0  0  0  0
   11.6142  -12.4839    0.0000 C   0  0  2  0  0  0  0  0  0  0  0  0
   12.3286  -12.0714    0.0000 C   0  0  1  0  0  0  0  0  0  0  0  0
   12.3286  -11.2464    0.0000 C   0  0  1  0  0  0  0  0  0  0  0  0
   10.1852  -12.4839    0.0000 C   0  0  0  0  0  0  0  0  0  0  0  0
   11.6142  -13.3089    0.0000 O   0  0  0  0  0  0  0  0  0  0  0  0
   13.0431  -12.4839    0.0000 O   0  0  0  0  0  0  0  0  0  0  0  0
   13.0431  -10.8339    0.0000 O   0  0  0  0  0  0  0  0  0  0  0  0
   10.1852  -13.3089    0.0000 O   0  0  0  0  0  0  0  0  0  0  0  0
    7.3273   -8.3589    0.0000 O   0  0  0  0  0  0  0  0  0  0  0  0
   13.7576   -7.1214    0.0000 O   0  0  0  0  0  0  0  0  0  0  0  0
   12.3286   -6.2964    0.0000 O   0  0  0  0  0  0  0  0  0  0  0  0
    5.9021   -8.3414    0.0000 O   0  0  0  0  0  0  0  0  0  0  0  0
    5.1861   -8.7512    0.0000 C   0  0  1  0  0  0  0  0  0  0  0  0
    5.1830   -9.5762    0.0000 C   0  0  2  0  0  0  0  0  0  0  0  0
    5.8959   -9.9914    0.0000 C   0  0  1  0  0  0  0  0  0  0  0  0
    6.6119   -9.5816    0.0000 C   0  0  2  0  0  0  0  0  0  0  0  0
    6.6150   -8.7566    0.0000 C   0  0  2  0  0  0  0  0  0  0  0  0
    4.4732   -8.3360    0.0000 C   0  0  0  0  0  0  0  0  0  0  0  0
    3.7572   -8.7458    0.0000 O   0  0  0  0  0  0  0  0  0  0  0  0
    4.4670   -9.9860    0.0000 O   0  0  0  0  0  0  0  0  0  0  0  0
    3.0474   -7.5056    0.0000 O   0  0  0  0  0  0  0  0  0  0  0  0
    3.0443   -8.3306    0.0000 C   0  0  2  0  0  0  0  0  0  0  0  0
    2.3345   -7.0904    0.0000 C   0  0  1  0  0  0  0  0  0  0  0  0
    1.6185   -7.5002    0.0000 C   0  0  2  0  0  0  0  0  0  0  0  0
    1.6153   -8.3252    0.0000 C   0  0  1  0  0  0  0  0  0  0  0  0
    2.3282   -8.7404    0.0000 C   0  0  1  0  0  0  0  0  0  0  0  0
    5.8928  -10.8164    0.0000 O   0  0  0  0  0  0  0  0  0  0  0  0
    2.3376   -6.2654    0.0000 C   0  0  0  0  0  0  0  0  0  0  0  0
    0.8993   -8.7350    0.0000 O   0  0  0  0  0  0  0  0  0  0  0  0
    7.3248   -9.9968    0.0000 O   0  0  0  0  0  0  0  0  0  0  0  0
    2.3251   -9.5654    0.0000 O   0  0  0  0  0  0  0  0  0  0  0  0
    0.9055   -7.0850    0.0000 O   0  0  0  0  0  0  0  0  0  0  0  0
    1.6247   -5.8502    0.0000 O   0  0  0  0  0  0  0  0  0  0  0  0
  1  2  2  0  0  0  0
  2  3  1  0  0  0  0
  3  4  2  0  0  0  0
  4  5  1  0  0  0  0
  5  6  2  0  0  0  0
  6  1  1  0  0  0  0
  4  7  1  0  0  0  0
  7  8  1  0  0  0  0
  8  9  2  0  0  0  0
  9 10  1  0  0  0  0
 10  5  1  0  0  0  0
  3 11  1  0  0  0  0
 12  7  2  0  0  0  0
  8 13  1  0  0  0  0
 14 15  2  0  0  0  0
 15  9  1  0  0  0  0
 14 16  1  0  0  0  0
 16 17  2  0  0  0  0
 17 18  1  0  0  0  0
 18 19  2  0  0  0  0
 19 15  1  0  0  0  0
 20 13  1  1  0  0  0
 20 21  1  0  0  0  0
 21 22  1  0  0  0  0
 22 23  1  0  0  0  0
 23 24  1  0  0  0  0
 24 25  1  0  0  0  0
 25 20  1  0  0  0  0
 22 26  1  1  0  0  0
 23 27  1  6  0  0  0
 24 28  1  1  0  0  0
 25 29  1  6  0  0  0
 26 30  1  0  0  0  0
  1 31  1  0  0  0  0
 17 32  1  0  0  0  0
 18 33  1  0  0  0  0
 34 35  1  0  0  0  0
 35 36  1  0  0  0  0
 36 37  1  0  0  0  0
 37 38  1  0  0  0  0
 38 39  1  0  0  0  0
 39 34  1  0  0  0  0
 35 40  1  1  0  0  0
 40 41  1  0  0  0  0
 36 42  1  6  0  0  0
 43 44  1  0  0  0  0
 44 41  1  1  0  0  0
 43 45  1  0  0  0  0
 45 46  1  0  0  0  0
 46 47  1  0  0  0  0
 47 48  1  0  0  0  0
 48 44  1  0  0  0  0
 37 49  1  1  0  0  0
 45 50  1  1  0  0  0
 47 51  1  1  0  0  0
 38 52  1  6  0  0  0
 48 53  1  6  0  0  0
 46 54  1  6  0  0  0
 50 55  1  0  0  0  0
 39 31  1  1  0  0  0
M  END
>  <cdx:fragmentId>
5

$$$$
