91489.cdx
  Mrv1902 05222410192D          

 54 59  0  0  0  0            999 V2000
    7.0449   -5.0875    0.0000 C   0  0  0  0  0  0  0  0  0  0  0  0
    7.0449   -5.9125    0.0000 C   0  0  0  0  0  0  0  0  0  0  0  0
    7.7594   -6.3250    0.0000 C   0  0  0  0  0  0  0  0  0  0  0  0
    8.4739   -5.9125    0.0000 C   0  0  0  0  0  0  0  0  0  0  0  0
    8.4739   -5.0875    0.0000 C   0  0  0  0  0  0  0  0  0  0  0  0
    7.7594   -4.6750    0.0000 C   0  0  0  0  0  0  0  0  0  0  0  0
    9.1883   -6.3250    0.0000 C   0  0  0  0  0  0  0  0  0  0  0  0
    9.9028   -5.9125    0.0000 C   0  0  0  0  0  0  0  0  0  0  0  0
    9.9028   -5.0875    0.0000 C   0  0  0  0  0  0  0  0  0  0  0  0
    9.1883   -4.6750    0.0000 O   0  0  0  0  0  0  0  0  0  0  0  0
   10.6173   -6.3250    0.0000 O   0  0  0  0  0  0  0  0  0  0  0  0
   11.3318   -5.0875    0.0000 C   0  0  0  0  0  0  0  0  0  0  0  0
   10.6173   -4.6750    0.0000 C   0  0  0  0  0  0  0  0  0  0  0  0
   12.0462   -4.6750    0.0000 C   0  0  0  0  0  0  0  0  0  0  0  0
   12.0462   -3.8500    0.0000 C   0  0  0  0  0  0  0  0  0  0  0  0
   11.3318   -3.4375    0.0000 C   0  0  0  0  0  0  0  0  0  0  0  0
   10.6173   -3.8500    0.0000 C   0  0  0  0  0  0  0  0  0  0  0  0
    6.3305   -4.6750    0.0000 O   0  0  0  0  0  0  0  0  0  0  0  0
    7.7594   -7.1500    0.0000 O   0  0  0  0  0  0  0  0  0  0  0  0
    9.1883   -7.1500    0.0000 O   0  0  0  0  0  0  0  0  0  0  0  0
   12.7607   -3.4375    0.0000 O   0  0  0  0  0  0  0  0  0  0  0  0
   10.6151   -7.1678    0.0000 C   0  0  2  0  0  0  0  0  0  0  0  0
    9.9005   -7.5802    0.0000 O   0  0  0  0  0  0  0  0  0  0  0  0
    9.9004   -8.4052    0.0000 C   0  0  2  0  0  0  0  0  0  0  0  0
   10.6147   -8.8178    0.0000 C   0  0  1  0  0  0  0  0  0  0  0  0
   11.3293   -8.4055    0.0000 C   0  0  2  0  0  0  0  0  0  0  0  0
   11.3295   -7.5805    0.0000 C   0  0  1  0  0  0  0  0  0  0  0  0
   10.6146   -9.6428    0.0000 O   0  0  0  0  0  0  0  0  0  0  0  0
    9.1858   -8.8176    0.0000 C   0  0  0  0  0  0  0  0  0  0  0  0
   12.0437   -8.8181    0.0000 O   0  0  0  0  0  0  0  0  0  0  0  0
    9.9001  -10.0546    0.0000 C   0  0  2  0  0  0  0  0  0  0  0  0
    9.1883   -9.6375    0.0000 O   0  0  0  0  0  0  0  0  0  0  0  0
    8.4712  -10.0454    0.0000 C   0  0  1  0  0  0  0  0  0  0  0  0
    8.4659  -10.8704    0.0000 C   0  0  2  0  0  0  0  0  0  0  0  0
    9.1777  -11.2875    0.0000 C   0  0  1  0  0  0  0  0  0  0  0  0
    9.8948  -10.8796    0.0000 C   0  0  1  0  0  0  0  0  0  0  0  0
    7.7594   -9.6283    0.0000 C   0  0  0  0  0  0  0  0  0  0  0  0
    9.1723  -12.1125    0.0000 O   0  0  0  0  0  0  0  0  0  0  0  0
    7.0423  -10.0362    0.0000 O   0  0  0  0  0  0  0  0  0  0  0  0
    6.3305   -9.6191    0.0000 C   0  0  0  0  0  0  0  0  0  0  0  0
    5.6133  -10.0270    0.0000 C   0  0  0  0  0  0  0  0  0  0  0  0
    6.3358   -8.7942    0.0000 O   0  0  0  0  0  0  0  0  0  0  0  0
    4.9015   -9.6099    0.0000 C   0  0  0  0  0  0  0  0  0  0  0  0
    4.1844  -10.0178    0.0000 C   0  0  0  0  0  0  0  0  0  0  0  0
    4.1791  -10.8428    0.0000 C   0  0  0  0  0  0  0  0  0  0  0  0
    3.4620  -11.2507    0.0000 C   0  0  0  0  0  0  0  0  0  0  0  0
    2.7502  -10.8336    0.0000 C   0  0  0  0  0  0  0  0  0  0  0  0
    2.7555  -10.0086    0.0000 C   0  0  0  0  0  0  0  0  0  0  0  0
    3.4726   -9.6007    0.0000 C   0  0  0  0  0  0  0  0  0  0  0  0
    2.0331  -11.2415    0.0000 O   0  0  0  0  0  0  0  0  0  0  0  0
    7.7487  -11.2783    0.0000 O   0  0  0  0  0  0  0  0  0  0  0  0
   10.6066  -11.2967    0.0000 O   0  0  0  0  0  0  0  0  0  0  0  0
   11.3318   -2.6125    0.0000 O   0  0  0  0  0  0  0  0  0  0  0  0
   12.0440   -7.1681    0.0000 O   0  0  0  0  0  0  0  0  0  0  0  0
  1  2  2  0  0  0  0
  2  3  1  0  0  0  0
  3  4  2  0  0  0  0
  4  5  1  0  0  0  0
  5  6  2  0  0  0  0
  6  1  1  0  0  0  0
  4  7  1  0  0  0  0
  7  8  1  0  0  0  0
  8  9  2  0  0  0  0
  9 10  1  0  0  0  0
 10  5  1  0  0  0  0
  8 11  1  0  0  0  0
 12 13  2  0  0  0  0
 13  9  1  0  0  0  0
 12 14  1  0  0  0  0
 14 15  2  0  0  0  0
 15 16  1  0  0  0  0
 16 17  2  0  0  0  0
 17 13  1  0  0  0  0
  1 18  1  0  0  0  0
  3 19  1  0  0  0  0
  7 20  2  0  0  0  0
 15 21  1  0  0  0  0
 22 23  1  0  0  0  0
 23 24  1  0  0  0  0
 24 25  1  0  0  0  0
 25 26  1  0  0  0  0
 26 27  1  0  0  0  0
 27 22  1  0  0  0  0
 25 28  1  1  0  0  0
 24 29  1  6  0  0  0
 26 30  1  6  0  0  0
 31 32  1  0  0  0  0
 32 33  1  0  0  0  0
 33 34  1  0  0  0  0
 34 35  1  0  0  0  0
 35 36  1  0  0  0  0
 36 31  1  0  0  0  0
 33 37  1  1  0  0  0
 35 38  1  1  0  0  0
 37 39  1  0  0  0  0
 39 40  1  0  0  0  0
 40 41  1  0  0  0  0
 40 42  2  0  0  0  0
 41 43  2  0  0  0  0
 43 44  1  0  0  0  0
 44 45  2  0  0  0  0
 45 46  1  0  0  0  0
 46 47  2  0  0  0  0
 47 48  1  0  0  0  0
 48 49  2  0  0  0  0
 49 44  1  0  0  0  0
 47 50  1  0  0  0  0
 34 51  1  6  0  0  0
 36 52  1  6  0  0  0
 22 11  1  1  0  0  0
 16 53  1  0  0  0  0
 31 28  1  1  0  0  0
 27 54  1  6  0  0  0
M  END
>  <cdx:fragmentId>
251

$$$$
