91486.cdx
  Mrv1902 05222410262D          

 53 58  0  0  0  0            999 V2000
    5.5118   -8.4551    0.0000 C   0  0  0  0  0  0  0  0  0  0  0  0
    5.5118   -9.2801    0.0000 C   0  0  0  0  0  0  0  0  0  0  0  0
    6.2263   -9.6926    0.0000 C   0  0  0  0  0  0  0  0  0  0  0  0
    6.9407   -9.2801    0.0000 C   0  0  0  0  0  0  0  0  0  0  0  0
    6.9407   -8.4551    0.0000 C   0  0  0  0  0  0  0  0  0  0  0  0
    6.2263   -8.0426    0.0000 C   0  0  0  0  0  0  0  0  0  0  0  0
    7.6552   -9.6926    0.0000 C   0  0  0  0  0  0  0  0  0  0  0  0
    8.3697   -9.2801    0.0000 C   0  0  0  0  0  0  0  0  0  0  0  0
    8.3697   -8.4551    0.0000 C   0  0  0  0  0  0  0  0  0  0  0  0
    7.6552   -8.0426    0.0000 O   0  0  0  0  0  0  0  0  0  0  0  0
    9.0842   -9.6926    0.0000 O   0  0  0  0  0  0  0  0  0  0  0  0
    9.7986   -8.4551    0.0000 C   0  0  0  0  0  0  0  0  0  0  0  0
    9.0842   -8.0426    0.0000 C   0  0  0  0  0  0  0  0  0  0  0  0
   10.5131   -8.0426    0.0000 C   0  0  0  0  0  0  0  0  0  0  0  0
   10.5131   -7.2176    0.0000 C   0  0  0  0  0  0  0  0  0  0  0  0
    9.7986   -6.8051    0.0000 C   0  0  0  0  0  0  0  0  0  0  0  0
    9.0842   -7.2176    0.0000 C   0  0  0  0  0  0  0  0  0  0  0  0
    4.7973   -8.0426    0.0000 O   0  0  0  0  0  0  0  0  0  0  0  0
    6.2263  -10.5176    0.0000 O   0  0  0  0  0  0  0  0  0  0  0  0
    7.6552  -10.5176    0.0000 O   0  0  0  0  0  0  0  0  0  0  0  0
   11.2276   -6.8051    0.0000 O   0  0  0  0  0  0  0  0  0  0  0  0
    9.7986   -5.9801    0.0000 O   0  0  0  0  0  0  0  0  0  0  0  0
    4.0829   -8.4551    0.0000 C   0  0  2  0  0  0  0  0  0  0  0  0
    3.3684   -8.0426    0.0000 O   0  0  0  0  0  0  0  0  0  0  0  0
    2.6539   -8.4551    0.0000 C   0  0  1  0  0  0  0  0  0  0  0  0
    2.6539   -9.2801    0.0000 C   0  0  2  0  0  0  0  0  0  0  0  0
    3.3684   -9.6926    0.0000 C   0  0  1  0  0  0  0  0  0  0  0  0
    4.0829   -9.2801    0.0000 C   0  0  1  0  0  0  0  0  0  0  0  0
    1.9394   -8.0426    0.0000 C   0  0  0  0  0  0  0  0  0  0  0  0
    3.3684  -10.5176    0.0000 O   0  0  0  0  0  0  0  0  0  0  0  0
    1.2250   -8.4551    0.0000 O   0  0  0  0  0  0  0  0  0  0  0  0
    1.9394   -9.6926    0.0000 O   0  0  0  0  0  0  0  0  0  0  0  0
    4.7973   -9.6926    0.0000 O   0  0  0  0  0  0  0  0  0  0  0  0
    6.2171  -11.3404    0.0000 C   0  0  2  0  0  0  0  0  0  0  0  0
    5.5035  -11.7544    0.0000 O   0  0  0  0  0  0  0  0  0  0  0  0
    5.5053  -12.5794    0.0000 C   0  0  1  0  0  0  0  0  0  0  0  0
    6.2207  -12.9904    0.0000 C   0  0  2  0  0  0  0  0  0  0  0  0
    6.9343  -12.5763    0.0000 C   0  0  1  0  0  0  0  0  0  0  0  0
    6.9325  -11.7513    0.0000 C   0  0  1  0  0  0  0  0  0  0  0  0
    4.7917  -12.9935    0.0000 C   0  0  0  0  0  0  0  0  0  0  0  0
    7.6496  -12.9873    0.0000 O   0  0  0  0  0  0  0  0  0  0  0  0
    4.7935  -13.8185    0.0000 O   0  0  0  0  0  0  0  0  0  0  0  0
    6.2225  -13.8154    0.0000 O   0  0  0  0  0  0  0  0  0  0  0  0
    7.6460  -11.3373    0.0000 O   0  0  0  0  0  0  0  0  0  0  0  0
    9.7986  -10.1051    0.0000 C   0  0  2  0  0  0  0  0  0  0  0  0
    9.7986  -10.9301    0.0000 O   0  0  0  0  0  0  0  0  0  0  0  0
   10.5131  -11.3426    0.0000 C   0  0  0  0  0  0  0  0  0  0  0  0
   11.2276  -10.9301    0.0000 C   0  0  2  0  0  0  0  0  0  0  0  0
   11.2276  -10.1051    0.0000 C   0  0  1  0  0  0  0  0  0  0  0  0
   10.5131   -9.6926    0.0000 C   0  0  1  0  0  0  0  0  0  0  0  0
   11.9420   -9.6926    0.0000 O   0  0  0  0  0  0  0  0  0  0  0  0
   10.5131   -8.8676    0.0000 O   0  0  0  0  0  0  0  0  0  0  0  0
   11.9420  -11.3426    0.0000 O   0  0  0  0  0  0  0  0  0  0  0  0
  1  2  1  0  0  0  0
  2  3  2  0  0  0  0
  3  4  1  0  0  0  0
  4  5  2  0  0  0  0
  5  6  1  0  0  0  0
  6  1  2  0  0  0  0
  4  7  1  0  0  0  0
  7  8  1  0  0  0  0
  8  9  2  0  0  0  0
  9 10  1  0  0  0  0
 10  5  1  0  0  0  0
  8 11  1  0  0  0  0
 12 13  2  0  0  0  0
 13  9  1  0  0  0  0
 12 14  1  0  0  0  0
 14 15  2  0  0  0  0
 15 16  1  0  0  0  0
 16 17  2  0  0  0  0
 17 13  1  0  0  0  0
  1 18  1  0  0  0  0
  3 19  1  0  0  0  0
  7 20  2  0  0  0  0
 15 21  1  0  0  0  0
 16 22  1  0  0  0  0
 23 18  1  1  0  0  0
 23 24  1  0  0  0  0
 24 25  1  0  0  0  0
 25 26  1  0  0  0  0
 26 27  1  0  0  0  0
 27 28  1  0  0  0  0
 28 23  1  0  0  0  0
 25 29  1  1  0  0  0
 27 30  1  1  0  0  0
 29 31  1  0  0  0  0
 26 32  1  6  0  0  0
 28 33  1  6  0  0  0
 34 35  1  0  0  0  0
 35 36  1  0  0  0  0
 36 37  1  0  0  0  0
 37 38  1  0  0  0  0
 38 39  1  0  0  0  0
 39 34  1  0  0  0  0
 36 40  1  1  0  0  0
 38 41  1  1  0  0  0
 40 42  1  0  0  0  0
 37 43  1  6  0  0  0
 39 44  1  6  0  0  0
 34 19  1  1  0  0  0
 45 11  1  1  0  0  0
 45 46  1  0  0  0  0
 46 47  1  0  0  0  0
 47 48  1  0  0  0  0
 48 49  1  0  0  0  0
 49 50  1  0  0  0  0
 50 45  1  0  0  0  0
 49 51  1  1  0  0  0
 50 52  1  6  0  0  0
 48 53  1  6  0  0  0
M  END
>  <cdx:fragmentId>
5

$$$$
