91498.cdx
  Mrv1902 05222410182D          

 68 75  0  0  0  0            999 V2000
    8.7433   -7.9326    0.0000 C   0  0  0  0  0  0  0  0  0  0  0  0
    8.7433   -8.5101    0.0000 C   0  0  1  0  0  0  0  0  0  0  0  0
    9.2434   -8.7989    0.0000 C   0  0  0  0  0  0  0  0  0  0  0  0
    9.7435   -8.5101    0.0000 C   0  0  1  0  0  0  0  0  0  0  0  0
    9.7435   -7.9326    0.0000 C   0  0  2  0  0  0  0  0  0  0  0  0
    9.2434   -7.6439    0.0000 C   0  0  0  0  0  0  0  0  0  0  0  0
   10.2437   -8.7989    0.0000 C   0  0  0  0  0  0  0  0  0  0  0  0
   10.7438   -8.5101    0.0000 C   0  0  0  0  0  0  0  0  0  0  0  0
   10.7438   -7.9326    0.0000 C   0  0  2  0  0  0  0  0  0  0  0  0
   10.2437   -7.6439    0.0000 C   0  0  0  0  0  0  0  0  0  0  0  0
   11.2439   -7.6439    0.0000 C   0  0  2  0  0  0  0  0  0  0  0  0
   11.2439   -7.0664    0.0000 C   0  0  2  0  0  0  0  0  0  0  0  0
   10.7438   -6.7776    0.0000 C   0  0  1  0  0  0  0  0  0  0  0  0
   10.2437   -7.0664    0.0000 C   0  0  1  0  0  0  0  0  0  0  0  0
   11.7931   -7.8224    0.0000 C   0  0  0  0  0  0  0  0  0  0  0  0
   12.1326   -7.3551    0.0000 C   0  0  0  0  0  0  0  0  0  0  0  0
   11.7931   -6.8879    0.0000 C   0  0  1  0  0  0  0  0  0  0  0  0
    8.2431   -8.7989    0.0000 O   0  0  0  0  0  0  0  0  0  0  0  0
    9.7435   -7.3551    0.0000 C   0  0  0  0  0  0  0  0  0  0  0  0
   11.2439   -8.2214    0.0000 O   0  0  0  0  0  0  0  0  0  0  0  0
   10.7438   -6.2001    0.0000 O   0  0  0  0  0  0  0  0  0  0  0  0
   11.3043   -6.4921    0.0000 C   0  0  0  0  0  0  0  0  0  0  0  0
   11.9716   -6.3387    0.0000 C   0  0  0  0  0  0  0  0  0  0  0  0
   11.5852   -5.9095    0.0000 C   0  0  0  0  0  0  0  0  0  0  0  0
   12.5365   -6.2186    0.0000 O   0  0  0  0  0  0  0  0  0  0  0  0
    9.7435   -6.7776    0.0000 O   0  0  0  0  0  0  0  0  0  0  0  0
    9.7435   -9.0876    0.0000 H   0  0  0  0  0  0  0  0  0  0  0  0
    6.7509   -9.0835    0.0000 C   0  0  2  0  0  0  0  0  0  0  0  0
    6.7509   -9.6610    0.0000 C   0  0  2  0  0  0  0  0  0  0  0  0
    7.2510   -9.9498    0.0000 C   0  0  2  0  0  0  0  0  0  0  0  0
    7.7512   -9.6610    0.0000 C   0  0  0  0  0  0  0  0  0  0  0  0
    7.7512   -9.0835    0.0000 C   0  0  1  0  0  0  0  0  0  0  0  0
    7.2510   -8.7948    0.0000 O   0  0  0  0  0  0  0  0  0  0  0  0
    6.2508   -8.7948    0.0000 C   0  0  0  0  0  0  0  0  0  0  0  0
    6.2508   -9.9498    0.0000 O   0  0  0  0  0  0  0  0  0  0  0  0
    7.2510  -10.5273    0.0000 O   0  0  0  0  0  0  0  0  0  0  0  0
    7.7512  -10.8160    0.0000 C   0  0  0  0  0  0  0  0  0  0  0  0
    5.7506  -10.2385    0.0000 C   0  0  2  0  0  0  0  0  0  0  0  0
    5.2505   -9.9498    0.0000 O   0  0  0  0  0  0  0  0  0  0  0  0
    4.7504  -10.2385    0.0000 C   0  0  1  0  0  0  0  0  0  0  0  0
    4.7504  -10.8160    0.0000 C   0  0  2  0  0  0  0  0  0  0  0  0
    5.2505  -11.1048    0.0000 C   0  0  2  0  0  0  0  0  0  0  0  0
    5.7506  -10.8160    0.0000 C   0  0  1  0  0  0  0  0  0  0  0  0
    4.2502   -9.9498    0.0000 C   0  0  0  0  0  0  0  0  0  0  0  0
    4.2502  -11.1048    0.0000 O   0  0  0  0  0  0  0  0  0  0  0  0
    5.2505  -11.6823    0.0000 O   0  0  0  0  0  0  0  0  0  0  0  0
    6.2508  -11.1048    0.0000 O   0  0  0  0  0  0  0  0  0  0  0  0
    5.7506  -11.9710    0.0000 C   0  0  0  0  0  0  0  0  0  0  0  0
    3.7501  -11.3935    0.0000 C   0  0  2  0  0  0  0  0  0  0  0  0
    3.2500  -11.1048    0.0000 O   0  0  0  0  0  0  0  0  0  0  0  0
    2.7499  -11.3935    0.0000 C   0  0  1  0  0  0  0  0  0  0  0  0
    2.7499  -11.9710    0.0000 C   0  0  2  0  0  0  0  0  0  0  0  0
    3.2500  -12.2598    0.0000 C   0  0  2  0  0  0  0  0  0  0  0  0
    3.7501  -11.9710    0.0000 C   0  0  1  0  0  0  0  0  0  0  0  0
    2.2497  -11.1048    0.0000 C   0  0  0  0  0  0  0  0  0  0  0  0
    2.2497  -12.2598    0.0000 O   0  0  0  0  0  0  0  0  0  0  0  0
    3.2500  -12.8373    0.0000 O   0  0  0  0  0  0  0  0  0  0  0  0
    4.2502  -12.2598    0.0000 O   0  0  0  0  0  0  0  0  0  0  0  0
    1.7496  -11.3935    0.0000 O   0  0  0  0  0  0  0  0  0  0  0  0
    8.0206   -5.7550    0.0000 C   0  0  0  0  0  0  0  0  0  0  0  0
    8.3088   -6.2555    0.0000 C   0  0  0  0  0  0  0  0  0  0  0  0
    8.8863   -6.2561    0.0000 C   0  0  0  0  0  0  0  0  0  0  0  0
    9.1744   -6.7566    0.0000 C   0  0  0  0  0  0  0  0  0  0  0  0
    9.1756   -5.7564    0.0000 C   0  0  0  0  0  0  0  0  0  0  0  0
    8.8851   -7.2564    0.0000 O   0  0  0  0  0  0  0  0  0  0  0  0
   10.2437   -5.9114    0.0000 C   0  0  0  0  0  0  0  0  0  0  0  0
   10.2437   -5.3339    0.0000 O   0  0  0  0  0  0  0  0  0  0  0  0
    9.7435   -6.2001    0.0000 C   0  0  0  0  0  0  0  0  0  0  0  0
  1  2  1  0  0  0  0
  2  3  1  0  0  0  0
  3  4  1  0  0  0  0
  4  5  1  0  0  0  0
  5  6  1  0  0  0  0
  6  1  1  0  0  0  0
  4  7  1  0  0  0  0
  7  8  1  0  0  0  0
  8  9  1  0  0  0  0
  9 10  1  0  0  0  0
 10  5  1  0  0  0  0
  9 11  1  0  0  0  0
 11 12  1  0  0  0  0
 12 13  1  0  0  0  0
 13 14  1  0  0  0  0
 14 10  1  0  0  0  0
 11 15  1  0  0  0  0
 15 16  1  0  0  0  0
 16 17  1  0  0  0  0
 17 12  1  0  0  0  0
  2 18  1  1  0  0  0
  5 19  1  1  0  0  0
  9 20  1  1  0  0  0
 11 20  1  1  0  0  0
 13 21  1  1  0  0  0
 12 22  1  1  0  0  0
 17 23  1  6  0  0  0
 23 24  1  0  0  0  0
 23 25  2  0  0  0  0
 14 26  1  6  0  0  0
  4 27  1  6  0  0  0
 28 29  1  0  0  0  0
 29 30  1  0  0  0  0
 30 31  1  0  0  0  0
 31 32  1  0  0  0  0
 32 33  1  0  0  0  0
 33 28  1  0  0  0  0
 28 34  1  1  0  0  0
 29 35  1  6  0  0  0
 30 36  1  6  0  0  0
 36 37  1  0  0  0  0
 38 35  1  1  0  0  0
 38 39  1  0  0  0  0
 39 40  1  0  0  0  0
 40 41  1  0  0  0  0
 41 42  1  0  0  0  0
 42 43  1  0  0  0  0
 43 38  1  0  0  0  0
 40 44  1  1  0  0  0
 41 45  1  6  0  0  0
 42 46  1  6  0  0  0
 43 47  1  6  0  0  0
 46 48  1  0  0  0  0
 49 45  1  1  0  0  0
 49 50  1  0  0  0  0
 50 51  1  0  0  0  0
 51 52  1  0  0  0  0
 52 53  1  0  0  0  0
 53 54  1  0  0  0  0
 54 49  1  0  0  0  0
 51 55  1  1  0  0  0
 52 56  1  6  0  0  0
 53 57  1  6  0  0  0
 54 58  1  6  0  0  0
 55 59  1  0  0  0  0
 60 61  1  0  0  0  0
 61 62  2  0  0  0  0
 62 63  1  0  0  0  0
 62 64  1  0  0  0  0
 63 65  2  0  0  0  0
 63 26  1  0  0  0  0
 21 66  1  0  0  0  0
 66 67  2  0  0  0  0
 66 68  1  0  0  0  0
 32 18  1  1  0  0  0
M  END
>  <cdx:fragmentId>
5

$$$$
