91491.cdx
  Mrv1902 05222410262D          

 54 59  0  0  0  0            999 V2000
    4.1781   -7.6851    0.0000 C   0  0  0  0  0  0  0  0  0  0  0  0
    4.1781   -8.5101    0.0000 C   0  0  0  0  0  0  0  0  0  0  0  0
    4.8925   -8.9226    0.0000 C   0  0  0  0  0  0  0  0  0  0  0  0
    5.6070   -8.5101    0.0000 C   0  0  0  0  0  0  0  0  0  0  0  0
    5.6070   -7.6851    0.0000 C   0  0  0  0  0  0  0  0  0  0  0  0
    4.8925   -7.2726    0.0000 C   0  0  0  0  0  0  0  0  0  0  0  0
    6.3215   -8.9226    0.0000 C   0  0  0  0  0  0  0  0  0  0  0  0
    7.0359   -8.5101    0.0000 C   0  0  0  0  0  0  0  0  0  0  0  0
    7.0359   -7.6851    0.0000 C   0  0  0  0  0  0  0  0  0  0  0  0
    6.3215   -7.2726    0.0000 O   0  0  0  0  0  0  0  0  0  0  0  0
    7.7504   -8.9226    0.0000 O   0  0  0  0  0  0  0  0  0  0  0  0
    8.4649   -7.6851    0.0000 C   0  0  0  0  0  0  0  0  0  0  0  0
    7.7504   -7.2726    0.0000 C   0  0  0  0  0  0  0  0  0  0  0  0
    9.1794   -7.2726    0.0000 C   0  0  0  0  0  0  0  0  0  0  0  0
    9.1794   -6.4476    0.0000 C   0  0  0  0  0  0  0  0  0  0  0  0
    8.4649   -6.0351    0.0000 C   0  0  0  0  0  0  0  0  0  0  0  0
    7.7504   -6.4476    0.0000 C   0  0  0  0  0  0  0  0  0  0  0  0
    3.4636   -9.7476    0.0000 O   0  0  0  0  0  0  0  0  0  0  0  0
    4.1781  -10.1601    0.0000 C   0  0  1  0  0  0  0  0  0  0  0  0
    4.8925   -9.7476    0.0000 O   0  0  0  0  0  0  0  0  0  0  0  0
    2.7491  -10.1601    0.0000 C   0  0  1  0  0  0  0  0  0  0  0  0
    2.7491  -10.9851    0.0000 C   0  0  2  0  0  0  0  0  0  0  0  0
    3.4636  -11.3976    0.0000 C   0  0  1  0  0  0  0  0  0  0  0  0
    4.1781  -10.9851    0.0000 C   0  0  1  0  0  0  0  0  0  0  0  0
    2.0346   -9.7476    0.0000 C   0  0  0  0  0  0  0  0  0  0  0  0
    2.0346  -11.3976    0.0000 O   0  0  0  0  0  0  0  0  0  0  0  0
    6.3215   -9.7476    0.0000 O   0  0  0  0  0  0  0  0  0  0  0  0
    7.0359  -10.1601    0.0000 O   0  0  0  0  0  0  0  0  0  0  0  0
    7.7504   -9.7476    0.0000 C   0  0  2  0  0  0  0  0  0  0  0  0
    7.0359  -10.9851    0.0000 C   0  0  1  0  0  0  0  0  0  0  0  0
    7.7504  -11.3976    0.0000 C   0  0  2  0  0  0  0  0  0  0  0  0
    8.4649  -10.9851    0.0000 C   0  0  1  0  0  0  0  0  0  0  0  0
    8.4649  -10.1601    0.0000 C   0  0  1  0  0  0  0  0  0  0  0  0
    9.1794  -11.3976    0.0000 O   0  0  0  0  0  0  0  0  0  0  0  0
    9.8938  -10.9851    0.0000 O   0  0  0  0  0  0  0  0  0  0  0  0
    9.8938  -10.1601    0.0000 C   0  0  2  0  0  0  0  0  0  0  0  0
    9.1794   -9.7476    0.0000 O   0  0  0  0  0  0  0  0  0  0  0  0
   10.6083  -11.3976    0.0000 C   0  0  1  0  0  0  0  0  0  0  0  0
   11.3228  -10.9851    0.0000 C   0  0  2  0  0  0  0  0  0  0  0  0
   11.3228  -10.1601    0.0000 C   0  0  1  0  0  0  0  0  0  0  0  0
   10.6083   -9.7476    0.0000 C   0  0  2  0  0  0  0  0  0  0  0  0
    8.4649   -5.2101    0.0000 O   0  0  0  0  0  0  0  0  0  0  0  0
    9.8938   -6.0351    0.0000 O   0  0  0  0  0  0  0  0  0  0  0  0
    3.4636   -7.2726    0.0000 O   0  0  0  0  0  0  0  0  0  0  0  0
    2.0346   -8.9226    0.0000 O   0  0  0  0  0  0  0  0  0  0  0  0
    6.3215  -11.3976    0.0000 C   0  0  0  0  0  0  0  0  0  0  0  0
    5.6070  -10.9851    0.0000 O   0  0  0  0  0  0  0  0  0  0  0  0
   10.6083   -8.9226    0.0000 O   0  0  0  0  0  0  0  0  0  0  0  0
   12.0372   -9.7476    0.0000 O   0  0  0  0  0  0  0  0  0  0  0  0
   10.6083  -12.2226    0.0000 C   0  0  0  0  0  0  0  0  0  0  0  0
    3.4636  -12.2226    0.0000 O   0  0  0  0  0  0  0  0  0  0  0  0
    4.8925  -11.3976    0.0000 O   0  0  0  0  0  0  0  0  0  0  0  0
    7.7504  -12.2226    0.0000 O   0  0  0  0  0  0  0  0  0  0  0  0
   12.0372  -11.3976    0.0000 O   0  0  0  0  0  0  0  0  0  0  0  0
  1  2  1  0  0  0  0
  2  3  2  0  0  0  0
  3  4  1  0  0  0  0
  4  5  2  0  0  0  0
  5  6  1  0  0  0  0
  6  1  2  0  0  0  0
  4  7  1  0  0  0  0
  7  8  1  0  0  0  0
  8  9  2  0  0  0  0
  9 10  1  0  0  0  0
 10  5  1  0  0  0  0
  8 11  1  0  0  0  0
 12 13  2  0  0  0  0
 13  9  1  0  0  0  0
 12 14  1  0  0  0  0
 14 15  2  0  0  0  0
 15 16  1  0  0  0  0
 16 17  2  0  0  0  0
 17 13  1  0  0  0  0
 18 19  1  0  0  0  0
 19 20  1  1  0  0  0
 20  3  1  0  0  0  0
 18 21  1  0  0  0  0
 21 22  1  0  0  0  0
 22 23  1  0  0  0  0
 23 24  1  0  0  0  0
 24 19  1  0  0  0  0
 21 25  1  1  0  0  0
 22 26  1  6  0  0  0
  7 27  2  0  0  0  0
 28 29  1  0  0  0  0
 29 11  1  1  0  0  0
 28 30  1  0  0  0  0
 30 31  1  0  0  0  0
 31 32  1  0  0  0  0
 32 33  1  0  0  0  0
 33 29  1  0  0  0  0
 32 34  1  1  0  0  0
 35 36  1  0  0  0  0
 36 37  1  6  0  0  0
 33 37  1  6  0  0  0
 35 38  1  0  0  0  0
 38 39  1  0  0  0  0
 39 40  1  0  0  0  0
 40 41  1  0  0  0  0
 41 36  1  0  0  0  0
 16 42  1  0  0  0  0
 15 43  1  0  0  0  0
  1 44  1  0  0  0  0
 25 45  1  0  0  0  0
 30 46  1  1  0  0  0
 46 47  1  0  0  0  0
 41 48  1  1  0  0  0
 40 49  1  1  0  0  0
 38 50  1  1  0  0  0
 23 51  1  1  0  0  0
 24 52  1  6  0  0  0
 31 53  1  6  0  0  0
 39 54  1  6  0  0  0
M  END
>  <cdx:fragmentId>
5

$$$$
