91497.cdx
  Mrv1902 05222410282D          

 19 21  0  0  0  0            999 V2000
    2.7089   -3.7370    0.0000 O   0  0  0  0  0  0  0  0  0  0  0  0
    2.7089   -2.9120    0.0000 C   0  0  0  0  0  0  0  0  0  0  0  0
    3.4234   -2.4995    0.0000 C   0  0  0  0  0  0  0  0  0  0  0  0
    4.1379   -2.9120    0.0000 C   0  0  0  0  0  0  0  0  0  0  0  0
    4.8523   -2.4995    0.0000 C   0  0  0  0  0  0  0  0  0  0  0  0
    5.5668   -2.9120    0.0000 C   0  0  0  0  0  0  0  0  0  0  0  0
    5.5668   -3.7370    0.0000 C   0  0  0  0  0  0  0  0  0  0  0  0
    4.8523   -4.1495    0.0000 C   0  0  0  0  0  0  0  0  0  0  0  0
    4.1379   -3.7370    0.0000 C   0  0  0  0  0  0  0  0  0  0  0  0
    3.4234   -4.1495    0.0000 C   0  0  0  0  0  0  0  0  0  0  0  0
    6.3514   -3.9919    0.0000 C   0  0  0  0  0  0  0  0  0  0  0  0
    6.8363   -3.3245    0.0000 C   0  0  0  0  0  0  0  0  0  0  0  0
    6.3514   -2.6571    0.0000 C   0  0  0  0  0  0  0  0  0  0  0  0
    6.9645   -4.5440    0.0000 C   0  0  0  0  0  0  0  0  0  0  0  0
    6.1799   -4.7989    0.0000 C   0  0  0  0  0  0  0  0  0  0  0  0
    7.6613   -3.3245    0.0000 C   0  0  0  0  0  0  0  0  0  0  0  0
    6.1799   -1.8501    0.0000 C   0  0  0  0  0  0  0  0  0  0  0  0
    6.9645   -2.1050    0.0000 C   0  0  0  0  0  0  0  0  0  0  0  0
    3.4234   -1.6745    0.0000 C   0  0  0  0  0  0  0  0  0  0  0  0
  1  2  1  0  0  0  0
  2  3  1  0  0  0  0
  3  4  1  0  0  0  0
  4  5  2  0  0  0  0
  5  6  1  0  0  0  0
  6  7  2  0  0  0  0
  7  8  1  0  0  0  0
  8  9  2  0  0  0  0
  4  9  1  0  0  0  0
  9 10  1  0  0  0  0
  1 10  1  0  0  0  0
 11 12  1  0  0  0  0
 12 13  1  0  0  0  0
 13  6  1  0  0  0  0
 11  7  1  0  0  0  0
 11 14  1  0  0  0  0
 11 15  1  0  0  0  0
 12 16  1  0  0  0  0
 13 17  1  0  0  0  0
 13 18  1  0  0  0  0
  3 19  1  0  0  0  0
M  END
>  <cdx:groupId>
61

>  <cdx:fragmentId>
5

$$$$
