91494.cdx
  Mrv1902 05222410272D          

 36 39  0  0  0  0            999 V2000
    3.9856   -8.0564    0.0000 C   0  0  0  0  0  0  0  0  0  0  0  0
    3.9856   -8.8814    0.0000 C   0  0  0  0  0  0  0  0  0  0  0  0
    4.7000   -9.2939    0.0000 C   0  0  0  0  0  0  0  0  0  0  0  0
    5.4145   -8.8814    0.0000 C   0  0  0  0  0  0  0  0  0  0  0  0
    5.4145   -8.0564    0.0000 C   0  0  0  0  0  0  0  0  0  0  0  0
    4.7000   -7.6439    0.0000 C   0  0  0  0  0  0  0  0  0  0  0  0
    6.1290   -9.2939    0.0000 C   0  0  0  0  0  0  0  0  0  0  0  0
    6.8434   -8.8814    0.0000 C   0  0  0  0  0  0  0  0  0  0  0  0
    6.8434   -8.0564    0.0000 C   0  0  0  0  0  0  0  0  0  0  0  0
    6.1290   -7.6439    0.0000 O   0  0  0  0  0  0  0  0  0  0  0  0
    7.5579   -9.2939    0.0000 O   0  0  0  0  0  0  0  0  0  0  0  0
    8.2724   -8.0564    0.0000 C   0  0  0  0  0  0  0  0  0  0  0  0
    7.5579   -7.6439    0.0000 C   0  0  0  0  0  0  0  0  0  0  0  0
    8.9869   -7.6439    0.0000 C   0  0  0  0  0  0  0  0  0  0  0  0
    8.9869   -6.8189    0.0000 C   0  0  0  0  0  0  0  0  0  0  0  0
    8.2724   -6.4064    0.0000 C   0  0  0  0  0  0  0  0  0  0  0  0
    7.5579   -6.8189    0.0000 C   0  0  0  0  0  0  0  0  0  0  0  0
    7.5579  -10.1189    0.0000 C   0  0  1  0  0  0  0  0  0  0  0  0
    8.2724  -10.5314    0.0000 C   0  0  2  0  0  0  0  0  0  0  0  0
    8.9869  -10.1189    0.0000 O   0  0  0  0  0  0  0  0  0  0  0  0
    6.8434  -10.5314    0.0000 O   0  0  0  0  0  0  0  0  0  0  0  0
    6.8434  -11.3564    0.0000 C   0  0  1  0  0  0  0  0  0  0  0  0
    7.5579  -11.7689    0.0000 C   0  0  2  0  0  0  0  0  0  0  0  0
    8.2724  -11.3564    0.0000 C   0  0  2  0  0  0  0  0  0  0  0  0
    6.1290  -11.7689    0.0000 C   0  0  0  0  0  0  0  0  0  0  0  0
    7.5579  -12.5939    0.0000 O   0  0  0  0  0  0  0  0  0  0  0  0
    3.2711   -7.6439    0.0000 O   0  0  0  0  0  0  0  0  0  0  0  0
    4.7000  -10.1189    0.0000 O   0  0  0  0  0  0  0  0  0  0  0  0
    6.1290  -10.1189    0.0000 O   0  0  0  0  0  0  0  0  0  0  0  0
    8.2724   -5.5814    0.0000 O   0  0  0  0  0  0  0  0  0  0  0  0
    9.7013   -6.4064    0.0000 O   0  0  0  0  0  0  0  0  0  0  0  0
    8.9869  -11.7689    0.0000 O   0  0  0  0  0  0  0  0  0  0  0  0
    6.1290  -12.5939    0.0000 O   0  0  0  0  0  0  0  0  0  0  0  0
    5.4145  -13.0064    0.0000 C   0  0  0  0  0  0  0  0  0  0  0  0
    5.4145  -13.8314    0.0000 C   0  0  0  0  0  0  0  0  0  0  0  0
    4.7000  -12.5939    0.0000 O   0  0  0  0  0  0  0  0  0  0  0  0
  1  2  1  0  0  0  0
  2  3  2  0  0  0  0
  3  4  1  0  0  0  0
  4  5  2  0  0  0  0
  5  6  1  0  0  0  0
  6  1  2  0  0  0  0
  4  7  1  0  0  0  0
  7  8  1  0  0  0  0
  8  9  2  0  0  0  0
  9 10  1  0  0  0  0
 10  5  1  0  0  0  0
  8 11  1  0  0  0  0
 12 13  2  0  0  0  0
 13  9  1  0  0  0  0
 12 14  1  0  0  0  0
 14 15  2  0  0  0  0
 15 16  1  0  0  0  0
 16 17  2  0  0  0  0
 17 13  1  0  0  0  0
 18 11  1  1  0  0  0
 18 19  1  0  0  0  0
 19 20  1  6  0  0  0
 18 21  1  0  0  0  0
 21 22  1  0  0  0  0
 22 23  1  0  0  0  0
 23 24  1  0  0  0  0
 24 19  1  0  0  0  0
 22 25  1  1  0  0  0
 23 26  1  6  0  0  0
  1 27  1  0  0  0  0
  3 28  1  0  0  0  0
  7 29  2  0  0  0  0
 16 30  1  0  0  0  0
 15 31  1  0  0  0  0
 24 32  1  1  0  0  0
 25 33  1  0  0  0  0
 33 34  1  0  0  0  0
 34 35  1  0  0  0  0
 34 36  2  0  0  0  0
M  END
>  <cdx:fragmentId>
5

$$$$
