91501.cdx
  Mrv1902 05222410202D          

 25 28  0  0  0  0            999 V2000
    4.2193   -6.3075    0.0000 O   0  0  0  0  0  0  0  0  0  0  0  0
    4.2193   -5.4825    0.0000 C   0  0  0  0  0  0  0  0  0  0  0  0
    4.9338   -5.0700    0.0000 C   0  0  0  0  0  0  0  0  0  0  0  0
    5.6482   -5.4825    0.0000 C   0  0  0  0  0  0  0  0  0  0  0  0
    5.6482   -6.3075    0.0000 C   0  0  0  0  0  0  0  0  0  0  0  0
    4.9338   -6.7200    0.0000 C   0  0  0  0  0  0  0  0  0  0  0  0
    6.3627   -6.7200    0.0000 C   0  0  0  0  0  0  0  0  0  0  0  0
    6.3627   -7.5450    0.0000 C   0  0  0  0  0  0  0  0  0  0  0  0
    5.6482   -7.9575    0.0000 C   0  0  0  0  0  0  0  0  0  0  0  0
    4.9338   -7.5450    0.0000 C   0  0  0  0  0  0  0  0  0  0  0  0
    7.0772   -6.3075    0.0000 O   0  0  0  0  0  0  0  0  0  0  0  0
    7.7917   -6.7200    0.0000 C   0  0  0  0  0  0  0  0  0  0  0  0
    7.7917   -7.5450    0.0000 C   0  0  0  0  0  0  0  0  0  0  0  0
    7.0772   -7.9575    0.0000 C   0  0  0  0  0  0  0  0  0  0  0  0
    8.5061   -6.3075    0.0000 C   0  0  0  0  0  0  0  0  0  0  0  0
    9.2206   -6.7200    0.0000 C   0  0  0  0  0  0  0  0  0  0  0  0
    8.5061   -5.4825    0.0000 C   0  0  0  0  0  0  0  0  0  0  0  0
    9.2206   -5.0700    0.0000 C   0  0  0  0  0  0  0  0  0  0  0  0
    9.9351   -5.4825    0.0000 C   0  0  0  0  0  0  0  0  0  0  0  0
    9.9351   -6.3075    0.0000 C   0  0  0  0  0  0  0  0  0  0  0  0
    3.3943   -5.4825    0.0000 C   0  0  0  0  0  0  0  0  0  0  0  0
    4.0058   -4.6856    0.0000 C   0  0  0  0  0  0  0  0  0  0  0  0
    7.0772   -8.7825    0.0000 O   0  0  0  0  0  0  0  0  0  0  0  0
   10.6495   -6.7200    0.0000 O   0  0  0  0  0  0  0  0  0  0  0  0
   10.6495   -5.0700    0.0000 O   0  0  0  0  0  0  0  0  0  0  0  0
  1  2  1  0  0  0  0
  2  3  1  0  0  0  0
  3  4  2  0  0  0  0
  4  5  1  0  0  0  0
  5  6  2  0  0  0  0
  6  1  1  0  0  0  0
  5  7  1  0  0  0  0
  7  8  2  0  0  0  0
  8  9  1  0  0  0  0
  9 10  2  0  0  0  0
 10  6  1  0  0  0  0
  7 11  1  0  0  0  0
 11 12  1  0  0  0  0
 12 13  2  0  0  0  0
 13 14  1  0  0  0  0
 14  8  1  0  0  0  0
 12 15  1  0  0  0  0
 15 16  2  0  0  0  0
 15 17  1  0  0  0  0
 17 18  2  0  0  0  0
 18 19  1  0  0  0  0
 19 20  2  0  0  0  0
 20 16  1  0  0  0  0
  2 21  1  0  0  0  0
  2 22  1  0  0  0  0
 14 23  2  0  0  0  0
 20 24  1  0  0  0  0
 19 25  1  0  0  0  0
M  END
>  <cdx:fragmentId>
5

$$$$
