91500.cdx
  Mrv1902 05222410202D          

 25 28  0  0  0  0            999 V2000
    9.9106   -5.9525    0.0000 C   0  0  0  0  0  0  0  0  0  0  0  0
    9.1955   -5.5411    0.0000 C   0  0  0  0  0  0  0  0  0  0  0  0
    8.4816   -5.9547    0.0000 C   0  0  0  0  0  0  0  0  0  0  0  0
    8.4829   -6.7797    0.0000 C   0  0  0  0  0  0  0  0  0  0  0  0
    9.1980   -7.1911    0.0000 C   0  0  0  0  0  0  0  0  0  0  0  0
    9.9119   -6.7775    0.0000 C   0  0  0  0  0  0  0  0  0  0  0  0
    7.7691   -7.1933    0.0000 C   0  0  0  0  0  0  0  0  0  0  0  0
    7.7704   -8.0183    0.0000 N   0  3  0  0  0  0  0  0  0  0  0  0
    8.4855   -8.4297    0.0000 C   0  0  0  0  0  0  0  0  0  0  0  0
    9.1993   -8.0161    0.0000 C   0  0  0  0  0  0  0  0  0  0  0  0
    7.0540   -6.7819    0.0000 C   0  0  0  0  0  0  0  0  0  0  0  0
    6.3401   -7.1955    0.0000 C   0  0  0  0  0  0  0  0  0  0  0  0
    6.3414   -8.0205    0.0000 C   0  0  0  0  0  0  0  0  0  0  0  0
    7.0565   -8.4319    0.0000 C   0  0  0  0  0  0  0  0  0  0  0  0
    5.6250   -6.7842    0.0000 C   0  0  0  0  0  0  0  0  0  0  0  0
    4.9112   -7.1978    0.0000 C   0  0  0  0  0  0  0  0  0  0  0  0
    4.9125   -8.0228    0.0000 C   0  0  0  0  0  0  0  0  0  0  0  0
    5.6276   -8.4342    0.0000 C   0  0  0  0  0  0  0  0  0  0  0  0
   10.6244   -5.5389    0.0000 O   0  0  0  0  0  0  0  0  0  0  0  0
    9.9080   -4.3025    0.0000 C   0  0  0  0  0  0  0  0  0  0  0  0
    9.1942   -4.7161    0.0000 O   0  0  0  0  0  0  0  0  0  0  0  0
    4.1987   -8.4364    0.0000 O   0  0  0  0  0  0  0  0  0  0  0  0
    4.9151   -9.6728    0.0000 C   0  0  0  0  0  0  0  0  0  0  0  0
    5.6289   -9.2591    0.0000 O   0  0  0  0  0  0  0  0  0  0  0  0
    3.4835   -8.0250    0.0000 C   0  0  0  0  0  0  0  0  0  0  0  0
  1  2  2  0  0  0  0
  2  3  1  0  0  0  0
  3  4  2  0  0  0  0
  4  5  1  0  0  0  0
  5  6  2  0  0  0  0
  6  1  1  0  0  0  0
  4  7  1  0  0  0  0
  7  8  2  0  0  0  0
  8  9  1  0  0  0  0
  9 10  1  0  0  0  0
 10  5  1  0  0  0  0
  7 11  1  0  0  0  0
 11 12  2  0  0  0  0
 12 13  1  0  0  0  0
 13 14  2  0  0  0  0
 14  8  1  0  0  0  0
 12 15  1  0  0  0  0
 15 16  2  0  0  0  0
 16 17  1  0  0  0  0
 17 18  2  0  0  0  0
 18 13  1  0  0  0  0
  1 19  1  0  0  0  0
 20 21  1  0  0  0  0
 21  2  1  0  0  0  0
 17 22  1  0  0  0  0
 23 24  1  0  0  0  0
 24 18  1  0  0  0  0
 22 25  1  0  0  0  0
M  CHG  1   8   1
M  END
>  <cdx:fragmentId>
5

$$$$
