91502.cdx
  Mrv1902 05222410192D          

 29 30  0  0  0  0            999 V2000
    3.7724   -7.2188    0.0000 C   0  0  0  0  0  0  0  0  0  0  0  0
    3.7724   -8.0437    0.0000 C   0  0  0  0  0  0  0  0  0  0  0  0
    4.4869   -8.4563    0.0000 C   0  0  0  0  0  0  0  0  0  0  0  0
    5.2014   -8.0437    0.0000 C   0  0  0  0  0  0  0  0  0  0  0  0
    5.2014   -7.2188    0.0000 C   0  0  0  0  0  0  0  0  0  0  0  0
    4.4869   -6.8062    0.0000 C   0  0  0  0  0  0  0  0  0  0  0  0
    3.0580   -6.8062    0.0000 O   0  0  0  0  0  0  0  0  0  0  0  0
    3.0580   -8.4563    0.0000 O   0  0  0  0  0  0  0  0  0  0  0  0
    5.9158   -6.8062    0.0000 C   0  0  0  0  0  0  0  0  0  0  0  0
    6.6303   -7.2188    0.0000 C   0  0  0  0  0  0  0  0  0  0  0  0
    7.3448   -6.8062    0.0000 O   0  0  0  0  0  0  0  0  0  0  0  0
    8.0593   -7.2188    0.0000 C   0  0  0  0  0  0  0  0  0  0  0  0
    8.0593   -8.0437    0.0000 O   0  0  0  0  0  0  0  0  0  0  0  0
    8.7737   -6.8062    0.0000 C   0  0  0  0  0  0  0  0  0  0  0  0
    9.4882   -7.2188    0.0000 C   0  0  2  0  0  0  0  0  0  0  0  0
   10.2027   -6.8062    0.0000 C   0  0  0  0  0  0  0  0  0  0  0  0
    9.4882   -8.0437    0.0000 C   0  0  0  0  0  0  0  0  0  0  0  0
   10.2027   -8.4563    0.0000 C   0  0  0  0  0  0  0  0  0  0  0  0
   10.9171   -8.0437    0.0000 O   0  0  0  0  0  0  0  0  0  0  0  0
   10.9171   -7.2188    0.0000 C   0  0  0  0  0  0  0  0  0  0  0  0
    8.7737   -8.4563    0.0000 C   0  0  0  0  0  0  0  0  0  0  0  0
    8.7737   -9.2813    0.0000 C   0  0  0  0  0  0  0  0  0  0  0  0
   10.2027   -9.2813    0.0000 O   0  0  0  0  0  0  0  0  0  0  0  0
    8.0593   -9.6937    0.0000 O   0  0  0  0  0  0  0  0  0  0  0  0
   10.2027   -5.9813    0.0000 C   0  0  0  0  0  0  0  0  0  0  0  0
   10.9171   -5.5687    0.0000 O   0  0  0  0  0  0  0  0  0  0  0  0
    9.4882   -5.5687    0.0000 O   0  0  0  0  0  0  0  0  0  0  0  0
   10.9171   -4.7438    0.0000 C   0  0  0  0  0  0  0  0  0  0  0  0
    9.4882   -6.3937    0.0000 H   0  0  0  0  0  0  0  0  0  0  0  0
  1  2  2  0  0  0  0
  2  3  1  0  0  0  0
  3  4  2  0  0  0  0
  4  5  1  0  0  0  0
  5  6  2  0  0  0  0
  6  1  1  0  0  0  0
  1  7  1  0  0  0  0
  2  8  1  0  0  0  0
  5  9  1  0  0  0  0
  9 10  1  0  0  0  0
 10 11  1  0  0  0  0
 11 12  1  0  0  0  0
 12 13  2  0  0  0  0
 12 14  1  0  0  0  0
 14 15  1  0  0  0  0
 15 16  1  0  0  0  0
 15 17  1  0  0  0  0
 17 18  1  0  0  0  0
 18 19  1  0  0  0  0
 19 20  1  0  0  0  0
 20 16  2  0  0  0  0
 17 21  2  0  0  0  0
 21 22  1  0  0  0  0
 23 18  1  0  0  0  0
 22 24  1  0  0  0  0
 16 25  1  0  0  0  0
 25 26  1  0  0  0  0
 25 27  2  0  0  0  0
 26 28  1  0  0  0  0
 15 29  1  1  0  0  0
M  END
>  <cdx:fragmentId>
5

$$$$
