91507.cdx
  Mrv1902 05222410192D          

 23 25  0  0  0  0            999 V2000
    6.0245   -7.9152    0.0000 C   0  0  2  0  0  0  0  0  0  0  0  0
    5.8355   -8.7183    0.0000 C   0  0  1  0  0  0  0  0  0  0  0  0
    6.3456   -9.3667    0.0000 C   0  0  2  0  0  0  0  0  0  0  0  0
    7.1706   -9.3722    0.0000 C   0  0  1  0  0  0  0  0  0  0  0  0
    7.6892   -8.7307    0.0000 C   0  0  0  0  0  0  0  0  0  0  0  0
    7.5110   -7.9252    0.0000 C   0  0  0  0  0  0  0  0  0  0  0  0
    6.7701   -7.5623    0.0000 C   0  0  0  0  0  0  0  0  0  0  0  0
    5.3191   -7.4874    0.0000 C   0  0  0  0  0  0  0  0  0  0  0  0
    4.6942   -8.0260    0.0000 C   0  0  0  0  0  0  0  0  0  0  0  0
    5.0134   -8.7868    0.0000 C   0  0  0  0  0  0  0  0  0  0  0  0
    6.0854  -10.1496    0.0000 O   0  0  0  0  0  0  0  0  0  0  0  0
    6.7496  -10.6390    0.0000 C   0  0  0  0  0  0  0  0  0  0  0  0
    7.4203  -10.1496    0.0000 C   0  0  2  0  0  0  0  0  0  0  0  0
    6.7756   -6.7373    0.0000 C   0  0  0  0  0  0  0  0  0  0  0  0
    4.5855   -9.4922    0.0000 C   0  0  0  0  0  0  0  0  0  0  0  0
    6.7477  -11.4640    0.0000 O   0  0  0  0  0  0  0  0  0  0  0  0
    8.2172   -9.9361    0.0000 C   0  0  0  0  0  0  0  0  0  0  0  0
    8.8005  -10.5195    0.0000 O   0  0  0  0  0  0  0  0  0  0  0  0
    6.5591   -8.5698    0.0000 H   0  0  0  0  0  0  0  0  0  0  0  0
    7.7762  -10.8939    0.0000 O   0  0  0  0  0  0  0  0  0  0  0  0
    6.9570   -8.5754    0.0000 H   0  0  0  0  0  0  0  0  0  0  0  0
    5.6220   -9.5152    0.0000 H   0  0  0  0  0  0  0  0  0  0  0  0
    6.2380   -7.1183    0.0000 H   0  0  0  0  0  0  0  0  0  0  0  0
  1  2  1  0  0  0  0
  2  3  1  0  0  0  0
  3  4  1  0  0  0  0
  4  5  1  0  0  0  0
  5  6  1  0  0  0  0
  6  7  1  0  0  0  0
  7  1  1  0  0  0  0
  1  8  1  0  0  0  0
  8  9  1  0  0  0  0
  9 10  1  0  0  0  0
 10  2  1  0  0  0  0
  3 11  1  0  0  0  0
 11 12  1  0  0  0  0
 12 13  1  0  0  0  0
 13  4  1  0  0  0  0
  7 14  2  0  0  0  0
 10 15  2  0  0  0  0
 12 16  2  0  0  0  0
 13 17  1  1  0  0  0
 17 18  1  0  0  0  0
  3 19  1  1  0  0  0
 13 20  1  6  0  0  0
  4 21  1  6  0  0  0
  2 22  1  6  0  0  0
  1 23  1  6  0  0  0
M  END
>  <cdx:fragmentId>
5

$$$$
