91509.cdx
  Mrv1902 05222410282D          

 34 33  0  0  0  0            999 V2000
    3.7987  -14.8550    0.0000 C   0  0  0  0  0  0  0  0  0  0  0  0
    4.3143  -14.4430    0.0000 C   0  0  0  0  0  0  0  0  0  0  0  0
    4.2153  -13.7905    0.0000 C   0  0  0  0  0  0  0  0  0  0  0  0
    4.7310  -13.3785    0.0000 C   0  0  0  0  0  0  0  0  0  0  0  0
    4.6320  -12.7260    0.0000 C   0  0  0  0  0  0  0  0  0  0  0  0
    5.1476  -12.3140    0.0000 C   0  0  0  0  0  0  0  0  0  0  0  0
    5.0487  -11.6615    0.0000 C   0  0  0  0  0  0  0  0  0  0  0  0
    5.5643  -11.2495    0.0000 C   0  0  0  0  0  0  0  0  0  0  0  0
    5.4654  -10.5970    0.0000 C   0  0  0  0  0  0  0  0  0  0  0  0
    5.9810  -10.1850    0.0000 C   0  0  0  0  0  0  0  0  0  0  0  0
    5.8821   -9.5324    0.0000 C   0  0  0  0  0  0  0  0  0  0  0  0
    1.4572   -6.0176    0.0000 C   0  0  0  0  0  0  0  0  0  0  0  0
    1.6913   -6.6347    0.0000 C   0  0  0  0  0  0  0  0  0  0  0  0
    2.3428   -6.7405    0.0000 C   0  0  0  0  0  0  0  0  0  0  0  0
    2.5769   -7.3575    0.0000 C   0  0  0  0  0  0  0  0  0  0  0  0
    3.2284   -7.4633    0.0000 C   0  0  0  0  0  0  0  0  0  0  0  0
    3.4625   -8.0804    0.0000 C   0  0  0  0  0  0  0  0  0  0  0  0
    4.1139   -8.1862    0.0000 C   0  0  0  0  0  0  0  0  0  0  0  0
    4.3480   -8.8033    0.0000 C   0  0  0  0  0  0  0  0  0  0  0  0
    4.9995   -8.9091    0.0000 C   0  0  0  0  0  0  0  0  0  0  0  0
    5.2336   -9.5262    0.0000 C   0  0  0  0  0  0  0  0  0  0  0  0
   11.5438   -8.8049    0.0000 C   0  0  0  0  0  0  0  0  0  0  0  0
   10.9318   -8.5578    0.0000 C   0  0  0  0  0  0  0  0  0  0  0  0
   10.4118   -8.9643    0.0000 C   0  0  0  0  0  0  0  0  0  0  0  0
    9.7998   -8.7172    0.0000 C   0  0  0  0  0  0  0  0  0  0  0  0
    9.2799   -9.1236    0.0000 C   0  0  0  0  0  0  0  0  0  0  0  0
    8.6679   -8.8766    0.0000 C   0  0  0  0  0  0  0  0  0  0  0  0
    8.1479   -9.2830    0.0000 C   0  0  0  0  0  0  0  0  0  0  0  0
    7.5359   -9.0359    0.0000 C   0  0  0  0  0  0  0  0  0  0  0  0
    7.0159   -9.4424    0.0000 C   0  0  0  0  0  0  0  0  0  0  0  0
    6.4039   -9.1953    0.0000 C   0  0  0  0  0  0  0  0  0  0  0  0
   12.0638   -8.3984    0.0000 C   0  0  0  0  0  0  0  0  0  0  0  0
   12.6758   -8.6455    0.0000 C   0  0  0  0  0  0  0  0  0  0  0  0
   13.1958   -8.2391    0.0000 C   0  0  0  0  0  0  0  0  0  0  0  0
  1  2  1  0  0  0  0
  2  3  1  0  0  0  0
  3  4  1  0  0  0  0
  4  5  1  0  0  0  0
  5  6  1  0  0  0  0
  6  7  1  0  0  0  0
  7  8  1  0  0  0  0
  8  9  1  0  0  0  0
  9 10  1  0  0  0  0
 10 11  1  0  0  0  0
 12 13  1  0  0  0  0
 13 14  1  0  0  0  0
 14 15  1  0  0  0  0
 15 16  1  0  0  0  0
 16 17  1  0  0  0  0
 17 18  1  0  0  0  0
 18 19  1  0  0  0  0
 19 20  1  0  0  0  0
 20 21  1  0  0  0  0
 22 23  1  0  0  0  0
 23 24  1  0  0  0  0
 24 25  1  0  0  0  0
 25 26  1  0  0  0  0
 26 27  1  0  0  0  0
 27 28  1  0  0  0  0
 28 29  1  0  0  0  0
 29 30  1  0  0  0  0
 30 31  1  0  0  0  0
 21 11  1  0  0  0  0
 31 11  1  0  0  0  0
 22 32  1  0  0  0  0
 32 33  1  0  0  0  0
 33 34  1  0  0  0  0
M  END
>  <cdx:fragmentId>
3

$$$$
