91504.cdx
  Mrv1902 05222410182D          

 18 20  0  0  0  0            999 V2000
    7.1160   -6.8051    0.0000 C   0  0  0  0  0  0  0  0  0  0  0  0
    7.1160   -7.6301    0.0000 C   0  0  0  0  0  0  0  0  0  0  0  0
    7.7610   -8.1445    0.0000 C   0  0  2  0  0  0  0  0  0  0  0  0
    8.5653   -7.9609    0.0000 C   0  0  0  0  0  0  0  0  0  0  0  0
    8.9232   -7.2176    0.0000 C   0  0  0  0  0  0  0  0  0  0  0  0
    8.5653   -6.4744    0.0000 C   0  0  0  0  0  0  0  0  0  0  0  0
    7.7610   -6.2908    0.0000 C   0  0  0  0  0  0  0  0  0  0  0  0
    6.3313   -6.5502    0.0000 C   0  0  0  0  0  0  0  0  0  0  0  0
    5.8464   -7.2176    0.0000 C   0  0  1  0  0  0  0  0  0  0  0  0
    6.3313   -7.8851    0.0000 C   0  0  0  0  0  0  0  0  0  0  0  0
    7.6870   -8.9662    0.0000 O   0  0  0  0  0  0  0  0  0  0  0  0
    8.4456   -9.2905    0.0000 C   0  0  0  0  0  0  0  0  0  0  0  0
    8.9884   -8.6692    0.0000 C   0  0  2  0  0  0  0  0  0  0  0  0
    7.5774   -5.4865    0.0000 C   0  0  0  0  0  0  0  0  0  0  0  0
    6.0764   -8.6697    0.0000 C   0  0  0  0  0  0  0  0  0  0  0  0
    8.6292  -10.0948    0.0000 O   0  0  0  0  0  0  0  0  0  0  0  0
    9.8101   -8.7431    0.0000 C   0  0  0  0  0  0  0  0  0  0  0  0
    5.0214   -7.2176    0.0000 O   0  0  0  0  0  0  0  0  0  0  0  0
  1  2  1  0  0  0  0
  2  3  1  0  0  0  0
  3  4  1  0  0  0  0
  4  5  1  0  0  0  0
  5  6  1  0  0  0  0
  6  7  1  0  0  0  0
  7  1  1  0  0  0  0
  1  8  1  0  0  0  0
  8  9  1  0  0  0  0
  9 10  1  0  0  0  0
 10  2  1  0  0  0  0
  3 11  1  6  0  0  0
 11 12  1  0  0  0  0
 12 13  1  0  0  0  0
 13  4  1  0  0  0  0
  7 14  2  0  0  0  0
 10 15  2  0  0  0  0
 12 16  2  0  0  0  0
 13 17  1  1  0  0  0
  9 18  1  1  0  0  0
M  END
>  <cdx:fragmentId>
5

$$$$
