91506.cdx
  Mrv1902 05222410192D          

 39 43  0  0  0  0            999 V2000
    5.4706  -10.3389    0.0000 C   0  0  0  0  0  0  0  0  0  0  0  0
    5.4706  -11.1639    0.0000 C   0  0  1  0  0  0  0  0  0  0  0  0
    6.1850  -11.5764    0.0000 C   0  0  0  0  0  0  0  0  0  0  0  0
    6.8995  -11.1639    0.0000 C   0  0  0  0  0  0  0  0  0  0  0  0
    6.8995  -10.3389    0.0000 C   0  0  2  0  0  0  0  0  0  0  0  0
    6.1850   -9.9264    0.0000 C   0  0  0  0  0  0  0  0  0  0  0  0
    7.6140  -11.5764    0.0000 C   0  0  0  0  0  0  0  0  0  0  0  0
    8.3284  -11.1639    0.0000 C   0  0  0  0  0  0  0  0  0  0  0  0
    8.3284  -10.3389    0.0000 C   0  0  2  0  0  0  0  0  0  0  0  0
    7.6140   -9.9264    0.0000 C   0  0  2  0  0  0  0  0  0  0  0  0
    9.0429   -9.9264    0.0000 C   0  0  2  0  0  0  0  0  0  0  0  0
    9.0429   -9.1014    0.0000 C   0  0  2  0  0  0  0  0  0  0  0  0
    8.3284   -8.6889    0.0000 C   0  0  1  0  0  0  0  0  0  0  0  0
    7.6140   -9.1014    0.0000 C   0  0  1  0  0  0  0  0  0  0  0  0
    9.8275  -10.1813    0.0000 C   0  0  0  0  0  0  0  0  0  0  0  0
   10.3125   -9.5139    0.0000 C   0  0  0  0  0  0  0  0  0  0  0  0
    9.8275   -8.8465    0.0000 C   0  0  1  0  0  0  0  0  0  0  0  0
    4.7561  -11.5764    0.0000 O   0  0  0  0  0  0  0  0  0  0  0  0
    6.8995   -9.5139    0.0000 C   0  0  0  0  0  0  0  0  0  0  0  0
    9.0429  -10.7514    0.0000 O   0  0  0  0  0  0  0  0  0  0  0  0
    8.3284   -7.8639    0.0000 O   0  0  0  0  0  0  0  0  0  0  0  0
    9.1291   -8.2809    0.0000 C   0  0  0  0  0  0  0  0  0  0  0  0
   10.0825   -8.0618    0.0000 C   0  0  0  0  0  0  0  0  0  0  0  0
    6.8995   -8.6889    0.0000 O   0  0  0  0  0  0  0  0  0  0  0  0
    7.6140  -10.7514    0.0000 H   0  0  0  0  0  0  0  0  0  0  0  0
    9.5304   -7.4487    0.0000 C   0  0  0  0  0  0  0  0  0  0  0  0
   10.8894   -7.8903    0.0000 O   0  0  0  0  0  0  0  0  0  0  0  0
    6.1850   -8.2764    0.0000 C   0  0  0  0  0  0  0  0  0  0  0  0
    6.1850   -7.4514    0.0000 O   0  0  0  0  0  0  0  0  0  0  0  0
    5.4706   -8.6889    0.0000 C   0  0  0  0  0  0  0  0  0  0  0  0
    4.7561   -8.2764    0.0000 C   0  0  0  0  0  0  0  0  0  0  0  0
    5.4706   -9.5139    0.0000 C   0  0  0  0  0  0  0  0  0  0  0  0
    4.0416   -8.6889    0.0000 C   0  0  0  0  0  0  0  0  0  0  0  0
    8.3284   -7.0389    0.0000 C   0  0  0  0  0  0  0  0  0  0  0  0
    9.0429   -6.6264    0.0000 O   0  0  0  0  0  0  0  0  0  0  0  0
    7.6140   -6.6264    0.0000 C   0  0  0  0  0  0  0  0  0  0  0  0
    6.8995   -7.0389    0.0000 C   0  0  0  0  0  0  0  0  0  0  0  0
    7.6140   -5.8014    0.0000 C   0  0  0  0  0  0  0  0  0  0  0  0
    6.8995   -5.3889    0.0000 C   0  0  0  0  0  0  0  0  0  0  0  0
  1  2  1  0  0  0  0
  2  3  1  0  0  0  0
  3  4  1  0  0  0  0
  4  5  1  0  0  0  0
  5  6  1  0  0  0  0
  6  1  1  0  0  0  0
  4  7  1  0  0  0  0
  7  8  1  0  0  0  0
  8  9  1  0  0  0  0
  9 10  1  0  0  0  0
 10  5  1  0  0  0  0
  9 11  1  0  0  0  0
 11 12  1  0  0  0  0
 12 13  1  0  0  0  0
 13 14  1  0  0  0  0
 14 10  1  0  0  0  0
 11 15  1  0  0  0  0
 15 16  1  0  0  0  0
 16 17  1  0  0  0  0
 17 12  1  0  0  0  0
  2 18  1  1  0  0  0
  5 19  1  1  0  0  0
  9 20  1  1  0  0  0
 11 20  1  1  0  0  0
 13 21  1  1  0  0  0
 12 22  1  1  0  0  0
 17 23  1  6  0  0  0
 14 24  1  6  0  0  0
 10 25  1  6  0  0  0
 23 26  1  0  0  0  0
 23 27  2  0  0  0  0
 24 28  1  0  0  0  0
 28 29  2  0  0  0  0
 28 30  1  0  0  0  0
 30 31  2  0  0  0  0
 30 32  1  0  0  0  0
 31 33  1  0  0  0  0
 21 34  1  0  0  0  0
 34 35  2  0  0  0  0
 34 36  1  0  0  0  0
 36 37  1  0  0  0  0
 36 38  2  0  0  0  0
 38 39  1  0  0  0  0
M  END
>  <cdx:fragmentId>
5

$$$$
