91516.cdx
  Mrv1902 05222410192D          

 21 24  0  0  0  0            999 V2000
    6.1443   -6.4614    0.0000 C   0  0  0  0  0  0  0  0  0  0  0  0
    6.1443   -7.2864    0.0000 C   0  0  0  0  0  0  0  0  0  0  0  0
    6.8588   -7.6989    0.0000 C   0  0  0  0  0  0  0  0  0  0  0  0
    7.5732   -7.2864    0.0000 C   0  0  0  0  0  0  0  0  0  0  0  0
    7.5732   -6.4614    0.0000 C   0  0  0  0  0  0  0  0  0  0  0  0
    6.8588   -6.0489    0.0000 N   0  0  0  0  0  0  0  0  0  0  0  0
    8.2877   -7.6989    0.0000 C   0  0  1  0  0  0  0  0  0  0  0  0
    9.0022   -7.2864    0.0000 C   0  0  1  0  0  0  0  0  0  0  0  0
    9.0022   -6.4614    0.0000 C   0  0  2  0  0  0  0  0  0  0  0  0
    8.2877   -6.0489    0.0000 C   0  0  0  0  0  0  0  0  0  0  0  0
    8.2877   -8.5239    0.0000 N   0  0  0  0  0  0  0  0  0  0  0  0
    9.0022   -8.9364    0.0000 C   0  0  0  0  0  0  0  0  0  0  0  0
    9.7167   -8.5239    0.0000 C   0  0  0  0  0  0  0  0  0  0  0  0
    9.7167   -7.6989    0.0000 C   0  0  0  0  0  0  0  0  0  0  0  0
    5.4298   -6.0489    0.0000 O   0  0  0  0  0  0  0  0  0  0  0  0
    7.9200   -7.1775    0.0000 C   0  0  0  0  0  0  0  0  0  0  0  0
    8.3875   -6.3525    0.0000 C   0  0  0  0  0  0  0  0  0  0  0  0
    7.9200   -6.7650    0.0000 C   0  0  1  0  0  0  0  0  0  0  0  0
    9.7167   -6.8739    0.0000 H   0  0  0  0  0  0  0  0  0  0  0  0
    9.5856   -5.8780    0.0000 H   0  0  0  0  0  0  0  0  0  0  0  0
    7.7065   -5.9681    0.0000 C   0  0  0  0  0  0  0  0  0  0  0  0
  1  2  1  0  0  0  0
  2  3  1  0  0  0  0
  3  4  1  0  0  0  0
  4  5  2  0  0  0  0
  5  6  1  0  0  0  0
  6  1  1  0  0  0  0
  4  7  1  0  0  0  0
  7  8  1  0  0  0  0
  8  9  1  0  0  0  0
  9 10  1  0  0  0  0
 10  5  1  0  0  0  0
  7 11  1  6  0  0  0
 11 12  1  0  0  0  0
 12 13  1  0  0  0  0
 13 14  1  0  0  0  0
 14  8  1  0  0  0  0
  1 15  2  0  0  0  0
  7 16  1  0  0  0  0
  9 17  1  0  0  0  0
 16 18  1  0  0  0  0
 18 17  1  0  0  0  0
  8 19  1  6  0  0  0
  9 20  1  6  0  0  0
 18 21  1  6  0  0  0
M  END
>  <cdx:fragmentId>
95

$$$$
