91517.cdx
  Mrv1902 05222410192D          

 21 24  0  0  0  0            999 V2000
    5.1406   -6.7914    0.0000 C   0  0  0  0  0  0  0  0  0  0  0  0
    5.1406   -7.6164    0.0000 C   0  0  0  0  0  0  0  0  0  0  0  0
    5.8550   -8.0289    0.0000 N   0  0  0  0  0  0  0  0  0  0  0  0
    6.5695   -7.6164    0.0000 C   0  0  0  0  0  0  0  0  0  0  0  0
    6.5695   -6.7914    0.0000 C   0  0  0  0  0  0  0  0  0  0  0  0
    5.8550   -6.3789    0.0000 C   0  0  0  0  0  0  0  0  0  0  0  0
    7.2840   -8.0289    0.0000 C   0  0  0  0  0  0  0  0  0  0  0  0
    7.9984   -7.6164    0.0000 C   0  0  0  0  0  0  0  0  0  0  0  0
    7.9984   -6.7914    0.0000 C   0  0  0  0  0  0  0  0  0  0  0  0
    7.2840   -6.3789    0.0000 C   0  0  0  0  0  0  0  0  0  0  0  0
    7.2840   -8.8539    0.0000 C   0  0  0  0  0  0  0  0  0  0  0  0
    7.9984   -9.2664    0.0000 C   0  0  0  0  0  0  0  0  0  0  0  0
    8.7129   -8.8539    0.0000 C   0  0  0  0  0  0  0  0  0  0  0  0
    8.7129   -8.0289    0.0000 N   0  0  0  0  0  0  0  0  0  0  0  0
    9.4274   -9.2664    0.0000 O   0  0  0  0  0  0  0  0  0  0  0  0
    7.2840   -5.5539    0.0000 C   0  0  0  0  0  0  0  0  0  0  0  0
    6.4590   -5.5539    0.0000 C   0  0  0  0  0  0  0  0  0  0  0  0
    6.0465   -4.8394    0.0000 C   0  0  0  0  0  0  0  0  0  0  0  0
    5.9788   -7.0801    0.0000 C   0  0  0  0  0  0  0  0  0  0  0  0
    5.8550   -8.8539    0.0000 C   0  0  0  0  0  0  0  0  0  0  0  0
    6.5695   -9.2664    0.0000 C   0  0  0  0  0  0  0  0  0  0  0  0
  1  2  1  0  0  0  0
  2  3  1  0  0  0  0
  3  4  1  0  0  0  0
  4  5  1  0  0  0  0
  5  6  1  0  0  0  0
  6  1  1  0  0  0  0
  4  7  1  0  0  0  0
  7  8  2  0  0  0  0
  8  9  1  0  0  0  0
  9 10  1  0  0  0  0
 10  5  1  0  0  0  0
  7 11  1  0  0  0  0
 12 13  1  0  0  0  0
 13 14  1  0  0  0  0
 14  8  1  0  0  0  0
 13 15  2  0  0  0  0
 10 16  1  0  0  0  0
 16 17  1  0  0  0  0
 17 18  1  0  0  0  0
  4 19  1  0  0  0  0
 17 19  1  0  0  0  0
  3 20  1  0  0  0  0
 20 21  1  0  0  0  0
 21 11  1  0  0  0  0
M  END
>  <cdx:fragmentId>
5

$$$$
