91510.cdx
  Mrv1902 05222410182D          

 23 27  0  0  0  0            999 V2000
    6.4187   -5.8514    0.0000 H   0  0  0  0  0  0  0  0  0  0  0  0
    8.5203   -7.1414    0.0000 H   0  0  0  0  0  0  0  0  0  0  0  0
    4.1716   -7.9266    0.0000 O   0  0  0  0  0  0  0  0  0  0  0  0
    7.7537   -7.6104    0.0000 C   0  0  0  0  0  0  0  0  0  0  0  0
    7.0284   -8.0035    0.0000 O   0  0  0  0  0  0  0  0  0  0  0  0
    6.3253   -7.5719    0.0000 C   0  0  0  0  0  0  0  0  0  0  0  0
    5.6000   -7.9651    0.0000 C   0  0  0  0  0  0  0  0  0  0  0  0
    4.8969   -7.5335    0.0000 C   0  0  0  0  0  0  0  0  0  0  0  0
    4.9191   -6.7088    0.0000 C   0  0  0  0  0  0  0  0  0  0  0  0
    5.6444   -6.3157    0.0000 C   0  0  0  0  0  0  0  0  0  0  0  0
    6.3475   -6.7472    0.0000 C   0  0  0  0  0  0  0  0  0  0  0  0
    7.0728   -6.3541    0.0000 C   0  0  2  0  0  0  0  0  0  0  0  0
    7.2660   -5.5520    0.0000 O   0  0  0  0  0  0  0  0  0  0  0  0
    8.0885   -5.4879    0.0000 C   0  0  0  0  0  0  0  0  0  0  0  0
    8.5912   -4.8337    0.0000 C   0  0  0  0  0  0  0  0  0  0  0  0
    9.4091   -4.9420    0.0000 C   0  0  0  0  0  0  0  0  0  0  0  0
   10.0368   -4.4067    0.0000 O   0  0  0  0  0  0  0  0  0  0  0  0
   10.7399   -4.8382    0.0000 C   0  0  0  0  0  0  0  0  0  0  0  0
   10.5467   -5.6403    0.0000 O   0  0  0  0  0  0  0  0  0  0  0  0
    9.7242   -5.7044    0.0000 C   0  0  0  0  0  0  0  0  0  0  0  0
    9.2215   -6.3586    0.0000 C   0  0  0  0  0  0  0  0  0  0  0  0
    8.4037   -6.2503    0.0000 C   0  0  0  0  0  0  0  0  0  0  0  0
    7.7759   -6.7857    0.0000 C   0  0  2  0  0  0  0  0  0  0  0  0
 12  1  1  1  0  0  0
 23  2  1  1  0  0  0
  8  3  1  0  0  0  0
 20 16  2  0  0  0  0
 22 14  1  0  0  0  0
 11  6  2  0  0  0  0
 23 12  1  0  0  0  0
 23  4  1  0  0  0  0
  5  4  1  0  0  0  0
  6  5  1  0  0  0  0
  7  6  1  0  0  0  0
  8  7  2  0  0  0  0
  9  8  1  0  0  0  0
 10  9  2  0  0  0  0
 11 10  1  0  0  0  0
 12 11  1  0  0  0  0
 13 12  1  0  0  0  0
 14 13  1  0  0  0  0
 15 14  2  0  0  0  0
 16 15  1  0  0  0  0
 17 16  1  0  0  0  0
 18 17  1  0  0  0  0
 19 18  1  0  0  0  0
 20 19  1  0  0  0  0
 21 20  1  0  0  0  0
 22 21  2  0  0  0  0
 23 22  1  0  0  0  0
M  END
>  <cdx:fragmentId>
5

$$$$
