91514.cdx
  Mrv1902 05222410202D          

 21 24  0  0  0  0            999 V2000
    4.8381   -6.9151    0.0000 C   0  0  0  0  0  0  0  0  0  0  0  0
    4.8381   -7.7401    0.0000 C   0  0  0  0  0  0  0  0  0  0  0  0
    5.5525   -8.1526    0.0000 C   0  0  0  0  0  0  0  0  0  0  0  0
    6.2670   -7.7401    0.0000 C   0  0  0  0  0  0  0  0  0  0  0  0
    6.2670   -6.9151    0.0000 C   0  0  0  0  0  0  0  0  0  0  0  0
    5.5525   -6.5026    0.0000 C   0  0  0  0  0  0  0  0  0  0  0  0
    7.0516   -7.9951    0.0000 C   0  0  0  0  0  0  0  0  0  0  0  0
    7.5365   -7.3276    0.0000 C   0  0  0  0  0  0  0  0  0  0  0  0
    7.0516   -6.6602    0.0000 C   0  0  0  0  0  0  0  0  0  0  0  0
    5.7821   -8.4076    0.0000 C   0  0  0  0  0  0  0  0  0  0  0  0
    6.2670   -9.0750    0.0000 C   0  0  0  0  0  0  0  0  0  0  0  0
    7.0516   -8.8201    0.0000 C   0  0  0  0  0  0  0  0  0  0  0  0
    6.0955   -9.8820    0.0000 C   0  0  0  0  0  0  0  0  0  0  0  0
    6.7086  -10.4340    0.0000 N   0  0  0  0  0  0  0  0  0  0  0  0
    7.4932  -10.1791    0.0000 C   0  0  0  0  0  0  0  0  0  0  0  0
    7.6647   -9.3721    0.0000 C   0  0  0  0  0  0  0  0  0  0  0  0
    4.1236   -6.5026    0.0000 C   0  0  0  0  0  0  0  0  0  0  0  0
    4.1236   -8.1526    0.0000 O   0  0  0  0  0  0  0  0  0  0  0  0
    5.5525   -8.9776    0.0000 O   0  0  0  0  0  0  0  0  0  0  0  0
    8.3615   -7.3276    0.0000 O   0  0  0  0  0  0  0  0  0  0  0  0
    6.5370  -11.2410    0.0000 C   0  0  0  0  0  0  0  0  0  0  0  0
  1  2  1  0  0  0  0
  2  3  1  0  0  0  0
  3  4  1  0  0  0  0
  4  5  1  0  0  0  0
  5  6  1  0  0  0  0
  6  1  1  0  0  0  0
  4  7  1  0  0  0  0
  7  8  1  0  0  0  0
  8  9  1  0  0  0  0
  9  5  1  0  0  0  0
  4 10  1  0  0  0  0
 10 11  1  0  0  0  0
 11 12  1  0  0  0  0
 12  7  1  0  0  0  0
 11 13  1  0  0  0  0
 13 14  1  0  0  0  0
 14 15  1  0  0  0  0
 15 16  1  0  0  0  0
 16 12  1  0  0  0  0
  1 17  1  0  0  0  0
  2 18  1  0  0  0  0
  3 19  2  0  0  0  0
  8 20  2  0  0  0  0
 14 21  1  0  0  0  0
M  END
>  <cdx:fragmentId>
5

$$$$
