91519.cdx
  Mrv1902 05222410262D          

 22 24  0  0  0  0            999 V2000
    5.4568  -10.5589    0.0000 C   0  0  0  0  0  0  0  0  0  0  0  0
    5.4568  -11.3839    0.0000 C   0  0  0  0  0  0  0  0  0  0  0  0
    6.1713  -11.7964    0.0000 N   0  0  0  0  0  0  0  0  0  0  0  0
    6.8857  -11.3839    0.0000 C   0  0  0  0  0  0  0  0  0  0  0  0
    6.8857  -10.5589    0.0000 C   0  0  0  0  0  0  0  0  0  0  0  0
    6.1713  -10.1464    0.0000 C   0  0  0  0  0  0  0  0  0  0  0  0
    7.6002  -11.7964    0.0000 C   0  0  0  0  0  0  0  0  0  0  0  0
    8.3147  -11.3839    0.0000 C   0  0  0  0  0  0  0  0  0  0  0  0
    8.3147  -10.5589    0.0000 C   0  0  0  0  0  0  0  0  0  0  0  0
    7.6002  -10.1464    0.0000 C   0  0  0  0  0  0  0  0  0  0  0  0
    6.1713  -12.6214    0.0000 C   0  0  0  0  0  0  0  0  0  0  0  0
    6.8857  -13.0339    0.0000 O   0  0  0  0  0  0  0  0  0  0  0  0
    9.0292  -10.1464    0.0000 C   0  0  0  0  0  0  0  0  0  0  0  0
    9.0292   -9.3214    0.0000 N   0  0  0  0  0  0  0  0  0  0  0  0
    8.3147   -8.9089    0.0000 C   0  0  0  0  0  0  0  0  0  0  0  0
    7.6002   -9.3214    0.0000 C   0  0  0  0  0  0  0  0  0  0  0  0
    9.7436   -8.9089    0.0000 C   0  0  0  0  0  0  0  0  0  0  0  0
    9.7436   -8.0839    0.0000 C   0  0  0  0  0  0  0  0  0  0  0  0
    9.0292   -7.6714    0.0000 C   0  0  0  0  0  0  0  0  0  0  0  0
    8.3147   -8.0839    0.0000 C   0  0  0  0  0  0  0  0  0  0  0  0
    9.0292  -11.7964    0.0000 C   0  0  0  0  0  0  0  0  0  0  0  0
    5.4568  -13.0339    0.0000 C   0  0  0  0  0  0  0  0  0  0  0  0
  1  2  1  0  0  0  0
  2  3  1  0  0  0  0
  3  4  1  0  0  0  0
  4  5  1  0  0  0  0
  5  6  1  0  0  0  0
  6  1  1  0  0  0  0
  4  7  1  0  0  0  0
  7  8  1  0  0  0  0
  8  9  1  0  0  0  0
  9 10  1  0  0  0  0
 10  5  1  0  0  0  0
  3 11  1  0  0  0  0
 11 12  2  0  0  0  0
 13 14  1  0  0  0  0
 14 15  1  0  0  0  0
 15 16  1  0  0  0  0
 16 10  1  0  0  0  0
 14 17  1  0  0  0  0
 17 18  1  0  0  0  0
 18 19  1  0  0  0  0
 19 20  1  0  0  0  0
 20 15  1  0  0  0  0
  8 21  1  0  0  0  0
 11 22  1  0  0  0  0
M  END
>  <cdx:fragmentId>
5

$$$$
