91511.cdx
  Mrv1902 05222410182D          

 20 22  0  0  0  0            999 V2000
    5.9747   -7.1764    0.0000 C   0  0  2  0  0  0  0  0  0  0  0  0
    5.9747   -8.0014    0.0000 C   0  0  1  0  0  0  0  0  0  0  0  0
    6.6197   -8.5158    0.0000 C   0  0  2  0  0  0  0  0  0  0  0  0
    7.4240   -8.3322    0.0000 C   0  0  0  0  0  0  0  0  0  0  0  0
    7.7820   -7.5889    0.0000 C   0  0  0  0  0  0  0  0  0  0  0  0
    7.4240   -6.8456    0.0000 C   0  0  0  0  0  0  0  0  0  0  0  0
    6.6197   -6.6620    0.0000 C   0  0  0  0  0  0  0  0  0  0  0  0
    5.1901   -6.9215    0.0000 C   0  0  0  0  0  0  0  0  0  0  0  0
    4.7052   -7.5889    0.0000 C   0  0  2  0  0  0  0  0  0  0  0  0
    5.1901   -8.2563    0.0000 C   0  0  0  0  0  0  0  0  0  0  0  0
    6.5458   -9.3375    0.0000 O   0  0  0  0  0  0  0  0  0  0  0  0
    7.3044   -9.6617    0.0000 C   0  0  0  0  0  0  0  0  0  0  0  0
    7.8472   -9.0404    0.0000 C   0  0  1  0  0  0  0  0  0  0  0  0
    6.4361   -5.8577    0.0000 C   0  0  0  0  0  0  0  0  0  0  0  0
    8.6689   -9.1144    0.0000 C   0  0  0  0  0  0  0  0  0  0  0  0
    7.4880  -10.4660    0.0000 O   0  0  0  0  0  0  0  0  0  0  0  0
    4.9351   -9.0410    0.0000 C   0  0  0  0  0  0  0  0  0  0  0  0
    3.8802   -7.5889    0.0000 O   0  0  0  0  0  0  0  0  0  0  0  0
    5.7612   -6.3795    0.0000 H   0  0  0  0  0  0  0  0  0  0  0  0
    5.7612   -8.7983    0.0000 H   0  0  0  0  0  0  0  0  0  0  0  0
  1  2  1  0  0  0  0
  2  3  1  0  0  0  0
  3  4  1  0  0  0  0
  4  5  1  0  0  0  0
  5  6  1  0  0  0  0
  6  7  1  0  0  0  0
  7  1  1  0  0  0  0
  1  8  1  0  0  0  0
  8  9  1  0  0  0  0
  9 10  1  0  0  0  0
 10  2  1  0  0  0  0
  3 11  1  6  0  0  0
 11 12  1  0  0  0  0
 12 13  1  0  0  0  0
 13  4  1  0  0  0  0
  7 14  2  0  0  0  0
 13 15  1  6  0  0  0
 12 16  2  0  0  0  0
 10 17  2  0  0  0  0
  9 18  1  6  0  0  0
  1 19  1  6  0  0  0
  2 20  1  6  0  0  0
M  END
>  <cdx:fragmentId>
66

$$$$
