91523.cdx
  Mrv1902 05222410272D          

 15 16  0  0  0  0            999 V2000
    5.8281   -7.4239    0.0000 C   0  0  0  0  0  0  0  0  0  0  0  0
    5.8281   -8.2489    0.0000 C   0  0  0  0  0  0  0  0  0  0  0  0
    6.5425   -8.6614    0.0000 C   0  0  2  0  0  0  0  0  0  0  0  0
    7.2570   -8.2489    0.0000 C   0  0  0  0  0  0  0  0  0  0  0  0
    7.2570   -7.4239    0.0000 C   0  0  0  0  0  0  0  0  0  0  0  0
    6.5425   -7.0114    0.0000 C   0  0  0  0  0  0  0  0  0  0  0  0
    5.8281   -9.0739    0.0000 C   0  0  0  0  0  0  0  0  0  0  0  0
    5.8281   -9.8989    0.0000 C   0  0  0  0  0  0  0  0  0  0  0  0
    6.5425  -10.3114    0.0000 C   0  0  0  0  0  0  0  0  0  0  0  0
    7.2570   -9.8989    0.0000 C   0  0  0  0  0  0  0  0  0  0  0  0
    7.2570   -9.0739    0.0000 C   0  0  0  0  0  0  0  0  0  0  0  0
    7.9715   -8.6614    0.0000 C   0  0  0  0  0  0  0  0  0  0  0  0
    6.5425  -11.1364    0.0000 C   0  0  0  0  0  0  0  0  0  0  0  0
    5.2447   -8.8323    0.0000 C   0  0  0  0  0  0  0  0  0  0  0  0
    5.0312   -8.0354    0.0000 C   0  0  0  0  0  0  0  0  0  0  0  0
  1  2  1  0  0  0  0
  2  3  1  0  0  0  0
  3  4  1  0  0  0  0
  4  5  2  0  0  0  0
  5  6  1  0  0  0  0
  6  1  1  0  0  0  0
  3  7  1  0  0  0  0
  7  8  1  0  0  0  0
  8  9  2  0  0  0  0
  9 10  1  0  0  0  0
 10 11  1  0  0  0  0
  3 11  1  1  0  0  0
  4 12  1  0  0  0  0
  9 13  1  0  0  0  0
  2 14  1  0  0  0  0
  2 15  1  0  0  0  0
M  END
>  <cdx:fragmentId>
5

$$$$
