91529.cdx
  Mrv1902 05222410202D          

 40 44  0  0  0  0            999 V2000
   12.0463   -6.3206    0.0000 C   0  0  0  0  0  0  0  0  0  0  0  0
    6.1879  -13.4365    0.0000 O   0  0  0  0  0  0  0  0  0  0  0  0
    6.1717  -12.6116    0.0000 C   0  0  0  0  0  0  0  0  0  0  0  0
    5.4494  -12.2132    0.0000 C   0  0  0  0  0  0  0  0  0  0  0  0
    4.7431  -12.6395    0.0000 C   0  0  0  0  0  0  0  0  0  0  0  0
    1.8857  -12.6954    0.0000 O   0  0  0  0  0  0  0  0  0  0  0  0
    1.8535  -11.0457    0.0000 O   0  0  0  0  0  0  0  0  0  0  0  0
    3.2822  -11.0178    0.0000 C   0  0  0  0  0  0  0  0  0  0  0  0
    2.5759  -11.4441    0.0000 C   0  0  0  0  0  0  0  0  0  0  0  0
    2.5920  -12.2690    0.0000 C   0  0  0  0  0  0  0  0  0  0  0  0
    3.3144  -12.6675    0.0000 C   0  0  0  0  0  0  0  0  0  0  0  0
    4.0207  -12.2411    0.0000 C   0  0  0  0  0  0  0  0  0  0  0  0
    4.0046  -11.4162    0.0000 C   0  0  0  0  0  0  0  0  0  0  0  0
    9.3147  -11.8124    0.0000 C   0  0  0  0  0  0  0  0  0  0  0  0
    8.4897  -11.8124    0.0000 O   0  0  0  0  0  0  0  0  0  0  0  0
    6.8820  -12.1832    0.0000 O   0  0  0  0  0  0  0  0  0  0  0  0
   11.4838   -5.7172    0.0000 O   0  0  0  0  0  0  0  0  0  0  0  0
   10.3587   -4.5102    0.0000 O   0  0  0  0  0  0  0  0  0  0  0  0
    6.8021  -10.0020    0.0000 C   0  0  0  0  0  0  0  0  0  0  0  0
    6.5608  -10.7909    0.0000 C   0  0  0  0  0  0  0  0  0  0  0  0
    7.1233  -11.3943    0.0000 C   0  0  0  0  0  0  0  0  0  0  0  0
    7.9272  -11.2089    0.0000 C   0  0  0  0  0  0  0  0  0  0  0  0
    8.1685  -10.4200    0.0000 C   0  0  0  0  0  0  0  0  0  0  0  0
    7.6060   -9.8165    0.0000 C   0  0  0  0  0  0  0  0  0  0  0  0
    7.8243   -7.6929    0.0000 C   0  0  0  0  0  0  0  0  0  0  0  0
    7.3510   -8.3686    0.0000 O   0  0  0  0  0  0  0  0  0  0  0  0
    7.8474   -9.0276    0.0000 C   0  0  1  0  0  0  0  0  0  0  0  0
    8.6132   -7.9343    0.0000 C   0  0  1  0  0  0  0  0  0  0  0  0
    8.6275   -8.7592    0.0000 C   0  0  2  0  0  0  0  0  0  0  0  0
    9.4164   -9.0005    0.0000 C   0  0  0  0  0  0  0  0  0  0  0  0
    9.8897   -8.3248    0.0000 O   0  0  0  0  0  0  0  0  0  0  0  0
    9.3933   -7.6658    0.0000 C   0  0  2  0  0  0  0  0  0  0  0  0
    9.0721   -6.2735    0.0000 C   0  0  0  0  0  0  0  0  0  0  0  0
    9.6347   -6.8769    0.0000 C   0  0  0  0  0  0  0  0  0  0  0  0
   10.4386   -6.6915    0.0000 C   0  0  0  0  0  0  0  0  0  0  0  0
   10.6799   -5.9026    0.0000 C   0  0  0  0  0  0  0  0  0  0  0  0
   10.1174   -5.2991    0.0000 C   0  0  0  0  0  0  0  0  0  0  0  0
    9.3135   -5.4846    0.0000 C   0  0  0  0  0  0  0  0  0  0  0  0
    8.5990   -7.1094    0.0000 H   0  0  0  0  0  0  0  0  0  0  0  0
    8.6417   -9.5840    0.0000 H   0  0  0  0  0  0  0  0  0  0  0  0
 17  1  1  0  0  0  0
  3 16  1  0  0  0  0
  3  2  2  0  0  0  0
  4  3  1  0  0  0  0
  5  4  2  0  0  0  0
 12  5  1  0  0  0  0
 10  6  1  0  0  0  0
  9  7  1  0  0  0  0
  8 13  1  0  0  0  0
  9  8  2  0  0  0  0
 10  9  1  0  0  0  0
 11 10  2  0  0  0  0
 12 11  1  0  0  0  0
 13 12  2  0  0  0  0
 15 14  1  0  0  0  0
 22 15  1  0  0  0  0
 21 16  1  0  0  0  0
 36 17  1  0  0  0  0
 37 18  1  0  0  0  0
 19 24  1  0  0  0  0
 20 19  2  0  0  0  0
 21 20  1  0  0  0  0
 22 21  2  0  0  0  0
 23 22  1  0  0  0  0
 24 23  2  0  0  0  0
 27 24  1  1  0  0  0
 25 28  1  0  0  0  0
 26 25  1  0  0  0  0
 27 26  1  0  0  0  0
 29 27  1  0  0  0  0
 28 32  1  0  0  0  0
 29 28  1  0  0  0  0
 30 29  1  0  0  0  0
 31 30  1  0  0  0  0
 32 31  1  0  0  0  0
 32 34  1  1  0  0  0
 33 38  1  0  0  0  0
 34 33  2  0  0  0  0
 35 34  1  0  0  0  0
 36 35  2  0  0  0  0
 37 36  1  0  0  0  0
 38 37  2  0  0  0  0
 28 39  1  1  0  0  0
 29 40  1  1  0  0  0
M  END
>  <cdx:fragmentId>
5

$$$$
