91528.cdx
  Mrv1902 05222410202D          

 12 12  0  0  0  0            999 V2000
    2.7538   -3.1633    0.0000 C   0  0  0  0  0  0  0  0  0  0  0  0
    2.7538   -3.9883    0.0000 C   0  0  0  0  0  0  0  0  0  0  0  0
    3.4683   -4.4008    0.0000 C   0  0  0  0  0  0  0  0  0  0  0  0
    4.1827   -3.9883    0.0000 C   0  0  0  0  0  0  0  0  0  0  0  0
    4.1827   -3.1633    0.0000 C   0  0  0  0  0  0  0  0  0  0  0  0
    3.4683   -2.7508    0.0000 C   0  0  0  0  0  0  0  0  0  0  0  0
    2.0393   -2.7508    0.0000 O   0  0  0  0  0  0  0  0  0  0  0  0
    2.0393   -4.4008    0.0000 O   0  0  0  0  0  0  0  0  0  0  0  0
    4.8972   -4.4008    0.0000 C   0  0  0  0  0  0  0  0  0  0  0  0
    5.6117   -3.9883    0.0000 C   0  0  0  0  0  0  0  0  0  0  0  0
    6.3262   -4.4008    0.0000 O   0  0  0  0  0  0  0  0  0  0  0  0
    4.8972   -5.2258    0.0000 O   0  0  0  0  0  0  0  0  0  0  0  0
  1  2  1  0  0  0  0
  2  3  2  0  0  0  0
  3  4  1  0  0  0  0
  4  5  2  0  0  0  0
  5  6  1  0  0  0  0
  1  6  2  0  0  0  0
  1  7  1  0  0  0  0
  2  8  1  0  0  0  0
  9 10  1  0  0  0  0
 10 11  1  0  0  0  0
  9 12  1  0  0  0  0
  4  9  1  0  0  0  0
M  END
>  <cdx:groupId>
38

>  <cdx:fragmentId>
5

$$$$
