91525.cdx
  Mrv1902 05222410262D          

 31 34  0  0  0  0            999 V2000
    7.9575   -7.0526    0.0000 O   0  0  0  0  0  0  0  0  0  0  0  0
    8.6750   -7.4598    0.0000 C   0  0  2  0  0  0  0  0  0  0  0  0
    8.6812   -8.2848    0.0000 O   0  0  0  0  0  0  0  0  0  0  0  0
    9.3987   -8.6919    0.0000 C   0  0  1  0  0  0  0  0  0  0  0  0
   10.1101   -8.2741    0.0000 C   0  0  2  0  0  0  0  0  0  0  0  0
   10.1039   -7.4491    0.0000 C   0  0  1  0  0  0  0  0  0  0  0  0
    9.3864   -7.0420    0.0000 C   0  0  1  0  0  0  0  0  0  0  0  0
    9.4049   -9.5169    0.0000 C   0  0  0  0  0  0  0  0  0  0  0  0
   10.8153   -7.0313    0.0000 O   0  0  0  0  0  0  0  0  0  0  0  0
   10.8276   -8.6812    0.0000 O   0  0  0  0  0  0  0  0  0  0  0  0
    9.3864   -6.2170    0.0000 O   0  0  0  0  0  0  0  0  0  0  0  0
   10.1224   -9.9241    0.0000 O   0  0  0  0  0  0  0  0  0  0  0  0
    7.2430   -7.4651    0.0000 N   0  0  0  0  0  0  0  0  0  0  0  0
    5.4890  -10.5672    0.0000 C   0  0  2  0  0  0  0  0  0  0  0  0
    4.7043  -10.8221    0.0000 O   0  0  0  0  0  0  0  0  0  0  0  0
    4.7043  -11.6471    0.0000 C   0  0  1  0  0  0  0  0  0  0  0  0
    5.4890  -11.9021    0.0000 C   0  0  2  0  0  0  0  0  0  0  0  0
    5.9739  -11.2346    0.0000 C   0  0  1  0  0  0  0  0  0  0  0  0
    6.7989  -11.2346    0.0000 O   0  0  0  0  0  0  0  0  0  0  0  0
    5.7439  -12.6867    0.0000 O   0  0  0  0  0  0  0  0  0  0  0  0
    4.0369  -12.1321    0.0000 C   0  0  0  0  0  0  0  0  0  0  0  0
    4.1231  -12.9526    0.0000 O   0  0  0  0  0  0  0  0  0  0  0  0
    5.7439   -8.4477    0.0000 N   0  0  0  0  0  0  0  0  0  0  0  0
    5.2590   -9.1151    0.0000 C   0  0  0  0  0  0  0  0  0  0  0  0
    5.7439   -9.7826    0.0000 N   0  0  0  0  0  0  0  0  0  0  0  0
    7.2430   -8.2901    0.0000 C   0  0  0  0  0  0  0  0  0  0  0  0
    6.5285   -8.7026    0.0000 C   0  0  0  0  0  0  0  0  0  0  0  0
    6.5285   -9.5276    0.0000 C   0  0  0  0  0  0  0  0  0  0  0  0
    7.2430   -9.9401    0.0000 N   0  0  0  0  0  0  0  0  0  0  0  0
    7.9575   -9.5276    0.0000 C   0  0  0  0  0  0  0  0  0  0  0  0
    7.9575   -8.7026    0.0000 N   0  0  0  0  0  0  0  0  0  0  0  0
  2  1  1  1  0  0  0
  2  3  1  0  0  0  0
  3  4  1  0  0  0  0
  4  5  1  0  0  0  0
  5  6  1  0  0  0  0
  6  7  1  0  0  0  0
  7  2  1  0  0  0  0
  4  8  1  1  0  0  0
  6  9  1  1  0  0  0
  5 10  1  6  0  0  0
  7 11  1  6  0  0  0
 13  1  1  0  0  0  0
  8 12  1  0  0  0  0
 26 13  1  0  0  0  0
 14 15  1  0  0  0  0
 15 16  1  0  0  0  0
 16 17  1  0  0  0  0
 17 18  1  0  0  0  0
 18 14  1  0  0  0  0
 18 19  1  6  0  0  0
 17 20  1  6  0  0  0
 16 21  1  1  0  0  0
 14 25  1  1  0  0  0
 21 22  1  0  0  0  0
 23 27  1  0  0  0  0
 24 23  2  0  0  0  0
 25 24  1  0  0  0  0
 28 25  1  0  0  0  0
 26 31  2  0  0  0  0
 27 26  1  0  0  0  0
 28 27  2  0  0  0  0
 29 28  1  0  0  0  0
 30 29  2  0  0  0  0
 31 30  1  0  0  0  0
M  END
>  <cdx:fragmentId>
5

$$$$
