91526.cdx
  Mrv1902 05222410272D          

 29 32  0  0  0  0            999 V2000
    5.2712   -9.2114    0.0000 O   0  0  0  0  0  0  0  0  0  0  0  0
    8.1291   -6.7364    0.0000 O   0  0  0  0  0  0  0  0  0  0  0  0
    8.8419   -7.1517    0.0000 C   0  0  1  0  0  0  0  0  0  0  0  0
    9.5580   -6.7420    0.0000 C   0  0  1  0  0  0  0  0  0  0  0  0
    8.8387   -7.9767    0.0000 O   0  0  0  0  0  0  0  0  0  0  0  0
    9.5516   -8.3919    0.0000 C   0  0  1  0  0  0  0  0  0  0  0  0
   10.2677   -7.9822    0.0000 C   0  0  2  0  0  0  0  0  0  0  0  0
   10.2709   -7.1572    0.0000 C   0  0  2  0  0  0  0  0  0  0  0  0
    9.5484   -9.2169    0.0000 C   0  0  0  0  0  0  0  0  0  0  0  0
   10.9869   -6.7475    0.0000 O   0  0  0  0  0  0  0  0  0  0  0  0
    9.5612   -5.9170    0.0000 O   0  0  0  0  0  0  0  0  0  0  0  0
   10.9805   -8.3975    0.0000 O   0  0  0  0  0  0  0  0  0  0  0  0
   10.2612   -9.6322    0.0000 O   0  0  0  0  0  0  0  0  0  0  0  0
    6.7001   -5.9114    0.0000 O   0  0  0  0  0  0  0  0  0  0  0  0
    5.2712   -5.9114    0.0000 O   0  0  0  0  0  0  0  0  0  0  0  0
    3.8422   -6.7364    0.0000 C   0  0  0  0  0  0  0  0  0  0  0  0
    3.1278   -7.1489    0.0000 C   0  0  0  0  0  0  0  0  0  0  0  0
    3.1278   -7.9739    0.0000 C   0  0  0  0  0  0  0  0  0  0  0  0
    3.8422   -8.3864    0.0000 C   0  0  0  0  0  0  0  0  0  0  0  0
    5.2712   -6.7364    0.0000 C   0  0  0  0  0  0  0  0  0  0  0  0
    4.5567   -7.1489    0.0000 C   0  0  0  0  0  0  0  0  0  0  0  0
    4.5567   -7.9739    0.0000 C   0  0  0  0  0  0  0  0  0  0  0  0
    5.2712   -8.3864    0.0000 C   0  0  0  0  0  0  0  0  0  0  0  0
    6.7001   -6.7364    0.0000 C   0  0  0  0  0  0  0  0  0  0  0  0
    5.9857   -7.1489    0.0000 C   0  0  0  0  0  0  0  0  0  0  0  0
    5.9857   -7.9739    0.0000 C   0  0  0  0  0  0  0  0  0  0  0  0
    6.7001   -8.3864    0.0000 C   0  0  0  0  0  0  0  0  0  0  0  0
    7.4146   -7.9739    0.0000 C   0  0  0  0  0  0  0  0  0  0  0  0
    7.4146   -7.1489    0.0000 C   0  0  0  0  0  0  0  0  0  0  0  0
 23  1  2  0  0  0  0
  3  2  1  1  0  0  0
  3  4  1  0  0  0  0
  3  5  1  0  0  0  0
  5  6  1  0  0  0  0
  6  7  1  0  0  0  0
  7  8  1  0  0  0  0
  8  4  1  0  0  0  0
  6  9  1  1  0  0  0
  8 10  1  1  0  0  0
  4 11  1  6  0  0  0
 29  2  1  0  0  0  0
  7 12  1  6  0  0  0
  9 13  1  0  0  0  0
 14 24  1  0  0  0  0
 20 15  2  0  0  0  0
 16 21  1  0  0  0  0
 17 16  2  0  0  0  0
 18 17  1  0  0  0  0
 19 18  2  0  0  0  0
 22 19  1  0  0  0  0
 20 25  1  0  0  0  0
 21 20  1  0  0  0  0
 22 21  2  0  0  0  0
 23 22  1  0  0  0  0
 26 23  1  0  0  0  0
 24 29  2  0  0  0  0
 25 24  1  0  0  0  0
 26 25  2  0  0  0  0
 27 26  1  0  0  0  0
 28 27  2  0  0  0  0
 29 28  1  0  0  0  0
M  END
>  <cdx:fragmentId>
5

$$$$
