91521.cdx
  Mrv1902 05222410282D          

 39 43  0  0  0  0            999 V2000
    5.3039   -7.9681    0.0000 C   0  0  0  0  0  0  0  0  0  0  0  0
    5.3039   -8.7931    0.0000 C   0  0  2  0  0  0  0  0  0  0  0  0
    6.0184   -9.2056    0.0000 C   0  0  2  0  0  0  0  0  0  0  0  0
    6.7328   -8.7931    0.0000 C   0  0  1  0  0  0  0  0  0  0  0  0
    6.7328   -7.9681    0.0000 C   0  0  2  0  0  0  0  0  0  0  0  0
    6.0184   -7.5556    0.0000 C   0  0  0  0  0  0  0  0  0  0  0  0
    7.4473   -9.2056    0.0000 C   0  0  0  0  0  0  0  0  0  0  0  0
    8.1618   -8.7931    0.0000 C   0  0  0  0  0  0  0  0  0  0  0  0
    8.1618   -7.9681    0.0000 C   0  0  2  0  0  0  0  0  0  0  0  0
    7.4473   -7.5556    0.0000 C   0  0  2  0  0  0  0  0  0  0  0  0
    8.8763   -7.5556    0.0000 C   0  0  1  0  0  0  0  0  0  0  0  0
    8.8763   -6.7306    0.0000 C   0  0  0  0  0  0  0  0  0  0  0  0
    8.1618   -6.3181    0.0000 C   0  0  0  0  0  0  0  0  0  0  0  0
    7.4473   -6.7306    0.0000 C   0  0  0  0  0  0  0  0  0  0  0  0
    9.5907   -7.9681    0.0000 C   0  0  0  0  0  0  0  0  0  0  0  0
   10.3052   -7.5556    0.0000 C   0  0  0  0  0  0  0  0  0  0  0  0
   10.3052   -6.7306    0.0000 C   0  0  2  0  0  0  0  0  0  0  0  0
    9.5907   -6.3181    0.0000 C   0  0  1  0  0  0  0  0  0  0  0  0
   11.0197   -6.3181    0.0000 C   0  0  0  0  0  0  0  0  0  0  0  0
   11.0197   -5.4931    0.0000 C   0  0  0  0  0  0  0  0  0  0  0  0
   10.3052   -5.0806    0.0000 C   0  0  0  0  0  0  0  0  0  0  0  0
    9.5907   -5.4931    0.0000 C   0  0  0  0  0  0  0  0  0  0  0  0
    6.7328   -7.1431    0.0000 C   0  0  0  0  0  0  0  0  0  0  0  0
    8.1618   -7.1431    0.0000 C   0  0  0  0  0  0  0  0  0  0  0  0
    8.8763   -5.9056    0.0000 H   0  0  0  0  0  0  0  0  0  0  0  0
   11.0197   -7.1431    0.0000 C   0  0  0  0  0  0  0  0  0  0  0  0
    4.5894   -9.2056    0.0000 O   0  0  0  0  0  0  0  0  0  0  0  0
    6.4309   -9.9201    0.0000 C   0  0  0  0  0  0  0  0  0  0  0  0
    6.7328   -9.6181    0.0000 H   0  0  0  0  0  0  0  0  0  0  0  0
    7.4473   -8.3806    0.0000 H   0  0  0  0  0  0  0  0  0  0  0  0
    8.8763   -8.3806    0.0000 C   0  0  0  0  0  0  0  0  0  0  0  0
    5.6059   -9.9201    0.0000 C   0  0  0  0  0  0  0  0  0  0  0  0
    4.7809   -9.9201    0.0000 O   0  0  0  0  0  0  0  0  0  0  0  0
    6.0184  -10.6346    0.0000 O   0  0  0  0  0  0  0  0  0  0  0  0
    9.8927   -4.3662    0.0000 C   0  0  0  0  0  0  0  0  0  0  0  0
   10.7177   -4.3662    0.0000 C   0  0  0  0  0  0  0  0  0  0  0  0
    3.8750   -8.7931    0.0000 C   0  0  0  0  0  0  0  0  0  0  0  0
    3.1605   -9.2056    0.0000 C   0  0  0  0  0  0  0  0  0  0  0  0
    3.8750   -7.9681    0.0000 O   0  0  0  0  0  0  0  0  0  0  0  0
  1  2  1  0  0  0  0
  2  3  1  0  0  0  0
  3  4  1  0  0  0  0
  4  5  1  0  0  0  0
  5  6  1  0  0  0  0
  6  1  1  0  0  0  0
  4  7  1  0  0  0  0
  7  8  1  0  0  0  0
  8  9  1  0  0  0  0
  9 10  1  0  0  0  0
 10  5  1  0  0  0  0
  9 11  1  0  0  0  0
 11 12  1  0  0  0  0
 12 13  2  0  0  0  0
 13 14  1  0  0  0  0
 14 10  1  0  0  0  0
 11 15  1  0  0  0  0
 15 16  1  0  0  0  0
 16 17  1  0  0  0  0
 17 18  1  0  0  0  0
 18 12  1  0  0  0  0
 17 19  1  0  0  0  0
 19 20  1  0  0  0  0
 20 21  1  0  0  0  0
 21 22  1  0  0  0  0
 22 18  1  0  0  0  0
  5 23  1  1  0  0  0
  9 24  1  1  0  0  0
 18 25  1  1  0  0  0
 17 26  1  1  0  0  0
  2 27  1  6  0  0  0
  3 28  1  6  0  0  0
  4 29  1  6  0  0  0
 10 30  1  6  0  0  0
 11 31  1  6  0  0  0
  3 32  1  1  0  0  0
 32 33  2  0  0  0  0
 32 34  1  0  0  0  0
 21 35  1  0  0  0  0
 21 36  1  0  0  0  0
 27 37  1  0  0  0  0
 37 38  1  0  0  0  0
 37 39  2  0  0  0  0
M  END
>  <cdx:fragmentId>
168

$$$$
