915265.cdx
  Mrv1902 05222410242D          

 49 54  0  0  0  0            999 V2000
    9.7372   -7.0807    0.0000 C   0  0  2  0  0  0  0  0  0  0  0  0
    9.0227   -6.6682    0.0000 O   0  0  0  0  0  0  0  0  0  0  0  0
    8.3083   -7.0807    0.0000 C   0  0  0  0  0  0  0  0  0  0  0  0
    7.5938   -6.6682    0.0000 C   0  0  0  0  0  0  0  0  0  0  0  0
    6.8793   -7.0807    0.0000 C   0  0  0  0  0  0  0  0  0  0  0  0
    6.1648   -6.6682    0.0000 O   0  0  0  0  0  0  0  0  0  0  0  0
    5.4504   -7.0807    0.0000 C   0  0  1  0  0  0  0  0  0  0  0  0
    5.4504   -7.9057    0.0000 C   0  0  0  0  0  0  0  0  0  0  0  0
    6.1648   -8.3182    0.0000 C   0  0  0  0  0  0  0  0  0  0  0  0
    6.8793   -7.9057    0.0000 C   0  0  0  0  0  0  0  0  0  0  0  0
    7.5938   -8.3182    0.0000 C   0  0  0  0  0  0  0  0  0  0  0  0
    8.3083   -7.9057    0.0000 C   0  0  0  0  0  0  0  0  0  0  0  0
    9.0227   -8.3182    0.0000 C   0  0  0  0  0  0  0  0  0  0  0  0
    9.7372   -7.9057    0.0000 C   0  0  0  0  0  0  0  0  0  0  0  0
   10.4517   -8.3182    0.0000 C   0  0  0  0  0  0  0  0  0  0  0  0
   11.1661   -7.9057    0.0000 C   0  0  2  0  0  0  0  0  0  0  0  0
   11.1661   -7.0807    0.0000 C   0  0  0  0  0  0  0  0  0  0  0  0
   10.4517   -6.6682    0.0000 C   0  0  1  0  0  0  0  0  0  0  0  0
    9.0227   -9.1432    0.0000 O   0  0  0  0  0  0  0  0  0  0  0  0
    7.5938   -5.8432    0.0000 C   0  0  0  0  0  0  0  0  0  0  0  0
    6.8793   -5.4307    0.0000 C   0  0  0  0  0  0  0  0  0  0  0  0
    6.8793   -4.6057    0.0000 C   0  0  0  0  0  0  0  0  0  0  0  0
    7.5938   -4.1932    0.0000 C   0  0  0  0  0  0  0  0  0  0  0  0
    6.1648   -4.1932    0.0000 C   0  0  0  0  0  0  0  0  0  0  0  0
    4.7359   -6.6682    0.0000 C   0  0  0  0  0  0  0  0  0  0  0  0
    5.4504   -6.2557    0.0000 C   0  0  0  0  0  0  0  0  0  0  0  0
    7.5938   -9.1432    0.0000 O   0  0  0  0  0  0  0  0  0  0  0  0
   11.8806   -8.3182    0.0000 H   0  0  0  0  0  0  0  0  0  0  0  0
   10.4775   -6.0500    0.0000 C   0  0  2  0  0  0  0  0  0  0  0  0
   11.7700   -6.7650    0.0000 C   0  0  0  0  0  0  0  0  0  0  0  0
   12.5633   -6.5387    0.0000 O   0  0  0  0  0  0  0  0  0  0  0  0
   10.9725   -5.4175    0.0000 O   0  0  0  0  0  0  0  0  0  0  0  0
   11.4950   -6.0225    0.0000 C   0  0  0  0  0  0  0  0  0  0  0  0
   12.3200   -6.0225    0.0000 C   0  0  0  0  0  0  0  0  0  0  0  0
   12.0784   -5.4391    0.0000 C   0  0  0  0  0  0  0  0  0  0  0  0
    9.8941   -5.4666    0.0000 C   0  0  0  0  0  0  0  0  0  0  0  0
   10.4517   -7.4932    0.0000 H   0  0  0  0  0  0  0  0  0  0  0  0
    4.0214   -7.0807    0.0000 C   0  0  0  0  0  0  0  0  0  0  0  0
    3.3070   -6.6682    0.0000 C   0  0  0  0  0  0  0  0  0  0  0  0
    2.5925   -7.0807    0.0000 C   0  0  0  0  0  0  0  0  0  0  0  0
    1.8780   -6.6682    0.0000 C   0  0  0  0  0  0  0  0  0  0  0  0
    2.5925   -7.9057    0.0000 C   0  0  0  0  0  0  0  0  0  0  0  0
   10.3066   -4.7522    0.0000 C   0  0  0  0  0  0  0  0  0  0  0  0
   10.3066   -3.9272    0.0000 C   0  0  0  0  0  0  0  0  0  0  0  0
   11.0211   -3.5147    0.0000 C   0  0  0  0  0  0  0  0  0  0  0  0
    9.5922   -3.5147    0.0000 C   0  0  0  0  0  0  0  0  0  0  0  0
    8.8777   -3.9272    0.0000 O   0  0  0  0  0  0  0  0  0  0  0  0
    9.5922   -2.6897    0.0000 O   0  0  0  0  0  0  0  0  0  0  0  0
   11.0211   -2.6897    0.0000 O   0  0  0  0  0  0  0  0  0  0  0  0
  1  2  1  1  0  0  0
  2  3  1  0  0  0  0
  3  4  1  0  0  0  0
  4  5  2  0  0  0  0
  5  6  1  0  0  0  0
  6  7  1  0  0  0  0
  7  8  1  0  0  0  0
  8  9  2  0  0  0  0
  9 10  1  0  0  0  0
 10 11  2  0  0  0  0
 11 12  1  0  0  0  0
 12 13  1  0  0  0  0
 13 14  1  0  0  0  0
 14 15  2  0  0  0  0
 15 16  1  0  0  0  0
 16 17  1  0  0  0  0
 17 18  1  0  0  0  0
  1 18  1  0  0  0  0
  1 14  1  0  0  0  0
  3 12  2  0  0  0  0
  5 10  1  0  0  0  0
 13 19  2  0  0  0  0
 20 21  1  0  0  0  0
 21 22  2  0  0  0  0
 22 23  1  0  0  0  0
 22 24  1  0  0  0  0
  4 20  1  0  0  0  0
  7 25  1  0  0  0  0
  7 26  1  6  0  0  0
 11 27  1  0  0  0  0
 16 28  1  1  0  0  0
  1 29  1  0  0  0  0
 16 30  1  0  0  0  0
 29 30  1  0  0  0  0
 30 31  2  0  0  0  0
 29 32  1  0  0  0  0
 32 33  1  0  0  0  0
 33 34  1  0  0  0  0
 33 35  1  0  0  0  0
 18 33  1  0  0  0  0
 29 36  1  6  0  0  0
 18 37  1  1  0  0  0
 25 38  1  0  0  0  0
 38 39  1  0  0  0  0
 39 40  2  0  0  0  0
 40 41  1  0  0  0  0
 40 42  1  0  0  0  0
 36 43  1  0  0  0  0
 43 44  2  0  0  0  0
 44 45  1  0  0  0  0
 44 46  1  0  0  0  0
 46 47  1  0  0  0  0
 46 48  2  0  0  0  0
 45 49  1  0  0  0  0
M  END
>  <cdx:groupId>
242438

>  <cdx:fragmentId>
242439

$$$$
