91537.cdx
  Mrv1902 05222410272D          

 42 47  0  0  0  0            999 V2000
    8.5283   -7.1516    0.0000 C   0  0  0  0  0  0  0  0  0  0  0  0
    7.8181   -7.5715    0.0000 C   0  0  0  0  0  0  0  0  0  0  0  0
    7.8267   -8.3965    0.0000 C   0  0  0  0  0  0  0  0  0  0  0  0
    8.5454   -8.8015    0.0000 C   0  0  0  0  0  0  0  0  0  0  0  0
    9.2556   -8.3816    0.0000 C   0  0  0  0  0  0  0  0  0  0  0  0
    9.2470   -7.5567    0.0000 C   0  0  0  0  0  0  0  0  0  0  0  0
    8.5197   -6.3267    0.0000 O   0  0  0  0  0  0  0  0  0  0  0  0
    9.9572   -7.1368    0.0000 O   0  0  0  0  0  0  0  0  0  0  0  0
    7.7708  -10.0463    0.0000 O   0  0  0  0  0  0  0  0  0  0  0  0
    3.4857   -8.3917    0.0000 O   0  0  0  0  0  0  0  0  0  0  0  0
    4.9120  -10.8682    0.0000 O   0  0  0  0  0  0  0  0  0  0  0  0
    7.9231  -16.5659    0.0000 O   0  0  0  0  0  0  0  0  0  0  0  0
    9.3402  -15.7208    0.0000 O   0  0  0  0  0  0  0  0  0  0  0  0
    9.9786  -10.3487    0.0000 O   0  0  0  0  0  0  0  0  0  0  0  0
    4.9147   -8.3932    0.0000 C   0  0  0  0  0  0  0  0  0  0  0  0
    4.1998   -8.8049    0.0000 C   0  0  0  0  0  0  0  0  0  0  0  0
    4.1989   -9.6299    0.0000 C   0  0  0  0  0  0  0  0  0  0  0  0
    4.9129  -10.0432    0.0000 C   0  0  0  0  0  0  0  0  0  0  0  0
    7.1911  -15.3387    0.0000 C   0  0  0  0  0  0  0  0  0  0  0  0
    7.9114  -15.7410    0.0000 C   0  0  0  0  0  0  0  0  0  0  0  0
    8.6199  -15.3184    0.0000 C   0  0  0  0  0  0  0  0  0  0  0  0
    8.6082  -14.4935    0.0000 C   0  0  0  0  0  0  0  0  0  0  0  0
    6.4475  -13.2865    0.0000 O   0  0  0  0  0  0  0  0  0  0  0  0
    7.1794  -14.5138    0.0000 C   0  0  0  0  0  0  0  0  0  0  0  0
    7.8880  -14.0912    0.0000 C   0  0  0  0  0  0  0  0  0  0  0  0
    7.1444  -12.0390    0.0000 C   0  0  0  0  0  0  0  0  0  0  0  0
    7.1560  -12.8639    0.0000 C   0  0  1  0  0  0  0  0  0  0  0  0
    7.8763  -13.2663    0.0000 C   0  0  2  0  0  0  0  0  0  0  0  0
    8.5848  -12.8437    0.0000 O   0  0  0  0  0  0  0  0  0  0  0  0
    7.8529  -11.6164    0.0000 C   0  0  0  0  0  0  0  0  0  0  0  0
    8.5732  -12.0188    0.0000 C   0  0  0  0  0  0  0  0  0  0  0  0
    9.2817  -11.5962    0.0000 C   0  0  0  0  0  0  0  0  0  0  0  0
    9.2700  -10.7713    0.0000 C   0  0  0  0  0  0  0  0  0  0  0  0
    7.1210  -10.3892    0.0000 O   0  0  0  0  0  0  0  0  0  0  0  0
    7.8412  -10.7915    0.0000 C   0  0  0  0  0  0  0  0  0  0  0  0
    8.5498  -10.3689    0.0000 C   0  0  0  0  0  0  0  0  0  0  0  0
    6.3436   -8.3948    0.0000 O   0  0  0  0  0  0  0  0  0  0  0  0
    5.6287   -8.8065    0.0000 C   0  0  0  0  0  0  0  0  0  0  0  0
    5.6278   -9.6315    0.0000 C   0  0  0  0  0  0  0  0  0  0  0  0
    6.3418  -10.0448    0.0000 C   0  0  0  0  0  0  0  0  0  0  0  0
    7.0568   -9.6330    0.0000 C   0  0  1  0  0  0  0  0  0  0  0  0
    7.0576   -8.8080    0.0000 C   0  0  1  0  0  0  0  0  0  0  0  0
  1  2  1  0  0  0  0
  2  3  2  0  0  0  0
  3  4  1  0  0  0  0
  4  5  2  0  0  0  0
  5  6  1  0  0  0  0
  6  1  2  0  0  0  0
  1  7  1  0  0  0  0
  6  8  1  0  0  0  0
 42  3  1  6  0  0  0
 41  9  1  1  0  0  0
 16 10  1  0  0  0  0
 18 11  1  0  0  0  0
 15 38  1  0  0  0  0
 16 15  2  0  0  0  0
 17 16  1  0  0  0  0
 18 17  2  0  0  0  0
 39 18  1  0  0  0  0
 20 12  1  0  0  0  0
 21 13  1  0  0  0  0
 33 14  1  0  0  0  0
 19 24  2  0  0  0  0
 20 19  1  0  0  0  0
 21 20  2  0  0  0  0
 22 21  1  0  0  0  0
 25 22  2  0  0  0  0
 27 23  1  1  0  0  0
 25 24  1  0  0  0  0
 28 25  1  6  0  0  0
 26 30  1  0  0  0  0
 27 26  1  0  0  0  0
 28 27  1  0  0  0  0
 29 28  1  0  0  0  0
 31 29  1  0  0  0  0
 30 35  1  0  0  0  0
 31 30  2  0  0  0  0
 32 31  1  0  0  0  0
 33 32  2  0  0  0  0
 36 33  1  0  0  0  0
 35 34  1  0  0  0  0
 36 35  2  0  0  0  0
  4 36  1  0  0  0  0
 37 42  1  0  0  0  0
 38 37  1  0  0  0  0
 39 38  2  0  0  0  0
 40 39  1  0  0  0  0
 41 40  1  0  0  0  0
 42 41  1  0  0  0  0
M  END
>  <cdx:fragmentId>
5

$$$$
