91530.cdx
  Mrv1902 05222410262D          

 18 18  0  0  0  0            999 V2000
    3.7793  -10.7376    0.0000 C   0  0  0  0  0  0  0  0  0  0  0  0
    3.7793  -11.5626    0.0000 C   0  0  0  0  0  0  0  0  0  0  0  0
    4.4938  -11.9751    0.0000 C   0  0  0  0  0  0  0  0  0  0  0  0
    5.2082  -11.5626    0.0000 C   0  0  0  0  0  0  0  0  0  0  0  0
    5.2082  -10.7376    0.0000 C   0  0  0  0  0  0  0  0  0  0  0  0
    4.4938  -10.3251    0.0000 C   0  0  0  0  0  0  0  0  0  0  0  0
    3.0648  -10.3251    0.0000 O   0  0  0  0  0  0  0  0  0  0  0  0
    3.0648  -11.9751    0.0000 O   0  0  0  0  0  0  0  0  0  0  0  0
    5.9227  -10.3251    0.0000 C   0  0  0  0  0  0  0  0  0  0  0  0
    6.6372  -10.7376    0.0000 C   0  0  0  0  0  0  0  0  0  0  0  0
    7.3517  -10.3251    0.0000 C   0  0  0  0  0  0  0  0  0  0  0  0
    8.0661  -10.7376    0.0000 O   0  0  0  0  0  0  0  0  0  0  0  0
    7.3517   -9.5001    0.0000 O   0  0  0  0  0  0  0  0  0  0  0  0
    8.7806  -10.3251    0.0000 C   0  0  0  0  0  0  0  0  0  0  0  0
    9.4951  -10.7376    0.0000 C   0  0  0  0  0  0  0  0  0  0  0  0
   10.2095  -10.3251    0.0000 C   0  0  0  0  0  0  0  0  0  0  0  0
   10.9240  -10.7376    0.0000 O   0  0  0  0  0  0  0  0  0  0  0  0
    9.4951  -11.5626    0.0000 O   0  0  0  0  0  0  0  0  0  0  0  0
  1  2  2  0  0  0  0
  2  3  1  0  0  0  0
  3  4  2  0  0  0  0
  4  5  1  0  0  0  0
  5  6  2  0  0  0  0
  6  1  1  0  0  0  0
  1  7  1  0  0  0  0
  2  8  1  0  0  0  0
  5  9  1  0  0  0  0
  9 10  2  0  0  0  0
 10 11  1  0  0  0  0
 11 12  1  0  0  0  0
 11 13  2  0  0  0  0
 12 14  1  0  0  0  0
 14 15  1  0  0  0  0
 15 16  1  0  0  0  0
 16 17  1  0  0  0  0
 15 18  1  0  0  0  0
M  END
>  <cdx:fragmentId>
5

$$$$
