91534.cdx
  Mrv1902 05222410282D          

 18 18  0  0  0  0            999 V2000
    5.3614   -7.1966    0.0000 C   0  0  0  0  0  0  0  0  0  0  0  0
    4.6441   -7.6043    0.0000 C   0  0  0  0  0  0  0  0  0  0  0  0
    4.6386   -8.4292    0.0000 C   0  0  0  0  0  0  0  0  0  0  0  0
    5.3502   -8.8466    0.0000 C   0  0  0  0  0  0  0  0  0  0  0  0
    6.0675   -8.4389    0.0000 C   0  0  0  0  0  0  0  0  0  0  0  0
    6.0731   -7.6139    0.0000 C   0  0  0  0  0  0  0  0  0  0  0  0
    3.9213   -8.8369    0.0000 O   0  0  0  0  0  0  0  0  0  0  0  0
    3.9325   -7.1869    0.0000 O   0  0  0  0  0  0  0  0  0  0  0  0
    6.7903   -7.2063    0.0000 C   0  0  0  0  0  0  0  0  0  0  0  0
    7.5020   -7.6236    0.0000 C   0  0  0  0  0  0  0  0  0  0  0  0
    8.2192   -7.2160    0.0000 C   0  0  0  0  0  0  0  0  0  0  0  0
    8.9309   -7.6333    0.0000 O   0  0  0  0  0  0  0  0  0  0  0  0
    8.2248   -6.3910    0.0000 O   0  0  0  0  0  0  0  0  0  0  0  0
    9.6481   -7.2257    0.0000 C   0  0  0  0  0  0  0  0  0  0  0  0
   10.3598   -7.6430    0.0000 C   0  0  0  0  0  0  0  0  0  0  0  0
   11.0770   -7.2354    0.0000 O   0  0  0  0  0  0  0  0  0  0  0  0
   10.3542   -8.4680    0.0000 O   0  0  0  0  0  0  0  0  0  0  0  0
    3.9157   -9.6619    0.0000 C   0  0  0  0  0  0  0  0  0  0  0  0
  1  2  2  0  0  0  0
  2  3  1  0  0  0  0
  3  4  2  0  0  0  0
  4  5  1  0  0  0  0
  5  6  2  0  0  0  0
  6  1  1  0  0  0  0
  3  7  1  0  0  0  0
  2  8  1  0  0  0  0
  6  9  1  0  0  0  0
  9 10  2  0  0  0  0
 10 11  1  0  0  0  0
 11 12  1  0  0  0  0
 11 13  2  0  0  0  0
 12 14  1  0  0  0  0
 14 15  1  0  0  0  0
 15 16  1  0  0  0  0
 15 17  2  0  0  0  0
  7 18  1  0  0  0  0
M  END
>  <cdx:fragmentId>
5

$$$$
