91536.cdx
  Mrv1902 05222410272D          

 43 48  0  0  0  0            999 V2000
    3.9306   -6.9839    0.0000 C   0  0  0  0  0  0  0  0  0  0  0  0
    3.9306   -7.8089    0.0000 C   0  0  0  0  0  0  0  0  0  0  0  0
    4.6450   -8.2214    0.0000 C   0  0  0  0  0  0  0  0  0  0  0  0
    5.3595   -7.8089    0.0000 C   0  0  0  0  0  0  0  0  0  0  0  0
    5.3595   -6.9839    0.0000 C   0  0  0  0  0  0  0  0  0  0  0  0
    4.6450   -6.5714    0.0000 C   0  0  0  0  0  0  0  0  0  0  0  0
    6.0740   -8.2214    0.0000 C   0  0  1  0  0  0  0  0  0  0  0  0
    6.7884   -7.8089    0.0000 C   0  0  1  0  0  0  0  0  0  0  0  0
    6.7884   -6.9839    0.0000 C   0  0  2  0  0  0  0  0  0  0  0  0
    6.0740   -6.5714    0.0000 O   0  0  0  0  0  0  0  0  0  0  0  0
    7.5029   -8.2214    0.0000 O   0  0  0  0  0  0  0  0  0  0  0  0
    8.2174   -6.9839    0.0000 C   0  0  0  0  0  0  0  0  0  0  0  0
    7.5029   -6.5714    0.0000 C   0  0  0  0  0  0  0  0  0  0  0  0
    8.9319   -6.5714    0.0000 C   0  0  0  0  0  0  0  0  0  0  0  0
    8.9319   -5.7464    0.0000 C   0  0  0  0  0  0  0  0  0  0  0  0
    8.2174   -5.3339    0.0000 C   0  0  0  0  0  0  0  0  0  0  0  0
    7.5029   -5.7464    0.0000 C   0  0  0  0  0  0  0  0  0  0  0  0
    6.1015   -9.5689    0.0000 C   0  0  0  0  0  0  0  0  0  0  0  0
    6.8159   -9.9814    0.0000 C   0  0  0  0  0  0  0  0  0  0  0  0
    7.5304   -9.5689    0.0000 O   0  0  0  0  0  0  0  0  0  0  0  0
    5.3870   -9.9814    0.0000 C   0  0  0  0  0  0  0  0  0  0  0  0
    5.3870  -10.8064    0.0000 C   0  0  0  0  0  0  0  0  0  0  0  0
    6.1015  -11.2189    0.0000 C   0  0  0  0  0  0  0  0  0  0  0  0
    6.8159  -10.8064    0.0000 C   0  0  0  0  0  0  0  0  0  0  0  0
    7.5304  -11.2189    0.0000 C   0  0  0  0  0  0  0  0  0  0  0  0
    8.2449  -10.8064    0.0000 C   0  0  1  0  0  0  0  0  0  0  0  0
    8.2449   -9.9814    0.0000 C   0  0  1  0  0  0  0  0  0  0  0  0
    8.9594  -11.2189    0.0000 O   0  0  0  0  0  0  0  0  0  0  0  0
    9.6738   -9.9814    0.0000 C   0  0  0  0  0  0  0  0  0  0  0  0
    8.9594   -9.5689    0.0000 C   0  0  0  0  0  0  0  0  0  0  0  0
   10.3883   -9.5689    0.0000 C   0  0  0  0  0  0  0  0  0  0  0  0
   10.3883   -8.7439    0.0000 C   0  0  0  0  0  0  0  0  0  0  0  0
    9.6738   -8.3314    0.0000 C   0  0  0  0  0  0  0  0  0  0  0  0
    8.9594   -8.7439    0.0000 C   0  0  0  0  0  0  0  0  0  0  0  0
    3.2161   -6.5714    0.0000 O   0  0  0  0  0  0  0  0  0  0  0  0
    4.6450   -9.0464    0.0000 O   0  0  0  0  0  0  0  0  0  0  0  0
    9.6463   -5.3339    0.0000 O   0  0  0  0  0  0  0  0  0  0  0  0
    8.2174   -4.5089    0.0000 O   0  0  0  0  0  0  0  0  0  0  0  0
    4.6725   -9.5689    0.0000 O   0  0  0  0  0  0  0  0  0  0  0  0
    6.1015  -12.0439    0.0000 O   0  0  0  0  0  0  0  0  0  0  0  0
   11.1028   -8.3314    0.0000 O   0  0  0  0  0  0  0  0  0  0  0  0
    9.6738   -7.5064    0.0000 O   0  0  0  0  0  0  0  0  0  0  0  0
    6.7915   -8.6356    0.0000 H   0  0  0  0  0  0  0  0  0  0  0  0
  1  2  1  0  0  0  0
  2  3  2  0  0  0  0
  3  4  1  0  0  0  0
  4  5  2  0  0  0  0
  5  6  1  0  0  0  0
  6  1  2  0  0  0  0
  4  7  1  0  0  0  0
  7  8  1  0  0  0  0
  8  9  1  0  0  0  0
  9 10  1  0  0  0  0
 10  5  1  0  0  0  0
  8 11  1  1  0  0  0
 12 13  2  0  0  0  0
  9 13  1  6  0  0  0
 12 14  1  0  0  0  0
 14 15  2  0  0  0  0
 15 16  1  0  0  0  0
 16 17  2  0  0  0  0
 17 13  1  0  0  0  0
  7 18  1  0  0  0  0
 18 19  1  0  0  0  0
 19 20  1  0  0  0  0
 18 21  2  0  0  0  0
 21 22  1  0  0  0  0
 22 23  2  0  0  0  0
 23 24  1  0  0  0  0
 24 19  2  0  0  0  0
 24 25  1  0  0  0  0
 25 26  1  0  0  0  0
 26 27  1  0  0  0  0
 27 20  1  0  0  0  0
 26 28  1  1  0  0  0
 29 30  2  0  0  0  0
 27 30  1  6  0  0  0
 29 31  1  0  0  0  0
 31 32  2  0  0  0  0
 32 33  1  0  0  0  0
 33 34  2  0  0  0  0
 34 30  1  0  0  0  0
  1 35  1  0  0  0  0
  3 36  1  0  0  0  0
 15 37  1  0  0  0  0
 16 38  1  0  0  0  0
 21 39  1  0  0  0  0
 23 40  1  0  0  0  0
 32 41  1  0  0  0  0
 33 42  1  0  0  0  0
  7 43  1  6  0  0  0
M  END
>  <cdx:fragmentId>
5

$$$$
