91531.cdx
  Mrv1902 05222410262D          

 37 40  0  0  0  0            999 V2000
    7.6345   -6.9300    0.0000 C   0  0  0  0  0  0  0  0  0  0  0  0
    7.6345   -7.7550    0.0000 C   0  0  0  0  0  0  0  0  0  0  0  0
    8.3490   -8.1675    0.0000 C   0  0  0  0  0  0  0  0  0  0  0  0
    9.0635   -7.7550    0.0000 C   0  0  0  0  0  0  0  0  0  0  0  0
    9.0635   -6.9300    0.0000 C   0  0  0  0  0  0  0  0  0  0  0  0
    8.3490   -6.5175    0.0000 C   0  0  0  0  0  0  0  0  0  0  0  0
    9.7779   -8.1675    0.0000 C   0  0  0  0  0  0  0  0  0  0  0  0
   10.4924   -7.7550    0.0000 C   0  0  0  0  0  0  0  0  0  0  0  0
   10.4924   -6.9300    0.0000 C   0  0  0  0  0  0  0  0  0  0  0  0
    9.7779   -6.5175    0.0000 O   0  0  0  0  0  0  0  0  0  0  0  0
   11.2069   -8.1675    0.0000 C   0  0  0  0  0  0  0  0  0  0  0  0
   11.9214   -7.7550    0.0000 C   0  0  0  0  0  0  0  0  0  0  0  0
   11.2069   -8.9925    0.0000 C   0  0  0  0  0  0  0  0  0  0  0  0
   11.9214   -9.4050    0.0000 C   0  0  0  0  0  0  0  0  0  0  0  0
   12.6358   -8.9925    0.0000 C   0  0  0  0  0  0  0  0  0  0  0  0
   12.6358   -8.1675    0.0000 C   0  0  0  0  0  0  0  0  0  0  0  0
    6.9201   -6.5175    0.0000 O   0  0  0  0  0  0  0  0  0  0  0  0
    9.7779   -8.9925    0.0000 O   0  0  0  0  0  0  0  0  0  0  0  0
   13.3503   -9.4050    0.0000 O   0  0  0  0  0  0  0  0  0  0  0  0
   13.3503   -7.7550    0.0000 O   0  0  0  0  0  0  0  0  0  0  0  0
    4.7677   -6.9300    0.0000 C   0  0  2  0  0  0  0  0  0  0  0  0
    4.7677   -7.7550    0.0000 C   0  0  2  0  0  0  0  0  0  0  0  0
    5.4821   -8.1675    0.0000 C   0  0  1  0  0  0  0  0  0  0  0  0
    6.1966   -7.7550    0.0000 C   0  0  2  0  0  0  0  0  0  0  0  0
    6.1966   -6.9300    0.0000 C   0  0  1  0  0  0  0  0  0  0  0  0
    5.4821   -6.5175    0.0000 O   0  0  0  0  0  0  0  0  0  0  0  0
    4.0532   -6.5175    0.0000 C   0  0  0  0  0  0  0  0  0  0  0  0
    5.4821   -8.9925    0.0000 O   0  0  0  0  0  0  0  0  0  0  0  0
    3.3387   -6.9300    0.0000 O   0  0  0  0  0  0  0  0  0  0  0  0
    6.9111   -8.1675    0.0000 O   0  0  0  0  0  0  0  0  0  0  0  0
    4.0532   -8.1675    0.0000 O   0  0  0  0  0  0  0  0  0  0  0  0
   14.0648   -8.9925    0.0000 C   0  0  0  0  0  0  0  0  0  0  0  0
    2.6242   -6.5175    0.0000 C   0  0  0  0  0  0  0  0  0  0  0  0
    1.9098   -6.9300    0.0000 C   0  0  0  0  0  0  0  0  0  0  0  0
    2.6242   -5.6925    0.0000 O   0  0  0  0  0  0  0  0  0  0  0  0
    1.1953   -6.5175    0.0000 C   0  0  0  0  0  0  0  0  0  0  0  0
    0.4808   -6.9300    0.0000 C   0  0  0  0  0  0  0  0  0  0  0  0
  1  2  2  0  0  0  0
  2  3  1  0  0  0  0
  3  4  2  0  0  0  0
  4  5  1  0  0  0  0
  5  6  2  0  0  0  0
  6  1  1  0  0  0  0
  4  7  1  0  0  0  0
  7  8  1  0  0  0  0
  8  9  2  0  0  0  0
  9 10  1  0  0  0  0
 10  5  1  0  0  0  0
  8 11  1  0  0  0  0
 11 12  1  0  0  0  0
 11 13  2  0  0  0  0
 13 14  1  0  0  0  0
 14 15  2  0  0  0  0
 15 16  1  0  0  0  0
 16 12  2  0  0  0  0
  1 17  1  0  0  0  0
  7 18  2  0  0  0  0
 15 19  1  0  0  0  0
 16 20  1  0  0  0  0
 21 22  1  0  0  0  0
 22 23  1  0  0  0  0
 23 24  1  0  0  0  0
 24 25  1  0  0  0  0
 25 26  1  0  0  0  0
 26 21  1  0  0  0  0
 21 27  1  1  0  0  0
 23 28  1  1  0  0  0
 27 29  1  0  0  0  0
 24 30  1  6  0  0  0
 22 31  1  6  0  0  0
 25 17  1  1  0  0  0
 19 32  1  0  0  0  0
 29 33  1  0  0  0  0
 33 34  1  0  0  0  0
 33 35  2  0  0  0  0
 34 36  2  0  0  0  0
 36 37  1  0  0  0  0
M  END
>  <cdx:fragmentId>
5

$$$$
