91538.cdx
  Mrv1902 05222410182D          

 42 47  0  0  0  0            999 V2000
    5.5407  -10.1191    0.0000 C   0  0  1  0  0  0  0  0  0  0  0  0
    4.8270   -9.7054    0.0000 O   0  0  0  0  0  0  0  0  0  0  0  0
    4.1118  -10.1166    0.0000 C   0  0  0  0  0  0  0  0  0  0  0  0
    4.1103  -10.9416    0.0000 C   0  0  0  0  0  0  0  0  0  0  0  0
    4.8241  -11.3554    0.0000 C   0  0  0  0  0  0  0  0  0  0  0  0
    5.5393  -10.9441    0.0000 C   0  0  2  0  0  0  0  0  0  0  0  0
    3.3980   -9.7029    0.0000 C   0  0  0  0  0  0  0  0  0  0  0  0
    2.6828  -10.1141    0.0000 C   0  0  0  0  0  0  0  0  0  0  0  0
    2.6814  -10.9391    0.0000 C   0  0  0  0  0  0  0  0  0  0  0  0
    3.3951  -11.3528    0.0000 C   0  0  0  0  0  0  0  0  0  0  0  0
    1.9691   -9.7003    0.0000 O   0  0  0  0  0  0  0  0  0  0  0  0
    3.3937  -12.1778    0.0000 O   0  0  0  0  0  0  0  0  0  0  0  0
    6.2530  -11.3579    0.0000 O   0  0  0  0  0  0  0  0  0  0  0  0
    6.9740   -7.6466    0.0000 O   0  0  0  0  0  0  0  0  0  0  0  0
    8.4015   -8.4741    0.0000 O   0  0  0  0  0  0  0  0  0  0  0  0
    7.6848   -9.7104    0.0000 C   0  0  0  0  0  0  0  0  0  0  0  0
    7.6863   -8.8854    0.0000 C   0  0  0  0  0  0  0  0  0  0  0  0
    6.9725   -8.4716    0.0000 C   0  0  0  0  0  0  0  0  0  0  0  0
    6.2573   -8.8829    0.0000 C   0  0  0  0  0  0  0  0  0  0  0  0
    6.2559   -9.7079    0.0000 C   0  0  0  0  0  0  0  0  0  0  0  0
    6.9696  -10.1216    0.0000 C   0  0  0  0  0  0  0  0  0  0  0  0
   11.9817  -10.2817    0.0000 O   0  0  0  0  0  0  0  0  0  0  0  0
   10.5542   -9.4542    0.0000 O   0  0  0  0  0  0  0  0  0  0  0  0
    5.5493  -11.5079    0.0000 O   0  0  0  0  0  0  0  0  0  0  0  0
   11.2650  -11.5179    0.0000 C   0  0  0  0  0  0  0  0  0  0  0  0
   11.2665  -10.6929    0.0000 C   0  0  0  0  0  0  0  0  0  0  0  0
   10.5527  -10.2792    0.0000 C   0  0  0  0  0  0  0  0  0  0  0  0
    9.8375  -10.6904    0.0000 C   0  0  0  0  0  0  0  0  0  0  0  0
    9.8332  -13.1654    0.0000 O   0  0  0  0  0  0  0  0  0  0  0  0
   10.5498  -11.9292    0.0000 C   0  0  0  0  0  0  0  0  0  0  0  0
    9.8361  -11.5154    0.0000 C   0  0  0  0  0  0  0  0  0  0  0  0
    8.4043  -13.1629    0.0000 C   0  0  0  0  0  0  0  0  0  0  0  0
    9.1194  -12.7516    0.0000 C   0  0  1  0  0  0  0  0  0  0  0  0
    9.1209  -11.9266    0.0000 C   0  0  2  0  0  0  0  0  0  0  0  0
    8.4071  -11.5129    0.0000 O   0  0  0  0  0  0  0  0  0  0  0  0
    7.6905  -12.7491    0.0000 C   0  0  0  0  0  0  0  0  0  0  0  0
    7.6920  -11.9241    0.0000 C   0  0  0  0  0  0  0  0  0  0  0  0
    6.9782  -11.5104    0.0000 C   0  0  0  0  0  0  0  0  0  0  0  0
    6.2630  -11.9216    0.0000 C   0  0  0  0  0  0  0  0  0  0  0  0
    6.9739  -13.9854    0.0000 O   0  0  0  0  0  0  0  0  0  0  0  0
    6.9753  -13.1604    0.0000 C   0  0  0  0  0  0  0  0  0  0  0  0
    6.2616  -12.7466    0.0000 C   0  0  0  0  0  0  0  0  0  0  0  0
  1  2  1  0  0  0  0
  2  3  1  0  0  0  0
  3  4  1  0  0  0  0
  4  5  1  0  0  0  0
  5  6  1  0  0  0  0
  6  1  1  0  0  0  0
  3  7  2  0  0  0  0
  7  8  1  0  0  0  0
  8  9  2  0  0  0  0
  9 10  1  0  0  0  0
 10  4  2  0  0  0  0
  8 11  1  0  0  0  0
 10 12  1  0  0  0  0
  1 20  1  6  0  0  0
  6 13  1  1  0  0  0
 18 14  1  0  0  0  0
 17 15  1  0  0  0  0
 16 21  1  0  0  0  0
 17 16  2  0  0  0  0
 18 17  1  0  0  0  0
 19 18  2  0  0  0  0
 20 19  1  0  0  0  0
 21 20  2  0  0  0  0
 38 21  1  0  0  0  0
 26 22  1  0  0  0  0
 27 23  1  0  0  0  0
 39 24  1  0  0  0  0
 25 30  2  0  0  0  0
 26 25  1  0  0  0  0
 27 26  2  0  0  0  0
 28 27  1  0  0  0  0
 31 28  2  0  0  0  0
 33 29  1  1  0  0  0
 31 30  1  0  0  0  0
 34 31  1  6  0  0  0
 32 36  1  0  0  0  0
 33 32  1  0  0  0  0
 34 33  1  0  0  0  0
 35 34  1  0  0  0  0
 37 35  1  0  0  0  0
 36 41  1  0  0  0  0
 37 36  2  0  0  0  0
 38 37  1  0  0  0  0
 39 38  2  0  0  0  0
 42 39  1  0  0  0  0
 41 40  1  0  0  0  0
 42 41  2  0  0  0  0
M  END
>  <cdx:fragmentId>
135

$$$$
