91545.cdx
  Mrv1902 05222410242D          

 48 47  0  0  0  0            999 V2000
   20.7727  -10.3241    0.0000 C   0  0  2  0  0  0  0  0  0  0  0  0
   20.0630   -9.9071    0.0000 C   0  0  2  0  0  0  0  0  0  0  0  0
   19.3469  -10.3132    0.0000 C   0  0  1  0  0  0  0  0  0  0  0  0
   18.6372   -9.8962    0.0000 N   0  0  0  0  0  0  0  0  0  0  0  0
   17.9212  -10.3024    0.0000 C   0  0  0  0  0  0  0  0  0  0  0  0
   17.2115   -9.8854    0.0000 C   0  0  1  0  0  0  0  0  0  0  0  0
   16.4954  -10.2915    0.0000 C   0  0  0  0  0  0  0  0  0  0  0  0
   15.7857   -9.8745    0.0000 C   0  0  0  0  0  0  0  0  0  0  0  0
   15.0697  -10.2807    0.0000 C   0  0  0  0  0  0  0  0  0  0  0  0
   14.3600   -9.8637    0.0000 C   0  0  0  0  0  0  0  0  0  0  0  0
   13.6439  -10.2698    0.0000 C   0  0  0  0  0  0  0  0  0  0  0  0
   12.9342   -9.8528    0.0000 C   0  0  0  0  0  0  0  0  0  0  0  0
   12.2182  -10.2590    0.0000 C   0  0  0  0  0  0  0  0  0  0  0  0
   11.5085   -9.8420    0.0000 C   0  0  0  0  0  0  0  0  0  0  0  0
   10.7924  -10.2481    0.0000 C   0  0  0  0  0  0  0  0  0  0  0  0
   10.0827   -9.8311    0.0000 C   0  0  0  0  0  0  0  0  0  0  0  0
    9.3667  -10.2373    0.0000 C   0  0  0  0  0  0  0  0  0  0  0  0
    8.6570   -9.8203    0.0000 C   0  0  0  0  0  0  0  0  0  0  0  0
    7.9409  -10.2264    0.0000 C   0  0  0  0  0  0  0  0  0  0  0  0
    7.2312   -9.8094    0.0000 C   0  0  0  0  0  0  0  0  0  0  0  0
    6.5152  -10.2156    0.0000 C   0  0  0  0  0  0  0  0  0  0  0  0
    5.8055   -9.7986    0.0000 C   0  0  0  0  0  0  0  0  0  0  0  0
    5.0894  -10.2047    0.0000 C   0  0  0  0  0  0  0  0  0  0  0  0
    4.3797   -9.7877    0.0000 C   0  0  0  0  0  0  0  0  0  0  0  0
    3.6637  -10.1939    0.0000 C   0  0  0  0  0  0  0  0  0  0  0  0
    2.9540   -9.7769    0.0000 C   0  0  0  0  0  0  0  0  0  0  0  0
    2.2379  -10.1830    0.0000 C   0  0  0  0  0  0  0  0  0  0  0  0
    1.5282   -9.7660    0.0000 C   0  0  0  0  0  0  0  0  0  0  0  0
   19.3407  -11.1364    0.0000 C   0  0  0  0  0  0  0  0  0  0  0  0
   18.6247  -11.5425    0.0000 O   0  0  0  0  0  0  0  0  0  0  0  0
   17.9149  -11.1255    0.0000 O   0  0  0  0  0  0  0  0  0  0  0  0
   17.2177   -9.0622    0.0000 O   0  0  0  0  0  0  0  0  0  0  0  0
   20.7727  -11.1491    0.0000 O   0  0  0  0  0  0  0  0  0  0  0  0
   20.0692   -9.0839    0.0000 O   0  0  0  0  0  0  0  0  0  0  0  0
   21.4932   -9.9485    0.0000 C   0  0  0  0  0  0  0  0  0  0  0  0
   22.2132  -10.3475    0.0000 C   0  0  0  0  0  0  0  0  0  0  0  0
   22.9187   -9.9234    0.0000 C   0  0  0  0  0  0  0  0  0  0  0  0
   23.6387  -10.3224    0.0000 C   0  0  0  0  0  0  0  0  0  0  0  0
   24.3443   -9.8984    0.0000 C   0  0  0  0  0  0  0  0  0  0  0  0
   25.0643  -10.2974    0.0000 C   0  0  0  0  0  0  0  0  0  0  0  0
   25.7699   -9.8733    0.0000 C   0  0  0  0  0  0  0  0  0  0  0  0
   26.4899  -10.2723    0.0000 C   0  0  0  0  0  0  0  0  0  0  0  0
   27.1954   -9.8482    0.0000 C   0  0  0  0  0  0  0  0  0  0  0  0
   27.9155  -10.2472    0.0000 C   0  0  0  0  0  0  0  0  0  0  0  0
   28.6210   -9.8232    0.0000 C   0  0  0  0  0  0  0  0  0  0  0  0
   29.3410  -10.2222    0.0000 C   0  0  0  0  0  0  0  0  0  0  0  0
   30.0466   -9.7981    0.0000 C   0  0  0  0  0  0  0  0  0  0  0  0
   30.7666  -10.1971    0.0000 C   0  0  0  0  0  0  0  0  0  0  0  0
  2  1  1  0  0  0  0
  3  2  1  0  0  0  0
  3  4  1  6  0  0  0
  5  4  1  0  0  0  0
  6  5  1  0  0  0  0
  7  6  1  0  0  0  0
  8  7  1  0  0  0  0
  9  8  1  0  0  0  0
 10  9  1  0  0  0  0
 11 10  1  0  0  0  0
 12 11  1  0  0  0  0
 13 12  1  0  0  0  0
 14 13  1  0  0  0  0
 15 14  1  0  0  0  0
 16 15  1  0  0  0  0
 17 16  1  0  0  0  0
 18 17  1  0  0  0  0
 19 18  1  0  0  0  0
 20 19  1  0  0  0  0
 21 20  1  0  0  0  0
 22 21  1  0  0  0  0
 23 22  1  0  0  0  0
 24 23  1  0  0  0  0
 25 24  1  0  0  0  0
 26 25  1  0  0  0  0
 27 26  1  0  0  0  0
 28 27  1  0  0  0  0
  3 29  1  0  0  0  0
 29 30  1  0  0  0  0
  5 31  2  0  0  0  0
  6 32  1  1  0  0  0
  1 33  1  1  0  0  0
  2 34  1  6  0  0  0
 35 36  1  0  0  0  0
 36 37  1  0  0  0  0
 37 38  1  0  0  0  0
 38 39  1  0  0  0  0
 39 40  1  0  0  0  0
 40 41  1  0  0  0  0
 41 42  1  0  0  0  0
 42 43  1  0  0  0  0
 43 44  1  0  0  0  0
 44 45  1  0  0  0  0
 45 46  1  0  0  0  0
 46 47  1  0  0  0  0
 47 48  1  0  0  0  0
 35  1  1  0  0  0  0
M  END
>  <cdx:fragmentId>
3

$$$$
