91540.cdx
  Mrv1902 05222410252D          

 58 65  0  0  0  0            999 V2000
   16.9289   -5.3369    0.0000 O   0  0  0  0  0  0  0  0  0  0  0  0
   16.4440   -6.0043    0.0000 C   0  0  0  0  0  0  0  0  0  0  0  0
   16.9289   -6.6718    0.0000 C   0  0  0  0  0  0  0  0  0  0  0  0
   17.7136   -6.4168    0.0000 C   0  0  0  0  0  0  0  0  0  0  0  0
   17.7136   -5.5918    0.0000 C   0  0  0  0  0  0  0  0  0  0  0  0
   18.3810   -5.1069    0.0000 O   0  0  0  0  0  0  0  0  0  0  0  0
   13.0315   -8.5363    0.0000 C   0  0  0  0  0  0  0  0  0  0  0  0
   12.3170   -8.9488    0.0000 C   0  0  0  0  0  0  0  0  0  0  0  0
   12.3170   -9.7738    0.0000 C   0  0  1  0  0  0  0  0  0  0  0  0
   13.0315  -10.1863    0.0000 C   0  0  0  0  0  0  0  0  0  0  0  0
   13.7460   -9.7738    0.0000 C   0  0  1  0  0  0  0  0  0  0  0  0
   14.4604  -10.1863    0.0000 C   0  0  0  0  0  0  0  0  0  0  0  0
   15.1749   -9.7738    0.0000 C   0  0  0  0  0  0  0  0  0  0  0  0
   15.1749   -8.9488    0.0000 C   0  0  1  0  0  0  0  0  0  0  0  0
   15.8894   -8.5363    0.0000 C   0  0  1  0  0  0  0  0  0  0  0  0
   16.6740   -8.7913    0.0000 C   0  0  0  0  0  0  0  0  0  0  0  0
   17.1589   -8.1238    0.0000 C   0  0  1  0  0  0  0  0  0  0  0  0
   16.6740   -7.4564    0.0000 C   0  0  1  0  0  0  0  0  0  0  0  0
   15.8894   -7.7113    0.0000 C   0  0  1  0  0  0  0  0  0  0  0  0
   15.1749   -7.2988    0.0000 C   0  0  0  0  0  0  0  0  0  0  0  0
   14.4604   -7.7113    0.0000 C   0  0  0  0  0  0  0  0  0  0  0  0
   14.4604   -8.5363    0.0000 C   0  0  2  0  0  0  0  0  0  0  0  0
   13.7460   -8.9488    0.0000 C   0  0  1  0  0  0  0  0  0  0  0  0
   15.9756   -6.8908    0.0000 C   0  0  0  0  0  0  0  0  0  0  0  0
   13.7460   -8.1238    0.0000 C   0  0  0  0  0  0  0  0  0  0  0  0
   17.9839   -8.1238    0.0000 O   0  0  0  0  0  0  0  0  0  0  0  0
   15.8894   -9.3613    0.0000 O   0  0  0  0  0  0  0  0  0  0  0  0
   11.6026  -10.1863    0.0000 O   0  0  0  0  0  0  0  0  0  0  0  0
   10.8881   -8.9488    0.0000 O   0  0  0  0  0  0  0  0  0  0  0  0
   10.8881   -9.7738    0.0000 C   0  0  2  0  0  0  0  0  0  0  0  0
   10.1736  -10.1863    0.0000 C   0  0  0  0  0  0  0  0  0  0  0  0
    9.4591   -9.7738    0.0000 C   0  0  1  0  0  0  0  0  0  0  0  0
    9.4591   -8.9488    0.0000 C   0  0  1  0  0  0  0  0  0  0  0  0
   10.1736   -8.5363    0.0000 C   0  0  1  0  0  0  0  0  0  0  0  0
   10.1736   -7.7113    0.0000 C   0  0  0  0  0  0  0  0  0  0  0  0
    8.7447  -10.1863    0.0000 O   0  0  0  0  0  0  0  0  0  0  0  0
    8.7447   -8.5363    0.0000 O   0  0  0  0  0  0  0  0  0  0  0  0
    7.3157   -8.5363    0.0000 O   0  0  0  0  0  0  0  0  0  0  0  0
    8.0302   -8.9488    0.0000 C   0  0  2  0  0  0  0  0  0  0  0  0
    8.0302   -9.7738    0.0000 C   0  0  0  0  0  0  0  0  0  0  0  0
    7.3157  -10.1863    0.0000 C   0  0  1  0  0  0  0  0  0  0  0  0
    6.6013   -9.7738    0.0000 C   0  0  1  0  0  0  0  0  0  0  0  0
    6.6013   -8.9488    0.0000 C   0  0  1  0  0  0  0  0  0  0  0  0
    5.8868   -8.5363    0.0000 C   0  0  0  0  0  0  0  0  0  0  0  0
    7.3157  -11.0113    0.0000 O   0  0  0  0  0  0  0  0  0  0  0  0
    5.8868  -10.1863    0.0000 O   0  0  0  0  0  0  0  0  0  0  0  0
    5.1723   -8.9488    0.0000 O   0  0  0  0  0  0  0  0  0  0  0  0
    5.1723   -9.7738    0.0000 C   0  0  2  0  0  0  0  0  0  0  0  0
    4.4578  -10.1863    0.0000 C   0  0  0  0  0  0  0  0  0  0  0  0
    3.7434   -9.7738    0.0000 C   0  0  1  0  0  0  0  0  0  0  0  0
    3.7434   -8.9488    0.0000 C   0  0  1  0  0  0  0  0  0  0  0  0
    4.4578   -8.5363    0.0000 C   0  0  1  0  0  0  0  0  0  0  0  0
    4.4578   -7.7113    0.0000 C   0  0  0  0  0  0  0  0  0  0  0  0
    3.0289   -8.5363    0.0000 O   0  0  0  0  0  0  0  0  0  0  0  0
    3.0289  -10.1863    0.0000 O   0  0  0  0  0  0  0  0  0  0  0  0
   13.7460  -10.5988    0.0000 H   0  0  0  0  0  0  0  0  0  0  0  0
   15.1749   -8.1238    0.0000 H   0  0  0  0  0  0  0  0  0  0  0  0
   14.4604   -9.3613    0.0000 H   0  0  0  0  0  0  0  0  0  0  0  0
  1  2  1  0  0  0  0
  2  3  1  0  0  0  0
  3  4  2  0  0  0  0
  4  5  1  0  0  0  0
  1  5  1  0  0  0  0
  5  6  2  0  0  0  0
  7  8  1  0  0  0  0
  8  9  1  0  0  0  0
  9 10  1  0  0  0  0
 10 11  1  0  0  0  0
 11 12  1  0  0  0  0
 12 13  1  0  0  0  0
 13 14  1  0  0  0  0
 14 15  1  0  0  0  0
 15 16  1  0  0  0  0
 16 17  1  0  0  0  0
 17 18  1  0  0  0  0
 18 19  1  0  0  0  0
 15 19  1  0  0  0  0
 19 20  1  0  0  0  0
 20 21  1  0  0  0  0
 21 22  1  0  0  0  0
 14 22  1  0  0  0  0
 22 23  1  0  0  0  0
 11 23  1  0  0  0  0
  7 23  1  0  0  0  0
 19 24  1  1  0  0  0
 23 25  1  1  0  0  0
 17 26  1  1  0  0  0
 15 27  1  1  0  0  0
 29 30  1  0  0  0  0
 30 31  1  0  0  0  0
 31 32  1  0  0  0  0
 32 33  1  0  0  0  0
 33 34  1  0  0  0  0
 29 34  1  0  0  0  0
 34 35  1  1  0  0  0
 32 36  1  6  0  0  0
 38 39  1  0  0  0  0
 39 40  1  0  0  0  0
 40 41  1  0  0  0  0
 41 42  1  0  0  0  0
 42 43  1  0  0  0  0
 38 43  1  0  0  0  0
 43 44  1  1  0  0  0
 41 45  1  6  0  0  0
 47 48  1  0  0  0  0
 48 49  1  0  0  0  0
 49 50  1  0  0  0  0
 50 51  1  0  0  0  0
 51 52  1  0  0  0  0
 47 52  1  0  0  0  0
 52 53  1  1  0  0  0
 51 54  1  6  0  0  0
 50 55  1  6  0  0  0
 48 46  1  1  0  0  0
 42 46  1  6  0  0  0
 39 37  1  1  0  0  0
 33 37  1  6  0  0  0
 30 28  1  1  0  0  0
  9 28  1  1  0  0  0
 18  3  1  1  0  0  0
 11 56  1  1  0  0  0
 14 57  1  1  0  0  0
 22 58  1  6  0  0  0
M  END
>  <cdx:fragmentId>
97

$$$$
