915415.cdx
  Mrv1902 05222410272D          

 11 11  0  0  0  0            999 V2000
    6.4482   -8.0060    0.0000 C   0  0  0  0  0  0  0  0  0  0  0  0
    7.1623   -8.4192    0.0000 C   0  0  0  0  0  0  0  0  0  0  0  0
    7.1614   -9.2442    0.0000 C   0  0  0  0  0  0  0  0  0  0  0  0
    6.4465   -9.6560    0.0000 C   0  0  0  0  0  0  0  0  0  0  0  0
    5.7324   -9.2427    0.0000 C   0  0  0  0  0  0  0  0  0  0  0  0
    5.7333   -8.4177    0.0000 C   0  0  0  0  0  0  0  0  0  0  0  0
    6.4491   -7.1810    0.0000 O   0  0  0  0  0  0  0  0  0  0  0  0
    9.3061   -8.0090    0.0000 C   0  0  0  0  0  0  0  0  0  0  0  0
    8.5903   -9.2458    0.0000 C   0  0  0  0  0  0  0  0  0  0  0  0
    8.5912   -8.4208    0.0000 C   0  0  0  0  0  0  0  0  0  0  0  0
    7.8772   -8.0075    0.0000 C   0  0  0  0  0  0  0  0  0  0  0  0
 10  8  1  0  0  0  0
 10  9  1  0  0  0  0
 11 10  1  0  0  0  0
  1  2  1  0  0  0  0
  2  3  1  0  0  0  0
  3  4  1  0  0  0  0
  4  5  1  0  0  0  0
  5  6  1  0  0  0  0
  1  6  1  0  0  0  0
  1  7  2  0  0  0  0
  2 11  2  0  0  0  0
M  END
>  <cdx:fragmentId>
5

$$$$
