13915428.cdx
  Mrv1902 05222410262D          

 23 26  0  0  0  0            999 V2000
    6.4043  -14.6349    0.0000 C   0  0  0  0  0  0  0  0  0  0  0  0
    6.4056  -13.8099    0.0000 O   0  0  0  0  0  0  0  0  0  0  0  0
    7.1201  -13.3974    0.0000 C   0  0  0  0  0  0  0  0  0  0  0  0
    7.8332  -13.8099    0.0000 C   0  0  0  0  0  0  0  0  0  0  0  0
    8.5477  -13.3974    0.0000 C   0  0  0  0  0  0  0  0  0  0  0  0
    9.2622  -13.8099    0.0000 C   0  0  0  0  0  0  0  0  0  0  0  0
    9.2622  -14.6349    0.0000 C   0  0  0  0  0  0  0  0  0  0  0  0
    8.5477  -15.0474    0.0000 C   0  0  0  0  0  0  0  0  0  0  0  0
    8.5477  -15.8724    0.0000 O   0  0  0  0  0  0  0  0  0  0  0  0
    7.8332  -16.2849    0.0000 C   0  0  0  0  0  0  0  0  0  0  0  0
    7.1188  -15.8724    0.0000 C   0  0  0  0  0  0  0  0  0  0  0  0
    6.4043  -16.2849    0.0000 C   0  0  0  0  0  0  0  0  0  0  0  0
    5.6898  -15.8724    0.0000 C   0  0  0  0  0  0  0  0  0  0  0  0
    5.6898  -15.0474    0.0000 C   0  0  0  0  0  0  0  0  0  0  0  0
    7.1188  -15.0474    0.0000 C   0  0  0  0  0  0  0  0  0  0  0  0
    7.8332  -14.6349    0.0000 C   0  0  0  0  0  0  0  0  0  0  0  0
    7.1201  -12.5724    0.0000 O   0  0  0  0  0  0  0  0  0  0  0  0
    7.8332  -17.1099    0.0000 O   0  0  0  0  0  0  0  0  0  0  0  0
    4.9754  -14.6349    0.0000 O   0  0  0  0  0  0  0  0  0  0  0  0
    4.2609  -15.0474    0.0000 C   0  0  0  0  0  0  0  0  0  0  0  0
    4.9754  -16.2849    0.0000 O   0  0  0  0  0  0  0  0  0  0  0  0
    9.9766  -15.0474    0.0000 O   0  0  0  0  0  0  0  0  0  0  0  0
    9.9766  -13.3974    0.0000 O   0  0  0  0  0  0  0  0  0  0  0  0
  1  2  1  0  0  0  0
  2  3  1  0  0  0  0
  3  4  1  0  0  0  0
  4  5  2  0  0  0  0
  5  6  1  0  0  0  0
  6  7  2  0  0  0  0
  7  8  1  0  0  0  0
  8  9  1  0  0  0  0
  9 10  1  0  0  0  0
 10 11  1  0  0  0  0
 11 12  2  0  0  0  0
 12 13  1  0  0  0  0
 13 14  2  0  0  0  0
 15 16  1  0  0  0  0
  1 14  1  0  0  0  0
  1 15  2  0  0  0  0
 16  8  2  0  0  0  0
 11 15  1  0  0  0  0
  4 16  1  0  0  0  0
  3 17  2  0  0  0  0
 10 18  2  0  0  0  0
 19 20  1  0  0  0  0
 14 19  1  0  0  0  0
 13 21  1  0  0  0  0
  7 22  1  0  0  0  0
  6 23  1  0  0  0  0
M  END
>  <cdx:groupId>
98167

>  <cdx:fragmentId>
98098

$$$$
