91542.cdx
  Mrv1902 05222410252D          

 61 67  0  0  0  0            999 V2000
    7.2031   -8.7439    0.0000 C   0  0  2  0  0  0  0  0  0  0  0  0
    7.2031   -9.5689    0.0000 C   0  0  1  0  0  0  0  0  0  0  0  0
    7.9175   -9.9814    0.0000 C   0  0  1  0  0  0  0  0  0  0  0  0
    8.6320   -9.5689    0.0000 C   0  0  1  0  0  0  0  0  0  0  0  0
    8.6320   -8.7439    0.0000 C   0  0  2  0  0  0  0  0  0  0  0  0
    7.9175   -8.3314    0.0000 C   0  0  0  0  0  0  0  0  0  0  0  0
    9.3465   -9.9814    0.0000 C   0  0  0  0  0  0  0  0  0  0  0  0
   10.0609   -9.5689    0.0000 C   0  0  0  0  0  0  0  0  0  0  0  0
   10.0609   -8.7439    0.0000 C   0  0  2  0  0  0  0  0  0  0  0  0
    9.3465   -8.3314    0.0000 C   0  0  2  0  0  0  0  0  0  0  0  0
   10.7754   -8.3314    0.0000 C   0  0  1  0  0  0  0  0  0  0  0  0
   10.7754   -7.5064    0.0000 C   0  0  0  0  0  0  0  0  0  0  0  0
   10.0609   -7.0939    0.0000 C   0  0  0  0  0  0  0  0  0  0  0  0
    9.3465   -7.5064    0.0000 C   0  0  0  0  0  0  0  0  0  0  0  0
   11.4899   -8.7439    0.0000 C   0  0  0  0  0  0  0  0  0  0  0  0
   12.2044   -8.3314    0.0000 C   0  0  0  0  0  0  0  0  0  0  0  0
   12.2044   -7.5064    0.0000 C   0  0  2  0  0  0  0  0  0  0  0  0
   11.4899   -7.0939    0.0000 C   0  0  1  0  0  0  0  0  0  0  0  0
   12.9188   -7.0939    0.0000 C   0  0  0  0  0  0  0  0  0  0  0  0
   12.9188   -6.2689    0.0000 C   0  0  0  0  0  0  0  0  0  0  0  0
   12.2044   -5.8564    0.0000 C   0  0  1  0  0  0  0  0  0  0  0  0
   11.4899   -6.2689    0.0000 C   0  0  0  0  0  0  0  0  0  0  0  0
   11.7919   -5.1419    0.0000 C   0  0  0  0  0  0  0  0  0  0  0  0
   12.9188   -7.9189    0.0000 C   0  0  0  0  0  0  0  0  0  0  0  0
   10.0609   -7.9189    0.0000 C   0  0  0  0  0  0  0  0  0  0  0  0
    8.6320   -7.9189    0.0000 C   0  0  0  0  0  0  0  0  0  0  0  0
    6.4886   -8.3314    0.0000 O   0  0  0  0  0  0  0  0  0  0  0  0
    6.4886   -9.9814    0.0000 O   0  0  0  0  0  0  0  0  0  0  0  0
    7.5050  -10.6959    0.0000 C   0  0  0  0  0  0  0  0  0  0  0  0
   12.6169   -5.1419    0.0000 C   0  0  0  0  0  0  0  0  0  0  0  0
   10.7754   -9.1564    0.0000 C   0  0  0  0  0  0  0  0  0  0  0  0
    8.3300  -10.6959    0.0000 C   0  0  0  0  0  0  0  0  0  0  0  0
    5.7731   -9.5707    0.0000 C   0  0  2  0  0  0  0  0  0  0  0  0
    5.7709   -8.7457    0.0000 O   0  0  0  0  0  0  0  0  0  0  0  0
    5.0554   -8.3351    0.0000 C   0  0  1  0  0  0  0  0  0  0  0  0
    4.3420   -8.7494    0.0000 C   0  0  2  0  0  0  0  0  0  0  0  0
    4.3441   -9.5744    0.0000 C   0  0  1  0  0  0  0  0  0  0  0  0
    5.0596   -9.9851    0.0000 C   0  0  1  0  0  0  0  0  0  0  0  0
    5.0533   -7.5101    0.0000 C   0  0  0  0  0  0  0  0  0  0  0  0
    3.6307   -9.9888    0.0000 O   0  0  0  0  0  0  0  0  0  0  0  0
    3.6265   -8.3388    0.0000 O   0  0  0  0  0  0  0  0  0  0  0  0
    5.0618  -10.8101    0.0000 O   0  0  0  0  0  0  0  0  0  0  0  0
    4.3377   -7.0994    0.0000 O   0  0  0  0  0  0  0  0  0  0  0  0
    5.7667   -7.0957    0.0000 O   0  0  0  0  0  0  0  0  0  0  0  0
    4.3484  -11.2244    0.0000 C   0  0  2  0  0  0  0  0  0  0  0  0
    3.6328  -10.8138    0.0000 O   0  0  0  0  0  0  0  0  0  0  0  0
    2.9194  -11.2281    0.0000 C   0  0  1  0  0  0  0  0  0  0  0  0
    2.9216  -12.0531    0.0000 C   0  0  1  0  0  0  0  0  0  0  0  0
    3.6371  -12.4638    0.0000 C   0  0  1  0  0  0  0  0  0  0  0  0
    4.3505  -12.0494    0.0000 C   0  0  1  0  0  0  0  0  0  0  0  0
    2.2039  -10.8174    0.0000 C   0  0  0  0  0  0  0  0  0  0  0  0
    2.2081  -12.4674    0.0000 O   0  0  0  0  0  0  0  0  0  0  0  0
    3.6392  -13.2887    0.0000 O   0  0  0  0  0  0  0  0  0  0  0  0
    5.0660  -12.4601    0.0000 O   0  0  0  0  0  0  0  0  0  0  0  0
    1.4905  -11.2318    0.0000 O   0  0  0  0  0  0  0  0  0  0  0  0
   13.6333   -7.5064    0.0000 O   0  0  0  0  0  0  0  0  0  0  0  0
   12.9188   -8.7439    0.0000 O   0  0  0  0  0  0  0  0  0  0  0  0
    7.9175  -11.4103    0.0000 O   0  0  0  0  0  0  0  0  0  0  0  0
    8.6320  -10.3939    0.0000 H   0  0  0  0  0  0  0  0  0  0  0  0
    9.3465   -9.1564    0.0000 H   0  0  0  0  0  0  0  0  0  0  0  0
   11.4899   -7.9189    0.0000 H   0  0  0  0  0  0  0  0  0  0  0  0
  1  2  1  0  0  0  0
  2  3  1  0  0  0  0
  3  4  1  0  0  0  0
  4  5  1  0  0  0  0
  5  6  1  0  0  0  0
  6  1  1  0  0  0  0
  4  7  1  0  0  0  0
  7  8  1  0  0  0  0
  8  9  1  0  0  0  0
  9 10  1  0  0  0  0
 10  5  1  0  0  0  0
  9 11  1  0  0  0  0
 11 12  1  0  0  0  0
 12 13  2  0  0  0  0
 13 14  1  0  0  0  0
 14 10  1  0  0  0  0
 11 15  1  0  0  0  0
 15 16  1  0  0  0  0
 16 17  1  0  0  0  0
 17 18  1  0  0  0  0
 18 12  1  0  0  0  0
 17 19  1  0  0  0  0
 19 20  1  0  0  0  0
 20 21  1  0  0  0  0
 21 22  1  0  0  0  0
 22 18  1  0  0  0  0
 21 23  1  1  0  0  0
 17 24  1  1  0  0  0
  9 25  1  1  0  0  0
  5 26  1  1  0  0  0
  1 27  1  1  0  0  0
  2 28  1  1  0  0  0
  3 29  1  1  0  0  0
 21 30  1  6  0  0  0
 11 31  1  6  0  0  0
  3 32  1  6  0  0  0
 33 28  1  1  0  0  0
 33 34  1  0  0  0  0
 34 35  1  0  0  0  0
 35 36  1  0  0  0  0
 36 37  1  0  0  0  0
 37 38  1  0  0  0  0
 38 33  1  0  0  0  0
 35 39  1  1  0  0  0
 37 40  1  1  0  0  0
 36 41  1  6  0  0  0
 38 42  1  6  0  0  0
 39 43  1  0  0  0  0
 39 44  2  0  0  0  0
 45 42  1  1  0  0  0
 45 46  1  0  0  0  0
 46 47  1  0  0  0  0
 47 48  1  0  0  0  0
 48 49  1  0  0  0  0
 49 50  1  0  0  0  0
 50 45  1  0  0  0  0
 47 51  1  1  0  0  0
 48 52  1  1  0  0  0
 49 53  1  1  0  0  0
 50 54  1  6  0  0  0
 51 55  1  0  0  0  0
 24 56  2  0  0  0  0
 24 57  1  0  0  0  0
 32 58  2  0  0  0  0
  4 59  1  6  0  0  0
 10 60  1  6  0  0  0
 18 61  1  1  0  0  0
M  END
>  <cdx:fragmentId>
5

$$$$
