91549.cdx
  Mrv1902 05222410222D          

 36 39  0  0  0  0            999 V2000
    2.6243  -13.1576    0.0000 O   0  0  0  0  0  0  0  0  0  0  0  0
    2.6243  -13.9826    0.0000 C   0  0  0  0  0  0  0  0  0  0  0  0
    3.3388  -14.3951    0.0000 O   0  0  0  0  0  0  0  0  0  0  0  0
    4.0532  -13.9826    0.0000 C   0  0  0  0  0  0  0  0  0  0  0  0
    4.0532  -13.1576    0.0000 C   0  0  0  0  0  0  0  0  0  0  0  0
    4.7677  -14.3951    0.0000 C   0  0  0  0  0  0  0  0  0  0  0  0
    5.4822  -13.9826    0.0000 C   0  0  0  0  0  0  0  0  0  0  0  0
    5.4822  -13.1576    0.0000 C   0  0  2  0  0  0  0  0  0  0  0  0
    4.7677  -12.7451    0.0000 C   0  0  0  0  0  0  0  0  0  0  0  0
    6.1967  -14.3951    0.0000 C   0  0  0  0  0  0  0  0  0  0  0  0
    6.9111  -13.9826    0.0000 C   0  0  0  0  0  0  0  0  0  0  0  0
    6.9111  -13.1576    0.0000 C   0  0  0  0  0  0  0  0  0  0  0  0
    6.1967  -12.7451    0.0000 C   0  0  2  0  0  0  0  0  0  0  0  0
    7.6256  -12.7451    0.0000 C   0  0  1  0  0  0  0  0  0  0  0  0
    7.6256  -11.9201    0.0000 C   0  0  2  0  0  0  0  0  0  0  0  0
    6.9111  -11.5076    0.0000 C   0  0  0  0  0  0  0  0  0  0  0  0
    6.1967  -11.9201    0.0000 C   0  0  0  0  0  0  0  0  0  0  0  0
    9.0545  -12.7451    0.0000 C   0  0  0  0  0  0  0  0  0  0  0  0
    9.0545  -11.9201    0.0000 C   0  0  0  0  0  0  0  0  0  0  0  0
    8.3401  -11.5076    0.0000 C   0  0  2  0  0  0  0  0  0  0  0  0
    1.9098  -14.3951    0.0000 C   0  0  0  0  0  0  0  0  0  0  0  0
    4.3552  -15.1096    0.0000 C   0  0  0  0  0  0  0  0  0  0  0  0
    5.1802  -15.1096    0.0000 C   0  0  0  0  0  0  0  0  0  0  0  0
    8.3401  -10.6826    0.0000 C   0  0  2  0  0  0  0  0  0  0  0  0
    7.6256  -10.2701    0.0000 C   0  0  0  0  0  0  0  0  0  0  0  0
    9.0545  -10.2701    0.0000 C   0  0  0  0  0  0  0  0  0  0  0  0
    9.0545   -9.4451    0.0000 C   0  0  0  0  0  0  0  0  0  0  0  0
    9.7690   -9.0326    0.0000 C   0  0  0  0  0  0  0  0  0  0  0  0
    9.7690   -8.2076    0.0000 C   0  0  0  0  0  0  0  0  0  0  0  0
   10.4835   -7.7951    0.0000 C   0  0  0  0  0  0  0  0  0  0  0  0
    9.0545   -7.7951    0.0000 C   0  0  0  0  0  0  0  0  0  0  0  0
    5.4822  -12.3326    0.0000 C   0  0  0  0  0  0  0  0  0  0  0  0
    7.6256  -11.0951    0.0000 C   0  0  0  0  0  0  0  0  0  0  0  0
    9.0545  -11.0951    0.0000 H   0  0  0  0  0  0  0  0  0  0  0  0
    7.8391  -13.5420    0.0000 H   0  0  0  0  0  0  0  0  0  0  0  0
    6.9111  -12.3326    0.0000 H   0  0  0  0  0  0  0  0  0  0  0  0
  1  2  2  0  0  0  0
  2  3  1  0  0  0  0
  3  4  1  0  0  0  0
  4  5  1  0  0  0  0
  4  6  1  0  0  0  0
  6  7  1  0  0  0  0
  7  8  1  0  0  0  0
  8  9  1  0  0  0  0
  9  5  1  0  0  0  0
  7 10  1  0  0  0  0
 10 11  1  0  0  0  0
 11 12  2  0  0  0  0
 12 13  1  0  0  0  0
 13  8  1  0  0  0  0
 12 14  1  0  0  0  0
 14 15  1  0  0  0  0
 15 16  1  0  0  0  0
 16 17  1  0  0  0  0
 17 13  1  0  0  0  0
 18 19  1  0  0  0  0
 19 20  1  0  0  0  0
 20 15  1  0  0  0  0
  2 21  1  0  0  0  0
  6 22  1  0  0  0  0
  6 23  1  0  0  0  0
 14 18  1  0  0  0  0
 20 24  1  0  0  0  0
 24 25  1  6  0  0  0
 24 26  1  0  0  0  0
 26 27  1  0  0  0  0
 27 28  1  0  0  0  0
 28 29  1  0  0  0  0
 29 30  1  0  0  0  0
 29 31  1  0  0  0  0
  8 32  1  1  0  0  0
 15 33  1  1  0  0  0
 20 34  1  6  0  0  0
 14 35  1  6  0  0  0
 13 36  1  6  0  0  0
M  END
>  <cdx:fragmentId>
5

$$$$
