91544.cdx
  Mrv1902 05222410242D          

 14 14  0  0  0  0            999 V2000
    6.4275   -9.7892    0.0000 C   0  0  0  0  0  0  0  0  0  0  0  0
    6.6861  -10.5726    0.0000 C   0  0  0  0  0  0  0  0  0  0  0  0
    7.5111  -10.5687    0.0000 C   0  0  0  0  0  0  0  0  0  0  0  0
    7.7624   -9.7829    0.0000 C   0  0  0  0  0  0  0  0  0  0  0  0
    7.0927   -9.3011    0.0000 S   0  0  0  0  0  0  0  0  0  0  0  0
    6.2043  -11.2423    0.0000 C   0  0  0  0  0  0  0  0  0  0  0  0
    7.9991  -11.2339    0.0000 C   0  0  0  0  0  0  0  0  0  0  0  0
    8.5458   -9.5244    0.0000 O   0  0  0  0  0  0  0  0  0  0  0  0
    5.6417   -9.5379    0.0000 S   0  0  0  0  0  0  0  0  0  0  0  0
    5.4282   -8.7410    0.0000 S   0  3  0  0  0  0  0  0  0  0  0  0
    4.6313   -8.5275    0.0000 O   0  5  0  0  0  0  0  0  0  0  0  0
    6.0116   -8.1576    0.0000 C   0  0  0  0  0  0  0  0  0  0  0  0
    6.8085   -8.3711    0.0000 C   0  0  0  0  0  0  0  0  0  0  0  0
    7.3918   -7.7878    0.0000 C   0  0  0  0  0  0  0  0  0  0  0  0
  1  2  1  0  0  0  0
  2  3  1  0  0  0  0
  3  4  1  0  0  0  0
  4  5  1  0  0  0  0
  5  1  1  0  0  0  0
  2  6  1  0  0  0  0
  3  7  1  0  0  0  0
  4  8  1  0  0  0  0
  1  9  1  0  0  0  0
  9 10  1  0  0  0  0
 10 11  1  0  0  0  0
 10 12  1  0  0  0  0
 12 13  2  0  0  0  0
 13 14  1  0  0  0  0
M  CHG  2  10   1  11  -1
M  END
>  <cdx:fragmentId>
5

$$$$
