91550.cdx
  Mrv1902 05222410242D          

 45 49  0  0  0  0            999 V2000
    6.5243   -7.8848    0.0000 C   0  0  2  0  0  0  0  0  0  0  0  0
    5.8093   -7.4734    0.0000 C   0  0  2  0  0  0  0  0  0  0  0  0
    5.0954   -7.8870    0.0000 C   0  0  1  0  0  0  0  0  0  0  0  0
    5.0966   -8.7120    0.0000 C   0  0  2  0  0  0  0  0  0  0  0  0
    5.8117   -9.1234    0.0000 C   0  0  1  0  0  0  0  0  0  0  0  0
    6.5256   -8.7098    0.0000 O   0  0  0  0  0  0  0  0  0  0  0  0
    5.8130   -9.9484    0.0000 O   0  0  0  0  0  0  0  0  0  0  0  0
    7.2382   -7.4713    0.0000 C   0  0  0  0  0  0  0  0  0  0  0  0
    4.3803   -7.4756    0.0000 O   0  0  0  0  0  0  0  0  0  0  0  0
    5.8080   -6.6484    0.0000 O   0  0  0  0  0  0  0  0  0  0  0  0
    4.3828   -9.1256    0.0000 O   0  0  0  0  0  0  0  0  0  0  0  0
    7.2369   -6.6463    0.0000 O   0  0  0  0  0  0  0  0  0  0  0  0
    3.6677   -8.7142    0.0000 C   0  0  2  0  0  0  0  0  0  0  0  0
    8.6746  -12.4191    0.0000 O   0  0  0  0  0  0  0  0  0  0  0  0
    7.2457  -12.4213    0.0000 O   0  0  0  0  0  0  0  0  0  0  0  0
    3.5802   -7.8938    0.0000 O   0  0  0  0  0  0  0  0  0  0  0  0
    2.7730   -7.7235    0.0000 C   0  0  0  0  0  0  0  0  0  0  0  0
    2.3616   -8.4386    0.0000 C   0  0  2  0  0  0  0  0  0  0  0  0
    2.9145   -9.0509    0.0000 C   0  0  1  0  0  0  0  0  0  0  0  0
   12.2413   -8.7012    0.0000 O   0  0  0  0  0  0  0  0  0  0  0  0
   11.5250   -7.4648    0.0000 C   0  0  0  0  0  0  0  0  0  0  0  0
   10.8112   -7.8784    0.0000 O   0  0  0  0  0  0  0  0  0  0  0  0
   10.8149  -10.3534    0.0000 C   0  0  0  0  0  0  0  0  0  0  0  0
   11.5287   -9.9398    0.0000 C   0  0  0  0  0  0  0  0  0  0  0  0
   11.5275   -9.1148    0.0000 C   0  0  0  0  0  0  0  0  0  0  0  0
   10.8124   -8.7034    0.0000 C   0  0  0  0  0  0  0  0  0  0  0  0
   10.0998   -9.9420    0.0000 C   0  0  0  0  0  0  0  0  0  0  0  0
   10.0986   -9.1170    0.0000 C   0  0  0  0  0  0  0  0  0  0  0  0
    8.6734  -11.5941    0.0000 C   0  0  0  0  0  0  0  0  0  0  0  0
    9.3872  -11.1805    0.0000 C   0  0  0  0  0  0  0  0  0  0  0  0
    9.3860  -10.3555    0.0000 C   0  0  0  0  0  0  0  0  0  0  0  0
    8.6709   -9.9441    0.0000 O   0  0  0  0  0  0  0  0  0  0  0  0
    7.2444  -11.5963    0.0000 C   0  0  0  0  0  0  0  0  0  0  0  0
    7.9583  -11.1827    0.0000 C   0  0  0  0  0  0  0  0  0  0  0  0
    7.9570  -10.3577    0.0000 C   0  0  0  0  0  0  0  0  0  0  0  0
    7.2419   -9.9463    0.0000 C   0  0  0  0  0  0  0  0  0  0  0  0
    2.7442   -9.8581    0.0000 O   0  0  0  0  0  0  0  0  0  0  0  0
    6.5293  -11.1848    0.0000 C   0  0  0  0  0  0  0  0  0  0  0  0
    6.5281  -10.3598    0.0000 C   0  0  0  0  0  0  0  0  0  0  0  0
    1.7791   -9.0228    0.0000 O   0  0  0  0  0  0  0  0  0  0  0  0
    1.5644   -8.2263    0.0000 C   0  0  0  0  0  0  0  0  0  0  0  0
    1.3496   -7.4297    0.0000 O   0  0  0  0  0  0  0  0  0  0  0  0
    7.9508   -6.2327    0.0000 C   0  0  0  0  0  0  0  0  0  0  0  0
    7.9496   -5.4077    0.0000 C   0  0  0  0  0  0  0  0  0  0  0  0
    8.6659   -6.6441    0.0000 O   0  0  0  0  0  0  0  0  0  0  0  0
  1  2  1  0  0  0  0
  2  3  1  0  0  0  0
  3  4  1  0  0  0  0
  4  5  1  0  0  0  0
  5  6  1  0  0  0  0
  6  1  1  0  0  0  0
  5  7  1  1  0  0  0
  1  8  1  1  0  0  0
  3  9  1  1  0  0  0
  2 10  1  6  0  0  0
  4 11  1  6  0  0  0
  8 12  1  0  0  0  0
 29 14  2  0  0  0  0
 33 15  1  0  0  0  0
 13 11  1  1  0  0  0
 13 16  1  0  0  0  0
 16 17  1  0  0  0  0
 17 18  1  0  0  0  0
 18 19  1  0  0  0  0
 19 13  1  0  0  0  0
 20 25  1  0  0  0  0
 22 21  1  0  0  0  0
 26 22  1  0  0  0  0
 23 27  1  0  0  0  0
 24 23  2  0  0  0  0
 25 24  1  0  0  0  0
 26 25  2  0  0  0  0
 28 26  1  0  0  0  0
 27 31  1  0  0  0  0
 28 27  2  0  0  0  0
 29 34  1  0  0  0  0
 30 29  1  0  0  0  0
 31 30  2  0  0  0  0
 32 31  1  0  0  0  0
 35 32  1  0  0  0  0
 33 38  1  0  0  0  0
 34 33  2  0  0  0  0
 35 34  1  0  0  0  0
 36 35  2  0  0  0  0
 39 36  1  0  0  0  0
 39 38  2  0  0  0  0
  7 39  1  0  0  0  0
 19 37  1  6  0  0  0
 18 40  1  6  0  0  0
 18 41  1  0  0  0  0
 41 42  1  0  0  0  0
 12 43  1  0  0  0  0
 43 44  1  0  0  0  0
 43 45  2  0  0  0  0
M  END
>  <cdx:fragmentId>
5

$$$$
