91557.cdx
  Mrv1902 05222410252D          

 19 18  0  0  0  0            999 V2000
    1.5925   -9.7889    0.0000 C   0  0  0  0  0  0  0  0  0  0  0  0
    2.3070   -9.3764    0.0000 C   0  0  0  0  0  0  0  0  0  0  0  0
    3.0215   -9.7889    0.0000 C   0  0  0  0  0  0  0  0  0  0  0  0
    3.7359   -9.3764    0.0000 C   0  0  0  0  0  0  0  0  0  0  0  0
    4.4504   -9.7889    0.0000 C   0  0  0  0  0  0  0  0  0  0  0  0
    5.1649   -9.3764    0.0000 C   0  0  0  0  0  0  0  0  0  0  0  0
    5.8794   -9.7889    0.0000 C   0  0  0  0  0  0  0  0  0  0  0  0
    6.5938   -9.3764    0.0000 C   0  0  0  0  0  0  0  0  0  0  0  0
    7.3083   -9.7889    0.0000 C   0  0  0  0  0  0  0  0  0  0  0  0
    8.0228   -9.3764    0.0000 C   0  0  0  0  0  0  0  0  0  0  0  0
    8.7372   -9.7889    0.0000 C   0  0  0  0  0  0  0  0  0  0  0  0
    9.4517   -9.3764    0.0000 C   0  0  0  0  0  0  0  0  0  0  0  0
   10.1662   -9.7889    0.0000 C   0  0  0  0  0  0  0  0  0  0  0  0
   10.8806   -9.3764    0.0000 C   0  0  0  0  0  0  0  0  0  0  0  0
   11.5951   -9.7889    0.0000 C   0  0  0  0  0  0  0  0  0  0  0  0
   12.3096   -9.3764    0.0000 C   0  0  0  0  0  0  0  0  0  0  0  0
   13.0241   -9.7889    0.0000 C   0  0  0  0  0  0  0  0  0  0  0  0
   10.1662  -10.6139    0.0000 O   0  0  0  0  0  0  0  0  0  0  0  0
    9.4517   -8.5514    0.0000 O   0  0  0  0  0  0  0  0  0  0  0  0
  1  2  2  0  0  0  0
  2  3  1  0  0  0  0
  3  4  1  0  0  0  0
  4  5  1  0  0  0  0
  5  6  1  0  0  0  0
  6  7  1  0  0  0  0
  7  8  1  0  0  0  0
  8  9  1  0  0  0  0
  9 10  1  0  0  0  0
 10 11  2  0  0  0  0
 11 12  1  0  0  0  0
 12 13  1  0  0  0  0
 13 14  1  0  0  0  0
 14 15  1  0  0  0  0
 15 16  1  0  0  0  0
 16 17  1  0  0  0  0
 13 18  2  0  0  0  0
 12 19  1  0  0  0  0
M  END
>  <cdx:fragmentId>
3

$$$$
