91759.cdx
  Mrv1902 05222410222D          

 23 25  0  0  0  0            999 V2000
    7.0425   -7.2272    0.0000 C   0  0  0  0  0  0  0  0  0  0  0  0
    7.0425   -8.0522    0.0000 C   0  0  0  0  0  0  0  0  0  0  0  0
    6.3280   -8.4647    0.0000 C   0  0  0  0  0  0  0  0  0  0  0  0
    6.3280   -9.2897    0.0000 O   0  0  0  0  0  0  0  0  0  0  0  0
    5.6135   -8.0522    0.0000 C   0  0  0  0  0  0  0  0  0  0  0  0
    4.8991   -8.4647    0.0000 C   0  0  0  0  0  0  0  0  0  0  0  0
    4.1846   -8.0522    0.0000 C   0  0  0  0  0  0  0  0  0  0  0  0
    4.1846   -7.2272    0.0000 C   0  0  0  0  0  0  0  0  0  0  0  0
    4.8991   -6.8147    0.0000 C   0  0  0  0  0  0  0  0  0  0  0  0
    5.6135   -7.2272    0.0000 C   0  0  0  0  0  0  0  0  0  0  0  0
    6.3280   -6.8147    0.0000 O   0  0  0  0  0  0  0  0  0  0  0  0
    7.7570   -8.4647    0.0000 C   0  0  0  0  0  0  0  0  0  0  0  0
    8.4714   -8.0522    0.0000 C   0  0  0  0  0  0  0  0  0  0  0  0
    9.1859   -8.4647    0.0000 C   0  0  0  0  0  0  0  0  0  0  0  0
    9.1859   -9.2897    0.0000 C   0  0  0  0  0  0  0  0  0  0  0  0
    8.4714   -9.7022    0.0000 C   0  0  0  0  0  0  0  0  0  0  0  0
    7.7570   -9.2897    0.0000 C   0  0  0  0  0  0  0  0  0  0  0  0
    9.9004   -9.7022    0.0000 O   0  0  0  0  0  0  0  0  0  0  0  0
   10.6148   -9.2897    0.0000 C   0  0  0  0  0  0  0  0  0  0  0  0
    9.9004   -8.0522    0.0000 O   0  0  0  0  0  0  0  0  0  0  0  0
   10.6148   -8.4647    0.0000 C   0  0  0  0  0  0  0  0  0  0  0  0
    8.4714   -7.2272    0.0000 O   0  0  0  0  0  0  0  0  0  0  0  0
    3.4701   -6.8147    0.0000 O   0  0  0  0  0  0  0  0  0  0  0  0
  1  2  2  0  0  0  0
  2  3  1  0  0  0  0
  3  4  2  0  0  0  0
  3  5  1  0  0  0  0
  5  6  1  0  0  0  0
  6  7  2  0  0  0  0
  7  8  1  0  0  0  0
  8  9  2  0  0  0  0
  9 10  1  0  0  0  0
  5 10  2  0  0  0  0
 10 11  1  0  0  0  0
  1 11  1  0  0  0  0
  2 12  1  0  0  0  0
 12 13  1  0  0  0  0
 13 14  2  0  0  0  0
 14 15  1  0  0  0  0
 15 16  2  0  0  0  0
 16 17  1  0  0  0  0
 12 17  2  0  0  0  0
 18 19  1  0  0  0  0
 15 18  1  0  0  0  0
 20 21  1  0  0  0  0
 14 20  1  0  0  0  0
 13 22  1  0  0  0  0
  8 23  1  0  0  0  0
M  END
>  <cdx:fragmentId>
5

$$$$
