91568.cdx
  Mrv1902 05222410252D          

 54 58  0  0  0  0            999 V2000
    5.4298   -9.5309    0.0000 C   0  0  0  0  0  0  0  0  0  0  0  0
    4.7154   -9.9434    0.0000 C   0  0  0  0  0  0  0  0  0  0  0  0
    5.4298   -8.7059    0.0000 O   0  0  0  0  0  0  0  0  0  0  0  0
    6.1443   -9.9434    0.0000 O   0  0  0  0  0  0  0  0  0  0  0  0
    7.5732   -8.2934    0.0000 O   0  0  0  0  0  0  0  0  0  0  0  0
    6.8588   -8.7059    0.0000 C   0  0  1  0  0  0  0  0  0  0  0  0
    6.8588   -9.5309    0.0000 C   0  0  2  0  0  0  0  0  0  0  0  0
    7.5732   -9.9434    0.0000 C   0  0  1  0  0  0  0  0  0  0  0  0
    8.2877   -9.5309    0.0000 C   0  0  2  0  0  0  0  0  0  0  0  0
    8.2877   -8.7059    0.0000 C   0  0  2  0  0  0  0  0  0  0  0  0
    7.5732  -10.7684    0.0000 O   0  0  0  0  0  0  0  0  0  0  0  0
    6.1443  -10.7684    0.0000 O   0  0  0  0  0  0  0  0  0  0  0  0
    6.8588  -11.1809    0.0000 C   0  0  2  0  0  0  0  0  0  0  0  0
    6.8588  -12.0059    0.0000 C   0  0  1  0  0  0  0  0  0  0  0  0
    6.1443  -12.4184    0.0000 C   0  0  1  0  0  0  0  0  0  0  0  0
    5.4298  -12.0059    0.0000 C   0  0  2  0  0  0  0  0  0  0  0  0
    5.4298  -11.1809    0.0000 C   0  0  2  0  0  0  0  0  0  0  0  0
    4.7154  -10.7684    0.0000 C   0  0  0  0  0  0  0  0  0  0  0  0
    4.7154  -12.4184    0.0000 O   0  0  0  0  0  0  0  0  0  0  0  0
    6.1443  -13.2434    0.0000 O   0  0  0  0  0  0  0  0  0  0  0  0
    7.5732  -12.4184    0.0000 O   0  0  0  0  0  0  0  0  0  0  0  0
    6.1443   -8.2934    0.0000 C   0  0  0  0  0  0  0  0  0  0  0  0
    9.0022   -8.2934    0.0000 O   0  0  0  0  0  0  0  0  0  0  0  0
    9.7166   -8.7059    0.0000 C   0  0  0  0  0  0  0  0  0  0  0  0
   10.4311   -8.2934    0.0000 C   0  0  0  0  0  0  0  0  0  0  0  0
   11.1456   -8.7059    0.0000 C   0  0  0  0  0  0  0  0  0  0  0  0
   11.8601   -8.2934    0.0000 C   0  0  0  0  0  0  0  0  0  0  0  0
   12.5745   -8.7059    0.0000 C   0  0  0  0  0  0  0  0  0  0  0  0
   12.5745   -9.5309    0.0000 C   0  0  0  0  0  0  0  0  0  0  0  0
   11.8601   -9.9434    0.0000 C   0  0  0  0  0  0  0  0  0  0  0  0
   11.1456   -9.5309    0.0000 C   0  0  0  0  0  0  0  0  0  0  0  0
   13.2890   -9.9434    0.0000 O   0  0  0  0  0  0  0  0  0  0  0  0
    9.0022   -9.9434    0.0000 O   0  0  0  0  0  0  0  0  0  0  0  0
    4.0009   -6.2309    0.0000 O   0  0  0  0  0  0  0  0  0  0  0  0
    4.7154   -8.2934    0.0000 C   0  0  0  0  0  0  0  0  0  0  0  0
    4.7154   -7.4684    0.0000 C   0  0  0  0  0  0  0  0  0  0  0  0
    4.0009   -7.0559    0.0000 C   0  0  0  0  0  0  0  0  0  0  0  0
    3.2864   -7.4684    0.0000 C   0  0  0  0  0  0  0  0  0  0  0  0
    3.2864   -8.2934    0.0000 C   0  0  0  0  0  0  0  0  0  0  0  0
    4.0009   -8.7059    0.0000 C   0  0  0  0  0  0  0  0  0  0  0  0
    4.0009   -9.5309    0.0000 C   0  0  0  0  0  0  0  0  0  0  0  0
    6.1391   -5.8184    0.0000 O   0  0  0  0  0  0  0  0  0  0  0  0
    7.5654   -4.9889    0.0000 O   0  0  0  0  0  0  0  0  0  0  0  0
    8.9969   -5.8094    0.0000 O   0  0  0  0  0  0  0  0  0  0  0  0
    9.7153   -7.0446    0.0000 O   0  0  0  0  0  0  0  0  0  0  0  0
    9.0022   -7.4594    0.0000 C   0  0  0  0  0  0  0  0  0  0  0  0
    8.2864   -7.0491    0.0000 C   0  0  2  0  0  0  0  0  0  0  0  0
    8.2838   -6.2241    0.0000 C   0  0  2  0  0  0  0  0  0  0  0  0
    7.5680   -5.8139    0.0000 C   0  0  1  0  0  0  0  0  0  0  0  0
    6.8548   -6.2287    0.0000 C   0  0  2  0  0  0  0  0  0  0  0  0
    6.8575   -7.0537    0.0000 C   0  0  1  0  0  0  0  0  0  0  0  0
    7.5732   -7.4639    0.0000 O   0  0  0  0  0  0  0  0  0  0  0  0
    6.1443   -7.4684    0.0000 O   0  0  0  0  0  0  0  0  0  0  0  0
   13.2890   -8.2934    0.0000 O   0  0  0  0  0  0  0  0  0  0  0  0
 41 40  1  0  0  0  0
 37 34  1  0  0  0  0
 40 35  2  0  0  0  0
 36 35  1  0  0  0  0
 37 36  2  0  0  0  0
 38 37  1  0  0  0  0
 39 38  2  0  0  0  0
 40 39  1  0  0  0  0
 51 53  1  1  0  0  0
 50 42  1  6  0  0  0
 49 43  1  1  0  0  0
 48 44  1  6  0  0  0
 47 46  1  1  0  0  0
 46 45  1  0  0  0  0
 52 47  1  0  0  0  0
 48 47  1  0  0  0  0
 49 48  1  0  0  0  0
 50 49  1  0  0  0  0
 51 50  1  0  0  0  0
 52 51  1  0  0  0  0
  1  2  1  0  0  0  0
  2 41  2  0  0  0  0
  1  3  2  0  0  0  0
  1  4  1  0  0  0  0
  5  6  1  0  0  0  0
  6  7  1  0  0  0  0
  7  8  1  0  0  0  0
  8  9  1  0  0  0  0
  9 10  1  0  0  0  0
  5 10  1  0  0  0  0
 12 13  1  0  0  0  0
 13 14  1  0  0  0  0
 14 15  1  0  0  0  0
 15 16  1  0  0  0  0
 16 17  1  0  0  0  0
 12 17  1  0  0  0  0
 17 18  1  6  0  0  0
 16 19  1  1  0  0  0
 15 20  1  6  0  0  0
 14 21  1  6  0  0  0
 13 11  1  1  0  0  0
  8 11  1  1  0  0  0
 22 53  1  0  0  0  0
  6 22  1  1  0  0  0
 24 25  1  0  0  0  0
 23 24  1  0  0  0  0
 26 27  1  0  0  0  0
 27 28  2  0  0  0  0
 28 29  1  0  0  0  0
 29 30  2  0  0  0  0
 30 31  1  0  0  0  0
 26 31  2  0  0  0  0
 29 32  1  0  0  0  0
 25 26  1  0  0  0  0
 10 23  1  1  0  0  0
  9 33  1  6  0  0  0
  7  4  1  6  0  0  0
 28 54  1  0  0  0  0
M  END
>  <cdx:groupId>
37698

>  <cdx:fragmentId>
37575

$$$$
