91563.cdx
  Mrv1902 05222410232D          

 22 21  0  0  0  0            999 V2000
   13.0013   -9.9766    0.0000 C   0  0  0  0  0  0  0  0  0  0  0  0
   12.4297  -10.3066    0.0000 C   0  0  0  0  0  0  0  0  0  0  0  0
   11.8582   -9.9766    0.0000 C   0  0  0  0  0  0  0  0  0  0  0  0
   11.2866  -10.3066    0.0000 C   0  0  0  0  0  0  0  0  0  0  0  0
   10.7150   -9.9766    0.0000 C   0  0  0  0  0  0  0  0  0  0  0  0
   10.1434  -10.3066    0.0000 C   0  0  0  0  0  0  0  0  0  0  0  0
    9.5719   -9.9766    0.0000 C   0  0  0  0  0  0  0  0  0  0  0  0
    9.0003  -10.3066    0.0000 C   0  0  0  0  0  0  0  0  0  0  0  0
    8.4287   -9.9766    0.0000 C   0  0  0  0  0  0  0  0  0  0  0  0
    7.8571  -10.3066    0.0000 C   0  0  0  0  0  0  0  0  0  0  0  0
    7.2856   -9.9766    0.0000 C   0  0  0  0  0  0  0  0  0  0  0  0
    6.7140  -10.3066    0.0000 C   0  0  0  0  0  0  0  0  0  0  0  0
    6.1424   -9.9766    0.0000 C   0  0  0  0  0  0  0  0  0  0  0  0
    5.5708  -10.3066    0.0000 C   0  0  0  0  0  0  0  0  0  0  0  0
    4.9992   -9.9766    0.0000 C   0  0  0  0  0  0  0  0  0  0  0  0
    4.4277  -10.3066    0.0000 C   0  0  0  0  0  0  0  0  0  0  0  0
    3.8561   -9.9766    0.0000 C   0  0  0  0  0  0  0  0  0  0  0  0
    3.2845  -10.3066    0.0000 C   0  0  0  0  0  0  0  0  0  0  0  0
    2.7129   -9.9766    0.0000 C   0  0  0  0  0  0  0  0  0  0  0  0
    2.1414  -10.3066    0.0000 C   0  0  0  0  0  0  0  0  0  0  0  0
    1.5698   -9.9766    0.0000 O   0  0  0  0  0  0  0  0  0  0  0  0
    2.1414  -10.9666    0.0000 O   0  0  0  0  0  0  0  0  0  0  0  0
  2  1  1  0  0  0  0
  3  2  1  0  0  0  0
  4  3  1  0  0  0  0
  5  4  1  0  0  0  0
  6  5  1  0  0  0  0
  7  6  2  0  0  0  0
  8  7  1  0  0  0  0
  9  8  1  0  0  0  0
 10  9  2  0  0  0  0
 11 10  1  0  0  0  0
 12 11  1  0  0  0  0
 13 12  1  0  0  0  0
 14 13  1  0  0  0  0
 15 14  1  0  0  0  0
 16 15  2  0  0  0  0
 17 16  1  0  0  0  0
 18 17  1  0  0  0  0
 19 18  1  0  0  0  0
 20 19  1  0  0  0  0
 21 20  1  0  0  0  0
 20 22  2  0  0  0  0
M  END
>  <cdx:fragmentId>
3

$$$$
