915606.cdx
  Mrv1902 05222410272D          

 51 56  0  0  0  0            999 V2000
    6.9605   -6.1769    0.0000 C   0  0  0  0  0  0  0  0  0  0  0  0
    6.9505   -7.0019    0.0000 C   0  0  0  0  0  0  0  0  0  0  0  0
    7.6598   -7.4231    0.0000 C   0  0  0  0  0  0  0  0  0  0  0  0
    8.3793   -7.0193    0.0000 C   0  0  0  0  0  0  0  0  0  0  0  0
    8.3894   -6.1944    0.0000 C   0  0  0  0  0  0  0  0  0  0  0  0
    7.6800   -5.7732    0.0000 C   0  0  0  0  0  0  0  0  0  0  0  0
    9.0887   -7.4405    0.0000 C   0  0  0  0  0  0  0  0  0  0  0  0
    9.8081   -7.0368    0.0000 C   0  0  0  0  0  0  0  0  0  0  0  0
    9.8182   -6.2118    0.0000 C   0  0  2  0  0  0  0  0  0  0  0  0
    9.1088   -5.7906    0.0000 O   0  0  0  0  0  0  0  0  0  0  0  0
    9.8383   -4.5620    0.0000 O   0  0  0  0  0  0  0  0  0  0  0  0
   12.6960   -4.5969    0.0000 O   0  0  0  0  0  0  0  0  0  0  0  0
   11.2470   -6.2293    0.0000 C   0  0  0  0  0  0  0  0  0  0  0  0
   11.9665   -5.8255    0.0000 C   0  0  0  0  0  0  0  0  0  0  0  0
   11.9766   -5.0006    0.0000 C   0  0  0  0  0  0  0  0  0  0  0  0
   11.2672   -4.5794    0.0000 C   0  0  0  0  0  0  0  0  0  0  0  0
   10.5477   -4.9832    0.0000 C   0  0  0  0  0  0  0  0  0  0  0  0
   10.5377   -5.8081    0.0000 C   0  0  0  0  0  0  0  0  0  0  0  0
    9.0786   -8.2655    0.0000 O   0  0  0  0  0  0  0  0  0  0  0  0
    6.2511   -5.7557    0.0000 O   0  0  0  0  0  0  0  0  0  0  0  0
    7.6498   -8.2480    0.0000 O   0  0  0  0  0  0  0  0  0  0  0  0
    3.0678   -7.6145    0.0000 C   0  0  0  0  0  0  0  0  0  0  0  0
    2.3584   -7.1933    0.0000 C   0  0  0  0  0  0  0  0  0  0  0  0
    1.6390   -7.5971    0.0000 C   0  0  0  0  0  0  0  0  0  0  0  0
    0.9296   -7.1759    0.0000 C   0  0  0  0  0  0  0  0  0  0  0  0
    1.6289   -8.4220    0.0000 C   0  0  0  0  0  0  0  0  0  0  0  0
    3.7873   -7.2108    0.0000 C   0  0  0  0  0  0  0  0  0  0  0  0
    3.4639   -9.4549    0.0000 O   0  0  0  0  0  0  0  0  0  0  0  0
    4.3030  -12.0550    0.0000 O   0  0  0  0  0  0  0  0  0  0  0  0
    8.0436   -9.7379    0.0000 O   0  0  0  0  0  0  0  0  0  0  0  0
    6.5845  -12.1953    0.0000 O   0  0  0  0  0  0  0  0  0  0  0  0
    5.8953  -10.1242    0.0000 C   0  0  0  0  0  0  0  0  0  0  0  0
    5.8852  -10.9492    0.0000 C   0  0  0  0  0  0  0  0  0  0  0  0
    6.5946  -11.3704    0.0000 C   0  0  0  0  0  0  0  0  0  0  0  0
    7.3140  -10.9666    0.0000 C   0  0  0  0  0  0  0  0  0  0  0  0
    7.3241  -10.1417    0.0000 C   0  0  0  0  0  0  0  0  0  0  0  0
    6.6147   -9.7205    0.0000 C   0  0  0  0  0  0  0  0  0  0  0  0
    7.3443   -8.4918    0.0000 O   0  0  0  0  0  0  0  0  0  0  0  0
    4.1733   -9.8761    0.0000 C   0  0  0  0  0  0  0  0  0  0  0  0
    3.9501  -10.6703    0.0000 C   0  0  0  0  0  0  0  0  0  0  0  0
    4.5262  -11.2608    0.0000 C   0  0  0  0  0  0  0  0  0  0  0  0
    5.3257  -11.0570    0.0000 C   0  0  0  0  0  0  0  0  0  0  0  0
    5.5489  -10.2628    0.0000 C   0  0  0  0  0  0  0  0  0  0  0  0
    4.9727   -9.6723    0.0000 C   0  0  0  0  0  0  0  0  0  0  0  0
    6.6248   -8.8955    0.0000 C   0  0  0  0  0  0  0  0  0  0  0  0
    5.2161   -7.2282    0.0000 C   0  0  0  0  0  0  0  0  0  0  0  0
    4.4967   -7.6320    0.0000 C   0  0  0  0  0  0  0  0  0  0  0  0
    4.4866   -8.4569    0.0000 C   0  0  0  0  0  0  0  0  0  0  0  0
    5.1960   -8.8781    0.0000 C   0  0  2  0  0  0  0  0  0  0  0  0
    5.9154   -8.4743    0.0000 C   0  0  1  0  0  0  0  0  0  0  0  0
    5.9255   -7.6494    0.0000 C   0  0  1  0  0  0  0  0  0  0  0  0
  1  2  2  0  0  0  0
  2  3  1  0  0  0  0
  3  4  2  0  0  0  0
  4  5  1  0  0  0  0
  5  6  2  0  0  0  0
  6  1  1  0  0  0  0
  4  7  1  0  0  0  0
  7  8  1  0  0  0  0
  8  9  1  0  0  0  0
  9 10  1  0  0  0  0
 10  5  1  0  0  0  0
 17 11  1  0  0  0  0
  9 18  1  6  0  0  0
 15 12  1  0  0  0  0
 13 18  1  0  0  0  0
 14 13  2  0  0  0  0
 15 14  1  0  0  0  0
 16 15  2  0  0  0  0
 17 16  1  0  0  0  0
 18 17  2  0  0  0  0
  7 19  2  0  0  0  0
  1 20  1  0  0  0  0
  3 21  1  0  0  0  0
 51  2  1  6  0  0  0
 22 23  1  0  0  0  0
 23 24  2  0  0  0  0
 24 25  1  0  0  0  0
 27 22  1  0  0  0  0
 24 26  1  0  0  0  0
 47 27  1  0  0  0  0
 39 28  1  0  0  0  0
 41 29  1  0  0  0  0
 36 30  1  0  0  0  0
 34 31  1  0  0  0  0
 32 37  1  0  0  0  0
 33 32  2  0  0  0  0
 34 33  1  0  0  0  0
 35 34  2  0  0  0  0
 36 35  1  0  0  0  0
 37 36  2  0  0  0  0
 45 37  1  0  0  0  0
 45 38  2  0  0  0  0
 39 44  1  0  0  0  0
 40 39  2  0  0  0  0
 41 40  1  0  0  0  0
 42 41  2  0  0  0  0
 43 42  1  0  0  0  0
 44 43  2  0  0  0  0
 49 44  1  6  0  0  0
 50 45  1  1  0  0  0
 46 51  1  0  0  0  0
 47 46  2  0  0  0  0
 48 47  1  0  0  0  0
 49 48  1  0  0  0  0
 50 49  1  0  0  0  0
 51 50  1  0  0  0  0
M  END
>  <cdx:fragmentId>
5

$$$$
