91565.cdx
  Mrv1902 05222410212D          

 14 14  0  0  0  0            999 V2000
    6.5156   -8.5101    0.0000 C   0  0  2  0  0  0  0  0  0  0  0  0
    6.5156   -9.3351    0.0000 C   0  0  0  0  0  0  0  0  0  0  0  0
    7.2300   -9.7476    0.0000 C   0  0  1  0  0  0  0  0  0  0  0  0
    7.9445   -9.3351    0.0000 C   0  0  0  0  0  0  0  0  0  0  0  0
    7.9445   -8.5101    0.0000 C   0  0  0  0  0  0  0  0  0  0  0  0
    7.2300   -8.0976    0.0000 C   0  0  0  0  0  0  0  0  0  0  0  0
    7.2300   -7.2726    0.0000 C   0  0  0  0  0  0  0  0  0  0  0  0
    7.2300  -10.5726    0.0000 C   0  0  0  0  0  0  0  0  0  0  0  0
    7.9445  -10.9851    0.0000 C   0  0  0  0  0  0  0  0  0  0  0  0
    6.5156  -10.9851    0.0000 C   0  0  0  0  0  0  0  0  0  0  0  0
    5.8011   -8.0976    0.0000 O   0  0  0  0  0  0  0  0  0  0  0  0
    5.0866   -8.5101    0.0000 C   0  0  0  0  0  0  0  0  0  0  0  0
    4.3721   -8.0976    0.0000 O   0  0  0  0  0  0  0  0  0  0  0  0
    5.0866   -9.3351    0.0000 C   0  0  0  0  0  0  0  0  0  0  0  0
  1  2  1  0  0  0  0
  2  3  1  0  0  0  0
  3  4  1  0  0  0  0
  4  5  1  0  0  0  0
  5  6  2  0  0  0  0
  6  1  1  0  0  0  0
  6  7  1  0  0  0  0
  3  8  1  1  0  0  0
  8  9  2  0  0  0  0
  8 10  1  0  0  0  0
  1 11  1  1  0  0  0
 11 12  1  0  0  0  0
 12 13  2  0  0  0  0
 12 14  1  0  0  0  0
M  END
>  <cdx:fragmentId>
5

$$$$
