91570.cdx
  Mrv1902 05222410212D          

 56 60  0  0  0  0            999 V2000
    5.4298   -9.5309    0.0000 C   0  0  0  0  0  0  0  0  0  0  0  0
    4.7154   -9.9434    0.0000 C   0  0  0  0  0  0  0  0  0  0  0  0
    4.0009   -9.5309    0.0000 C   0  0  0  0  0  0  0  0  0  0  0  0
    5.4298   -8.7059    0.0000 O   0  0  0  0  0  0  0  0  0  0  0  0
    6.1443   -9.9434    0.0000 O   0  0  0  0  0  0  0  0  0  0  0  0
    3.2864   -9.9434    0.0000 C   0  0  0  0  0  0  0  0  0  0  0  0
    2.5719   -9.5309    0.0000 C   0  0  0  0  0  0  0  0  0  0  0  0
    1.8575   -9.9434    0.0000 C   0  0  0  0  0  0  0  0  0  0  0  0
    1.8575  -10.7684    0.0000 C   0  0  0  0  0  0  0  0  0  0  0  0
    2.5719  -11.1809    0.0000 C   0  0  0  0  0  0  0  0  0  0  0  0
    3.2864  -10.7684    0.0000 C   0  0  0  0  0  0  0  0  0  0  0  0
    1.1430  -11.1809    0.0000 O   0  0  0  0  0  0  0  0  0  0  0  0
    7.5732   -8.2934    0.0000 O   0  0  0  0  0  0  0  0  0  0  0  0
    6.8588   -8.7059    0.0000 C   0  0  1  0  0  0  0  0  0  0  0  0
    6.8588   -9.5309    0.0000 C   0  0  2  0  0  0  0  0  0  0  0  0
    7.5732   -9.9434    0.0000 C   0  0  1  0  0  0  0  0  0  0  0  0
    8.2877   -9.5309    0.0000 C   0  0  2  0  0  0  0  0  0  0  0  0
    8.2877   -8.7059    0.0000 C   0  0  2  0  0  0  0  0  0  0  0  0
    7.5732  -10.7684    0.0000 O   0  0  0  0  0  0  0  0  0  0  0  0
    6.1443  -10.7684    0.0000 O   0  0  0  0  0  0  0  0  0  0  0  0
    6.8588  -11.1809    0.0000 C   0  0  2  0  0  0  0  0  0  0  0  0
    6.8588  -12.0059    0.0000 C   0  0  1  0  0  0  0  0  0  0  0  0
    6.1443  -12.4184    0.0000 C   0  0  1  0  0  0  0  0  0  0  0  0
    5.4298  -12.0059    0.0000 C   0  0  2  0  0  0  0  0  0  0  0  0
    5.4298  -11.1809    0.0000 C   0  0  2  0  0  0  0  0  0  0  0  0
    4.7154  -10.7684    0.0000 C   0  0  0  0  0  0  0  0  0  0  0  0
    4.7154  -12.4184    0.0000 O   0  0  0  0  0  0  0  0  0  0  0  0
    6.1443  -13.2434    0.0000 O   0  0  0  0  0  0  0  0  0  0  0  0
    7.5732  -12.4184    0.0000 O   0  0  0  0  0  0  0  0  0  0  0  0
    6.1443   -8.2934    0.0000 C   0  0  0  0  0  0  0  0  0  0  0  0
    9.0022   -8.2934    0.0000 O   0  0  0  0  0  0  0  0  0  0  0  0
    9.7166   -8.7059    0.0000 C   0  0  0  0  0  0  0  0  0  0  0  0
   10.4311   -8.2934    0.0000 C   0  0  1  0  0  0  0  0  0  0  0  0
   11.1456   -8.7059    0.0000 C   0  0  0  0  0  0  0  0  0  0  0  0
   11.8601   -8.2934    0.0000 C   0  0  0  0  0  0  0  0  0  0  0  0
   12.5745   -8.7059    0.0000 C   0  0  0  0  0  0  0  0  0  0  0  0
   12.5745   -9.5309    0.0000 C   0  0  0  0  0  0  0  0  0  0  0  0
   11.8601   -9.9434    0.0000 C   0  0  0  0  0  0  0  0  0  0  0  0
   11.1456   -9.5309    0.0000 C   0  0  0  0  0  0  0  0  0  0  0  0
   13.2890   -9.9434    0.0000 O   0  0  0  0  0  0  0  0  0  0  0  0
    9.0022   -9.9434    0.0000 O   0  0  0  0  0  0  0  0  0  0  0  0
    4.4943   -7.4760    0.0000 O   0  0  0  0  0  0  0  0  0  0  0  0
    3.6627   -6.0509    0.0000 O   0  0  0  0  0  0  0  0  0  0  0  0
    4.4811   -4.6182    0.0000 O   0  0  0  0  0  0  0  0  0  0  0  0
    5.7153   -3.8980    0.0000 O   0  0  0  0  0  0  0  0  0  0  0  0
    6.1311   -4.6106    0.0000 C   0  0  0  0  0  0  0  0  0  0  0  0
    5.7219   -5.3269    0.0000 C   0  0  2  0  0  0  0  0  0  0  0  0
    4.8969   -5.3307    0.0000 C   0  0  2  0  0  0  0  0  0  0  0  0
    4.4877   -6.0471    0.0000 C   0  0  1  0  0  0  0  0  0  0  0  0
    4.9035   -6.7597    0.0000 C   0  0  2  0  0  0  0  0  0  0  0  0
    5.7285   -6.7559    0.0000 C   0  0  1  0  0  0  0  0  0  0  0  0
    6.1377   -6.0395    0.0000 O   0  0  0  0  0  0  0  0  0  0  0  0
    6.1443   -7.4684    0.0000 O   0  0  0  0  0  0  0  0  0  0  0  0
   13.2890   -8.2934    0.0000 O   0  0  0  0  0  0  0  0  0  0  0  0
    1.1430   -9.5309    0.0000 O   0  0  0  0  0  0  0  0  0  0  0  0
   10.4311   -7.4684    0.0000 O   0  0  0  0  0  0  0  0  0  0  0  0
 51 53  1  1  0  0  0
 50 42  1  6  0  0  0
 49 43  1  1  0  0  0
 48 44  1  6  0  0  0
 47 46  1  1  0  0  0
 46 45  1  0  0  0  0
 52 47  1  0  0  0  0
 48 47  1  0  0  0  0
 49 48  1  0  0  0  0
 50 49  1  0  0  0  0
 51 50  1  0  0  0  0
 52 51  1  0  0  0  0
  1  2  1  0  0  0  0
  2  3  2  0  0  0  0
  1  4  2  0  0  0  0
  1  5  1  0  0  0  0
  6  7  1  0  0  0  0
  7  8  2  0  0  0  0
  8  9  1  0  0  0  0
  9 10  2  0  0  0  0
 10 11  1  0  0  0  0
  6 11  2  0  0  0  0
  9 12  1  0  0  0  0
  3  6  1  0  0  0  0
 13 14  1  0  0  0  0
 14 15  1  0  0  0  0
 15 16  1  0  0  0  0
 16 17  1  0  0  0  0
 17 18  1  0  0  0  0
 13 18  1  0  0  0  0
 20 21  1  0  0  0  0
 21 22  1  0  0  0  0
 22 23  1  0  0  0  0
 23 24  1  0  0  0  0
 24 25  1  0  0  0  0
 20 25  1  0  0  0  0
 25 26  1  6  0  0  0
 24 27  1  1  0  0  0
 23 28  1  6  0  0  0
 22 29  1  6  0  0  0
 21 19  1  1  0  0  0
 16 19  1  1  0  0  0
 30 53  1  0  0  0  0
 14 30  1  1  0  0  0
 32 33  1  0  0  0  0
 31 32  1  0  0  0  0
 34 35  1  0  0  0  0
 35 36  2  0  0  0  0
 36 37  1  0  0  0  0
 37 38  2  0  0  0  0
 38 39  1  0  0  0  0
 34 39  2  0  0  0  0
 37 40  1  0  0  0  0
 33 34  1  0  0  0  0
 18 31  1  1  0  0  0
 17 41  1  6  0  0  0
 15  5  1  6  0  0  0
 36 54  1  0  0  0  0
  8 55  1  0  0  0  0
 33 56  1  6  0  0  0
M  END
>  <cdx:groupId>
37698

>  <cdx:fragmentId>
37575

$$$$
