91578.cdx
  Mrv1902 05222410242D          

 29 32  0  0  0  0            999 V2000
    6.1168   -3.8076    0.0000 C   0  0  0  0  0  0  0  0  0  0  0  0
    6.1168   -4.6326    0.0000 C   0  0  0  0  0  0  0  0  0  0  0  0
    6.8313   -5.0451    0.0000 C   0  0  0  0  0  0  0  0  0  0  0  0
    7.5457   -4.6326    0.0000 C   0  0  0  0  0  0  0  0  0  0  0  0
    7.5457   -3.8076    0.0000 C   0  0  0  0  0  0  0  0  0  0  0  0
    6.8313   -3.3951    0.0000 C   0  0  0  0  0  0  0  0  0  0  0  0
    8.2602   -5.0451    0.0000 O   0  0  0  0  0  0  0  0  0  0  0  0
    8.9747   -4.6326    0.0000 C   0  0  0  0  0  0  0  0  0  0  0  0
    8.9747   -3.8076    0.0000 C   0  0  0  0  0  0  0  0  0  0  0  0
    8.2602   -3.3951    0.0000 C   0  0  0  0  0  0  0  0  0  0  0  0
    5.4023   -5.0451    0.0000 O   0  0  0  0  0  0  0  0  0  0  0  0
    5.4023   -5.8701    0.0000 C   0  0  1  0  0  0  0  0  0  0  0  0
    6.1168   -6.2826    0.0000 C   0  0  2  0  0  0  0  0  0  0  0  0
    6.8313   -5.8701    0.0000 O   0  0  0  0  0  0  0  0  0  0  0  0
    4.6879   -6.2826    0.0000 C   0  0  0  0  0  0  0  0  0  0  0  0
    5.4023   -7.5201    0.0000 C   0  0  0  0  0  0  0  0  0  0  0  0
    6.1168   -7.1076    0.0000 C   0  0  0  0  0  0  0  0  0  0  0  0
    5.4023   -8.3451    0.0000 C   0  0  0  0  0  0  0  0  0  0  0  0
    6.1168   -8.7576    0.0000 C   0  0  0  0  0  0  0  0  0  0  0  0
    6.8313   -8.3451    0.0000 C   0  0  0  0  0  0  0  0  0  0  0  0
    6.8313   -7.5201    0.0000 C   0  0  0  0  0  0  0  0  0  0  0  0
    6.1168   -9.5826    0.0000 O   0  0  0  0  0  0  0  0  0  0  0  0
    7.5457   -9.5826    0.0000 C   0  0  0  0  0  0  0  0  0  0  0  0
    7.5457   -8.7576    0.0000 O   0  0  0  0  0  0  0  0  0  0  0  0
    9.6892   -5.0451    0.0000 O   0  0  0  0  0  0  0  0  0  0  0  0
    5.4023   -3.3951    0.0000 O   0  0  0  0  0  0  0  0  0  0  0  0
    4.6879   -3.8076    0.0000 C   0  0  0  0  0  0  0  0  0  0  0  0
    3.9734   -5.8701    0.0000 O   0  0  0  0  0  0  0  0  0  0  0  0
    5.4023   -9.9951    0.0000 C   0  0  0  0  0  0  0  0  0  0  0  0
  1  2  1  0  0  0  0
  2  3  2  0  0  0  0
  3  4  1  0  0  0  0
  4  5  2  0  0  0  0
  5  6  1  0  0  0  0
  6  1  2  0  0  0  0
  4  7  1  0  0  0  0
  7  8  1  0  0  0  0
  8  9  1  0  0  0  0
  9 10  2  0  0  0  0
 10  5  1  0  0  0  0
  2 11  1  0  0  0  0
 11 12  1  0  0  0  0
 12 13  1  0  0  0  0
 13 14  1  0  0  0  0
 14  3  1  0  0  0  0
 12 15  1  1  0  0  0
 16 17  2  0  0  0  0
 13 17  1  6  0  0  0
 16 18  1  0  0  0  0
 18 19  2  0  0  0  0
 19 20  1  0  0  0  0
 20 21  2  0  0  0  0
 21 17  1  0  0  0  0
 19 22  1  0  0  0  0
 23 24  1  0  0  0  0
 24 20  1  0  0  0  0
  8 25  2  0  0  0  0
  1 26  1  0  0  0  0
 26 27  1  0  0  0  0
 15 28  1  0  0  0  0
 22 29  1  0  0  0  0
M  END
>  <cdx:fragmentId>
5

$$$$
