91573.cdx
  Mrv1902 05222410212D          

 17 18  0  0  0  0            999 V2000
    6.9457   -4.9571    0.0000 H   0  0  0  0  0  0  0  0  0  0  0  0
    6.1330   -7.3694    0.0000 H   0  0  0  0  0  0  0  0  0  0  0  0
    7.1020   -7.5613    0.0000 C   0  0  0  0  0  0  0  0  0  0  0  0
    8.2435   -5.5550    0.0000 C   0  0  0  0  0  0  0  0  0  0  0  0
    7.8474   -9.8222    0.0000 C   0  0  0  0  0  0  0  0  0  0  0  0
    9.2760   -9.8519    0.0000 C   0  0  0  0  0  0  0  0  0  0  0  0
    8.5703   -9.4247    0.0000 C   0  0  0  0  0  0  0  0  0  0  0  0
    8.5874   -8.5998    0.0000 C   0  0  0  0  0  0  0  0  0  0  0  0
    7.8817   -8.1726    0.0000 C   0  0  0  0  0  0  0  0  0  0  0  0
    7.8989   -7.3478    0.0000 C   0  0  0  0  0  0  0  0  0  0  0  0
    5.9890   -4.7850    0.0000 C   0  0  0  0  0  0  0  0  0  0  0  0
    5.2465   -6.0225    0.0000 C   0  0  0  0  0  0  0  0  0  0  0  0
    5.3840   -6.8475    0.0000 C   0  0  0  0  0  0  0  0  0  0  0  0
    6.3465   -6.5725    0.0000 C   0  0  1  0  0  0  0  0  0  0  0  0
    7.3155   -6.7644    0.0000 C   0  0  2  0  0  0  0  0  0  0  0  0
    6.4840   -5.7200    0.0000 C   0  0  2  0  0  0  0  0  0  0  0  0
    7.5290   -5.9675    0.0000 C   0  0  0  0  0  0  0  0  0  0  0  0
 16  1  1  6  0  0  0
 14  2  1  1  0  0  0
 15  3  1  6  0  0  0
 17  4  2  0  0  0  0
  7  5  1  0  0  0  0
  7  6  1  0  0  0  0
  8  7  2  0  0  0  0
  9  8  1  0  0  0  0
 10  9  1  0  0  0  0
 15 10  1  0  0  0  0
 16 11  1  0  0  0  0
 12 16  1  0  0  0  0
 13 12  1  0  0  0  0
 14 13  1  0  0  0  0
 15 14  1  0  0  0  0
 17 15  1  0  0  0  0
 17 16  1  0  0  0  0
 11 14  1  0  0  0  0
M  END
>  <cdx:fragmentId>
74

$$$$
