915739.cdx
  Mrv1902 05222410252D          

 21 24  0  0  0  0            999 V2000
    7.8933   -7.5186    0.0000 O   0  0  0  0  0  0  0  0  0  0  0  0
    6.7200   -5.9036    0.0000 O   0  0  0  0  0  0  0  0  0  0  0  0
    5.6743   -6.9493    0.0000 O   0  0  0  0  0  0  0  0  0  0  0  0
    9.4391   -4.9361    0.0000 O   0  0  0  0  0  0  0  0  0  0  0  0
    7.1350   -7.1806    0.0000 C   0  0  2  0  0  0  0  0  0  0  0  0
    7.8063   -6.6928    0.0000 C   0  0  2  0  0  0  0  0  0  0  0  0
    7.5499   -5.9036    0.0000 C   0  0  2  0  0  0  0  0  0  0  0  0
    7.3075   -7.9924    0.0000 C   0  0  0  0  0  0  0  0  0  0  0  0
    6.4636   -6.6928    0.0000 C   0  0  0  0  0  0  0  0  0  0  0  0
    8.1666   -5.3483    0.0000 C   0  0  0  0  0  0  0  0  0  0  0  0
    8.0675   -8.3388    0.0000 C   0  0  0  0  0  0  0  0  0  0  0  0
    8.9559   -5.6048    0.0000 C   0  0  0  0  0  0  0  0  0  0  0  0
    8.1688   -4.5234    0.0000 C   0  0  0  0  0  0  0  0  0  0  0  0
    8.6843   -7.7836    0.0000 C   0  0  0  0  0  0  0  0  0  0  0  0
    9.1284   -6.4165    0.0000 C   0  0  0  0  0  0  0  0  0  0  0  0
    8.5117   -6.9718    0.0000 C   0  0  0  0  0  0  0  0  0  0  0  0
    8.9536   -4.2691    0.0000 C   0  0  0  0  0  0  0  0  0  0  0  0
    7.4982   -4.0344    0.0000 C   0  0  0  0  0  0  0  0  0  0  0  0
    7.4068   -6.6128    0.0000 C   0  0  0  0  0  0  0  0  0  0  0  0
    8.3771   -6.2782    0.0000 H   0  0  0  0  0  0  0  0  0  0  0  0
    7.3319   -5.2327    0.0000 H   0  0  0  0  0  0  0  0  0  0  0  0
  5  1  1  6  0  0  0
  1  6  1  0  0  0  0
  2  7  1  0  0  0  0
  2  9  1  0  0  0  0
  3  9  2  0  0  0  0
  4 12  1  0  0  0  0
  4 17  1  0  0  0  0
  5  6  1  0  0  0  0
  5  8  1  0  0  0  0
  5  9  1  0  0  0  0
  6  7  1  0  0  0  0
  6 20  1  1  0  0  0
  7 10  1  0  0  0  0
  7 21  1  6  0  0  0
  8 11  1  0  0  0  0
 10 12  2  0  0  0  0
 10 13  1  0  0  0  0
 11 14  1  0  0  0  0
 12 15  1  0  0  0  0
 13 17  2  0  0  0  0
 13 18  1  0  0  0  0
 14 16  2  0  0  0  0
 15 16  1  0  0  0  0
 16 19  1  0  0  0  0
M  END
>  <cdx:fragmentId>
1

$$$$
