91574.cdx
  Mrv1902 05222410222D          

 22 22  0  0  0  0            999 V2000
    3.3256   -9.3214    0.0000 C   0  0  2  0  0  0  0  0  0  0  0  0
    3.3256  -10.1464    0.0000 C   0  0  2  0  0  0  0  0  0  0  0  0
    4.0400  -10.5589    0.0000 C   0  0  1  0  0  0  0  0  0  0  0  0
    4.7545  -10.1464    0.0000 C   0  0  2  0  0  0  0  0  0  0  0  0
    4.7545   -9.3214    0.0000 C   0  0  1  0  0  0  0  0  0  0  0  0
    4.0400   -8.9089    0.0000 O   0  0  0  0  0  0  0  0  0  0  0  0
    2.6111   -8.9089    0.0000 C   0  0  0  0  0  0  0  0  0  0  0  0
    5.4690   -8.9089    0.0000 O   0  0  0  0  0  0  0  0  0  0  0  0
    4.0400  -11.3839    0.0000 O   0  0  0  0  0  0  0  0  0  0  0  0
    2.6111  -10.5589    0.0000 O   0  0  0  0  0  0  0  0  0  0  0  0
    5.4690  -10.5589    0.0000 O   0  0  0  0  0  0  0  0  0  0  0  0
    1.8966   -9.3214    0.0000 O   0  0  0  0  0  0  0  0  0  0  0  0
    6.1753   -9.3351    0.0000 C   0  0  0  0  0  0  0  0  0  0  0  0
    6.8976   -8.9365    0.0000 C   0  0  0  0  0  0  0  0  0  0  0  0
    7.6040   -9.3627    0.0000 C   0  0  0  0  0  0  0  0  0  0  0  0
    8.3263   -8.9641    0.0000 C   0  0  0  0  0  0  0  0  0  0  0  0
    7.5881  -10.1876    0.0000 C   0  0  0  0  0  0  0  0  0  0  0  0
    9.0327   -9.3903    0.0000 C   0  0  0  0  0  0  0  0  0  0  0  0
    9.7550   -8.9917    0.0000 C   0  0  0  0  0  0  0  0  0  0  0  0
   10.4614   -9.4179    0.0000 C   0  0  0  0  0  0  0  0  0  0  0  0
   11.1837   -9.0193    0.0000 C   0  0  0  0  0  0  0  0  0  0  0  0
   10.4454  -10.2428    0.0000 C   0  0  0  0  0  0  0  0  0  0  0  0
  1  2  1  0  0  0  0
  2  3  1  0  0  0  0
  3  4  1  0  0  0  0
  4  5  1  0  0  0  0
  5  6  1  0  0  0  0
  6  1  1  0  0  0  0
  1  7  1  1  0  0  0
  5  8  1  1  0  0  0
  3  9  1  1  0  0  0
  2 10  1  6  0  0  0
  4 11  1  6  0  0  0
  7 12  1  0  0  0  0
  8 13  1  0  0  0  0
 13 14  1  0  0  0  0
 14 15  1  0  0  0  0
 15 16  1  0  0  0  0
 15 17  1  0  0  0  0
 16 18  1  0  0  0  0
 18 19  1  0  0  0  0
 19 20  2  0  0  0  0
 20 21  1  0  0  0  0
 20 22  1  0  0  0  0
M  END
>  <cdx:fragmentId>
5

$$$$
