91572.cdx
  Mrv1902 05222410212D          

 44 47  0  0  0  0            999 V2000
    3.7931  -10.1051    0.0000 C   0  0  0  0  0  0  0  0  0  0  0  0
    3.7931  -10.9301    0.0000 C   0  0  0  0  0  0  0  0  0  0  0  0
    4.5075  -11.3426    0.0000 C   0  0  0  0  0  0  0  0  0  0  0  0
    5.2220  -10.9301    0.0000 C   0  0  0  0  0  0  0  0  0  0  0  0
    5.2220  -10.1051    0.0000 C   0  0  0  0  0  0  0  0  0  0  0  0
    4.5075   -9.6926    0.0000 C   0  0  0  0  0  0  0  0  0  0  0  0
    3.0786   -9.6926    0.0000 O   0  0  0  0  0  0  0  0  0  0  0  0
    3.0786  -11.3426    0.0000 O   0  0  0  0  0  0  0  0  0  0  0  0
    5.9365   -9.6926    0.0000 C   0  0  0  0  0  0  0  0  0  0  0  0
    6.6509  -10.1051    0.0000 C   0  0  0  0  0  0  0  0  0  0  0  0
    7.3654   -9.6926    0.0000 C   0  0  0  0  0  0  0  0  0  0  0  0
    8.0799  -10.1051    0.0000 O   0  0  0  0  0  0  0  0  0  0  0  0
    7.3654   -8.8676    0.0000 O   0  0  0  0  0  0  0  0  0  0  0  0
    8.7944   -9.6926    0.0000 C   0  0  1  0  0  0  0  0  0  0  0  0
    9.5088  -10.1051    0.0000 C   0  0  1  0  0  0  0  0  0  0  0  0
   10.2233   -9.6926    0.0000 C   0  0  2  0  0  0  0  0  0  0  0  0
   10.2233   -8.8676    0.0000 C   0  0  2  0  0  0  0  0  0  0  0  0
    9.5088   -8.4551    0.0000 O   0  0  0  0  0  0  0  0  0  0  0  0
    8.7944   -8.8676    0.0000 C   0  0  2  0  0  0  0  0  0  0  0  0
   10.9378  -10.1051    0.0000 O   0  0  0  0  0  0  0  0  0  0  0  0
   10.9378   -8.4551    0.0000 O   0  0  0  0  0  0  0  0  0  0  0  0
    8.0799   -8.4551    0.0000 C   0  0  0  0  0  0  0  0  0  0  0  0
    9.5088  -10.9301    0.0000 O   0  0  0  0  0  0  0  0  0  0  0  0
    8.0799   -7.6301    0.0000 O   0  0  0  0  0  0  0  0  0  0  0  0
    8.7944  -11.3426    0.0000 C   0  0  2  0  0  0  0  0  0  0  0  0
    8.0799  -10.9301    0.0000 O   0  0  0  0  0  0  0  0  0  0  0  0
    7.3654  -11.3426    0.0000 C   0  0  2  0  0  0  0  0  0  0  0  0
    7.3654  -12.1676    0.0000 C   0  0  1  0  0  0  0  0  0  0  0  0
    8.0799  -12.5801    0.0000 C   0  0  2  0  0  0  0  0  0  0  0  0
    8.7944  -12.1676    0.0000 C   0  0  1  0  0  0  0  0  0  0  0  0
    8.0799  -13.4051    0.0000 O   0  0  0  0  0  0  0  0  0  0  0  0
    6.6509  -10.9301    0.0000 C   0  0  0  0  0  0  0  0  0  0  0  0
    6.6509  -12.5801    0.0000 O   0  0  0  0  0  0  0  0  0  0  0  0
    9.5088  -12.5801    0.0000 O   0  0  0  0  0  0  0  0  0  0  0  0
    7.6631   -6.9129    0.0000 C   0  0  2  0  0  0  0  0  0  0  0  0
    8.0740   -6.1975    0.0000 O   0  0  0  0  0  0  0  0  0  0  0  0
    7.6600   -5.4839    0.0000 C   0  0  2  0  0  0  0  0  0  0  0  0
    6.8350   -5.4857    0.0000 C   0  0  1  0  0  0  0  0  0  0  0  0
    6.4240   -6.2011    0.0000 C   0  0  2  0  0  0  0  0  0  0  0  0
    6.8381   -6.9146    0.0000 C   0  0  1  0  0  0  0  0  0  0  0  0
    5.5990   -6.2028    0.0000 O   0  0  0  0  0  0  0  0  0  0  0  0
    8.0710   -4.7686    0.0000 C   0  0  0  0  0  0  0  0  0  0  0  0
    6.4210   -4.7721    0.0000 O   0  0  0  0  0  0  0  0  0  0  0  0
    6.4271   -7.6300    0.0000 O   0  0  0  0  0  0  0  0  0  0  0  0
  1  2  2  0  0  0  0
  2  3  1  0  0  0  0
  3  4  2  0  0  0  0
  4  5  1  0  0  0  0
  5  6  2  0  0  0  0
  6  1  1  0  0  0  0
  1  7  1  0  0  0  0
  2  8  1  0  0  0  0
  5  9  1  0  0  0  0
  9 10  2  0  0  0  0
 10 11  1  0  0  0  0
 11 12  1  0  0  0  0
 11 13  2  0  0  0  0
 14 12  1  6  0  0  0
 14 15  1  0  0  0  0
 15 16  1  0  0  0  0
 16 17  1  0  0  0  0
 17 18  1  0  0  0  0
 18 19  1  0  0  0  0
 19 14  1  0  0  0  0
 16 20  1  6  0  0  0
 17 21  1  6  0  0  0
 19 22  1  1  0  0  0
 15 23  1  1  0  0  0
 22 24  1  0  0  0  0
 25 23  1  1  0  0  0
 25 26  1  0  0  0  0
 26 27  1  0  0  0  0
 27 28  1  0  0  0  0
 28 29  1  0  0  0  0
 29 30  1  0  0  0  0
 30 25  1  0  0  0  0
 29 31  1  6  0  0  0
 27 32  1  6  0  0  0
 28 33  1  1  0  0  0
 30 34  1  6  0  0  0
 35 36  1  0  0  0  0
 36 37  1  0  0  0  0
 37 38  1  0  0  0  0
 38 39  1  0  0  0  0
 39 40  1  0  0  0  0
 40 35  1  0  0  0  0
 39 41  1  6  0  0  0
 37 42  1  6  0  0  0
 38 43  1  1  0  0  0
 40 44  1  6  0  0  0
 35 24  1  1  0  0  0
M  END
>  <cdx:fragmentId>
5

$$$$
