915790.cdx
  Mrv1902 05222410192D          

 35 36  0  0  0  0            999 V2000
    1.2051   -6.9385    0.0000 C   0  0  0  0  0  0  0  0  0  0  0  0
    7.6354   -9.0010    0.0000 C   0  0  0  0  0  0  0  0  0  0  0  0
    7.6354   -8.1760    0.0000 C   0  0  2  0  0  0  0  0  0  0  0  0
    6.9209   -7.7635    0.0000 C   0  0  2  0  0  0  0  0  0  0  0  0
    6.9209   -6.9385    0.0000 C   0  0  0  0  0  0  0  0  0  0  0  0
    6.9209   -9.4135    0.0000 O   0  0  0  0  0  0  0  0  0  0  0  0
    8.3499   -9.4135    0.0000 O   0  0  0  0  0  0  0  0  0  0  0  0
    7.6354   -6.5260    0.0000 O   0  0  0  0  0  0  0  0  0  0  0  0
    6.2064   -6.5260    0.0000 O   0  0  0  0  0  0  0  0  0  0  0  0
    6.2064   -8.1760    0.0000 O   0  0  0  0  0  0  0  0  0  0  0  0
    5.4920   -7.7635    0.0000 C   0  0  0  0  0  0  0  0  0  0  0  0
    4.7775   -8.1760    0.0000 C   0  0  0  0  0  0  0  0  0  0  0  0
    4.0630   -7.7635    0.0000 C   0  0  0  0  0  0  0  0  0  0  0  0
    5.4920   -6.9385    0.0000 O   0  0  0  0  0  0  0  0  0  0  0  0
    3.3486   -8.1760    0.0000 C   0  0  0  0  0  0  0  0  0  0  0  0
    2.6341   -7.7635    0.0000 C   0  0  0  0  0  0  0  0  0  0  0  0
    1.9196   -8.1760    0.0000 C   0  0  0  0  0  0  0  0  0  0  0  0
    1.9196   -9.0010    0.0000 C   0  0  0  0  0  0  0  0  0  0  0  0
    2.6341   -9.4135    0.0000 C   0  0  0  0  0  0  0  0  0  0  0  0
    3.3486   -9.0010    0.0000 C   0  0  0  0  0  0  0  0  0  0  0  0
    1.2051   -9.4135    0.0000 O   0  0  0  0  0  0  0  0  0  0  0  0
    1.2051   -7.7635    0.0000 O   0  0  0  0  0  0  0  0  0  0  0  0
    8.3499   -7.7635    0.0000 O   0  0  0  0  0  0  0  0  0  0  0  0
    9.0643   -8.1760    0.0000 C   0  0  0  0  0  0  0  0  0  0  0  0
    9.7788   -7.7635    0.0000 C   0  0  0  0  0  0  0  0  0  0  0  0
   10.4933   -8.1760    0.0000 C   0  0  0  0  0  0  0  0  0  0  0  0
    9.0643   -9.0010    0.0000 O   0  0  0  0  0  0  0  0  0  0  0  0
   11.2077   -7.7635    0.0000 C   0  0  0  0  0  0  0  0  0  0  0  0
   11.9222   -8.1760    0.0000 C   0  0  0  0  0  0  0  0  0  0  0  0
   12.6367   -7.7635    0.0000 C   0  0  0  0  0  0  0  0  0  0  0  0
   12.6367   -6.9385    0.0000 C   0  0  0  0  0  0  0  0  0  0  0  0
   11.9222   -6.5260    0.0000 C   0  0  0  0  0  0  0  0  0  0  0  0
   11.2077   -6.9385    0.0000 C   0  0  0  0  0  0  0  0  0  0  0  0
   13.3512   -6.5260    0.0000 O   0  0  0  0  0  0  0  0  0  0  0  0
   13.3512   -8.1760    0.0000 O   0  0  0  0  0  0  0  0  0  0  0  0
 22  1  1  0  0  0  0
  3  2  1  0  0  0  0
  3  4  1  0  0  0  0
  4  5  1  0  0  0  0
  2  6  2  0  0  0  0
  2  7  1  0  0  0  0
  5  8  2  0  0  0  0
  5  9  1  0  0  0  0
 11 12  1  0  0  0  0
 12 13  2  0  0  0  0
 11 14  2  0  0  0  0
 15 16  1  0  0  0  0
 16 17  2  0  0  0  0
 17 18  1  0  0  0  0
 18 19  2  0  0  0  0
 19 20  1  0  0  0  0
 15 20  2  0  0  0  0
 18 21  1  0  0  0  0
 17 22  1  0  0  0  0
 13 15  1  0  0  0  0
 10 11  1  0  0  0  0
  4 10  1  1  0  0  0
 24 25  1  0  0  0  0
 25 26  2  0  0  0  0
 24 27  2  0  0  0  0
 28 29  1  0  0  0  0
 29 30  2  0  0  0  0
 30 31  1  0  0  0  0
 31 32  2  0  0  0  0
 32 33  1  0  0  0  0
 28 33  2  0  0  0  0
 31 34  1  0  0  0  0
 30 35  1  0  0  0  0
 26 28  1  0  0  0  0
 23 24  1  0  0  0  0
  3 23  1  6  0  0  0
M  END
>  <cdx:fragmentId>
31

$$$$
