91587.cdx
  Mrv1902 05222410242D          

 51 54  0  0  0  0            999 V2000
    6.4606   -8.4551    0.0000 C   0  0  2  0  0  0  0  0  0  0  0  0
    6.4606   -9.2801    0.0000 C   0  0  2  0  0  0  0  0  0  0  0  0
    7.1750   -9.6926    0.0000 C   0  0  1  0  0  0  0  0  0  0  0  0
    7.8895   -9.2801    0.0000 C   0  0  2  0  0  0  0  0  0  0  0  0
    7.8895   -8.4551    0.0000 C   0  0  1  0  0  0  0  0  0  0  0  0
    7.1750   -8.0426    0.0000 O   0  0  0  0  0  0  0  0  0  0  0  0
    5.7461   -8.0426    0.0000 C   0  0  0  0  0  0  0  0  0  0  0  0
    8.6040   -8.0426    0.0000 O   0  0  0  0  0  0  0  0  0  0  0  0
    7.1750  -10.5176    0.0000 O   0  0  0  0  0  0  0  0  0  0  0  0
    5.7461   -9.6926    0.0000 O   0  0  0  0  0  0  0  0  0  0  0  0
    8.6040   -9.6926    0.0000 O   0  0  0  0  0  0  0  0  0  0  0  0
    5.0316   -8.4551    0.0000 O   0  0  0  0  0  0  0  0  0  0  0  0
    4.3171   -8.0426    0.0000 C   0  0  0  0  0  0  0  0  0  0  0  0
    3.6027   -8.4551    0.0000 C   0  0  0  0  0  0  0  0  0  0  0  0
    4.3171   -7.2176    0.0000 O   0  0  0  0  0  0  0  0  0  0  0  0
    9.3184   -8.4551    0.0000 C   0  0  0  0  0  0  0  0  0  0  0  0
   10.0329   -8.0426    0.0000 C   0  0  0  0  0  0  0  0  0  0  0  0
   10.7474   -8.4551    0.0000 C   0  0  0  0  0  0  0  0  0  0  0  0
   10.7474   -9.2801    0.0000 C   0  0  0  0  0  0  0  0  0  0  0  0
   11.4619   -9.6926    0.0000 C   0  0  0  0  0  0  0  0  0  0  0  0
   12.1763   -9.2801    0.0000 C   0  0  0  0  0  0  0  0  0  0  0  0
   12.1763   -8.4551    0.0000 C   0  0  0  0  0  0  0  0  0  0  0  0
   11.4619   -8.0426    0.0000 C   0  0  0  0  0  0  0  0  0  0  0  0
   12.8908   -9.6926    0.0000 O   0  0  0  0  0  0  0  0  0  0  0  0
   12.8908   -8.0426    0.0000 O   0  0  0  0  0  0  0  0  0  0  0  0
    8.6040  -10.5176    0.0000 C   0  0  0  0  0  0  0  0  0  0  0  0
    9.3184  -10.9301    0.0000 C   0  0  0  0  0  0  0  0  0  0  0  0
    9.3184  -11.7551    0.0000 C   0  0  0  0  0  0  0  0  0  0  0  0
   10.0329  -10.5176    0.0000 O   0  0  0  0  0  0  0  0  0  0  0  0
    5.0316  -10.1051    0.0000 C   0  0  0  0  0  0  0  0  0  0  0  0
    4.3171   -9.6926    0.0000 O   0  0  0  0  0  0  0  0  0  0  0  0
    5.0316  -10.9301    0.0000 C   0  0  0  0  0  0  0  0  0  0  0  0
    4.3171  -11.3426    0.0000 C   0  0  0  0  0  0  0  0  0  0  0  0
    4.3171  -12.1676    0.0000 C   0  0  0  0  0  0  0  0  0  0  0  0
    3.6027  -12.5801    0.0000 C   0  0  0  0  0  0  0  0  0  0  0  0
    3.6027  -13.4051    0.0000 C   0  0  0  0  0  0  0  0  0  0  0  0
    4.3171  -13.8176    0.0000 C   0  0  0  0  0  0  0  0  0  0  0  0
    5.0316  -13.4051    0.0000 C   0  0  0  0  0  0  0  0  0  0  0  0
    5.0316  -12.5801    0.0000 C   0  0  0  0  0  0  0  0  0  0  0  0
    4.3171  -14.6426    0.0000 O   0  0  0  0  0  0  0  0  0  0  0  0
    2.8882  -13.8176    0.0000 O   0  0  0  0  0  0  0  0  0  0  0  0
    7.1750  -11.3426    0.0000 C   0  0  2  0  0  0  0  0  0  0  0  0
    6.4606  -11.7551    0.0000 O   0  0  0  0  0  0  0  0  0  0  0  0
    6.4606  -12.5801    0.0000 C   0  0  2  0  0  0  0  0  0  0  0  0
    7.1750  -12.9926    0.0000 C   0  0  1  0  0  0  0  0  0  0  0  0
    7.8895  -12.5801    0.0000 C   0  0  2  0  0  0  0  0  0  0  0  0
    7.8895  -11.7551    0.0000 C   0  0  1  0  0  0  0  0  0  0  0  0
    5.7461  -12.9926    0.0000 C   0  0  0  0  0  0  0  0  0  0  0  0
    8.6040  -12.9926    0.0000 O   0  0  0  0  0  0  0  0  0  0  0  0
    8.6040  -11.3426    0.0000 O   0  0  0  0  0  0  0  0  0  0  0  0
    7.1750  -13.8176    0.0000 O   0  0  0  0  0  0  0  0  0  0  0  0
  1  2  1  0  0  0  0
  2  3  1  0  0  0  0
  3  4  1  0  0  0  0
  4  5  1  0  0  0  0
  5  6  1  0  0  0  0
  6  1  1  0  0  0  0
  1  7  1  1  0  0  0
  5  8  1  1  0  0  0
  3  9  1  1  0  0  0
  2 10  1  6  0  0  0
  4 11  1  6  0  0  0
  7 12  1  0  0  0  0
 12 13  1  0  0  0  0
 13 14  1  0  0  0  0
 13 15  2  0  0  0  0
  8 16  1  0  0  0  0
 16 17  1  0  0  0  0
 17 18  1  0  0  0  0
 18 19  2  0  0  0  0
 19 20  1  0  0  0  0
 20 21  2  0  0  0  0
 21 22  1  0  0  0  0
 22 23  2  0  0  0  0
 23 18  1  0  0  0  0
 21 24  1  0  0  0  0
 22 25  1  0  0  0  0
 11 26  1  0  0  0  0
 26 27  1  0  0  0  0
 27 28  1  0  0  0  0
 27 29  2  0  0  0  0
 10 30  1  0  0  0  0
 30 31  2  0  0  0  0
 30 32  1  0  0  0  0
 32 33  2  0  0  0  0
 33 34  1  0  0  0  0
 34 35  2  0  0  0  0
 35 36  1  0  0  0  0
 36 37  2  0  0  0  0
 37 38  1  0  0  0  0
 38 39  2  0  0  0  0
 39 34  1  0  0  0  0
 37 40  1  0  0  0  0
 36 41  1  0  0  0  0
 42  9  1  1  0  0  0
 42 43  1  0  0  0  0
 43 44  1  0  0  0  0
 44 45  1  0  0  0  0
 45 46  1  0  0  0  0
 46 47  1  0  0  0  0
 47 42  1  0  0  0  0
 44 48  1  6  0  0  0
 46 49  1  6  0  0  0
 47 50  1  6  0  0  0
 45 51  1  1  0  0  0
M  END
>  <cdx:fragmentId>
5

$$$$
