91583.cdx
  Mrv1902 05222410252D          

 36 39  0  0  0  0            999 V2000
    8.3993   -7.4376    0.0000 C   0  0  1  0  0  0  0  0  0  0  0  0
    8.3993   -8.2626    0.0000 C   0  0  0  0  0  0  0  0  0  0  0  0
    9.1138   -8.6751    0.0000 C   0  0  1  0  0  0  0  0  0  0  0  0
    9.8282   -8.2626    0.0000 O   0  0  0  0  0  0  0  0  0  0  0  0
    9.8282   -7.4376    0.0000 C   0  0  0  0  0  0  0  0  0  0  0  0
    9.1138   -7.0251    0.0000 C   0  0  0  0  0  0  0  0  0  0  0  0
    7.6147   -7.1827    0.0000 C   0  0  1  0  0  0  0  0  0  0  0  0
    7.1298   -7.8501    0.0000 C   0  0  0  0  0  0  0  0  0  0  0  0
    7.6147   -8.5176    0.0000 C   0  0  2  0  0  0  0  0  0  0  0  0
    7.3597   -9.3022    0.0000 O   0  0  0  0  0  0  0  0  0  0  0  0
    6.6453   -8.8897    0.0000 C   0  0  0  0  0  0  0  0  0  0  0  0
    5.9308   -9.3022    0.0000 C   0  0  0  0  0  0  0  0  0  0  0  0
    6.6453   -8.0647    0.0000 O   0  0  0  0  0  0  0  0  0  0  0  0
    5.2163   -8.8897    0.0000 C   0  0  0  0  0  0  0  0  0  0  0  0
    4.5019   -9.3022    0.0000 C   0  0  0  0  0  0  0  0  0  0  0  0
    3.7874   -8.8897    0.0000 C   0  0  0  0  0  0  0  0  0  0  0  0
    3.0729   -9.3022    0.0000 C   0  0  0  0  0  0  0  0  0  0  0  0
    3.0729  -10.1272    0.0000 C   0  0  0  0  0  0  0  0  0  0  0  0
    3.7874  -10.5397    0.0000 C   0  0  0  0  0  0  0  0  0  0  0  0
    4.5019  -10.1272    0.0000 C   0  0  0  0  0  0  0  0  0  0  0  0
    2.3584  -10.5397    0.0000 O   0  0  0  0  0  0  0  0  0  0  0  0
    8.7011  -10.2153    0.0000 C   0  0  2  0  0  0  0  0  0  0  0  0
    7.8761  -10.2125    0.0000 O   0  0  0  0  0  0  0  0  0  0  0  0
    7.4612  -10.9256    0.0000 C   0  0  1  0  0  0  0  0  0  0  0  0
    7.8713  -11.6415    0.0000 C   0  0  2  0  0  0  0  0  0  0  0  0
    8.6963  -11.6442    0.0000 C   0  0  1  0  0  0  0  0  0  0  0  0
    9.1112  -10.9311    0.0000 C   0  0  1  0  0  0  0  0  0  0  0  0
    9.9362  -10.9339    0.0000 O   0  0  0  0  0  0  0  0  0  0  0  0
    7.4565  -12.3546    0.0000 O   0  0  0  0  0  0  0  0  0  0  0  0
    9.1065  -12.3600    0.0000 O   0  0  0  0  0  0  0  0  0  0  0  0
    6.6362  -10.9229    0.0000 C   0  0  0  0  0  0  0  0  0  0  0  0
    6.2214  -11.6360    0.0000 O   0  0  0  0  0  0  0  0  0  0  0  0
    9.1138   -9.5001    0.0000 O   0  0  0  0  0  0  0  0  0  0  0  0
    7.3597   -6.3981    0.0000 O   0  0  0  0  0  0  0  0  0  0  0  0
    8.3131   -6.6172    0.0000 O   0  0  0  0  0  0  0  0  0  0  0  0
    8.1980   -9.1010    0.0000 C   0  0  0  0  0  0  0  0  0  0  0  0
  1  2  1  0  0  0  0
  2  3  1  0  0  0  0
  3  4  1  0  0  0  0
  4  5  1  0  0  0  0
  5  6  2  0  0  0  0
  6  1  1  0  0  0  0
  1  7  1  0  0  0  0
  7  8  1  0  0  0  0
  8  9  1  0  0  0  0
  9  2  1  0  0  0  0
  9 10  1  1  0  0  0
 10 11  1  0  0  0  0
 11 12  1  0  0  0  0
 11 13  2  0  0  0  0
 12 14  2  0  0  0  0
 14 15  1  0  0  0  0
 15 16  2  0  0  0  0
 16 17  1  0  0  0  0
 17 18  2  0  0  0  0
 18 19  1  0  0  0  0
 19 20  2  0  0  0  0
 20 15  1  0  0  0  0
 18 21  1  0  0  0  0
 22 23  1  0  0  0  0
 23 24  1  0  0  0  0
 24 25  1  0  0  0  0
 25 26  1  0  0  0  0
 26 27  1  0  0  0  0
 27 22  1  0  0  0  0
 27 28  1  6  0  0  0
 25 29  1  6  0  0  0
 26 30  1  1  0  0  0
 24 31  1  1  0  0  0
 31 32  1  0  0  0  0
  3 33  1  1  0  0  0
 22 33  1  1  0  0  0
  7 34  1  1  0  0  0
  1 35  1  1  0  0  0
  9 36  1  6  0  0  0
M  END
>  <cdx:fragmentId>
5

$$$$
