915807.cdx
  Mrv1902 05222410182D          

 28 32  0  0  0  0            999 V2000
    4.0870   -7.3838    0.0000 C   0  0  0  0  0  0  0  0  0  0  0  0
    4.0870   -8.2088    0.0000 C   0  0  0  0  0  0  0  0  0  0  0  0
    4.8015   -8.6212    0.0000 C   0  0  0  0  0  0  0  0  0  0  0  0
    5.5160   -8.2088    0.0000 C   0  0  0  0  0  0  0  0  0  0  0  0
    5.5160   -7.3838    0.0000 C   0  0  0  0  0  0  0  0  0  0  0  0
    4.8015   -6.9712    0.0000 C   0  0  0  0  0  0  0  0  0  0  0  0
    6.3006   -8.4637    0.0000 C   0  0  0  0  0  0  0  0  0  0  0  0
    6.7855   -7.7963    0.0000 O   0  0  0  0  0  0  0  0  0  0  0  0
    6.3006   -7.1288    0.0000 C   0  0  0  0  0  0  0  0  0  0  0  0
    6.5141   -9.2606    0.0000 O   0  0  0  0  0  0  0  0  0  0  0  0
    6.0871   -6.3319    0.0000 C   0  0  0  0  0  0  0  0  0  0  0  0
    6.8840   -6.5454    0.0000 C   0  0  0  0  0  0  0  0  0  0  0  0
    6.6704   -5.7486    0.0000 C   0  0  0  0  0  0  0  0  0  0  0  0
    7.7078   -6.5886    0.0000 C   0  0  0  0  0  0  0  0  0  0  0  0
    8.0035   -5.8184    0.0000 O   0  0  0  0  0  0  0  0  0  0  0  0
    7.3623   -5.2992    0.0000 C   0  0  0  0  0  0  0  0  0  0  0  0
    7.5759   -4.5023    0.0000 O   0  0  0  0  0  0  0  0  0  0  0  0
    8.1203   -7.3031    0.0000 C   0  0  0  0  0  0  0  0  0  0  0  0
    8.9453   -7.3031    0.0000 C   0  0  0  0  0  0  0  0  0  0  0  0
    9.3578   -8.0176    0.0000 C   0  0  0  0  0  0  0  0  0  0  0  0
   10.1828   -8.0176    0.0000 C   0  0  0  0  0  0  0  0  0  0  0  0
    6.8840   -4.9517    0.0000 C   0  0  0  0  0  0  0  0  0  0  0  0
    6.3006   -4.3683    0.0000 C   0  0  0  0  0  0  0  0  0  0  0  0
    6.5141   -5.1652    0.0000 C   0  0  0  0  0  0  0  0  0  0  0  0
    6.1016   -5.8797    0.0000 C   0  0  0  0  0  0  0  0  0  0  0  0
    5.3726   -5.9194    0.0000 C   0  0  0  0  0  0  0  0  0  0  0  0
    5.3726   -5.0944    0.0000 C   0  0  0  0  0  0  0  0  0  0  0  0
    4.6581   -4.6819    0.0000 C   0  0  0  0  0  0  0  0  0  0  0  0
  1  2  2  0  0  0  0
  2  3  1  0  0  0  0
  3  4  2  0  0  0  0
  4  5  1  0  0  0  0
  5  6  2  0  0  0  0
  6  1  1  0  0  0  0
  4  7  1  0  0  0  0
  7  8  1  0  0  0  0
  8  9  1  0  0  0  0
  9  5  1  0  0  0  0
  7 10  2  0  0  0  0
  9 11  1  0  0  0  0
  9 12  1  0  0  0  0
 11 13  1  0  0  0  0
 13 12  1  0  0  0  0
 12 14  1  0  0  0  0
 14 15  1  0  0  0  0
 15 16  1  0  0  0  0
 16 13  1  0  0  0  0
 16 17  2  0  0  0  0
 14 18  2  0  0  0  0
 18 19  1  0  0  0  0
 19 20  1  0  0  0  0
 20 21  1  0  0  0  0
 13 22  1  0  0  0  0
 22 23  2  0  0  0  0
 23 24  1  0  0  0  0
 24 25  1  0  0  0  0
 25 12  1  0  0  0  0
 11 26  1  0  0  0  0
 26 27  1  0  0  0  0
 27 28  1  0  0  0  0
M  END
>  <cdx:fragmentId>
5

$$$$
