91581.cdx
  Mrv1902 05222410252D          

 25 27  0  0  0  0            999 V2000
    3.8763   -8.8205    0.0000 C   0  0  0  0  0  0  0  0  0  0  0  0
    3.4556   -9.5302    0.0000 C   0  0  0  0  0  0  0  0  0  0  0  0
    3.4720   -8.1013    0.0000 C   0  0  0  0  0  0  0  0  0  0  0  0
    3.8599  -10.2493    0.0000 C   0  0  0  0  0  0  0  0  0  0  0  0
    5.1055   -9.5491    0.0000 O   0  0  0  0  0  0  0  0  0  0  0  0
    4.7012   -8.8299    0.0000 C   0  0  0  0  0  0  0  0  0  0  0  0
    5.1219   -8.1202    0.0000 O   0  0  0  0  0  0  0  0  0  0  0  0
    5.9377   -8.9546    0.0000 C   0  0  0  0  0  0  0  0  0  0  0  0
    5.9560   -7.3048    0.0000 C   0  0  0  0  0  0  0  0  0  0  0  0
    5.9468   -8.1297    0.0000 C   0  0  0  0  0  0  0  0  0  0  0  0
    9.5032   -5.2828    0.0000 O   0  0  0  0  0  0  0  0  0  0  0  0
    7.2643   -7.4773    0.0000 C   0  0  0  0  0  0  0  0  0  0  0  0
    6.7718   -8.1392    0.0000 C   0  0  2  0  0  0  0  0  0  0  0  0
    7.2490   -8.8121    0.0000 O   0  0  0  0  0  0  0  0  0  0  0  0
   10.1940   -7.3534    0.0000 C   0  0  0  0  0  0  0  0  0  0  0  0
   10.2035   -6.5284    0.0000 C   0  0  0  0  0  0  0  0  0  0  0  0
    9.4938   -6.1078    0.0000 C   0  0  0  0  0  0  0  0  0  0  0  0
    8.7746   -6.5120    0.0000 O   0  0  0  0  0  0  0  0  0  0  0  0
    9.4654   -8.5826    0.0000 C   0  0  0  0  0  0  0  0  0  0  0  0
    9.4748   -7.7577    0.0000 C   0  0  0  0  0  0  0  0  0  0  0  0
    8.7651   -7.3370    0.0000 C   0  0  0  0  0  0  0  0  0  0  0  0
    8.0460   -7.7413    0.0000 C   0  0  0  0  0  0  0  0  0  0  0  0
    8.0365   -8.5662    0.0000 C   0  0  0  0  0  0  0  0  0  0  0  0
    8.7462   -8.9869    0.0000 C   0  0  0  0  0  0  0  0  0  0  0  0
    6.2792   -8.8010    0.0000 H   0  0  0  0  0  0  0  0  0  0  0  0
  1  2  2  0  0  0  0
  1  3  1  0  0  0  0
  6  5  2  0  0  0  0
  6  1  1  0  0  0  0
  2  4  1  0  0  0  0
  7  6  1  0  0  0  0
 10  7  1  0  0  0  0
 10  8  1  0  0  0  0
 10  9  1  0  0  0  0
 13 10  1  0  0  0  0
 17 11  2  0  0  0  0
 12 22  1  0  0  0  0
 13 12  1  0  0  0  0
 14 13  1  0  0  0  0
 23 14  1  0  0  0  0
 15 20  1  0  0  0  0
 16 15  2  0  0  0  0
 17 16  1  0  0  0  0
 18 17  1  0  0  0  0
 21 18  1  0  0  0  0
 19 24  1  0  0  0  0
 20 19  2  0  0  0  0
 21 20  1  0  0  0  0
 22 21  2  0  0  0  0
 23 22  1  0  0  0  0
 24 23  2  0  0  0  0
 13 25  1  1  0  0  0
M  END
>  <cdx:fragmentId>
5

$$$$
