91584.cdx
  Mrv1902 05222410232D          

 36 38  0  0  0  0            999 V2000
    7.6981   -9.8026    0.0000 C   0  0  0  0  0  0  0  0  0  0  0  0
    7.6981  -10.6276    0.0000 C   0  0  2  0  0  0  0  0  0  0  0  0
    8.4125  -11.0401    0.0000 C   0  0  0  0  0  0  0  0  0  0  0  0
    9.1270  -10.6276    0.0000 C   0  0  1  0  0  0  0  0  0  0  0  0
    9.1270   -9.8026    0.0000 C   0  0  0  0  0  0  0  0  0  0  0  0
    8.4125   -9.3901    0.0000 C   0  0  2  0  0  0  0  0  0  0  0  0
    9.8415   -9.3901    0.0000 C   0  0  1  0  0  0  0  0  0  0  0  0
    6.9836  -11.0401    0.0000 O   0  0  0  0  0  0  0  0  0  0  0  0
    6.2754  -10.6169    0.0000 C   0  0  2  0  0  0  0  0  0  0  0  0
    6.2878   -9.7920    0.0000 O   0  0  0  0  0  0  0  0  0  0  0  0
    5.5797   -9.3688    0.0000 C   0  0  1  0  0  0  0  0  0  0  0  0
    4.8591   -9.7705    0.0000 C   0  0  2  0  0  0  0  0  0  0  0  0
    4.8466  -10.5954    0.0000 C   0  0  1  0  0  0  0  0  0  0  0  0
    5.5548  -11.0186    0.0000 C   0  0  1  0  0  0  0  0  0  0  0  0
    5.5921   -8.5439    0.0000 C   0  0  0  0  0  0  0  0  0  0  0  0
    4.8839   -8.1207    0.0000 O   0  0  0  0  0  0  0  0  0  0  0  0
    4.8843   -7.2957    0.0000 C   0  0  2  0  0  0  0  0  0  0  0  0
    5.5990   -6.8835    0.0000 O   0  0  0  0  0  0  0  0  0  0  0  0
    5.5994   -6.0585    0.0000 C   0  0  0  0  0  0  0  0  0  0  0  0
    4.8851   -5.6457    0.0000 C   0  0  1  0  0  0  0  0  0  0  0  0
    4.1704   -6.0578    0.0000 C   0  0  1  0  0  0  0  0  0  0  0  0
    4.1700   -6.8828    0.0000 C   0  0  1  0  0  0  0  0  0  0  0  0
    7.9923   -8.6622    0.0000 C   0  0  0  0  0  0  0  0  0  0  0  0
    9.9520  -10.6276    0.0000 C   0  0  0  0  0  0  0  0  0  0  0  0
    4.1260  -10.9971    0.0000 O   0  0  0  0  0  0  0  0  0  0  0  0
    4.8855   -4.8207    0.0000 O   0  0  0  0  0  0  0  0  0  0  0  0
    3.4562   -5.6450    0.0000 O   0  0  0  0  0  0  0  0  0  0  0  0
    8.8151   -8.6929    0.0000 C   0  0  0  0  0  0  0  0  0  0  0  0
    9.5395  -11.3421    0.0000 O   0  0  0  0  0  0  0  0  0  0  0  0
    5.5424  -11.8435    0.0000 O   0  0  0  0  0  0  0  0  0  0  0  0
    4.1509   -9.3473    0.0000 O   0  0  0  0  0  0  0  0  0  0  0  0
    3.4554   -7.2950    0.0000 O   0  0  0  0  0  0  0  0  0  0  0  0
   10.5559   -8.9776    0.0000 C   0  0  0  0  0  0  0  0  0  0  0  0
   11.2704   -9.3901    0.0000 C   0  0  0  0  0  0  0  0  0  0  0  0
   11.9849   -8.9776    0.0000 C   0  0  0  0  0  0  0  0  0  0  0  0
   11.2704  -10.2152    0.0000 O   0  0  0  0  0  0  0  0  0  0  0  0
  1  2  1  0  0  0  0
  2  3  1  0  0  0  0
  3  4  1  0  0  0  0
  4  5  1  0  0  0  0
  5  6  1  0  0  0  0
  6  1  1  0  0  0  0
  5  7  2  0  0  0  0
  2  8  1  6  0  0  0
  9  8  1  1  0  0  0
  9 10  1  0  0  0  0
 10 11  1  0  0  0  0
 11 12  1  0  0  0  0
 12 13  1  0  0  0  0
 13 14  1  0  0  0  0
 14  9  1  0  0  0  0
 11 15  1  1  0  0  0
 15 16  1  0  0  0  0
 17 16  1  1  0  0  0
 17 18  1  0  0  0  0
 18 19  1  0  0  0  0
 19 20  1  0  0  0  0
 20 21  1  0  0  0  0
 21 22  1  0  0  0  0
 22 17  1  0  0  0  0
  6 23  1  1  0  0  0
  4 24  1  1  0  0  0
 13 25  1  1  0  0  0
 20 26  1  1  0  0  0
 21 27  1  1  0  0  0
  6 28  1  6  0  0  0
  4 29  1  6  0  0  0
 14 30  1  6  0  0  0
 12 31  1  6  0  0  0
 22 32  1  6  0  0  0
  7 33  2  0  0  0  0
 33 34  1  1  0  0  0
 34 35  1  0  0  0  0
 34 36  2  0  0  0  0
M  END
>  <cdx:fragmentId>
5

$$$$
