91588.cdx
  Mrv1902 05222410232D          

 41 45  0  0  0  0            999 V2000
    5.3589   -7.3377    0.0000 O   0  0  0  0  0  0  0  0  0  0  0  0
    5.0567   -8.4648    0.0000 C   0  0  0  0  0  0  0  0  0  0  0  0
    6.4856   -7.6398    0.0000 C   0  0  0  0  0  0  0  0  0  0  0  0
    5.7712   -8.0523    0.0000 C   0  0  0  0  0  0  0  0  0  0  0  0
   10.0330   -9.6614    0.0000 O   0  0  0  0  0  0  0  0  0  0  0  0
    7.0039   -8.8534    0.0000 C   0  0  0  0  0  0  0  0  0  0  0  0
    6.1834   -8.7669    0.0000 C   0  0  2  0  0  0  0  0  0  0  0  0
    5.8476   -9.5205    0.0000 O   0  0  0  0  0  0  0  0  0  0  0  0
    8.6035  -11.3110    0.0000 C   0  0  0  0  0  0  0  0  0  0  0  0
    9.3181  -10.8987    0.0000 C   0  0  0  0  0  0  0  0  0  0  0  0
    9.3184  -10.0737    0.0000 C   0  0  0  0  0  0  0  0  0  0  0  0
    8.6041   -9.6610    0.0000 O   0  0  0  0  0  0  0  0  0  0  0  0
    7.1746  -11.3105    0.0000 C   0  0  0  0  0  0  0  0  0  0  0  0
    7.8892  -10.8982    0.0000 C   0  0  0  0  0  0  0  0  0  0  0  0
    7.8895  -10.0732    0.0000 C   0  0  0  0  0  0  0  0  0  0  0  0
    7.1751   -9.6605    0.0000 C   0  0  0  0  0  0  0  0  0  0  0  0
    6.4605  -10.0727    0.0000 C   0  0  0  0  0  0  0  0  0  0  0  0
    6.4602  -10.8977    0.0000 C   0  0  0  0  0  0  0  0  0  0  0  0
    5.3630   -8.6804    0.0000 H   0  0  0  0  0  0  0  0  0  0  0  0
    5.7585   -6.6160    0.0000 C   0  0  2  0  0  0  0  0  0  0  0  0
    6.5834   -6.6013    0.0000 O   0  0  0  0  0  0  0  0  0  0  0  0
    6.9827   -5.8794    0.0000 C   0  0  1  0  0  0  0  0  0  0  0  0
    6.5572   -5.1722    0.0000 C   0  0  2  0  0  0  0  0  0  0  0  0
    5.7320   -5.1875    0.0000 C   0  0  1  0  0  0  0  0  0  0  0  0
    5.3327   -5.9094    0.0000 C   0  0  1  0  0  0  0  0  0  0  0  0
    7.8076   -5.8644    0.0000 C   0  0  0  0  0  0  0  0  0  0  0  0
    5.3064   -4.4807    0.0000 O   0  0  0  0  0  0  0  0  0  0  0  0
    4.5078   -5.9247    0.0000 O   0  0  0  0  0  0  0  0  0  0  0  0
    6.9566   -4.4503    0.0000 O   0  0  0  0  0  0  0  0  0  0  0  0
    8.2071   -5.1425    0.0000 O   0  0  0  0  0  0  0  0  0  0  0  0
    9.0319   -5.1275    0.0000 C   0  0  2  0  0  0  0  0  0  0  0  0
    9.4573   -5.8345    0.0000 O   0  0  0  0  0  0  0  0  0  0  0  0
   10.2823   -5.8193    0.0000 C   0  0  1  0  0  0  0  0  0  0  0  0
   10.6816   -5.0974    0.0000 C   0  0  2  0  0  0  0  0  0  0  0  0
   10.2561   -4.3903    0.0000 C   0  0  1  0  0  0  0  0  0  0  0  0
    9.4313   -4.4056    0.0000 C   0  0  1  0  0  0  0  0  0  0  0  0
   10.7078   -6.5260    0.0000 C   0  0  0  0  0  0  0  0  0  0  0  0
   10.6555   -3.6684    0.0000 O   0  0  0  0  0  0  0  0  0  0  0  0
   11.5065   -5.0823    0.0000 O   0  0  0  0  0  0  0  0  0  0  0  0
    9.0057   -3.6989    0.0000 O   0  0  0  0  0  0  0  0  0  0  0  0
   11.5327   -6.5109    0.0000 O   0  0  0  0  0  0  0  0  0  0  0  0
  4  1  1  0  0  0  0
  4  2  1  0  0  0  0
  4  3  1  0  0  0  0
  7  4  1  0  0  0  0
 11  5  2  0  0  0  0
  6 16  1  0  0  0  0
  7  6  1  0  0  0  0
  8  7  1  0  0  0  0
 17  8  1  0  0  0  0
  9 14  1  0  0  0  0
 10  9  2  0  0  0  0
 11 10  1  0  0  0  0
 12 11  1  0  0  0  0
 15 12  1  0  0  0  0
 13 18  1  0  0  0  0
 14 13  2  0  0  0  0
 15 14  1  0  0  0  0
 16 15  2  0  0  0  0
 17 16  1  0  0  0  0
 18 17  2  0  0  0  0
  7 19  1  1  0  0  0
 20  1  1  1  0  0  0
 20 21  1  0  0  0  0
 21 22  1  0  0  0  0
 22 23  1  0  0  0  0
 23 24  1  0  0  0  0
 24 25  1  0  0  0  0
 25 20  1  0  0  0  0
 22 26  1  1  0  0  0
 24 27  1  1  0  0  0
 25 28  1  6  0  0  0
 23 29  1  6  0  0  0
 26 30  1  0  0  0  0
 31 30  1  1  0  0  0
 31 32  1  0  0  0  0
 32 33  1  0  0  0  0
 33 34  1  0  0  0  0
 34 35  1  0  0  0  0
 35 36  1  0  0  0  0
 36 31  1  0  0  0  0
 33 37  1  1  0  0  0
 35 38  1  1  0  0  0
 34 39  1  6  0  0  0
 36 40  1  6  0  0  0
 37 41  1  0  0  0  0
M  END
>  <cdx:fragmentId>
5

$$$$
