91582.cdx
  Mrv1902 05222410252D          

 39 44  0  0  0  0            999 V2000
    5.8006   -9.8851    0.0000 C   0  0  0  0  0  0  0  0  0  0  0  0
    5.8006  -10.7101    0.0000 C   0  0  0  0  0  0  0  0  0  0  0  0
    6.5150  -11.1226    0.0000 C   0  0  0  0  0  0  0  0  0  0  0  0
    7.2295  -10.7101    0.0000 C   0  0  0  0  0  0  0  0  0  0  0  0
    7.2295   -9.8851    0.0000 C   0  0  0  0  0  0  0  0  0  0  0  0
    6.5150   -9.4726    0.0000 C   0  0  0  0  0  0  0  0  0  0  0  0
    7.9440  -11.1226    0.0000 C   0  0  0  0  0  0  0  0  0  0  0  0
    8.6584  -10.7101    0.0000 C   0  0  0  0  0  0  0  0  0  0  0  0
    8.6584   -9.8851    0.0000 C   0  0  0  0  0  0  0  0  0  0  0  0
    7.9440   -9.4726    0.0000 C   0  0  0  0  0  0  0  0  0  0  0  0
    9.3729   -9.4726    0.0000 C   0  0  0  0  0  0  0  0  0  0  0  0
    9.3729   -8.6476    0.0000 O   0  0  0  0  0  0  0  0  0  0  0  0
    8.6584   -8.2351    0.0000 C   0  0  0  0  0  0  0  0  0  0  0  0
    7.9440   -8.6476    0.0000 C   0  0  0  0  0  0  0  0  0  0  0  0
    8.6584   -7.4101    0.0000 C   0  0  0  0  0  0  0  0  0  0  0  0
    9.3259   -6.9252    0.0000 C   0  0  0  0  0  0  0  0  0  0  0  0
    9.0709   -6.1406    0.0000 O   0  0  0  0  0  0  0  0  0  0  0  0
    8.2459   -6.1406    0.0000 C   0  0  0  0  0  0  0  0  0  0  0  0
    7.9910   -6.9252    0.0000 C   0  0  0  0  0  0  0  0  0  0  0  0
   10.0874   -9.8851    0.0000 O   0  0  0  0  0  0  0  0  0  0  0  0
    8.6584   -9.0601    0.0000 H   0  0  0  0  0  0  0  0  0  0  0  0
    7.9440  -10.2976    0.0000 C   0  0  0  0  0  0  0  0  0  0  0  0
    7.2295   -9.0601    0.0000 H   0  0  0  0  0  0  0  0  0  0  0  0
    7.2295  -11.5351    0.0000 C   0  0  0  0  0  0  0  0  0  0  0  0
    6.5150  -10.2976    0.0000 O   0  0  0  0  0  0  0  0  0  0  0  0
    6.9275  -11.8371    0.0000 O   0  0  0  0  0  0  0  0  0  0  0  0
    5.8006  -11.5351    0.0000 C   0  0  0  0  0  0  0  0  0  0  0  0
    5.0861  -11.1226    0.0000 O   0  0  0  0  0  0  0  0  0  0  0  0
    6.5150  -12.5516    0.0000 C   0  0  2  0  0  0  0  0  0  0  0  0
    5.6900  -12.5516    0.0000 O   0  0  0  0  0  0  0  0  0  0  0  0
    5.2775  -13.2661    0.0000 C   0  0  1  0  0  0  0  0  0  0  0  0
    5.6900  -13.9805    0.0000 C   0  0  2  0  0  0  0  0  0  0  0  0
    6.5150  -13.9805    0.0000 C   0  0  1  0  0  0  0  0  0  0  0  0
    6.9275  -13.2661    0.0000 C   0  0  1  0  0  0  0  0  0  0  0  0
    4.4525  -13.2661    0.0000 C   0  0  0  0  0  0  0  0  0  0  0  0
    6.9275  -14.6950    0.0000 O   0  0  0  0  0  0  0  0  0  0  0  0
    5.2775  -14.6950    0.0000 O   0  0  0  0  0  0  0  0  0  0  0  0
    7.7525  -13.2661    0.0000 O   0  0  0  0  0  0  0  0  0  0  0  0
    4.0400  -13.9805    0.0000 O   0  0  0  0  0  0  0  0  0  0  0  0
  1  2  2  0  0  0  0
  2  3  1  0  0  0  0
  3  4  1  0  0  0  0
  4  5  1  0  0  0  0
  5  6  1  0  0  0  0
  6  1  1  0  0  0  0
  4  7  1  0  0  0  0
  7  8  1  0  0  0  0
  8  9  1  0  0  0  0
  9 10  1  0  0  0  0
 10  5  1  0  0  0  0
  9 11  1  0  0  0  0
 11 12  1  0  0  0  0
 12 13  1  0  0  0  0
 13 14  1  0  0  0  0
 14 10  1  0  0  0  0
 13 15  1  0  0  0  0
 15 16  2  0  0  0  0
 16 17  1  0  0  0  0
 17 18  1  0  0  0  0
 18 19  2  0  0  0  0
 19 15  1  0  0  0  0
 11 20  2  0  0  0  0
  9 21  1  0  0  0  0
 10 22  1  0  0  0  0
  5 23  1  0  0  0  0
  4 24  1  0  0  0  0
  6 25  1  0  0  0  0
  3 26  1  0  0  0  0
  3 27  1  0  0  0  0
 27 28  2  0  0  0  0
 27 25  1  0  0  0  0
 29 26  1  1  0  0  0
 29 30  1  0  0  0  0
 30 31  1  0  0  0  0
 31 32  1  0  0  0  0
 32 33  1  0  0  0  0
 33 34  1  0  0  0  0
 34 29  1  0  0  0  0
 31 35  1  1  0  0  0
 33 36  1  1  0  0  0
 32 37  1  6  0  0  0
 34 38  1  6  0  0  0
 35 39  1  0  0  0  0
M  END
>  <cdx:fragmentId>
5

$$$$
