91589.cdx
  Mrv1902 05222410232D          

 21 22  0  0  0  0            999 V2000
    7.5161   -9.0525    0.0000 C   0  0  1  0  0  0  0  0  0  0  0  0
    7.5301   -9.8773    0.0000 O   0  0  0  0  0  0  0  0  0  0  0  0
    6.8164  -10.2912    0.0000 C   0  0  2  0  0  0  0  0  0  0  0  0
    6.1011   -9.8800    0.0000 O   0  0  0  0  0  0  0  0  0  0  0  0
    5.3874  -10.2938    0.0000 C   0  0  1  0  0  0  0  0  0  0  0  0
    5.3890  -11.1188    0.0000 C   0  0  2  0  0  0  0  0  0  0  0  0
    6.1042  -11.5300    0.0000 C   0  0  1  0  0  0  0  0  0  0  0  0
    6.8179  -11.1162    0.0000 C   0  0  1  0  0  0  0  0  0  0  0  0
    4.6722   -9.8827    0.0000 C   0  0  0  0  0  0  0  0  0  0  0  0
    3.9585  -10.2965    0.0000 O   0  0  0  0  0  0  0  0  0  0  0  0
    6.1058  -12.3550    0.0000 O   0  0  0  0  0  0  0  0  0  0  0  0
    7.5332  -11.5273    0.0000 O   0  0  0  0  0  0  0  0  0  0  0  0
    4.6753  -11.5327    0.0000 O   0  0  0  0  0  0  0  0  0  0  0  0
    8.2235   -8.6279    0.0000 C   0  0  0  0  0  0  0  0  0  0  0  0
    6.7947   -8.6521    0.0000 C   0  0  0  0  0  0  0  0  0  0  0  0
    8.9448   -9.0282    0.0000 O   0  0  0  0  0  0  0  0  0  0  0  0
    6.7808   -7.8272    0.0000 C   0  0  0  0  0  0  0  0  0  0  0  0
    6.0594   -7.4269    0.0000 C   0  0  0  0  0  0  0  0  0  0  0  0
    5.3520   -7.8514    0.0000 C   0  0  0  0  0  0  0  0  0  0  0  0
    5.3660   -8.6763    0.0000 C   0  0  0  0  0  0  0  0  0  0  0  0
    6.0874   -9.0767    0.0000 C   0  0  0  0  0  0  0  0  0  0  0  0
  1  2  1  6  0  0  0
  3  2  1  1  0  0  0
  3  4  1  0  0  0  0
  4  5  1  0  0  0  0
  5  6  1  0  0  0  0
  6  7  1  0  0  0  0
  7  8  1  0  0  0  0
  8  3  1  0  0  0  0
  5  9  1  1  0  0  0
  9 10  1  0  0  0  0
  7 11  1  1  0  0  0
  8 12  1  6  0  0  0
  6 13  1  6  0  0  0
  1 14  1  0  0  0  0
  1 15  1  0  0  0  0
 14 16  1  0  0  0  0
 15 17  2  0  0  0  0
 17 18  1  0  0  0  0
 18 19  2  0  0  0  0
 19 20  1  0  0  0  0
 20 21  2  0  0  0  0
 21 15  1  0  0  0  0
M  END
>  <cdx:fragmentId>
5

$$$$
