91586.cdx
  Mrv1902 05222410242D          

 36 39  0  0  0  0            999 V2000
    7.1481   -9.4451    0.0000 C   0  0  0  0  0  0  0  0  0  0  0  0
    7.1481  -10.2701    0.0000 C   0  0  2  0  0  0  0  0  0  0  0  0
    7.8625  -10.6826    0.0000 C   0  0  2  0  0  0  0  0  0  0  0  0
    8.5770  -10.2701    0.0000 C   0  0  2  0  0  0  0  0  0  0  0  0
    8.5770   -9.4451    0.0000 C   0  0  1  0  0  0  0  0  0  0  0  0
    7.8625   -9.0326    0.0000 C   0  0  0  0  0  0  0  0  0  0  0  0
    9.2915  -10.6826    0.0000 C   0  0  0  0  0  0  0  0  0  0  0  0
   10.0059  -10.2701    0.0000 C   0  0  0  0  0  0  0  0  0  0  0  0
   10.0059   -9.4451    0.0000 C   0  0  0  0  0  0  0  0  0  0  0  0
    9.2915   -9.0326    0.0000 C   0  0  1  0  0  0  0  0  0  0  0  0
   10.7204   -9.0326    0.0000 C   0  0  0  0  0  0  0  0  0  0  0  0
   10.0059   -7.7951    0.0000 C   0  0  0  0  0  0  0  0  0  0  0  0
    9.2915   -8.2076    0.0000 C   0  0  0  0  0  0  0  0  0  0  0  0
   10.0059   -6.9701    0.0000 C   0  0  0  0  0  0  0  0  0  0  0  0
    9.2915   -6.5576    0.0000 C   0  0  0  0  0  0  0  0  0  0  0  0
   10.6190   -6.4181    0.0000 C   0  0  0  0  0  0  0  0  0  0  0  0
   10.2835   -5.6644    0.0000 O   0  0  0  0  0  0  0  0  0  0  0  0
    9.4630   -5.7507    0.0000 C   0  0  0  0  0  0  0  0  0  0  0  0
    6.4336  -10.6826    0.0000 O   0  0  0  0  0  0  0  0  0  0  0  0
    7.4500  -11.3971    0.0000 C   0  0  0  0  0  0  0  0  0  0  0  0
    6.6334  -12.8680    0.0000 O   0  0  0  0  0  0  0  0  0  0  0  0
    7.4581  -12.8446    0.0000 C   0  0  1  0  0  0  0  0  0  0  0  0
    7.8502  -12.1187    0.0000 O   0  0  0  0  0  0  0  0  0  0  0  0
    6.2413  -13.5938    0.0000 C   0  0  1  0  0  0  0  0  0  0  0  0
    6.6739  -14.2963    0.0000 C   0  0  2  0  0  0  0  0  0  0  0  0
    7.4985  -14.2730    0.0000 C   0  0  1  0  0  0  0  0  0  0  0  0
    7.8906  -13.5471    0.0000 C   0  0  1  0  0  0  0  0  0  0  0  0
   11.4260   -6.5896    0.0000 O   0  0  0  0  0  0  0  0  0  0  0  0
    5.4166  -13.6172    0.0000 C   0  0  0  0  0  0  0  0  0  0  0  0
    8.5770  -11.0951    0.0000 H   0  0  0  0  0  0  0  0  0  0  0  0
    8.2750  -11.3971    0.0000 C   0  0  0  0  0  0  0  0  0  0  0  0
    5.0245  -14.3431    0.0000 O   0  0  0  0  0  0  0  0  0  0  0  0
    7.9311  -14.9755    0.0000 O   0  0  0  0  0  0  0  0  0  0  0  0
    6.2818  -15.0222    0.0000 O   0  0  0  0  0  0  0  0  0  0  0  0
    8.5770   -8.6201    0.0000 C   0  0  0  0  0  0  0  0  0  0  0  0
    8.7153  -13.5237    0.0000 O   0  0  0  0  0  0  0  0  0  0  0  0
  1  2  1  0  0  0  0
  2  3  1  0  0  0  0
  3  4  1  0  0  0  0
  4  5  1  0  0  0  0
  5  6  1  0  0  0  0
  6  1  1  0  0  0  0
  4  7  1  0  0  0  0
  7  8  1  0  0  0  0
  8  9  1  0  0  0  0
  9 10  1  0  0  0  0
 10  5  1  0  0  0  0
  9 11  2  0  0  0  0
 12 13  1  0  0  0  0
 10 13  1  6  0  0  0
 12 14  1  0  0  0  0
 14 15  2  0  0  0  0
 14 16  1  0  0  0  0
 16 17  1  0  0  0  0
 17 18  1  0  0  0  0
 18 15  1  0  0  0  0
 20 23  1  0  0  0  0
  2 19  1  6  0  0  0
 21 22  1  0  0  0  0
 22 23  1  1  0  0  0
 21 24  1  0  0  0  0
 24 25  1  0  0  0  0
 25 26  1  0  0  0  0
 16 28  2  0  0  0  0
 26 27  1  0  0  0  0
 27 22  1  0  0  0  0
 24 29  1  1  0  0  0
  4 30  1  1  0  0  0
  3 31  1  1  0  0  0
 29 32  1  0  0  0  0
 26 33  1  1  0  0  0
 25 34  1  6  0  0  0
  5 35  1  6  0  0  0
  3 20  1  6  0  0  0
 27 36  1  6  0  0  0
M  END
>  <cdx:fragmentId>
5

$$$$
