91591.cdx
  Mrv1902 05222410232D          

 44 48  0  0  0  0            999 V2000
    3.1881   -8.1526    0.0000 C   0  0  0  0  0  0  0  0  0  0  0  0
    3.1881   -8.9776    0.0000 C   0  0  0  0  0  0  0  0  0  0  0  0
    3.9025   -9.3901    0.0000 C   0  0  0  0  0  0  0  0  0  0  0  0
    4.6170   -8.9776    0.0000 C   0  0  0  0  0  0  0  0  0  0  0  0
    4.6170   -8.1526    0.0000 C   0  0  0  0  0  0  0  0  0  0  0  0
    3.9025   -7.7401    0.0000 C   0  0  0  0  0  0  0  0  0  0  0  0
    5.3315   -9.3901    0.0000 C   0  0  0  0  0  0  0  0  0  0  0  0
    6.0459   -8.9776    0.0000 C   0  0  0  0  0  0  0  0  0  0  0  0
    6.0459   -8.1526    0.0000 C   0  0  0  0  0  0  0  0  0  0  0  0
    5.3315   -7.7401    0.0000 O   0  0  0  0  0  0  0  0  0  0  0  0
    6.7604   -9.3901    0.0000 O   0  0  0  0  0  0  0  0  0  0  0  0
    7.4749   -8.1526    0.0000 C   0  0  0  0  0  0  0  0  0  0  0  0
    6.7604   -7.7401    0.0000 C   0  0  0  0  0  0  0  0  0  0  0  0
    8.1894   -7.7401    0.0000 C   0  0  0  0  0  0  0  0  0  0  0  0
    8.1894   -6.9151    0.0000 C   0  0  0  0  0  0  0  0  0  0  0  0
    7.4749   -6.5026    0.0000 C   0  0  0  0  0  0  0  0  0  0  0  0
    6.7604   -6.9151    0.0000 C   0  0  0  0  0  0  0  0  0  0  0  0
    2.4736   -7.7401    0.0000 O   0  0  0  0  0  0  0  0  0  0  0  0
    3.9025  -10.2151    0.0000 O   0  0  0  0  0  0  0  0  0  0  0  0
    5.3315  -10.2151    0.0000 O   0  0  0  0  0  0  0  0  0  0  0  0
    8.9038   -6.5026    0.0000 O   0  0  0  0  0  0  0  0  0  0  0  0
    7.4749   -5.6776    0.0000 O   0  0  0  0  0  0  0  0  0  0  0  0
    6.0557  -11.4564    0.0000 C   0  0  2  0  0  0  0  0  0  0  0  0
    6.7706  -11.8680    0.0000 C   0  0  2  0  0  0  0  0  0  0  0  0
    7.4846  -11.4546    0.0000 C   0  0  1  0  0  0  0  0  0  0  0  0
    7.4836  -10.6296    0.0000 C   0  0  2  0  0  0  0  0  0  0  0  0
    6.7686  -10.2180    0.0000 C   0  0  1  0  0  0  0  0  0  0  0  0
    6.0547  -10.6314    0.0000 O   0  0  0  0  0  0  0  0  0  0  0  0
    8.1996  -11.8663    0.0000 O   0  0  0  0  0  0  0  0  0  0  0  0
    6.7716  -12.6930    0.0000 O   0  0  0  0  0  0  0  0  0  0  0  0
    5.3417  -11.8697    0.0000 C   0  0  0  0  0  0  0  0  0  0  0  0
    5.3427  -12.6947    0.0000 O   0  0  0  0  0  0  0  0  0  0  0  0
   10.3382   -8.1509    0.0000 O   0  0  0  0  0  0  0  0  0  0  0  0
   11.7683   -8.9740    0.0000 O   0  0  0  0  0  0  0  0  0  0  0  0
   11.7705  -10.6240    0.0000 O   0  0  0  0  0  0  0  0  0  0  0  0
   10.3416  -10.6259    0.0000 C   0  0  0  0  0  0  0  0  0  0  0  0
   11.0555  -10.2124    0.0000 C   0  0  0  0  0  0  0  0  0  0  0  0
   11.0544   -9.3874    0.0000 C   0  0  0  0  0  0  0  0  0  0  0  0
   10.3393   -8.9759    0.0000 C   0  0  0  0  0  0  0  0  0  0  0  0
    9.6254   -9.3893    0.0000 C   0  0  0  0  0  0  0  0  0  0  0  0
    8.9137  -11.4528    0.0000 O   0  0  0  0  0  0  0  0  0  0  0  0
    9.6265  -10.2143    0.0000 C   0  0  0  0  0  0  0  0  0  0  0  0
    8.9126  -10.6278    0.0000 C   0  0  0  0  0  0  0  0  0  0  0  0
    8.1976  -10.2163    0.0000 O   0  0  0  0  0  0  0  0  0  0  0  0
  1  2  1  0  0  0  0
  2  3  2  0  0  0  0
  3  4  1  0  0  0  0
  4  5  2  0  0  0  0
  5  6  1  0  0  0  0
  6  1  2  0  0  0  0
  4  7  1  0  0  0  0
  7  8  1  0  0  0  0
  8  9  2  0  0  0  0
  9 10  1  0  0  0  0
 10  5  1  0  0  0  0
  8 11  1  0  0  0  0
 12 13  2  0  0  0  0
 13  9  1  0  0  0  0
 12 14  1  0  0  0  0
 14 15  2  0  0  0  0
 15 16  1  0  0  0  0
 16 17  2  0  0  0  0
 17 13  1  0  0  0  0
  1 18  1  0  0  0  0
  3 19  1  0  0  0  0
  7 20  2  0  0  0  0
 15 21  1  0  0  0  0
 16 22  1  0  0  0  0
 23 24  1  0  0  0  0
 24 25  1  0  0  0  0
 25 26  1  0  0  0  0
 26 27  1  0  0  0  0
 27 28  1  0  0  0  0
 28 23  1  0  0  0  0
 25 29  1  1  0  0  0
 24 30  1  6  0  0  0
 23 31  1  1  0  0  0
 39 33  1  0  0  0  0
 26 44  1  6  0  0  0
 31 32  1  0  0  0  0
 27 11  1  1  0  0  0
 38 34  1  0  0  0  0
 37 35  1  0  0  0  0
 36 42  1  0  0  0  0
 37 36  2  0  0  0  0
 38 37  1  0  0  0  0
 39 38  2  0  0  0  0
 40 39  1  0  0  0  0
 42 40  2  0  0  0  0
 43 41  2  0  0  0  0
 43 42  1  0  0  0  0
 44 43  1  0  0  0  0
M  END
>  <cdx:fragmentId>
5

$$$$
