91596.cdx
  Mrv1902 05222410252D          

 51 55  0  0  0  0            999 V2000
    7.8406   -8.9250    0.0000 C   0  0  0  0  0  0  0  0  0  0  0  0
    8.5545   -9.3386    0.0000 C   0  0  0  0  0  0  0  0  0  0  0  0
    9.2695   -8.9271    0.0000 C   0  0  0  0  0  0  0  0  0  0  0  0
    9.2707   -8.1021    0.0000 C   0  0  0  0  0  0  0  0  0  0  0  0
    8.5568   -7.6886    0.0000 C   0  0  0  0  0  0  0  0  0  0  0  0
    7.8418   -8.1000    0.0000 C   0  0  0  0  0  0  0  0  0  0  0  0
    9.9834   -9.3406    0.0000 C   0  0  0  0  0  0  0  0  0  0  0  0
   10.6985   -8.9291    0.0000 C   0  0  0  0  0  0  0  0  0  0  0  0
   10.6997   -8.1041    0.0000 C   0  0  0  0  0  0  0  0  0  0  0  0
    9.9858   -7.6906    0.0000 O   0  0  0  0  0  0  0  0  0  0  0  0
   11.4124   -9.3427    0.0000 O   0  0  0  0  0  0  0  0  0  0  0  0
   12.1286   -8.1062    0.0000 C   0  0  0  0  0  0  0  0  0  0  0  0
   11.4147   -7.6927    0.0000 C   0  0  0  0  0  0  0  0  0  0  0  0
   12.8437   -7.6947    0.0000 C   0  0  0  0  0  0  0  0  0  0  0  0
   12.8449   -6.8697    0.0000 C   0  0  0  0  0  0  0  0  0  0  0  0
   12.1310   -6.4562    0.0000 C   0  0  0  0  0  0  0  0  0  0  0  0
   11.4159   -6.8677    0.0000 C   0  0  0  0  0  0  0  0  0  0  0  0
    9.9822  -10.1656    0.0000 O   0  0  0  0  0  0  0  0  0  0  0  0
   10.6961  -10.5791    0.0000 O   0  0  0  0  0  0  0  0  0  0  0  0
   11.4112  -10.1677    0.0000 C   0  0  2  0  0  0  0  0  0  0  0  0
   10.6949  -11.4041    0.0000 C   0  0  1  0  0  0  0  0  0  0  0  0
   11.4088  -11.8177    0.0000 C   0  0  2  0  0  0  0  0  0  0  0  0
   12.1239  -11.4062    0.0000 C   0  0  1  0  0  0  0  0  0  0  0  0
   12.1251  -10.5812    0.0000 C   0  0  1  0  0  0  0  0  0  0  0  0
    9.9799  -11.8156    0.0000 C   0  0  0  0  0  0  0  0  0  0  0  0
    9.9787  -12.6406    0.0000 O   0  0  0  0  0  0  0  0  0  0  0  0
   11.4076  -12.6427    0.0000 O   0  0  0  0  0  0  0  0  0  0  0  0
    8.5533  -10.1636    0.0000 O   0  0  0  0  0  0  0  0  0  0  0  0
    7.1279   -7.6865    0.0000 O   0  0  0  0  0  0  0  0  0  0  0  0
   13.5599   -6.4582    0.0000 O   0  0  0  0  0  0  0  0  0  0  0  0
   12.1322   -5.6312    0.0000 O   0  0  0  0  0  0  0  0  0  0  0  0
    9.2660  -11.4021    0.0000 O   0  0  0  0  0  0  0  0  0  0  0  0
   12.8377  -11.8197    0.0000 O   0  0  0  0  0  0  0  0  0  0  0  0
   12.8401  -10.1697    0.0000 O   0  0  0  0  0  0  0  0  0  0  0  0
    6.4128   -8.0980    0.0000 C   0  0  2  0  0  0  0  0  0  0  0  0
    5.6990   -7.6845    0.0000 O   0  0  0  0  0  0  0  0  0  0  0  0
    4.9839   -8.0959    0.0000 C   0  0  1  0  0  0  0  0  0  0  0  0
    4.9827   -8.9209    0.0000 C   0  0  2  0  0  0  0  0  0  0  0  0
    5.6966   -9.3345    0.0000 C   0  0  1  0  0  0  0  0  0  0  0  0
    6.4117   -8.9230    0.0000 C   0  0  1  0  0  0  0  0  0  0  0  0
    4.2700   -7.6824    0.0000 C   0  0  0  0  0  0  0  0  0  0  0  0
    5.6954  -10.1595    0.0000 O   0  0  0  0  0  0  0  0  0  0  0  0
    7.1255   -9.3365    0.0000 O   0  0  0  0  0  0  0  0  0  0  0  0
    4.2677   -9.3324    0.0000 O   0  0  0  0  0  0  0  0  0  0  0  0
    3.5550   -8.0939    0.0000 O   0  0  0  0  0  0  0  0  0  0  0  0
    2.8411   -7.6804    0.0000 C   0  0  0  0  0  0  0  0  0  0  0  0
    2.1260   -8.0918    0.0000 C   0  0  0  0  0  0  0  0  0  0  0  0
    1.4121   -7.6783    0.0000 C   0  0  0  0  0  0  0  0  0  0  0  0
    0.6971   -8.0898    0.0000 O   0  0  0  0  0  0  0  0  0  0  0  0
    2.8423   -6.8554    0.0000 O   0  0  0  0  0  0  0  0  0  0  0  0
    1.4133   -6.8533    0.0000 O   0  0  0  0  0  0  0  0  0  0  0  0
  1  2  1  0  0  0  0
  2  3  2  0  0  0  0
  3  4  1  0  0  0  0
  4  5  2  0  0  0  0
  5  6  1  0  0  0  0
  6  1  2  0  0  0  0
  3  7  1  0  0  0  0
  7  8  1  0  0  0  0
  8  9  2  0  0  0  0
  9 10  1  0  0  0  0
 10  4  1  0  0  0  0
  8 11  1  0  0  0  0
 12 13  1  0  0  0  0
 13  9  1  0  0  0  0
 12 14  2  0  0  0  0
 14 15  1  0  0  0  0
 15 16  2  0  0  0  0
 16 17  1  0  0  0  0
 17 13  2  0  0  0  0
  7 18  2  0  0  0  0
 19 20  1  0  0  0  0
 20 11  1  1  0  0  0
 19 21  1  0  0  0  0
 21 22  1  0  0  0  0
 22 23  1  0  0  0  0
 23 24  1  0  0  0  0
 24 20  1  0  0  0  0
 21 25  1  1  0  0  0
 25 26  1  0  0  0  0
 22 27  1  6  0  0  0
  2 28  1  0  0  0  0
  6 29  1  0  0  0  0
 15 30  1  0  0  0  0
 16 31  1  0  0  0  0
 25 32  2  0  0  0  0
 23 33  1  1  0  0  0
 24 34  1  6  0  0  0
 35 29  1  1  0  0  0
 35 36  1  0  0  0  0
 36 37  1  0  0  0  0
 37 38  1  0  0  0  0
 38 39  1  0  0  0  0
 39 40  1  0  0  0  0
 40 35  1  0  0  0  0
 37 41  1  1  0  0  0
 39 42  1  1  0  0  0
 40 43  1  6  0  0  0
 38 44  1  6  0  0  0
 41 45  1  0  0  0  0
 45 46  1  0  0  0  0
 46 47  1  0  0  0  0
 47 48  1  0  0  0  0
 48 49  1  0  0  0  0
 46 50  2  0  0  0  0
 48 51  2  0  0  0  0
M  END
>  <cdx:fragmentId>
5

$$$$
