91592.cdx
  Mrv1902 05222410242D          

 44 48  0  0  0  0            999 V2000
    4.4118   -7.1076    0.0000 C   0  0  0  0  0  0  0  0  0  0  0  0
    4.4118   -7.9326    0.0000 C   0  0  0  0  0  0  0  0  0  0  0  0
    5.1263   -8.3451    0.0000 C   0  0  0  0  0  0  0  0  0  0  0  0
    5.8407   -7.9326    0.0000 C   0  0  0  0  0  0  0  0  0  0  0  0
    5.8407   -7.1076    0.0000 C   0  0  0  0  0  0  0  0  0  0  0  0
    5.1263   -6.6951    0.0000 C   0  0  0  0  0  0  0  0  0  0  0  0
    6.5552   -8.3451    0.0000 C   0  0  0  0  0  0  0  0  0  0  0  0
    7.2697   -7.9326    0.0000 C   0  0  0  0  0  0  0  0  0  0  0  0
    7.2697   -7.1076    0.0000 C   0  0  0  0  0  0  0  0  0  0  0  0
    6.5552   -6.6951    0.0000 O   0  0  0  0  0  0  0  0  0  0  0  0
    7.9842   -8.3451    0.0000 O   0  0  0  0  0  0  0  0  0  0  0  0
    8.6986   -7.1076    0.0000 C   0  0  0  0  0  0  0  0  0  0  0  0
    7.9842   -6.6951    0.0000 C   0  0  0  0  0  0  0  0  0  0  0  0
    9.4131   -6.6951    0.0000 C   0  0  0  0  0  0  0  0  0  0  0  0
    9.4131   -5.8701    0.0000 C   0  0  0  0  0  0  0  0  0  0  0  0
    8.6986   -5.4576    0.0000 C   0  0  0  0  0  0  0  0  0  0  0  0
    7.9842   -5.8701    0.0000 C   0  0  0  0  0  0  0  0  0  0  0  0
    3.6973   -6.6951    0.0000 O   0  0  0  0  0  0  0  0  0  0  0  0
    5.1263   -9.1701    0.0000 O   0  0  0  0  0  0  0  0  0  0  0  0
    6.5552   -9.1701    0.0000 O   0  0  0  0  0  0  0  0  0  0  0  0
   10.1276   -5.4576    0.0000 O   0  0  0  0  0  0  0  0  0  0  0  0
    8.6986   -4.6326    0.0000 O   0  0  0  0  0  0  0  0  0  0  0  0
    7.2794  -10.4114    0.0000 C   0  0  2  0  0  0  0  0  0  0  0  0
    7.9944  -10.8230    0.0000 C   0  0  2  0  0  0  0  0  0  0  0  0
    8.7084  -10.4096    0.0000 C   0  0  1  0  0  0  0  0  0  0  0  0
    8.7074   -9.5846    0.0000 C   0  0  2  0  0  0  0  0  0  0  0  0
    7.9924   -9.1730    0.0000 C   0  0  1  0  0  0  0  0  0  0  0  0
    7.2784   -9.5864    0.0000 O   0  0  0  0  0  0  0  0  0  0  0  0
    9.4233  -10.8213    0.0000 O   0  0  0  0  0  0  0  0  0  0  0  0
    7.9954  -11.6480    0.0000 O   0  0  0  0  0  0  0  0  0  0  0  0
    6.5655  -10.8247    0.0000 C   0  0  0  0  0  0  0  0  0  0  0  0
    9.4213   -9.1713    0.0000 O   0  0  0  0  0  0  0  0  0  0  0  0
    6.5665  -11.6497    0.0000 O   0  0  0  0  0  0  0  0  0  0  0  0
    5.8525  -12.0631    0.0000 C   0  0  0  0  0  0  0  0  0  0  0  0
    5.8535  -12.8881    0.0000 C   0  0  0  0  0  0  0  0  0  0  0  0
    5.1375  -11.6515    0.0000 O   0  0  0  0  0  0  0  0  0  0  0  0
    5.1395  -13.3015    0.0000 C   0  0  0  0  0  0  0  0  0  0  0  0
    5.1405  -14.1265    0.0000 C   0  0  0  0  0  0  0  0  0  0  0  0
    4.4258  -14.5385    0.0000 C   0  0  0  0  0  0  0  0  0  0  0  0
    4.4258  -15.3635    0.0000 C   0  0  0  0  0  0  0  0  0  0  0  0
    5.1405  -15.7765    0.0000 C   0  0  0  0  0  0  0  0  0  0  0  0
    5.8552  -15.3635    0.0000 C   0  0  0  0  0  0  0  0  0  0  0  0
    5.8552  -14.5385    0.0000 C   0  0  0  0  0  0  0  0  0  0  0  0
    5.1405  -16.6015    0.0000 O   0  0  0  0  0  0  0  0  0  0  0  0
  1  2  1  0  0  0  0
  2  3  2  0  0  0  0
  3  4  1  0  0  0  0
  4  5  2  0  0  0  0
  5  6  1  0  0  0  0
  6  1  2  0  0  0  0
  4  7  1  0  0  0  0
  7  8  1  0  0  0  0
  8  9  2  0  0  0  0
  9 10  1  0  0  0  0
 10  5  1  0  0  0  0
  8 11  1  0  0  0  0
 12 13  2  0  0  0  0
 13  9  1  0  0  0  0
 12 14  1  0  0  0  0
 14 15  2  0  0  0  0
 15 16  1  0  0  0  0
 16 17  2  0  0  0  0
 17 13  1  0  0  0  0
  1 18  1  0  0  0  0
  3 19  1  0  0  0  0
  7 20  2  0  0  0  0
 15 21  1  0  0  0  0
 16 22  1  0  0  0  0
 23 24  1  0  0  0  0
 24 25  1  0  0  0  0
 25 26  1  0  0  0  0
 26 27  1  0  0  0  0
 27 28  1  0  0  0  0
 28 23  1  0  0  0  0
 25 29  1  1  0  0  0
 24 30  1  6  0  0  0
 23 31  1  1  0  0  0
 26 32  1  6  0  0  0
 31 33  1  0  0  0  0
 27 11  1  1  0  0  0
 33 34  1  0  0  0  0
 34 35  1  0  0  0  0
 34 36  2  0  0  0  0
 35 37  2  0  0  0  0
 37 38  1  0  0  0  0
 38 39  2  0  0  0  0
 39 40  1  0  0  0  0
 40 41  2  0  0  0  0
 41 42  1  0  0  0  0
 42 43  2  0  0  0  0
 43 38  1  0  0  0  0
 41 44  1  0  0  0  0
M  END
>  <cdx:fragmentId>
5

$$$$
