91594.cdx
  Mrv1902 05222410252D          

 44 48  0  0  0  0            999 V2000
    3.7793   -8.0564    0.0000 C   0  0  0  0  0  0  0  0  0  0  0  0
    3.7793   -8.8814    0.0000 C   0  0  0  0  0  0  0  0  0  0  0  0
    4.4938   -9.2939    0.0000 C   0  0  0  0  0  0  0  0  0  0  0  0
    5.2082   -8.8814    0.0000 C   0  0  0  0  0  0  0  0  0  0  0  0
    5.2082   -8.0564    0.0000 C   0  0  0  0  0  0  0  0  0  0  0  0
    4.4938   -7.6439    0.0000 C   0  0  0  0  0  0  0  0  0  0  0  0
    5.9227   -9.2939    0.0000 C   0  0  0  0  0  0  0  0  0  0  0  0
    6.6372   -8.8814    0.0000 C   0  0  0  0  0  0  0  0  0  0  0  0
    6.6372   -8.0564    0.0000 C   0  0  0  0  0  0  0  0  0  0  0  0
    5.9227   -7.6439    0.0000 O   0  0  0  0  0  0  0  0  0  0  0  0
    4.4938  -10.1189    0.0000 O   0  0  0  0  0  0  0  0  0  0  0  0
    5.9227  -10.1189    0.0000 O   0  0  0  0  0  0  0  0  0  0  0  0
    7.3517   -9.2939    0.0000 O   0  0  0  0  0  0  0  0  0  0  0  0
    8.0661   -8.0564    0.0000 C   0  0  0  0  0  0  0  0  0  0  0  0
    7.3517   -7.6439    0.0000 C   0  0  0  0  0  0  0  0  0  0  0  0
    8.7806   -7.6439    0.0000 C   0  0  0  0  0  0  0  0  0  0  0  0
    8.7806   -6.8189    0.0000 C   0  0  0  0  0  0  0  0  0  0  0  0
    8.0661   -6.4064    0.0000 C   0  0  0  0  0  0  0  0  0  0  0  0
    7.3517   -6.8189    0.0000 C   0  0  0  0  0  0  0  0  0  0  0  0
    9.4951   -6.4064    0.0000 O   0  0  0  0  0  0  0  0  0  0  0  0
    8.0661   -5.5814    0.0000 O   0  0  0  0  0  0  0  0  0  0  0  0
    6.6372  -10.5314    0.0000 O   0  0  0  0  0  0  0  0  0  0  0  0
    7.3517  -10.1189    0.0000 C   0  0  2  0  0  0  0  0  0  0  0  0
    6.6372  -11.3564    0.0000 C   0  0  1  0  0  0  0  0  0  0  0  0
    7.3517  -11.7689    0.0000 C   0  0  2  0  0  0  0  0  0  0  0  0
    8.0661  -11.3564    0.0000 C   0  0  1  0  0  0  0  0  0  0  0  0
    8.0661  -10.5314    0.0000 C   0  0  1  0  0  0  0  0  0  0  0  0
    5.9227  -11.7689    0.0000 C   0  0  0  0  0  0  0  0  0  0  0  0
    5.9227  -12.5939    0.0000 O   0  0  0  0  0  0  0  0  0  0  0  0
    7.3517  -12.5939    0.0000 O   0  0  0  0  0  0  0  0  0  0  0  0
    4.4938  -12.5939    0.0000 O   0  0  0  0  0  0  0  0  0  0  0  0
    5.2082  -13.0064    0.0000 C   0  0  2  0  0  0  0  0  0  0  0  0
    3.7793  -13.0064    0.0000 C   0  0  1  0  0  0  0  0  0  0  0  0
    3.7793  -13.8314    0.0000 C   0  0  1  0  0  0  0  0  0  0  0  0
    4.4938  -14.2439    0.0000 C   0  0  1  0  0  0  0  0  0  0  0  0
    5.2082  -13.8314    0.0000 C   0  0  1  0  0  0  0  0  0  0  0  0
    2.3504  -13.0064    0.0000 O   0  0  0  0  0  0  0  0  0  0  0  0
    3.0648  -12.5939    0.0000 C   0  0  0  0  0  0  0  0  0  0  0  0
    3.0648   -7.6439    0.0000 O   0  0  0  0  0  0  0  0  0  0  0  0
    3.0648  -14.2439    0.0000 O   0  0  0  0  0  0  0  0  0  0  0  0
    4.4938  -15.0689    0.0000 O   0  0  0  0  0  0  0  0  0  0  0  0
    8.7806  -10.1189    0.0000 O   0  0  0  0  0  0  0  0  0  0  0  0
    8.7806  -11.7689    0.0000 O   0  0  0  0  0  0  0  0  0  0  0  0
    5.9227  -14.2439    0.0000 O   0  0  0  0  0  0  0  0  0  0  0  0
  1  2  2  0  0  0  0
  2  3  1  0  0  0  0
  3  4  2  0  0  0  0
  4  5  1  0  0  0  0
  5  6  2  0  0  0  0
  6  1  1  0  0  0  0
  4  7  1  0  0  0  0
  7  8  1  0  0  0  0
  8  9  2  0  0  0  0
  9 10  1  0  0  0  0
 10  5  1  0  0  0  0
  3 11  1  0  0  0  0
 12  7  2  0  0  0  0
  8 13  1  0  0  0  0
 14 15  1  0  0  0  0
 15  9  1  0  0  0  0
 14 16  2  0  0  0  0
 16 17  1  0  0  0  0
 17 18  2  0  0  0  0
 18 19  1  0  0  0  0
 19 15  2  0  0  0  0
 17 20  1  0  0  0  0
 21 18  1  0  0  0  0
 22 23  1  0  0  0  0
 23 13  1  1  0  0  0
 22 24  1  0  0  0  0
 24 25  1  0  0  0  0
 25 26  1  0  0  0  0
 26 27  1  0  0  0  0
 27 23  1  0  0  0  0
 24 28  1  1  0  0  0
 28 29  1  0  0  0  0
 25 30  1  6  0  0  0
 31 32  1  0  0  0  0
 32 29  1  1  0  0  0
 31 33  1  0  0  0  0
 33 34  1  0  0  0  0
 34 35  1  0  0  0  0
 35 36  1  0  0  0  0
 36 32  1  0  0  0  0
 37 38  1  0  0  0  0
 33 38  1  1  0  0  0
  1 39  1  0  0  0  0
 34 40  1  1  0  0  0
 35 41  1  1  0  0  0
 27 42  1  6  0  0  0
 26 43  1  1  0  0  0
 36 44  1  6  0  0  0
M  END
>  <cdx:fragmentId>
5

$$$$
