91597.cdx
  Mrv1902 05222410252D          

 31 34  0  0  0  0            999 V2000
    5.0038   -7.6454    0.0000 C   0  0  0  0  0  0  0  0  0  0  0  0
    5.7181   -8.0582    0.0000 C   0  0  0  0  0  0  0  0  0  0  0  0
    6.4327   -7.6461    0.0000 C   0  0  0  0  0  0  0  0  0  0  0  0
    6.4332   -6.8211    0.0000 C   0  0  0  0  0  0  0  0  0  0  0  0
    5.7189   -6.4082    0.0000 C   0  0  0  0  0  0  0  0  0  0  0  0
    5.0042   -6.8204    0.0000 C   0  0  0  0  0  0  0  0  0  0  0  0
    7.1470   -8.0590    0.0000 C   0  0  0  0  0  0  0  0  0  0  0  0
    7.8617   -7.6468    0.0000 C   0  0  0  0  0  0  0  0  0  0  0  0
    7.8621   -6.8218    0.0000 C   0  0  0  0  0  0  0  0  0  0  0  0
    7.1478   -6.4090    0.0000 O   0  0  0  0  0  0  0  0  0  0  0  0
    8.5760   -8.0597    0.0000 O   0  0  0  0  0  0  0  0  0  0  0  0
    9.2910   -6.8225    0.0000 C   0  0  0  0  0  0  0  0  0  0  0  0
    8.5768   -6.4097    0.0000 C   0  0  0  0  0  0  0  0  0  0  0  0
   10.0057   -6.4104    0.0000 C   0  0  0  0  0  0  0  0  0  0  0  0
   10.0061   -5.5854    0.0000 C   0  0  0  0  0  0  0  0  0  0  0  0
    9.2919   -5.1725    0.0000 C   0  0  0  0  0  0  0  0  0  0  0  0
    8.5772   -5.5847    0.0000 C   0  0  0  0  0  0  0  0  0  0  0  0
    7.1466   -8.8840    0.0000 O   0  0  0  0  0  0  0  0  0  0  0  0
    8.5755   -8.8847    0.0000 C   0  0  1  0  0  0  0  0  0  0  0  0
    5.7177   -8.8832    0.0000 O   0  0  0  0  0  0  0  0  0  0  0  0
    4.2900   -6.4075    0.0000 O   0  0  0  0  0  0  0  0  0  0  0  0
   10.7208   -5.1732    0.0000 O   0  0  0  0  0  0  0  0  0  0  0  0
    9.2923   -4.3475    0.0000 O   0  0  0  0  0  0  0  0  0  0  0  0
    7.9079   -9.3693    0.0000 O   0  0  0  0  0  0  0  0  0  0  0  0
    8.1624  -10.1540    0.0000 C   0  0  2  0  0  0  0  0  0  0  0  0
    8.9874  -10.1544    0.0000 C   0  0  1  0  0  0  0  0  0  0  0  0
    9.2427   -9.3699    0.0000 C   0  0  1  0  0  0  0  0  0  0  0  0
    7.6772  -10.8212    0.0000 C   0  0  0  0  0  0  0  0  0  0  0  0
   10.0275   -9.1154    0.0000 O   0  0  0  0  0  0  0  0  0  0  0  0
    9.4720  -10.8221    0.0000 O   0  0  0  0  0  0  0  0  0  0  0  0
    8.0123  -11.5751    0.0000 O   0  0  0  0  0  0  0  0  0  0  0  0
  1  2  1  0  0  0  0
  2  3  2  0  0  0  0
  3  4  1  0  0  0  0
  4  5  2  0  0  0  0
  5  6  1  0  0  0  0
  6  1  2  0  0  0  0
  3  7  1  0  0  0  0
  7  8  1  0  0  0  0
  8  9  2  0  0  0  0
  9 10  1  0  0  0  0
 10  4  1  0  0  0  0
  8 11  1  0  0  0  0
 12 13  1  0  0  0  0
 13  9  1  0  0  0  0
 12 14  2  0  0  0  0
 14 15  1  0  0  0  0
 15 16  2  0  0  0  0
 16 17  1  0  0  0  0
 17 13  2  0  0  0  0
  7 18  2  0  0  0  0
 19 11  1  6  0  0  0
  2 20  1  0  0  0  0
  6 21  1  0  0  0  0
 15 22  1  0  0  0  0
 16 23  1  0  0  0  0
 19 24  1  0  0  0  0
 24 25  1  0  0  0  0
 25 26  1  0  0  0  0
 26 27  1  0  0  0  0
 27 19  1  0  0  0  0
 25 28  1  6  0  0  0
 27 29  1  6  0  0  0
 26 30  1  1  0  0  0
 28 31  1  0  0  0  0
M  END
>  <cdx:fragmentId>
5

$$$$
