91609.cdx
  Mrv1902 05222410252D          

 53 58  0  0  0  0            999 V2000
    5.7318   -5.6914    0.0000 C   0  0  0  0  0  0  0  0  0  0  0  0
    5.7318   -6.5164    0.0000 C   0  0  0  0  0  0  0  0  0  0  0  0
    6.4463   -6.9289    0.0000 C   0  0  0  0  0  0  0  0  0  0  0  0
    7.1607   -6.5164    0.0000 C   0  0  0  0  0  0  0  0  0  0  0  0
    7.1607   -5.6914    0.0000 C   0  0  0  0  0  0  0  0  0  0  0  0
    6.4463   -5.2789    0.0000 C   0  0  0  0  0  0  0  0  0  0  0  0
    7.8752   -6.9289    0.0000 C   0  0  0  0  0  0  0  0  0  0  0  0
    8.5897   -6.5164    0.0000 C   0  0  0  0  0  0  0  0  0  0  0  0
    8.5897   -5.6914    0.0000 C   0  0  0  0  0  0  0  0  0  0  0  0
    7.8752   -5.2789    0.0000 O   0  0  0  0  0  0  0  0  0  0  0  0
    6.4463   -7.7539    0.0000 O   0  0  0  0  0  0  0  0  0  0  0  0
    7.8752   -7.7539    0.0000 O   0  0  0  0  0  0  0  0  0  0  0  0
    9.3042   -6.9289    0.0000 O   0  0  0  0  0  0  0  0  0  0  0  0
   10.0186   -5.6914    0.0000 C   0  0  0  0  0  0  0  0  0  0  0  0
    9.3042   -5.2789    0.0000 C   0  0  0  0  0  0  0  0  0  0  0  0
   10.7331   -5.2789    0.0000 C   0  0  0  0  0  0  0  0  0  0  0  0
   10.7331   -4.4539    0.0000 C   0  0  0  0  0  0  0  0  0  0  0  0
   10.0186   -4.0414    0.0000 C   0  0  0  0  0  0  0  0  0  0  0  0
    9.3042   -4.4539    0.0000 C   0  0  0  0  0  0  0  0  0  0  0  0
   11.4476   -4.0414    0.0000 O   0  0  0  0  0  0  0  0  0  0  0  0
   10.0186   -3.2164    0.0000 O   0  0  0  0  0  0  0  0  0  0  0  0
    8.5897   -8.1664    0.0000 O   0  0  0  0  0  0  0  0  0  0  0  0
    9.3042   -7.7539    0.0000 C   0  0  2  0  0  0  0  0  0  0  0  0
    8.5897   -8.9914    0.0000 C   0  0  1  0  0  0  0  0  0  0  0  0
    9.3042   -9.4039    0.0000 C   0  0  2  0  0  0  0  0  0  0  0  0
   10.0186   -8.9914    0.0000 C   0  0  1  0  0  0  0  0  0  0  0  0
   10.0186   -8.1664    0.0000 C   0  0  1  0  0  0  0  0  0  0  0  0
    7.8752   -9.4039    0.0000 C   0  0  0  0  0  0  0  0  0  0  0  0
    7.8752  -10.2289    0.0000 O   0  0  0  0  0  0  0  0  0  0  0  0
    9.3042  -10.2289    0.0000 O   0  0  0  0  0  0  0  0  0  0  0  0
    6.4463  -10.2289    0.0000 O   0  0  0  0  0  0  0  0  0  0  0  0
    7.1607  -10.6414    0.0000 C   0  0  2  0  0  0  0  0  0  0  0  0
    5.7318  -10.6414    0.0000 C   0  0  2  0  0  0  0  0  0  0  0  0
    5.7318  -11.4664    0.0000 C   0  0  1  0  0  0  0  0  0  0  0  0
    6.4463  -11.8789    0.0000 C   0  0  2  0  0  0  0  0  0  0  0  0
    7.1607  -11.4664    0.0000 C   0  0  1  0  0  0  0  0  0  0  0  0
    5.0173   -5.2789    0.0000 O   0  0  0  0  0  0  0  0  0  0  0  0
   10.7331   -9.4039    0.0000 O   0  0  0  0  0  0  0  0  0  0  0  0
    5.0173  -11.8789    0.0000 O   0  0  0  0  0  0  0  0  0  0  0  0
    5.0173  -10.2289    0.0000 C   0  0  0  0  0  0  0  0  0  0  0  0
    6.4463  -12.7039    0.0000 O   0  0  0  0  0  0  0  0  0  0  0  0
    7.8752  -11.8789    0.0000 O   0  0  0  0  0  0  0  0  0  0  0  0
   10.7331   -7.7539    0.0000 O   0  0  0  0  0  0  0  0  0  0  0  0
    4.3090  -11.4560    0.0000 C   0  0  2  0  0  0  0  0  0  0  0  0
    4.3211  -10.6311    0.0000 O   0  0  0  0  0  0  0  0  0  0  0  0
    3.6127  -10.2081    0.0000 C   0  0  2  0  0  0  0  0  0  0  0  0
    2.8923  -10.6101    0.0000 C   0  0  1  0  0  0  0  0  0  0  0  0
    2.8802  -11.4350    0.0000 C   0  0  2  0  0  0  0  0  0  0  0  0
    3.5885  -11.8580    0.0000 C   0  0  1  0  0  0  0  0  0  0  0  0
    2.1839  -10.1872    0.0000 O   0  0  0  0  0  0  0  0  0  0  0  0
    3.6248   -9.3832    0.0000 C   0  0  0  0  0  0  0  0  0  0  0  0
    2.1598  -11.8370    0.0000 O   0  0  0  0  0  0  0  0  0  0  0  0
    3.5765  -12.6829    0.0000 O   0  0  0  0  0  0  0  0  0  0  0  0
  1  2  2  0  0  0  0
  2  3  1  0  0  0  0
  3  4  2  0  0  0  0
  4  5  1  0  0  0  0
  5  6  2  0  0  0  0
  6  1  1  0  0  0  0
  4  7  1  0  0  0  0
  7  8  1  0  0  0  0
  8  9  2  0  0  0  0
  9 10  1  0  0  0  0
 10  5  1  0  0  0  0
  3 11  1  0  0  0  0
 12  7  2  0  0  0  0
  8 13  1  0  0  0  0
 14 15  1  0  0  0  0
 15  9  1  0  0  0  0
 14 16  2  0  0  0  0
 16 17  1  0  0  0  0
 17 18  2  0  0  0  0
 18 19  1  0  0  0  0
 19 15  2  0  0  0  0
 17 20  1  0  0  0  0
 21 18  1  0  0  0  0
 22 23  1  0  0  0  0
 23 13  1  1  0  0  0
 22 24  1  0  0  0  0
 24 25  1  0  0  0  0
 25 26  1  0  0  0  0
 26 27  1  0  0  0  0
 27 23  1  0  0  0  0
 24 28  1  1  0  0  0
 28 29  1  0  0  0  0
 25 30  1  6  0  0  0
 31 32  1  0  0  0  0
 32 29  1  1  0  0  0
 31 33  1  0  0  0  0
 33 34  1  0  0  0  0
 34 35  1  0  0  0  0
 35 36  1  0  0  0  0
 36 32  1  0  0  0  0
  1 37  1  0  0  0  0
 26 38  1  1  0  0  0
 34 39  1  1  0  0  0
 33 40  1  6  0  0  0
 35 41  1  6  0  0  0
 36 42  1  6  0  0  0
 27 43  1  6  0  0  0
 44 39  1  1  0  0  0
 44 45  1  0  0  0  0
 45 46  1  0  0  0  0
 46 47  1  0  0  0  0
 47 48  1  0  0  0  0
 48 49  1  0  0  0  0
 49 44  1  0  0  0  0
 47 50  1  1  0  0  0
 46 51  1  6  0  0  0
 48 52  1  6  0  0  0
 49 53  1  6  0  0  0
M  END
>  <cdx:fragmentId>
5

$$$$
