916054.cdx
  Mrv1902 05222410272D          

 48 52  0  0  0  0            999 V2000
    8.5929  -12.2148    0.0000 O   0  0  0  0  0  0  0  0  0  0  0  0
    7.1573  -13.0281    0.0000 O   0  0  0  0  0  0  0  0  0  0  0  0
    5.7352  -12.1914    0.0000 C   0  0  0  0  0  0  0  0  0  0  0  0
   10.0421   -9.7516    0.0000 O   0  0  0  0  0  0  0  0  0  0  0  0
   11.4642  -10.5882    0.0000 O   0  0  0  0  0  0  0  0  0  0  0  0
   11.4507  -12.2382    0.0000 O   0  0  0  0  0  0  0  0  0  0  0  0
   10.7262  -13.4698    0.0000 O   0  0  0  0  0  0  0  0  0  0  0  0
   10.0151  -13.0515    0.0000 C   0  0  0  0  0  0  0  0  0  0  0  0
   10.0218  -12.2265    0.0000 C   0  0  2  0  0  0  0  0  0  0  0  0
   10.7397  -11.8198    0.0000 C   0  0  2  0  0  0  0  0  0  0  0  0
   10.7464  -10.9949    0.0000 C   0  0  1  0  0  0  0  0  0  0  0  0
   10.0353  -10.5765    0.0000 C   0  0  2  0  0  0  0  0  0  0  0  0
    9.3175  -10.9832    0.0000 C   0  0  1  0  0  0  0  0  0  0  0  0
    9.3108  -11.8082    0.0000 O   0  0  0  0  0  0  0  0  0  0  0  0
    8.6064  -10.5649    0.0000 O   0  0  0  0  0  0  0  0  0  0  0  0
    6.4530  -11.7848    0.0000 C   0  0  1  0  0  0  0  0  0  0  0  0
    7.1641  -12.2031    0.0000 C   0  0  1  0  0  0  0  0  0  0  0  0
    7.8819  -11.7965    0.0000 C   0  0  2  0  0  0  0  0  0  0  0  0
    7.8886  -10.9715    0.0000 C   0  0  2  0  0  0  0  0  0  0  0  0
    7.1775  -10.5532    0.0000 C   0  0  1  0  0  0  0  0  0  0  0  0
    6.4597  -10.9598    0.0000 O   0  0  0  0  0  0  0  0  0  0  0  0
    7.1843   -9.7282    0.0000 O   0  0  0  0  0  0  0  0  0  0  0  0
    4.3198  -10.5298    0.0000 O   0  0  0  0  0  0  0  0  0  0  0  0
    2.9111   -8.0432    0.0000 O   0  0  0  0  0  0  0  0  0  0  0  0
   10.0623   -7.2767    0.0000 C   0  0  0  0  0  0  0  0  0  0  0  0
    9.3512   -6.8583    0.0000 O   0  0  0  0  0  0  0  0  0  0  0  0
    7.2045   -7.2533    0.0000 C   0  0  0  0  0  0  0  0  0  0  0  0
    7.9223   -6.8466    0.0000 C   0  0  0  0  0  0  0  0  0  0  0  0
    8.6334   -7.2650    0.0000 C   0  0  0  0  0  0  0  0  0  0  0  0
    8.6267   -8.0899    0.0000 C   0  0  0  0  0  0  0  0  0  0  0  0
    7.9089   -8.4966    0.0000 C   0  0  0  0  0  0  0  0  0  0  0  0
    7.1978   -8.0783    0.0000 C   0  0  0  0  0  0  0  0  0  0  0  0
    2.9313   -5.5683    0.0000 C   0  0  0  0  0  0  0  0  0  0  0  0
    4.3602   -5.5800    0.0000 C   0  0  0  0  0  0  0  0  0  0  0  0
    3.6424   -5.9866    0.0000 C   0  0  0  0  0  0  0  0  0  0  0  0
    3.6357   -6.8116    0.0000 C   0  0  0  0  0  0  0  0  0  0  0  0
    4.3467   -7.2299    0.0000 C   0  0  0  0  0  0  0  0  0  0  0  0
    5.7487  -10.5415    0.0000 O   0  0  0  0  0  0  0  0  0  0  0  0
    5.7689   -8.0666    0.0000 O   0  0  0  0  0  0  0  0  0  0  0  0
    5.0511   -8.4732    0.0000 C   0  0  0  0  0  0  0  0  0  0  0  0
    4.3400   -8.0549    0.0000 C   0  0  0  0  0  0  0  0  0  0  0  0
    3.6222   -8.4615    0.0000 C   0  0  0  0  0  0  0  0  0  0  0  0
    3.6154   -9.2865    0.0000 C   0  0  0  0  0  0  0  0  0  0  0  0
    4.3265   -9.7048    0.0000 C   0  0  0  0  0  0  0  0  0  0  0  0
    5.0443   -9.2982    0.0000 C   0  0  0  0  0  0  0  0  0  0  0  0
    5.7554   -9.7165    0.0000 C   0  0  0  0  0  0  0  0  0  0  0  0
    6.4732   -9.3099    0.0000 C   0  0  0  0  0  0  0  0  0  0  0  0
    6.4800   -8.4849    0.0000 C   0  0  0  0  0  0  0  0  0  0  0  0
 47 22  1  0  0  0  0
 20 22  1  1  0  0  0
 18  1  1  6  0  0  0
 17  2  1  1  0  0  0
 16  3  1  6  0  0  0
 19 15  1  6  0  0  0
 13 15  1  1  0  0  0
 12  4  1  6  0  0  0
 11  5  1  1  0  0  0
 10  6  1  6  0  0  0
  9  8  1  1  0  0  0
  8  7  1  0  0  0  0
 14  9  1  0  0  0  0
 10  9  1  0  0  0  0
 11 10  1  0  0  0  0
 12 11  1  0  0  0  0
 13 12  1  0  0  0  0
 14 13  1  0  0  0  0
 21 16  1  0  0  0  0
 17 16  1  0  0  0  0
 18 17  1  0  0  0  0
 19 18  1  0  0  0  0
 20 19  1  0  0  0  0
 21 20  1  0  0  0  0
 44 23  1  0  0  0  0
 42 24  1  0  0  0  0
 48 32  1  0  0  0  0
 29 26  1  0  0  0  0
 26 25  1  0  0  0  0
 32 27  2  0  0  0  0
 28 27  1  0  0  0  0
 29 28  2  0  0  0  0
 30 29  1  0  0  0  0
 31 30  2  0  0  0  0
 32 31  1  0  0  0  0
 41 37  1  0  0  0  0
 35 33  1  0  0  0  0
 35 34  1  0  0  0  0
 36 35  2  0  0  0  0
 37 36  1  0  0  0  0
 46 38  2  0  0  0  0
 48 39  1  0  0  0  0
 40 39  1  0  0  0  0
 45 40  2  0  0  0  0
 41 40  1  0  0  0  0
 42 41  2  0  0  0  0
 43 42  1  0  0  0  0
 44 43  2  0  0  0  0
 45 44  1  0  0  0  0
 46 45  1  0  0  0  0
 47 46  1  0  0  0  0
 48 47  2  0  0  0  0
M  END
>  <cdx:groupId>
98324

>  <cdx:fragmentId>
98179

$$$$
