91611.cdx
  Mrv1902 05222410202D          

 43 47  0  0  0  0            999 V2000
    3.6556   -9.4039    0.0000 C   0  0  0  0  0  0  0  0  0  0  0  0
    3.6556  -10.2289    0.0000 C   0  0  0  0  0  0  0  0  0  0  0  0
    4.3700  -10.6414    0.0000 C   0  0  0  0  0  0  0  0  0  0  0  0
    5.0845  -10.2289    0.0000 C   0  0  1  0  0  0  0  0  0  0  0  0
    5.0845   -9.4039    0.0000 C   0  0  2  0  0  0  0  0  0  0  0  0
    4.3700   -8.9914    0.0000 C   0  0  2  0  0  0  0  0  0  0  0  0
    5.7990  -10.6414    0.0000 C   0  0  2  0  0  0  0  0  0  0  0  0
    6.5134  -10.2289    0.0000 C   0  0  1  0  0  0  0  0  0  0  0  0
    6.5134   -9.4039    0.0000 C   0  0  1  0  0  0  0  0  0  0  0  0
    5.7990   -8.9914    0.0000 C   0  0  2  0  0  0  0  0  0  0  0  0
    7.2279   -8.9914    0.0000 O   0  0  0  0  0  0  0  0  0  0  0  0
    7.2279   -8.1664    0.0000 C   0  0  1  0  0  0  0  0  0  0  0  0
    6.5134   -7.7539    0.0000 C   0  0  0  0  0  0  0  0  0  0  0  0
    5.7990   -8.1664    0.0000 C   0  0  0  0  0  0  0  0  0  0  0  0
    7.9816   -8.5020    0.0000 C   0  0  0  0  0  0  0  0  0  0  0  0
    8.5336   -7.8889    0.0000 C   0  0  0  0  0  0  0  0  0  0  0  0
    8.1211   -7.1744    0.0000 O   0  0  0  0  0  0  0  0  0  0  0  0
    7.3141   -7.3459    0.0000 C   0  0  0  0  0  0  0  0  0  0  0  0
    4.3700  -11.4664    0.0000 C   0  0  0  0  0  0  0  0  0  0  0  0
    9.3541   -7.9751    0.0000 O   0  0  0  0  0  0  0  0  0  0  0  0
    5.0845  -11.0539    0.0000 C   0  0  0  0  0  0  0  0  0  0  0  0
    5.7990  -11.4664    0.0000 O   0  0  0  0  0  0  0  0  0  0  0  0
    5.0845  -12.7039    0.0000 O   0  0  0  0  0  0  0  0  0  0  0  0
    5.7990  -12.2914    0.0000 C   0  0  0  0  0  0  0  0  0  0  0  0
    6.5134  -12.7039    0.0000 C   0  0  0  0  0  0  0  0  0  0  0  0
    5.7990   -9.8164    0.0000 C   0  0  0  0  0  0  0  0  0  0  0  0
    6.5134   -8.5789    0.0000 C   0  0  0  0  0  0  0  0  0  0  0  0
    4.3700   -8.1664    0.0000 O   0  0  0  0  0  0  0  0  0  0  0  0
    5.0845   -8.5789    0.0000 H   0  0  0  0  0  0  0  0  0  0  0  0
    7.2279  -10.6414    0.0000 O   0  0  0  0  0  0  0  0  0  0  0  0
    3.6556   -7.7539    0.0000 C   0  0  0  0  0  0  0  0  0  0  0  0
    3.6556   -6.9289    0.0000 C   0  0  0  0  0  0  0  0  0  0  0  0
    2.9411   -8.1664    0.0000 O   0  0  0  0  0  0  0  0  0  0  0  0
    4.3700   -6.5164    0.0000 C   0  0  0  0  0  0  0  0  0  0  0  0
    4.3700   -5.6914    0.0000 C   0  0  0  0  0  0  0  0  0  0  0  0
    3.6556   -5.2789    0.0000 C   0  0  0  0  0  0  0  0  0  0  0  0
    2.9411   -5.6914    0.0000 C   0  0  0  0  0  0  0  0  0  0  0  0
    2.9411   -6.5164    0.0000 C   0  0  0  0  0  0  0  0  0  0  0  0
    7.9424  -10.2289    0.0000 C   0  0  0  0  0  0  0  0  0  0  0  0
    8.6569  -10.6414    0.0000 C   0  0  0  0  0  0  0  0  0  0  0  0
    7.9424   -9.4039    0.0000 O   0  0  0  0  0  0  0  0  0  0  0  0
    9.3713  -10.2289    0.0000 C   0  0  0  0  0  0  0  0  0  0  0  0
    8.6569  -11.4664    0.0000 C   0  0  0  0  0  0  0  0  0  0  0  0
  1  2  1  0  0  0  0
  2  3  2  0  0  0  0
  3  4  1  0  0  0  0
  4  5  1  0  0  0  0
  5  6  1  0  0  0  0
  6  1  1  0  0  0  0
  4  7  1  0  0  0  0
  7  8  1  0  0  0  0
  8  9  1  0  0  0  0
  9 10  1  0  0  0  0
 10  5  1  0  0  0  0
  9 11  1  0  0  0  0
 11 12  1  0  0  0  0
 12 13  1  0  0  0  0
 13 14  1  0  0  0  0
 14 10  1  0  0  0  0
 12 15  1  0  0  0  0
 15 16  1  0  0  0  0
 16 17  1  0  0  0  0
 17 18  1  0  0  0  0
 12 18  1  6  0  0  0
  3 19  1  0  0  0  0
 16 20  2  0  0  0  0
  4 21  1  6  0  0  0
  7 22  1  6  0  0  0
 10 26  1  6  0  0  0
  9 27  1  6  0  0  0
  6 28  1  1  0  0  0
  5 29  1  1  0  0  0
  8 30  1  1  0  0  0
 28 31  1  0  0  0  0
 31 32  1  0  0  0  0
 31 33  2  0  0  0  0
 32 34  2  0  0  0  0
 34 35  1  0  0  0  0
 35 36  2  0  0  0  0
 36 37  1  0  0  0  0
 37 38  2  0  0  0  0
 38 32  1  0  0  0  0
 30 39  1  0  0  0  0
 39 40  1  0  0  0  0
 39 41  2  0  0  0  0
 40 42  1  0  0  0  0
 40 43  1  0  0  0  0
 22 24  1  0  0  0  0
 23 24  2  0  0  0  0
 24 25  1  0  0  0  0
M  STY  1   1 SUP
M  SAL   1  4  22  23  24  25
M  SBL   1  1  25
M  SMT   1 OAc
M  SAP   1  1  22   7  1
M  END
>  <cdx:fragmentId>
5

$$$$
