91612.cdx
  Mrv1902 05222410212D          

 34 36  0  0  0  0            999 V2000
    3.6556   -9.4039    0.0000 C   0  0  0  0  0  0  0  0  0  0  0  0
    3.6556  -10.2289    0.0000 C   0  0  0  0  0  0  0  0  0  0  0  0
    4.3700  -10.6414    0.0000 C   0  0  0  0  0  0  0  0  0  0  0  0
    5.0845  -10.2289    0.0000 C   0  0  1  0  0  0  0  0  0  0  0  0
    5.0845   -9.4039    0.0000 C   0  0  2  0  0  0  0  0  0  0  0  0
    4.3700   -8.9914    0.0000 C   0  0  0  0  0  0  0  0  0  0  0  0
    5.7990  -10.6414    0.0000 C   0  0  2  0  0  0  0  0  0  0  0  0
    6.5134  -10.2289    0.0000 C   0  0  1  0  0  0  0  0  0  0  0  0
    6.5134   -9.4039    0.0000 C   0  0  1  0  0  0  0  0  0  0  0  0
    5.7990   -8.9914    0.0000 C   0  0  2  0  0  0  0  0  0  0  0  0
    7.2279   -8.9914    0.0000 O   0  0  0  0  0  0  0  0  0  0  0  0
    6.5134   -7.7539    0.0000 C   0  0  0  0  0  0  0  0  0  0  0  0
    5.7990   -8.1664    0.0000 C   0  0  0  0  0  0  0  0  0  0  0  0
    4.3700  -11.4664    0.0000 C   0  0  0  0  0  0  0  0  0  0  0  0
    5.0845  -11.0539    0.0000 C   0  0  0  0  0  0  0  0  0  0  0  0
    5.7990  -11.4664    0.0000 O   0  0  0  0  0  0  0  0  0  0  0  0
    5.0845  -12.7039    0.0000 O   0  0  0  0  0  0  0  0  0  0  0  0
    5.7990  -12.2914    0.0000 C   0  0  0  0  0  0  0  0  0  0  0  0
    6.5134  -12.7039    0.0000 C   0  0  0  0  0  0  0  0  0  0  0  0
    5.7990   -9.8164    0.0000 C   0  0  0  0  0  0  0  0  0  0  0  0
    6.5134   -8.5789    0.0000 C   0  0  0  0  0  0  0  0  0  0  0  0
    5.0845   -8.5789    0.0000 H   0  0  0  0  0  0  0  0  0  0  0  0
    7.2279  -10.6414    0.0000 O   0  0  0  0  0  0  0  0  0  0  0  0
    7.9424  -10.2289    0.0000 C   0  0  0  0  0  0  0  0  0  0  0  0
    8.6569  -10.6414    0.0000 C   0  0  0  0  0  0  0  0  0  0  0  0
    7.9424   -9.4039    0.0000 O   0  0  0  0  0  0  0  0  0  0  0  0
    9.3713  -10.2289    0.0000 C   0  0  0  0  0  0  0  0  0  0  0  0
    8.6569  -11.4664    0.0000 C   0  0  0  0  0  0  0  0  0  0  0  0
    6.5134   -6.9289    0.0000 C   0  0  0  0  0  0  0  0  0  0  0  0
    7.1809   -6.4440    0.0000 C   0  0  0  0  0  0  0  0  0  0  0  0
    6.9259   -5.6594    0.0000 C   0  0  0  0  0  0  0  0  0  0  0  0
    6.1009   -5.6594    0.0000 O   0  0  0  0  0  0  0  0  0  0  0  0
    5.8460   -6.4440    0.0000 C   0  0  0  0  0  0  0  0  0  0  0  0
    7.4109   -4.9919    0.0000 O   0  0  0  0  0  0  0  0  0  0  0  0
  1  2  1  0  0  0  0
  2  3  2  0  0  0  0
  3  4  1  0  0  0  0
  4  5  1  0  0  0  0
  5  6  1  0  0  0  0
  6  1  1  0  0  0  0
  4  7  1  0  0  0  0
  7  8  1  0  0  0  0
  8  9  1  0  0  0  0
  9 10  1  0  0  0  0
 10  5  1  0  0  0  0
  9 11  1  1  0  0  0
 12 13  2  0  0  0  0
 13 10  1  0  0  0  0
  3 14  1  0  0  0  0
  4 15  1  6  0  0  0
  7 16  1  6  0  0  0
 10 20  1  6  0  0  0
  9 21  1  6  0  0  0
  5 22  1  1  0  0  0
  8 23  1  1  0  0  0
 23 24  1  0  0  0  0
 24 25  1  0  0  0  0
 24 26  2  0  0  0  0
 25 27  1  0  0  0  0
 25 28  1  0  0  0  0
 12 29  1  0  0  0  0
 29 30  2  0  0  0  0
 30 31  1  0  0  0  0
 31 32  1  0  0  0  0
 32 33  1  0  0  0  0
 33 29  1  0  0  0  0
 31 34  2  0  0  0  0
 16 18  1  0  0  0  0
 17 18  2  0  0  0  0
 18 19  1  0  0  0  0
M  STY  1   1 SUP
M  SAL   1  4  16  17  18  19
M  SBL   1  1  17
M  SMT   1 OAc
M  SAP   1  1  16   7  1
M  END
>  <cdx:fragmentId>
5

$$$$
