91615.cdx
  Mrv1902 05222410232D          

 34 37  0  0  0  0            999 V2000
   10.9399   -9.4314    0.0000 C   0  0  0  0  0  0  0  0  0  0  0  0
   11.6544   -9.0189    0.0000 C   0  0  0  0  0  0  0  0  0  0  0  0
   11.6544   -8.1939    0.0000 C   0  0  0  0  0  0  0  0  0  0  0  0
   10.9399   -7.7814    0.0000 C   0  0  0  0  0  0  0  0  0  0  0  0
   10.2254   -9.0189    0.0000 C   0  0  0  0  0  0  0  0  0  0  0  0
   10.2254   -8.1939    0.0000 C   0  0  0  0  0  0  0  0  0  0  0  0
    9.5109   -7.7814    0.0000 O   0  0  0  0  0  0  0  0  0  0  0  0
    7.3675   -8.1939    0.0000 O   0  0  0  0  0  0  0  0  0  0  0  0
    6.6531   -7.7814    0.0000 C   0  0  0  0  0  0  0  0  0  0  0  0
    5.9386   -9.0189    0.0000 O   0  0  0  0  0  0  0  0  0  0  0  0
    7.3675  -11.4939    0.0000 O   0  0  0  0  0  0  0  0  0  0  0  0
    8.7965  -11.4939    0.0000 O   0  0  0  0  0  0  0  0  0  0  0  0
    8.7965  -10.6689    0.0000 C   0  0  0  0  0  0  0  0  0  0  0  0
    9.5109  -10.2564    0.0000 C   0  0  0  0  0  0  0  0  0  0  0  0
    9.5109   -9.4314    0.0000 C   0  0  0  0  0  0  0  0  0  0  0  0
    8.7965   -9.0189    0.0000 O   0  0  0  0  0  0  0  0  0  0  0  0
    7.3675  -10.6689    0.0000 C   0  0  0  0  0  0  0  0  0  0  0  0
    8.0820  -10.2564    0.0000 C   0  0  0  0  0  0  0  0  0  0  0  0
    8.0820   -9.4314    0.0000 C   0  0  0  0  0  0  0  0  0  0  0  0
    7.3675   -9.0189    0.0000 C   0  0  0  0  0  0  0  0  0  0  0  0
    6.6531   -9.4314    0.0000 C   0  0  0  0  0  0  0  0  0  0  0  0
    6.6531  -10.2564    0.0000 C   0  0  0  0  0  0  0  0  0  0  0  0
    5.2241   -9.4314    0.0000 C   0  0  2  0  0  0  0  0  0  0  0  0
    4.5096   -9.0189    0.0000 O   0  0  0  0  0  0  0  0  0  0  0  0
    3.7952   -9.4314    0.0000 C   0  0  1  0  0  0  0  0  0  0  0  0
    3.7952  -10.2564    0.0000 C   0  0  2  0  0  0  0  0  0  0  0  0
    4.5096  -10.6689    0.0000 C   0  0  1  0  0  0  0  0  0  0  0  0
    5.2241  -10.2564    0.0000 C   0  0  1  0  0  0  0  0  0  0  0  0
    3.0807   -9.0189    0.0000 C   0  0  0  0  0  0  0  0  0  0  0  0
    4.5096  -11.4939    0.0000 O   0  0  0  0  0  0  0  0  0  0  0  0
    5.9386  -10.6689    0.0000 O   0  0  0  0  0  0  0  0  0  0  0  0
    3.0807  -10.6689    0.0000 O   0  0  0  0  0  0  0  0  0  0  0  0
    2.3662   -9.4314    0.0000 O   0  0  0  0  0  0  0  0  0  0  0  0
    3.0807   -8.1939    0.0000 O   0  0  0  0  0  0  0  0  0  0  0  0
  1  5  2  0  0  0  0
  2  1  1  0  0  0  0
  3  2  2  0  0  0  0
  4  3  1  0  0  0  0
  6  4  2  0  0  0  0
  5 15  1  0  0  0  0
  6  5  1  0  0  0  0
  7  6  1  0  0  0  0
  8 20  1  0  0  0  0
  9  8  1  0  0  0  0
 21 10  1  0  0  0  0
 11 17  1  0  0  0  0
 13 12  2  0  0  0  0
 13 18  1  0  0  0  0
 14 13  1  0  0  0  0
 15 14  2  0  0  0  0
 16 15  1  0  0  0  0
 19 16  1  0  0  0  0
 17 22  2  0  0  0  0
 18 17  1  0  0  0  0
 19 18  2  0  0  0  0
 20 19  1  0  0  0  0
 21 20  2  0  0  0  0
 22 21  1  0  0  0  0
 23 10  1  1  0  0  0
 23 24  1  0  0  0  0
 24 25  1  0  0  0  0
 25 26  1  0  0  0  0
 26 27  1  0  0  0  0
 27 28  1  0  0  0  0
 28 23  1  0  0  0  0
 25 29  1  1  0  0  0
 27 30  1  1  0  0  0
 28 31  1  6  0  0  0
 26 32  1  6  0  0  0
 29 33  2  0  0  0  0
 29 34  1  0  0  0  0
M  END
>  <cdx:fragmentId>
5

$$$$
