91610.cdx
  Mrv1902 05222410212D          

 43 47  0  0  0  0            999 V2000
    5.1818   -8.5926    0.0000 C   0  0  0  0  0  0  0  0  0  0  0  0
    5.1818   -9.4176    0.0000 C   0  0  0  0  0  0  0  0  0  0  0  0
    5.8963   -9.8301    0.0000 C   0  0  0  0  0  0  0  0  0  0  0  0
    6.6107   -9.4176    0.0000 C   0  0  0  0  0  0  0  0  0  0  0  0
    6.6107   -8.5926    0.0000 C   0  0  0  0  0  0  0  0  0  0  0  0
    5.8963   -8.1801    0.0000 C   0  0  2  0  0  0  0  0  0  0  0  0
    7.3252   -9.8301    0.0000 C   0  0  0  0  0  0  0  0  0  0  0  0
    8.0397   -9.4176    0.0000 C   0  0  0  0  0  0  0  0  0  0  0  0
    7.3252   -8.1801    0.0000 O   0  0  0  0  0  0  0  0  0  0  0  0
    8.7542   -9.8301    0.0000 C   0  0  0  0  0  0  0  0  0  0  0  0
    9.4686   -9.4176    0.0000 C   0  0  0  0  0  0  0  0  0  0  0  0
    9.4686   -8.5926    0.0000 C   0  0  0  0  0  0  0  0  0  0  0  0
   10.1831   -9.8301    0.0000 C   0  0  0  0  0  0  0  0  0  0  0  0
   10.8976   -9.4176    0.0000 C   0  0  0  0  0  0  0  0  0  0  0  0
   10.8976   -8.5926    0.0000 C   0  0  0  0  0  0  0  0  0  0  0  0
   10.1831   -8.1801    0.0000 C   0  0  0  0  0  0  0  0  0  0  0  0
   11.6120   -8.1801    0.0000 O   0  0  0  0  0  0  0  0  0  0  0  0
    7.3252  -10.6551    0.0000 O   0  0  0  0  0  0  0  0  0  0  0  0
    4.4673   -8.1801    0.0000 O   0  0  0  0  0  0  0  0  0  0  0  0
    5.6694  -10.6288    0.0000 O   0  0  0  0  0  0  0  0  0  0  0  0
    4.9200  -10.6689    0.0000 C   0  0  0  0  0  0  0  0  0  0  0  0
    4.0950  -10.6689    0.0000 O   0  0  0  0  0  0  0  0  0  0  0  0
    5.3325  -11.3834    0.0000 C   0  0  2  0  0  0  0  0  0  0  0  0
    4.9200  -12.0978    0.0000 C   0  0  2  0  0  0  0  0  0  0  0  0
    5.3325  -12.8123    0.0000 O   0  0  0  0  0  0  0  0  0  0  0  0
    4.0950  -12.0978    0.0000 C   0  0  2  0  0  0  0  0  0  0  0  0
    3.6825  -12.8123    0.0000 O   0  0  0  0  0  0  0  0  0  0  0  0
    3.6825  -11.3834    0.0000 C   0  0  0  0  0  0  0  0  0  0  0  0
    4.6244   -9.9275    0.0000 C   0  0  0  0  0  0  0  0  0  0  0  0
    5.8963   -7.4657    0.0000 C   0  0  2  0  0  0  0  0  0  0  0  0
    5.3129   -7.5968    0.0000 O   0  0  0  0  0  0  0  0  0  0  0  0
    6.5994   -7.0341    0.0000 O   0  0  0  0  0  0  0  0  0  0  0  0
    6.5772   -6.2094    0.0000 C   0  0  1  0  0  0  0  0  0  0  0  0
    5.8519   -5.8163    0.0000 C   0  0  2  0  0  0  0  0  0  0  0  0
    5.1488   -6.2478    0.0000 C   0  0  1  0  0  0  0  0  0  0  0  0
    5.1710   -7.0726    0.0000 C   0  0  1  0  0  0  0  0  0  0  0  0
    7.2803   -5.7778    0.0000 C   0  0  0  0  0  0  0  0  0  0  0  0
    4.4235   -5.8547    0.0000 O   0  0  0  0  0  0  0  0  0  0  0  0
    5.8297   -4.9916    0.0000 O   0  0  0  0  0  0  0  0  0  0  0  0
    4.3463   -7.0947    0.0000 O   0  0  0  0  0  0  0  0  0  0  0  0
    6.1575  -11.3834    0.0000 O   0  0  0  0  0  0  0  0  0  0  0  0
    7.2581   -4.9531    0.0000 O   0  0  0  0  0  0  0  0  0  0  0  0
    6.6107   -7.8782    0.0000 H   0  0  0  0  0  0  0  0  0  0  0  0
  1  2  2  0  0  0  0
  2  3  1  0  0  0  0
  3  4  2  0  0  0  0
  4  5  1  0  0  0  0
  5  6  1  0  0  0  0
  6  1  1  0  0  0  0
  4  7  1  0  0  0  0
  7  8  1  0  0  0  0
  9  5  2  0  0  0  0
  8 10  2  0  0  0  0
 10 11  1  0  0  0  0
 11 12  1  0  0  0  0
 11 13  2  0  0  0  0
 13 14  1  0  0  0  0
 14 15  2  0  0  0  0
 15 16  1  0  0  0  0
 16 12  2  0  0  0  0
 15 17  1  0  0  0  0
  7 18  2  0  0  0  0
  1 19  1  0  0  0  0
  3 20  1  0  0  0  0
 20 21  1  0  0  0  0
 21 22  1  0  0  0  0
 21 23  1  0  0  0  0
 23 24  1  0  0  0  0
 24 25  1  6  0  0  0
 24 26  1  0  0  0  0
 26 27  1  6  0  0  0
 26 28  1  0  0  0  0
 28 22  1  0  0  0  0
  2 29  1  0  0  0  0
 29 21  1  6  0  0  0
  6 31  1  6  0  0  0
 30 32  1  0  0  0  0
 32 33  1  0  0  0  0
 33 34  1  0  0  0  0
 34 35  1  0  0  0  0
 35 36  1  0  0  0  0
 36 30  1  0  0  0  0
 33 37  1  1  0  0  0
 35 38  1  1  0  0  0
 34 39  1  6  0  0  0
 36 40  1  6  0  0  0
 23 41  1  1  0  0  0
 37 42  1  0  0  0  0
 30 43  1  6  0  0  0
 30  6  1  0  0  0  0
M  END
>  <cdx:fragmentId>
5

$$$$
