91619.cdx
  Mrv1902 05222410232D          

 24 26  0  0  0  0            999 V2000
    5.7731   -5.4576    0.0000 C   0  0  0  0  0  0  0  0  0  0  0  0
    5.7731   -6.2826    0.0000 C   0  0  0  0  0  0  0  0  0  0  0  0
    6.4875   -6.6951    0.0000 C   0  0  0  0  0  0  0  0  0  0  0  0
    7.2020   -6.2826    0.0000 C   0  0  0  0  0  0  0  0  0  0  0  0
    7.2020   -5.4576    0.0000 C   0  0  0  0  0  0  0  0  0  0  0  0
    6.4875   -5.0451    0.0000 C   0  0  0  0  0  0  0  0  0  0  0  0
    7.9165   -6.6951    0.0000 C   0  0  0  0  0  0  0  0  0  0  0  0
    8.6309   -6.2826    0.0000 N   0  0  0  0  0  0  0  0  0  0  0  0
    8.6309   -5.4576    0.0000 C   0  0  0  0  0  0  0  0  0  0  0  0
    7.9165   -5.0451    0.0000 C   0  0  0  0  0  0  0  0  0  0  0  0
    6.4875   -7.5201    0.0000 C   0  0  0  0  0  0  0  0  0  0  0  0
    7.2020   -7.9326    0.0000 C   0  0  0  0  0  0  0  0  0  0  0  0
    7.9165   -7.5201    0.0000 C   0  0  0  0  0  0  0  0  0  0  0  0
    5.7731   -7.9326    0.0000 C   0  0  0  0  0  0  0  0  0  0  0  0
    5.7731   -8.7576    0.0000 C   0  0  0  0  0  0  0  0  0  0  0  0
    6.4875   -9.1701    0.0000 C   0  0  0  0  0  0  0  0  0  0  0  0
    7.2020   -8.7576    0.0000 C   0  0  0  0  0  0  0  0  0  0  0  0
    5.0586   -5.0451    0.0000 O   0  0  0  0  0  0  0  0  0  0  0  0
    5.0586   -6.6951    0.0000 O   0  0  0  0  0  0  0  0  0  0  0  0
    5.0586   -9.1701    0.0000 O   0  0  0  0  0  0  0  0  0  0  0  0
    5.7731  -10.4076    0.0000 C   0  0  0  0  0  0  0  0  0  0  0  0
    6.4875   -9.9951    0.0000 O   0  0  0  0  0  0  0  0  0  0  0  0
    4.3441   -8.7576    0.0000 C   0  0  0  0  0  0  0  0  0  0  0  0
    9.3454   -6.6951    0.0000 C   0  0  0  0  0  0  0  0  0  0  0  0
  1  2  2  0  0  0  0
  2  3  1  0  0  0  0
  3  4  2  0  0  0  0
  4  5  1  0  0  0  0
  5  6  2  0  0  0  0
  6  1  1  0  0  0  0
  4  7  1  0  0  0  0
  7  8  1  0  0  0  0
  8  9  1  0  0  0  0
  9 10  1  0  0  0  0
 10  5  1  0  0  0  0
 11 12  2  0  0  0  0
 12 13  1  0  0  0  0
 13  7  1  0  0  0  0
 11 14  1  0  0  0  0
 14 15  2  0  0  0  0
 15 16  1  0  0  0  0
 16 17  2  0  0  0  0
 17 12  1  0  0  0  0
  1 18  1  0  0  0  0
 19  2  1  0  0  0  0
 15 20  1  0  0  0  0
 21 22  1  0  0  0  0
 22 16  1  0  0  0  0
 20 23  1  0  0  0  0
  8 24  1  0  0  0  0
M  END
>  <cdx:fragmentId>
5

$$$$
