9161.cdx
  Mrv1902 05222410282D          

 12 14  0  0  0  0            999 V2000
    3.6065   -1.6773    0.0000 C   0  0  0  0  0  0  0  0  0  0  0  0
    4.4315   -1.6773    0.0000 C   0  0  0  0  0  0  0  0  0  0  0  0
    4.7322   -2.4456    0.0000 C   0  0  0  0  0  0  0  0  0  0  0  0
    5.4467   -2.8581    0.0000 C   0  0  0  0  0  0  0  0  0  0  0  0
    5.4467   -3.6831    0.0000 C   0  0  0  0  0  0  0  0  0  0  0  0
    4.7322   -4.0956    0.0000 C   0  0  0  0  0  0  0  0  0  0  0  0
    4.0177   -3.6831    0.0000 C   0  0  0  0  0  0  0  0  0  0  0  0
    3.3033   -4.0956    0.0000 C   0  0  0  0  0  0  0  0  0  0  0  0
    2.5888   -3.6831    0.0000 C   0  0  0  0  0  0  0  0  0  0  0  0
    2.5888   -2.8581    0.0000 C   0  0  0  0  0  0  0  0  0  0  0  0
    3.3033   -2.4456    0.0000 C   0  0  0  0  0  0  0  0  0  0  0  0
    4.0177   -2.8581    0.0000 C   0  0  0  0  0  0  0  0  0  0  0  0
  1  2  2  0  0  0  0
  2  3  1  0  0  0  0
  3  4  2  0  0  0  0
  4  5  1  0  0  0  0
  5  6  2  0  0  0  0
  6  7  1  0  0  0  0
  7  8  1  0  0  0  0
  8  9  2  0  0  0  0
  9 10  1  0  0  0  0
 10 11  2  0  0  0  0
  1 11  1  0  0  0  0
 11 12  1  0  0  0  0
  3 12  1  0  0  0  0
  7 12  2  0  0  0  0
M  END
>  <cdx:groupId>
40

>  <cdx:fragmentId>
5

$$$$
