91626.cdx
  Mrv1902 05222410242D          

 47 53  0  0  0  0            999 V2000
    2.6656   -5.0314    0.0000 C   0  0  0  0  0  0  0  0  0  0  0  0
    2.6656   -5.8564    0.0000 N   0  0  0  0  0  0  0  0  0  0  0  0
    3.3800   -6.2689    0.0000 C   0  0  0  0  0  0  0  0  0  0  0  0
    4.0945   -5.8564    0.0000 C   0  0  0  0  0  0  0  0  0  0  0  0
    4.0945   -5.0314    0.0000 C   0  0  0  0  0  0  0  0  0  0  0  0
    3.3800   -4.6189    0.0000 C   0  0  0  0  0  0  0  0  0  0  0  0
    4.8090   -6.2689    0.0000 C   0  0  0  0  0  0  0  0  0  0  0  0
    5.5234   -5.8564    0.0000 C   0  0  0  0  0  0  0  0  0  0  0  0
    5.5234   -5.0314    0.0000 C   0  0  0  0  0  0  0  0  0  0  0  0
    4.8090   -4.6189    0.0000 C   0  0  0  0  0  0  0  0  0  0  0  0
    3.3800   -7.0939    0.0000 C   0  0  0  0  0  0  0  0  0  0  0  0
    4.0945   -7.5064    0.0000 C   0  0  0  0  0  0  0  0  0  0  0  0
    4.8090   -7.0939    0.0000 C   0  0  0  0  0  0  0  0  0  0  0  0
    4.0945   -8.3314    0.0000 C   0  0  0  0  0  0  0  0  0  0  0  0
    4.8090   -8.7439    0.0000 C   0  0  0  0  0  0  0  0  0  0  0  0
    5.5234   -8.3314    0.0000 C   0  0  0  0  0  0  0  0  0  0  0  0
    5.5234   -7.5064    0.0000 C   0  0  0  0  0  0  0  0  0  0  0  0
    6.2379   -4.6189    0.0000 O   0  0  0  0  0  0  0  0  0  0  0  0
    6.2379   -3.7939    0.0000 C   0  0  0  0  0  0  0  0  0  0  0  0
    6.2379   -8.7439    0.0000 O   0  0  0  0  0  0  0  0  0  0  0  0
    6.9524   -8.3314    0.0000 C   0  0  0  0  0  0  0  0  0  0  0  0
    6.3484   -5.8564    0.0000 O   0  0  0  0  0  0  0  0  0  0  0  0
    7.9302   -6.2551    0.0000 O   0  0  0  0  0  0  0  0  0  0  0  0
    8.6447   -5.8426    0.0000 C   0  0  0  0  0  0  0  0  0  0  0  0
    9.3592   -6.2551    0.0000 C   0  0  0  0  0  0  0  0  0  0  0  0
   10.0736   -5.8426    0.0000 C   0  0  0  0  0  0  0  0  0  0  0  0
   10.0736   -5.0176    0.0000 C   0  0  0  0  0  0  0  0  0  0  0  0
    9.3592   -4.6051    0.0000 C   0  0  0  0  0  0  0  0  0  0  0  0
    8.6447   -5.0176    0.0000 C   0  0  0  0  0  0  0  0  0  0  0  0
   10.7881   -6.2551    0.0000 C   0  0  0  0  0  0  0  0  0  0  0  0
   11.5026   -5.8426    0.0000 N   0  3  1  0  0  0  0  0  0  0  0  0
   11.5026   -5.0176    0.0000 C   0  0  0  0  0  0  0  0  0  0  0  0
   10.7881   -4.6051    0.0000 C   0  0  0  0  0  0  0  0  0  0  0  0
    7.9302   -4.6051    0.0000 O   0  0  0  0  0  0  0  0  0  0  0  0
    7.9302   -3.7801    0.0000 C   0  0  0  0  0  0  0  0  0  0  0  0
   10.7881   -7.0526    0.0000 C   0  0  0  0  0  0  0  0  0  0  0  0
    7.0084   -7.5201    0.0000 C   0  0  0  0  0  0  0  0  0  0  0  0
    7.4209   -8.2346    0.0000 C   0  0  0  0  0  0  0  0  0  0  0  0
    8.2459   -8.2346    0.0000 C   0  0  0  0  0  0  0  0  0  0  0  0
    8.6584   -7.5201    0.0000 C   0  0  0  0  0  0  0  0  0  0  0  0
    8.2459   -6.8057    0.0000 C   0  0  0  0  0  0  0  0  0  0  0  0
    7.4209   -6.8057    0.0000 C   0  0  0  0  0  0  0  0  0  0  0  0
    6.7609   -5.1419    0.0000 C   0  0  0  0  0  0  0  0  0  0  0  0
    1.9511   -6.2689    0.0000 C   0  0  0  0  0  0  0  0  0  0  0  0
   12.2995   -5.6291    0.0000 C   0  0  0  0  0  0  0  0  0  0  0  0
   11.9151   -6.5571    0.0000 O   0  5  0  0  0  0  0  0  0  0  0  0
    6.2379   -7.0939    0.0000 O   0  0  0  0  0  0  0  0  0  0  0  0
  1  2  1  0  0  0  0
  2  3  1  0  0  0  0
  3  4  1  0  0  0  0
  4  5  2  0  0  0  0
  5  6  1  0  0  0  0
  6  1  1  0  0  0  0
  4  7  1  0  0  0  0
  7  8  2  0  0  0  0
  8  9  1  0  0  0  0
  9 10  2  0  0  0  0
 10  5  1  0  0  0  0
  3 11  1  0  0  0  0
 11 12  1  0  0  0  0
 12 13  1  0  0  0  0
 12 14  2  0  0  0  0
 14 15  1  0  0  0  0
 15 16  2  0  0  0  0
 16 17  1  0  0  0  0
 17 13  2  0  0  0  0
  9 18  1  0  0  0  0
 18 19  1  0  0  0  0
 16 20  1  0  0  0  0
 20 21  1  0  0  0  0
  8 22  1  0  0  0  0
  7 23  1  0  0  0  0
 23 24  1  0  0  0  0
 24 25  1  0  0  0  0
 25 26  2  0  0  0  0
 26 27  1  0  0  0  0
 27 28  2  0  0  0  0
 28 29  1  0  0  0  0
 29 24  2  0  0  0  0
 26 30  1  0  0  0  0
 30 31  1  0  0  0  0
 31 32  1  0  0  0  0
 32 33  1  0  0  0  0
 33 27  1  0  0  0  0
 29 34  1  0  0  0  0
 34 35  1  0  0  0  0
 30 36  1  0  0  0  0
 37 38  2  0  0  0  0
 38 39  1  0  0  0  0
 39 40  2  0  0  0  0
 40 41  1  0  0  0  0
 41 42  2  0  0  0  0
 42 37  1  0  0  0  0
 40 36  1  0  0  0  0
 22 43  1  0  0  0  0
  2 44  1  0  0  0  0
 31 45  1  0  0  0  0
 31 46  1  6  0  0  0
 17 47  1  0  0  0  0
 37 47  1  0  0  0  0
M  CHG  2  31   1  46  -1
M  END
>  <cdx:fragmentId>
192

$$$$
