91629.cdx
  Mrv1902 05222410232D          

 22 24  0  0  0  0            999 V2000
    4.6456   -8.3176    0.0000 C   0  0  0  0  0  0  0  0  0  0  0  0
    4.6456   -9.1426    0.0000 C   0  0  0  0  0  0  0  0  0  0  0  0
    5.3600   -9.5551    0.0000 C   0  0  0  0  0  0  0  0  0  0  0  0
    6.0745   -9.1426    0.0000 C   0  0  0  0  0  0  0  0  0  0  0  0
    6.0745   -8.3176    0.0000 C   0  0  0  0  0  0  0  0  0  0  0  0
    5.3600   -7.9051    0.0000 C   0  0  0  0  0  0  0  0  0  0  0  0
    6.7890   -9.5551    0.0000 C   0  0  0  0  0  0  0  0  0  0  0  0
    7.5034   -9.1426    0.0000 C   0  0  1  0  0  0  0  0  0  0  0  0
    7.5034   -8.3176    0.0000 C   0  0  2  0  0  0  0  0  0  0  0  0
    6.7890   -7.9051    0.0000 O   0  0  0  0  0  0  0  0  0  0  0  0
    6.7890  -10.3801    0.0000 O   0  0  0  0  0  0  0  0  0  0  0  0
    8.2179   -9.5551    0.0000 O   0  0  0  0  0  0  0  0  0  0  0  0
    8.9324   -8.3176    0.0000 C   0  0  0  0  0  0  0  0  0  0  0  0
    8.2179   -7.9051    0.0000 C   0  0  0  0  0  0  0  0  0  0  0  0
    9.6469   -7.9051    0.0000 C   0  0  0  0  0  0  0  0  0  0  0  0
    9.6469   -7.0801    0.0000 C   0  0  0  0  0  0  0  0  0  0  0  0
    8.9324   -6.6676    0.0000 C   0  0  0  0  0  0  0  0  0  0  0  0
    8.2179   -7.0801    0.0000 C   0  0  0  0  0  0  0  0  0  0  0  0
    3.9311   -7.9051    0.0000 O   0  0  0  0  0  0  0  0  0  0  0  0
    5.3600  -10.3801    0.0000 O   0  0  0  0  0  0  0  0  0  0  0  0
   10.3613   -6.6676    0.0000 O   0  0  0  0  0  0  0  0  0  0  0  0
    8.9324   -5.8426    0.0000 O   0  0  0  0  0  0  0  0  0  0  0  0
  1  2  1  0  0  0  0
  2  3  2  0  0  0  0
  3  4  1  0  0  0  0
  4  5  2  0  0  0  0
  5  6  1  0  0  0  0
  6  1  2  0  0  0  0
  4  7  1  0  0  0  0
  7  8  1  0  0  0  0
  8  9  1  0  0  0  0
  9 10  1  0  0  0  0
 10  5  1  0  0  0  0
  7 11  2  0  0  0  0
  8 12  1  1  0  0  0
 13 14  2  0  0  0  0
  9 14  1  6  0  0  0
 13 15  1  0  0  0  0
 15 16  2  0  0  0  0
 16 17  1  0  0  0  0
 17 18  2  0  0  0  0
 18 14  1  0  0  0  0
  1 19  1  0  0  0  0
  3 20  1  0  0  0  0
 16 21  1  0  0  0  0
 17 22  1  0  0  0  0
M  END
>  <cdx:fragmentId>
5

$$$$
