91625.cdx
  Mrv1902 05222410232D          

 47 53  0  0  0  0            999 V2000
    3.7656   -5.1964    0.0000 C   0  0  0  0  0  0  0  0  0  0  0  0
    3.7656   -6.0214    0.0000 N   0  0  0  0  0  0  0  0  0  0  0  0
    4.4800   -6.4339    0.0000 C   0  0  0  0  0  0  0  0  0  0  0  0
    5.1945   -6.0214    0.0000 C   0  0  0  0  0  0  0  0  0  0  0  0
    5.1945   -5.1964    0.0000 C   0  0  0  0  0  0  0  0  0  0  0  0
    4.4800   -4.7839    0.0000 C   0  0  0  0  0  0  0  0  0  0  0  0
    5.9090   -6.4339    0.0000 C   0  0  0  0  0  0  0  0  0  0  0  0
    6.6234   -6.0214    0.0000 C   0  0  0  0  0  0  0  0  0  0  0  0
    6.6234   -5.1964    0.0000 C   0  0  0  0  0  0  0  0  0  0  0  0
    5.9090   -4.7839    0.0000 C   0  0  0  0  0  0  0  0  0  0  0  0
    4.4800   -7.2589    0.0000 C   0  0  0  0  0  0  0  0  0  0  0  0
    5.1945   -7.6714    0.0000 C   0  0  0  0  0  0  0  0  0  0  0  0
    5.9090   -7.2589    0.0000 C   0  0  0  0  0  0  0  0  0  0  0  0
    5.1945   -8.4964    0.0000 C   0  0  0  0  0  0  0  0  0  0  0  0
    5.9090   -8.9089    0.0000 C   0  0  0  0  0  0  0  0  0  0  0  0
    6.6234   -8.4964    0.0000 C   0  0  0  0  0  0  0  0  0  0  0  0
    6.6234   -7.6714    0.0000 C   0  0  0  0  0  0  0  0  0  0  0  0
    7.3379   -4.7839    0.0000 O   0  0  0  0  0  0  0  0  0  0  0  0
    7.3379   -3.9589    0.0000 C   0  0  0  0  0  0  0  0  0  0  0  0
    7.3379   -8.9089    0.0000 O   0  0  0  0  0  0  0  0  0  0  0  0
    8.0524   -8.4964    0.0000 C   0  0  0  0  0  0  0  0  0  0  0  0
    7.4484   -6.0214    0.0000 O   0  0  0  0  0  0  0  0  0  0  0  0
    9.0302   -6.4201    0.0000 O   0  0  0  0  0  0  0  0  0  0  0  0
    9.7447   -6.0076    0.0000 C   0  0  0  0  0  0  0  0  0  0  0  0
   10.4592   -6.4201    0.0000 C   0  0  0  0  0  0  0  0  0  0  0  0
   11.1736   -6.0076    0.0000 C   0  0  0  0  0  0  0  0  0  0  0  0
   11.1736   -5.1826    0.0000 C   0  0  0  0  0  0  0  0  0  0  0  0
   10.4592   -4.7701    0.0000 C   0  0  0  0  0  0  0  0  0  0  0  0
    9.7447   -5.1826    0.0000 C   0  0  0  0  0  0  0  0  0  0  0  0
   11.8881   -6.4201    0.0000 C   0  0  0  0  0  0  0  0  0  0  0  0
   12.6026   -6.0076    0.0000 N   0  3  2  0  0  0  0  0  0  0  0  0
   12.6026   -5.1826    0.0000 C   0  0  0  0  0  0  0  0  0  0  0  0
   11.8881   -4.7701    0.0000 C   0  0  0  0  0  0  0  0  0  0  0  0
    9.0302   -4.7701    0.0000 O   0  0  0  0  0  0  0  0  0  0  0  0
    9.0302   -3.9451    0.0000 C   0  0  0  0  0  0  0  0  0  0  0  0
   11.8881   -7.2176    0.0000 C   0  0  0  0  0  0  0  0  0  0  0  0
    8.1084   -7.6851    0.0000 C   0  0  0  0  0  0  0  0  0  0  0  0
    8.5209   -8.3996    0.0000 C   0  0  0  0  0  0  0  0  0  0  0  0
    9.3459   -8.3996    0.0000 C   0  0  0  0  0  0  0  0  0  0  0  0
    9.7584   -7.6851    0.0000 C   0  0  0  0  0  0  0  0  0  0  0  0
    9.3459   -6.9707    0.0000 C   0  0  0  0  0  0  0  0  0  0  0  0
    8.5209   -6.9707    0.0000 C   0  0  0  0  0  0  0  0  0  0  0  0
    7.8609   -5.3069    0.0000 C   0  0  0  0  0  0  0  0  0  0  0  0
    3.0511   -6.4339    0.0000 C   0  0  0  0  0  0  0  0  0  0  0  0
   13.3995   -5.7941    0.0000 C   0  0  0  0  0  0  0  0  0  0  0  0
   13.0151   -6.7221    0.0000 O   0  5  0  0  0  0  0  0  0  0  0  0
    7.3379   -7.2589    0.0000 O   0  0  0  0  0  0  0  0  0  0  0  0
  1  2  1  0  0  0  0
  2  3  1  0  0  0  0
  3  4  1  0  0  0  0
  4  5  2  0  0  0  0
  5  6  1  0  0  0  0
  6  1  1  0  0  0  0
  4  7  1  0  0  0  0
  7  8  2  0  0  0  0
  8  9  1  0  0  0  0
  9 10  2  0  0  0  0
 10  5  1  0  0  0  0
  3 11  1  0  0  0  0
 11 12  1  0  0  0  0
 12 13  1  0  0  0  0
 12 14  2  0  0  0  0
 14 15  1  0  0  0  0
 15 16  2  0  0  0  0
 16 17  1  0  0  0  0
 17 13  2  0  0  0  0
  9 18  1  0  0  0  0
 18 19  1  0  0  0  0
 16 20  1  0  0  0  0
 20 21  1  0  0  0  0
  8 22  1  0  0  0  0
  7 23  1  0  0  0  0
 23 24  1  0  0  0  0
 24 25  1  0  0  0  0
 25 26  2  0  0  0  0
 26 27  1  0  0  0  0
 27 28  2  0  0  0  0
 28 29  1  0  0  0  0
 29 24  2  0  0  0  0
 26 30  1  0  0  0  0
 30 31  1  0  0  0  0
 31 32  1  0  0  0  0
 32 33  1  0  0  0  0
 33 27  1  0  0  0  0
 29 34  1  0  0  0  0
 34 35  1  0  0  0  0
 30 36  1  0  0  0  0
 37 38  2  0  0  0  0
 38 39  1  0  0  0  0
 39 40  2  0  0  0  0
 40 41  1  0  0  0  0
 41 42  2  0  0  0  0
 42 37  1  0  0  0  0
 40 36  1  0  0  0  0
 22 43  1  0  0  0  0
  2 44  1  0  0  0  0
 31 45  1  0  0  0  0
 31 46  1  1  0  0  0
 17 47  1  0  0  0  0
 37 47  1  0  0  0  0
M  CHG  2  31   1  46  -1
M  END
>  <cdx:fragmentId>
5

$$$$
