91627.cdx
  Mrv1902 05222410242D          

 14 15  0  0  0  0            999 V2000
    7.2166   -4.8517    0.0000 C   0  0  0  0  0  0  0  0  0  0  0  0
    6.6795   -4.2255    0.0000 C   0  0  0  0  0  0  0  0  0  0  0  0
    5.9180   -4.5428    0.0000 C   0  0  0  0  0  0  0  0  0  0  0  0
    5.9844   -5.3651    0.0000 C   0  0  0  0  0  0  0  0  0  0  0  0
    6.7870   -5.5560    0.0000 C   0  0  0  0  0  0  0  0  0  0  0  0
    5.2390   -5.0114    0.0000 C   0  0  0  0  0  0  0  0  0  0  0  0
    5.7106   -6.1433    0.0000 C   0  0  0  0  0  0  0  0  0  0  0  0
    6.2477   -6.7696    0.0000 C   0  0  0  0  0  0  0  0  0  0  0  0
    4.8998   -6.2953    0.0000 C   0  0  0  0  0  0  0  0  0  0  0  0
    6.8705   -3.4229    0.0000 C   0  0  0  0  0  0  0  0  0  0  0  0
    8.0389   -4.7853    0.0000 O   0  0  0  0  0  0  0  0  0  0  0  0
    8.5076   -5.4642    0.0000 C   0  0  0  0  0  0  0  0  0  0  0  0
    9.3299   -5.3978    0.0000 C   0  0  0  0  0  0  0  0  0  0  0  0
    8.1540   -6.2096    0.0000 O   0  0  0  0  0  0  0  0  0  0  0  0
  1  2  1  0  0  0  0
  2  3  1  0  0  0  0
  3  4  1  0  0  0  0
  4  5  1  0  0  0  0
  5  1  1  0  0  0  0
  3  6  1  0  0  0  0
  6  4  1  0  0  0  0
  4  7  1  0  0  0  0
  7  8  1  0  0  0  0
  7  9  1  0  0  0  0
  2 10  2  0  0  0  0
  1 11  1  0  0  0  0
 11 12  1  0  0  0  0
 12 13  1  0  0  0  0
 12 14  2  0  0  0  0
M  END
>  <cdx:fragmentId>
5

$$$$
