916214.cdx
  Mrv1902 05222410212D          

 29 33  0  0  0  0            999 V2000
    6.8019   -6.0087    0.0000 H   0  0  0  0  0  0  0  0  0  0  0  0
    8.4656   -7.8411    0.0000 H   0  0  0  0  0  0  0  0  0  0  0  0
   10.0991   -8.5357    0.0000 C   0  0  0  0  0  0  0  0  0  0  0  0
    9.3829   -8.1261    0.0000 C   0  0  0  0  0  0  0  0  0  0  0  0
    9.3795   -7.3011    0.0000 C   0  0  0  0  0  0  0  0  0  0  0  0
   10.0922   -6.8857    0.0000 C   0  0  0  0  0  0  0  0  0  0  0  0
   10.8118   -8.1202    0.0000 C   0  0  0  0  0  0  0  0  0  0  0  0
   10.8084   -7.2952    0.0000 C   0  0  0  0  0  0  0  0  0  0  0  0
   11.5920   -7.0370    0.0000 O   0  0  0  0  0  0  0  0  0  0  0  0
   12.0796   -7.7025    0.0000 C   0  0  0  0  0  0  0  0  0  0  0  0
   11.5975   -8.3719    0.0000 O   0  0  0  0  0  0  0  0  0  0  0  0
    7.5015   -7.9465    0.0000 C   0  0  0  0  0  0  0  0  0  0  0  0
    6.6042   -6.9582    0.0000 C   0  0  1  0  0  0  0  0  0  0  0  0
    6.6938   -7.7783    0.0000 O   0  0  0  0  0  0  0  0  0  0  0  0
    8.6633   -6.8916    0.0000 C   0  0  2  0  0  0  0  0  0  0  0  0
    7.9110   -7.2303    0.0000 C   0  0  2  0  0  0  0  0  0  0  0  0
    7.3564   -6.6195    0.0000 C   0  0  2  0  0  0  0  0  0  0  0  0
    7.7660   -5.9033    0.0000 C   0  0  0  0  0  0  0  0  0  0  0  0
    8.5737   -6.0715    0.0000 O   0  0  0  0  0  0  0  0  0  0  0  0
    5.8880   -6.5486    0.0000 O   0  0  0  0  0  0  0  0  0  0  0  0
    2.3174   -6.9759    0.0000 C   0  0  0  0  0  0  0  0  0  0  0  0
    3.0301   -6.5605    0.0000 O   0  0  0  0  0  0  0  0  0  0  0  0
    3.0370   -8.2105    0.0000 O   0  0  0  0  0  0  0  0  0  0  0  0
    4.4659   -8.2045    0.0000 C   0  0  0  0  0  0  0  0  0  0  0  0
    5.1787   -7.7891    0.0000 C   0  0  0  0  0  0  0  0  0  0  0  0
    5.1752   -6.9641    0.0000 C   0  0  0  0  0  0  0  0  0  0  0  0
    4.4591   -6.5546    0.0000 C   0  0  0  0  0  0  0  0  0  0  0  0
    3.7463   -6.9700    0.0000 C   0  0  0  0  0  0  0  0  0  0  0  0
    3.7497   -7.7950    0.0000 C   0  0  0  0  0  0  0  0  0  0  0  0
 17  1  1  6  0  0  0
 16  2  1  6  0  0  0
 26 20  1  0  0  0  0
 13 20  1  6  0  0  0
 15  5  1  6  0  0  0
  6  8  2  0  0  0  0
  3  7  2  0  0  0  0
  4  3  1  0  0  0  0
  5  4  2  0  0  0  0
  6  5  1  0  0  0  0
 11  7  1  0  0  0  0
  8  7  1  0  0  0  0
  9  8  1  0  0  0  0
 10  9  1  0  0  0  0
 11 10  1  0  0  0  0
 12 16  1  0  0  0  0
 13 17  1  0  0  0  0
 14 12  1  0  0  0  0
 14 13  1  0  0  0  0
 19 15  1  0  0  0  0
 16 15  1  0  0  0  0
 17 16  1  0  0  0  0
 18 17  1  0  0  0  0
 19 18  1  0  0  0  0
 28 22  1  0  0  0  0
 22 21  1  0  0  0  0
 29 23  1  0  0  0  0
 29 24  2  0  0  0  0
 25 24  1  0  0  0  0
 26 25  2  0  0  0  0
 27 26  1  0  0  0  0
 28 27  2  0  0  0  0
 29 28  1  0  0  0  0
M  END
>  <cdx:groupId>
2598

>  <cdx:fragmentId>
2546

$$$$
