91637.cdx
  Mrv1902 05222410252D          

 20 20  0  0  0  0            999 V2000
    3.1743  -11.2601    0.0000 C   0  0  0  0  0  0  0  0  0  0  0  0
    3.1743  -12.0851    0.0000 C   0  0  0  0  0  0  0  0  0  0  0  0
    3.8888  -12.4976    0.0000 C   0  0  0  0  0  0  0  0  0  0  0  0
    4.6032  -12.0851    0.0000 C   0  0  0  0  0  0  0  0  0  0  0  0
    4.6032  -11.2601    0.0000 C   0  0  0  0  0  0  0  0  0  0  0  0
    3.8888  -10.8476    0.0000 C   0  0  0  0  0  0  0  0  0  0  0  0
    2.4598  -12.4976    0.0000 O   0  0  0  0  0  0  0  0  0  0  0  0
    5.3177  -10.8476    0.0000 C   0  0  0  0  0  0  0  0  0  0  0  0
    6.0322  -11.2601    0.0000 C   0  0  0  0  0  0  0  0  0  0  0  0
    6.7467  -10.8476    0.0000 C   0  0  0  0  0  0  0  0  0  0  0  0
    7.4611  -11.2601    0.0000 C   0  0  0  0  0  0  0  0  0  0  0  0
    8.1756  -10.8476    0.0000 C   0  0  0  0  0  0  0  0  0  0  0  0
    8.8901  -11.2601    0.0000 C   0  0  0  0  0  0  0  0  0  0  0  0
    9.6045  -10.8476    0.0000 C   0  0  0  0  0  0  0  0  0  0  0  0
   10.0170  -11.5621    0.0000 C   0  0  0  0  0  0  0  0  0  0  0  0
    9.1920  -10.1332    0.0000 C   0  0  0  0  0  0  0  0  0  0  0  0
   10.3190  -10.4351    0.0000 O   0  0  0  0  0  0  0  0  0  0  0  0
    6.3342  -10.1332    0.0000 C   0  0  0  0  0  0  0  0  0  0  0  0
    7.1592  -10.1332    0.0000 C   0  0  0  0  0  0  0  0  0  0  0  0
    7.9842  -10.1332    0.0000 C   0  0  0  0  0  0  0  0  0  0  0  0
  1  2  2  0  0  0  0
  2  3  1  0  0  0  0
  3  4  2  0  0  0  0
  4  5  1  0  0  0  0
  5  6  2  0  0  0  0
  6  1  1  0  0  0  0
  2  7  1  0  0  0  0
  5  8  1  0  0  0  0
  8  9  2  0  0  0  0
  9 10  1  0  0  0  0
 10 11  1  0  0  0  0
 11 12  1  0  0  0  0
 12 13  2  0  0  0  0
 13 14  1  0  0  0  0
 14 15  1  0  0  0  0
 14 16  1  0  0  0  0
 14 17  1  0  0  0  0
 10 18  1  0  0  0  0
 10 19  1  0  0  0  0
 19 20  2  0  0  0  0
M  END
>  <cdx:fragmentId>
5

$$$$
