9163.cdx
  Mrv1902 05222410272D          

 19 20  0  0  0  0            999 V2000
    7.2994  -10.7563    0.0000 O   0  0  0  0  0  0  0  0  0  0  0  0
    7.2848   -9.9314    0.0000 C   0  0  0  0  0  0  0  0  0  0  0  0
    9.0239  -10.3754    0.0000 O   0  0  0  0  0  0  0  0  0  0  0  0
    9.9836   -8.8586    0.0000 O   0  0  0  0  0  0  0  0  0  0  0  0
   10.2467   -4.8656    0.0000 C   0  0  0  0  0  0  0  0  0  0  0  0
    9.4499   -5.0792    0.0000 O   0  0  0  0  0  0  0  0  0  0  0  0
    8.2474   -6.9008    0.0000 C   0  0  0  0  0  0  0  0  0  0  0  0
    8.4515   -6.1015    0.0000 C   0  0  0  0  0  0  0  0  0  0  0  0
    9.2458   -5.8785    0.0000 C   0  0  0  0  0  0  0  0  0  0  0  0
    9.8360   -6.4549    0.0000 C   0  0  0  0  0  0  0  0  0  0  0  0
    9.6319   -7.2543    0.0000 C   0  0  0  0  0  0  0  0  0  0  0  0
    8.8376   -7.4772    0.0000 C   0  0  0  0  0  0  0  0  0  0  0  0
    7.0426   -8.5479    0.0000 C   0  0  0  0  0  0  0  0  0  0  0  0
    7.4837   -7.8507    0.0000 C   0  0  0  0  0  0  0  0  0  0  0  0
    8.6335   -8.2766    0.0000 C   0  0  2  0  0  0  0  0  0  0  0  0
    9.1603   -8.9116    0.0000 C   0  0  2  0  0  0  0  0  0  0  0  0
    8.7192   -9.6087    0.0000 C   0  0  1  0  0  0  0  0  0  0  0  0
    7.9198   -9.4046    0.0000 C   0  0  2  0  0  0  0  0  0  0  0  0
    7.8669   -8.5813    0.0000 N   0  3  1  0  0  0  0  0  0  0  0  0
  2  1  1  0  0  0  0
 18  2  1  1  0  0  0
 17  3  1  6  0  0  0
 16  4  1  1  0  0  0
 15 12  1  6  0  0  0
  9  6  1  0  0  0  0
  6  5  1  0  0  0  0
 12  7  2  0  0  0  0
  8  7  1  0  0  0  0
  9  8  2  0  0  0  0
 10  9  1  0  0  0  0
 11 10  2  0  0  0  0
 12 11  1  0  0  0  0
 19 13  1  1  0  0  0
 19 14  1  6  0  0  0
 19 15  1  0  0  0  0
 16 15  1  0  0  0  0
 17 16  1  0  0  0  0
 18 17  1  0  0  0  0
 19 18  1  0  0  0  0
M  CHG  1  19   1
M  END
>  <cdx:fragmentId>
36002

$$$$
