91633.cdx
  Mrv1902 05222410242D          

 15 15  0  0  0  0            999 V2000
    5.0031   -8.1801    0.0000 C   0  0  0  0  0  0  0  0  0  0  0  0
    5.0031   -9.0051    0.0000 C   0  0  0  0  0  0  0  0  0  0  0  0
    5.7175   -9.4176    0.0000 C   0  0  0  0  0  0  0  0  0  0  0  0
    6.4320   -9.0051    0.0000 C   0  0  0  0  0  0  0  0  0  0  0  0
    6.4320   -8.1801    0.0000 C   0  0  0  0  0  0  0  0  0  0  0  0
    5.7175   -7.7676    0.0000 C   0  0  0  0  0  0  0  0  0  0  0  0
    4.2886   -9.4176    0.0000 O   0  0  0  0  0  0  0  0  0  0  0  0
    5.7175  -10.2426    0.0000 O   0  0  0  0  0  0  0  0  0  0  0  0
    7.1465   -7.7676    0.0000 C   0  0  0  0  0  0  0  0  0  0  0  0
    7.8609   -8.1801    0.0000 C   0  0  0  0  0  0  0  0  0  0  0  0
    8.5754   -7.7676    0.0000 C   0  0  0  0  0  0  0  0  0  0  0  0
    9.2899   -8.1801    0.0000 C   0  0  0  0  0  0  0  0  0  0  0  0
    8.5754   -6.9426    0.0000 O   0  0  0  0  0  0  0  0  0  0  0  0
    6.4320  -10.6551    0.0000 C   0  0  0  0  0  0  0  0  0  0  0  0
    7.8609   -6.5301    0.0000 C   0  0  0  0  0  0  0  0  0  0  0  0
  1  2  2  0  0  0  0
  2  3  1  0  0  0  0
  3  4  2  0  0  0  0
  4  5  1  0  0  0  0
  5  6  2  0  0  0  0
  6  1  1  0  0  0  0
  2  7  1  0  0  0  0
  3  8  1  0  0  0  0
  5  9  1  0  0  0  0
  9 10  1  0  0  0  0
 10 11  1  0  0  0  0
 11 12  1  0  0  0  0
 11 13  1  0  0  0  0
  8 14  1  0  0  0  0
 13 15  1  0  0  0  0
M  END
>  <cdx:fragmentId>
5

$$$$
