916315.cdx
  Mrv1902 05222410182D          

 28 29  0  0  0  0            999 V2000
    3.1452   -7.6863    0.0000 C   0  0  0  0  0  0  0  0  0  0  0  0
    3.1452   -8.5113    0.0000 C   0  0  0  0  0  0  0  0  0  0  0  0
    3.8596   -8.9238    0.0000 C   0  0  0  0  0  0  0  0  0  0  0  0
    4.5741   -8.5113    0.0000 C   0  0  0  0  0  0  0  0  0  0  0  0
    4.5741   -7.6863    0.0000 C   0  0  0  0  0  0  0  0  0  0  0  0
    3.8596   -7.2738    0.0000 C   0  0  0  0  0  0  0  0  0  0  0  0
    5.2886   -8.9238    0.0000 C   0  0  0  0  0  0  0  0  0  0  0  0
    6.0030   -8.5113    0.0000 C   0  0  0  0  0  0  0  0  0  0  0  0
    6.0030   -7.6863    0.0000 C   0  0  0  0  0  0  0  0  0  0  0  0
    5.2886   -7.2738    0.0000 O   0  0  0  0  0  0  0  0  0  0  0  0
    5.2886   -9.7487    0.0000 O   0  0  0  0  0  0  0  0  0  0  0  0
    6.7175   -8.9238    0.0000 O   0  0  0  0  0  0  0  0  0  0  0  0
    2.4307   -7.2738    0.0000 O   0  0  0  0  0  0  0  0  0  0  0  0
    7.4320   -8.5113    0.0000 C   0  0  0  0  0  0  0  0  0  0  0  0
    8.1465   -8.9238    0.0000 C   0  0  0  0  0  0  0  0  0  0  0  0
    8.8609   -8.5113    0.0000 C   0  0  0  0  0  0  0  0  0  0  0  0
    8.8609   -7.6863    0.0000 C   0  0  0  0  0  0  0  0  0  0  0  0
    8.1465   -7.2737    0.0000 C   0  0  0  0  0  0  0  0  0  0  0  0
    7.4320   -7.6863    0.0000 C   0  0  0  0  0  0  0  0  0  0  0  0
    8.1465   -9.7487    0.0000 O   0  0  0  0  0  0  0  0  0  0  0  0
    9.5754   -7.2738    0.0000 C   0  0  0  0  0  0  0  0  0  0  0  0
   10.2899   -7.6863    0.0000 C   0  0  0  0  0  0  0  0  0  0  0  0
   11.0043   -7.2738    0.0000 C   0  0  0  0  0  0  0  0  0  0  0  0
   11.7188   -7.6862    0.0000 O   0  0  0  0  0  0  0  0  0  0  0  0
   11.0043   -6.4487    0.0000 O   0  0  0  0  0  0  0  0  0  0  0  0
    3.8596   -6.4487    0.0000 O   0  0  0  0  0  0  0  0  0  0  0  0
    4.5741   -6.0362    0.0000 C   0  0  0  0  0  0  0  0  0  0  0  0
    8.8609  -10.1612    0.0000 C   0  0  0  0  0  0  0  0  0  0  0  0
  1  2  2  0  0  0  0
  2  3  1  0  0  0  0
  3  4  2  0  0  0  0
  4  5  1  0  0  0  0
  5  6  2  0  0  0  0
  6  1  1  0  0  0  0
  4  7  1  0  0  0  0
  7  8  1  0  0  0  0
  8  9  1  0  0  0  0
  9 10  1  0  0  0  0
  7 11  1  0  0  0  0
  8 12  1  0  0  0  0
  1 13  1  0  0  0  0
 12 14  1  0  0  0  0
 14 15  2  0  0  0  0
 15 16  1  0  0  0  0
 16 17  2  0  0  0  0
 17 18  1  0  0  0  0
 18 19  2  0  0  0  0
 19 14  1  0  0  0  0
 15 20  1  0  0  0  0
 17 21  1  0  0  0  0
 21 22  2  0  0  0  0
 22 23  1  0  0  0  0
 23 24  1  0  0  0  0
 23 25  2  0  0  0  0
  6 26  1  0  0  0  0
 26 27  1  0  0  0  0
 20 28  1  0  0  0  0
M  END
>  <cdx:fragmentId>
5

$$$$
