91645.cdx
  Mrv1902 05222410272D          

 69 75  0  0  0  0            999 V2000
    4.0084   -9.3356    0.0000 C   0  0  0  0  0  0  0  0  0  0  0  0
    4.0098   -9.9131    0.0000 C   0  0  0  0  0  0  0  0  0  0  0  0
    4.5106  -10.2007    0.0000 C   0  0  0  0  0  0  0  0  0  0  0  0
    5.0100   -9.9108    0.0000 C   0  0  0  0  0  0  0  0  0  0  0  0
    5.0087   -9.3333    0.0000 C   0  0  0  0  0  0  0  0  0  0  0  0
    4.5079   -9.0457    0.0000 C   0  0  0  0  0  0  0  0  0  0  0  0
    5.5108  -10.1984    0.0000 C   0  0  0  0  0  0  0  0  0  0  0  0
    6.0103   -9.9085    0.0000 C   0  0  0  0  0  0  0  0  0  0  0  0
    6.0090   -9.3310    0.0000 C   0  0  0  0  0  0  0  0  0  0  0  0
    5.5082   -9.0434    0.0000 O   0  0  0  0  0  0  0  0  0  0  0  0
    4.5119  -10.7782    0.0000 O   0  0  0  0  0  0  0  0  0  0  0  0
    5.5121  -10.7759    0.0000 O   0  0  0  0  0  0  0  0  0  0  0  0
    6.5111  -10.1961    0.0000 O   0  0  0  0  0  0  0  0  0  0  0  0
    7.0092   -9.3288    0.0000 C   0  0  0  0  0  0  0  0  0  0  0  0
    6.5084   -9.0411    0.0000 C   0  0  0  0  0  0  0  0  0  0  0  0
    7.5087   -9.0389    0.0000 C   0  0  0  0  0  0  0  0  0  0  0  0
    7.5074   -8.4614    0.0000 C   0  0  0  0  0  0  0  0  0  0  0  0
    7.0066   -8.1738    0.0000 C   0  0  0  0  0  0  0  0  0  0  0  0
    6.5071   -8.4636    0.0000 C   0  0  0  0  0  0  0  0  0  0  0  0
    6.5124  -10.7736    0.0000 C   0  0  2  0  0  0  0  0  0  0  0  0
    7.0132  -11.0612    0.0000 C   0  0  1  0  0  0  0  0  0  0  0  0
    7.5126  -10.7714    0.0000 O   0  0  0  0  0  0  0  0  0  0  0  0
    6.0129  -11.0635    0.0000 O   0  0  0  0  0  0  0  0  0  0  0  0
    6.0142  -11.6410    0.0000 C   0  0  2  0  0  0  0  0  0  0  0  0
    6.5150  -11.9286    0.0000 C   0  0  2  0  0  0  0  0  0  0  0  0
    7.0145  -11.6387    0.0000 C   0  0  1  0  0  0  0  0  0  0  0  0
    3.5077   -9.0480    0.0000 O   0  0  0  0  0  0  0  0  0  0  0  0
    3.0082   -9.3379    0.0000 C   0  0  1  0  0  0  0  0  0  0  0  0
    3.0095   -9.9154    0.0000 C   0  0  1  0  0  0  0  0  0  0  0  0
    2.5074   -9.0503    0.0000 O   0  0  0  0  0  0  0  0  0  0  0  0
    2.0079   -9.3402    0.0000 C   0  0  2  0  0  0  0  0  0  0  0  0
    2.0093   -9.9177    0.0000 C   0  0  1  0  0  0  0  0  0  0  0  0
    2.5100  -10.2053    0.0000 C   0  0  1  0  0  0  0  0  0  0  0  0
    7.0053   -7.5963    0.0000 O   0  0  0  0  0  0  0  0  0  0  0  0
    8.0068   -8.1715    0.0000 O   0  0  0  0  0  0  0  0  0  0  0  0
    5.5148  -11.9309    0.0000 C   0  0  0  0  0  0  0  0  0  0  0  0
    1.5098  -10.2076    0.0000 O   0  0  0  0  0  0  0  0  0  0  0  0
    1.5071   -9.0526    0.0000 C   0  0  0  0  0  0  0  0  0  0  0  0
    2.5114  -10.7828    0.0000 O   0  0  0  0  0  0  0  0  0  0  0  0
    3.5103  -10.2030    0.0000 O   0  0  0  0  0  0  0  0  0  0  0  0
    7.5153  -11.9264    0.0000 O   0  0  0  0  0  0  0  0  0  0  0  0
    6.5163  -12.5061    0.0000 O   0  0  0  0  0  0  0  0  0  0  0  0
    8.0121  -10.4815    0.0000 C   0  0  1  0  0  0  0  0  0  0  0  0
    8.5129  -10.7691    0.0000 C   0  0  1  0  0  0  0  0  0  0  0  0
    9.0124  -10.4792    0.0000 C   0  0  2  0  0  0  0  0  0  0  0  0
    9.0111   -9.9017    0.0000 C   0  0  1  0  0  0  0  0  0  0  0  0
    8.5103   -9.6141    0.0000 C   0  0  2  0  0  0  0  0  0  0  0  0
    8.0108   -9.9040    0.0000 O   0  0  0  0  0  0  0  0  0  0  0  0
    8.5089   -9.0366    0.0000 C   0  0  0  0  0  0  0  0  0  0  0  0
    9.5132  -10.7668    0.0000 O   0  0  0  0  0  0  0  0  0  0  0  0
    8.5142  -11.3466    0.0000 O   0  0  0  0  0  0  0  0  0  0  0  0
    9.5105   -9.6118    0.0000 O   0  0  0  0  0  0  0  0  0  0  0  0
    9.0084   -8.7467    0.0000 O   0  0  0  0  0  0  0  0  0  0  0  0
    9.0071   -8.1692    0.0000 C   0  0  0  0  0  0  0  0  0  0  0  0
    9.5066   -7.8793    0.0000 C   0  0  0  0  0  0  0  0  0  0  0  0
    8.5063   -7.8816    0.0000 O   0  0  0  0  0  0  0  0  0  0  0  0
    9.5052   -7.3018    0.0000 C   0  0  0  0  0  0  0  0  0  0  0  0
   10.0047   -7.0119    0.0000 C   0  0  0  0  0  0  0  0  0  0  0  0
   10.5055   -7.2995    0.0000 C   0  0  0  0  0  0  0  0  0  0  0  0
   11.0050   -7.0096    0.0000 C   0  0  0  0  0  0  0  0  0  0  0  0
   11.0037   -6.4321    0.0000 C   0  0  0  0  0  0  0  0  0  0  0  0
   10.5029   -6.1445    0.0000 C   0  0  0  0  0  0  0  0  0  0  0  0
   10.0034   -6.4344    0.0000 C   0  0  0  0  0  0  0  0  0  0  0  0
   10.5015   -5.5670    0.0000 O   0  0  0  0  0  0  0  0  0  0  0  0
   10.0008   -5.2794    0.0000 C   0  0  0  0  0  0  0  0  0  0  0  0
   11.5031   -6.1422    0.0000 O   0  0  0  0  0  0  0  0  0  0  0  0
   11.5058   -7.2972    0.0000 O   0  0  0  0  0  0  0  0  0  0  0  0
    5.5161  -12.5084    0.0000 O   0  0  0  0  0  0  0  0  0  0  0  0
   12.0052   -7.0073    0.0000 C   0  0  0  0  0  0  0  0  0  0  0  0
  1  2  1  0  0  0  0
  2  3  2  0  0  0  0
  3  4  1  0  0  0  0
  4  5  2  0  0  0  0
  5  6  1  0  0  0  0
  6  1  2  0  0  0  0
  4  7  1  0  0  0  0
  7  8  1  0  0  0  0
  8  9  2  0  0  0  0
  9 10  1  0  0  0  0
 10  5  1  0  0  0  0
  3 11  1  0  0  0  0
 12  7  2  0  0  0  0
  8 13  1  0  0  0  0
 14 15  1  0  0  0  0
 15  9  1  0  0  0  0
 14 16  2  0  0  0  0
 16 17  1  0  0  0  0
 17 18  2  0  0  0  0
 18 19  1  0  0  0  0
 19 15  2  0  0  0  0
 20 13  1  6  0  0  0
 20 21  1  0  0  0  0
 21 22  1  1  0  0  0
 20 23  1  0  0  0  0
 23 24  1  0  0  0  0
 24 25  1  0  0  0  0
 25 26  1  0  0  0  0
 26 21  1  0  0  0  0
  1 27  1  0  0  0  0
 28 27  1  1  0  0  0
 28 29  1  0  0  0  0
 28 30  1  0  0  0  0
 30 31  1  0  0  0  0
 31 32  1  0  0  0  0
 32 33  1  0  0  0  0
 33 29  1  0  0  0  0
 18 34  1  0  0  0  0
 17 35  1  0  0  0  0
 24 36  1  6  0  0  0
 32 37  1  1  0  0  0
 31 38  1  6  0  0  0
 33 39  1  6  0  0  0
 29 40  1  6  0  0  0
 26 41  1  6  0  0  0
 25 42  1  6  0  0  0
 43 22  1  6  0  0  0
 43 44  1  0  0  0  0
 44 45  1  0  0  0  0
 45 46  1  0  0  0  0
 46 47  1  0  0  0  0
 47 48  1  0  0  0  0
 48 43  1  0  0  0  0
 47 49  1  6  0  0  0
 45 50  1  6  0  0  0
 44 51  1  1  0  0  0
 46 52  1  1  0  0  0
 49 53  1  0  0  0  0
 53 54  1  0  0  0  0
 54 55  1  0  0  0  0
 54 56  2  0  0  0  0
 55 57  2  0  0  0  0
 57 58  1  0  0  0  0
 58 59  2  0  0  0  0
 59 60  1  0  0  0  0
 60 61  2  0  0  0  0
 61 62  1  0  0  0  0
 62 63  2  0  0  0  0
 63 58  1  0  0  0  0
 62 64  1  0  0  0  0
 64 65  1  0  0  0  0
 61 66  1  0  0  0  0
 60 67  1  0  0  0  0
 36 68  1  0  0  0  0
 67 69  1  0  0  0  0
M  END
>  <cdx:fragmentId>
5

$$$$
