91648.cdx
  Mrv1902 05222410192D          

 37 40  0  0  0  0            999 V2000
    4.1571   -7.2329    0.0000 C   0  0  0  0  0  0  0  0  0  0  0  0
    4.8677   -7.6520    0.0000 C   0  0  0  0  0  0  0  0  0  0  0  0
    5.5860   -7.2463    0.0000 C   0  0  0  0  0  0  0  0  0  0  0  0
    5.5938   -6.4213    0.0000 C   0  0  0  0  0  0  0  0  0  0  0  0
    4.8832   -6.0021    0.0000 C   0  0  0  0  0  0  0  0  0  0  0  0
    4.1649   -6.4079    0.0000 C   0  0  0  0  0  0  0  0  0  0  0  0
    6.2966   -7.6654    0.0000 C   0  0  0  0  0  0  0  0  0  0  0  0
    7.0149   -7.2597    0.0000 C   0  0  0  0  0  0  0  0  0  0  0  0
    7.0226   -6.4347    0.0000 C   0  0  0  0  0  0  0  0  0  0  0  0
    6.3121   -6.0155    0.0000 O   0  0  0  0  0  0  0  0  0  0  0  0
    4.8600   -8.4770    0.0000 O   0  0  0  0  0  0  0  0  0  0  0  0
    6.2888   -8.4904    0.0000 O   0  0  0  0  0  0  0  0  0  0  0  0
    7.7255   -7.6789    0.0000 O   0  0  0  0  0  0  0  0  0  0  0  0
    8.4515   -6.4481    0.0000 C   0  0  0  0  0  0  0  0  0  0  0  0
    7.7409   -6.0289    0.0000 C   0  0  0  0  0  0  0  0  0  0  0  0
    9.1698   -6.0423    0.0000 C   0  0  0  0  0  0  0  0  0  0  0  0
    9.1776   -5.2174    0.0000 C   0  0  0  0  0  0  0  0  0  0  0  0
    8.4670   -4.7982    0.0000 C   0  0  0  0  0  0  0  0  0  0  0  0
    7.7487   -5.2040    0.0000 C   0  0  0  0  0  0  0  0  0  0  0  0
    9.8959   -4.8116    0.0000 O   0  0  0  0  0  0  0  0  0  0  0  0
    8.4747   -3.9732    0.0000 O   0  0  0  0  0  0  0  0  0  0  0  0
    6.9994   -8.9096    0.0000 O   0  0  0  0  0  0  0  0  0  0  0  0
    7.7177   -8.5038    0.0000 C   0  0  2  0  0  0  0  0  0  0  0  0
    6.9917   -9.7346    0.0000 C   0  0  1  0  0  0  0  0  0  0  0  0
    7.7022  -10.1537    0.0000 C   0  0  2  0  0  0  0  0  0  0  0  0
    8.4205   -9.7480    0.0000 C   0  0  1  0  0  0  0  0  0  0  0  0
    8.4283   -8.9230    0.0000 C   0  0  1  0  0  0  0  0  0  0  0  0
    6.2734  -10.1403    0.0000 C   0  0  0  0  0  0  0  0  0  0  0  0
    6.2656  -10.9653    0.0000 O   0  0  0  0  0  0  0  0  0  0  0  0
    7.6945  -10.9787    0.0000 O   0  0  0  0  0  0  0  0  0  0  0  0
    3.4543   -5.9887    0.0000 O   0  0  0  0  0  0  0  0  0  0  0  0
    5.5628   -9.7212    0.0000 O   0  0  0  0  0  0  0  0  0  0  0  0
    9.1311  -10.1672    0.0000 O   0  0  0  0  0  0  0  0  0  0  0  0
    9.1466   -8.5172    0.0000 O   0  0  0  0  0  0  0  0  0  0  0  0
    9.8572   -8.9364    0.0000 C   0  0  0  0  0  0  0  0  0  0  0  0
   10.5755   -8.5306    0.0000 C   0  0  0  0  0  0  0  0  0  0  0  0
    9.8494   -9.7614    0.0000 O   0  0  0  0  0  0  0  0  0  0  0  0
  1  2  1  0  0  0  0
  2  3  2  0  0  0  0
  3  4  1  0  0  0  0
  4  5  2  0  0  0  0
  5  6  1  0  0  0  0
  6  1  2  0  0  0  0
  3  7  1  0  0  0  0
  7  8  1  0  0  0  0
  8  9  2  0  0  0  0
  9 10  1  0  0  0  0
 10  4  1  0  0  0  0
  2 11  1  0  0  0  0
 12  7  2  0  0  0  0
  8 13  1  0  0  0  0
 14 15  1  0  0  0  0
 15  9  1  0  0  0  0
 14 16  2  0  0  0  0
 16 17  1  0  0  0  0
 17 18  2  0  0  0  0
 18 19  1  0  0  0  0
 19 15  2  0  0  0  0
 17 20  1  0  0  0  0
 21 18  1  0  0  0  0
 22 23  1  0  0  0  0
 23 13  1  1  0  0  0
 22 24  1  0  0  0  0
 24 25  1  0  0  0  0
 25 26  1  0  0  0  0
 26 27  1  0  0  0  0
 27 23  1  0  0  0  0
 24 28  1  1  0  0  0
 28 29  1  0  0  0  0
 25 30  1  6  0  0  0
  6 31  1  0  0  0  0
 28 32  2  0  0  0  0
 26 33  1  1  0  0  0
 27 34  1  6  0  0  0
 34 35  1  0  0  0  0
 35 36  1  0  0  0  0
 35 37  2  0  0  0  0
M  END
>  <cdx:fragmentId>
5

$$$$
