91644.cdx
  Mrv1902 05222410262D          

 13 13  0  0  0  0            999 V2000
    6.6683   -7.0379    0.0000 C   0  0  0  0  0  0  0  0  0  0  0  0
    6.4060   -7.8201    0.0000 C   0  0  1  0  0  0  0  0  0  0  0  0
    7.0689   -8.3112    0.0000 O   0  0  0  0  0  0  0  0  0  0  0  0
    7.7408   -7.8325    0.0000 C   0  0  2  0  0  0  0  0  0  0  0  0
    7.4932   -7.0455    0.0000 C   0  0  0  0  0  0  0  0  0  0  0  0
    5.8227   -8.4034    0.0000 C   0  0  0  0  0  0  0  0  0  0  0  0
    8.1533   -8.5470    0.0000 H   0  0  0  0  0  0  0  0  0  0  0  0
    5.7046   -7.3857    0.0000 C   0  0  0  0  0  0  0  0  0  0  0  0
    5.4911   -6.5888    0.0000 C   0  0  0  0  0  0  0  0  0  0  0  0
    8.5658   -7.8325    0.0000 C   0  0  0  0  0  0  0  0  0  0  0  0
    9.3908   -7.8325    0.0000 O   0  0  0  0  0  0  0  0  0  0  0  0
    8.5658   -7.0075    0.0000 C   0  0  0  0  0  0  0  0  0  0  0  0
    8.5658   -8.6575    0.0000 C   0  0  0  0  0  0  0  0  0  0  0  0
  1  2  1  0  0  0  0
  2  3  1  0  0  0  0
  3  4  1  0  0  0  0
  4  5  1  0  0  0  0
  5  1  1  0  0  0  0
  2  6  1  1  0  0  0
  4  7  1  1  0  0  0
  2  8  1  0  0  0  0
  8  9  2  0  0  0  0
  4 10  1  0  0  0  0
 10 11  1  0  0  0  0
 10 12  1  0  0  0  0
 10 13  1  0  0  0  0
M  END
>  <cdx:fragmentId>
5

$$$$
