91647.cdx
  Mrv1902 05222410262D          

 44 50  0  0  0  0            999 V2000
    2.8443   -6.7512    0.0000 C   0  0  0  0  0  0  0  0  0  0  0  0
    2.8443   -7.5762    0.0000 C   0  0  0  0  0  0  0  0  0  0  0  0
    3.5588   -7.9888    0.0000 C   0  0  0  0  0  0  0  0  0  0  0  0
    4.2732   -7.5762    0.0000 C   0  0  0  0  0  0  0  0  0  0  0  0
    4.2732   -6.7512    0.0000 C   0  0  0  0  0  0  0  0  0  0  0  0
    3.5588   -6.3388    0.0000 C   0  0  0  0  0  0  0  0  0  0  0  0
    4.9877   -7.9888    0.0000 C   0  0  0  0  0  0  0  0  0  0  0  0
    5.7022   -7.5762    0.0000 C   0  0  0  0  0  0  0  0  0  0  0  0
    5.7022   -6.7512    0.0000 C   0  0  0  0  0  0  0  0  0  0  0  0
    4.9877   -6.3388    0.0000 O   0  0  0  0  0  0  0  0  0  0  0  0
    6.4167   -7.9888    0.0000 O   0  0  0  0  0  0  0  0  0  0  0  0
    7.1311   -7.5762    0.0000 C   0  0  0  0  0  0  0  0  0  0  0  0
    7.1311   -6.7512    0.0000 C   0  0  0  0  0  0  0  0  0  0  0  0
    6.4167   -6.3388    0.0000 O   0  0  0  0  0  0  0  0  0  0  0  0
    7.8456   -7.9888    0.0000 C   0  0  0  0  0  0  0  0  0  0  0  0
    8.5601   -7.5762    0.0000 C   0  0  0  0  0  0  0  0  0  0  0  0
    8.5601   -6.7512    0.0000 C   0  0  0  0  0  0  0  0  0  0  0  0
    7.8456   -6.3388    0.0000 C   0  0  0  0  0  0  0  0  0  0  0  0
    8.5601   -9.2262    0.0000 O   0  0  0  0  0  0  0  0  0  0  0  0
    9.2745   -8.8138    0.0000 C   0  0  0  0  0  0  0  0  0  0  0  0
    9.2745   -7.9888    0.0000 C   0  0  0  0  0  0  0  0  0  0  0  0
    9.9890   -9.2263    0.0000 C   0  0  0  0  0  0  0  0  0  0  0  0
   10.7035   -8.8138    0.0000 C   0  0  0  0  0  0  0  0  0  0  0  0
   10.7035   -7.9888    0.0000 C   0  0  0  0  0  0  0  0  0  0  0  0
    9.9890   -7.5762    0.0000 O   0  0  0  0  0  0  0  0  0  0  0  0
   11.4180   -9.2263    0.0000 C   0  0  0  0  0  0  0  0  0  0  0  0
   12.1324   -8.8138    0.0000 C   0  0  0  0  0  0  0  0  0  0  0  0
   12.1324   -7.9888    0.0000 C   0  0  0  0  0  0  0  0  0  0  0  0
   11.4180   -7.5762    0.0000 C   0  0  0  0  0  0  0  0  0  0  0  0
    9.9890  -10.0512    0.0000 O   0  0  0  0  0  0  0  0  0  0  0  0
   11.4180  -10.0512    0.0000 O   0  0  0  0  0  0  0  0  0  0  0  0
    5.7022   -5.9262    0.0000 C   0  0  0  0  0  0  0  0  0  0  0  0
    6.4167   -5.5137    0.0000 C   0  0  0  0  0  0  0  0  0  0  0  0
    6.4167   -4.6887    0.0000 C   0  0  0  0  0  0  0  0  0  0  0  0
    5.7022   -4.2762    0.0000 C   0  0  0  0  0  0  0  0  0  0  0  0
    4.9877   -4.6887    0.0000 C   0  0  0  0  0  0  0  0  0  0  0  0
    4.9877   -5.5137    0.0000 C   0  0  0  0  0  0  0  0  0  0  0  0
    5.7022   -3.4512    0.0000 O   0  0  0  0  0  0  0  0  0  0  0  0
    7.1311   -4.2763    0.0000 O   0  0  0  0  0  0  0  0  0  0  0  0
    4.9877   -8.8138    0.0000 O   0  0  0  0  0  0  0  0  0  0  0  0
    3.5588   -8.8138    0.0000 O   0  0  0  0  0  0  0  0  0  0  0  0
    2.1298   -6.3388    0.0000 O   0  0  0  0  0  0  0  0  0  0  0  0
   12.8469   -7.5762    0.0000 O   0  0  0  0  0  0  0  0  0  0  0  0
    5.7022   -8.4013    0.0000 O   0  0  0  0  0  0  0  0  0  0  0  0
  1  2  2  0  0  0  0
  2  3  1  0  0  0  0
  3  4  2  0  0  0  0
  4  5  1  0  0  0  0
  5  6  2  0  0  0  0
  6  1  1  0  0  0  0
  4  7  1  0  0  0  0
  7  8  1  0  0  0  0
  8  9  1  0  0  0  0
  9 10  1  0  0  0  0
 10  5  1  0  0  0  0
  8 11  1  0  0  0  0
 11 12  1  0  0  0  0
 12 13  2  0  0  0  0
 13 14  1  0  0  0  0
 14  9  1  0  0  0  0
 12 15  1  0  0  0  0
 15 16  2  0  0  0  0
 16 17  1  0  0  0  0
 17 18  2  0  0  0  0
 18 13  1  0  0  0  0
 19 20  1  0  0  0  0
 20 21  2  0  0  0  0
 21 16  1  0  0  0  0
 20 22  1  0  0  0  0
 22 23  1  0  0  0  0
 23 24  2  0  0  0  0
 24 25  1  0  0  0  0
 25 21  1  0  0  0  0
 23 26  1  0  0  0  0
 26 27  2  0  0  0  0
 27 28  1  0  0  0  0
 28 29  2  0  0  0  0
 29 24  1  0  0  0  0
 22 30  2  0  0  0  0
 31 26  1  0  0  0  0
  9 32  1  0  0  0  0
 32 33  2  0  0  0  0
 33 34  1  0  0  0  0
 34 35  2  0  0  0  0
 35 36  1  0  0  0  0
 36 37  2  0  0  0  0
 37 32  1  0  0  0  0
 35 38  1  0  0  0  0
 34 39  1  0  0  0  0
  7 40  2  0  0  0  0
  3 41  1  0  0  0  0
  1 42  1  0  0  0  0
 28 43  1  0  0  0  0
  8 44  1  0  0  0  0
M  END
>  <cdx:fragmentId>
5

$$$$
