91646.cdx
  Mrv1902 05222410262D          

 54 59  0  0  0  0            999 V2000
    3.7518   -4.8114    0.0000 C   0  0  0  0  0  0  0  0  0  0  0  0
    3.7518   -5.6364    0.0000 C   0  0  0  0  0  0  0  0  0  0  0  0
    4.4663   -6.0489    0.0000 C   0  0  0  0  0  0  0  0  0  0  0  0
    5.1807   -5.6364    0.0000 C   0  0  0  0  0  0  0  0  0  0  0  0
    5.1807   -4.8114    0.0000 C   0  0  0  0  0  0  0  0  0  0  0  0
    4.4663   -4.3989    0.0000 C   0  0  0  0  0  0  0  0  0  0  0  0
    5.8952   -6.0489    0.0000 C   0  0  0  0  0  0  0  0  0  0  0  0
    6.6097   -5.6364    0.0000 C   0  0  0  0  0  0  0  0  0  0  0  0
    6.6097   -4.8114    0.0000 C   0  0  0  0  0  0  0  0  0  0  0  0
    5.8952   -4.3989    0.0000 O   0  0  0  0  0  0  0  0  0  0  0  0
    4.4663   -6.8739    0.0000 O   0  0  0  0  0  0  0  0  0  0  0  0
    5.8952   -6.8739    0.0000 O   0  0  0  0  0  0  0  0  0  0  0  0
    5.8668   -9.3365    0.0000 O   0  0  0  0  0  0  0  0  0  0  0  0
    8.0386   -4.8114    0.0000 C   0  0  0  0  0  0  0  0  0  0  0  0
    7.3242   -4.3989    0.0000 C   0  0  0  0  0  0  0  0  0  0  0  0
    8.7531   -4.3989    0.0000 C   0  0  0  0  0  0  0  0  0  0  0  0
    8.7531   -3.5739    0.0000 C   0  0  0  0  0  0  0  0  0  0  0  0
    8.0386   -3.1614    0.0000 C   0  0  0  0  0  0  0  0  0  0  0  0
    7.3242   -3.5739    0.0000 C   0  0  0  0  0  0  0  0  0  0  0  0
    9.4676   -3.1614    0.0000 O   0  0  0  0  0  0  0  0  0  0  0  0
    8.0386   -2.3364    0.0000 O   0  0  0  0  0  0  0  0  0  0  0  0
    4.4379   -9.3313    0.0000 O   0  0  0  0  0  0  0  0  0  0  0  0
    5.1509   -9.7464    0.0000 C   0  0  2  0  0  0  0  0  0  0  0  0
    3.7219   -9.7413    0.0000 C   0  0  2  0  0  0  0  0  0  0  0  0
    8.7459   -6.8862    0.0000 O   0  0  0  0  0  0  0  0  0  0  0  0
    9.4590   -7.3012    0.0000 C   0  0  2  0  0  0  0  0  0  0  0  0
    9.4561   -8.1262    0.0000 O   0  0  0  0  0  0  0  0  0  0  0  0
    3.7190  -10.5663    0.0000 C   0  0  1  0  0  0  0  0  0  0  0  0
    4.4320  -10.9813    0.0000 C   0  0  2  0  0  0  0  0  0  0  0  0
   10.1691   -8.5411    0.0000 C   0  0  1  0  0  0  0  0  0  0  0  0
   10.8850   -8.1311    0.0000 C   0  0  2  0  0  0  0  0  0  0  0  0
   10.8879   -7.3061    0.0000 C   0  0  1  0  0  0  0  0  0  0  0  0
   10.1749   -6.8912    0.0000 C   0  0  1  0  0  0  0  0  0  0  0  0
   10.1663   -9.3661    0.0000 C   0  0  0  0  0  0  0  0  0  0  0  0
   10.8807   -9.7786    0.0000 O   0  0  0  0  0  0  0  0  0  0  0  0
   11.6038   -6.8961    0.0000 O   0  0  0  0  0  0  0  0  0  0  0  0
   11.5981   -8.5461    0.0000 O   0  0  0  0  0  0  0  0  0  0  0  0
   10.1749   -6.0662    0.0000 O   0  0  0  0  0  0  0  0  0  0  0  0
    5.1479  -10.5714    0.0000 C   0  0  1  0  0  0  0  0  0  0  0  0
    3.0030  -10.9762    0.0000 O   0  0  0  0  0  0  0  0  0  0  0  0
    5.8609  -10.9864    0.0000 O   0  0  0  0  0  0  0  0  0  0  0  0
    8.7317   -8.5361    0.0000 O   0  0  0  0  0  0  0  0  0  0  0  0
    4.4290  -11.8063    0.0000 O   0  0  0  0  0  0  0  0  0  0  0  0
    3.0089   -9.3262    0.0000 C   0  0  0  0  0  0  0  0  0  0  0  0
    3.0373   -4.3989    0.0000 O   0  0  0  0  0  0  0  0  0  0  0  0
    5.8739   -8.5115    0.0000 C   0  0  0  0  0  0  0  0  0  0  0  0
    7.2957   -9.3488    0.0000 O   0  0  0  0  0  0  0  0  0  0  0  0
    6.5990   -7.2802    0.0000 O   0  0  0  0  0  0  0  0  0  0  0  0
    6.5919   -8.1052    0.0000 C   0  0  1  0  0  0  0  0  0  0  0  0
    7.3028   -8.5238    0.0000 C   0  0  2  0  0  0  0  0  0  0  0  0
    8.0208   -8.1175    0.0000 C   0  0  1  0  0  0  0  0  0  0  0  0
    8.0279   -7.2925    0.0000 C   0  0  2  0  0  0  0  0  0  0  0  0
    7.3170   -6.8739    0.0000 C   0  0  2  0  0  0  0  0  0  0  0  0
    7.3242   -6.0489    0.0000 O   0  0  0  0  0  0  0  0  0  0  0  0
  1  2  2  0  0  0  0
  2  3  1  0  0  0  0
  3  4  2  0  0  0  0
  4  5  1  0  0  0  0
  5  6  2  0  0  0  0
  6  1  1  0  0  0  0
  4  7  1  0  0  0  0
  7  8  1  0  0  0  0
  8  9  2  0  0  0  0
  9 10  1  0  0  0  0
 10  5  1  0  0  0  0
  3 11  1  0  0  0  0
 12  7  2  0  0  0  0
  8 54  1  0  0  0  0
 14 15  2  0  0  0  0
 15  9  1  0  0  0  0
 14 16  1  0  0  0  0
 16 17  2  0  0  0  0
 17 18  1  0  0  0  0
 18 19  2  0  0  0  0
 19 15  1  0  0  0  0
 17 20  1  0  0  0  0
 21 18  1  0  0  0  0
 22 23  1  0  0  0  0
 23 13  1  1  0  0  0
 26 25  1  1  0  0  0
 26 27  1  0  0  0  0
 27 30  1  0  0  0  0
 30 31  1  0  0  0  0
 31 32  1  0  0  0  0
 32 33  1  0  0  0  0
 33 26  1  0  0  0  0
 30 34  1  1  0  0  0
 34 35  1  0  0  0  0
 32 36  1  1  0  0  0
 31 37  1  6  0  0  0
 22 24  1  0  0  0  0
 24 28  1  0  0  0  0
 28 29  1  0  0  0  0
 29 39  1  0  0  0  0
 39 23  1  0  0  0  0
 28 40  1  1  0  0  0
 51 42  1  1  0  0  0
 52 25  1  6  0  0  0
 33 38  1  6  0  0  0
 39 41  1  6  0  0  0
 29 43  1  6  0  0  0
 49 46  1  1  0  0  0
 13 46  1  0  0  0  0
  1 45  1  0  0  0  0
 50 47  1  6  0  0  0
 24 44  1  6  0  0  0
 48 53  1  0  0  0  0
 49 48  1  0  0  0  0
 50 49  1  0  0  0  0
 51 50  1  0  0  0  0
 52 51  1  0  0  0  0
 53 52  1  0  0  0  0
 53 54  1  1  0  0  0
M  END
>  <cdx:fragmentId>
5

$$$$
