91657.cdx
  Mrv1902 05222410282D          

 44 48  0  0  0  0            999 V2000
    4.6787   -8.9735    0.0000 C   0  0  0  0  0  0  0  0  0  0  0  0
    5.3936   -9.3853    0.0000 C   0  0  0  0  0  0  0  0  0  0  0  0
    6.1077   -8.9720    0.0000 C   0  0  0  0  0  0  0  0  0  0  0  0
    6.1068   -8.1470    0.0000 C   0  0  0  0  0  0  0  0  0  0  0  0
    5.3919   -7.7353    0.0000 C   0  0  0  0  0  0  0  0  0  0  0  0
    4.6779   -8.1485    0.0000 C   0  0  0  0  0  0  0  0  0  0  0  0
    6.8225   -9.3838    0.0000 C   0  0  0  0  0  0  0  0  0  0  0  0
    7.5366   -8.9706    0.0000 C   0  0  0  0  0  0  0  0  0  0  0  0
    7.5358   -8.1456    0.0000 C   0  0  0  0  0  0  0  0  0  0  0  0
    6.8209   -7.7338    0.0000 O   0  0  0  0  0  0  0  0  0  0  0  0
    5.3944  -10.2103    0.0000 O   0  0  0  0  0  0  0  0  0  0  0  0
    6.8234  -10.2088    0.0000 O   0  0  0  0  0  0  0  0  0  0  0  0
    8.2515   -9.3824    0.0000 O   0  0  0  0  0  0  0  0  0  0  0  0
    8.9647   -8.1441    0.0000 C   0  0  0  0  0  0  0  0  0  0  0  0
    8.2498   -7.7324    0.0000 C   0  0  0  0  0  0  0  0  0  0  0  0
    9.6788   -7.7309    0.0000 C   0  0  0  0  0  0  0  0  0  0  0  0
    9.6779   -6.9059    0.0000 C   0  0  0  0  0  0  0  0  0  0  0  0
    8.9630   -6.4942    0.0000 C   0  0  0  0  0  0  0  0  0  0  0  0
    8.2490   -6.9074    0.0000 C   0  0  0  0  0  0  0  0  0  0  0  0
   10.3920   -6.4927    0.0000 O   0  0  0  0  0  0  0  0  0  0  0  0
    3.9630   -7.7367    0.0000 O   0  0  0  0  0  0  0  0  0  0  0  0
    8.2523  -10.2074    0.0000 C   0  0  2  0  0  0  0  0  0  0  0  0
    7.5383  -10.6206    0.0000 O   0  0  0  0  0  0  0  0  0  0  0  0
    7.5391  -11.4456    0.0000 C   0  0  1  0  0  0  0  0  0  0  0  0
    8.2540  -11.8574    0.0000 C   0  0  2  0  0  0  0  0  0  0  0  0
    8.9680  -11.4441    0.0000 C   0  0  1  0  0  0  0  0  0  0  0  0
    8.9672  -10.6191    0.0000 C   0  0  1  0  0  0  0  0  0  0  0  0
    8.2548  -12.6824    0.0000 O   0  0  0  0  0  0  0  0  0  0  0  0
    6.8251  -11.8588    0.0000 C   0  0  0  0  0  0  0  0  0  0  0  0
    9.6829  -11.8559    0.0000 O   0  0  0  0  0  0  0  0  0  0  0  0
    9.6813  -10.2059    0.0000 O   0  0  0  0  0  0  0  0  0  0  0  0
    6.8153  -12.6779    0.0000 O   0  0  0  0  0  0  0  0  0  0  0  0
    6.1013  -13.0911    0.0000 C   0  0  2  0  0  0  0  0  0  0  0  0
    5.3864  -12.6793    0.0000 O   0  0  0  0  0  0  0  0  0  0  0  0
    4.6723  -13.0925    0.0000 C   0  0  1  0  0  0  0  0  0  0  0  0
    4.6731  -13.9175    0.0000 C   0  0  2  0  0  0  0  0  0  0  0  0
    5.3880  -14.3293    0.0000 C   0  0  1  0  0  0  0  0  0  0  0  0
    6.1021  -13.9161    0.0000 C   0  0  1  0  0  0  0  0  0  0  0  0
    3.9574  -12.6808    0.0000 C   0  0  0  0  0  0  0  0  0  0  0  0
    5.3889  -15.1543    0.0000 O   0  0  0  0  0  0  0  0  0  0  0  0
    6.8170  -14.3279    0.0000 O   0  0  0  0  0  0  0  0  0  0  0  0
    3.9591  -14.3308    0.0000 O   0  0  0  0  0  0  0  0  0  0  0  0
    3.2434  -13.0940    0.0000 O   0  0  0  0  0  0  0  0  0  0  0  0
   10.3936   -8.1427    0.0000 O   0  0  0  0  0  0  0  0  0  0  0  0
  1  2  1  0  0  0  0
  2  3  2  0  0  0  0
  3  4  1  0  0  0  0
  4  5  2  0  0  0  0
  5  6  1  0  0  0  0
  6  1  2  0  0  0  0
  3  7  1  0  0  0  0
  7  8  1  0  0  0  0
  8  9  2  0  0  0  0
  9 10  1  0  0  0  0
 10  4  1  0  0  0  0
  2 11  1  0  0  0  0
 12  7  2  0  0  0  0
  8 13  1  0  0  0  0
 14 15  1  0  0  0  0
 15  9  1  0  0  0  0
 14 16  2  0  0  0  0
 16 17  1  0  0  0  0
 17 18  2  0  0  0  0
 18 19  1  0  0  0  0
 19 15  2  0  0  0  0
 17 20  1  0  0  0  0
  6 21  1  0  0  0  0
 22 13  1  1  0  0  0
 22 23  1  0  0  0  0
 23 24  1  0  0  0  0
 24 25  1  0  0  0  0
 25 26  1  0  0  0  0
 26 27  1  0  0  0  0
 27 22  1  0  0  0  0
 25 28  1  6  0  0  0
 24 29  1  1  0  0  0
 26 30  1  1  0  0  0
 27 31  1  6  0  0  0
 33 32  1  1  0  0  0
 33 34  1  0  0  0  0
 34 35  1  0  0  0  0
 35 36  1  0  0  0  0
 36 37  1  0  0  0  0
 37 38  1  0  0  0  0
 38 33  1  0  0  0  0
 35 39  1  1  0  0  0
 37 40  1  1  0  0  0
 38 41  1  6  0  0  0
 36 42  1  6  0  0  0
 39 43  1  0  0  0  0
 29 32  1  0  0  0  0
 16 44  1  0  0  0  0
M  END
>  <cdx:fragmentId>
5

$$$$
