91650.cdx
  Mrv1902 05222410262D          

 59 64  0  0  0  0            999 V2000
    2.8512  -12.2845    0.0000 C   0  0  0  0  0  0  0  0  0  0  0  0
    2.8512  -13.1095    0.0000 C   0  0  0  0  0  0  0  0  0  0  0  0
    3.5656  -13.5220    0.0000 C   0  0  0  0  0  0  0  0  0  0  0  0
    4.2801  -13.1095    0.0000 C   0  0  0  0  0  0  0  0  0  0  0  0
    4.2801  -12.2845    0.0000 C   0  0  0  0  0  0  0  0  0  0  0  0
    3.5656  -11.8720    0.0000 C   0  0  0  0  0  0  0  0  0  0  0  0
    4.9946  -13.5220    0.0000 C   0  0  0  0  0  0  0  0  0  0  0  0
    5.7091  -13.1095    0.0000 C   0  0  0  0  0  0  0  0  0  0  0  0
    6.4235  -13.5220    0.0000 C   0  0  0  0  0  0  0  0  0  0  0  0
    7.1380  -13.1095    0.0000 O   0  0  0  0  0  0  0  0  0  0  0  0
    7.8525  -13.5220    0.0000 C   0  0  0  0  0  0  0  0  0  0  0  0
    8.5669  -13.1095    0.0000 C   0  0  1  0  0  0  0  0  0  0  0  0
    8.5669  -12.2845    0.0000 O   0  0  0  0  0  0  0  0  0  0  0  0
    7.8525  -11.8720    0.0000 O   0  0  0  0  0  0  0  0  0  0  0  0
    9.2814  -13.5220    0.0000 C   0  0  2  0  0  0  0  0  0  0  0  0
    9.9959  -13.1095    0.0000 C   0  0  1  0  0  0  0  0  0  0  0  0
    9.9959  -12.2845    0.0000 C   0  0  2  0  0  0  0  0  0  0  0  0
    9.2814  -11.8720    0.0000 C   0  0  2  0  0  0  0  0  0  0  0  0
    9.2814  -11.0470    0.0000 O   0  0  0  0  0  0  0  0  0  0  0  0
    8.5669  -10.6345    0.0000 C   0  0  2  0  0  0  0  0  0  0  0  0
    7.8525  -11.0470    0.0000 C   0  0  2  0  0  0  0  0  0  0  0  0
    8.5669   -9.8095    0.0000 C   0  0  1  0  0  0  0  0  0  0  0  0
    7.8525   -9.3970    0.0000 O   0  0  0  0  0  0  0  0  0  0  0  0
    7.1380   -9.8095    0.0000 C   0  0  1  0  0  0  0  0  0  0  0  0
    7.1380  -10.6345    0.0000 C   0  0  2  0  0  0  0  0  0  0  0  0
    6.4235   -9.3970    0.0000 C   0  0  0  0  0  0  0  0  0  0  0  0
    5.7091   -9.8095    0.0000 O   0  0  0  0  0  0  0  0  0  0  0  0
    6.4235  -11.0470    0.0000 O   0  0  0  0  0  0  0  0  0  0  0  0
    9.2814   -9.3970    0.0000 O   0  0  0  0  0  0  0  0  0  0  0  0
    9.2814   -8.5720    0.0000 C   0  0  0  0  0  0  0  0  0  0  0  0
    8.5669   -8.1595    0.0000 C   0  0  0  0  0  0  0  0  0  0  0  0
    7.8525   -8.5720    0.0000 O   0  0  0  0  0  0  0  0  0  0  0  0
    9.9959   -8.1595    0.0000 C   0  0  0  0  0  0  0  0  0  0  0  0
    9.9959   -7.3345    0.0000 O   0  0  0  0  0  0  0  0  0  0  0  0
    9.2814   -6.9220    0.0000 C   0  0  0  0  0  0  0  0  0  0  0  0
    8.5669   -7.3345    0.0000 C   0  0  0  0  0  0  0  0  0  0  0  0
    9.2814   -6.0970    0.0000 C   0  0  0  0  0  0  0  0  0  0  0  0
    8.5669   -5.6845    0.0000 C   0  0  0  0  0  0  0  0  0  0  0  0
    7.8525   -6.0970    0.0000 C   0  0  0  0  0  0  0  0  0  0  0  0
    7.8525   -6.9220    0.0000 C   0  0  0  0  0  0  0  0  0  0  0  0
    7.1380   -7.3345    0.0000 O   0  0  0  0  0  0  0  0  0  0  0  0
   10.7104   -9.3970    0.0000 C   0  0  0  0  0  0  0  0  0  0  0  0
   10.7104   -8.5720    0.0000 C   0  0  0  0  0  0  0  0  0  0  0  0
   11.4248   -9.8095    0.0000 C   0  0  0  0  0  0  0  0  0  0  0  0
   12.1393   -9.3970    0.0000 C   0  0  0  0  0  0  0  0  0  0  0  0
   12.1393   -8.5720    0.0000 C   0  0  0  0  0  0  0  0  0  0  0  0
   11.4248   -8.1595    0.0000 C   0  0  0  0  0  0  0  0  0  0  0  0
    2.1367  -11.8720    0.0000 O   0  0  0  0  0  0  0  0  0  0  0  0
    2.1367  -13.5220    0.0000 O   0  0  0  0  0  0  0  0  0  0  0  0
    2.1367  -14.3470    0.0000 C   0  0  0  0  0  0  0  0  0  0  0  0
    6.4235  -14.3470    0.0000 O   0  0  0  0  0  0  0  0  0  0  0  0
    8.5669   -4.8595    0.0000 O   0  0  0  0  0  0  0  0  0  0  0  0
   12.8538   -8.1595    0.0000 O   0  0  0  0  0  0  0  0  0  0  0  0
   12.8538   -9.8095    0.0000 O   0  0  0  0  0  0  0  0  0  0  0  0
   10.7104  -13.5220    0.0000 O   0  0  0  0  0  0  0  0  0  0  0  0
   10.7104  -11.8720    0.0000 O   0  0  0  0  0  0  0  0  0  0  0  0
    9.2814  -14.3470    0.0000 O   0  0  0  0  0  0  0  0  0  0  0  0
    3.5656  -11.0470    0.0000 O   0  0  0  0  0  0  0  0  0  0  0  0
    4.2801  -10.6345    0.0000 C   0  0  0  0  0  0  0  0  0  0  0  0
  1  2  2  0  0  0  0
  2  3  1  0  0  0  0
  3  4  2  0  0  0  0
  4  5  1  0  0  0  0
  5  6  2  0  0  0  0
  6  1  1  0  0  0  0
  4  7  1  0  0  0  0
  7  8  2  0  0  0  0
  8  9  1  0  0  0  0
  9 10  1  0  0  0  0
 10 11  1  0  0  0  0
 12 11  1  1  0  0  0
 12 13  1  0  0  0  0
 12 15  1  0  0  0  0
 15 16  1  0  0  0  0
 16 17  1  0  0  0  0
 17 18  1  0  0  0  0
 18 13  1  0  0  0  0
 18 19  1  1  0  0  0
 20 19  1  6  0  0  0
 20 21  1  0  0  0  0
 21 14  1  1  0  0  0
 20 22  1  0  0  0  0
 22 23  1  0  0  0  0
 23 24  1  0  0  0  0
 24 25  1  0  0  0  0
 25 21  1  0  0  0  0
 24 26  1  1  0  0  0
 26 27  1  0  0  0  0
 25 28  1  1  0  0  0
 22 29  1  1  0  0  0
 29 30  1  0  0  0  0
 30 31  1  0  0  0  0
 31 32  2  0  0  0  0
 30 33  2  0  0  0  0
 33 34  1  0  0  0  0
 34 35  1  0  0  0  0
 35 36  1  0  0  0  0
 36 31  1  0  0  0  0
 35 37  2  0  0  0  0
 37 38  1  0  0  0  0
 38 39  2  0  0  0  0
 39 40  1  0  0  0  0
 40 36  2  0  0  0  0
 40 41  1  0  0  0  0
 42 43  1  0  0  0  0
 43 33  1  0  0  0  0
 42 44  2  0  0  0  0
 44 45  1  0  0  0  0
 45 46  2  0  0  0  0
 46 47  1  0  0  0  0
 47 43  2  0  0  0  0
  1 48  1  0  0  0  0
  2 49  1  0  0  0  0
 49 50  1  0  0  0  0
  9 51  2  0  0  0  0
 38 52  1  0  0  0  0
 46 53  1  0  0  0  0
 45 54  1  0  0  0  0
 16 55  1  1  0  0  0
 17 56  1  6  0  0  0
 15 57  1  6  0  0  0
  6 58  1  0  0  0  0
 58 59  1  0  0  0  0
M  END
>  <cdx:fragmentId>
5

$$$$
