91655.cdx
  Mrv1902 05222410272D          

 66 72  0  0  0  0            999 V2000
   14.3903   -9.2157    0.0000 C   0  0  0  0  0  0  0  0  0  0  0  0
   15.1030   -9.6313    0.0000 C   0  0  0  0  0  0  0  0  0  0  0  0
   15.8192   -9.2219    0.0000 C   0  0  0  0  0  0  0  0  0  0  0  0
   15.8228   -8.3969    0.0000 C   0  0  0  0  0  0  0  0  0  0  0  0
   15.1102   -7.9813    0.0000 C   0  0  0  0  0  0  0  0  0  0  0  0
   14.3939   -8.3907    0.0000 C   0  0  0  0  0  0  0  0  0  0  0  0
   16.5319   -9.6375    0.0000 C   0  0  0  0  0  0  0  0  0  0  0  0
   17.2482   -9.2282    0.0000 C   0  0  0  0  0  0  0  0  0  0  0  0
   17.2518   -8.4032    0.0000 C   0  0  0  0  0  0  0  0  0  0  0  0
   16.5391   -7.9876    0.0000 O   0  0  0  0  0  0  0  0  0  0  0  0
   15.0994  -10.4563    0.0000 O   0  0  0  0  0  0  0  0  0  0  0  0
   16.5283  -10.4625    0.0000 O   0  0  0  0  0  0  0  0  0  0  0  0
   17.9608   -9.6438    0.0000 O   0  0  0  0  0  0  0  0  0  0  0  0
   18.6807   -8.4094    0.0000 C   0  0  0  0  0  0  0  0  0  0  0  0
   17.9680   -7.9938    0.0000 C   0  0  0  0  0  0  0  0  0  0  0  0
   19.3970   -8.0000    0.0000 C   0  0  0  0  0  0  0  0  0  0  0  0
   19.4006   -7.1750    0.0000 C   0  0  0  0  0  0  0  0  0  0  0  0
   18.6879   -6.7594    0.0000 C   0  0  0  0  0  0  0  0  0  0  0  0
   17.9716   -7.1688    0.0000 C   0  0  0  0  0  0  0  0  0  0  0  0
   20.1168   -6.7656    0.0000 O   0  0  0  0  0  0  0  0  0  0  0  0
   18.6915   -5.9344    0.0000 O   0  0  0  0  0  0  0  0  0  0  0  0
   13.6812   -7.9751    0.0000 O   0  0  0  0  0  0  0  0  0  0  0  0
   17.9572  -10.4688    0.0000 C   0  0  2  0  0  0  0  0  0  0  0  0
   17.2410  -10.8781    0.0000 O   0  0  0  0  0  0  0  0  0  0  0  0
   17.2374  -11.7031    0.0000 C   0  0  2  0  0  0  0  0  0  0  0  0
   17.9501  -12.1187    0.0000 C   0  0  1  0  0  0  0  0  0  0  0  0
   18.6663  -11.7094    0.0000 C   0  0  2  0  0  0  0  0  0  0  0  0
   18.6699  -10.8844    0.0000 C   0  0  1  0  0  0  0  0  0  0  0  0
   17.9465  -12.9437    0.0000 O   0  0  0  0  0  0  0  0  0  0  0  0
   16.5211  -12.1125    0.0000 C   0  0  0  0  0  0  0  0  0  0  0  0
   19.3790  -12.1250    0.0000 O   0  0  0  0  0  0  0  0  0  0  0  0
   19.3862  -10.4750    0.0000 O   0  0  0  0  0  0  0  0  0  0  0  0
   12.9650   -8.3845    0.0000 C   0  0  2  0  0  0  0  0  0  0  0  0
   12.2523   -7.9689    0.0000 O   0  0  0  0  0  0  0  0  0  0  0  0
   11.5361   -8.3783    0.0000 C   0  0  2  0  0  0  0  0  0  0  0  0
   11.5325   -9.2033    0.0000 C   0  0  1  0  0  0  0  0  0  0  0  0
   12.2451   -9.6189    0.0000 C   0  0  2  0  0  0  0  0  0  0  0  0
   12.9614   -9.2095    0.0000 C   0  0  1  0  0  0  0  0  0  0  0  0
   10.8162   -9.6126    0.0000 O   0  0  0  0  0  0  0  0  0  0  0  0
   10.8234   -7.9627    0.0000 C   0  0  0  0  0  0  0  0  0  0  0  0
   12.2415  -10.4439    0.0000 O   0  0  0  0  0  0  0  0  0  0  0  0
   13.6741   -9.6251    0.0000 O   0  0  0  0  0  0  0  0  0  0  0  0
   11.5253  -10.8532    0.0000 C   0  0  2  0  0  0  0  0  0  0  0  0
   10.8126  -10.4376    0.0000 O   0  0  0  0  0  0  0  0  0  0  0  0
   10.0963  -10.8470    0.0000 C   0  0  1  0  0  0  0  0  0  0  0  0
   10.0927  -11.6720    0.0000 C   0  0  2  0  0  0  0  0  0  0  0  0
   10.8054  -12.0876    0.0000 C   0  0  1  0  0  0  0  0  0  0  0  0
   11.5217  -11.6782    0.0000 C   0  0  1  0  0  0  0  0  0  0  0  0
    9.3837  -10.4314    0.0000 C   0  0  0  0  0  0  0  0  0  0  0  0
   10.8018  -12.9126    0.0000 O   0  0  0  0  0  0  0  0  0  0  0  0
   12.2343  -12.0938    0.0000 O   0  0  0  0  0  0  0  0  0  0  0  0
    9.3765  -12.0814    0.0000 O   0  0  0  0  0  0  0  0  0  0  0  0
    8.6674  -10.8408    0.0000 O   0  0  0  0  0  0  0  0  0  0  0  0
    7.9547  -10.4252    0.0000 C   0  0  0  0  0  0  0  0  0  0  0  0
    7.2385  -10.8346    0.0000 C   0  0  0  0  0  0  0  0  0  0  0  0
    7.9583   -9.6002    0.0000 O   0  0  0  0  0  0  0  0  0  0  0  0
    6.5258  -10.4189    0.0000 C   0  0  0  0  0  0  0  0  0  0  0  0
    5.8096  -10.8283    0.0000 C   0  0  0  0  0  0  0  0  0  0  0  0
    5.0969  -10.4127    0.0000 C   0  0  0  0  0  0  0  0  0  0  0  0
    4.3806  -10.8221    0.0000 C   0  0  0  0  0  0  0  0  0  0  0  0
    4.3770  -11.6471    0.0000 C   0  0  0  0  0  0  0  0  0  0  0  0
    5.0897  -12.0627    0.0000 C   0  0  0  0  0  0  0  0  0  0  0  0
    5.8060  -11.6533    0.0000 C   0  0  0  0  0  0  0  0  0  0  0  0
    3.6608  -12.0565    0.0000 O   0  0  0  0  0  0  0  0  0  0  0  0
    5.0861  -12.8877    0.0000 O   0  0  0  0  0  0  0  0  0  0  0  0
    4.3698  -13.2971    0.0000 C   0  0  0  0  0  0  0  0  0  0  0  0
  1  2  1  0  0  0  0
  2  3  2  0  0  0  0
  3  4  1  0  0  0  0
  4  5  2  0  0  0  0
  5  6  1  0  0  0  0
  6  1  2  0  0  0  0
  3  7  1  0  0  0  0
  7  8  1  0  0  0  0
  8  9  2  0  0  0  0
  9 10  1  0  0  0  0
 10  4  1  0  0  0  0
  2 11  1  0  0  0  0
 12  7  2  0  0  0  0
  8 13  1  0  0  0  0
 14 15  1  0  0  0  0
 15  9  1  0  0  0  0
 14 16  2  0  0  0  0
 16 17  1  0  0  0  0
 17 18  2  0  0  0  0
 18 19  1  0  0  0  0
 19 15  2  0  0  0  0
 17 20  1  0  0  0  0
 21 18  1  0  0  0  0
  6 22  1  0  0  0  0
 23 13  1  1  0  0  0
 23 24  1  0  0  0  0
 24 25  1  0  0  0  0
 25 26  1  0  0  0  0
 26 27  1  0  0  0  0
 27 28  1  0  0  0  0
 28 23  1  0  0  0  0
 26 29  1  1  0  0  0
 25 30  1  6  0  0  0
 27 31  1  6  0  0  0
 28 32  1  6  0  0  0
 33 22  1  1  0  0  0
 33 34  1  0  0  0  0
 34 35  1  0  0  0  0
 35 36  1  0  0  0  0
 36 37  1  0  0  0  0
 37 38  1  0  0  0  0
 38 33  1  0  0  0  0
 36 39  1  1  0  0  0
 35 40  1  6  0  0  0
 37 41  1  6  0  0  0
 38 42  1  6  0  0  0
 43 41  1  1  0  0  0
 43 44  1  0  0  0  0
 44 45  1  0  0  0  0
 45 46  1  0  0  0  0
 46 47  1  0  0  0  0
 47 48  1  0  0  0  0
 48 43  1  0  0  0  0
 45 49  1  1  0  0  0
 47 50  1  1  0  0  0
 48 51  1  6  0  0  0
 46 52  1  6  0  0  0
 49 53  1  0  0  0  0
 53 54  1  0  0  0  0
 54 55  1  0  0  0  0
 54 56  2  0  0  0  0
 55 57  2  0  0  0  0
 57 58  1  0  0  0  0
 58 59  2  0  0  0  0
 59 60  1  0  0  0  0
 60 61  2  0  0  0  0
 61 62  1  0  0  0  0
 62 63  2  0  0  0  0
 63 58  1  0  0  0  0
 61 64  1  0  0  0  0
 62 65  1  0  0  0  0
 65 66  1  0  0  0  0
M  END
>  <cdx:fragmentId>
5

$$$$
