91652.cdx
  Mrv1902 05222410262D          

 37 40  0  0  0  0            999 V2000
    3.8004   -7.4558    0.0000 C   0  0  0  0  0  0  0  0  0  0  0  0
    4.5136   -7.8706    0.0000 C   0  0  0  0  0  0  0  0  0  0  0  0
    5.2294   -7.4603    0.0000 C   0  0  0  0  0  0  0  0  0  0  0  0
    5.2320   -6.6353    0.0000 C   0  0  0  0  0  0  0  0  0  0  0  0
    4.5188   -6.2206    0.0000 C   0  0  0  0  0  0  0  0  0  0  0  0
    3.8030   -6.6308    0.0000 C   0  0  0  0  0  0  0  0  0  0  0  0
    5.9425   -7.8751    0.0000 C   0  0  0  0  0  0  0  0  0  0  0  0
    6.6583   -7.4648    0.0000 C   0  0  0  0  0  0  0  0  0  0  0  0
    6.6609   -6.6398    0.0000 C   0  0  0  0  0  0  0  0  0  0  0  0
    5.9477   -6.2251    0.0000 O   0  0  0  0  0  0  0  0  0  0  0  0
    4.5110   -8.6956    0.0000 O   0  0  0  0  0  0  0  0  0  0  0  0
    5.9399   -8.7001    0.0000 O   0  0  0  0  0  0  0  0  0  0  0  0
    7.3715   -7.8795    0.0000 O   0  0  0  0  0  0  0  0  0  0  0  0
    8.0898   -6.6443    0.0000 C   0  0  0  0  0  0  0  0  0  0  0  0
    7.3767   -6.2296    0.0000 C   0  0  0  0  0  0  0  0  0  0  0  0
    8.8056   -6.2340    0.0000 C   0  0  0  0  0  0  0  0  0  0  0  0
    8.8082   -5.4090    0.0000 C   0  0  0  0  0  0  0  0  0  0  0  0
    8.0950   -4.9943    0.0000 C   0  0  0  0  0  0  0  0  0  0  0  0
    7.3792   -5.4046    0.0000 C   0  0  0  0  0  0  0  0  0  0  0  0
    9.5239   -4.9988    0.0000 O   0  0  0  0  0  0  0  0  0  0  0  0
    8.0976   -4.1693    0.0000 O   0  0  0  0  0  0  0  0  0  0  0  0
    6.6531   -9.1148    0.0000 O   0  0  0  0  0  0  0  0  0  0  0  0
    7.3689   -8.7045    0.0000 C   0  0  2  0  0  0  0  0  0  0  0  0
    6.6505   -9.9398    0.0000 C   0  0  1  0  0  0  0  0  0  0  0  0
    7.3637  -10.3545    0.0000 C   0  0  2  0  0  0  0  0  0  0  0  0
    8.0795   -9.9443    0.0000 C   0  0  1  0  0  0  0  0  0  0  0  0
    8.0821   -9.1193    0.0000 C   0  0  1  0  0  0  0  0  0  0  0  0
    5.9348  -10.3500    0.0000 C   0  0  0  0  0  0  0  0  0  0  0  0
    5.9322  -11.1750    0.0000 O   0  0  0  0  0  0  0  0  0  0  0  0
    7.3611  -11.1795    0.0000 O   0  0  0  0  0  0  0  0  0  0  0  0
    3.0898   -6.2161    0.0000 O   0  0  0  0  0  0  0  0  0  0  0  0
    5.2216   -9.9353    0.0000 O   0  0  0  0  0  0  0  0  0  0  0  0
    8.7926  -10.3590    0.0000 O   0  0  0  0  0  0  0  0  0  0  0  0
    8.7978   -8.7090    0.0000 O   0  0  0  0  0  0  0  0  0  0  0  0
    9.5084   -9.9488    0.0000 C   0  0  0  0  0  0  0  0  0  0  0  0
   10.2216  -10.3635    0.0000 O   0  0  0  0  0  0  0  0  0  0  0  0
    9.5110   -9.1238    0.0000 C   0  0  0  0  0  0  0  0  0  0  0  0
  1  2  1  0  0  0  0
  2  3  2  0  0  0  0
  3  4  1  0  0  0  0
  4  5  2  0  0  0  0
  5  6  1  0  0  0  0
  6  1  2  0  0  0  0
  3  7  1  0  0  0  0
  7  8  1  0  0  0  0
  8  9  2  0  0  0  0
  9 10  1  0  0  0  0
 10  4  1  0  0  0  0
  2 11  1  0  0  0  0
 12  7  2  0  0  0  0
  8 13  1  0  0  0  0
 14 15  1  0  0  0  0
 15  9  1  0  0  0  0
 14 16  2  0  0  0  0
 16 17  1  0  0  0  0
 17 18  2  0  0  0  0
 18 19  1  0  0  0  0
 19 15  2  0  0  0  0
 17 20  1  0  0  0  0
 21 18  1  0  0  0  0
 22 23  1  0  0  0  0
 23 13  1  1  0  0  0
 22 24  1  0  0  0  0
 24 25  1  0  0  0  0
 25 26  1  0  0  0  0
 26 27  1  0  0  0  0
 27 23  1  0  0  0  0
 24 28  1  1  0  0  0
 28 29  1  0  0  0  0
 25 30  1  6  0  0  0
  6 31  1  0  0  0  0
 28 32  2  0  0  0  0
 26 33  1  1  0  0  0
 27 34  1  6  0  0  0
 33 35  1  0  0  0  0
 35 36  2  0  0  0  0
 35 37  1  0  0  0  0
M  END
>  <cdx:fragmentId>
5

$$$$
