916556.cdx
  Mrv1902 05222410252D          

 46 50  0  0  0  0            999 V2000
   10.2393   -8.9080    0.0000 C   0  0  0  0  0  0  0  0  0  0  0  0
   11.0462   -8.7365    0.0000 O   0  0  0  0  0  0  0  0  0  0  0  0
    9.6872   -8.2949    0.0000 N   0  0  0  0  0  0  0  0  0  0  0  0
    9.9422   -7.5103    0.0000 C   0  0  0  0  0  0  0  0  0  0  0  0
    9.3901   -6.8972    0.0000 C   0  0  0  0  0  0  0  0  0  0  0  0
    9.6451   -6.1126    0.0000 C   0  0  0  0  0  0  0  0  0  0  0  0
    9.0930   -5.4995    0.0000 C   0  0  0  0  0  0  0  0  0  0  0  0
    9.3480   -4.7149    0.0000 C   0  0  0  0  0  0  0  0  0  0  0  0
   10.1550   -4.5433    0.0000 C   0  0  0  0  0  0  0  0  0  0  0  0
   10.7070   -5.1564    0.0000 C   0  0  0  0  0  0  0  0  0  0  0  0
   10.4520   -5.9411    0.0000 C   0  0  0  0  0  0  0  0  0  0  0  0
   10.4099   -3.7587    0.0000 O   0  0  0  0  0  0  0  0  0  0  0  0
   13.7692  -10.3601    0.0000 O   0  0  0  0  0  0  0  0  0  0  0  0
   13.7692  -11.7890    0.0000 C   0  0  0  0  0  0  0  0  0  0  0  0
   12.9442  -11.7890    0.0000 O   0  0  0  0  0  0  0  0  0  0  0  0
   11.7067   -9.6456    0.0000 C   0  0  0  0  0  0  0  0  0  0  0  0
   12.5317   -9.6456    0.0000 C   0  0  0  0  0  0  0  0  0  0  0  0
   12.9442  -10.3601    0.0000 C   0  0  0  0  0  0  0  0  0  0  0  0
   12.5317  -11.0746    0.0000 C   0  0  0  0  0  0  0  0  0  0  0  0
   11.7067  -11.0746    0.0000 C   0  0  0  0  0  0  0  0  0  0  0  0
   11.2942  -10.3601    0.0000 C   0  0  0  0  0  0  0  0  0  0  0  0
    0.6260   -8.2976    0.0000 O   0  0  0  0  0  0  0  0  0  0  0  0
    2.0550   -9.9476    0.0000 C   0  0  0  0  0  0  0  0  0  0  0  0
    1.3405   -9.5351    0.0000 C   0  0  0  0  0  0  0  0  0  0  0  0
    1.3405   -8.7101    0.0000 C   0  0  0  0  0  0  0  0  0  0  0  0
    2.0550   -8.2976    0.0000 C   0  0  0  0  0  0  0  0  0  0  0  0
    2.7695   -8.7101    0.0000 C   0  0  0  0  0  0  0  0  0  0  0  0
    2.7695   -9.5351    0.0000 C   0  0  0  0  0  0  0  0  0  0  0  0
    3.4839   -9.9476    0.0000 C   0  0  0  0  0  0  0  0  0  0  0  0
    4.1984   -9.5351    0.0000 C   0  0  0  0  0  0  0  0  0  0  0  0
    4.9129   -9.9476    0.0000 N   0  0  0  0  0  0  0  0  0  0  0  0
    5.6273   -8.7101    0.0000 O   0  0  0  0  0  0  0  0  0  0  0  0
    5.6273   -9.5351    0.0000 C   0  0  0  0  0  0  0  0  0  0  0  0
    6.3418   -9.9476    0.0000 C   0  0  0  0  0  0  0  0  0  0  0  0
    7.0563   -9.5351    0.0000 C   0  0  0  0  0  0  0  0  0  0  0  0
    9.1997  -12.4226    0.0000 C   0  0  0  0  0  0  0  0  0  0  0  0
    8.4852  -12.0101    0.0000 O   0  0  0  0  0  0  0  0  0  0  0  0
    9.1997  -10.7726    0.0000 C   0  0  0  0  0  0  0  0  0  0  0  0
    8.4852  -11.1851    0.0000 C   0  0  0  0  0  0  0  0  0  0  0  0
    7.7708  -10.7726    0.0000 C   0  0  0  0  0  0  0  0  0  0  0  0
    7.7708   -9.9476    0.0000 C   0  0  0  0  0  0  0  0  0  0  0  0
    8.4852   -9.5351    0.0000 C   0  0  0  0  0  0  0  0  0  0  0  0
    9.1997   -9.9476    0.0000 C   0  0  0  0  0  0  0  0  0  0  0  0
    9.9843   -9.6926    0.0000 C   0  0  1  0  0  0  0  0  0  0  0  0
   10.4692  -10.3601    0.0000 C   0  0  1  0  0  0  0  0  0  0  0  0
    9.9843  -11.0275    0.0000 O   0  0  0  0  0  0  0  0  0  0  0  0
 45 21  1  6  0  0  0
 18 13  1  0  0  0  0
 19 15  1  0  0  0  0
 15 14  1  0  0  0  0
 21 16  2  0  0  0  0
 17 16  1  0  0  0  0
 18 17  2  0  0  0  0
 19 18  1  0  0  0  0
 20 19  2  0  0  0  0
 21 20  1  0  0  0  0
 41 35  1  0  0  0  0
 33 31  1  0  0  0  0
 31 30  1  0  0  0  0
 29 28  1  0  0  0  0
 25 22  1  0  0  0  0
 28 23  2  0  0  0  0
 24 23  1  0  0  0  0
 25 24  2  0  0  0  0
 26 25  1  0  0  0  0
 27 26  2  0  0  0  0
 28 27  1  0  0  0  0
 30 29  1  0  0  0  0
 33 32  2  0  0  0  0
 34 33  1  0  0  0  0
 35 34  2  0  0  0  0
 39 37  1  0  0  0  0
 37 36  1  0  0  0  0
 44  1  1  6  0  0  0
 46 38  1  0  0  0  0
 43 38  2  0  0  0  0
 39 38  1  0  0  0  0
 40 39  2  0  0  0  0
 41 40  1  0  0  0  0
 42 41  2  0  0  0  0
 43 42  1  0  0  0  0
 44 43  1  0  0  0  0
 45 44  1  0  0  0  0
 46 45  1  0  0  0  0
  1  2  2  0  0  0  0
  1  3  1  0  0  0  0
  4  5  1  0  0  0  0
  6  7  1  0  0  0  0
  7  8  2  0  0  0  0
  8  9  1  0  0  0  0
  9 10  2  0  0  0  0
 10 11  1  0  0  0  0
  6 11  2  0  0  0  0
  9 12  1  0  0  0  0
  5  6  1  0  0  0  0
  3  4  1  0  0  0  0
M  END
>  <cdx:fragmentId>
220520

$$$$
