91659.cdx
  Mrv1902 05222410182D          

 42 46  0  0  0  0            999 V2000
    4.2743   -7.0801    0.0000 C   0  0  0  0  0  0  0  0  0  0  0  0
    4.2743   -7.9051    0.0000 C   0  0  0  0  0  0  0  0  0  0  0  0
    4.9888   -8.3176    0.0000 C   0  0  0  0  0  0  0  0  0  0  0  0
    5.7032   -7.9051    0.0000 C   0  0  0  0  0  0  0  0  0  0  0  0
    5.7032   -7.0801    0.0000 C   0  0  0  0  0  0  0  0  0  0  0  0
    4.9888   -6.6676    0.0000 C   0  0  0  0  0  0  0  0  0  0  0  0
    6.4177   -8.3176    0.0000 C   0  0  0  0  0  0  0  0  0  0  0  0
    7.1322   -7.9051    0.0000 C   0  0  0  0  0  0  0  0  0  0  0  0
    7.1322   -7.0801    0.0000 C   0  0  0  0  0  0  0  0  0  0  0  0
    6.4177   -6.6676    0.0000 O   0  0  0  0  0  0  0  0  0  0  0  0
    4.9888   -9.1426    0.0000 O   0  0  0  0  0  0  0  0  0  0  0  0
    6.4177   -9.1426    0.0000 O   0  0  0  0  0  0  0  0  0  0  0  0
    7.8467   -8.3176    0.0000 O   0  0  0  0  0  0  0  0  0  0  0  0
    8.5611   -7.0801    0.0000 C   0  0  0  0  0  0  0  0  0  0  0  0
    7.8467   -6.6676    0.0000 C   0  0  0  0  0  0  0  0  0  0  0  0
    9.2756   -6.6676    0.0000 C   0  0  0  0  0  0  0  0  0  0  0  0
    9.2756   -5.8426    0.0000 C   0  0  0  0  0  0  0  0  0  0  0  0
    8.5611   -5.4301    0.0000 C   0  0  0  0  0  0  0  0  0  0  0  0
    7.8467   -5.8426    0.0000 C   0  0  0  0  0  0  0  0  0  0  0  0
    7.8467   -9.1426    0.0000 C   0  0  2  0  0  0  0  0  0  0  0  0
    7.1322   -9.5551    0.0000 O   0  0  0  0  0  0  0  0  0  0  0  0
    7.1322  -10.3801    0.0000 C   0  0  1  0  0  0  0  0  0  0  0  0
    7.8467  -10.7926    0.0000 C   0  0  1  0  0  0  0  0  0  0  0  0
    8.5611  -10.3801    0.0000 C   0  0  1  0  0  0  0  0  0  0  0  0
    8.5611   -9.5551    0.0000 C   0  0  1  0  0  0  0  0  0  0  0  0
    6.4177  -10.7926    0.0000 C   0  0  0  0  0  0  0  0  0  0  0  0
    7.8467  -11.6176    0.0000 O   0  0  0  0  0  0  0  0  0  0  0  0
    9.2756  -10.7926    0.0000 O   0  0  0  0  0  0  0  0  0  0  0  0
    9.2756   -9.1426    0.0000 O   0  0  0  0  0  0  0  0  0  0  0  0
    6.4177  -11.6176    0.0000 O   0  0  0  0  0  0  0  0  0  0  0  0
    3.5598   -6.6676    0.0000 O   0  0  0  0  0  0  0  0  0  0  0  0
    9.9901   -5.4301    0.0000 O   0  0  0  0  0  0  0  0  0  0  0  0
    8.5611   -4.6051    0.0000 O   0  0  0  0  0  0  0  0  0  0  0  0
    9.9901   -9.5551    0.0000 C   0  0  2  0  0  0  0  0  0  0  0  0
    9.9901  -10.3801    0.0000 O   0  0  0  0  0  0  0  0  0  0  0  0
   10.7045  -10.7926    0.0000 C   0  0  0  0  0  0  0  0  0  0  0  0
   11.4190  -10.3801    0.0000 C   0  0  2  0  0  0  0  0  0  0  0  0
   11.4190   -9.5551    0.0000 C   0  0  1  0  0  0  0  0  0  0  0  0
   10.7045   -9.1426    0.0000 C   0  0  1  0  0  0  0  0  0  0  0  0
   12.1335  -10.7926    0.0000 O   0  0  0  0  0  0  0  0  0  0  0  0
   12.1335   -9.1426    0.0000 O   0  0  0  0  0  0  0  0  0  0  0  0
   10.7045   -8.3176    0.0000 O   0  0  0  0  0  0  0  0  0  0  0  0
  1  2  2  0  0  0  0
  2  3  1  0  0  0  0
  3  4  2  0  0  0  0
  4  5  1  0  0  0  0
  5  6  2  0  0  0  0
  6  1  1  0  0  0  0
  4  7  1  0  0  0  0
  7  8  1  0  0  0  0
  8  9  2  0  0  0  0
  9 10  1  0  0  0  0
 10  5  1  0  0  0  0
  3 11  1  0  0  0  0
 12  7  2  0  0  0  0
  8 13  1  0  0  0  0
 14 15  2  0  0  0  0
 15  9  1  0  0  0  0
 14 16  1  0  0  0  0
 16 17  2  0  0  0  0
 17 18  1  0  0  0  0
 18 19  2  0  0  0  0
 19 15  1  0  0  0  0
 20 13  1  1  0  0  0
 20 21  1  0  0  0  0
 21 22  1  0  0  0  0
 22 23  1  0  0  0  0
 23 24  1  0  0  0  0
 24 25  1  0  0  0  0
 25 20  1  0  0  0  0
 22 26  1  1  0  0  0
 23 27  1  1  0  0  0
 24 28  1  1  0  0  0
 25 29  1  6  0  0  0
 26 30  1  0  0  0  0
  1 31  1  0  0  0  0
 17 32  1  0  0  0  0
 18 33  1  0  0  0  0
 34 29  1  1  0  0  0
 34 35  1  0  0  0  0
 35 36  1  0  0  0  0
 36 37  1  0  0  0  0
 37 38  1  0  0  0  0
 38 39  1  0  0  0  0
 39 34  1  0  0  0  0
 37 40  1  6  0  0  0
 38 41  1  1  0  0  0
 39 42  1  6  0  0  0
M  END
>  <cdx:fragmentId>
450

$$$$
