91651.cdx
  Mrv1902 05222410272D          

 82 92  0  0  0  0            999 V2000
    8.5525   -5.6925    0.0000 O   0  0  0  0  0  0  0  0  0  0  0  0
    8.6326  -11.0482    0.0000 C   0  0  0  0  0  0  0  0  0  0  0  0
    9.0004  -10.3097    0.0000 C   0  0  0  0  0  0  0  0  0  0  0  0
    9.6737  -10.7863    0.0000 C   0  0  0  0  0  0  0  0  0  0  0  0
   10.4232  -10.4415    0.0000 C   0  0  0  0  0  0  0  0  0  0  0  0
   10.4993   -9.6200    0.0000 C   0  0  0  0  0  0  0  0  0  0  0  0
    9.8260   -9.1434    0.0000 C   0  0  0  0  0  0  0  0  0  0  0  0
    9.0765   -9.4882    0.0000 C   0  0  0  0  0  0  0  0  0  0  0  0
    8.8507   -8.6947    0.0000 C   0  0  0  0  0  0  0  0  0  0  0  0
    8.3535   -8.0363    0.0000 O   0  0  0  0  0  0  0  0  0  0  0  0
    7.6521   -7.6020    0.0000 C   0  0  1  0  0  0  0  0  0  0  0  0
    8.1889   -6.9755    0.0000 C   0  0  1  0  0  0  0  0  0  0  0  0
    7.9147   -6.1974    0.0000 C   0  0  2  0  0  0  0  0  0  0  0  0
    7.1037   -6.0458    0.0000 C   0  0  1  0  0  0  0  0  0  0  0  0
    6.5670   -6.6723    0.0000 O   0  0  0  0  0  0  0  0  0  0  0  0
    6.8411   -7.4504    0.0000 C   0  0  2  0  0  0  0  0  0  0  0  0
    5.7200   -7.6450    0.0000 C   0  0  0  0  0  0  0  0  0  0  0  0
    4.8950   -8.2225    0.0000 O   0  0  0  0  0  0  0  0  0  0  0  0
    4.3450   -8.9375    0.0000 C   0  0  0  0  0  0  0  0  0  0  0  0
    4.2758   -9.8457    0.0000 C   0  0  0  0  0  0  0  0  0  0  0  0
    3.5263   -9.5009    0.0000 C   0  0  0  0  0  0  0  0  0  0  0  0
    2.8530   -9.9775    0.0000 C   0  0  0  0  0  0  0  0  0  0  0  0
    2.9291  -10.7990    0.0000 C   0  0  0  0  0  0  0  0  0  0  0  0
    3.6786  -11.1438    0.0000 C   0  0  0  0  0  0  0  0  0  0  0  0
    4.3519  -10.6672    0.0000 C   0  0  0  0  0  0  0  0  0  0  0  0
    3.6305   -8.5250    0.0000 O   0  0  0  0  0  0  0  0  0  0  0  0
    9.5652   -8.2822    0.0000 O   0  0  0  0  0  0  0  0  0  0  0  0
    3.7547  -11.9653    0.0000 O   0  0  0  0  0  0  0  0  0  0  0  0
    2.2557  -11.2757    0.0000 O   0  0  0  0  0  0  0  0  0  0  0  0
    2.1035   -9.6327    0.0000 O   0  0  0  0  0  0  0  0  0  0  0  0
    6.8295   -5.2677    0.0000 O   0  0  0  0  0  0  0  0  0  0  0  0
    9.0139   -6.9755    0.0000 O   0  0  0  0  0  0  0  0  0  0  0  0
   11.2488   -9.2752    0.0000 O   0  0  0  0  0  0  0  0  0  0  0  0
   11.0966  -10.9182    0.0000 O   0  0  0  0  0  0  0  0  0  0  0  0
    9.5976  -11.6078    0.0000 O   0  0  0  0  0  0  0  0  0  0  0  0
    7.6521   -8.4270    0.0000 H   0  0  0  0  0  0  0  0  0  0  0  0
    6.1267   -7.0379    0.0000 H   0  0  0  0  0  0  0  0  0  0  0  0
    8.6319  -10.1924    0.0000 C   0  0  0  0  0  0  0  0  0  0  0  0
    7.9215   -9.7729    0.0000 C   0  0  0  0  0  0  0  0  0  0  0  0
    7.2030  -10.1785    0.0000 C   0  0  0  0  0  0  0  0  0  0  0  0
    7.1950  -11.0034    0.0000 C   0  0  0  0  0  0  0  0  0  0  0  0
    7.9054  -11.4229    0.0000 C   0  0  0  0  0  0  0  0  0  0  0  0
    6.4926   -9.7590    0.0000 O   0  0  0  0  0  0  0  0  0  0  0  0
    5.7741  -10.1646    0.0000 C   0  0  0  0  0  0  0  0  0  0  0  0
    5.7661  -10.9895    0.0000 C   0  0  0  0  0  0  0  0  0  0  0  0
    6.4765  -11.4090    0.0000 C   0  0  0  0  0  0  0  0  0  0  0  0
    6.4685  -12.2339    0.0000 C   0  0  0  0  0  0  0  0  0  0  0  0
    7.1789  -12.6533    0.0000 O   0  0  0  0  0  0  0  0  0  0  0  0
    7.8974  -12.2478    0.0000 C   0  0  0  0  0  0  0  0  0  0  0  0
    5.0477  -11.3951    0.0000 C   0  0  0  0  0  0  0  0  0  0  0  0
    5.0396  -12.2200    0.0000 C   0  0  0  0  0  0  0  0  0  0  0  0
    5.7501  -12.6394    0.0000 C   0  0  0  0  0  0  0  0  0  0  0  0
    5.0637   -9.7451    0.0000 O   0  0  0  0  0  0  0  0  0  0  0  0
    8.6078  -12.6673    0.0000 O   0  0  0  0  0  0  0  0  0  0  0  0
    4.3212  -12.6255    0.0000 O   0  0  0  0  0  0  0  0  0  0  0  0
    5.7420  -13.4644    0.0000 O   0  0  0  0  0  0  0  0  0  0  0  0
    7.9295   -8.9480    0.0000 O   0  0  0  0  0  0  0  0  0  0  0  0
    9.3482   -9.7830    0.0000 O   0  0  0  0  0  0  0  0  0  0  0  0
    9.2592   -6.1871    0.0000 C   0  0  0  0  0  0  0  0  0  0  0  0
   10.0242   -5.8783    0.0000 C   0  0  0  0  0  0  0  0  0  0  0  0
   10.0163   -5.0533    0.0000 C   0  0  0  0  0  0  0  0  0  0  0  0
   10.7267   -4.6339    0.0000 C   0  0  0  0  0  0  0  0  0  0  0  0
   11.4451   -5.0395    0.0000 C   0  0  0  0  0  0  0  0  0  0  0  0
   11.4531   -5.8645    0.0000 C   0  0  0  0  0  0  0  0  0  0  0  0
   10.7427   -6.2839    0.0000 C   0  0  0  0  0  0  0  0  0  0  0  0
   10.8735   -7.0984    0.0000 C   0  0  0  0  0  0  0  0  0  0  0  0
   11.6796   -7.2742    0.0000 C   0  0  0  0  0  0  0  0  0  0  0  0
   11.9304   -8.0602    0.0000 C   0  0  0  0  0  0  0  0  0  0  0  0
   11.3751   -8.6703    0.0000 C   0  0  0  0  0  0  0  0  0  0  0  0
   10.5691   -8.4945    0.0000 C   0  0  0  0  0  0  0  0  0  0  0  0
   10.3183   -7.7086    0.0000 C   0  0  0  0  0  0  0  0  0  0  0  0
    9.4950   -7.6549    0.0000 C   0  0  0  0  0  0  0  0  0  0  0  0
    9.3498   -5.3671    0.0000 O   0  0  0  0  0  0  0  0  0  0  0  0
    8.9647   -8.2869    0.0000 O   0  0  0  0  0  0  0  0  0  0  0  0
   11.7586   -9.4008    0.0000 O   0  0  0  0  0  0  0  0  0  0  0  0
   12.7364   -8.2359    0.0000 O   0  0  0  0  0  0  0  0  0  0  0  0
   12.3324   -6.7697    0.0000 O   0  0  0  0  0  0  0  0  0  0  0  0
   12.2284   -6.1466    0.0000 O   0  0  0  0  0  0  0  0  0  0  0  0
   12.1596   -4.6270    0.0000 O   0  0  0  0  0  0  0  0  0  0  0  0
   10.7267   -3.8089    0.0000 O   0  0  0  0  0  0  0  0  0  0  0  0
    7.9147   -5.3724    0.0000 H   0  0  0  0  0  0  0  0  0  0  0  0
    8.7722   -7.5588    0.0000 H   0  0  0  0  0  0  0  0  0  0  0  0
  2  3  1  0  0  0  0
  3  4  2  0  0  0  0
  4  5  1  0  0  0  0
  5  6  2  0  0  0  0
  6  7  1  0  0  0  0
  7  8  2  0  0  0  0
  8  9  1  0  0  0  0
  9 10  1  0  0  0  0
 10 11  1  0  0  0  0
 11 12  1  0  0  0  0
 12 13  1  0  0  0  0
 13 14  1  0  0  0  0
 14 15  1  0  0  0  0
 15 16  1  0  0  0  0
 16 17  1  0  0  0  0
 17 18  1  0  0  0  0
 18 19  1  0  0  0  0
 19 20  1  0  0  0  0
 20 21  2  0  0  0  0
 21 22  1  0  0  0  0
 22 23  2  0  0  0  0
 23 24  1  0  0  0  0
 24 25  2  0  0  0  0
 20 25  1  0  0  0  0
 11 16  1  0  0  0  0
  3  8  1  0  0  0  0
 19 26  2  0  0  0  0
  9 27  2  0  0  0  0
 24 28  1  0  0  0  0
 23 29  1  0  0  0  0
 22 30  1  0  0  0  0
 14 31  1  1  0  0  0
 12 32  1  0  0  0  0
  6 33  1  0  0  0  0
  5 34  1  0  0  0  0
  4 35  1  0  0  0  0
 13  1  1  0  0  0  0
 11 36  1  1  0  0  0
 16 37  1  6  0  0  0
 38 39  1  0  0  0  0
 39 40  2  0  0  0  0
 40 41  1  0  0  0  0
 41 42  2  0  0  0  0
 40 43  1  0  0  0  0
 43 44  1  0  0  0  0
 44 45  1  0  0  0  0
 45 46  2  0  0  0  0
 46 41  1  0  0  0  0
 46 47  1  0  0  0  0
 47 48  1  0  0  0  0
 48 49  1  0  0  0  0
 49 42  1  0  0  0  0
 45 50  1  0  0  0  0
 50 51  2  0  0  0  0
 51 52  1  0  0  0  0
 52 47  2  0  0  0  0
  2 38  2  0  0  0  0
  2 42  1  0  0  0  0
 25 50  1  0  0  0  0
 44 53  2  0  0  0  0
 49 54  2  0  0  0  0
 51 55  1  0  0  0  0
 52 56  1  0  0  0  0
 39 57  1  0  0  0  0
 38 58  1  0  0  0  0
 59 60  1  0  0  0  0
 60 61  2  0  0  0  0
 61 62  1  0  0  0  0
 62 63  2  0  0  0  0
 63 64  1  0  0  0  0
 64 65  2  0  0  0  0
 65 66  1  0  0  0  0
 66 67  2  0  0  0  0
 67 68  1  0  0  0  0
 68 69  2  0  0  0  0
 69 70  1  0  0  0  0
 70 71  2  0  0  0  0
 71 72  1  0  0  0  0
 66 71  1  0  0  0  0
 60 65  1  0  0  0  0
 59 73  2  0  0  0  0
 72 74  2  0  0  0  0
 69 75  1  0  0  0  0
 68 76  1  0  0  0  0
 67 77  1  0  0  0  0
 64 78  1  0  0  0  0
 63 79  1  0  0  0  0
 62 80  1  0  0  0  0
 32 72  1  0  0  0  0
  1 59  1  0  0  0  0
 13 81  1  1  0  0  0
 12 82  1  6  0  0  0
M  END
>  <cdx:fragmentId>
306

$$$$
