91661.cdx
  Mrv1902 05222410192D          

 42 46  0  0  0  0            999 V2000
    8.0212   -6.0626    0.0000 C   0  0  0  0  0  0  0  0  0  0  0  0
    8.0212   -6.8876    0.0000 C   0  0  0  0  0  0  0  0  0  0  0  0
    8.7356   -7.3001    0.0000 C   0  0  0  0  0  0  0  0  0  0  0  0
    9.4501   -6.8876    0.0000 C   0  0  0  0  0  0  0  0  0  0  0  0
    9.4501   -6.0626    0.0000 C   0  0  0  0  0  0  0  0  0  0  0  0
    8.7356   -5.6501    0.0000 C   0  0  0  0  0  0  0  0  0  0  0  0
    8.7356   -8.1251    0.0000 C   0  0  0  0  0  0  0  0  0  0  0  0
    9.4501   -8.5376    0.0000 C   0  0  0  0  0  0  0  0  0  0  0  0
   10.1646   -8.1251    0.0000 C   0  0  0  0  0  0  0  0  0  0  0  0
   10.1646   -7.3001    0.0000 O   0  0  0  0  0  0  0  0  0  0  0  0
    7.3067   -7.3001    0.0000 O   0  0  0  0  0  0  0  0  0  0  0  0
    8.0212   -8.5376    0.0000 O   0  0  0  0  0  0  0  0  0  0  0  0
    9.4501   -9.3626    0.0000 O   0  0  0  0  0  0  0  0  0  0  0  0
   10.8791   -9.3626    0.0000 C   0  0  0  0  0  0  0  0  0  0  0  0
   10.8791   -8.5376    0.0000 C   0  0  0  0  0  0  0  0  0  0  0  0
   11.5935   -9.7751    0.0000 C   0  0  0  0  0  0  0  0  0  0  0  0
   12.3080   -9.3626    0.0000 C   0  0  0  0  0  0  0  0  0  0  0  0
   12.3080   -8.5376    0.0000 C   0  0  0  0  0  0  0  0  0  0  0  0
   11.5935   -8.1251    0.0000 C   0  0  0  0  0  0  0  0  0  0  0  0
   13.0225   -9.7751    0.0000 O   0  0  0  0  0  0  0  0  0  0  0  0
   13.0225   -8.1251    0.0000 O   0  0  0  0  0  0  0  0  0  0  0  0
    8.7356   -4.8251    0.0000 O   0  0  0  0  0  0  0  0  0  0  0  0
    8.7356   -9.7751    0.0000 C   0  0  2  0  0  0  0  0  0  0  0  0
    8.0212   -9.3626    0.0000 O   0  0  0  0  0  0  0  0  0  0  0  0
    7.3067   -9.7751    0.0000 C   0  0  1  0  0  0  0  0  0  0  0  0
    7.3067  -10.6001    0.0000 C   0  0  1  0  0  0  0  0  0  0  0  0
    8.0212  -11.0126    0.0000 C   0  0  1  0  0  0  0  0  0  0  0  0
    8.7356  -10.6001    0.0000 C   0  0  1  0  0  0  0  0  0  0  0  0
    6.5922  -11.0126    0.0000 O   0  0  0  0  0  0  0  0  0  0  0  0
    6.5922   -9.3626    0.0000 C   0  0  0  0  0  0  0  0  0  0  0  0
    8.0212  -11.8376    0.0000 O   0  0  0  0  0  0  0  0  0  0  0  0
    9.4501  -11.0126    0.0000 O   0  0  0  0  0  0  0  0  0  0  0  0
    5.8778   -9.7751    0.0000 O   0  0  0  0  0  0  0  0  0  0  0  0
    5.1633   -9.3626    0.0000 C   0  0  0  0  0  0  0  0  0  0  0  0
    5.1633   -8.5376    0.0000 O   0  0  0  0  0  0  0  0  0  0  0  0
    4.4499   -9.7751    0.0000 C   0  0  0  0  0  0  0  0  0  0  0  0
    3.7354   -9.3626    0.0000 C   0  0  0  0  0  0  0  0  0  0  0  0
    3.0209   -9.7751    0.0000 C   0  0  0  0  0  0  0  0  0  0  0  0
    3.0209  -10.6001    0.0000 C   0  0  0  0  0  0  0  0  0  0  0  0
    3.7354  -11.0126    0.0000 C   0  0  0  0  0  0  0  0  0  0  0  0
    4.4499  -10.6001    0.0000 C   0  0  0  0  0  0  0  0  0  0  0  0
    2.3065  -11.0126    0.0000 O   0  0  0  0  0  0  0  0  0  0  0  0
  1  2  1  0  0  0  0
  2  3  2  0  0  0  0
  3  4  1  0  0  0  0
  4  5  2  0  0  0  0
  5  6  1  0  0  0  0
  6  1  2  0  0  0  0
  3  7  1  0  0  0  0
  7  8  1  0  0  0  0
  8  9  2  0  0  0  0
  9 10  1  0  0  0  0
 10  4  1  0  0  0  0
  2 11  1  0  0  0  0
 12  7  2  0  0  0  0
  8 13  1  0  0  0  0
 14 15  1  0  0  0  0
 15  9  1  0  0  0  0
 14 16  2  0  0  0  0
 16 17  1  0  0  0  0
 17 18  2  0  0  0  0
 18 19  1  0  0  0  0
 19 15  2  0  0  0  0
 17 20  1  0  0  0  0
 21 18  1  0  0  0  0
  6 22  1  0  0  0  0
 23 13  1  1  0  0  0
 23 24  1  0  0  0  0
 24 25  1  0  0  0  0
 25 26  1  0  0  0  0
 26 27  1  0  0  0  0
 27 28  1  0  0  0  0
 28 23  1  0  0  0  0
 26 29  1  1  0  0  0
 25 30  1  1  0  0  0
 27 31  1  1  0  0  0
 28 32  1  6  0  0  0
 30 33  1  0  0  0  0
 33 34  1  0  0  0  0
 34 35  2  0  0  0  0
 36 37  2  0  0  0  0
 37 38  1  0  0  0  0
 38 39  2  0  0  0  0
 39 40  1  0  0  0  0
 40 41  2  0  0  0  0
 41 36  1  0  0  0  0
 39 42  1  0  0  0  0
 34 36  1  0  0  0  0
M  END
>  <cdx:fragmentId>
5

$$$$
