91665.cdx
  Mrv1902 05222410182D          

 11 10  0  0  0  0            999 V2000
    7.5717   -6.7925    0.0000 C   0  0  2  0  0  0  0  0  0  0  0  0
    7.5717   -7.6175    0.0000 C   0  0  0  0  0  0  0  0  0  0  0  0
    6.8572   -8.0300    0.0000 C   0  0  0  0  0  0  0  0  0  0  0  0
    8.2861   -5.5550    0.0000 O   0  0  0  0  0  0  0  0  0  0  0  0
    9.0006   -6.7925    0.0000 O   0  0  0  0  0  0  0  0  0  0  0  0
    6.8572   -8.8550    0.0000 C   0  0  0  0  0  0  0  0  0  0  0  0
    6.1427   -9.2675    0.0000 C   0  0  0  0  0  0  0  0  0  0  0  0
    6.8572   -6.3800    0.0000 N   0  0  0  0  0  0  0  0  0  0  0  0
    6.1427  -10.0925    0.0000 O   0  0  0  0  0  0  0  0  0  0  0  0
    5.4282   -8.8550    0.0000 O   0  0  0  0  0  0  0  0  0  0  0  0
    8.2861   -6.3800    0.0000 C   0  0  0  0  0  0  0  0  0  0  0  0
  1  2  1  0  0  0  0
 11  4  2  0  0  0  0
 11  5  1  0  0  0  0
  2  3  1  0  0  0  0
  3  6  1  0  0  0  0
  6  7  1  0  0  0  0
  1  8  1  6  0  0  0
  7  9  1  0  0  0  0
 11  1  1  0  0  0  0
  7 10  2  0  0  0  0
M  END
>  <cdx:fragmentId>
3

$$$$
