91668.cdx
  Mrv1902 05222410272D          

 35 38  0  0  0  0            999 V2000
    2.4181   -5.1425    0.0000 C   0  0  0  0  0  0  0  0  0  0  0  0
    3.8470   -5.9675    0.0000 C   0  0  0  0  0  0  0  0  0  0  0  0
    3.8470   -5.1425    0.0000 C   0  0  0  0  0  0  0  0  0  0  0  0
    3.1325   -4.7300    0.0000 O   0  0  0  0  0  0  0  0  0  0  0  0
    4.5615   -6.3800    0.0000 C   0  0  0  0  0  0  0  0  0  0  0  0
    5.2759   -5.9675    0.0000 C   0  0  0  0  0  0  0  0  0  0  0  0
    5.2759   -5.1425    0.0000 C   0  0  0  0  0  0  0  0  0  0  0  0
    4.5615   -4.7300    0.0000 C   0  0  0  0  0  0  0  0  0  0  0  0
    5.9904   -6.3800    0.0000 C   0  0  0  0  0  0  0  0  0  0  0  0
    6.7049   -5.9675    0.0000 C   0  0  0  0  0  0  0  0  0  0  0  0
    6.7049   -5.1425    0.0000 C   0  0  0  0  0  0  0  0  0  0  0  0
    5.9904   -4.7300    0.0000 O   0  0  0  0  0  0  0  0  0  0  0  0
    7.4194   -6.3800    0.0000 O   0  0  0  0  0  0  0  0  0  0  0  0
    8.1338   -5.1425    0.0000 C   0  0  0  0  0  0  0  0  0  0  0  0
    7.4194   -4.7300    0.0000 C   0  0  0  0  0  0  0  0  0  0  0  0
    8.8483   -4.7300    0.0000 C   0  0  0  0  0  0  0  0  0  0  0  0
    8.8483   -3.9050    0.0000 C   0  0  0  0  0  0  0  0  0  0  0  0
    8.1338   -3.4925    0.0000 C   0  0  0  0  0  0  0  0  0  0  0  0
    7.4194   -3.9050    0.0000 C   0  0  0  0  0  0  0  0  0  0  0  0
    9.5628   -3.4925    0.0000 O   0  0  0  0  0  0  0  0  0  0  0  0
    4.5615   -7.2050    0.0000 O   0  0  0  0  0  0  0  0  0  0  0  0
    5.9904   -7.2050    0.0000 O   0  0  0  0  0  0  0  0  0  0  0  0
    7.4194   -7.2050    0.0000 C   0  0  2  0  0  0  0  0  0  0  0  0
    6.7049   -7.6175    0.0000 O   0  0  0  0  0  0  0  0  0  0  0  0
    6.7049   -8.4425    0.0000 C   0  0  1  0  0  0  0  0  0  0  0  0
    7.4194   -8.8550    0.0000 C   0  0  2  0  0  0  0  0  0  0  0  0
    8.1338   -8.4425    0.0000 C   0  0  1  0  0  0  0  0  0  0  0  0
    8.1338   -7.6175    0.0000 C   0  0  1  0  0  0  0  0  0  0  0  0
    5.9904   -8.8550    0.0000 C   0  0  0  0  0  0  0  0  0  0  0  0
    8.8483   -8.8550    0.0000 O   0  0  0  0  0  0  0  0  0  0  0  0
    8.8483   -7.2050    0.0000 O   0  0  0  0  0  0  0  0  0  0  0  0
    7.4194   -9.6800    0.0000 O   0  0  0  0  0  0  0  0  0  0  0  0
    5.2759   -8.4425    0.0000 O   0  0  0  0  0  0  0  0  0  0  0  0
    5.9904   -9.6800    0.0000 O   0  0  0  0  0  0  0  0  0  0  0  0
    5.2759  -10.0925    0.0000 C   0  0  0  0  0  0  0  0  0  0  0  0
  2  3  2  0  0  0  0
  3  4  1  0  0  0  0
  4  1  1  0  0  0  0
  2  5  1  0  0  0  0
  5  6  2  0  0  0  0
  6  7  1  0  0  0  0
  7  8  2  0  0  0  0
  8  3  1  0  0  0  0
  6  9  1  0  0  0  0
  9 10  1  0  0  0  0
 10 11  2  0  0  0  0
 11 12  1  0  0  0  0
 12  7  1  0  0  0  0
 10 13  1  0  0  0  0
 14 15  2  0  0  0  0
 15 11  1  0  0  0  0
 14 16  1  0  0  0  0
 16 17  2  0  0  0  0
 17 18  1  0  0  0  0
 18 19  2  0  0  0  0
 19 15  1  0  0  0  0
 17 20  1  0  0  0  0
  5 21  1  0  0  0  0
 22  9  2  0  0  0  0
 23 13  1  1  0  0  0
 23 24  1  0  0  0  0
 24 25  1  0  0  0  0
 25 26  1  0  0  0  0
 26 27  1  0  0  0  0
 27 28  1  0  0  0  0
 28 23  1  0  0  0  0
 25 29  1  1  0  0  0
 27 30  1  1  0  0  0
 28 31  1  6  0  0  0
 26 32  1  6  0  0  0
 29 33  2  0  0  0  0
 29 34  1  0  0  0  0
 34 35  1  0  0  0  0
M  END
>  <cdx:fragmentId>
5

$$$$
