91662.cdx
  Mrv1902 05222410202D          

 44 48  0  0  0  0            999 V2000
   11.4963   -8.9748    0.0000 C   0  0  0  0  0  0  0  0  0  0  0  0
   12.2108   -9.3873    0.0000 C   0  0  0  0  0  0  0  0  0  0  0  0
   12.9252   -8.9747    0.0000 C   0  0  0  0  0  0  0  0  0  0  0  0
   12.9251   -8.1497    0.0000 C   0  0  0  0  0  0  0  0  0  0  0  0
   12.2106   -7.7373    0.0000 C   0  0  0  0  0  0  0  0  0  0  0  0
   11.4962   -8.1498    0.0000 C   0  0  0  0  0  0  0  0  0  0  0  0
   13.6397   -9.3872    0.0000 C   0  0  0  0  0  0  0  0  0  0  0  0
   14.3541   -8.9746    0.0000 C   0  0  0  0  0  0  0  0  0  0  0  0
   14.3541   -8.1496    0.0000 C   0  0  0  0  0  0  0  0  0  0  0  0
   13.6396   -7.7372    0.0000 O   0  0  0  0  0  0  0  0  0  0  0  0
   12.2108  -10.2123    0.0000 O   0  0  0  0  0  0  0  0  0  0  0  0
   13.6398  -10.2122    0.0000 O   0  0  0  0  0  0  0  0  0  0  0  0
   15.0686   -9.3871    0.0000 O   0  0  0  0  0  0  0  0  0  0  0  0
   15.7830   -8.1495    0.0000 C   0  0  0  0  0  0  0  0  0  0  0  0
   15.0685   -7.7371    0.0000 C   0  0  0  0  0  0  0  0  0  0  0  0
   16.4975   -7.7370    0.0000 C   0  0  0  0  0  0  0  0  0  0  0  0
   16.4974   -6.9120    0.0000 C   0  0  0  0  0  0  0  0  0  0  0  0
   15.7829   -6.4995    0.0000 C   0  0  0  0  0  0  0  0  0  0  0  0
   15.0685   -6.9121    0.0000 C   0  0  0  0  0  0  0  0  0  0  0  0
   17.2118   -6.4994    0.0000 O   0  0  0  0  0  0  0  0  0  0  0  0
   15.7828   -5.6745    0.0000 O   0  0  0  0  0  0  0  0  0  0  0  0
   10.7817   -7.7374    0.0000 O   0  0  0  0  0  0  0  0  0  0  0  0
   10.0560   -8.1430    0.0000 C   0  0  2  0  0  0  0  0  0  0  0  0
    9.3382   -7.7364    0.0000 O   0  0  0  0  0  0  0  0  0  0  0  0
    8.6271   -8.1547    0.0000 C   0  0  1  0  0  0  0  0  0  0  0  0
    8.6339   -8.9797    0.0000 C   0  0  2  0  0  0  0  0  0  0  0  0
    9.3517   -9.3864    0.0000 C   0  0  1  0  0  0  0  0  0  0  0  0
   10.0628   -8.9680    0.0000 C   0  0  1  0  0  0  0  0  0  0  0  0
    7.9228   -9.3980    0.0000 O   0  0  0  0  0  0  0  0  0  0  0  0
    7.9093   -7.7481    0.0000 C   0  0  0  0  0  0  0  0  0  0  0  0
    9.3584  -10.2113    0.0000 O   0  0  0  0  0  0  0  0  0  0  0  0
   10.7806   -9.3747    0.0000 O   0  0  0  0  0  0  0  0  0  0  0  0
    7.1982   -8.1664    0.0000 O   0  0  0  0  0  0  0  0  0  0  0  0
    6.4804   -7.7598    0.0000 C   0  0  0  0  0  0  0  0  0  0  0  0
    5.7693   -8.1781    0.0000 C   0  0  0  0  0  0  0  0  0  0  0  0
    6.4736   -6.9348    0.0000 O   0  0  0  0  0  0  0  0  0  0  0  0
    5.0515   -7.7715    0.0000 C   0  0  0  0  0  0  0  0  0  0  0  0
    4.3404   -8.1898    0.0000 C   0  0  0  0  0  0  0  0  0  0  0  0
    3.6226   -7.7832    0.0000 C   0  0  0  0  0  0  0  0  0  0  0  0
    2.9115   -8.2015    0.0000 C   0  0  0  0  0  0  0  0  0  0  0  0
    2.9183   -9.0265    0.0000 C   0  0  0  0  0  0  0  0  0  0  0  0
    3.6361   -9.4331    0.0000 C   0  0  0  0  0  0  0  0  0  0  0  0
    4.3472   -9.0148    0.0000 C   0  0  0  0  0  0  0  0  0  0  0  0
    2.2072   -9.4448    0.0000 O   0  0  0  0  0  0  0  0  0  0  0  0
  1  2  1  0  0  0  0
  2  3  2  0  0  0  0
  3  4  1  0  0  0  0
  4  5  2  0  0  0  0
  5  6  1  0  0  0  0
  6  1  2  0  0  0  0
  3  7  1  0  0  0  0
  7  8  1  0  0  0  0
  8  9  2  0  0  0  0
  9 10  1  0  0  0  0
 10  4  1  0  0  0  0
  2 11  1  0  0  0  0
 12  7  2  0  0  0  0
  8 13  1  0  0  0  0
 14 15  1  0  0  0  0
 15  9  1  0  0  0  0
 14 16  2  0  0  0  0
 16 17  1  0  0  0  0
 17 18  2  0  0  0  0
 18 19  1  0  0  0  0
 19 15  2  0  0  0  0
 17 20  1  0  0  0  0
 21 18  1  0  0  0  0
  6 22  1  0  0  0  0
 23 24  1  0  0  0  0
 24 25  1  0  0  0  0
 25 26  1  0  0  0  0
 26 27  1  0  0  0  0
 27 28  1  0  0  0  0
 28 23  1  0  0  0  0
 26 29  1  6  0  0  0
 25 30  1  1  0  0  0
 27 31  1  1  0  0  0
 28 32  1  6  0  0  0
 30 33  1  0  0  0  0
 33 34  1  0  0  0  0
 34 35  1  0  0  0  0
 34 36  2  0  0  0  0
 35 37  2  0  0  0  0
 37 38  1  0  0  0  0
 38 39  2  0  0  0  0
 39 40  1  0  0  0  0
 40 41  2  0  0  0  0
 41 42  1  0  0  0  0
 42 43  2  0  0  0  0
 43 38  1  0  0  0  0
 41 44  1  0  0  0  0
 23 22  1  1  0  0  0
M  END
>  <cdx:fragmentId>
5

$$$$
