91666.cdx
  Mrv1902 05222410182D          

 45 48  0  0  0  0            999 V2000
    3.1331   -4.1525    0.0000 C   0  0  0  0  0  0  0  0  0  0  0  0
    4.5620   -4.9775    0.0000 C   0  0  0  0  0  0  0  0  0  0  0  0
    4.5620   -4.1525    0.0000 C   0  0  0  0  0  0  0  0  0  0  0  0
    3.8475   -3.7400    0.0000 O   0  0  0  0  0  0  0  0  0  0  0  0
    5.2765   -5.3900    0.0000 C   0  0  0  0  0  0  0  0  0  0  0  0
    5.9909   -4.9775    0.0000 C   0  0  0  0  0  0  0  0  0  0  0  0
    5.9909   -4.1525    0.0000 C   0  0  0  0  0  0  0  0  0  0  0  0
    5.2765   -3.7400    0.0000 C   0  0  0  0  0  0  0  0  0  0  0  0
    6.7054   -5.3900    0.0000 C   0  0  0  0  0  0  0  0  0  0  0  0
    7.4199   -4.9775    0.0000 C   0  0  0  0  0  0  0  0  0  0  0  0
    7.4199   -4.1525    0.0000 C   0  0  0  0  0  0  0  0  0  0  0  0
    6.7054   -3.7400    0.0000 O   0  0  0  0  0  0  0  0  0  0  0  0
    8.1344   -5.3900    0.0000 O   0  0  0  0  0  0  0  0  0  0  0  0
    8.8488   -4.1525    0.0000 C   0  0  0  0  0  0  0  0  0  0  0  0
    8.1344   -3.7400    0.0000 C   0  0  0  0  0  0  0  0  0  0  0  0
    9.5633   -3.7400    0.0000 C   0  0  0  0  0  0  0  0  0  0  0  0
    9.5633   -2.9150    0.0000 C   0  0  0  0  0  0  0  0  0  0  0  0
    8.8488   -2.5025    0.0000 C   0  0  0  0  0  0  0  0  0  0  0  0
    8.1344   -2.9150    0.0000 C   0  0  0  0  0  0  0  0  0  0  0  0
   10.2778   -2.5025    0.0000 O   0  0  0  0  0  0  0  0  0  0  0  0
    9.5633   -1.2650    0.0000 C   0  0  0  0  0  0  0  0  0  0  0  0
    8.8488   -1.6775    0.0000 O   0  0  0  0  0  0  0  0  0  0  0  0
    5.2765   -6.2150    0.0000 O   0  0  0  0  0  0  0  0  0  0  0  0
    6.7054   -6.2150    0.0000 O   0  0  0  0  0  0  0  0  0  0  0  0
    8.1344   -6.2150    0.0000 C   0  0  2  0  0  0  0  0  0  0  0  0
    7.4199   -6.6275    0.0000 O   0  0  0  0  0  0  0  0  0  0  0  0
    7.4199   -7.4525    0.0000 C   0  0  1  0  0  0  0  0  0  0  0  0
    8.1344   -7.8650    0.0000 C   0  0  2  0  0  0  0  0  0  0  0  0
    8.8488   -7.4525    0.0000 C   0  0  1  0  0  0  0  0  0  0  0  0
    8.8488   -6.6275    0.0000 C   0  0  1  0  0  0  0  0  0  0  0  0
    6.7054   -7.8650    0.0000 C   0  0  0  0  0  0  0  0  0  0  0  0
    9.5633   -7.8650    0.0000 O   0  0  0  0  0  0  0  0  0  0  0  0
    9.5633   -6.2150    0.0000 O   0  0  0  0  0  0  0  0  0  0  0  0
    8.1344   -8.6900    0.0000 O   0  0  0  0  0  0  0  0  0  0  0  0
    6.7054   -8.6900    0.0000 O   0  0  0  0  0  0  0  0  0  0  0  0
    5.9909   -9.1025    0.0000 C   0  0  0  0  0  0  0  0  0  0  0  0
    5.9909   -9.9275    0.0000 C   0  0  0  0  0  0  0  0  0  0  0  0
    5.2765   -8.6900    0.0000 O   0  0  0  0  0  0  0  0  0  0  0  0
    5.2765  -10.3400    0.0000 C   0  0  0  0  0  0  0  0  0  0  0  0
    5.2765  -11.1650    0.0000 C   0  0  0  0  0  0  0  0  0  0  0  0
    4.4796  -10.5535    0.0000 O   0  0  0  0  0  0  0  0  0  0  0  0
    5.0629   -9.5431    0.0000 C   0  0  0  0  0  0  0  0  0  0  0  0
    4.5620  -11.5775    0.0000 C   0  0  0  0  0  0  0  0  0  0  0  0
    4.5620  -12.4025    0.0000 O   0  0  0  0  0  0  0  0  0  0  0  0
    3.8475  -11.1650    0.0000 O   0  0  0  0  0  0  0  0  0  0  0  0
  2  3  2  0  0  0  0
  3  4  1  0  0  0  0
  4  1  1  0  0  0  0
  2  5  1  0  0  0  0
  5  6  2  0  0  0  0
  6  7  1  0  0  0  0
  7  8  2  0  0  0  0
  8  3  1  0  0  0  0
  6  9  1  0  0  0  0
  9 10  1  0  0  0  0
 10 11  2  0  0  0  0
 11 12  1  0  0  0  0
 12  7  1  0  0  0  0
 10 13  1  0  0  0  0
 14 15  2  0  0  0  0
 15 11  1  0  0  0  0
 14 16  1  0  0  0  0
 16 17  2  0  0  0  0
 17 18  1  0  0  0  0
 18 19  2  0  0  0  0
 19 15  1  0  0  0  0
 17 20  1  0  0  0  0
 21 22  1  0  0  0  0
 22 18  1  0  0  0  0
  5 23  1  0  0  0  0
 24  9  2  0  0  0  0
 25 13  1  1  0  0  0
 25 26  1  0  0  0  0
 26 27  1  0  0  0  0
 27 28  1  0  0  0  0
 28 29  1  0  0  0  0
 29 30  1  0  0  0  0
 30 25  1  0  0  0  0
 27 31  1  1  0  0  0
 29 32  1  1  0  0  0
 30 33  1  6  0  0  0
 28 34  1  6  0  0  0
 31 35  1  0  0  0  0
 35 36  1  0  0  0  0
 36 37  1  0  0  0  0
 36 38  2  0  0  0  0
 37 39  1  0  0  0  0
 39 40  1  0  0  0  0
 39 41  1  0  0  0  0
 39 42  1  0  0  0  0
 40 43  1  0  0  0  0
 43 44  1  0  0  0  0
 43 45  2  0  0  0  0
M  END
>  <cdx:fragmentId>
5

$$$$
