91678.cdx
  Mrv1902 05222410262D          

 53 58  0  0  0  0            999 V2000
    6.8469   -9.8895    0.0000 O   0  0  0  0  0  0  0  0  0  0  0  0
   13.9916   -9.0645    0.0000 C   0  0  0  0  0  0  0  0  0  0  0  0
   13.2771   -8.6520    0.0000 O   0  0  0  0  0  0  0  0  0  0  0  0
   11.8482  -10.3020    0.0000 C   0  0  0  0  0  0  0  0  0  0  0  0
   12.5626   -9.8895    0.0000 C   0  0  0  0  0  0  0  0  0  0  0  0
   12.5626   -9.0645    0.0000 C   0  0  0  0  0  0  0  0  0  0  0  0
   11.8482   -8.6520    0.0000 C   0  0  0  0  0  0  0  0  0  0  0  0
   11.1337   -9.8895    0.0000 C   0  0  0  0  0  0  0  0  0  0  0  0
   11.1337   -9.0645    0.0000 C   0  0  0  0  0  0  0  0  0  0  0  0
    8.2758  -12.3645    0.0000 O   0  0  0  0  0  0  0  0  0  0  0  0
    9.7047  -12.3645    0.0000 O   0  0  0  0  0  0  0  0  0  0  0  0
    9.7047  -11.5395    0.0000 C   0  0  0  0  0  0  0  0  0  0  0  0
   10.4192  -11.1270    0.0000 C   0  0  0  0  0  0  0  0  0  0  0  0
   10.4192  -10.3020    0.0000 C   0  0  0  0  0  0  0  0  0  0  0  0
    9.7047   -9.8895    0.0000 O   0  0  0  0  0  0  0  0  0  0  0  0
    8.2758  -11.5395    0.0000 C   0  0  0  0  0  0  0  0  0  0  0  0
    8.9903  -11.1270    0.0000 C   0  0  0  0  0  0  0  0  0  0  0  0
    8.9903  -10.3020    0.0000 C   0  0  0  0  0  0  0  0  0  0  0  0
    8.2758   -9.8895    0.0000 C   0  0  0  0  0  0  0  0  0  0  0  0
    7.5613  -10.3020    0.0000 C   0  0  0  0  0  0  0  0  0  0  0  0
    7.5613  -11.1270    0.0000 C   0  0  0  0  0  0  0  0  0  0  0  0
    6.8488   -9.0645    0.0000 C   0  0  2  0  0  0  0  0  0  0  0  0
    7.5643   -8.6537    0.0000 O   0  0  0  0  0  0  0  0  0  0  0  0
    7.5663   -7.8287    0.0000 C   0  0  1  0  0  0  0  0  0  0  0  0
    6.8528   -7.4145    0.0000 C   0  0  2  0  0  0  0  0  0  0  0  0
    6.1374   -7.8253    0.0000 C   0  0  1  0  0  0  0  0  0  0  0  0
    6.1354   -8.6503    0.0000 C   0  0  1  0  0  0  0  0  0  0  0  0
    8.2818   -7.4180    0.0000 C   0  0  0  0  0  0  0  0  0  0  0  0
    5.4239   -7.4110    0.0000 O   0  0  0  0  0  0  0  0  0  0  0  0
    5.4199   -9.0610    0.0000 O   0  0  0  0  0  0  0  0  0  0  0  0
    6.8548   -6.5895    0.0000 O   0  0  0  0  0  0  0  0  0  0  0  0
    8.2838   -6.5930    0.0000 O   0  0  0  0  0  0  0  0  0  0  0  0
    4.5766   -9.0093    0.0000 C   0  0  2  0  0  0  0  0  0  0  0  0
    4.2063   -8.2721    0.0000 O   0  0  0  0  0  0  0  0  0  0  0  0
    3.3827   -8.2242    0.0000 C   0  0  1  0  0  0  0  0  0  0  0  0
    2.9294   -8.9135    0.0000 C   0  0  2  0  0  0  0  0  0  0  0  0
    3.2997   -9.6507    0.0000 C   0  0  1  0  0  0  0  0  0  0  0  0
    4.1233   -9.6986    0.0000 C   0  0  1  0  0  0  0  0  0  0  0  0
    3.0123   -7.4870    0.0000 C   0  0  0  0  0  0  0  0  0  0  0  0
    2.8464  -10.3401    0.0000 O   0  0  0  0  0  0  0  0  0  0  0  0
    4.4937  -10.4358    0.0000 O   0  0  0  0  0  0  0  0  0  0  0  0
    2.1058   -8.8656    0.0000 O   0  0  0  0  0  0  0  0  0  0  0  0
    3.4656   -6.7977    0.0000 O   0  0  0  0  0  0  0  0  0  0  0  0
    3.0952   -6.0605    0.0000 C   0  0  2  0  0  0  0  0  0  0  0  0
    3.5485   -5.3711    0.0000 O   0  0  0  0  0  0  0  0  0  0  0  0
    3.1782   -4.6339    0.0000 C   0  0  2  0  0  0  0  0  0  0  0  0
    2.3546   -4.5860    0.0000 C   0  0  1  0  0  0  0  0  0  0  0  0
    1.9013   -5.2754    0.0000 C   0  0  2  0  0  0  0  0  0  0  0  0
    2.2716   -6.0126    0.0000 C   0  0  1  0  0  0  0  0  0  0  0  0
    1.9842   -3.8488    0.0000 O   0  0  0  0  0  0  0  0  0  0  0  0
    3.6314   -3.9446    0.0000 C   0  0  0  0  0  0  0  0  0  0  0  0
    1.0777   -5.2275    0.0000 O   0  0  0  0  0  0  0  0  0  0  0  0
    1.8184   -6.7019    0.0000 O   0  0  0  0  0  0  0  0  0  0  0  0
 20  1  1  0  0  0  0
  3  2  1  0  0  0  0
  6  3  1  0  0  0  0
  4  8  2  0  0  0  0
  5  4  1  0  0  0  0
  6  5  2  0  0  0  0
  7  6  1  0  0  0  0
  9  7  2  0  0  0  0
  8 14  1  0  0  0  0
  9  8  1  0  0  0  0
 10 16  1  0  0  0  0
 12 11  2  0  0  0  0
 12 17  1  0  0  0  0
 13 12  1  0  0  0  0
 14 13  2  0  0  0  0
 15 14  1  0  0  0  0
 18 15  1  0  0  0  0
 16 21  1  0  0  0  0
 17 16  2  0  0  0  0
 18 17  1  0  0  0  0
 19 18  2  0  0  0  0
 20 19  1  0  0  0  0
 21 20  2  0  0  0  0
 22  1  1  1  0  0  0
 22 23  1  0  0  0  0
 23 24  1  0  0  0  0
 24 25  1  0  0  0  0
 25 26  1  0  0  0  0
 26 27  1  0  0  0  0
 27 22  1  0  0  0  0
 24 28  1  1  0  0  0
 26 29  1  1  0  0  0
 27 30  1  6  0  0  0
 25 31  1  6  0  0  0
 28 32  1  0  0  0  0
 33 30  1  1  0  0  0
 33 34  1  0  0  0  0
 34 35  1  0  0  0  0
 35 36  1  0  0  0  0
 36 37  1  0  0  0  0
 37 38  1  0  0  0  0
 38 33  1  0  0  0  0
 35 39  1  1  0  0  0
 37 40  1  1  0  0  0
 38 41  1  6  0  0  0
 36 42  1  6  0  0  0
 39 43  1  0  0  0  0
 44 43  1  1  0  0  0
 44 45  1  0  0  0  0
 45 46  1  0  0  0  0
 46 47  1  0  0  0  0
 47 48  1  0  0  0  0
 48 49  1  0  0  0  0
 49 44  1  0  0  0  0
 47 50  1  1  0  0  0
 46 51  1  6  0  0  0
 48 52  1  6  0  0  0
 49 53  1  6  0  0  0
M  END
>  <cdx:fragmentId>
5

$$$$
