91673.cdx
  Mrv1902 05222410182D          

 65 73  0  0  0  0            999 V2000
   15.8308   -9.2644    0.0000 C   0  0  1  0  0  0  0  0  0  0  0  0
   16.5423   -8.8468    0.0000 C   0  0  2  0  0  0  0  0  0  0  0  0
   17.3287   -9.0960    0.0000 C   0  0  0  0  0  0  0  0  0  0  0  0
   17.8088   -8.4251    0.0000 C   0  0  2  0  0  0  0  0  0  0  0  0
   18.5916   -8.1645    0.0000 O   0  0  0  0  0  0  0  0  0  0  0  0
   18.5856   -7.3395    0.0000 C   0  0  2  0  0  0  0  0  0  0  0  0
   17.7992   -7.0903    0.0000 C   0  0  2  0  0  0  0  0  0  0  0  0
   17.3191   -7.7612    0.0000 C   0  0  2  0  0  0  0  0  0  0  0  0
   16.5363   -8.0218    0.0000 C   0  0  1  0  0  0  0  0  0  0  0  0
   15.8189   -7.6144    0.0000 C   0  0  0  0  0  0  0  0  0  0  0  0
   15.1074   -8.0321    0.0000 C   0  0  0  0  0  0  0  0  0  0  0  0
   15.1134   -8.8571    0.0000 C   0  0  2  0  0  0  0  0  0  0  0  0
   14.4019   -9.2747    0.0000 C   0  0  1  0  0  0  0  0  0  0  0  0
   13.6845   -8.8674    0.0000 C   0  0  1  0  0  0  0  0  0  0  0  0
   12.9730   -9.2850    0.0000 C   0  0  0  0  0  0  0  0  0  0  0  0
   12.9790  -10.1100    0.0000 C   0  0  1  0  0  0  0  0  0  0  0  0
   13.6964  -10.5173    0.0000 C   0  0  0  0  0  0  0  0  0  0  0  0
   14.4079  -10.0997    0.0000 C   0  0  0  0  0  0  0  0  0  0  0  0
   15.1253  -10.5070    0.0000 C   0  0  0  0  0  0  0  0  0  0  0  0
   15.8368  -10.0894    0.0000 C   0  0  0  0  0  0  0  0  0  0  0  0
   18.4935   -6.5197    0.0000 O   0  0  0  0  0  0  0  0  0  0  0  0
   19.3417   -7.6696    0.0000 C   0  0  0  0  0  0  0  0  0  0  0  0
   20.0056   -7.1799    0.0000 C   0  0  0  0  0  0  0  0  0  0  0  0
   19.9135   -6.3601    0.0000 C   0  0  2  0  0  0  0  0  0  0  0  0
   19.1574   -6.0300    0.0000 C   0  0  0  0  0  0  0  0  0  0  0  0
   13.6785   -8.0424    0.0000 O   0  0  0  0  0  0  0  0  0  0  0  0
   12.2675  -10.5277    0.0000 O   0  0  0  0  0  0  0  0  0  0  0  0
   14.3960   -8.4497    0.0000 C   0  0  0  0  0  0  0  0  0  0  0  0
   16.5363   -7.1968    0.0000 C   0  0  0  0  0  0  0  0  0  0  0  0
   17.5386   -6.3075    0.0000 C   0  0  0  0  0  0  0  0  0  0  0  0
   20.5774   -5.8703    0.0000 C   0  0  0  0  0  0  0  0  0  0  0  0
   15.8249   -8.4394    0.0000 H   0  0  0  0  0  0  0  0  0  0  0  0
   16.5483   -9.6717    0.0000 H   0  0  0  0  0  0  0  0  0  0  0  0
   18.2986   -9.0890    0.0000 H   0  0  0  0  0  0  0  0  0  0  0  0
   16.9521   -7.0223    0.0000 H   0  0  0  0  0  0  0  0  0  0  0  0
   15.1194   -9.6820    0.0000 H   0  0  0  0  0  0  0  0  0  0  0  0
   11.5501  -10.1203    0.0000 C   0  0  2  0  0  0  0  0  0  0  0  0
   11.5411   -9.2954    0.0000 O   0  0  0  0  0  0  0  0  0  0  0  0
   10.8222   -8.8907    0.0000 C   0  0  1  0  0  0  0  0  0  0  0  0
   10.1123   -9.2954    0.0000 C   0  0  1  0  0  0  0  0  0  0  0  0
   10.1123  -10.1203    0.0000 C   0  0  1  0  0  0  0  0  0  0  0  0
   10.8222  -10.5250    0.0000 C   0  0  1  0  0  0  0  0  0  0  0  0
    9.3989  -10.5348    0.0000 O   0  0  0  0  0  0  0  0  0  0  0  0
   10.8178  -11.3500    0.0000 O   0  0  0  0  0  0  0  0  0  0  0  0
    9.3989   -8.8809    0.0000 O   0  0  0  0  0  0  0  0  0  0  0  0
   11.2265  -12.0667    0.0000 C   0  0  2  0  0  0  0  0  0  0  0  0
   10.8083  -12.7779    0.0000 O   0  0  0  0  0  0  0  0  0  0  0  0
   11.2151  -13.4956    0.0000 C   0  0  2  0  0  0  0  0  0  0  0  0
   12.0458  -13.4923    0.0000 C   0  0  1  0  0  0  0  0  0  0  0  0
   12.4583  -12.7779    0.0000 C   0  0  2  0  0  0  0  0  0  0  0  0
   12.0458  -12.0568    0.0000 C   0  0  1  0  0  0  0  0  0  0  0  0
    8.5739  -10.5348    0.0000 C   0  0  2  0  0  0  0  0  0  0  0  0
    8.1614   -9.8203    0.0000 O   0  0  0  0  0  0  0  0  0  0  0  0
    7.3364   -9.8203    0.0000 C   0  0  0  0  0  0  0  0  0  0  0  0
    6.9239  -10.5348    0.0000 C   0  0  2  0  0  0  0  0  0  0  0  0
    7.3364  -11.2493    0.0000 C   0  0  1  0  0  0  0  0  0  0  0  0
    8.1614  -11.2493    0.0000 C   0  0  1  0  0  0  0  0  0  0  0  0
   12.4597  -14.2060    0.0000 O   0  0  0  0  0  0  0  0  0  0  0  0
   10.8012  -14.2092    0.0000 C   0  0  0  0  0  0  0  0  0  0  0  0
   13.2833  -12.7795    0.0000 O   0  0  0  0  0  0  0  0  0  0  0  0
   12.4554  -11.3407    0.0000 O   0  0  0  0  0  0  0  0  0  0  0  0
    8.5739  -11.9637    0.0000 O   0  0  0  0  0  0  0  0  0  0  0  0
    6.9239  -11.9637    0.0000 O   0  0  0  0  0  0  0  0  0  0  0  0
    6.0989  -10.5348    0.0000 O   0  0  0  0  0  0  0  0  0  0  0  0
   10.8200   -8.0657    0.0000 C   0  0  0  0  0  0  0  0  0  0  0  0
  1  2  1  0  0  0  0
  2  3  1  0  0  0  0
  3  4  1  0  0  0  0
  4  5  1  0  0  0  0
  6  5  1  6  0  0  0
  6  7  1  0  0  0  0
  7  8  1  0  0  0  0
  8  9  1  0  0  0  0
  9 10  1  0  0  0  0
 10 11  1  0  0  0  0
 11 12  1  0  0  0  0
 12 13  1  0  0  0  0
 13 14  1  0  0  0  0
 14 15  1  0  0  0  0
 15 16  1  0  0  0  0
 16 17  1  0  0  0  0
 17 18  1  0  0  0  0
 18 19  2  0  0  0  0
 19 20  1  0  0  0  0
  1 20  1  0  0  0  0
  1 12  1  0  0  0  0
 13 18  1  0  0  0  0
  2  9  1  0  0  0  0
  4  8  1  0  0  0  0
 22 23  1  0  0  0  0
 23 24  1  0  0  0  0
 24 25  1  0  0  0  0
 21 25  1  0  0  0  0
  6 21  1  0  0  0  0
  6 22  1  0  0  0  0
 14 26  1  1  0  0  0
 16 27  1  1  0  0  0
 13 28  1  1  0  0  0
  9 29  1  1  0  0  0
  7 30  1  6  0  0  0
 24 31  1  6  0  0  0
  1 32  1  1  0  0  0
  2 33  1  6  0  0  0
  4 34  1  6  0  0  0
  8 35  1  6  0  0  0
 12 36  1  6  0  0  0
 37 27  1  1  0  0  0
 37 38  1  0  0  0  0
 38 39  1  0  0  0  0
 39 40  1  0  0  0  0
 40 41  1  0  0  0  0
 41 42  1  0  0  0  0
 42 37  1  0  0  0  0
 41 43  1  1  0  0  0
 42 44  1  6  0  0  0
 40 45  1  1  0  0  0
 46 44  1  1  0  0  0
 46 47  1  0  0  0  0
 47 48  1  0  0  0  0
 48 49  1  0  0  0  0
 49 50  1  0  0  0  0
 50 51  1  0  0  0  0
 51 46  1  0  0  0  0
 52 43  1  1  0  0  0
 52 53  1  0  0  0  0
 53 54  1  0  0  0  0
 54 55  1  0  0  0  0
 55 56  1  0  0  0  0
 56 57  1  0  0  0  0
 57 52  1  0  0  0  0
 49 58  1  1  0  0  0
 48 59  1  6  0  0  0
 50 60  1  6  0  0  0
 51 61  1  6  0  0  0
 57 62  1  6  0  0  0
 56 63  1  1  0  0  0
 55 64  1  6  0  0  0
 39 65  1  1  0  0  0
M  END
>  <cdx:fragmentId>
5

$$$$
