91671.cdx
  Mrv1902 05222410182D          

 75 84  0  0  0  0            999 V2000
   15.8308   -9.2094    0.0000 C   0  0  1  0  0  0  0  0  0  0  0  0
   16.5423   -8.7918    0.0000 C   0  0  2  0  0  0  0  0  0  0  0  0
   17.3287   -9.0410    0.0000 C   0  0  0  0  0  0  0  0  0  0  0  0
   17.8088   -8.3701    0.0000 C   0  0  2  0  0  0  0  0  0  0  0  0
   18.5916   -8.1095    0.0000 O   0  0  0  0  0  0  0  0  0  0  0  0
   18.5856   -7.2845    0.0000 C   0  0  2  0  0  0  0  0  0  0  0  0
   17.7992   -7.0353    0.0000 C   0  0  2  0  0  0  0  0  0  0  0  0
   17.3191   -7.7062    0.0000 C   0  0  2  0  0  0  0  0  0  0  0  0
   16.5363   -7.9668    0.0000 C   0  0  1  0  0  0  0  0  0  0  0  0
   15.8189   -7.5594    0.0000 C   0  0  0  0  0  0  0  0  0  0  0  0
   15.1074   -7.9771    0.0000 C   0  0  0  0  0  0  0  0  0  0  0  0
   15.1134   -8.8021    0.0000 C   0  0  2  0  0  0  0  0  0  0  0  0
   14.4019   -9.2197    0.0000 C   0  0  1  0  0  0  0  0  0  0  0  0
   13.6845   -8.8124    0.0000 C   0  0  1  0  0  0  0  0  0  0  0  0
   12.9730   -9.2300    0.0000 C   0  0  0  0  0  0  0  0  0  0  0  0
   12.9790  -10.0550    0.0000 C   0  0  1  0  0  0  0  0  0  0  0  0
   13.6964  -10.4623    0.0000 C   0  0  0  0  0  0  0  0  0  0  0  0
   14.4079  -10.0447    0.0000 C   0  0  0  0  0  0  0  0  0  0  0  0
   15.1253  -10.4520    0.0000 C   0  0  0  0  0  0  0  0  0  0  0  0
   15.8368  -10.0344    0.0000 C   0  0  0  0  0  0  0  0  0  0  0  0
   18.4935   -6.4647    0.0000 O   0  0  0  0  0  0  0  0  0  0  0  0
   19.3417   -7.6146    0.0000 C   0  0  0  0  0  0  0  0  0  0  0  0
   20.0056   -7.1249    0.0000 C   0  0  0  0  0  0  0  0  0  0  0  0
   19.9135   -6.3051    0.0000 C   0  0  2  0  0  0  0  0  0  0  0  0
   19.1574   -5.9750    0.0000 C   0  0  0  0  0  0  0  0  0  0  0  0
   13.6785   -7.9874    0.0000 O   0  0  0  0  0  0  0  0  0  0  0  0
   12.2675  -10.4727    0.0000 O   0  0  0  0  0  0  0  0  0  0  0  0
   14.3960   -8.3947    0.0000 C   0  0  0  0  0  0  0  0  0  0  0  0
   16.5363   -7.1418    0.0000 C   0  0  0  0  0  0  0  0  0  0  0  0
   17.5386   -6.2525    0.0000 C   0  0  0  0  0  0  0  0  0  0  0  0
   20.5774   -5.8153    0.0000 C   0  0  0  0  0  0  0  0  0  0  0  0
   15.8249   -8.3844    0.0000 H   0  0  0  0  0  0  0  0  0  0  0  0
   16.5483   -9.6167    0.0000 H   0  0  0  0  0  0  0  0  0  0  0  0
   18.2986   -9.0340    0.0000 H   0  0  0  0  0  0  0  0  0  0  0  0
   16.9521   -6.9673    0.0000 H   0  0  0  0  0  0  0  0  0  0  0  0
   15.1194   -9.6270    0.0000 H   0  0  0  0  0  0  0  0  0  0  0  0
   11.5501  -10.0653    0.0000 C   0  0  2  0  0  0  0  0  0  0  0  0
   11.5411   -9.2404    0.0000 O   0  0  0  0  0  0  0  0  0  0  0  0
   10.8222   -8.8357    0.0000 C   0  0  1  0  0  0  0  0  0  0  0  0
   10.1123   -9.2404    0.0000 C   0  0  2  0  0  0  0  0  0  0  0  0
   10.1123  -10.0653    0.0000 C   0  0  1  0  0  0  0  0  0  0  0  0
   10.8222  -10.4700    0.0000 C   0  0  1  0  0  0  0  0  0  0  0  0
   10.8200   -8.0107    0.0000 C   0  0  0  0  0  0  0  0  0  0  0  0
    9.3989  -10.4798    0.0000 O   0  0  0  0  0  0  0  0  0  0  0  0
   10.8178  -11.2950    0.0000 O   0  0  0  0  0  0  0  0  0  0  0  0
    9.3989   -8.8259    0.0000 O   0  0  0  0  0  0  0  0  0  0  0  0
   10.1044   -7.6001    0.0000 O   0  0  0  0  0  0  0  0  0  0  0  0
   11.2265  -12.0117    0.0000 C   0  0  2  0  0  0  0  0  0  0  0  0
   10.8083  -12.7229    0.0000 O   0  0  0  0  0  0  0  0  0  0  0  0
   11.2151  -13.4406    0.0000 C   0  0  2  0  0  0  0  0  0  0  0  0
   12.0458  -13.4373    0.0000 C   0  0  1  0  0  0  0  0  0  0  0  0
   12.4583  -12.7229    0.0000 C   0  0  2  0  0  0  0  0  0  0  0  0
   12.0458  -12.0018    0.0000 C   0  0  1  0  0  0  0  0  0  0  0  0
    8.5739  -10.4798    0.0000 C   0  0  2  0  0  0  0  0  0  0  0  0
    8.9864   -8.1114    0.0000 C   0  0  2  0  0  0  0  0  0  0  0  0
    8.1614   -9.7653    0.0000 O   0  0  0  0  0  0  0  0  0  0  0  0
    7.3364   -9.7653    0.0000 C   0  0  0  0  0  0  0  0  0  0  0  0
    6.9239  -10.4798    0.0000 C   0  0  2  0  0  0  0  0  0  0  0  0
    7.3364  -11.1943    0.0000 C   0  0  1  0  0  0  0  0  0  0  0  0
    8.1614  -11.1943    0.0000 C   0  0  1  0  0  0  0  0  0  0  0  0
    9.3989   -7.3970    0.0000 O   0  0  0  0  0  0  0  0  0  0  0  0
    8.9864   -6.6825    0.0000 C   0  0  0  0  0  0  0  0  0  0  0  0
    8.1614   -6.6825    0.0000 C   0  0  2  0  0  0  0  0  0  0  0  0
    7.7489   -7.3970    0.0000 C   0  0  1  0  0  0  0  0  0  0  0  0
    8.1614   -8.1114    0.0000 C   0  0  1  0  0  0  0  0  0  0  0  0
   12.4597  -14.1510    0.0000 O   0  0  0  0  0  0  0  0  0  0  0  0
   10.8012  -14.1542    0.0000 C   0  0  0  0  0  0  0  0  0  0  0  0
   13.2833  -12.7245    0.0000 O   0  0  0  0  0  0  0  0  0  0  0  0
   12.4554  -11.2857    0.0000 O   0  0  0  0  0  0  0  0  0  0  0  0
    8.5739  -11.9087    0.0000 O   0  0  0  0  0  0  0  0  0  0  0  0
    6.9239  -11.9087    0.0000 O   0  0  0  0  0  0  0  0  0  0  0  0
    6.0989  -10.4798    0.0000 O   0  0  0  0  0  0  0  0  0  0  0  0
    7.7489   -8.8259    0.0000 O   0  0  0  0  0  0  0  0  0  0  0  0
    6.9239   -7.3970    0.0000 O   0  0  0  0  0  0  0  0  0  0  0  0
    7.7489   -5.9680    0.0000 O   0  0  0  0  0  0  0  0  0  0  0  0
  1  2  1  0  0  0  0
  2  3  1  0  0  0  0
  3  4  1  0  0  0  0
  4  5  1  0  0  0  0
  6  5  1  6  0  0  0
  6  7  1  0  0  0  0
  7  8  1  0  0  0  0
  8  9  1  0  0  0  0
  9 10  1  0  0  0  0
 10 11  1  0  0  0  0
 11 12  1  0  0  0  0
 12 13  1  0  0  0  0
 13 14  1  0  0  0  0
 14 15  1  0  0  0  0
 15 16  1  0  0  0  0
 16 17  1  0  0  0  0
 17 18  1  0  0  0  0
 18 19  2  0  0  0  0
 19 20  1  0  0  0  0
  1 20  1  0  0  0  0
  1 12  1  0  0  0  0
 13 18  1  0  0  0  0
  2  9  1  0  0  0  0
  4  8  1  0  0  0  0
 22 23  1  0  0  0  0
 23 24  1  0  0  0  0
 24 25  1  0  0  0  0
 21 25  1  0  0  0  0
  6 21  1  0  0  0  0
  6 22  1  0  0  0  0
 14 26  1  1  0  0  0
 16 27  1  1  0  0  0
 13 28  1  1  0  0  0
  9 29  1  1  0  0  0
  7 30  1  6  0  0  0
 24 31  1  6  0  0  0
  1 32  1  1  0  0  0
  2 33  1  6  0  0  0
  4 34  1  6  0  0  0
  8 35  1  6  0  0  0
 12 36  1  6  0  0  0
 37 27  1  1  0  0  0
 37 38  1  0  0  0  0
 38 39  1  0  0  0  0
 39 40  1  0  0  0  0
 40 41  1  0  0  0  0
 41 42  1  0  0  0  0
 42 37  1  0  0  0  0
 39 43  1  1  0  0  0
 41 44  1  1  0  0  0
 42 45  1  6  0  0  0
 40 46  1  6  0  0  0
 43 47  1  0  0  0  0
 48 45  1  1  0  0  0
 48 49  1  0  0  0  0
 49 50  1  0  0  0  0
 50 51  1  0  0  0  0
 51 52  1  0  0  0  0
 52 53  1  0  0  0  0
 53 48  1  0  0  0  0
 54 44  1  1  0  0  0
 55 46  1  1  0  0  0
 54 56  1  0  0  0  0
 56 57  1  0  0  0  0
 57 58  1  0  0  0  0
 58 59  1  0  0  0  0
 59 60  1  0  0  0  0
 60 54  1  0  0  0  0
 55 61  1  0  0  0  0
 61 62  1  0  0  0  0
 62 63  1  0  0  0  0
 63 64  1  0  0  0  0
 64 65  1  0  0  0  0
 65 55  1  0  0  0  0
 51 66  1  1  0  0  0
 50 67  1  6  0  0  0
 52 68  1  6  0  0  0
 53 69  1  6  0  0  0
 60 70  1  6  0  0  0
 59 71  1  1  0  0  0
 58 72  1  6  0  0  0
 65 73  1  6  0  0  0
 64 74  1  1  0  0  0
 63 75  1  6  0  0  0
M  END
>  <cdx:fragmentId>
5

$$$$
