91672.cdx
  Mrv1902 05222410182D          

 64 72  0  0  0  0            999 V2000
   15.8033   -9.0719    0.0000 C   0  0  1  0  0  0  0  0  0  0  0  0
   16.5148   -8.6543    0.0000 C   0  0  2  0  0  0  0  0  0  0  0  0
   17.3012   -8.9035    0.0000 C   0  0  0  0  0  0  0  0  0  0  0  0
   17.7813   -8.2326    0.0000 C   0  0  2  0  0  0  0  0  0  0  0  0
   18.5641   -7.9720    0.0000 O   0  0  0  0  0  0  0  0  0  0  0  0
   18.5581   -7.1470    0.0000 C   0  0  2  0  0  0  0  0  0  0  0  0
   17.7717   -6.8978    0.0000 C   0  0  2  0  0  0  0  0  0  0  0  0
   17.2916   -7.5687    0.0000 C   0  0  2  0  0  0  0  0  0  0  0  0
   16.5088   -7.8293    0.0000 C   0  0  1  0  0  0  0  0  0  0  0  0
   15.7914   -7.4219    0.0000 C   0  0  0  0  0  0  0  0  0  0  0  0
   15.0799   -7.8396    0.0000 C   0  0  0  0  0  0  0  0  0  0  0  0
   15.0859   -8.6646    0.0000 C   0  0  2  0  0  0  0  0  0  0  0  0
   14.3744   -9.0822    0.0000 C   0  0  1  0  0  0  0  0  0  0  0  0
   13.6570   -8.6749    0.0000 C   0  0  1  0  0  0  0  0  0  0  0  0
   12.9455   -9.0925    0.0000 C   0  0  0  0  0  0  0  0  0  0  0  0
   12.9515   -9.9175    0.0000 C   0  0  1  0  0  0  0  0  0  0  0  0
   13.6689  -10.3248    0.0000 C   0  0  0  0  0  0  0  0  0  0  0  0
   14.3804   -9.9072    0.0000 C   0  0  0  0  0  0  0  0  0  0  0  0
   15.0978  -10.3145    0.0000 C   0  0  0  0  0  0  0  0  0  0  0  0
   15.8093   -9.8969    0.0000 C   0  0  0  0  0  0  0  0  0  0  0  0
   18.4660   -6.3272    0.0000 O   0  0  0  0  0  0  0  0  0  0  0  0
   19.3142   -7.4771    0.0000 C   0  0  0  0  0  0  0  0  0  0  0  0
   19.9781   -6.9874    0.0000 C   0  0  0  0  0  0  0  0  0  0  0  0
   19.8860   -6.1676    0.0000 C   0  0  2  0  0  0  0  0  0  0  0  0
   19.1299   -5.8375    0.0000 C   0  0  0  0  0  0  0  0  0  0  0  0
   13.6510   -7.8499    0.0000 O   0  0  0  0  0  0  0  0  0  0  0  0
   12.2400  -10.3352    0.0000 O   0  0  0  0  0  0  0  0  0  0  0  0
   14.3685   -8.2572    0.0000 C   0  0  0  0  0  0  0  0  0  0  0  0
   16.5088   -7.0043    0.0000 C   0  0  0  0  0  0  0  0  0  0  0  0
   17.5111   -6.1150    0.0000 C   0  0  0  0  0  0  0  0  0  0  0  0
   20.5499   -5.6778    0.0000 C   0  0  0  0  0  0  0  0  0  0  0  0
   15.7974   -8.2469    0.0000 H   0  0  0  0  0  0  0  0  0  0  0  0
   16.5208   -9.4792    0.0000 H   0  0  0  0  0  0  0  0  0  0  0  0
   18.2711   -8.8965    0.0000 H   0  0  0  0  0  0  0  0  0  0  0  0
   16.9246   -6.8298    0.0000 H   0  0  0  0  0  0  0  0  0  0  0  0
   15.0919   -9.4895    0.0000 H   0  0  0  0  0  0  0  0  0  0  0  0
   11.5226   -9.9278    0.0000 C   0  0  2  0  0  0  0  0  0  0  0  0
   11.5136   -9.1029    0.0000 O   0  0  0  0  0  0  0  0  0  0  0  0
   10.7947   -8.6982    0.0000 C   0  0  0  0  0  0  0  0  0  0  0  0
   10.0848   -9.1029    0.0000 C   0  0  1  0  0  0  0  0  0  0  0  0
   10.0848   -9.9278    0.0000 C   0  0  1  0  0  0  0  0  0  0  0  0
   10.7947  -10.3325    0.0000 C   0  0  1  0  0  0  0  0  0  0  0  0
    9.3714  -10.3423    0.0000 O   0  0  0  0  0  0  0  0  0  0  0  0
   10.7903  -11.1575    0.0000 O   0  0  0  0  0  0  0  0  0  0  0  0
    9.3714   -8.6884    0.0000 O   0  0  0  0  0  0  0  0  0  0  0  0
   11.1990  -11.8742    0.0000 C   0  0  2  0  0  0  0  0  0  0  0  0
   10.7808  -12.5854    0.0000 O   0  0  0  0  0  0  0  0  0  0  0  0
   11.1876  -13.3031    0.0000 C   0  0  2  0  0  0  0  0  0  0  0  0
   12.0183  -13.2998    0.0000 C   0  0  1  0  0  0  0  0  0  0  0  0
   12.4308  -12.5854    0.0000 C   0  0  2  0  0  0  0  0  0  0  0  0
   12.0183  -11.8643    0.0000 C   0  0  1  0  0  0  0  0  0  0  0  0
    8.5464  -10.3423    0.0000 C   0  0  2  0  0  0  0  0  0  0  0  0
    8.1339   -9.6278    0.0000 O   0  0  0  0  0  0  0  0  0  0  0  0
    7.3089   -9.6278    0.0000 C   0  0  0  0  0  0  0  0  0  0  0  0
    6.8964  -10.3423    0.0000 C   0  0  2  0  0  0  0  0  0  0  0  0
    7.3089  -11.0568    0.0000 C   0  0  1  0  0  0  0  0  0  0  0  0
    8.1339  -11.0568    0.0000 C   0  0  1  0  0  0  0  0  0  0  0  0
   12.4322  -14.0135    0.0000 O   0  0  0  0  0  0  0  0  0  0  0  0
   10.7737  -14.0167    0.0000 C   0  0  0  0  0  0  0  0  0  0  0  0
   13.2558  -12.5870    0.0000 O   0  0  0  0  0  0  0  0  0  0  0  0
   12.4279  -11.1482    0.0000 O   0  0  0  0  0  0  0  0  0  0  0  0
    8.5464  -11.7712    0.0000 O   0  0  0  0  0  0  0  0  0  0  0  0
    6.8964  -11.7712    0.0000 O   0  0  0  0  0  0  0  0  0  0  0  0
    6.0714  -10.3423    0.0000 O   0  0  0  0  0  0  0  0  0  0  0  0
  1  2  1  0  0  0  0
  2  3  1  0  0  0  0
  3  4  1  0  0  0  0
  4  5  1  0  0  0  0
  6  5  1  6  0  0  0
  6  7  1  0  0  0  0
  7  8  1  0  0  0  0
  8  9  1  0  0  0  0
  9 10  1  0  0  0  0
 10 11  1  0  0  0  0
 11 12  1  0  0  0  0
 12 13  1  0  0  0  0
 13 14  1  0  0  0  0
 14 15  1  0  0  0  0
 15 16  1  0  0  0  0
 16 17  1  0  0  0  0
 17 18  1  0  0  0  0
 18 19  2  0  0  0  0
 19 20  1  0  0  0  0
  1 20  1  0  0  0  0
  1 12  1  0  0  0  0
 13 18  1  0  0  0  0
  2  9  1  0  0  0  0
  4  8  1  0  0  0  0
 22 23  1  0  0  0  0
 23 24  1  0  0  0  0
 24 25  1  0  0  0  0
 21 25  1  0  0  0  0
  6 21  1  0  0  0  0
  6 22  1  0  0  0  0
 14 26  1  1  0  0  0
 16 27  1  1  0  0  0
 13 28  1  1  0  0  0
  9 29  1  1  0  0  0
  7 30  1  6  0  0  0
 24 31  1  6  0  0  0
  1 32  1  1  0  0  0
  2 33  1  6  0  0  0
  4 34  1  6  0  0  0
  8 35  1  6  0  0  0
 12 36  1  6  0  0  0
 37 27  1  1  0  0  0
 37 38  1  0  0  0  0
 38 39  1  0  0  0  0
 39 40  1  0  0  0  0
 40 41  1  0  0  0  0
 41 42  1  0  0  0  0
 42 37  1  0  0  0  0
 41 43  1  1  0  0  0
 42 44  1  6  0  0  0
 40 45  1  1  0  0  0
 46 44  1  1  0  0  0
 46 47  1  0  0  0  0
 47 48  1  0  0  0  0
 48 49  1  0  0  0  0
 49 50  1  0  0  0  0
 50 51  1  0  0  0  0
 51 46  1  0  0  0  0
 52 43  1  1  0  0  0
 52 53  1  0  0  0  0
 53 54  1  0  0  0  0
 54 55  1  0  0  0  0
 55 56  1  0  0  0  0
 56 57  1  0  0  0  0
 57 52  1  0  0  0  0
 49 58  1  1  0  0  0
 48 59  1  6  0  0  0
 50 60  1  6  0  0  0
 51 61  1  6  0  0  0
 57 62  1  6  0  0  0
 56 63  1  1  0  0  0
 55 64  1  6  0  0  0
M  END
>  <cdx:fragmentId>
5

$$$$
