9167.cdx
  Mrv1902 05222410272D          

 58 61  0  0  0  0            999 V2000
   12.3376  -10.1638    0.0000 C   0  0  2  0  0  0  0  0  0  0  0  0
   11.6231  -10.5763    0.0000 C   0  0  0  0  0  0  0  0  0  0  0  0
   10.9087  -10.1638    0.0000 C   0  0  0  0  0  0  0  0  0  0  0  0
   13.7666  -11.8138    0.0000 O   0  0  0  0  0  0  0  0  0  0  0  0
   10.9087   -9.3388    0.0000 O   0  0  0  0  0  0  0  0  0  0  0  0
   12.3376  -10.9888    0.0000 C   0  0  0  0  0  0  0  0  0  0  0  0
   10.1942  -10.5763    0.0000 O   0  0  0  0  0  0  0  0  0  0  0  0
    9.4797  -10.1638    0.0000 C   0  0  0  0  0  0  0  0  0  0  0  0
    8.7653  -10.5763    0.0000 C   0  0  0  0  0  0  0  0  0  0  0  0
    8.0508  -10.1638    0.0000 C   0  0  0  0  0  0  0  0  0  0  0  0
    7.3363  -10.5763    0.0000 C   0  0  0  0  0  0  0  0  0  0  0  0
    7.3363  -11.4013    0.0000 C   0  0  0  0  0  0  0  0  0  0  0  0
    6.6219  -11.8138    0.0000 C   0  0  0  0  0  0  0  0  0  0  0  0
    5.9074  -11.4013    0.0000 C   0  0  0  0  0  0  0  0  0  0  0  0
    5.9074  -10.5763    0.0000 C   0  0  0  0  0  0  0  0  0  0  0  0
    6.6219  -10.1638    0.0000 C   0  0  0  0  0  0  0  0  0  0  0  0
    5.1929  -11.8138    0.0000 O   0  0  0  0  0  0  0  0  0  0  0  0
    4.4784  -11.4013    0.0000 C   0  0  1  0  0  0  0  0  0  0  0  0
    3.7640  -11.8138    0.0000 C   0  0  1  0  0  0  0  0  0  0  0  0
    3.0495  -11.4013    0.0000 C   0  0  2  0  0  0  0  0  0  0  0  0
    3.0495  -10.5763    0.0000 C   0  0  1  0  0  0  0  0  0  0  0  0
    3.7640  -10.1638    0.0000 C   0  0  2  0  0  0  0  0  0  0  0  0
    4.4784  -10.5763    0.0000 O   0  0  0  0  0  0  0  0  0  0  0  0
    3.7640   -9.3388    0.0000 C   0  0  0  0  0  0  0  0  0  0  0  0
    3.0495   -8.9263    0.0000 O   0  0  0  0  0  0  0  0  0  0  0  0
    2.3350  -10.1638    0.0000 O   0  0  0  0  0  0  0  0  0  0  0  0
    2.3350  -11.8138    0.0000 O   0  0  0  0  0  0  0  0  0  0  0  0
    3.7640  -12.6388    0.0000 O   0  0  0  0  0  0  0  0  0  0  0  0
    5.1929  -10.1638    0.0000 O   0  0  0  0  0  0  0  0  0  0  0  0
    5.1929   -9.3388    0.0000 C   0  0  0  0  0  0  0  0  0  0  0  0
    6.6219  -12.6388    0.0000 O   0  0  0  0  0  0  0  0  0  0  0  0
    5.9074  -13.0513    0.0000 C   0  0  0  0  0  0  0  0  0  0  0  0
   12.3376  -11.8138    0.0000 O   0  0  0  0  0  0  0  0  0  0  0  0
   13.0521  -10.5763    0.0000 C   0  0  0  0  0  0  0  0  0  0  0  0
   13.0521  -11.4013    0.0000 C   0  0  0  0  0  0  0  0  0  0  0  0
   13.7684  -10.0949    0.0000 O   0  0  0  0  0  0  0  0  0  0  0  0
   15.1812   -9.2425    0.0000 O   0  0  0  0  0  0  0  0  0  0  0  0
   15.1495   -7.5928    0.0000 O   0  0  0  0  0  0  0  0  0  0  0  0
   17.9115   -2.5887    0.0000 O   0  0  0  0  0  0  0  0  0  0  0  0
   15.7764   -3.0424    0.0000 C   0  0  0  0  0  0  0  0  0  0  0  0
   16.4828   -2.6162    0.0000 C   0  0  0  0  0  0  0  0  0  0  0  0
   17.2051   -3.0149    0.0000 C   0  0  0  0  0  0  0  0  0  0  0  0
   17.2210   -3.8397    0.0000 C   0  0  0  0  0  0  0  0  0  0  0  0
   16.5146   -4.2659    0.0000 C   0  0  0  0  0  0  0  0  0  0  0  0
   15.7923   -3.8672    0.0000 C   0  0  0  0  0  0  0  0  0  0  0  0
   13.6731   -5.1458    0.0000 O   0  0  0  0  0  0  0  0  0  0  0  0
   15.0859   -4.2934    0.0000 C   0  0  0  0  0  0  0  0  0  0  0  0
   15.1018   -5.1183    0.0000 C   0  0  0  0  0  0  0  0  0  0  0  0
   14.3954   -5.5444    0.0000 C   0  0  0  0  0  0  0  0  0  0  0  0
   14.4113   -6.3693    0.0000 O   0  0  0  0  0  0  0  0  0  0  0  0
   13.7049   -6.7955    0.0000 C   0  0  0  0  0  0  0  0  0  0  0  0
   13.0144   -8.0465    0.0000 O   0  0  0  0  0  0  0  0  0  0  0  0
   13.7208   -7.6203    0.0000 C   0  0  2  0  0  0  0  0  0  0  0  0
   14.4431   -8.0190    0.0000 C   0  0  1  0  0  0  0  0  0  0  0  0
   14.4589   -8.8438    0.0000 C   0  0  2  0  0  0  0  0  0  0  0  0
   13.7525   -9.2700    0.0000 C   0  0  1  0  0  0  0  0  0  0  0  0
   13.0303   -8.8713    0.0000 C   0  0  1  0  0  0  0  0  0  0  0  0
   12.3239   -9.2975    0.0000 O   0  0  0  0  0  0  0  0  0  0  0  0
 35  4  1  0  0  0  0
 35 33  2  0  0  0  0
 35 34  1  0  0  0  0
 57 58  1  1  0  0  0
 56 36  1  6  0  0  0
 55 37  1  1  0  0  0
 54 38  1  6  0  0  0
 53 51  1  1  0  0  0
 51 50  1  0  0  0  0
 50 49  1  0  0  0  0
 47 45  1  0  0  0  0
 42 39  1  0  0  0  0
 45 40  2  0  0  0  0
 41 40  1  0  0  0  0
 42 41  2  0  0  0  0
 43 42  1  0  0  0  0
 44 43  2  0  0  0  0
 45 44  1  0  0  0  0
 49 46  2  0  0  0  0
 48 47  2  0  0  0  0
 49 48  1  0  0  0  0
 57 52  1  0  0  0  0
 53 52  1  0  0  0  0
 54 53  1  0  0  0  0
 55 54  1  0  0  0  0
 56 55  1  0  0  0  0
 34  1  1  0  0  0  0
  1  2  1  0  0  0  0
  2  3  1  0  0  0  0
 57 56  1  0  0  0  0
  1 58  1  0  0  0  0
  3  5  2  0  0  0  0
  1  6  1  6  0  0  0
  8  9  1  0  0  0  0
  9 10  2  0  0  0  0
 11 12  1  0  0  0  0
 12 13  2  0  0  0  0
 13 14  1  0  0  0  0
 14 15  2  0  0  0  0
 15 16  1  0  0  0  0
 11 16  2  0  0  0  0
 18 19  1  0  0  0  0
 19 20  1  0  0  0  0
 20 21  1  0  0  0  0
 21 22  1  0  0  0  0
 22 23  1  0  0  0  0
 18 23  1  0  0  0  0
 24 25  1  0  0  0  0
 22 24  1  1  0  0  0
 21 26  1  6  0  0  0
 20 27  1  1  0  0  0
 19 28  1  6  0  0  0
 18 17  1  1  0  0  0
 14 17  1  0  0  0  0
 29 30  1  0  0  0  0
 15 29  1  0  0  0  0
 31 32  1  0  0  0  0
 13 31  1  0  0  0  0
 10 11  1  0  0  0  0
  7  8  1  0  0  0  0
  3  7  1  0  0  0  0
M  END
>  <cdx:fragmentId>
45

$$$$
