91682.cdx
  Mrv1902 05222410272D          

 45 49  0  0  0  0            999 V2000
    6.1173   -7.9888    0.0000 O   0  0  0  0  0  0  0  0  0  0  0  0
   13.2620   -7.1638    0.0000 C   0  0  0  0  0  0  0  0  0  0  0  0
   12.5476   -6.7512    0.0000 O   0  0  0  0  0  0  0  0  0  0  0  0
   11.1186   -8.4013    0.0000 C   0  0  0  0  0  0  0  0  0  0  0  0
   11.8331   -7.9888    0.0000 C   0  0  0  0  0  0  0  0  0  0  0  0
   11.8331   -7.1638    0.0000 C   0  0  0  0  0  0  0  0  0  0  0  0
   11.1186   -6.7512    0.0000 C   0  0  0  0  0  0  0  0  0  0  0  0
   10.4042   -7.9888    0.0000 C   0  0  0  0  0  0  0  0  0  0  0  0
   10.4042   -7.1638    0.0000 C   0  0  0  0  0  0  0  0  0  0  0  0
    7.5463  -10.4637    0.0000 O   0  0  0  0  0  0  0  0  0  0  0  0
    8.9752  -10.4637    0.0000 O   0  0  0  0  0  0  0  0  0  0  0  0
    8.9752   -9.6387    0.0000 C   0  0  0  0  0  0  0  0  0  0  0  0
    9.6897   -9.2263    0.0000 C   0  0  0  0  0  0  0  0  0  0  0  0
    9.6897   -8.4013    0.0000 C   0  0  0  0  0  0  0  0  0  0  0  0
    8.9752   -7.9888    0.0000 O   0  0  0  0  0  0  0  0  0  0  0  0
    7.5463   -9.6387    0.0000 C   0  0  0  0  0  0  0  0  0  0  0  0
    8.2607   -9.2263    0.0000 C   0  0  0  0  0  0  0  0  0  0  0  0
    8.2607   -8.4013    0.0000 C   0  0  0  0  0  0  0  0  0  0  0  0
    7.5463   -7.9888    0.0000 C   0  0  0  0  0  0  0  0  0  0  0  0
    6.8318   -8.4013    0.0000 C   0  0  0  0  0  0  0  0  0  0  0  0
    6.8318   -9.2263    0.0000 C   0  0  0  0  0  0  0  0  0  0  0  0
    6.1171   -7.1638    0.0000 C   0  0  2  0  0  0  0  0  0  0  0  0
    6.8314   -6.7510    0.0000 O   0  0  0  0  0  0  0  0  0  0  0  0
    6.8311   -5.9260    0.0000 C   0  0  1  0  0  0  0  0  0  0  0  0
    6.1165   -5.5137    0.0000 C   0  0  2  0  0  0  0  0  0  0  0  0
    5.4022   -5.9265    0.0000 C   0  0  1  0  0  0  0  0  0  0  0  0
    5.4025   -6.7515    0.0000 C   0  0  1  0  0  0  0  0  0  0  0  0
    7.5455   -5.5133    0.0000 C   0  0  0  0  0  0  0  0  0  0  0  0
    4.6876   -5.5142    0.0000 O   0  0  0  0  0  0  0  0  0  0  0  0
    4.6881   -7.1642    0.0000 O   0  0  0  0  0  0  0  0  0  0  0  0
    6.1163   -4.6888    0.0000 O   0  0  0  0  0  0  0  0  0  0  0  0
    7.5452   -4.6883    0.0000 O   0  0  0  0  0  0  0  0  0  0  0  0
    3.9611   -6.7616    0.0000 C   0  0  2  0  0  0  0  0  0  0  0  0
    3.9472   -5.9367    0.0000 O   0  0  0  0  0  0  0  0  0  0  0  0
    3.2260   -5.5362    0.0000 C   0  0  1  0  0  0  0  0  0  0  0  0
    2.5185   -5.9607    0.0000 C   0  0  2  0  0  0  0  0  0  0  0  0
    2.5323   -6.7855    0.0000 C   0  0  1  0  0  0  0  0  0  0  0  0
    3.2536   -7.1860    0.0000 C   0  0  1  0  0  0  0  0  0  0  0  0
    3.2121   -4.7113    0.0000 C   0  0  0  0  0  0  0  0  0  0  0  0
    1.8249   -7.2100    0.0000 O   0  0  0  0  0  0  0  0  0  0  0  0
    3.2674   -8.0109    0.0000 O   0  0  0  0  0  0  0  0  0  0  0  0
    1.7972   -5.5602    0.0000 O   0  0  0  0  0  0  0  0  0  0  0  0
    8.2601   -5.9256    0.0000 O   0  0  0  0  0  0  0  0  0  0  0  0
    3.9196   -4.2869    0.0000 O   0  0  0  0  0  0  0  0  0  0  0  0
    2.4908   -4.3109    0.0000 O   0  0  0  0  0  0  0  0  0  0  0  0
 20  1  1  0  0  0  0
  3  2  1  0  0  0  0
  6  3  1  0  0  0  0
  4  8  2  0  0  0  0
  5  4  1  0  0  0  0
  6  5  2  0  0  0  0
  7  6  1  0  0  0  0
  9  7  2  0  0  0  0
  8 14  1  0  0  0  0
  9  8  1  0  0  0  0
 10 16  1  0  0  0  0
 12 11  2  0  0  0  0
 12 17  1  0  0  0  0
 13 12  1  0  0  0  0
 14 13  2  0  0  0  0
 15 14  1  0  0  0  0
 18 15  1  0  0  0  0
 16 21  1  0  0  0  0
 17 16  2  0  0  0  0
 18 17  1  0  0  0  0
 19 18  2  0  0  0  0
 20 19  1  0  0  0  0
 21 20  2  0  0  0  0
 22  1  1  1  0  0  0
 22 23  1  0  0  0  0
 23 24  1  0  0  0  0
 24 25  1  0  0  0  0
 25 26  1  0  0  0  0
 26 27  1  0  0  0  0
 27 22  1  0  0  0  0
 24 28  1  1  0  0  0
 26 29  1  1  0  0  0
 27 30  1  6  0  0  0
 25 31  1  6  0  0  0
 28 32  1  0  0  0  0
 33 34  1  0  0  0  0
 34 35  1  0  0  0  0
 35 36  1  0  0  0  0
 36 37  1  0  0  0  0
 37 38  1  0  0  0  0
 38 33  1  0  0  0  0
 35 39  1  1  0  0  0
 37 40  1  1  0  0  0
 38 41  1  6  0  0  0
 36 42  1  6  0  0  0
 28 43  2  0  0  0  0
 39 44  2  0  0  0  0
 39 45  1  0  0  0  0
 33 30  1  1  0  0  0
M  END
>  <cdx:fragmentId>
5

$$$$
