91699.cdx
  Mrv1902 05222410182D          

 42 46  0  0  0  0            999 V2000
    5.8831   -5.5687    0.0000 C   0  0  0  0  0  0  0  0  0  0  0  0
    5.8831   -6.3937    0.0000 C   0  0  0  0  0  0  0  0  0  0  0  0
    6.5975   -6.8062    0.0000 C   0  0  0  0  0  0  0  0  0  0  0  0
    7.3120   -6.3937    0.0000 C   0  0  0  0  0  0  0  0  0  0  0  0
    7.3120   -5.5687    0.0000 C   0  0  0  0  0  0  0  0  0  0  0  0
    6.5975   -5.1563    0.0000 C   0  0  0  0  0  0  0  0  0  0  0  0
    8.0265   -6.8062    0.0000 C   0  0  0  0  0  0  0  0  0  0  0  0
    8.7409   -6.3937    0.0000 C   0  0  0  0  0  0  0  0  0  0  0  0
    8.7409   -5.5687    0.0000 C   0  0  0  0  0  0  0  0  0  0  0  0
    8.0265   -5.1563    0.0000 O   0  0  0  0  0  0  0  0  0  0  0  0
   10.1699   -5.5687    0.0000 C   0  0  0  0  0  0  0  0  0  0  0  0
    9.4554   -5.1563    0.0000 C   0  0  0  0  0  0  0  0  0  0  0  0
   10.8844   -5.1563    0.0000 C   0  0  0  0  0  0  0  0  0  0  0  0
   10.8844   -4.3313    0.0000 C   0  0  0  0  0  0  0  0  0  0  0  0
   10.1699   -3.9188    0.0000 C   0  0  0  0  0  0  0  0  0  0  0  0
    9.4554   -4.3313    0.0000 C   0  0  0  0  0  0  0  0  0  0  0  0
    5.1686   -5.1563    0.0000 O   0  0  0  0  0  0  0  0  0  0  0  0
    5.1686   -6.8062    0.0000 C   0  0  2  0  0  0  0  0  0  0  0  0
    6.5975   -7.6313    0.0000 O   0  0  0  0  0  0  0  0  0  0  0  0
    8.0265   -7.6313    0.0000 O   0  0  0  0  0  0  0  0  0  0  0  0
   11.5988   -3.9188    0.0000 O   0  0  0  0  0  0  0  0  0  0  0  0
    4.4541   -6.3937    0.0000 O   0  0  0  0  0  0  0  0  0  0  0  0
    3.7396   -6.8062    0.0000 C   0  0  0  0  0  0  0  0  0  0  0  0
    3.7396   -7.6313    0.0000 C   0  0  1  0  0  0  0  0  0  0  0  0
    4.4541   -8.0437    0.0000 C   0  0  1  0  0  0  0  0  0  0  0  0
    5.1686   -7.6313    0.0000 C   0  0  1  0  0  0  0  0  0  0  0  0
    3.0252   -8.0437    0.0000 O   0  0  0  0  0  0  0  0  0  0  0  0
    4.4541   -8.8687    0.0000 O   0  0  0  0  0  0  0  0  0  0  0  0
    5.8831   -8.0437    0.0000 O   0  0  0  0  0  0  0  0  0  0  0  0
    5.8831   -8.9925    0.0000 C   0  0  2  0  0  0  0  0  0  0  0  0
    5.1686   -9.4050    0.0000 O   0  0  0  0  0  0  0  0  0  0  0  0
    5.1686  -10.2300    0.0000 C   0  0  1  0  0  0  0  0  0  0  0  0
    5.8831  -10.6425    0.0000 C   0  0  1  0  0  0  0  0  0  0  0  0
    6.5975  -10.2300    0.0000 C   0  0  1  0  0  0  0  0  0  0  0  0
    6.5975   -9.4050    0.0000 C   0  0  1  0  0  0  0  0  0  0  0  0
    5.8831  -11.4675    0.0000 O   0  0  0  0  0  0  0  0  0  0  0  0
    7.3120  -10.6425    0.0000 O   0  0  0  0  0  0  0  0  0  0  0  0
    7.3120   -8.9925    0.0000 O   0  0  0  0  0  0  0  0  0  0  0  0
    3.7396  -10.2300    0.0000 O   0  0  0  0  0  0  0  0  0  0  0  0
    4.4541  -11.4675    0.0000 O   0  0  0  0  0  0  0  0  0  0  0  0
    4.4541  -10.6425    0.0000 C   0  0  0  0  0  0  0  0  0  0  0  0
    5.1686   -5.9813    0.0000 H   0  0  0  0  0  0  0  0  0  0  0  0
  1  2  2  0  0  0  0
  2  3  1  0  0  0  0
  3  4  2  0  0  0  0
  4  5  1  0  0  0  0
  5  6  2  0  0  0  0
  6  1  1  0  0  0  0
  4  7  1  0  0  0  0
  7  8  1  0  0  0  0
  8  9  2  0  0  0  0
  9 10  1  0  0  0  0
 10  5  1  0  0  0  0
 11 12  2  0  0  0  0
 12  9  1  0  0  0  0
 11 13  1  0  0  0  0
 13 14  2  0  0  0  0
 14 15  1  0  0  0  0
 15 16  2  0  0  0  0
 16 12  1  0  0  0  0
  1 17  1  0  0  0  0
  2 18  1  0  0  0  0
  3 19  1  0  0  0  0
  7 20  2  0  0  0  0
 14 21  1  0  0  0  0
 18 22  1  0  0  0  0
 22 23  1  0  0  0  0
 23 24  1  0  0  0  0
 24 25  1  0  0  0  0
 25 26  1  0  0  0  0
 26 18  1  0  0  0  0
 24 27  1  1  0  0  0
 25 28  1  1  0  0  0
 26 29  1  6  0  0  0
 30 29  1  1  0  0  0
 30 31  1  0  0  0  0
 31 32  1  0  0  0  0
 32 33  1  0  0  0  0
 33 34  1  0  0  0  0
 34 35  1  0  0  0  0
 35 30  1  0  0  0  0
 41 39  2  0  0  0  0
 32 41  1  1  0  0  0
 33 36  1  1  0  0  0
 34 37  1  1  0  0  0
 35 38  1  6  0  0  0
 41 40  1  0  0  0  0
 18 42  1  6  0  0  0
M  END
>  <cdx:fragmentId>
5

$$$$
