91697.cdx
  Mrv1902 05222410272D          

 56 61  0  0  0  0            999 V2000
   11.4751   -9.7900    0.0000 O   0  0  0  0  0  0  0  0  0  0  0  0
    5.0448  -11.0275    0.0000 O   0  0  0  0  0  0  0  0  0  0  0  0
   10.7606  -11.0275    0.0000 C   0  0  0  0  0  0  0  0  0  0  0  0
   10.7606  -10.2025    0.0000 C   0  0  0  0  0  0  0  0  0  0  0  0
   10.0461   -9.7900    0.0000 C   0  0  0  0  0  0  0  0  0  0  0  0
    9.3317  -10.2025    0.0000 C   0  0  0  0  0  0  0  0  0  0  0  0
   10.0461  -11.4400    0.0000 C   0  0  0  0  0  0  0  0  0  0  0  0
    9.3317  -11.0275    0.0000 C   0  0  0  0  0  0  0  0  0  0  0  0
    6.4738  -13.5025    0.0000 O   0  0  0  0  0  0  0  0  0  0  0  0
    7.9027  -13.5025    0.0000 O   0  0  0  0  0  0  0  0  0  0  0  0
    7.9027  -12.6775    0.0000 C   0  0  0  0  0  0  0  0  0  0  0  0
    8.6172  -12.2650    0.0000 C   0  0  0  0  0  0  0  0  0  0  0  0
    8.6172  -11.4400    0.0000 C   0  0  0  0  0  0  0  0  0  0  0  0
    7.9027  -11.0275    0.0000 O   0  0  0  0  0  0  0  0  0  0  0  0
    6.4738  -12.6775    0.0000 C   0  0  0  0  0  0  0  0  0  0  0  0
    7.1882  -12.2650    0.0000 C   0  0  0  0  0  0  0  0  0  0  0  0
    7.1882  -11.4400    0.0000 C   0  0  0  0  0  0  0  0  0  0  0  0
    6.4738  -11.0275    0.0000 C   0  0  0  0  0  0  0  0  0  0  0  0
    5.7593  -11.4400    0.0000 C   0  0  0  0  0  0  0  0  0  0  0  0
    5.7593  -12.2650    0.0000 C   0  0  0  0  0  0  0  0  0  0  0  0
    5.0448  -12.6775    0.0000 C   0  0  2  0  0  0  0  0  0  0  0  0
    4.3304  -12.2650    0.0000 O   0  0  0  0  0  0  0  0  0  0  0  0
    3.6159  -12.6775    0.0000 C   0  0  1  0  0  0  0  0  0  0  0  0
    3.6159  -13.5025    0.0000 C   0  0  2  0  0  0  0  0  0  0  0  0
    4.3304  -13.9150    0.0000 C   0  0  1  0  0  0  0  0  0  0  0  0
    5.0448  -13.5025    0.0000 C   0  0  1  0  0  0  0  0  0  0  0  0
    2.9014  -12.2650    0.0000 C   0  0  0  0  0  0  0  0  0  0  0  0
    4.3304  -14.7400    0.0000 O   0  0  0  0  0  0  0  0  0  0  0  0
    2.9014  -13.9150    0.0000 O   0  0  0  0  0  0  0  0  0  0  0  0
    5.7593  -13.9150    0.0000 O   0  0  0  0  0  0  0  0  0  0  0  0
    2.1869  -12.6775    0.0000 O   0  0  0  0  0  0  0  0  0  0  0  0
    6.4738  -10.2025    0.0000 C   0  0  2  0  0  0  0  0  0  0  0  0
    7.1882   -9.7900    0.0000 O   0  0  0  0  0  0  0  0  0  0  0  0
    7.1882   -8.9650    0.0000 C   0  0  1  0  0  0  0  0  0  0  0  0
    6.4738   -8.5525    0.0000 C   0  0  2  0  0  0  0  0  0  0  0  0
    5.7593   -8.9650    0.0000 C   0  0  1  0  0  0  0  0  0  0  0  0
    5.7593   -9.7900    0.0000 C   0  0  1  0  0  0  0  0  0  0  0  0
    5.0448   -8.5525    0.0000 O   0  0  0  0  0  0  0  0  0  0  0  0
    7.9027   -8.5525    0.0000 C   0  0  0  0  0  0  0  0  0  0  0  0
    5.0448  -10.2025    0.0000 O   0  0  0  0  0  0  0  0  0  0  0  0
    6.4738   -7.7275    0.0000 O   0  0  0  0  0  0  0  0  0  0  0  0
    7.9027   -7.7275    0.0000 O   0  0  0  0  0  0  0  0  0  0  0  0
    8.6172   -7.3150    0.0000 C   0  0  0  0  0  0  0  0  0  0  0  0
    9.3317   -7.7275    0.0000 O   0  0  0  0  0  0  0  0  0  0  0  0
    8.6304   -6.4763    0.0000 C   0  0  0  0  0  0  0  0  0  0  0  0
    9.3449   -6.0638    0.0000 C   0  0  0  0  0  0  0  0  0  0  0  0
    9.3449   -5.2387    0.0000 C   0  0  0  0  0  0  0  0  0  0  0  0
    8.6304   -4.8263    0.0000 C   0  0  0  0  0  0  0  0  0  0  0  0
    7.9159   -5.2387    0.0000 C   0  0  0  0  0  0  0  0  0  0  0  0
    7.9159   -6.0638    0.0000 C   0  0  0  0  0  0  0  0  0  0  0  0
    8.6304   -4.0012    0.0000 O   0  0  0  0  0  0  0  0  0  0  0  0
   10.0594   -4.8263    0.0000 O   0  0  0  0  0  0  0  0  0  0  0  0
    7.2015   -4.8263    0.0000 O   0  0  0  0  0  0  0  0  0  0  0  0
   10.7738   -5.2387    0.0000 C   0  0  0  0  0  0  0  0  0  0  0  0
    5.0448  -11.8525    0.0000 H   0  0  0  0  0  0  0  0  0  0  0  0
    7.1882  -10.6150    0.0000 H   0  0  0  0  0  0  0  0  0  0  0  0
  4  1  1  0  0  0  0
 19  2  1  0  0  0  0
  3  7  1  0  0  0  0
  4  3  2  0  0  0  0
  5  4  1  0  0  0  0
  6  5  2  0  0  0  0
  8  6  1  0  0  0  0
  8  7  2  0  0  0  0
 13  8  1  0  0  0  0
  9 15  1  0  0  0  0
 11 10  2  0  0  0  0
 11 16  1  0  0  0  0
 12 11  1  0  0  0  0
 13 12  2  0  0  0  0
 14 13  1  0  0  0  0
 17 14  1  0  0  0  0
 15 20  1  0  0  0  0
 16 15  2  0  0  0  0
 17 16  1  0  0  0  0
 18 17  2  0  0  0  0
 19 18  1  0  0  0  0
 20 19  2  0  0  0  0
 20 21  1  0  0  0  0
 21 22  1  0  0  0  0
 22 23  1  0  0  0  0
 23 24  1  0  0  0  0
 24 25  1  0  0  0  0
 25 26  1  0  0  0  0
 26 21  1  0  0  0  0
 23 27  1  1  0  0  0
 25 28  1  1  0  0  0
 24 29  1  6  0  0  0
 26 30  1  6  0  0  0
 27 31  1  0  0  0  0
 18 32  1  0  0  0  0
 32 33  1  0  0  0  0
 33 34  1  0  0  0  0
 34 35  1  0  0  0  0
 35 36  1  0  0  0  0
 36 37  1  0  0  0  0
 37 32  1  0  0  0  0
 36 38  1  1  0  0  0
 34 39  1  1  0  0  0
 37 40  1  6  0  0  0
 35 41  1  6  0  0  0
 39 42  1  0  0  0  0
 42 43  1  0  0  0  0
 43 44  2  0  0  0  0
 45 46  2  0  0  0  0
 46 47  1  0  0  0  0
 47 48  2  0  0  0  0
 48 49  1  0  0  0  0
 49 50  2  0  0  0  0
 50 45  1  0  0  0  0
 48 51  1  0  0  0  0
 47 52  1  0  0  0  0
 49 53  1  0  0  0  0
 43 45  1  0  0  0  0
 52 54  1  0  0  0  0
 21 55  1  6  0  0  0
 32 56  1  6  0  0  0
M  END
>  <cdx:fragmentId>
5

$$$$
