91690.cdx
  Mrv1902 05222410262D          

 22 21  0  0  0  0            999 V2000
   13.5043   -6.6413    0.0000 C   0  0  0  0  0  0  0  0  0  0  0  0
   12.7898   -7.0537    0.0000 C   0  0  0  0  0  0  0  0  0  0  0  0
   12.0753   -6.6413    0.0000 C   0  0  0  0  0  0  0  0  0  0  0  0
   11.3608   -7.0537    0.0000 C   0  0  0  0  0  0  0  0  0  0  0  0
   10.6464   -6.6413    0.0000 C   0  0  0  0  0  0  0  0  0  0  0  0
    9.9319   -7.0537    0.0000 C   0  0  0  0  0  0  0  0  0  0  0  0
    9.2174   -6.6413    0.0000 C   0  0  0  0  0  0  0  0  0  0  0  0
    8.5030   -7.0537    0.0000 C   0  0  0  0  0  0  0  0  0  0  0  0
    7.7885   -6.6413    0.0000 C   0  0  0  0  0  0  0  0  0  0  0  0
    7.0740   -7.0537    0.0000 C   0  0  0  0  0  0  0  0  0  0  0  0
    6.3595   -6.6413    0.0000 C   0  0  0  0  0  0  0  0  0  0  0  0
    5.6451   -7.0537    0.0000 C   0  0  0  0  0  0  0  0  0  0  0  0
    4.9306   -6.6413    0.0000 C   0  0  0  0  0  0  0  0  0  0  0  0
    4.2161   -7.0537    0.0000 C   0  0  0  0  0  0  0  0  0  0  0  0
    3.5017   -6.6413    0.0000 C   0  0  0  0  0  0  0  0  0  0  0  0
    2.7872   -7.0537    0.0000 C   0  0  0  0  0  0  0  0  0  0  0  0
    2.0727   -6.6413    0.0000 O   0  0  0  0  0  0  0  0  0  0  0  0
    2.7872   -7.8788    0.0000 O   0  0  0  0  0  0  0  0  0  0  0  0
   12.0753   -5.8163    0.0000 C   0  0  0  0  0  0  0  0  0  0  0  0
    9.2174   -5.8163    0.0000 C   0  0  0  0  0  0  0  0  0  0  0  0
    6.3595   -5.8163    0.0000 C   0  0  0  0  0  0  0  0  0  0  0  0
    3.5017   -5.8163    0.0000 C   0  0  0  0  0  0  0  0  0  0  0  0
  2  1  1  0  0  0  0
  3  2  2  0  0  0  0
  4  3  1  0  0  0  0
  5  4  1  0  0  0  0
  6  5  1  0  0  0  0
  7  6  2  0  0  0  0
  8  7  1  0  0  0  0
  9  8  1  0  0  0  0
 10  9  1  0  0  0  0
 11 10  2  0  0  0  0
 12 11  1  0  0  0  0
 13 12  1  0  0  0  0
 14 13  1  0  0  0  0
 15 14  2  0  0  0  0
 16 15  1  0  0  0  0
 17 16  1  0  0  0  0
 16 18  2  0  0  0  0
  3 19  1  0  0  0  0
  7 20  1  0  0  0  0
 11 21  1  0  0  0  0
 15 22  1  0  0  0  0
M  END
>  <cdx:fragmentId>
3

$$$$
