91693.cdx
  Mrv1902 05222410262D          

 27 28  0  0  0  0            999 V2000
    3.4356   -9.4864    0.0000 C   0  0  0  0  0  0  0  0  0  0  0  0
    3.4356  -10.3114    0.0000 C   0  0  0  0  0  0  0  0  0  0  0  0
    4.1500  -10.7239    0.0000 C   0  0  0  0  0  0  0  0  0  0  0  0
    4.8645  -10.3114    0.0000 C   0  0  0  0  0  0  0  0  0  0  0  0
    4.8645   -9.4864    0.0000 C   0  0  0  0  0  0  0  0  0  0  0  0
    4.1500   -9.0739    0.0000 C   0  0  0  0  0  0  0  0  0  0  0  0
    5.5790  -10.7239    0.0000 C   0  0  0  0  0  0  0  0  0  0  0  0
    6.2934  -10.3114    0.0000 C   0  0  0  0  0  0  0  0  0  0  0  0
    6.2934   -9.4864    0.0000 C   0  0  0  0  0  0  0  0  0  0  0  0
    5.5790   -9.0739    0.0000 C   0  0  0  0  0  0  0  0  0  0  0  0
    4.1500  -11.5489    0.0000 O   0  0  0  0  0  0  0  0  0  0  0  0
    5.5790  -11.5489    0.0000 O   0  0  0  0  0  0  0  0  0  0  0  0
    5.5790   -8.2489    0.0000 O   0  0  0  0  0  0  0  0  0  0  0  0
    4.1500   -8.2489    0.0000 O   0  0  0  0  0  0  0  0  0  0  0  0
    8.4369   -9.0739    0.0000 C   0  0  0  0  0  0  0  0  0  0  0  0
    7.7224   -9.4864    0.0000 C   0  0  0  0  0  0  0  0  0  0  0  0
    7.0079   -9.0739    0.0000 C   0  0  1  0  0  0  0  0  0  0  0  0
    9.1513   -9.4864    0.0000 C   0  0  0  0  0  0  0  0  0  0  0  0
    9.1513  -10.3114    0.0000 C   0  0  0  0  0  0  0  0  0  0  0  0
    9.8658   -9.0739    0.0000 C   0  0  0  0  0  0  0  0  0  0  0  0
    7.0079   -8.2489    0.0000 O   0  0  0  0  0  0  0  0  0  0  0  0
    7.7224   -7.8364    0.0000 C   0  0  0  0  0  0  0  0  0  0  0  0
    8.4369   -8.2489    0.0000 O   0  0  0  0  0  0  0  0  0  0  0  0
    7.7224   -7.0114    0.0000 C   0  0  0  0  0  0  0  0  0  0  0  0
    8.4369   -6.5989    0.0000 C   0  0  0  0  0  0  0  0  0  0  0  0
    7.0079   -6.5989    0.0000 C   0  0  0  0  0  0  0  0  0  0  0  0
    9.1513   -7.0114    0.0000 C   0  0  0  0  0  0  0  0  0  0  0  0
  1  2  1  0  0  0  0
  2  3  2  0  0  0  0
  3  4  1  0  0  0  0
  4  5  2  0  0  0  0
  5  6  1  0  0  0  0
  6  1  2  0  0  0  0
  4  7  1  0  0  0  0
  7  8  1  0  0  0  0
  8  9  2  0  0  0  0
  9 10  1  0  0  0  0
 10  5  1  0  0  0  0
  3 11  1  0  0  0  0
 12  7  2  0  0  0  0
 10 13  2  0  0  0  0
 14  6  1  0  0  0  0
 15 16  1  0  0  0  0
 16 17  1  0  0  0  0
 17  9  1  0  0  0  0
 15 18  2  0  0  0  0
 18 19  1  0  0  0  0
 18 20  1  0  0  0  0
 17 21  1  6  0  0  0
 21 22  1  0  0  0  0
 22 23  2  0  0  0  0
 22 24  1  0  0  0  0
 24 25  2  0  0  0  0
 24 26  1  0  0  0  0
 25 27  1  0  0  0  0
M  END
>  <cdx:fragmentId>
145

$$$$
