91695.cdx
  Mrv1902 05222410282D          

 44 48  0  0  0  0            999 V2000
    7.1206   -5.6512    0.0000 C   0  0  0  0  0  0  0  0  0  0  0  0
    7.1206   -6.4763    0.0000 C   0  0  0  0  0  0  0  0  0  0  0  0
    7.8350   -6.8888    0.0000 C   0  0  0  0  0  0  0  0  0  0  0  0
    8.5495   -6.4763    0.0000 C   0  0  0  0  0  0  0  0  0  0  0  0
    8.5495   -5.6512    0.0000 C   0  0  0  0  0  0  0  0  0  0  0  0
    7.8350   -5.2387    0.0000 C   0  0  0  0  0  0  0  0  0  0  0  0
    9.2640   -6.8888    0.0000 C   0  0  0  0  0  0  0  0  0  0  0  0
    9.9784   -6.4763    0.0000 C   0  0  0  0  0  0  0  0  0  0  0  0
    9.9784   -5.6512    0.0000 C   0  0  0  0  0  0  0  0  0  0  0  0
    9.2640   -5.2387    0.0000 O   0  0  0  0  0  0  0  0  0  0  0  0
   11.4074   -5.6512    0.0000 C   0  0  0  0  0  0  0  0  0  0  0  0
   10.6929   -5.2387    0.0000 C   0  0  0  0  0  0  0  0  0  0  0  0
   12.1219   -5.2387    0.0000 C   0  0  0  0  0  0  0  0  0  0  0  0
   12.1219   -4.4138    0.0000 C   0  0  0  0  0  0  0  0  0  0  0  0
   11.4074   -4.0012    0.0000 C   0  0  0  0  0  0  0  0  0  0  0  0
   10.6929   -4.4138    0.0000 C   0  0  0  0  0  0  0  0  0  0  0  0
    6.4061   -5.2387    0.0000 O   0  0  0  0  0  0  0  0  0  0  0  0
   12.8363   -4.0012    0.0000 O   0  0  0  0  0  0  0  0  0  0  0  0
    9.2640   -7.7138    0.0000 O   0  0  0  0  0  0  0  0  0  0  0  0
    7.8350   -7.7138    0.0000 O   0  0  0  0  0  0  0  0  0  0  0  0
    6.4061   -6.8888    0.0000 C   0  0  2  0  0  0  0  0  0  0  0  0
    5.6475   -6.5005    0.0000 O   0  0  0  0  0  0  0  0  0  0  0  0
    4.9453   -6.9335    0.0000 C   0  0  1  0  0  0  0  0  0  0  0  0
    4.9691   -7.7582    0.0000 C   0  0  2  0  0  0  0  0  0  0  0  0
    5.6952   -8.1499    0.0000 C   0  0  1  0  0  0  0  0  0  0  0  0
    6.3975   -7.7169    0.0000 C   0  0  1  0  0  0  0  0  0  0  0  0
    4.2192   -6.5419    0.0000 C   0  0  0  0  0  0  0  0  0  0  0  0
    5.7191   -8.9745    0.0000 O   0  0  0  0  0  0  0  0  0  0  0  0
    7.1235   -8.1085    0.0000 O   0  0  0  0  0  0  0  0  0  0  0  0
    4.2669   -8.1912    0.0000 O   0  0  0  0  0  0  0  0  0  0  0  0
    3.5169   -6.9748    0.0000 O   0  0  0  0  0  0  0  0  0  0  0  0
    7.1474   -8.9332    0.0000 C   0  0  2  0  0  0  0  0  0  0  0  0
    6.4452   -9.3662    0.0000 O   0  0  0  0  0  0  0  0  0  0  0  0
    6.4690  -10.1908    0.0000 C   0  0  1  0  0  0  0  0  0  0  0  0
    7.1951  -10.5825    0.0000 C   0  0  2  0  0  0  0  0  0  0  0  0
    7.8973  -10.1495    0.0000 C   0  0  1  0  0  0  0  0  0  0  0  0
    7.8735   -9.3249    0.0000 C   0  0  1  0  0  0  0  0  0  0  0  0
    5.7668  -10.6238    0.0000 C   0  0  0  0  0  0  0  0  0  0  0  0
    8.6234  -10.5412    0.0000 O   0  0  0  0  0  0  0  0  0  0  0  0
    7.2190  -11.4072    0.0000 O   0  0  0  0  0  0  0  0  0  0  0  0
    8.5757   -8.8919    0.0000 O   0  0  0  0  0  0  0  0  0  0  0  0
    5.7906  -11.4485    0.0000 O   0  0  0  0  0  0  0  0  0  0  0  0
    5.0407  -10.2321    0.0000 O   0  0  0  0  0  0  0  0  0  0  0  0
    6.3755   -6.0502    0.0000 H   0  0  0  0  0  0  0  0  0  0  0  0
  1  2  1  0  0  0  0
  2  3  2  0  0  0  0
  3  4  1  0  0  0  0
  4  5  2  0  0  0  0
  5  6  1  0  0  0  0
  6  1  2  0  0  0  0
  4  7  1  0  0  0  0
  7  8  1  0  0  0  0
  8  9  2  0  0  0  0
  9 10  1  0  0  0  0
 10  5  1  0  0  0  0
 11 12  1  0  0  0  0
 12  9  1  0  0  0  0
 11 13  2  0  0  0  0
 13 14  1  0  0  0  0
 14 15  2  0  0  0  0
 15 16  1  0  0  0  0
 16 12  2  0  0  0  0
  1 17  1  0  0  0  0
 14 18  1  0  0  0  0
  7 19  2  0  0  0  0
  3 20  1  0  0  0  0
  2 21  1  0  0  0  0
 22 23  1  0  0  0  0
 23 24  1  0  0  0  0
 24 25  1  0  0  0  0
 25 26  1  0  0  0  0
 23 27  1  1  0  0  0
 25 28  1  1  0  0  0
 26 29  1  6  0  0  0
 24 30  1  6  0  0  0
 27 31  1  0  0  0  0
 32 29  1  1  0  0  0
 32 33  1  0  0  0  0
 33 34  1  0  0  0  0
 34 35  1  0  0  0  0
 35 36  1  0  0  0  0
 36 37  1  0  0  0  0
 37 32  1  0  0  0  0
 34 38  1  1  0  0  0
 36 39  1  1  0  0  0
 35 40  1  6  0  0  0
 37 41  1  6  0  0  0
 38 42  1  0  0  0  0
 38 43  2  0  0  0  0
 21 22  1  0  0  0  0
 21 26  1  0  0  0  0
 21 44  1  6  0  0  0
M  END
>  <cdx:fragmentId>
5

$$$$
