91696.cdx
  Mrv1902 05222410272D          

 57 62  0  0  0  0            999 V2000
   13.4001   -9.5700    0.0000 O   0  0  0  0  0  0  0  0  0  0  0  0
    6.9698  -10.8075    0.0000 O   0  0  0  0  0  0  0  0  0  0  0  0
   12.6856  -10.8075    0.0000 C   0  0  0  0  0  0  0  0  0  0  0  0
   12.6856   -9.9825    0.0000 C   0  0  0  0  0  0  0  0  0  0  0  0
   11.9711   -9.5700    0.0000 C   0  0  0  0  0  0  0  0  0  0  0  0
   11.2567   -9.9825    0.0000 C   0  0  0  0  0  0  0  0  0  0  0  0
   11.9711  -11.2200    0.0000 C   0  0  0  0  0  0  0  0  0  0  0  0
   11.2567  -10.8075    0.0000 C   0  0  0  0  0  0  0  0  0  0  0  0
    8.3988  -13.2825    0.0000 O   0  0  0  0  0  0  0  0  0  0  0  0
    9.8277  -13.2825    0.0000 O   0  0  0  0  0  0  0  0  0  0  0  0
    9.8277  -12.4575    0.0000 C   0  0  0  0  0  0  0  0  0  0  0  0
   10.5422  -12.0450    0.0000 C   0  0  0  0  0  0  0  0  0  0  0  0
   10.5422  -11.2200    0.0000 C   0  0  0  0  0  0  0  0  0  0  0  0
    9.8277  -10.8075    0.0000 O   0  0  0  0  0  0  0  0  0  0  0  0
    8.3988  -12.4575    0.0000 C   0  0  0  0  0  0  0  0  0  0  0  0
    9.1132  -12.0450    0.0000 C   0  0  0  0  0  0  0  0  0  0  0  0
    9.1132  -11.2200    0.0000 C   0  0  0  0  0  0  0  0  0  0  0  0
    8.3988  -10.8075    0.0000 C   0  0  0  0  0  0  0  0  0  0  0  0
    7.6843  -11.2200    0.0000 C   0  0  0  0  0  0  0  0  0  0  0  0
    7.6843  -12.0450    0.0000 C   0  0  0  0  0  0  0  0  0  0  0  0
    6.9698  -12.4575    0.0000 C   0  0  2  0  0  0  0  0  0  0  0  0
    6.2554  -12.0450    0.0000 O   0  0  0  0  0  0  0  0  0  0  0  0
    5.5409  -12.4575    0.0000 C   0  0  1  0  0  0  0  0  0  0  0  0
    5.5409  -13.2825    0.0000 C   0  0  2  0  0  0  0  0  0  0  0  0
    6.2554  -13.6950    0.0000 C   0  0  1  0  0  0  0  0  0  0  0  0
    6.9698  -13.2825    0.0000 C   0  0  1  0  0  0  0  0  0  0  0  0
    4.8264  -12.0450    0.0000 C   0  0  0  0  0  0  0  0  0  0  0  0
    6.2554  -14.5200    0.0000 O   0  0  0  0  0  0  0  0  0  0  0  0
    4.8264  -13.6950    0.0000 O   0  0  0  0  0  0  0  0  0  0  0  0
    7.6843  -13.6950    0.0000 O   0  0  0  0  0  0  0  0  0  0  0  0
    4.1119  -12.4575    0.0000 O   0  0  0  0  0  0  0  0  0  0  0  0
    8.3988   -9.9825    0.0000 C   0  0  2  0  0  0  0  0  0  0  0  0
    9.1132   -9.5700    0.0000 O   0  0  0  0  0  0  0  0  0  0  0  0
    9.1132   -8.7450    0.0000 C   0  0  1  0  0  0  0  0  0  0  0  0
    8.3988   -8.3325    0.0000 C   0  0  2  0  0  0  0  0  0  0  0  0
    7.6843   -8.7450    0.0000 C   0  0  1  0  0  0  0  0  0  0  0  0
    7.6843   -9.5700    0.0000 C   0  0  1  0  0  0  0  0  0  0  0  0
    6.9698   -8.3325    0.0000 O   0  0  0  0  0  0  0  0  0  0  0  0
    9.8277   -8.3325    0.0000 C   0  0  0  0  0  0  0  0  0  0  0  0
    6.9698   -9.9825    0.0000 O   0  0  0  0  0  0  0  0  0  0  0  0
    8.3988   -7.5075    0.0000 O   0  0  0  0  0  0  0  0  0  0  0  0
    9.8277   -7.5075    0.0000 O   0  0  0  0  0  0  0  0  0  0  0  0
    6.9698  -11.6325    0.0000 H   0  0  0  0  0  0  0  0  0  0  0  0
    9.1132  -10.3950    0.0000 H   0  0  0  0  0  0  0  0  0  0  0  0
    6.2554   -9.5700    0.0000 C   0  0  0  0  0  0  0  0  0  0  0  0
    5.5409   -9.9825    0.0000 C   0  0  0  0  0  0  0  0  0  0  0  0
    6.2554   -8.7450    0.0000 O   0  0  0  0  0  0  0  0  0  0  0  0
    4.8264   -9.5700    0.0000 C   0  0  0  0  0  0  0  0  0  0  0  0
    4.1119   -9.9825    0.0000 C   0  0  0  0  0  0  0  0  0  0  0  0
    3.3975   -9.5700    0.0000 C   0  0  0  0  0  0  0  0  0  0  0  0
    2.6830   -9.9825    0.0000 C   0  0  0  0  0  0  0  0  0  0  0  0
    2.6830  -10.8075    0.0000 C   0  0  0  0  0  0  0  0  0  0  0  0
    3.3975  -11.2200    0.0000 C   0  0  0  0  0  0  0  0  0  0  0  0
    4.1119  -10.8075    0.0000 C   0  0  0  0  0  0  0  0  0  0  0  0
    1.9685  -11.2200    0.0000 O   0  0  0  0  0  0  0  0  0  0  0  0
    1.9685   -9.5700    0.0000 O   0  0  0  0  0  0  0  0  0  0  0  0
    1.2541   -9.9825    0.0000 C   0  0  0  0  0  0  0  0  0  0  0  0
  4  1  1  0  0  0  0
 19  2  1  0  0  0  0
  3  7  1  0  0  0  0
  4  3  2  0  0  0  0
  5  4  1  0  0  0  0
  6  5  2  0  0  0  0
  8  6  1  0  0  0  0
  8  7  2  0  0  0  0
 13  8  1  0  0  0  0
  9 15  1  0  0  0  0
 11 10  2  0  0  0  0
 11 16  1  0  0  0  0
 12 11  1  0  0  0  0
 13 12  2  0  0  0  0
 14 13  1  0  0  0  0
 17 14  1  0  0  0  0
 15 20  1  0  0  0  0
 16 15  2  0  0  0  0
 17 16  1  0  0  0  0
 18 17  2  0  0  0  0
 19 18  1  0  0  0  0
 20 19  2  0  0  0  0
 20 21  1  0  0  0  0
 21 22  1  0  0  0  0
 22 23  1  0  0  0  0
 23 24  1  0  0  0  0
 24 25  1  0  0  0  0
 25 26  1  0  0  0  0
 26 21  1  0  0  0  0
 23 27  1  1  0  0  0
 25 28  1  1  0  0  0
 24 29  1  6  0  0  0
 26 30  1  6  0  0  0
 27 31  1  0  0  0  0
 18 32  1  0  0  0  0
 32 33  1  0  0  0  0
 33 34  1  0  0  0  0
 34 35  1  0  0  0  0
 35 36  1  0  0  0  0
 36 37  1  0  0  0  0
 37 32  1  0  0  0  0
 36 38  1  1  0  0  0
 34 39  1  1  0  0  0
 37 40  1  6  0  0  0
 35 41  1  6  0  0  0
 39 42  1  0  0  0  0
 21 43  1  6  0  0  0
 32 44  1  6  0  0  0
 40 45  1  0  0  0  0
 45 46  1  0  0  0  0
 45 47  2  0  0  0  0
 46 48  1  0  0  0  0
 48 49  1  0  0  0  0
 49 50  2  0  0  0  0
 50 51  1  0  0  0  0
 51 52  2  0  0  0  0
 52 53  1  0  0  0  0
 53 54  2  0  0  0  0
 54 49  1  0  0  0  0
 52 55  1  0  0  0  0
 51 56  1  0  0  0  0
 56 57  1  0  0  0  0
M  END
>  <cdx:fragmentId>
5

$$$$
