91703.cdx
  Mrv1902 05222410202D          

 44 48  0  0  0  0            999 V2000
    3.8481   -5.2800    0.0000 C   0  0  2  0  0  0  0  0  0  0  0  0
    3.8481   -6.1050    0.0000 C   0  0  2  0  0  0  0  0  0  0  0  0
    4.5625   -6.5175    0.0000 C   0  0  1  0  0  0  0  0  0  0  0  0
    5.2770   -6.1050    0.0000 C   0  0  2  0  0  0  0  0  0  0  0  0
    5.2770   -5.2800    0.0000 C   0  0  0  0  0  0  0  0  0  0  0  0
    4.5625   -4.8675    0.0000 O   0  0  0  0  0  0  0  0  0  0  0  0
    4.5625   -4.0425    0.0000 O   0  0  0  0  0  0  0  0  0  0  0  0
    3.1336   -4.0425    0.0000 O   0  0  0  0  0  0  0  0  0  0  0  0
    3.1336   -4.8675    0.0000 C   0  0  0  0  0  0  0  0  0  0  0  0
    5.9915   -4.0425    0.0000 C   0  0  0  0  0  0  0  0  0  0  0  0
    5.2770   -3.6300    0.0000 C   0  0  0  0  0  0  0  0  0  0  0  0
    6.7059   -3.6300    0.0000 C   0  0  0  0  0  0  0  0  0  0  0  0
    6.7059   -2.8050    0.0000 C   0  0  0  0  0  0  0  0  0  0  0  0
    5.9915   -2.3925    0.0000 C   0  0  0  0  0  0  0  0  0  0  0  0
    5.2770   -2.8050    0.0000 C   0  0  0  0  0  0  0  0  0  0  0  0
    7.4204   -4.0425    0.0000 O   0  0  0  0  0  0  0  0  0  0  0  0
    8.1349   -3.6300    0.0000 C   0  0  0  0  0  0  0  0  0  0  0  0
    8.1349   -2.8050    0.0000 C   0  0  0  0  0  0  0  0  0  0  0  0
    7.4204   -2.3925    0.0000 C   0  0  0  0  0  0  0  0  0  0  0  0
    8.8494   -4.0425    0.0000 C   0  0  0  0  0  0  0  0  0  0  0  0
    9.5638   -3.6300    0.0000 C   0  0  0  0  0  0  0  0  0  0  0  0
    8.8494   -4.8675    0.0000 C   0  0  0  0  0  0  0  0  0  0  0  0
    9.5638   -5.2800    0.0000 C   0  0  0  0  0  0  0  0  0  0  0  0
   10.2783   -4.8675    0.0000 C   0  0  0  0  0  0  0  0  0  0  0  0
   10.2783   -4.0425    0.0000 C   0  0  0  0  0  0  0  0  0  0  0  0
    7.4204   -1.5675    0.0000 O   0  0  0  0  0  0  0  0  0  0  0  0
    5.9915   -1.5675    0.0000 O   0  0  0  0  0  0  0  0  0  0  0  0
    4.5625   -7.3425    0.0000 O   0  0  0  0  0  0  0  0  0  0  0  0
    3.1336   -6.5175    0.0000 O   0  0  0  0  0  0  0  0  0  0  0  0
    5.9915   -6.5175    0.0000 O   0  0  0  0  0  0  0  0  0  0  0  0
   10.9928   -5.2800    0.0000 O   0  0  0  0  0  0  0  0  0  0  0  0
    5.9915   -7.3425    0.0000 C   0  0  0  0  0  0  0  0  0  0  0  0
    6.7059   -7.7550    0.0000 C   0  0  0  0  0  0  0  0  0  0  0  0
    6.7059   -8.5800    0.0000 C   0  0  0  0  0  0  0  0  0  0  0  0
    5.2770   -7.7550    0.0000 O   0  0  0  0  0  0  0  0  0  0  0  0
    7.4204   -8.9925    0.0000 C   0  0  0  0  0  0  0  0  0  0  0  0
    7.4204   -9.8175    0.0000 C   0  0  0  0  0  0  0  0  0  0  0  0
    8.1349  -10.2300    0.0000 C   0  0  0  0  0  0  0  0  0  0  0  0
    8.8494   -9.8175    0.0000 C   0  0  0  0  0  0  0  0  0  0  0  0
    8.8494   -8.9925    0.0000 C   0  0  0  0  0  0  0  0  0  0  0  0
    8.1349   -8.5800    0.0000 C   0  0  0  0  0  0  0  0  0  0  0  0
    9.5638  -10.2300    0.0000 O   0  0  0  0  0  0  0  0  0  0  0  0
    9.5638   -8.5800    0.0000 O   0  0  0  0  0  0  0  0  0  0  0  0
   10.2783   -8.9925    0.0000 C   0  0  0  0  0  0  0  0  0  0  0  0
  1  2  1  0  0  0  0
  2  3  1  0  0  0  0
  3  4  1  0  0  0  0
  4  5  1  0  0  0  0
  5  6  1  0  0  0  0
  6  1  1  0  0  0  0
  8  9  1  0  0  0  0
  1  9  1  1  0  0  0
 10 11  1  0  0  0  0
 11  7  1  0  0  0  0
 10 12  2  0  0  0  0
 12 13  1  0  0  0  0
 13 14  2  0  0  0  0
 14 15  1  0  0  0  0
 15 11  2  0  0  0  0
 12 16  1  0  0  0  0
 16 17  1  0  0  0  0
 17 18  2  0  0  0  0
 18 19  1  0  0  0  0
 19 13  1  0  0  0  0
 17 20  1  0  0  0  0
 20 21  1  0  0  0  0
 20 22  2  0  0  0  0
 22 23  1  0  0  0  0
 23 24  2  0  0  0  0
 24 25  1  0  0  0  0
 25 21  2  0  0  0  0
 19 26  2  0  0  0  0
 27 14  1  0  0  0  0
  3 28  1  1  0  0  0
  2 29  1  6  0  0  0
  4 30  1  6  0  0  0
 24 31  1  0  0  0  0
 30 32  1  0  0  0  0
 32 33  1  0  0  0  0
 33 34  2  0  0  0  0
 32 35  2  0  0  0  0
 34 36  1  0  0  0  0
 36 37  2  0  0  0  0
 37 38  1  0  0  0  0
 38 39  2  0  0  0  0
 39 40  1  0  0  0  0
 40 41  2  0  0  0  0
 41 36  1  0  0  0  0
 39 42  1  0  0  0  0
 40 43  1  0  0  0  0
 43 44  1  0  0  0  0
  5 10  1  0  0  0  0
M  END
>  <cdx:fragmentId>
5

$$$$
