917049.cdx
  Mrv1902 05222410232D          

 47 50  0  0  0  0            999 V2000
    8.2061   -7.1953    0.0000 C   0  0  0  0  0  0  0  0  0  0  0  0
    8.4610   -6.4107    0.0000 C   0  0  2  0  0  0  0  0  0  0  0  0
    7.9418   -5.7695    0.0000 C   0  0  0  0  0  0  0  0  0  0  0  0
    8.2375   -4.9993    0.0000 C   0  0  0  0  0  0  0  0  0  0  0  0
    9.0523   -4.8703    0.0000 C   0  0  0  0  0  0  0  0  0  0  0  0
    7.3991   -7.3668    0.0000 O   0  0  0  0  0  0  0  0  0  0  0  0
    8.7581   -7.8084    0.0000 N   0  0  0  0  0  0  0  0  0  0  0  0
    7.7183   -4.3582    0.0000 C   0  0  0  0  0  0  0  0  0  0  0  0
    9.2759   -6.2816    0.0000 N   0  0  0  0  0  0  0  0  0  0  0  0
    9.7951   -6.9228    0.0000 C   0  0  0  0  0  0  0  0  0  0  0  0
    9.5715   -5.5114    0.0000 C   0  0  0  0  0  0  0  0  0  0  0  0
    7.6962   -8.7645    0.0000 C   0  0  0  0  0  0  0  0  0  0  0  0
    8.5032   -8.5930    0.0000 C   0  0  2  0  0  0  0  0  0  0  0  0
    9.0552   -9.2061    0.0000 C   0  0  0  0  0  0  0  0  0  0  0  0
    9.8622   -9.0346    0.0000 C   0  0  0  0  0  0  0  0  0  0  0  0
   10.1171   -8.2500    0.0000 C   0  0  0  0  0  0  0  0  0  0  0  0
   10.9241   -8.0784    0.0000 C   0  0  0  0  0  0  0  0  0  0  0  0
   11.4761   -8.6915    0.0000 C   0  0  0  0  0  0  0  0  0  0  0  0
   11.2212   -9.4762    0.0000 C   0  0  0  0  0  0  0  0  0  0  0  0
   10.4142   -9.6477    0.0000 C   0  0  0  0  0  0  0  0  0  0  0  0
    7.1442   -8.1515    0.0000 O   0  0  0  0  0  0  0  0  0  0  0  0
    5.6537  -11.8868    0.0000 C   0  0  0  0  0  0  0  0  0  0  0  0
    6.2987  -11.3724    0.0000 O   0  0  0  0  0  0  0  0  0  0  0  0
    6.6566  -10.6291    0.0000 C   0  0  0  0  0  0  0  0  0  0  0  0
    7.4413  -10.8840    0.0000 C   0  0  0  0  0  0  0  0  0  0  0  0
    7.9262  -10.2166    0.0000 C   0  0  0  0  0  0  0  0  0  0  0  0
    7.4413   -9.5492    0.0000 N   0  0  0  0  0  0  0  0  0  0  0  0
    6.6566   -9.8041    0.0000 C   0  0  2  0  0  0  0  0  0  0  0  0
    6.2987   -9.0608    0.0000 C   0  0  0  0  0  0  0  0  0  0  0  0
    5.6537   -8.5464    0.0000 N   0  0  0  0  0  0  0  0  0  0  0  0
    4.8494   -8.3628    0.0000 C   0  0  2  0  0  0  0  0  0  0  0  0
    4.0451   -8.5464    0.0000 C   0  0  0  0  0  0  0  0  0  0  0  0
    3.4000   -9.0608    0.0000 N   0  0  0  0  0  0  0  0  0  0  0  0
    3.0421   -9.8041    0.0000 C   0  0  0  0  0  0  0  0  0  0  0  0
    3.0421  -10.6291    0.0000 C   0  0  0  0  0  0  0  0  0  0  0  0
    3.4000  -11.3724    0.0000 C   0  0  0  0  0  0  0  0  0  0  0  0
    4.0451  -11.8868    0.0000 C   0  0  0  0  0  0  0  0  0  0  0  0
    4.8494  -12.0704    0.0000 C   0  0  0  0  0  0  0  0  0  0  0  0
    5.0102  -11.3706    0.0000 C   0  0  0  0  0  0  0  0  0  0  0  0
    4.2058  -11.1870    0.0000 C   0  0  0  0  0  0  0  0  0  0  0  0
    3.6326   -7.8320    0.0000 O   0  0  0  0  0  0  0  0  0  0  0  0
    6.9437   -8.5464    0.0000 O   0  0  0  0  0  0  0  0  0  0  0  0
    5.5638   -7.1253    0.0000 C   0  0  0  0  0  0  0  0  0  0  0  0
    4.8494   -7.5378    0.0000 C   0  0  0  0  0  0  0  0  0  0  0  0
    4.1349   -7.1253    0.0000 C   0  0  0  0  0  0  0  0  0  0  0  0
    4.1349   -6.3003    0.0000 C   0  0  0  0  0  0  0  0  0  0  0  0
    6.9809   -9.0455    0.0000 H   0  0  0  0  0  0  0  0  0  0  0  0
  1  2  1  0  0  0  0
  2  3  1  6  0  0  0
  3  4  1  0  0  0  0
  4  5  1  0  0  0  0
  1  6  2  0  0  0  0
  1  7  1  0  0  0  0
  4  8  1  0  0  0  0
  9 10  1  0  0  0  0
  9 11  1  0  0  0  0
  2  9  1  0  0  0  0
 12 13  1  0  0  0  0
 13 14  1  0  0  0  0
 15 16  1  0  0  0  0
 16 17  2  0  0  0  0
 17 18  1  0  0  0  0
 18 19  2  0  0  0  0
 19 20  1  0  0  0  0
 15 20  2  0  0  0  0
 14 15  1  0  0  0  0
 12 21  2  0  0  0  0
 22 23  1  0  0  0  0
 23 24  1  0  0  0  0
 24 25  1  0  0  0  0
 25 26  1  0  0  0  0
 26 27  1  0  0  0  0
 27 28  1  0  0  0  0
 28 29  1  0  0  0  0
 29 30  1  0  0  0  0
 31 30  1  6  0  0  0
 31 32  1  0  0  0  0
 32 33  1  0  0  0  0
 33 34  1  0  0  0  0
 34 35  2  0  0  0  0
 35 36  1  0  0  0  0
 36 37  2  0  0  0  0
 37 38  1  0  0  0  0
 39 40  2  0  0  0  0
 22 38  2  0  0  0  0
 22 39  1  0  0  0  0
 40 36  1  0  0  0  0
 24 28  1  0  0  0  0
 32 41  2  0  0  0  0
 29 42  2  0  0  0  0
 43 44  1  0  0  0  0
 44 45  1  0  0  0  0
 45 46  1  0  0  0  0
 31 44  1  0  0  0  0
 12 27  1  0  0  0  0
 13  7  1  1  0  0  0
 28 47  1  6  0  0  0
M  END
>  <cdx:fragmentId>
5266

$$$$
