91722.cdx
  Mrv1902 05222410182D          

 42 46  0  0  0  0            999 V2000
    6.4606   -8.4150    0.0000 C   0  0  0  0  0  0  0  0  0  0  0  0
    6.4606   -9.2400    0.0000 C   0  0  0  0  0  0  0  0  0  0  0  0
    7.1750   -9.6525    0.0000 C   0  0  0  0  0  0  0  0  0  0  0  0
    7.8895   -9.2400    0.0000 C   0  0  0  0  0  0  0  0  0  0  0  0
    7.8895   -8.4150    0.0000 C   0  0  0  0  0  0  0  0  0  0  0  0
    7.1750   -8.0025    0.0000 C   0  0  0  0  0  0  0  0  0  0  0  0
    8.6040   -9.6525    0.0000 C   0  0  0  0  0  0  0  0  0  0  0  0
    9.3184   -9.2400    0.0000 C   0  0  0  0  0  0  0  0  0  0  0  0
    9.3184   -8.4150    0.0000 C   0  0  0  0  0  0  0  0  0  0  0  0
    8.6040   -8.0025    0.0000 O   0  0  0  0  0  0  0  0  0  0  0  0
   10.7474   -8.4150    0.0000 C   0  0  0  0  0  0  0  0  0  0  0  0
   10.0329   -8.0025    0.0000 C   0  0  0  0  0  0  0  0  0  0  0  0
   11.4619   -8.0025    0.0000 C   0  0  0  0  0  0  0  0  0  0  0  0
   11.4619   -7.1775    0.0000 C   0  0  0  0  0  0  0  0  0  0  0  0
   10.7474   -6.7650    0.0000 C   0  0  0  0  0  0  0  0  0  0  0  0
   10.0329   -7.1775    0.0000 C   0  0  0  0  0  0  0  0  0  0  0  0
    7.1750  -10.4775    0.0000 O   0  0  0  0  0  0  0  0  0  0  0  0
    8.6040  -10.4775    0.0000 O   0  0  0  0  0  0  0  0  0  0  0  0
    5.7461   -8.0025    0.0000 O   0  0  0  0  0  0  0  0  0  0  0  0
   12.1763   -6.7650    0.0000 O   0  0  0  0  0  0  0  0  0  0  0  0
    7.1750   -7.1775    0.0000 C   0  0  2  0  0  0  0  0  0  0  0  0
    7.8895   -6.7650    0.0000 O   0  0  0  0  0  0  0  0  0  0  0  0
    7.8895   -5.9400    0.0000 C   0  0  1  0  0  0  0  0  0  0  0  0
    7.1750   -5.5275    0.0000 C   0  0  2  0  0  0  0  0  0  0  0  0
    6.4606   -5.9400    0.0000 C   0  0  1  0  0  0  0  0  0  0  0  0
    6.4606   -6.7650    0.0000 C   0  0  1  0  0  0  0  0  0  0  0  0
    5.7461   -5.5275    0.0000 O   0  0  0  0  0  0  0  0  0  0  0  0
    8.6040   -5.5275    0.0000 C   0  0  0  0  0  0  0  0  0  0  0  0
    5.7461   -7.1775    0.0000 O   0  0  0  0  0  0  0  0  0  0  0  0
    7.1750   -4.7025    0.0000 O   0  0  0  0  0  0  0  0  0  0  0  0
    8.6040   -4.7025    0.0000 O   0  0  0  0  0  0  0  0  0  0  0  0
    5.7461   -9.6525    0.0000 C   0  0  2  0  0  0  0  0  0  0  0  0
    5.0316   -9.2400    0.0000 O   0  0  0  0  0  0  0  0  0  0  0  0
    4.3171   -9.6525    0.0000 C   0  0  0  0  0  0  0  0  0  0  0  0
    4.3171  -10.4775    0.0000 C   0  0  1  0  0  0  0  0  0  0  0  0
    5.0316  -10.8900    0.0000 C   0  0  1  0  0  0  0  0  0  0  0  0
    5.7461  -10.4775    0.0000 C   0  0  1  0  0  0  0  0  0  0  0  0
    6.4606  -10.8900    0.0000 O   0  0  0  0  0  0  0  0  0  0  0  0
    5.0316  -11.7150    0.0000 O   0  0  0  0  0  0  0  0  0  0  0  0
    3.6027  -10.8900    0.0000 O   0  0  0  0  0  0  0  0  0  0  0  0
    5.7461   -8.8275    0.0000 H   0  0  0  0  0  0  0  0  0  0  0  0
    7.8895   -7.5900    0.0000 H   0  0  0  0  0  0  0  0  0  0  0  0
  1  2  2  0  0  0  0
  2  3  1  0  0  0  0
  3  4  2  0  0  0  0
  4  5  1  0  0  0  0
  5  6  2  0  0  0  0
  6  1  1  0  0  0  0
  4  7  1  0  0  0  0
  7  8  1  0  0  0  0
  8  9  2  0  0  0  0
  9 10  1  0  0  0  0
 10  5  1  0  0  0  0
 11 12  2  0  0  0  0
 12  9  1  0  0  0  0
 11 13  1  0  0  0  0
 13 14  2  0  0  0  0
 14 15  1  0  0  0  0
 15 16  2  0  0  0  0
 16 12  1  0  0  0  0
  3 17  1  0  0  0  0
 18  7  2  0  0  0  0
  1 19  1  0  0  0  0
 14 20  1  0  0  0  0
  6 21  1  0  0  0  0
 21 22  1  0  0  0  0
 22 23  1  0  0  0  0
 23 24  1  0  0  0  0
 24 25  1  0  0  0  0
 25 26  1  0  0  0  0
 26 21  1  0  0  0  0
 25 27  1  1  0  0  0
 23 28  1  1  0  0  0
 26 29  1  6  0  0  0
 24 30  1  6  0  0  0
 28 31  1  0  0  0  0
  2 32  1  0  0  0  0
 32 33  1  0  0  0  0
 33 34  1  0  0  0  0
 34 35  1  0  0  0  0
 35 36  1  0  0  0  0
 36 37  1  0  0  0  0
 37 32  1  0  0  0  0
 37 38  1  6  0  0  0
 36 39  1  1  0  0  0
 35 40  1  1  0  0  0
 32 41  1  6  0  0  0
 21 42  1  6  0  0  0
M  END
>  <cdx:fragmentId>
5

$$$$
