91706.cdx
  Mrv1902 05222410182D          

 42 46  0  0  0  0            999 V2000
    6.0618   -5.5000    0.0000 C   0  0  0  0  0  0  0  0  0  0  0  0
    6.0618   -6.3250    0.0000 C   0  0  0  0  0  0  0  0  0  0  0  0
    6.7763   -6.7375    0.0000 C   0  0  0  0  0  0  0  0  0  0  0  0
    7.4907   -6.3250    0.0000 C   0  0  0  0  0  0  0  0  0  0  0  0
    7.4907   -5.5000    0.0000 C   0  0  0  0  0  0  0  0  0  0  0  0
    6.7763   -5.0875    0.0000 C   0  0  0  0  0  0  0  0  0  0  0  0
    8.2052   -6.7375    0.0000 C   0  0  0  0  0  0  0  0  0  0  0  0
    8.9197   -6.3250    0.0000 C   0  0  0  0  0  0  0  0  0  0  0  0
    8.9197   -5.5000    0.0000 C   0  0  0  0  0  0  0  0  0  0  0  0
    8.2052   -5.0875    0.0000 O   0  0  0  0  0  0  0  0  0  0  0  0
    6.7763   -7.5625    0.0000 O   0  0  0  0  0  0  0  0  0  0  0  0
    8.2052   -7.5625    0.0000 O   0  0  0  0  0  0  0  0  0  0  0  0
   10.3486   -5.5000    0.0000 C   0  0  0  0  0  0  0  0  0  0  0  0
    9.6342   -5.0875    0.0000 C   0  0  0  0  0  0  0  0  0  0  0  0
   11.0631   -5.0875    0.0000 C   0  0  0  0  0  0  0  0  0  0  0  0
   11.0631   -4.2625    0.0000 C   0  0  0  0  0  0  0  0  0  0  0  0
   10.3486   -3.8500    0.0000 C   0  0  0  0  0  0  0  0  0  0  0  0
    9.6342   -4.2625    0.0000 C   0  0  0  0  0  0  0  0  0  0  0  0
    5.3473   -5.0875    0.0000 O   0  0  0  0  0  0  0  0  0  0  0  0
   11.7776   -3.8500    0.0000 O   0  0  0  0  0  0  0  0  0  0  0  0
    5.3473   -6.7375    0.0000 C   0  0  2  0  0  0  0  0  0  0  0  0
    4.6329   -6.3250    0.0000 O   0  0  0  0  0  0  0  0  0  0  0  0
    3.9184   -6.7375    0.0000 C   0  0  0  0  0  0  0  0  0  0  0  0
    3.9184   -7.5625    0.0000 C   0  0  2  0  0  0  0  0  0  0  0  0
    4.6329   -7.9750    0.0000 C   0  0  1  0  0  0  0  0  0  0  0  0
    5.3473   -7.5625    0.0000 C   0  0  1  0  0  0  0  0  0  0  0  0
    4.6329   -8.8000    0.0000 O   0  0  0  0  0  0  0  0  0  0  0  0
    3.2039   -7.9750    0.0000 O   0  0  0  0  0  0  0  0  0  0  0  0
    6.0618   -7.9750    0.0000 O   0  0  0  0  0  0  0  0  0  0  0  0
    7.4534  -10.5389    0.0000 O   0  0  0  0  0  0  0  0  0  0  0  0
    7.4769   -8.8890    0.0000 O   0  0  0  0  0  0  0  0  0  0  0  0
    6.0129  -11.3435    0.0000 O   0  0  0  0  0  0  0  0  0  0  0  0
    5.3278   -9.2711    0.0000 O   0  0  0  0  0  0  0  0  0  0  0  0
    5.3161  -10.0960    0.0000 C   0  0  1  0  0  0  0  0  0  0  0  0
    6.0247  -10.5186    0.0000 C   0  0  2  0  0  0  0  0  0  0  0  0
    6.7449  -10.1163    0.0000 C   0  0  1  0  0  0  0  0  0  0  0  0
    6.7566   -9.2913    0.0000 C   0  0  2  0  0  0  0  0  0  0  0  0
    6.0481   -8.8688    0.0000 C   0  0  2  0  0  0  0  0  0  0  0  0
    5.3473   -5.9125    0.0000 H   0  0  0  0  0  0  0  0  0  0  0  0
    3.8873  -10.0757    0.0000 O   0  0  0  0  0  0  0  0  0  0  0  0
    4.5842  -11.3232    0.0000 O   0  0  0  0  0  0  0  0  0  0  0  0
    4.5959  -10.4983    0.0000 C   0  0  0  0  0  0  0  0  0  0  0  0
  1  2  2  0  0  0  0
  2  3  1  0  0  0  0
  3  4  2  0  0  0  0
  4  5  1  0  0  0  0
  5  6  2  0  0  0  0
  6  1  1  0  0  0  0
  4  7  1  0  0  0  0
  7  8  1  0  0  0  0
  8  9  2  0  0  0  0
  9 10  1  0  0  0  0
 10  5  1  0  0  0  0
  3 11  1  0  0  0  0
 12  7  2  0  0  0  0
 13 14  2  0  0  0  0
 14  9  1  0  0  0  0
 13 15  1  0  0  0  0
 15 16  2  0  0  0  0
 16 17  1  0  0  0  0
 17 18  2  0  0  0  0
 18 14  1  0  0  0  0
  1 19  1  0  0  0  0
 16 20  1  0  0  0  0
  2 21  1  0  0  0  0
 21 22  1  0  0  0  0
 22 23  1  0  0  0  0
 23 24  1  0  0  0  0
 24 25  1  0  0  0  0
 25 26  1  0  0  0  0
 26 21  1  0  0  0  0
 25 27  1  1  0  0  0
 24 28  1  6  0  0  0
 26 29  1  6  0  0  0
 36 30  1  1  0  0  0
 38 29  1  1  0  0  0
 37 31  1  6  0  0  0
 35 32  1  6  0  0  0
 33 38  1  0  0  0  0
 34 33  1  0  0  0  0
 35 34  1  0  0  0  0
 36 35  1  0  0  0  0
 37 36  1  0  0  0  0
 38 37  1  0  0  0  0
 21 39  1  6  0  0  0
 42 40  2  0  0  0  0
 34 42  1  1  0  0  0
 42 41  1  0  0  0  0
M  END
>  <cdx:fragmentId>
5

$$$$
