91701.cdx
  Mrv1902 05222410192D          

 42 46  0  0  0  0            999 V2000
   11.6963   -5.2062    0.0000 O   0  0  0  0  0  0  0  0  0  0  0  0
    5.2543   -6.3809    0.0000 O   0  0  0  0  0  0  0  0  0  0  0  0
   10.9697   -6.4366    0.0000 C   0  0  0  0  0  0  0  0  0  0  0  0
   10.9778   -5.6117    0.0000 C   0  0  0  0  0  0  0  0  0  0  0  0
   10.2674   -5.1922    0.0000 C   0  0  0  0  0  0  0  0  0  0  0  0
    9.5489   -5.5977    0.0000 C   0  0  0  0  0  0  0  0  0  0  0  0
   10.2513   -6.8421    0.0000 C   0  0  0  0  0  0  0  0  0  0  0  0
    9.5409   -6.4227    0.0000 C   0  0  0  0  0  0  0  0  0  0  0  0
    6.6590   -8.8697    0.0000 O   0  0  0  0  0  0  0  0  0  0  0  0
    8.0878   -8.8836    0.0000 O   0  0  0  0  0  0  0  0  0  0  0  0
    8.0959   -8.0587    0.0000 C   0  0  0  0  0  0  0  0  0  0  0  0
    8.8144   -7.6532    0.0000 C   0  0  0  0  0  0  0  0  0  0  0  0
    8.8224   -6.8282    0.0000 C   0  0  0  0  0  0  0  0  0  0  0  0
    8.1120   -6.4088    0.0000 O   0  0  0  0  0  0  0  0  0  0  0  0
    7.3855   -7.6392    0.0000 C   0  0  0  0  0  0  0  0  0  0  0  0
    7.3935   -6.8143    0.0000 C   0  0  0  0  0  0  0  0  0  0  0  0
    6.6831   -6.3948    0.0000 C   0  0  0  0  0  0  0  0  0  0  0  0
    5.9647   -6.8003    0.0000 C   0  0  0  0  0  0  0  0  0  0  0  0
    5.9566   -7.6253    0.0000 C   0  0  0  0  0  0  0  0  0  0  0  0
    6.6670   -8.0447    0.0000 C   0  0  0  0  0  0  0  0  0  0  0  0
    4.5358   -6.7864    0.0000 C   0  0  2  0  0  0  0  0  0  0  0  0
    3.8295   -6.3600    0.0000 O   0  0  0  0  0  0  0  0  0  0  0  0
    3.1071   -6.7585    0.0000 C   0  0  1  0  0  0  0  0  0  0  0  0
    3.0910   -7.5833    0.0000 C   0  0  2  0  0  0  0  0  0  0  0  0
    3.7973   -8.0097    0.0000 C   0  0  1  0  0  0  0  0  0  0  0  0
    4.5197   -7.6112    0.0000 C   0  0  1  0  0  0  0  0  0  0  0  0
    2.4008   -6.3321    0.0000 C   0  0  0  0  0  0  0  0  0  0  0  0
    3.7812   -8.8345    0.0000 O   0  0  0  0  0  0  0  0  0  0  0  0
    5.2260   -8.0376    0.0000 O   0  0  0  0  0  0  0  0  0  0  0  0
    2.3686   -7.9818    0.0000 O   0  0  0  0  0  0  0  0  0  0  0  0
    1.6785   -6.7306    0.0000 O   0  0  0  0  0  0  0  0  0  0  0  0
    6.6912   -5.5698    0.0000 C   0  0  0  0  0  0  0  0  0  0  0  0
    7.3973   -5.1432    0.0000 O   0  0  0  0  0  0  0  0  0  0  0  0
    7.3809   -4.3184    0.0000 C   0  0  1  0  0  0  0  0  0  0  0  0
    6.6584   -3.9202    0.0000 C   0  0  2  0  0  0  0  0  0  0  0  0
    5.9523   -4.3468    0.0000 C   0  0  1  0  0  0  0  0  0  0  0  0
    5.9687   -5.1716    0.0000 C   0  0  1  0  0  0  0  0  0  0  0  0
    5.2298   -3.9485    0.0000 O   0  0  0  0  0  0  0  0  0  0  0  0
    8.0871   -3.8918    0.0000 C   0  0  0  0  0  0  0  0  0  0  0  0
    5.2625   -5.5982    0.0000 O   0  0  0  0  0  0  0  0  0  0  0  0
    6.6420   -3.0953    0.0000 O   0  0  0  0  0  0  0  0  0  0  0  0
    8.0707   -3.0670    0.0000 O   0  0  0  0  0  0  0  0  0  0  0  0
  4  1  1  0  0  0  0
  2 18  1  0  0  0  0
  3  7  1  0  0  0  0
  4  3  2  0  0  0  0
  5  4  1  0  0  0  0
  6  5  2  0  0  0  0
  8  6  1  0  0  0  0
  8  7  2  0  0  0  0
 13  8  1  0  0  0  0
  9 20  1  0  0  0  0
 11 10  2  0  0  0  0
 11 15  1  0  0  0  0
 12 11  1  0  0  0  0
 13 12  2  0  0  0  0
 14 13  1  0  0  0  0
 16 14  1  0  0  0  0
 15 20  2  0  0  0  0
 16 15  1  0  0  0  0
 17 16  2  0  0  0  0
 18 17  1  0  0  0  0
 19 18  2  0  0  0  0
 20 19  1  0  0  0  0
 21  2  1  1  0  0  0
 21 22  1  0  0  0  0
 22 23  1  0  0  0  0
 23 24  1  0  0  0  0
 24 25  1  0  0  0  0
 25 26  1  0  0  0  0
 26 21  1  0  0  0  0
 23 27  1  1  0  0  0
 25 28  1  1  0  0  0
 26 29  1  6  0  0  0
 24 30  1  6  0  0  0
 27 31  1  0  0  0  0
 17 32  1  0  0  0  0
 32 33  1  0  0  0  0
 33 34  1  0  0  0  0
 34 35  1  0  0  0  0
 35 36  1  0  0  0  0
 36 37  1  0  0  0  0
 37 32  1  0  0  0  0
 36 38  1  1  0  0  0
 34 39  1  1  0  0  0
 37 40  1  6  0  0  0
 35 41  1  6  0  0  0
 39 42  1  0  0  0  0
M  END
>  <cdx:fragmentId>
158

$$$$
