91712.cdx
  Mrv1902 05222410182D          

 11 11  0  0  0  0            999 V2000
    6.4949   -7.2050    0.0000 C   0  0  0  0  0  0  0  0  0  0  0  0
    6.4949   -8.0300    0.0000 C   0  0  0  0  0  0  0  0  0  0  0  0
    7.2094   -8.4425    0.0000 N   0  3  0  0  0  0  0  0  0  0  0  0
    7.9239   -8.0300    0.0000 C   0  0  0  0  0  0  0  0  0  0  0  0
    7.9239   -7.2050    0.0000 C   0  0  0  0  0  0  0  0  0  0  0  0
    7.2094   -6.7925    0.0000 C   0  0  0  0  0  0  0  0  0  0  0  0
    7.2094   -5.9675    0.0000 C   0  0  0  0  0  0  0  0  0  0  0  0
    7.9239   -5.5550    0.0000 O   0  0  0  0  0  0  0  0  0  0  0  0
    7.9239   -4.7300    0.0000 O   0  0  0  0  0  0  0  0  0  0  0  0
    6.7969   -9.1570    0.0000 O   0  5  0  0  0  0  0  0  0  0  0  0
    7.6219   -9.1570    0.0000 C   0  0  0  0  0  0  0  0  0  0  0  0
  1  2  1  0  0  0  0
  2  3  1  0  0  0  0
  3  4  1  0  0  0  0
  4  5  1  0  0  0  0
  5  6  1  0  0  0  0
  6  1  2  0  0  0  0
  6  7  1  0  0  0  0
  7  8  1  0  0  0  0
  8  9  1  0  0  0  0
  3 10  1  0  0  0  0
  3 11  1  0  0  0  0
M  CHG  2   3   1  10  -1
M  END
>  <cdx:fragmentId>
5

$$$$
