91711.cdx
  Mrv1902 05222410192D          

 14 14  0  0  0  0            999 V2000
    4.5768   -7.0950    0.0000 C   0  0  0  0  0  0  0  0  0  0  0  0
    4.5768   -7.9200    0.0000 C   0  0  0  0  0  0  0  0  0  0  0  0
    5.2913   -8.3325    0.0000 N   0  0  0  0  0  0  0  0  0  0  0  0
    6.0057   -7.9200    0.0000 C   0  0  0  0  0  0  0  0  0  0  0  0
    6.0057   -7.0950    0.0000 C   0  0  0  0  0  0  0  0  0  0  0  0
    5.2913   -6.6825    0.0000 C   0  0  0  0  0  0  0  0  0  0  0  0
    5.2913   -9.1575    0.0000 C   0  0  0  0  0  0  0  0  0  0  0  0
    6.7202   -6.6825    0.0000 C   0  0  0  0  0  0  0  0  0  0  0  0
    7.4347   -7.0950    0.0000 N   0  0  0  0  0  0  0  0  0  0  0  0
    6.7202   -5.8575    0.0000 O   0  0  0  0  0  0  0  0  0  0  0  0
    8.1492   -6.6825    0.0000 C   0  0  0  0  0  0  0  0  0  0  0  0
    8.8636   -7.0950    0.0000 C   0  0  0  0  0  0  0  0  0  0  0  0
    9.5781   -6.6825    0.0000 O   0  0  0  0  0  0  0  0  0  0  0  0
    8.8636   -7.9200    0.0000 O   0  0  0  0  0  0  0  0  0  0  0  0
  1  2  1  0  0  0  0
  2  3  1  0  0  0  0
  3  4  1  0  0  0  0
  4  5  1  0  0  0  0
  5  6  2  0  0  0  0
  6  1  1  0  0  0  0
  3  7  1  0  0  0  0
  5  8  1  0  0  0  0
  8  9  1  0  0  0  0
  8 10  2  0  0  0  0
  9 11  1  0  0  0  0
 11 12  1  0  0  0  0
 12 13  1  0  0  0  0
 12 14  2  0  0  0  0
M  END
>  <cdx:fragmentId>
5

$$$$
