91726.cdx
  Mrv1902 05222410262D          

 36 42  0  0  0  0            999 V2000
    3.4081   -6.1325    0.0000 C   0  0  0  0  0  0  0  0  0  0  0  0
    3.4081   -6.9575    0.0000 C   0  0  0  0  0  0  0  0  0  0  0  0
    4.1225   -7.3700    0.0000 C   0  0  0  0  0  0  0  0  0  0  0  0
    4.8370   -6.9575    0.0000 C   0  0  0  0  0  0  0  0  0  0  0  0
    4.8370   -6.1325    0.0000 C   0  0  0  0  0  0  0  0  0  0  0  0
    4.1225   -5.7200    0.0000 C   0  0  0  0  0  0  0  0  0  0  0  0
    5.5515   -7.3700    0.0000 N   0  0  0  0  0  0  0  0  0  0  0  0
    6.2659   -6.9575    0.0000 C   0  0  2  0  0  0  0  0  0  0  0  0
    6.2659   -6.1325    0.0000 C   0  0  1  0  0  0  0  0  0  0  0  0
    6.9804   -7.3700    0.0000 C   0  0  1  0  0  0  0  0  0  0  0  0
    7.6949   -6.9575    0.0000 C   0  0  1  0  0  0  0  0  0  0  0  0
    7.6949   -6.1325    0.0000 C   0  0  0  0  0  0  0  0  0  0  0  0
    6.9804   -5.7200    0.0000 C   0  0  2  0  0  0  0  0  0  0  0  0
    5.5515   -8.1950    0.0000 C   0  0  0  0  0  0  0  0  0  0  0  0
    6.2659   -8.6075    0.0000 C   0  0  0  0  0  0  0  0  0  0  0  0
    6.9804   -8.1950    0.0000 C   0  0  2  0  0  0  0  0  0  0  0  0
    8.4094   -8.1950    0.0000 C   0  0  0  0  0  0  0  0  0  0  0  0
    8.4094   -7.3700    0.0000 C   0  0  0  0  0  0  0  0  0  0  0  0
    2.6936   -5.7200    0.0000 O   0  0  0  0  0  0  0  0  0  0  0  0
    2.6936   -4.8950    0.0000 C   0  0  0  0  0  0  0  0  0  0  0  0
    2.6936   -7.3700    0.0000 O   0  0  0  0  0  0  0  0  0  0  0  0
    1.9791   -6.9575    0.0000 C   0  0  0  0  0  0  0  0  0  0  0  0
    4.8370   -8.6075    0.0000 O   0  0  0  0  0  0  0  0  0  0  0  0
    7.3929   -8.9095    0.0000 O   0  0  0  0  0  0  0  0  0  0  0  0
    7.9969   -8.9095    0.0000 C   0  0  0  0  0  0  0  0  0  0  0  0
    5.5515   -5.7200    0.0000 C   0  0  0  0  0  0  0  0  0  0  0  0
    5.5515   -4.8950    0.0000 C   0  0  0  0  0  0  0  0  0  0  0  0
    6.9804   -4.8950    0.0000 N   0  3  0  0  0  0  0  0  0  0  0  0
    8.3956   -4.8812    0.0000 C   0  0  0  0  0  0  0  0  0  0  0  0
    6.9764   -4.0700    0.0000 C   0  0  0  0  0  0  0  0  0  0  0  0
    7.6889   -3.6540    0.0000 Cl  0  0  0  0  0  0  0  0  0  0  0  0
    6.2659   -5.3075    0.0000 H   0  0  0  0  0  0  0  0  0  0  0  0
    6.5679   -6.6555    0.0000 H   0  0  0  0  0  0  0  0  0  0  0  0
    7.1115   -6.3741    0.0000 H   0  0  0  0  0  0  0  0  0  0  0  0
    6.5679   -8.9095    0.0000 H   0  0  0  0  0  0  0  0  0  0  0  0
    5.5515   -6.5450    0.0000 H   0  0  0  0  0  0  0  0  0  0  0  0
  1  2  2  0  0  0  0
  2  3  1  0  0  0  0
  3  4  2  0  0  0  0
  4  5  1  0  0  0  0
  5  6  2  0  0  0  0
  6  1  1  0  0  0  0
  4  7  1  0  0  0  0
  7  8  1  0  0  0  0
  8  9  1  0  0  0  0
  8 10  1  0  0  0  0
 10 11  1  0  0  0  0
 11 12  1  0  0  0  0
 12 13  1  0  0  0  0
 13  9  1  0  0  0  0
  7 14  1  0  0  0  0
 14 15  1  0  0  0  0
 15 16  1  0  0  0  0
 16 10  1  0  0  0  0
 17 18  2  0  0  0  0
 18 11  1  0  0  0  0
  5  9  1  0  0  0  0
  1 19  1  0  0  0  0
 19 20  1  0  0  0  0
  2 21  1  0  0  0  0
 21 22  1  0  0  0  0
 14 23  2  0  0  0  0
 16 24  1  0  0  0  0
 17 25  1  0  0  0  0
 24 25  1  0  0  0  0
  9 26  1  1  0  0  0
 26 27  1  0  0  0  0
 13 28  1  0  0  0  0
 27 28  1  0  0  0  0
 18 29  1  0  0  0  0
 28 29  1  0  0  0  0
 28 30  1  0  0  0  0
 30 31  1  0  0  0  0
 13 32  1  6  0  0  0
 10 33  1  6  0  0  0
 11 34  1  6  0  0  0
 16 35  1  6  0  0  0
  8 36  1  1  0  0  0
M  CHG  1  28   1
M  END
>  <cdx:fragmentId>
5

$$$$
