91720.cdx
  Mrv1902 05222410272D          

 23 25  0  0  0  0            999 V2000
    6.1993   -7.2050    0.0000 C   0  0  0  0  0  0  0  0  0  0  0  0
    6.1993   -8.0300    0.0000 C   0  0  0  0  0  0  0  0  0  0  0  0
    6.9138   -8.4425    0.0000 C   0  0  0  0  0  0  0  0  0  0  0  0
    7.6282   -8.0300    0.0000 C   0  0  0  0  0  0  0  0  0  0  0  0
    7.6282   -7.2050    0.0000 C   0  0  0  0  0  0  0  0  0  0  0  0
    6.9138   -6.7925    0.0000 O   0  0  0  0  0  0  0  0  0  0  0  0
    8.3427   -6.7925    0.0000 C   0  0  0  0  0  0  0  0  0  0  0  0
    6.9138   -9.2675    0.0000 O   0  0  0  0  0  0  0  0  0  0  0  0
    5.4848   -6.7925    0.0000 C   0  0  0  0  0  0  0  0  0  0  0  0
    4.7704   -7.2050    0.0000 C   0  0  0  0  0  0  0  0  0  0  0  0
    4.0559   -6.7925    0.0000 C   0  0  0  0  0  0  0  0  0  0  0  0
    9.0572   -7.2050    0.0000 C   0  0  0  0  0  0  0  0  0  0  0  0
    9.7717   -6.7925    0.0000 C   0  0  0  0  0  0  0  0  0  0  0  0
    9.7717   -5.9675    0.0000 C   0  0  0  0  0  0  0  0  0  0  0  0
    9.0572   -5.5550    0.0000 C   0  0  0  0  0  0  0  0  0  0  0  0
    8.3427   -5.9675    0.0000 C   0  0  0  0  0  0  0  0  0  0  0  0
    4.0559   -5.9675    0.0000 C   0  0  0  0  0  0  0  0  0  0  0  0
    3.3414   -5.5550    0.0000 C   0  0  0  0  0  0  0  0  0  0  0  0
    2.6269   -5.9675    0.0000 C   0  0  0  0  0  0  0  0  0  0  0  0
    2.6269   -6.7925    0.0000 C   0  0  0  0  0  0  0  0  0  0  0  0
    3.3414   -7.2050    0.0000 C   0  0  0  0  0  0  0  0  0  0  0  0
   10.4861   -5.5550    0.0000 O   0  0  0  0  0  0  0  0  0  0  0  0
    1.9125   -5.5550    0.0000 O   0  0  0  0  0  0  0  0  0  0  0  0
  1  2  2  0  0  0  0
  2  3  1  0  0  0  0
  3  4  1  0  0  0  0
  4  5  1  0  0  0  0
  5  6  1  0  0  0  0
  6  1  1  0  0  0  0
  5  7  1  0  0  0  0
  3  8  2  0  0  0  0
  1  9  1  0  0  0  0
  9 10  2  0  0  0  0
 10 11  1  0  0  0  0
  7 12  2  0  0  0  0
 12 13  1  0  0  0  0
 13 14  2  0  0  0  0
 14 15  1  0  0  0  0
 15 16  2  0  0  0  0
 16  7  1  0  0  0  0
 11 17  2  0  0  0  0
 17 18  1  0  0  0  0
 18 19  2  0  0  0  0
 19 20  1  0  0  0  0
 20 21  2  0  0  0  0
 21 11  1  0  0  0  0
 14 22  1  0  0  0  0
 19 23  1  0  0  0  0
M  END
>  <cdx:fragmentId>
5

$$$$
