91729.cdx
  Mrv1902 05222410192D          

 18 19  0  0  0  0            999 V2000
    6.9878   -9.1325    0.0000 C   0  0  0  0  0  0  0  0  0  0  0  0
    6.2733   -8.7200    0.0000 C   0  0  0  0  0  0  0  0  0  0  0  0
    6.2733   -7.8950    0.0000 C   0  0  0  0  0  0  0  0  0  0  0  0
    6.9878   -7.4825    0.0000 C   0  0  0  0  0  0  0  0  0  0  0  0
    7.7022   -7.8950    0.0000 C   0  0  0  0  0  0  0  0  0  0  0  0
    8.4167   -7.4825    0.0000 C   0  0  0  0  0  0  0  0  0  0  0  0
    9.1312   -7.8950    0.0000 C   0  0  0  0  0  0  0  0  0  0  0  0
    9.1312   -8.7200    0.0000 C   0  0  0  0  0  0  0  0  0  0  0  0
    8.4167   -9.1325    0.0000 C   0  0  0  0  0  0  0  0  0  0  0  0
    7.7022   -8.7200    0.0000 C   0  0  0  0  0  0  0  0  0  0  0  0
    5.5588   -9.1325    0.0000 C   0  0  0  0  0  0  0  0  0  0  0  0
    5.5588   -9.9575    0.0000 O   0  0  0  0  0  0  0  0  0  0  0  0
    4.8443   -8.7200    0.0000 O   0  0  0  0  0  0  0  0  0  0  0  0
    8.4167   -6.6575    0.0000 O   0  0  0  0  0  0  0  0  0  0  0  0
    9.8456   -9.1325    0.0000 C   0  0  0  0  0  0  0  0  0  0  0  0
    5.5588   -7.4825    0.0000 C   0  0  0  0  0  0  0  0  0  0  0  0
    6.9878   -9.9575    0.0000 O   0  0  0  0  0  0  0  0  0  0  0  0
    6.2733  -10.3700    0.0000 C   0  0  0  0  0  0  0  0  0  0  0  0
  1  2  1  0  0  0  0
  2  3  2  0  0  0  0
  3  4  1  0  0  0  0
  4  5  2  0  0  0  0
  5  6  1  0  0  0  0
  6  7  1  0  0  0  0
  7  8  1  0  0  0  0
  8  9  1  0  0  0  0
  9 10  1  0  0  0  0
  1 10  2  0  0  0  0
  5 10  1  0  0  0  0
 11 12  2  0  0  0  0
 11 13  1  0  0  0  0
  2 11  1  0  0  0  0
  6 14  2  0  0  0  0
  8 15  1  0  0  0  0
  3 16  1  0  0  0  0
 17 18  1  0  0  0  0
  1 17  1  0  0  0  0
M  END
>  <cdx:fragmentId>
5

$$$$
