91721.cdx
  Mrv1902 05222410272D          

 45 51  0  0  0  0            999 V2000
    2.9543   -7.1638    0.0000 C   0  0  0  0  0  0  0  0  0  0  0  0
    2.9543   -7.9888    0.0000 C   0  0  0  0  0  0  0  0  0  0  0  0
    3.6688   -8.4013    0.0000 C   0  0  0  0  0  0  0  0  0  0  0  0
    4.3832   -7.9888    0.0000 C   0  0  0  0  0  0  0  0  0  0  0  0
    4.3832   -7.1638    0.0000 C   0  0  0  0  0  0  0  0  0  0  0  0
    3.6688   -6.7512    0.0000 C   0  0  0  0  0  0  0  0  0  0  0  0
    5.0977   -8.4013    0.0000 C   0  0  0  0  0  0  0  0  0  0  0  0
    5.8122   -7.9888    0.0000 C   0  0  0  0  0  0  0  0  0  0  0  0
    5.8122   -7.1638    0.0000 C   0  0  0  0  0  0  0  0  0  0  0  0
    5.0977   -6.7512    0.0000 O   0  0  0  0  0  0  0  0  0  0  0  0
    6.5267   -8.4013    0.0000 C   0  0  0  0  0  0  0  0  0  0  0  0
    7.2411   -7.9888    0.0000 C   0  0  0  0  0  0  0  0  0  0  0  0
    7.2411   -7.1638    0.0000 C   0  0  0  0  0  0  0  0  0  0  0  0
    6.5267   -6.7512    0.0000 C   0  0  0  0  0  0  0  0  0  0  0  0
    7.9556   -8.4013    0.0000 C   0  0  0  0  0  0  0  0  0  0  0  0
    8.6701   -7.9888    0.0000 C   0  0  0  0  0  0  0  0  0  0  0  0
    8.6701   -7.1638    0.0000 C   0  0  0  0  0  0  0  0  0  0  0  0
    7.9556   -6.7512    0.0000 O   0  0  0  0  0  0  0  0  0  0  0  0
    6.5267   -5.9262    0.0000 C   0  0  0  0  0  0  0  0  0  0  0  0
    5.8122   -5.5137    0.0000 C   0  0  0  0  0  0  0  0  0  0  0  0
    5.0977   -5.9262    0.0000 C   0  0  0  0  0  0  0  0  0  0  0  0
    7.2411   -5.5137    0.0000 C   0  0  0  0  0  0  0  0  0  0  0  0
    7.2411   -4.6888    0.0000 C   0  0  0  0  0  0  0  0  0  0  0  0
    7.9556   -5.9262    0.0000 C   0  0  0  0  0  0  0  0  0  0  0  0
    8.6701   -5.5137    0.0000 C   0  0  0  0  0  0  0  0  0  0  0  0
    8.6701   -4.6888    0.0000 C   0  0  0  0  0  0  0  0  0  0  0  0
    7.9556   -4.2763    0.0000 C   0  0  0  0  0  0  0  0  0  0  0  0
    9.3845   -4.2763    0.0000 O   0  0  0  0  0  0  0  0  0  0  0  0
    7.9556   -3.4513    0.0000 O   0  0  0  0  0  0  0  0  0  0  0  0
    5.0977   -9.2263    0.0000 C   0  0  0  0  0  0  0  0  0  0  0  0
    5.8122   -9.6387    0.0000 C   0  0  0  0  0  0  0  0  0  0  0  0
    6.5267   -9.2263    0.0000 O   0  0  0  0  0  0  0  0  0  0  0  0
    4.3832   -5.5137    0.0000 O   0  0  0  0  0  0  0  0  0  0  0  0
    5.8122  -10.4637    0.0000 O   0  0  0  0  0  0  0  0  0  0  0  0
    2.2398   -6.7512    0.0000 O   0  0  0  0  0  0  0  0  0  0  0  0
    2.2398   -8.4013    0.0000 O   0  0  0  0  0  0  0  0  0  0  0  0
    9.3845   -8.4013    0.0000 O   0  0  0  0  0  0  0  0  0  0  0  0
    9.3845   -6.7512    0.0000 C   0  0  0  0  0  0  0  0  0  0  0  0
   10.0990   -7.1638    0.0000 C   0  0  0  0  0  0  0  0  0  0  0  0
   10.8135   -6.7512    0.0000 C   0  0  0  0  0  0  0  0  0  0  0  0
   10.8135   -5.9262    0.0000 C   0  0  0  0  0  0  0  0  0  0  0  0
   10.0990   -5.5137    0.0000 C   0  0  0  0  0  0  0  0  0  0  0  0
    9.3845   -5.9262    0.0000 C   0  0  0  0  0  0  0  0  0  0  0  0
   10.0990   -4.6887    0.0000 O   0  0  0  0  0  0  0  0  0  0  0  0
   11.5280   -5.5137    0.0000 O   0  0  0  0  0  0  0  0  0  0  0  0
  1  2  1  0  0  0  0
  2  3  2  0  0  0  0
  3  4  1  0  0  0  0
  4  5  2  0  0  0  0
  5  6  1  0  0  0  0
  6  1  2  0  0  0  0
  4  7  1  0  0  0  0
  7  8  1  0  0  0  0
  8  9  2  0  0  0  0
  9 10  1  0  0  0  0
  8 11  1  0  0  0  0
 11 12  2  0  0  0  0
 12 13  1  0  0  0  0
 13 14  2  0  0  0  0
 14  9  1  0  0  0  0
 12 15  1  0  0  0  0
 15 16  1  0  0  0  0
 16 17  1  0  0  0  0
 17 18  1  0  0  0  0
 18 13  1  0  0  0  0
 14 19  1  0  0  0  0
 19 20  1  0  0  0  0
 20 21  1  0  0  0  0
 21 10  1  0  0  0  0
 19 22  1  0  0  0  0
 22 23  1  0  0  0  0
 22 24  2  0  0  0  0
 24 25  1  0  0  0  0
 25 26  2  0  0  0  0
 26 27  1  0  0  0  0
 27 23  2  0  0  0  0
 26 28  1  0  0  0  0
 29 27  1  0  0  0  0
  7 30  1  0  0  0  0
 30 31  1  0  0  0  0
 31 32  1  0  0  0  0
 32 11  1  0  0  0  0
 21 33  2  0  0  0  0
 31 34  2  0  0  0  0
  1 35  1  0  0  0  0
  2 36  1  0  0  0  0
 16 37  1  0  0  0  0
 17 38  1  0  0  0  0
 38 39  2  0  0  0  0
 39 40  1  0  0  0  0
 40 41  2  0  0  0  0
 41 42  1  0  0  0  0
 42 43  2  0  0  0  0
 43 38  1  0  0  0  0
 42 44  1  0  0  0  0
 41 45  1  0  0  0  0
M  END
>  <cdx:fragmentId>
5

$$$$
