917280.cdx
  Mrv1902 05222410212D          

 71 78  0  0  0  0            999 V2000
    7.8356   -7.2462    0.0000 C   0  0  0  0  0  0  0  0  0  0  0  0
    7.8356   -8.0713    0.0000 C   0  0  1  0  0  0  0  0  0  0  0  0
    8.5500   -8.4838    0.0000 C   0  0  0  0  0  0  0  0  0  0  0  0
    9.2645   -8.0713    0.0000 C   0  0  1  0  0  0  0  0  0  0  0  0
    9.2645   -7.2462    0.0000 C   0  0  2  0  0  0  0  0  0  0  0  0
    8.5500   -6.8338    0.0000 C   0  0  0  0  0  0  0  0  0  0  0  0
    9.9790   -8.4838    0.0000 C   0  0  2  0  0  0  0  0  0  0  0  0
   10.6934   -8.0713    0.0000 C   0  0  0  0  0  0  0  0  0  0  0  0
   10.6934   -7.2462    0.0000 C   0  0  2  0  0  0  0  0  0  0  0  0
    9.9790   -6.8338    0.0000 C   0  0  1  0  0  0  0  0  0  0  0  0
   11.4079   -6.8338    0.0000 C   0  0  1  0  0  0  0  0  0  0  0  0
   11.4079   -6.0088    0.0000 C   0  0  2  0  0  0  0  0  0  0  0  0
   10.6934   -5.5962    0.0000 C   0  0  0  0  0  0  0  0  0  0  0  0
    9.9790   -6.0088    0.0000 C   0  0  0  0  0  0  0  0  0  0  0  0
   12.1925   -7.0887    0.0000 C   0  0  0  0  0  0  0  0  0  0  0  0
   12.6775   -6.4213    0.0000 C   0  0  1  0  0  0  0  0  0  0  0  0
   12.1925   -5.7538    0.0000 C   0  0  2  0  0  0  0  0  0  0  0  0
   12.4061   -4.9569    0.0000 C   0  0  2  0  0  0  0  0  0  0  0  0
   13.0749   -4.4740    0.0000 O   0  0  0  0  0  0  0  0  0  0  0  0
   12.8224   -3.6886    0.0000 C   0  0  1  0  0  0  0  0  0  0  0  0
   11.9974   -3.6861    0.0000 C   0  0  0  0  0  0  0  0  0  0  0  0
   11.7401   -4.4700    0.0000 C   0  0  0  0  0  0  0  0  0  0  0  0
    8.1375   -9.1982    0.0000 C   0  0  0  0  0  0  0  0  0  0  0  0
    8.9625   -9.1982    0.0000 C   0  0  0  0  0  0  0  0  0  0  0  0
    7.1211   -8.4838    0.0000 O   0  0  0  0  0  0  0  0  0  0  0  0
    9.2645   -6.4213    0.0000 C   0  0  0  0  0  0  0  0  0  0  0  0
   10.6934   -6.4213    0.0000 H   0  0  0  0  0  0  0  0  0  0  0  0
   11.4079   -5.1837    0.0000 C   0  0  0  0  0  0  0  0  0  0  0  0
   13.5025   -6.4213    0.0000 O   0  0  0  0  0  0  0  0  0  0  0  0
   13.2134   -5.1265    0.0000 C   0  0  0  0  0  0  0  0  0  0  0  0
    9.2645   -8.8963    0.0000 H   0  0  0  0  0  0  0  0  0  0  0  0
    9.9790   -9.3087    0.0000 O   0  0  0  0  0  0  0  0  0  0  0  0
   11.4079   -7.6587    0.0000 C   0  0  0  0  0  0  0  0  0  0  0  0
   13.0175   -5.7538    0.0000 H   0  0  0  0  0  0  0  0  0  0  0  0
   10.4264  -10.0019    0.0000 C   0  0  2  0  0  0  0  0  0  0  0  0
   10.0499  -10.7359    0.0000 O   0  0  0  0  0  0  0  0  0  0  0  0
   10.4973  -11.4290    0.0000 C   0  0  1  0  0  0  0  0  0  0  0  0
   11.3213  -11.3881    0.0000 C   0  0  2  0  0  0  0  0  0  0  0  0
   11.6979  -10.6540    0.0000 C   0  0  1  0  0  0  0  0  0  0  0  0
   11.2504   -9.9609    0.0000 C   0  0  1  0  0  0  0  0  0  0  0  0
   10.1208  -12.1631    0.0000 C   0  0  0  0  0  0  0  0  0  0  0  0
   12.5218  -10.6131    0.0000 O   0  0  0  0  0  0  0  0  0  0  0  0
   11.6269   -9.2269    0.0000 O   0  0  0  0  0  0  0  0  0  0  0  0
   11.7688  -12.0812    0.0000 O   0  0  0  0  0  0  0  0  0  0  0  0
   10.5683  -12.8562    0.0000 O   0  0  0  0  0  0  0  0  0  0  0  0
    6.4066   -8.0713    0.0000 C   0  0  2  0  0  0  0  0  0  0  0  0
    6.4066   -7.2462    0.0000 O   0  0  0  0  0  0  0  0  0  0  0  0
    5.6921   -6.8338    0.0000 C   0  0  0  0  0  0  0  0  0  0  0  0
    4.9777   -7.2462    0.0000 C   0  0  2  0  0  0  0  0  0  0  0  0
    4.9777   -8.0713    0.0000 C   0  0  1  0  0  0  0  0  0  0  0  0
    5.6921   -8.4837    0.0000 C   0  0  1  0  0  0  0  0  0  0  0  0
    4.2632   -8.4838    0.0000 O   0  0  0  0  0  0  0  0  0  0  0  0
    4.2632   -6.8338    0.0000 O   0  0  0  0  0  0  0  0  0  0  0  0
    5.6921   -9.3087    0.0000 O   0  0  0  0  0  0  0  0  0  0  0  0
   13.6298   -3.8582    0.0000 H   0  0  0  0  0  0  0  0  0  0  0  0
   13.2349   -2.9742    0.0000 C   0  0  0  0  0  0  0  0  0  0  0  0
   12.5204   -2.5617    0.0000 C   0  0  0  0  0  0  0  0  0  0  0  0
   13.9493   -3.3867    0.0000 C   0  0  0  0  0  0  0  0  0  0  0  0
   13.6474   -2.2597    0.0000 O   0  0  0  0  0  0  0  0  0  0  0  0
    6.4066   -9.7212    0.0000 C   0  0  0  0  0  0  0  0  0  0  0  0
    6.4066  -10.5462    0.0000 O   0  0  0  0  0  0  0  0  0  0  0  0
    7.1211   -9.3087    0.0000 C   0  0  0  0  0  0  0  0  0  0  0  0
    3.5487   -8.0713    0.0000 C   0  0  0  0  0  0  0  0  0  0  0  0
    2.8343   -8.4838    0.0000 C   0  0  0  0  0  0  0  0  0  0  0  0
    3.5487   -7.2462    0.0000 O   0  0  0  0  0  0  0  0  0  0  0  0
    4.2632   -6.0088    0.0000 C   0  0  0  0  0  0  0  0  0  0  0  0
    3.5487   -5.5962    0.0000 O   0  0  0  0  0  0  0  0  0  0  0  0
    4.9777   -5.5962    0.0000 C   0  0  0  0  0  0  0  0  0  0  0  0
    4.9777   -4.7713    0.0000 C   0  0  0  0  0  0  0  0  0  0  0  0
    4.2632   -4.3587    0.0000 O   0  0  0  0  0  0  0  0  0  0  0  0
    5.6921   -4.3587    0.0000 O   0  0  0  0  0  0  0  0  0  0  0  0
  1  2  1  0  0  0  0
  2  3  1  0  0  0  0
  3  4  1  0  0  0  0
  4  5  1  0  0  0  0
  5  6  1  0  0  0  0
  6  1  1  0  0  0  0
  4  7  1  0  0  0  0
  7  8  1  0  0  0  0
  8  9  1  0  0  0  0
  9 10  1  0  0  0  0
 10  5  1  0  0  0  0
  9 11  1  0  0  0  0
 11 12  1  0  0  0  0
 12 13  1  0  0  0  0
 13 14  1  0  0  0  0
 14 10  1  0  0  0  0
 11 15  1  0  0  0  0
 15 16  1  0  0  0  0
 16 17  1  0  0  0  0
 17 12  1  0  0  0  0
 17 18  1  0  0  0  0
 18 19  1  0  0  0  0
 19 20  1  0  0  0  0
 20 21  1  0  0  0  0
 21 22  1  0  0  0  0
 22 18  1  0  0  0  0
  3 23  1  0  0  0  0
  3 24  1  0  0  0  0
  2 25  1  1  0  0  0
  5 26  1  1  0  0  0
 10 26  1  1  0  0  0
  9 27  1  1  0  0  0
 12 28  1  1  0  0  0
 16 29  1  1  0  0  0
 18 30  1  6  0  0  0
  4 31  1  6  0  0  0
  7 32  1  6  0  0  0
 11 33  1  6  0  0  0
 17 34  1  6  0  0  0
 35 32  1  1  0  0  0
 35 36  1  0  0  0  0
 36 37  1  0  0  0  0
 37 38  1  0  0  0  0
 38 39  1  0  0  0  0
 39 40  1  0  0  0  0
 40 35  1  0  0  0  0
 37 41  1  1  0  0  0
 39 42  1  1  0  0  0
 40 43  1  6  0  0  0
 38 44  1  6  0  0  0
 41 45  1  0  0  0  0
 46 25  1  1  0  0  0
 46 47  1  0  0  0  0
 47 48  1  0  0  0  0
 48 49  1  0  0  0  0
 49 50  1  0  0  0  0
 50 51  1  0  0  0  0
 51 46  1  0  0  0  0
 50 52  1  1  0  0  0
 49 53  1  6  0  0  0
 51 54  1  6  0  0  0
 20 55  1  6  0  0  0
 20 56  1  0  0  0  0
 56 57  1  0  0  0  0
 56 58  1  0  0  0  0
 56 59  1  0  0  0  0
 54 60  1  0  0  0  0
 60 61  2  0  0  0  0
 60 62  1  0  0  0  0
 52 63  1  0  0  0  0
 63 64  1  0  0  0  0
 63 65  2  0  0  0  0
 53 66  1  0  0  0  0
 66 67  2  0  0  0  0
 66 68  1  0  0  0  0
 68 69  1  0  0  0  0
 69 70  2  0  0  0  0
 69 71  1  0  0  0  0
M  END
>  <cdx:fragmentId>
5

$$$$
