917299.cdx
  Mrv1902 05222410252D          

 48 50  0  0  0  0            999 V2000
    8.1251   -8.4216    0.0000 C   0  0  1  0  0  0  0  0  0  0  0  0
    8.3948   -9.2013    0.0000 C   0  0  2  0  0  0  0  0  0  0  0  0
    9.2197   -9.1857    0.0000 C   0  0  1  0  0  0  0  0  0  0  0  0
    9.4598   -8.3964    0.0000 C   0  0  2  0  0  0  0  0  0  0  0  0
    8.7833   -7.9242    0.0000 O   0  0  0  0  0  0  0  0  0  0  0  0
    9.6322   -9.9002    0.0000 O   0  0  0  0  0  0  0  0  0  0  0  0
    7.2679  -11.1533    0.0000 C   0  0  0  0  0  0  0  0  0  0  0  0
    6.5534  -11.5658    0.0000 C   0  0  0  0  0  0  0  0  0  0  0  0
    5.1244  -14.0408    0.0000 O   0  0  0  0  0  0  0  0  0  0  0  0
    6.5534  -14.8658    0.0000 O   0  0  0  0  0  0  0  0  0  0  0  0
    5.8389  -12.8033    0.0000 C   0  0  0  0  0  0  0  0  0  0  0  0
    5.8389  -13.6283    0.0000 C   0  0  0  0  0  0  0  0  0  0  0  0
    6.5534  -14.0408    0.0000 C   0  0  0  0  0  0  0  0  0  0  0  0
    7.2679  -13.6283    0.0000 C   0  0  0  0  0  0  0  0  0  0  0  0
    7.2679  -12.8033    0.0000 C   0  0  0  0  0  0  0  0  0  0  0  0
    6.5534  -12.3908    0.0000 C   0  0  0  0  0  0  0  0  0  0  0  0
    6.5534   -9.9158    0.0000 O   0  0  0  0  0  0  0  0  0  0  0  0
    7.2679  -10.3283    0.0000 C   0  0  0  0  0  0  0  0  0  0  0  0
    7.9823   -9.9158    0.0000 O   0  0  0  0  0  0  0  0  0  0  0  0
   10.2394   -8.1267    0.0000 C   0  0  0  0  0  0  0  0  0  0  0  0
    7.3282   -8.6351    0.0000 O   0  0  0  0  0  0  0  0  0  0  0  0
    7.5418   -7.8383    0.0000 C   0  0  0  0  0  0  0  0  0  0  0  0
    7.7553   -7.0414    0.0000 O   0  0  0  0  0  0  0  0  0  0  0  0
    8.5522   -6.8278    0.0000 C   0  0  0  0  0  0  0  0  0  0  0  0
    9.1355   -7.4112    0.0000 C   0  0  0  0  0  0  0  0  0  0  0  0
    8.7657   -6.0310    0.0000 O   0  0  0  0  0  0  0  0  0  0  0  0
    6.7449   -8.0518    0.0000 C   0  0  1  0  0  0  0  0  0  0  0  0
    6.9584   -7.2549    0.0000 O   0  0  0  0  0  0  0  0  0  0  0  0
    6.3750   -6.6715    0.0000 C   0  0  1  0  0  0  0  0  0  0  0  0
    5.5781   -6.8851    0.0000 C   0  0  2  0  0  0  0  0  0  0  0  0
    5.3646   -7.6819    0.0000 C   0  0  1  0  0  0  0  0  0  0  0  0
    5.9480   -8.2653    0.0000 C   0  0  1  0  0  0  0  0  0  0  0  0
    6.5886   -5.8746    0.0000 C   0  0  0  0  0  0  0  0  0  0  0  0
    4.5677   -7.8955    0.0000 O   0  0  0  0  0  0  0  0  0  0  0  0
    5.7345   -9.0622    0.0000 O   0  0  0  0  0  0  0  0  0  0  0  0
    4.9948   -6.3017    0.0000 O   0  0  0  0  0  0  0  0  0  0  0  0
    6.0052   -5.2913    0.0000 O   0  0  0  0  0  0  0  0  0  0  0  0
    4.9376   -9.2757    0.0000 C   0  0  0  0  0  0  0  0  0  0  0  0
    4.3542   -8.6924    0.0000 C   0  0  0  0  0  0  0  0  0  0  0  0
    4.7240  -10.0726    0.0000 O   0  0  0  0  0  0  0  0  0  0  0  0
    4.1979   -6.5152    0.0000 C   0  0  0  0  0  0  0  0  0  0  0  0
    3.6145   -5.9319    0.0000 C   0  0  0  0  0  0  0  0  0  0  0  0
    3.9844   -7.3121    0.0000 O   0  0  0  0  0  0  0  0  0  0  0  0
    6.2187   -4.4944    0.0000 C   0  0  0  0  0  0  0  0  0  0  0  0
    5.6354   -3.9110    0.0000 O   0  0  0  0  0  0  0  0  0  0  0  0
    7.0156   -4.2809    0.0000 C   0  0  0  0  0  0  0  0  0  0  0  0
    5.1244  -14.8658    0.0000 C   0  0  0  0  0  0  0  0  0  0  0  0
   10.8628   -8.6671    0.0000 O   0  0  0  0  0  0  0  0  0  0  0  0
  1  2  1  0  0  0  0
  2  3  1  0  0  0  0
  3  4  1  0  0  0  0
  4  5  1  0  0  0  0
  5  1  1  0  0  0  0
  3  6  1  1  0  0  0
  2 19  1  6  0  0  0
  7  8  2  0  0  0  0
 12  9  1  0  0  0  0
  8 16  1  0  0  0  0
 13 10  1  0  0  0  0
 11 16  1  0  0  0  0
 12 11  2  0  0  0  0
 13 12  1  0  0  0  0
 14 13  2  0  0  0  0
 15 14  1  0  0  0  0
 16 15  2  0  0  0  0
 18  7  1  0  0  0  0
 18 17  2  0  0  0  0
 19 18  1  0  0  0  0
  4 20  1  6  0  0  0
  1 21  1  6  0  0  0
  1 22  1  1  0  0  0
 22 23  1  0  0  0  0
 23 24  1  0  0  0  0
 24 25  1  0  0  0  0
 24 26  2  0  0  0  0
 27 21  1  6  0  0  0
 27 28  1  0  0  0  0
 28 29  1  0  0  0  0
 29 30  1  0  0  0  0
 30 31  1  0  0  0  0
 31 32  1  0  0  0  0
 32 27  1  0  0  0  0
 29 33  1  1  0  0  0
 31 34  1  1  0  0  0
 32 35  1  6  0  0  0
 30 36  1  6  0  0  0
 33 37  1  0  0  0  0
 35 38  1  0  0  0  0
 38 39  1  0  0  0  0
 38 40  2  0  0  0  0
 36 41  1  0  0  0  0
 41 42  1  0  0  0  0
 41 43  2  0  0  0  0
 37 44  1  0  0  0  0
 44 45  2  0  0  0  0
 44 46  1  0  0  0  0
  9 47  1  0  0  0  0
 20 48  1  0  0  0  0
M  END
>  <cdx:fragmentId>
5

$$$$
