91723.cdx
  Mrv1902 05222410282D          

 31 34  0  0  0  0            999 V2000
    9.6608   -6.4117    0.0000 C   0  0  0  0  0  0  0  0  0  0  0  0
   10.3679   -5.9867    0.0000 C   0  0  0  0  0  0  0  0  0  0  0  0
   11.3715   -5.9047    0.0000 C   0  0  0  0  0  0  0  0  0  0  0  0
   11.5729   -5.1047    0.0000 C   0  0  0  0  0  0  0  0  0  0  0  0
    9.1197   -5.9142    0.0000 C   0  0  0  0  0  0  0  0  0  0  0  0
   10.5693   -5.1867    0.0000 C   0  0  0  0  0  0  0  0  0  0  0  0
    9.9767   -4.6139    0.0000 C   0  0  0  0  0  0  0  0  0  0  0  0
    9.1798   -4.4004    0.0000 C   0  0  0  0  0  0  0  0  0  0  0  0
    9.9767   -3.7889    0.0000 C   0  0  0  0  0  0  0  0  0  0  0  0
   10.7719   -6.6758    0.0000 C   0  0  0  0  0  0  0  0  0  0  0  0
    9.6608   -7.2367    0.0000 O   0  0  0  0  0  0  0  0  0  0  0  0
    8.9463   -7.6492    0.0000 C   0  0  2  0  0  0  0  0  0  0  0  0
    8.2318   -7.2367    0.0000 O   0  0  0  0  0  0  0  0  0  0  0  0
    7.5174   -7.6492    0.0000 C   0  0  1  0  0  0  0  0  0  0  0  0
    7.5174   -8.4742    0.0000 C   0  0  2  0  0  0  0  0  0  0  0  0
    8.2318   -8.8867    0.0000 C   0  0  1  0  0  0  0  0  0  0  0  0
    8.9463   -8.4742    0.0000 C   0  0  1  0  0  0  0  0  0  0  0  0
    6.8029   -7.2367    0.0000 C   0  0  0  0  0  0  0  0  0  0  0  0
    8.2318   -9.7117    0.0000 O   0  0  0  0  0  0  0  0  0  0  0  0
    9.6608   -8.8867    0.0000 O   0  0  0  0  0  0  0  0  0  0  0  0
    6.8029   -8.8867    0.0000 O   0  0  0  0  0  0  0  0  0  0  0  0
    6.0884   -7.6492    0.0000 O   0  0  0  0  0  0  0  0  0  0  0  0
    5.3740   -7.2367    0.0000 C   0  0  1  0  0  0  0  0  0  0  0  0
    5.3740   -6.4117    0.0000 C   0  0  1  0  0  0  0  0  0  0  0  0
    4.6595   -5.9992    0.0000 C   0  0  2  0  0  0  0  0  0  0  0  0
    3.9450   -6.4117    0.0000 C   0  0  1  0  0  0  0  0  0  0  0  0
    3.9450   -7.2367    0.0000 C   0  0  0  0  0  0  0  0  0  0  0  0
    4.6595   -7.6492    0.0000 O   0  0  0  0  0  0  0  0  0  0  0  0
    3.2305   -5.9992    0.0000 O   0  0  0  0  0  0  0  0  0  0  0  0
    6.0884   -5.9992    0.0000 O   0  0  0  0  0  0  0  0  0  0  0  0
    4.6595   -5.1742    0.0000 O   0  0  0  0  0  0  0  0  0  0  0  0
  1  2  1  0  0  0  0
  2  3  1  0  0  0  0
  3  4  1  0  0  0  0
  1  5  1  0  0  0  0
  5  6  1  0  0  0  0
  4  6  1  0  0  0  0
  6  7  1  0  0  0  0
  2  7  1  0  0  0  0
  7  8  1  0  0  0  0
  7  9  1  0  0  0  0
  2 10  1  0  0  0  0
  1 11  1  0  0  0  0
 12 11  1  1  0  0  0
 12 13  1  0  0  0  0
 13 14  1  0  0  0  0
 14 15  1  0  0  0  0
 15 16  1  0  0  0  0
 16 17  1  0  0  0  0
 17 12  1  0  0  0  0
 14 18  1  1  0  0  0
 16 19  1  1  0  0  0
 17 20  1  6  0  0  0
 15 21  1  6  0  0  0
 18 22  1  0  0  0  0
 23 22  1  6  0  0  0
 23 24  1  0  0  0  0
 24 25  1  0  0  0  0
 25 26  1  0  0  0  0
 26 27  1  0  0  0  0
 27 28  1  0  0  0  0
 28 23  1  0  0  0  0
 26 29  1  1  0  0  0
 24 30  1  1  0  0  0
 25 31  1  6  0  0  0
M  END
>  <cdx:groupId>
799

>  <cdx:fragmentId>
800

$$$$
