91724.cdx
  Mrv1902 05222410272D          

 23 24  0  0  0  0            999 V2000
    3.3943   -7.3287    0.0000 C   0  0  0  0  0  0  0  0  0  0  0  0
    3.3943   -8.1538    0.0000 C   0  0  0  0  0  0  0  0  0  0  0  0
    4.1088   -8.5663    0.0000 C   0  0  0  0  0  0  0  0  0  0  0  0
    4.8232   -8.1538    0.0000 C   0  0  0  0  0  0  0  0  0  0  0  0
    4.8232   -7.3287    0.0000 C   0  0  0  0  0  0  0  0  0  0  0  0
    4.1088   -6.9162    0.0000 C   0  0  0  0  0  0  0  0  0  0  0  0
    6.2522   -8.1538    0.0000 O   0  0  0  0  0  0  0  0  0  0  0  0
    6.2522   -7.3287    0.0000 C   0  0  0  0  0  0  0  0  0  0  0  0
    5.5377   -6.9162    0.0000 C   0  0  0  0  0  0  0  0  0  0  0  0
    7.6811   -7.3287    0.0000 C   0  0  0  0  0  0  0  0  0  0  0  0
    6.9667   -6.9162    0.0000 C   0  0  0  0  0  0  0  0  0  0  0  0
    9.1101   -8.1538    0.0000 C   0  0  0  0  0  0  0  0  0  0  0  0
    9.1101   -7.3287    0.0000 C   0  0  0  0  0  0  0  0  0  0  0  0
    8.3956   -6.9162    0.0000 C   0  0  0  0  0  0  0  0  0  0  0  0
    9.8245   -8.5663    0.0000 C   0  0  0  0  0  0  0  0  0  0  0  0
   10.5390   -8.1538    0.0000 C   0  0  0  0  0  0  0  0  0  0  0  0
   10.5390   -7.3287    0.0000 C   0  0  0  0  0  0  0  0  0  0  0  0
    9.8245   -6.9162    0.0000 C   0  0  0  0  0  0  0  0  0  0  0  0
    2.6798   -6.9162    0.0000 O   0  0  0  0  0  0  0  0  0  0  0  0
    2.6798   -8.5663    0.0000 O   0  0  0  0  0  0  0  0  0  0  0  0
    8.3956   -6.0912    0.0000 O   0  0  0  0  0  0  0  0  0  0  0  0
   11.2535   -6.9162    0.0000 O   0  0  0  0  0  0  0  0  0  0  0  0
   11.2535   -8.5663    0.0000 O   0  0  0  0  0  0  0  0  0  0  0  0
  1  2  2  0  0  0  0
  2  3  1  0  0  0  0
  3  4  2  0  0  0  0
  4  5  1  0  0  0  0
  5  6  2  0  0  0  0
  6  1  1  0  0  0  0
  7  8  2  0  0  0  0
  8  9  1  0  0  0  0
  9  5  1  0  0  0  0
 10 11  1  0  0  0  0
 11  8  1  0  0  0  0
 12 13  2  0  0  0  0
 13 14  1  0  0  0  0
 14 10  1  0  0  0  0
 12 15  1  0  0  0  0
 15 16  2  0  0  0  0
 16 17  1  0  0  0  0
 17 18  2  0  0  0  0
 18 13  1  0  0  0  0
  1 19  1  0  0  0  0
  2 20  1  0  0  0  0
 14 21  2  0  0  0  0
 17 22  1  0  0  0  0
 16 23  1  0  0  0  0
M  END
>  <cdx:fragmentId>
5

$$$$
