91732.cdx
  Mrv1902 05222410262D          

 15 15  0  0  0  0            999 V2000
    5.8524   -7.1848    0.0000 C   0  0  2  0  0  0  0  0  0  0  0  0
    6.1154   -7.9667    0.0000 C   0  0  2  0  0  0  0  0  0  0  0  0
    6.9404   -7.9581    0.0000 C   0  0  1  0  0  0  0  0  0  0  0  0
    7.1872   -7.1709    0.0000 C   0  0  2  0  0  0  0  0  0  0  0  0
    6.5147   -6.6929    0.0000 O   0  0  0  0  0  0  0  0  0  0  0  0
    7.4322   -8.6205    0.0000 O   0  0  0  0  0  0  0  0  0  0  0  0
    7.9691   -6.9078    0.0000 C   0  0  0  0  0  0  0  0  0  0  0  0
    3.6604   -7.1998    0.0000 C   0  0  0  0  0  0  0  0  0  0  0  0
    4.4383   -7.4744    0.0000 O   0  0  0  0  0  0  0  0  0  0  0  0
    5.0651   -6.9380    0.0000 C   0  0  0  0  0  0  0  0  0  0  0  0
    5.9137   -9.4165    0.0000 C   0  0  0  0  0  0  0  0  0  0  0  0
    5.6375   -8.6391    0.0000 O   0  0  0  0  0  0  0  0  0  0  0  0
    7.2136   -9.4160    0.0000 C   0  0  0  0  0  0  0  0  0  0  0  0
    8.6809   -7.3249    0.0000 O   0  0  0  0  0  0  0  0  0  0  0  0
    9.3980   -6.9170    0.0000 C   0  0  0  0  0  0  0  0  0  0  0  0
  1  2  1  0  0  0  0
  2  3  1  0  0  0  0
  3  4  1  0  0  0  0
  4  5  1  0  0  0  0
  5  1  1  0  0  0  0
  9  8  1  0  0  0  0
  1 10  1  1  0  0  0
  3  6  1  1  0  0  0
 12 11  1  0  0  0  0
  2 12  1  6  0  0  0
  4  7  1  6  0  0  0
 10  9  1  0  0  0  0
  6 13  1  0  0  0  0
  7 14  1  0  0  0  0
 14 15  1  0  0  0  0
M  END
>  <cdx:fragmentId>
5

$$$$
