9173.cdx
  Mrv1902 05222410272D          

 24 26  0  0  0  0            999 V2000
    6.0258   -7.7550    0.0000 C   0  0  0  0  0  0  0  0  0  0  0  0
    6.0258   -8.5800    0.0000 C   0  0  0  0  0  0  0  0  0  0  0  0
    6.7402   -8.9925    0.0000 C   0  0  0  0  0  0  0  0  0  0  0  0
    7.4547   -8.5800    0.0000 C   0  0  0  0  0  0  0  0  0  0  0  0
    7.4547   -7.7550    0.0000 C   0  0  0  0  0  0  0  0  0  0  0  0
    6.7402   -7.3425    0.0000 C   0  0  0  0  0  0  0  0  0  0  0  0
    5.3113   -7.3425    0.0000 O   0  0  0  0  0  0  0  0  0  0  0  0
    5.3113   -8.9925    0.0000 O   0  0  0  0  0  0  0  0  0  0  0  0
    4.5968   -7.7550    0.0000 C   0  0  0  0  0  0  0  0  0  0  0  0
    8.1692   -8.9925    0.0000 C   0  0  2  0  0  0  0  0  0  0  0  0
    8.8837   -8.5800    0.0000 N   0  3  0  0  0  0  0  0  0  0  0  0
    8.8837   -7.7550    0.0000 C   0  0  0  0  0  0  0  0  0  0  0  0
    8.1692   -7.3425    0.0000 C   0  0  0  0  0  0  0  0  0  0  0  0
    8.1692   -9.8175    0.0000 C   0  0  0  0  0  0  0  0  0  0  0  0
    7.4547  -10.2300    0.0000 C   0  0  0  0  0  0  0  0  0  0  0  0
    6.7402   -9.8175    0.0000 C   0  0  0  0  0  0  0  0  0  0  0  0
    6.0258  -10.2300    0.0000 C   0  0  0  0  0  0  0  0  0  0  0  0
    6.0258  -11.0550    0.0000 C   0  0  0  0  0  0  0  0  0  0  0  0
    6.7402  -11.4675    0.0000 C   0  0  0  0  0  0  0  0  0  0  0  0
    7.4547  -11.0550    0.0000 C   0  0  0  0  0  0  0  0  0  0  0  0
    5.3113  -11.4675    0.0000 O   0  0  0  0  0  0  0  0  0  0  0  0
    5.3113  -12.2925    0.0000 C   0  0  0  0  0  0  0  0  0  0  0  0
    9.2962   -9.2945    0.0000 C   0  0  0  0  0  0  0  0  0  0  0  0
    9.7087   -8.5800    0.0000 C   0  0  0  0  0  0  0  0  0  0  0  0
  1  2  2  0  0  0  0
  2  3  1  0  0  0  0
  3  4  2  0  0  0  0
  4  5  1  0  0  0  0
  5  6  2  0  0  0  0
  6  1  1  0  0  0  0
  1  7  1  0  0  0  0
  2  8  1  0  0  0  0
  7  9  1  0  0  0  0
  4 10  1  0  0  0  0
 10 11  1  0  0  0  0
 11 12  1  0  0  0  0
 12 13  1  0  0  0  0
 13  5  1  0  0  0  0
 10 14  1  6  0  0  0
 14 15  1  0  0  0  0
 15 16  2  0  0  0  0
 16 17  1  0  0  0  0
 17 18  2  0  0  0  0
 18 19  1  0  0  0  0
 19 20  2  0  0  0  0
 20 15  1  0  0  0  0
 18 21  1  0  0  0  0
 21 22  1  0  0  0  0
 11 23  1  0  0  0  0
 11 24  1  0  0  0  0
M  CHG  1  11   1
M  END
>  <cdx:fragmentId>
5

$$$$
