91744.cdx
  Mrv1902 05222410232D          

 16 18  0  0  0  0            999 V2000
    6.1581   -7.8100    0.0000 C   0  0  0  0  0  0  0  0  0  0  0  0
    6.1581   -8.6350    0.0000 C   0  0  0  0  0  0  0  0  0  0  0  0
    6.8725   -9.0475    0.0000 C   0  0  0  0  0  0  0  0  0  0  0  0
    7.5870   -8.6350    0.0000 C   0  0  0  0  0  0  0  0  0  0  0  0
    7.5870   -7.8100    0.0000 C   0  0  0  0  0  0  0  0  0  0  0  0
    6.8725   -7.3975    0.0000 C   0  0  0  0  0  0  0  0  0  0  0  0
    6.8725   -9.8725    0.0000 O   0  0  0  0  0  0  0  0  0  0  0  0
    8.3015   -9.0475    0.0000 C   0  0  0  0  0  0  0  0  0  0  0  0
    8.2001   -7.2580    0.0000 C   0  0  0  0  0  0  0  0  0  0  0  0
    7.8645   -6.5043    0.0000 C   0  0  0  0  0  0  0  0  0  0  0  0
    7.0441   -6.5905    0.0000 C   0  0  0  0  0  0  0  0  0  0  0  0
    6.2051   -6.9126    0.0000 C   0  0  0  0  0  0  0  0  0  0  0  0
    7.8751   -7.3498    0.0000 C   0  0  0  0  0  0  0  0  0  0  0  0
    7.4764   -6.8003    0.0000 C   0  0  0  0  0  0  0  0  0  0  0  0
    7.8889   -6.0858    0.0000 C   0  0  0  0  0  0  0  0  0  0  0  0
    7.2629   -6.0034    0.0000 C   0  0  0  0  0  0  0  0  0  0  0  0
  1  2  1  0  0  0  0
  2  3  1  0  0  0  0
  3  4  1  0  0  0  0
  4  5  1  0  0  0  0
  5  6  1  0  0  0  0
  6  1  1  0  0  0  0
  3  7  1  0  0  0  0
  4  8  2  0  0  0  0
  5  9  1  0  0  0  0
  9 10  1  0  0  0  0
 10 11  1  0  0  0  0
 11  6  1  0  0  0  0
  6 12  1  0  0  0  0
  5 13  1  0  0  0  0
 13 14  1  0  0  0  0
 14 11  1  0  0  0  0
 14 15  1  0  0  0  0
 14 16  1  0  0  0  0
M  END
>  <cdx:fragmentId>
5

$$$$
