13917412.cdx
  Mrv1902 05222410262D          

 26 27  0  0  0  0            999 V2000
    5.9459   -6.0690    0.0000 C   0  0  0  0  0  0  0  0  0  0  0  0
    5.2314   -6.4815    0.0000 C   0  0  0  0  0  0  0  0  0  0  0  0
    4.5169   -6.0690    0.0000 C   0  0  0  0  0  0  0  0  0  0  0  0
    4.5169   -5.2440    0.0000 C   0  0  0  0  0  0  0  0  0  0  0  0
    5.9459   -5.2440    0.0000 O   0  0  0  0  0  0  0  0  0  0  0  0
    6.6603   -6.4815    0.0000 O   0  0  0  0  0  0  0  0  0  0  0  0
    3.8025   -6.4815    0.0000 C   0  0  0  0  0  0  0  0  0  0  0  0
    8.0893   -6.4815    0.0000 C   0  0  0  0  0  0  0  0  0  0  0  0
    7.3748   -6.0690    0.0000 C   0  0  1  0  0  0  0  0  0  0  0  0
    7.3748   -5.2440    0.0000 C   0  0  0  0  0  0  0  0  0  0  0  0
    8.0893   -4.8315    0.0000 C   0  0  0  0  0  0  0  0  0  0  0  0
    6.6603   -4.8315    0.0000 C   0  0  0  0  0  0  0  0  0  0  0  0
   10.2327   -7.7190    0.0000 C   0  0  0  0  0  0  0  0  0  0  0  0
   10.2327   -8.5440    0.0000 C   0  0  0  0  0  0  0  0  0  0  0  0
    9.5182   -8.9565    0.0000 C   0  0  0  0  0  0  0  0  0  0  0  0
    8.8038   -8.5440    0.0000 C   0  0  0  0  0  0  0  0  0  0  0  0
    8.0893   -8.9565    0.0000 C   0  0  0  0  0  0  0  0  0  0  0  0
    7.3748   -8.5440    0.0000 C   0  0  0  0  0  0  0  0  0  0  0  0
    7.3748   -7.7190    0.0000 C   0  0  0  0  0  0  0  0  0  0  0  0
    8.0893   -7.3065    0.0000 C   0  0  0  0  0  0  0  0  0  0  0  0
    8.8038   -7.7190    0.0000 C   0  0  0  0  0  0  0  0  0  0  0  0
    9.5182   -7.3065    0.0000 O   0  0  0  0  0  0  0  0  0  0  0  0
   10.9472   -7.3065    0.0000 O   0  0  0  0  0  0  0  0  0  0  0  0
    6.6603   -7.3065    0.0000 O   0  0  0  0  0  0  0  0  0  0  0  0
    5.9459   -7.7190    0.0000 C   0  0  0  0  0  0  0  0  0  0  0  0
    7.3748   -4.4190    0.0000 O   0  0  0  0  0  0  0  0  0  0  0  0
  1  2  1  0  0  0  0
  2  3  1  0  0  0  0
  3  4  1  0  0  0  0
  1  5  2  0  0  0  0
  1  6  1  0  0  0  0
  3  7  1  0  0  0  0
  8  9  1  0  0  0  0
  9 10  1  6  0  0  0
 10 11  1  0  0  0  0
 10 12  1  0  0  0  0
 13 14  1  0  0  0  0
 14 15  2  0  0  0  0
 15 16  1  0  0  0  0
 16 17  1  0  0  0  0
 17 18  2  0  0  0  0
 18 19  1  0  0  0  0
 19 20  2  0  0  0  0
 20 21  1  0  0  0  0
 16 21  2  0  0  0  0
 21 22  1  0  0  0  0
 13 22  1  0  0  0  0
 13 23  2  0  0  0  0
 24 25  1  0  0  0  0
 19 24  1  0  0  0  0
  8 20  1  0  0  0  0
 10 26  1  0  0  0  0
  6  9  1  0  0  0  0
M  END
>  <cdx:groupId>
81

>  <cdx:fragmentId>
29

$$$$
