91742.cdx
  Mrv1902 05222410252D          

 35 39  0  0  0  0            999 V2000
    8.0653   -6.6654    0.0000 H   0  0  0  0  0  0  0  0  0  0  0  0
    9.8159   -8.1699    0.0000 H   0  0  0  0  0  0  0  0  0  0  0  0
    9.7401   -8.8348    0.0000 H   0  0  0  0  0  0  0  0  0  0  0  0
    7.3330  -10.9562    0.0000 O   0  0  0  0  0  0  0  0  0  0  0  0
    7.9417  -11.4631    0.0000 O   0  0  0  0  0  0  0  0  0  0  0  0
    9.4440  -11.1203    0.0000 C   0  0  0  0  0  0  0  0  0  0  0  0
    5.3857   -9.7319    0.0000 C   0  0  0  0  0  0  0  0  0  0  0  0
    9.3226   -6.3402    0.0000 C   0  0  0  0  0  0  0  0  0  0  0  0
    9.9483   -6.8779    0.0000 C   0  0  0  0  0  0  0  0  0  0  0  0
    6.1923   -8.5150    0.0000 C   0  0  0  0  0  0  0  0  0  0  0  0
    7.9417   -8.0008    0.0000 O   0  0  0  0  0  0  0  0  0  0  0  0
    8.1253   -8.8051    0.0000 C   0  0  0  0  0  0  0  0  0  0  0  0
    7.0173   -8.5150    0.0000 C   0  0  2  0  0  0  0  0  0  0  0  0
    7.3891   -7.6646    0.0000 C   0  0  0  0  0  0  0  0  0  0  0  0
    8.2939   -7.4581    0.0000 C   0  0  1  0  0  0  0  0  0  0  0  0
    9.1698   -7.1509    0.0000 C   0  0  0  0  0  0  0  0  0  0  0  0
    8.9979   -8.0630    0.0000 C   0  0  1  0  0  0  0  0  0  0  0  0
    8.9296   -8.9886    0.0000 C   0  0  2  0  0  0  0  0  0  0  0  0
    9.2875   -9.7319    0.0000 C   0  0  0  0  0  0  0  0  0  0  0  0
    8.9296  -10.4752    0.0000 C   0  0  0  0  0  0  0  0  0  0  0  0
    8.1253  -10.6588    0.0000 C   0  0  2  0  0  0  0  0  0  0  0  0
    7.4803  -10.1444    0.0000 C   0  0  1  0  0  0  0  0  0  0  0  0
    6.6956  -10.3994    0.0000 C   0  0  2  0  0  0  0  0  0  0  0  0
    6.2107   -9.7319    0.0000 C   0  0  0  0  0  0  0  0  0  0  0  0
    6.6956   -9.0645    0.0000 C   0  0  0  0  0  0  0  0  0  0  0  0
    7.4803   -9.3194    0.0000 C   0  0  0  0  0  0  0  0  0  0  0  0
    6.4407  -11.1840    0.0000 O   0  0  0  0  0  0  0  0  0  0  0  0
    8.5465  -12.0243    0.0000 C   0  0  0  0  0  0  0  0  0  0  0  0
    8.3629  -12.8286    0.0000 C   0  0  0  0  0  0  0  0  0  0  0  0
    9.3348  -11.7811    0.0000 O   0  0  0  0  0  0  0  0  0  0  0  0
    7.5745  -13.0718    0.0000 C   0  0  0  0  0  0  0  0  0  0  0  0
    7.3910  -13.8761    0.0000 C   0  0  0  0  0  0  0  0  0  0  0  0
    7.9957  -14.4372    0.0000 C   0  0  0  0  0  0  0  0  0  0  0  0
    8.7841  -14.1941    0.0000 C   0  0  0  0  0  0  0  0  0  0  0  0
    8.9677  -13.3897    0.0000 C   0  0  0  0  0  0  0  0  0  0  0  0
 15  1  1  6  0  0  0
 17  2  1  6  0  0  0
 18  3  1  1  0  0  0
 23 27  1  1  0  0  0
 22  4  1  1  0  0  0
 21  5  1  1  0  0  0
 20  6  1  0  0  0  0
 24  7  1  0  0  0  0
 16  8  1  0  0  0  0
 16  9  1  0  0  0  0
 13 10  1  6  0  0  0
 12 11  2  0  0  0  0
 26 22  1  0  0  0  0
 17 15  1  0  0  0  0
 18 12  1  0  0  0  0
 26 12  1  0  0  0  0
 26 13  1  0  0  0  0
 14 13  1  0  0  0  0
 15 14  1  0  0  0  0
 16 15  1  0  0  0  0
 17 16  1  0  0  0  0
 18 17  1  0  0  0  0
 19 18  1  0  0  0  0
 20 19  2  0  0  0  0
 21 20  1  0  0  0  0
 22 21  1  0  0  0  0
 23 22  1  0  0  0  0
 24 23  1  0  0  0  0
 25 24  2  0  0  0  0
 26 25  1  0  0  0  0
  5 28  1  0  0  0  0
 28 29  1  0  0  0  0
 28 30  2  0  0  0  0
 29 31  2  0  0  0  0
 31 32  1  0  0  0  0
 32 33  2  0  0  0  0
 33 34  1  0  0  0  0
 34 35  2  0  0  0  0
 35 29  1  0  0  0  0
M  END
>  <cdx:groupId>
947

>  <cdx:fragmentId>
854

$$$$
