9175.cdx
  Mrv1902 05222410282D          

 29 32  0  0  0  0            999 V2000
    7.2839   -5.2181    0.0000 C   0  0  0  0  0  0  0  0  0  0  0  0
    7.2839   -6.0431    0.0000 C   0  0  0  0  0  0  0  0  0  0  0  0
    7.9984   -6.4556    0.0000 C   0  0  0  0  0  0  0  0  0  0  0  0
    8.7128   -6.0431    0.0000 C   0  0  0  0  0  0  0  0  0  0  0  0
    8.7128   -5.2181    0.0000 C   0  0  0  0  0  0  0  0  0  0  0  0
    7.9984   -4.8056    0.0000 C   0  0  0  0  0  0  0  0  0  0  0  0
    9.4273   -6.4556    0.0000 O   0  0  0  0  0  0  0  0  0  0  0  0
   10.1418   -6.0431    0.0000 C   0  0  0  0  0  0  0  0  0  0  0  0
   10.1418   -5.2181    0.0000 C   0  0  0  0  0  0  0  0  0  0  0  0
    9.4273   -4.8056    0.0000 C   0  0  0  0  0  0  0  0  0  0  0  0
    6.6708   -6.5952    0.0000 O   0  0  0  0  0  0  0  0  0  0  0  0
    7.0064   -7.3488    0.0000 C   0  0  1  0  0  0  0  0  0  0  0  0
    7.8268   -7.2626    0.0000 C   0  0  0  0  0  0  0  0  0  0  0  0
   10.8563   -6.4556    0.0000 O   0  0  0  0  0  0  0  0  0  0  0  0
    6.5939   -8.0633    0.0000 C   0  0  0  0  0  0  0  0  0  0  0  0
    6.1814   -8.7778    0.0000 O   0  0  0  0  0  0  0  0  0  0  0  0
    5.7689   -8.0633    0.0000 C   0  0  0  0  0  0  0  0  0  0  0  0
    7.0064   -8.7778    0.0000 C   0  0  0  0  0  0  0  0  0  0  0  0
    4.0252   -9.1987    0.0000 C   0  0  2  0  0  0  0  0  0  0  0  0
    4.0252  -10.0238    0.0000 C   0  0  2  0  0  0  0  0  0  0  0  0
    4.7396  -10.4363    0.0000 C   0  0  1  0  0  0  0  0  0  0  0  0
    5.4541  -10.0238    0.0000 C   0  0  2  0  0  0  0  0  0  0  0  0
    5.4541   -9.1987    0.0000 C   0  0  1  0  0  0  0  0  0  0  0  0
    4.7396   -8.7862    0.0000 O   0  0  0  0  0  0  0  0  0  0  0  0
    3.3107   -8.7862    0.0000 C   0  0  0  0  0  0  0  0  0  0  0  0
    4.7396  -11.2613    0.0000 O   0  0  0  0  0  0  0  0  0  0  0  0
    6.1686  -10.4363    0.0000 O   0  0  0  0  0  0  0  0  0  0  0  0
    3.3107  -10.4363    0.0000 O   0  0  0  0  0  0  0  0  0  0  0  0
    2.5962   -9.1987    0.0000 O   0  0  0  0  0  0  0  0  0  0  0  0
  1  2  2  0  0  0  0
  2  3  1  0  0  0  0
  3  4  2  0  0  0  0
  4  5  1  0  0  0  0
  5  6  2  0  0  0  0
  6  1  1  0  0  0  0
  4  7  1  0  0  0  0
  7  8  1  0  0  0  0
  8  9  1  0  0  0  0
  9 10  2  0  0  0  0
 10  5  1  0  0  0  0
  2 11  1  0  0  0  0
 11 12  1  0  0  0  0
 12 13  1  0  0  0  0
 13  3  1  0  0  0  0
  8 14  2  0  0  0  0
 12 15  1  1  0  0  0
 15 16  1  0  0  0  0
 15 17  1  0  0  0  0
 15 18  1  0  0  0  0
 19 20  1  0  0  0  0
 20 21  1  0  0  0  0
 21 22  1  0  0  0  0
 22 23  1  0  0  0  0
 23 24  1  0  0  0  0
 24 19  1  0  0  0  0
 19 25  1  1  0  0  0
 21 26  1  1  0  0  0
 22 27  1  6  0  0  0
 20 28  1  6  0  0  0
 25 29  1  0  0  0  0
 23 16  1  1  0  0  0
M  END
>  <cdx:fragmentId>
5

$$$$
