91757.cdx
  Mrv1902 05222410252D          

 39 42  0  0  0  0            999 V2000
    2.8581  -10.2850    0.0000 C   0  0  0  0  0  0  0  0  0  0  0  0
    2.8581  -11.1100    0.0000 C   0  0  0  0  0  0  0  0  0  0  0  0
    3.5725  -11.5225    0.0000 C   0  0  0  0  0  0  0  0  0  0  0  0
    4.2870  -11.1100    0.0000 C   0  0  1  0  0  0  0  0  0  0  0  0
    4.2870  -10.2850    0.0000 C   0  0  2  0  0  0  0  0  0  0  0  0
    3.5725   -9.8725    0.0000 C   0  0  0  0  0  0  0  0  0  0  0  0
    5.0015  -11.5225    0.0000 C   0  0  0  0  0  0  0  0  0  0  0  0
    5.7159  -11.1100    0.0000 C   0  0  1  0  0  0  0  0  0  0  0  0
    5.7159  -10.2850    0.0000 C   0  0  0  0  0  0  0  0  0  0  0  0
    5.0015   -9.8725    0.0000 C   0  0  0  0  0  0  0  0  0  0  0  0
    6.4304   -9.8725    0.0000 C   0  0  1  0  0  0  0  0  0  0  0  0
    6.4304   -9.0475    0.0000 C   0  0  2  0  0  0  0  0  0  0  0  0
    5.7159   -8.6350    0.0000 C   0  0  0  0  0  0  0  0  0  0  0  0
    5.0015   -9.0475    0.0000 C   0  0  0  0  0  0  0  0  0  0  0  0
    7.2150  -10.1274    0.0000 C   0  0  2  0  0  0  0  0  0  0  0  0
    7.7000   -9.4600    0.0000 C   0  0  0  0  0  0  0  0  0  0  0  0
    7.2150   -8.7926    0.0000 C   0  0  2  0  0  0  0  0  0  0  0  0
    2.1436  -11.5225    0.0000 O   0  0  0  0  0  0  0  0  0  0  0  0
    3.1800  -12.2024    0.0000 C   0  0  0  0  0  0  0  0  0  0  0  0
    3.9484  -12.1736    0.0000 C   0  0  0  0  0  0  0  0  0  0  0  0
    4.2870   -8.6350    0.0000 O   0  0  0  0  0  0  0  0  0  0  0  0
    7.4700   -8.0079    0.0000 C   0  0  2  0  0  0  0  0  0  0  0  0
    6.9179   -7.3948    0.0000 C   0  0  0  0  0  0  0  0  0  0  0  0
    4.2870   -9.4600    0.0000 C   0  0  0  0  0  0  0  0  0  0  0  0
    6.4304   -8.2478    0.0000 C   0  0  0  0  0  0  0  0  0  0  0  0
    6.4304  -11.5225    0.0000 O   0  0  0  0  0  0  0  0  0  0  0  0
    6.4304  -10.6154    0.0000 C   0  0  0  0  0  0  0  0  0  0  0  0
    7.4700  -10.9121    0.0000 O   0  0  0  0  0  0  0  0  0  0  0  0
    8.0299   -8.6635    0.0000 H   0  0  0  0  0  0  0  0  0  0  0  0
    4.2870  -11.9350    0.0000 H   0  0  0  0  0  0  0  0  0  0  0  0
    8.2769   -7.8364    0.0000 C   0  0  0  0  0  0  0  0  0  0  0  0
    8.5319   -7.0518    0.0000 C   0  0  0  0  0  0  0  0  0  0  0  0
    9.3389   -6.8803    0.0000 C   0  0  0  0  0  0  0  0  0  0  0  0
    9.8909   -7.4934    0.0000 O   0  0  0  0  0  0  0  0  0  0  0  0
    9.5938   -6.0956    0.0000 O   0  0  0  0  0  0  0  0  0  0  0  0
   10.4008   -5.9241    0.0000 C   0  0  0  0  0  0  0  0  0  0  0  0
   10.6557   -5.1395    0.0000 C   0  0  0  0  0  0  0  0  0  0  0  0
   11.4627   -4.9680    0.0000 C   0  0  0  0  0  0  0  0  0  0  0  0
   11.7176   -4.1833    0.0000 C   0  0  0  0  0  0  0  0  0  0  0  0
  1  2  1  0  0  0  0
  2  3  1  0  0  0  0
  3  4  1  0  0  0  0
  4  5  1  0  0  0  0
  5  6  1  0  0  0  0
  6  1  1  0  0  0  0
  4  7  1  0  0  0  0
  7  8  1  0  0  0  0
  8  9  1  0  0  0  0
  9 10  2  0  0  0  0
 10  5  1  0  0  0  0
  9 11  1  0  0  0  0
 11 12  1  0  0  0  0
 12 13  1  0  0  0  0
 13 14  1  0  0  0  0
 14 10  1  0  0  0  0
 11 15  1  0  0  0  0
 15 16  1  0  0  0  0
 16 17  1  0  0  0  0
 17 12  1  0  0  0  0
  2 18  2  0  0  0  0
  3 19  1  0  0  0  0
  3 20  1  0  0  0  0
 14 21  2  0  0  0  0
 17 22  1  0  0  0  0
 22 23  1  6  0  0  0
  5 24  1  1  0  0  0
 12 25  1  1  0  0  0
  8 26  1  1  0  0  0
 11 27  1  6  0  0  0
 15 28  1  6  0  0  0
 17 29  1  6  0  0  0
  4 30  1  6  0  0  0
 22 31  1  0  0  0  0
 31 32  1  0  0  0  0
 32 33  1  0  0  0  0
 33 34  2  0  0  0  0
 33 35  1  0  0  0  0
 35 36  1  0  0  0  0
 36 37  1  0  0  0  0
 37 38  1  0  0  0  0
 38 39  1  0  0  0  0
M  END
>  <cdx:fragmentId>
5

$$$$
