917513.cdx
  Mrv1902 05222410242D          

 47 51  0  0  0  0            999 V2000
    6.6528   -9.8351    0.0000 H   0  0  0  0  0  0  0  0  0  0  0  0
    8.7652   -8.5628    0.0000 H   0  0  0  0  0  0  0  0  0  0  0  0
    8.9666  -13.1135    0.0000 O   0  0  0  0  0  0  0  0  0  0  0  0
   10.4391  -12.7329    0.0000 O   0  0  0  0  0  0  0  0  0  0  0  0
   10.9434  -11.1618    0.0000 O   0  0  0  0  0  0  0  0  0  0  0  0
    5.8825   -9.3643    0.0000 O   0  0  0  0  0  0  0  0  0  0  0  0
    5.6080  -13.2119    0.0000 O   0  0  0  0  0  0  0  0  0  0  0  0
    7.0397  -14.0317    0.0000 O   0  0  0  0  0  0  0  0  0  0  0  0
    8.3853  -13.3211    0.0000 O   0  0  0  0  0  0  0  0  0  0  0  0
    5.1452   -8.1403    0.0000 O   0  0  0  0  0  0  0  0  0  0  0  0
    5.8519   -7.7146    0.0000 C   0  0  0  0  0  0  0  0  0  0  0  0
    7.8939   -9.5059    0.0000 O   0  0  0  0  0  0  0  0  0  0  0  0
    6.1441  -10.4877    0.0000 O   0  0  0  0  0  0  0  0  0  0  0  0
    7.7436  -12.8026    0.0000 C   0  0  0  0  0  0  0  0  0  0  0  0
    7.0244  -13.2069    0.0000 C   0  0  0  0  0  0  0  0  0  0  0  0
    6.3147  -12.7863    0.0000 C   0  0  0  0  0  0  0  0  0  0  0  0
    6.3241  -11.9613    0.0000 C   0  0  0  0  0  0  0  0  0  0  0  0
    7.0433  -11.5570    0.0000 C   0  0  0  0  0  0  0  0  0  0  0  0
    6.9296  -10.7399    0.0000 C   0  0  0  0  0  0  0  0  0  0  0  0
    7.4976  -10.1415    0.0000 O   0  0  0  0  0  0  0  0  0  0  0  0
    7.3112   -9.3379    0.0000 C   0  0  1  0  0  0  0  0  0  0  0  0
    6.5892   -8.9387    0.0000 C   0  0  1  0  0  0  0  0  0  0  0  0
    6.5739   -8.1138    0.0000 C   0  0  2  0  0  0  0  0  0  0  0  0
    7.2806   -7.6882    0.0000 O   0  0  0  0  0  0  0  0  0  0  0  0
    8.0026   -8.0874    0.0000 C   0  0  2  0  0  0  0  0  0  0  0  0
    8.0179   -8.9122    0.0000 C   0  0  2  0  0  0  0  0  0  0  0  0
    8.6411   -9.4528    0.0000 O   0  0  0  0  0  0  0  0  0  0  0  0
    8.3196  -10.2126    0.0000 C   0  0  0  0  0  0  0  0  0  0  0  0
    8.7765  -10.8995    0.0000 C   0  0  0  0  0  0  0  0  0  0  0  0
    9.5828  -10.7251    0.0000 C   0  0  0  0  0  0  0  0  0  0  0  0
   10.1370  -11.3362    0.0000 C   0  0  0  0  0  0  0  0  0  0  0  0
    9.8849  -12.1217    0.0000 C   0  0  0  0  0  0  0  0  0  0  0  0
    9.0785  -12.2961    0.0000 C   0  0  0  0  0  0  0  0  0  0  0  0
    8.5243  -11.6850    0.0000 C   0  0  0  0  0  0  0  0  0  0  0  0
    7.7530  -11.9776    0.0000 C   0  0  0  0  0  0  0  0  0  0  0  0
    7.2196   -4.3887    0.0000 O   0  0  0  0  0  0  0  0  0  0  0  0
    5.8061   -5.2400    0.0000 O   0  0  0  0  0  0  0  0  0  0  0  0
    5.8367   -6.8897    0.0000 O   0  0  0  0  0  0  0  0  0  0  0  0
    8.7093   -7.6617    0.0000 O   0  0  0  0  0  0  0  0  0  0  0  0
    9.4008   -6.4112    0.0000 O   0  0  0  0  0  0  0  0  0  0  0  0
    7.2654   -6.8633    0.0000 C   0  0  0  0  0  0  0  0  0  0  0  0
    6.5434   -6.4641    0.0000 C   0  0  0  0  0  0  0  0  0  0  0  0
    6.5281   -5.6392    0.0000 C   0  0  0  0  0  0  0  0  0  0  0  0
    7.2348   -5.2136    0.0000 C   0  0  0  0  0  0  0  0  0  0  0  0
    7.9568   -5.6128    0.0000 C   0  0  0  0  0  0  0  0  0  0  0  0
    7.9721   -6.4376    0.0000 C   0  0  0  0  0  0  0  0  0  0  0  0
    8.6941   -6.8369    0.0000 C   0  0  0  0  0  0  0  0  0  0  0  0
 21  1  1  6  0  0  0
 26  2  1  1  0  0  0
 25 39  1  1  0  0  0
 33  3  1  0  0  0  0
 32  4  1  0  0  0  0
 31  5  1  0  0  0  0
 22  6  1  6  0  0  0
 16  7  1  0  0  0  0
 15  8  1  0  0  0  0
 14  9  1  0  0  0  0
 23 11  1  1  0  0  0
 11 10  1  0  0  0  0
 28 12  2  0  0  0  0
 19 13  2  0  0  0  0
 34 29  1  0  0  0  0
 26 21  1  0  0  0  0
 35 18  1  0  0  0  0
 35 14  2  0  0  0  0
 15 14  1  0  0  0  0
 16 15  2  0  0  0  0
 17 16  1  0  0  0  0
 18 17  2  0  0  0  0
 19 18  1  0  0  0  0
 20 19  1  0  0  0  0
 21 20  1  0  0  0  0
 22 21  1  0  0  0  0
 23 22  1  0  0  0  0
 24 23  1  0  0  0  0
 25 24  1  0  0  0  0
 26 25  1  0  0  0  0
 27 26  1  0  0  0  0
 28 27  1  0  0  0  0
 29 28  1  0  0  0  0
 30 29  2  0  0  0  0
 31 30  1  0  0  0  0
 32 31  2  0  0  0  0
 33 32  1  0  0  0  0
 34 33  2  0  0  0  0
 35 34  1  0  0  0  0
 44 36  1  0  0  0  0
 43 37  1  0  0  0  0
 42 38  1  0  0  0  0
 47 39  1  0  0  0  0
 47 40  2  0  0  0  0
 46 41  2  0  0  0  0
 42 41  1  0  0  0  0
 43 42  2  0  0  0  0
 44 43  1  0  0  0  0
 45 44  2  0  0  0  0
 46 45  1  0  0  0  0
 47 46  1  0  0  0  0
M  END
>  <cdx:groupId>
98484

>  <cdx:fragmentId>
98366

$$$$
