91750.cdx
  Mrv1902 05222410232D          

 60 65  0  0  0  0            999 V2000
   14.3653   -7.6997    0.0000 C   0  0  0  0  0  0  0  0  0  0  0  0
   14.3628   -8.5247    0.0000 C   0  0  0  0  0  0  0  0  0  0  0  0
   13.6471   -8.9349    0.0000 C   0  0  0  0  0  0  0  0  0  0  0  0
   12.9339   -8.5202    0.0000 C   0  0  0  0  0  0  0  0  0  0  0  0
   12.2181   -8.9305    0.0000 C   0  0  0  0  0  0  0  0  0  0  0  0
   11.5049   -8.5158    0.0000 C   0  0  0  0  0  0  0  0  0  0  0  0
   11.5075   -7.6908    0.0000 C   0  0  0  0  0  0  0  0  0  0  0  0
   12.2232   -7.2805    0.0000 C   0  0  0  0  0  0  0  0  0  0  0  0
   12.9364   -7.6952    0.0000 C   0  0  0  0  0  0  0  0  0  0  0  0
   13.6522   -7.2850    0.0000 O   0  0  0  0  0  0  0  0  0  0  0  0
   13.6445   -9.7599    0.0000 O   0  0  0  0  0  0  0  0  0  0  0  0
   10.7943   -7.2761    0.0000 O   0  0  0  0  0  0  0  0  0  0  0  0
   10.0798   -7.6886    0.0000 C   0  0  0  0  0  0  0  0  0  0  0  0
   15.0811   -7.2894    0.0000 C   0  0  0  0  0  0  0  0  0  0  0  0
   15.0836   -6.4644    0.0000 C   0  0  0  0  0  0  0  0  0  0  0  0
   15.7994   -6.0541    0.0000 C   0  0  0  0  0  0  0  0  0  0  0  0
   16.5126   -6.4688    0.0000 C   0  0  0  0  0  0  0  0  0  0  0  0
   16.5100   -7.2938    0.0000 C   0  0  0  0  0  0  0  0  0  0  0  0
   15.7943   -7.7041    0.0000 C   0  0  0  0  0  0  0  0  0  0  0  0
   17.2283   -6.0585    0.0000 O   0  0  0  0  0  0  0  0  0  0  0  0
   12.2156   -9.7555    0.0000 O   0  0  0  0  0  0  0  0  0  0  0  0
   10.7723  -11.4011    0.0000 O   0  0  0  0  0  0  0  0  0  0  0  0
   10.7666  -12.2260    0.0000 C   0  0  1  0  0  0  0  0  0  0  0  0
   11.4783  -12.6434    0.0000 C   0  0  2  0  0  0  0  0  0  0  0  0
   12.1956  -12.2358    0.0000 C   0  0  1  0  0  0  0  0  0  0  0  0
   12.2012  -11.4108    0.0000 C   0  0  2  0  0  0  0  0  0  0  0  0
   11.4896  -10.9935    0.0000 C   0  0  2  0  0  0  0  0  0  0  0  0
   12.9185  -11.0032    0.0000 O   0  0  0  0  0  0  0  0  0  0  0  0
   12.9072  -12.6532    0.0000 O   0  0  0  0  0  0  0  0  0  0  0  0
   11.4726  -13.4684    0.0000 O   0  0  0  0  0  0  0  0  0  0  0  0
   11.4952  -10.1685    0.0000 O   0  0  0  0  0  0  0  0  0  0  0  0
   10.0775   -8.5087    0.0000 O   0  0  0  0  0  0  0  0  0  0  0  0
   10.7892   -8.9261    0.0000 C   0  0  2  0  0  0  0  0  0  0  0  0
   10.7835   -9.7511    0.0000 C   0  0  1  0  0  0  0  0  0  0  0  0
   10.0663  -10.1587    0.0000 C   0  0  2  0  0  0  0  0  0  0  0  0
    9.3546   -9.7413    0.0000 C   0  0  1  0  0  0  0  0  0  0  0  0
    9.3603   -8.9164    0.0000 C   0  0  1  0  0  0  0  0  0  0  0  0
    8.6486   -8.4990    0.0000 C   0  0  0  0  0  0  0  0  0  0  0  0
    7.9314   -8.9066    0.0000 O   0  0  0  0  0  0  0  0  0  0  0  0
    8.6374  -10.1489    0.0000 O   0  0  0  0  0  0  0  0  0  0  0  0
   10.0606  -10.9837    0.0000 O   0  0  0  0  0  0  0  0  0  0  0  0
   10.0494  -12.6337    0.0000 C   0  0  0  0  0  0  0  0  0  0  0  0
   10.0494  -13.4587    0.0000 O   0  0  0  0  0  0  0  0  0  0  0  0
   10.7892   -8.1011    0.0000 H   0  0  0  0  0  0  0  0  0  0  0  0
    7.2197   -8.4892    0.0000 C   0  0  0  0  0  0  0  0  0  0  0  0
    6.5025   -8.8968    0.0000 C   0  0  0  0  0  0  0  0  0  0  0  0
    7.2254   -7.6642    0.0000 O   0  0  0  0  0  0  0  0  0  0  0  0
    5.7908   -8.4795    0.0000 C   0  0  0  0  0  0  0  0  0  0  0  0
    5.0736   -8.8871    0.0000 C   0  0  0  0  0  0  0  0  0  0  0  0
    4.3648   -8.4648    0.0000 C   0  0  0  0  0  0  0  0  0  0  0  0
    3.6447   -8.8871    0.0000 C   0  0  0  0  0  0  0  0  0  0  0  0
    3.6447   -9.7120    0.0000 C   0  0  0  0  0  0  0  0  0  0  0  0
    4.3648  -10.1342    0.0000 C   0  0  0  0  0  0  0  0  0  0  0  0
    5.0736   -9.7120    0.0000 C   0  0  0  0  0  0  0  0  0  0  0  0
    2.9289   -8.4770    0.0000 O   0  0  0  0  0  0  0  0  0  0  0  0
    2.9289  -10.1221    0.0000 O   0  0  0  0  0  0  0  0  0  0  0  0
    4.3676  -10.9592    0.0000 O   0  0  0  0  0  0  0  0  0  0  0  0
    2.9289   -7.6520    0.0000 C   0  0  0  0  0  0  0  0  0  0  0  0
    2.2158   -9.7072    0.0000 C   0  0  0  0  0  0  0  0  0  0  0  0
    3.6546  -11.3742    0.0000 C   0  0  0  0  0  0  0  0  0  0  0  0
 43 42  1  0  0  0  0
 33  6  1  0  0  0  0
  1  2  2  0  0  0  0
  2  3  1  0  0  0  0
  3  4  1  0  0  0  0
  4  5  1  0  0  0  0
  5  6  2  0  0  0  0
  6  7  1  0  0  0  0
  7  8  2  0  0  0  0
  8  9  1  0  0  0  0
  4  9  2  0  0  0  0
  9 10  1  0  0  0  0
  1 10  1  0  0  0  0
  3 11  2  0  0  0  0
 12 13  1  0  0  0  0
  7 12  1  0  0  0  0
 14 15  1  0  0  0  0
 15 16  2  0  0  0  0
 16 17  1  0  0  0  0
 17 18  2  0  0  0  0
 18 19  1  0  0  0  0
 14 19  2  0  0  0  0
 17 20  1  0  0  0  0
  1 14  1  0  0  0  0
  5 21  1  0  0  0  0
 22 23  1  0  0  0  0
 23 24  1  0  0  0  0
 24 25  1  0  0  0  0
 25 26  1  0  0  0  0
 26 27  1  0  0  0  0
 22 27  1  0  0  0  0
 26 28  1  6  0  0  0
 25 29  1  1  0  0  0
 24 30  1  6  0  0  0
 32 33  1  0  0  0  0
 33 34  1  0  0  0  0
 34 35  1  0  0  0  0
 35 36  1  0  0  0  0
 36 37  1  0  0  0  0
 32 37  1  0  0  0  0
 38 39  1  0  0  0  0
 37 38  1  1  0  0  0
 36 40  1  6  0  0  0
 35 41  1  1  0  0  0
 34 31  1  6  0  0  0
 27 31  1  1  0  0  0
 23 42  1  1  0  0  0
 33 44  1  6  0  0  0
 39 45  1  0  0  0  0
 45 46  1  0  0  0  0
 45 47  2  0  0  0  0
 46 48  2  0  0  0  0
 48 49  1  0  0  0  0
 49 50  2  0  0  0  0
 50 51  1  0  0  0  0
 51 52  2  0  0  0  0
 52 53  1  0  0  0  0
 53 54  2  0  0  0  0
 54 49  1  0  0  0  0
 51 55  1  0  0  0  0
 52 56  1  0  0  0  0
 53 57  1  0  0  0  0
 55 58  1  0  0  0  0
 56 59  1  0  0  0  0
 57 60  1  0  0  0  0
M  END
>  <cdx:fragmentId>
133584

$$$$
