91759.cdx
  Mrv1902 05222410202D          

 26 25  0  0  0  0            999 V2000
    1.4857   -8.5240    0.0000 C   0  0  0  0  0  0  0  0  0  0  0  0
    1.9890   -8.2408    0.0000 C   0  0  0  0  0  0  0  0  0  0  0  0
    2.4859   -8.5351    0.0000 C   0  0  0  0  0  0  0  0  0  0  0  0
    2.9892   -8.2518    0.0000 C   0  0  0  0  0  0  0  0  0  0  0  0
    3.4861   -8.5461    0.0000 C   0  0  0  0  0  0  0  0  0  0  0  0
    3.9894   -8.2628    0.0000 C   0  0  0  0  0  0  0  0  0  0  0  0
    4.4863   -8.5571    0.0000 C   0  0  0  0  0  0  0  0  0  0  0  0
    4.9896   -8.2739    0.0000 C   0  0  0  0  0  0  0  0  0  0  0  0
    5.4865   -8.5681    0.0000 C   0  0  0  0  0  0  0  0  0  0  0  0
    5.9898   -8.2849    0.0000 C   0  0  0  0  0  0  0  0  0  0  0  0
    6.4867   -8.5791    0.0000 C   0  0  0  0  0  0  0  0  0  0  0  0
    6.9900   -8.2959    0.0000 C   0  0  0  0  0  0  0  0  0  0  0  0
    7.4869   -8.5901    0.0000 C   0  0  0  0  0  0  0  0  0  0  0  0
    7.9902   -8.3069    0.0000 C   0  0  0  0  0  0  0  0  0  0  0  0
    8.4871   -8.6011    0.0000 C   0  0  0  0  0  0  0  0  0  0  0  0
    8.9904   -8.3179    0.0000 C   0  0  0  0  0  0  0  0  0  0  0  0
    9.4873   -8.6121    0.0000 C   0  0  0  0  0  0  0  0  0  0  0  0
    9.9906   -8.3289    0.0000 C   0  0  0  0  0  0  0  0  0  0  0  0
   10.4875   -8.6232    0.0000 C   0  0  0  0  0  0  0  0  0  0  0  0
   10.9908   -8.3399    0.0000 O   0  0  0  0  0  0  0  0  0  0  0  0
   11.4877   -8.6342    0.0000 C   0  0  0  0  0  0  0  0  0  0  0  0
   11.9910   -8.3509    0.0000 C   0  0  0  0  0  0  0  0  0  0  0  0
   12.4879   -8.6452    0.0000 C   0  0  0  0  0  0  0  0  0  0  0  0
   12.9912   -8.3619    0.0000 O   0  0  0  0  0  0  0  0  0  0  0  0
   11.9973   -7.7735    0.0000 O   0  0  0  0  0  0  0  0  0  0  0  0
   10.4811   -9.2006    0.0000 O   0  0  0  0  0  0  0  0  0  0  0  0
  1  2  1  0  0  0  0
  2  3  1  0  0  0  0
  3  4  1  0  0  0  0
  4  5  1  0  0  0  0
  5  6  1  0  0  0  0
  6  7  1  0  0  0  0
  7  8  1  0  0  0  0
  8  9  1  0  0  0  0
  9 10  1  0  0  0  0
 10 11  1  0  0  0  0
 11 12  1  0  0  0  0
 12 13  1  0  0  0  0
 13 14  1  0  0  0  0
 14 15  1  0  0  0  0
 15 16  1  0  0  0  0
 16 17  1  0  0  0  0
 17 18  1  0  0  0  0
 18 19  1  0  0  0  0
 19 20  1  0  0  0  0
 20 21  1  0  0  0  0
 21 22  1  0  0  0  0
 22 23  1  0  0  0  0
 23 24  1  0  0  0  0
 22 25  1  0  0  0  0
 19 26  2  0  0  0  0
M  END
>  <cdx:fragmentId>
3

$$$$
