91752.cdx
  Mrv1902 05222410242D          

 39 43  0  0  0  0            999 V2000
    2.7315  -11.3827    0.0000 O   0  0  0  0  0  0  0  0  0  0  0  0
    3.0434  -12.7772    0.0000 O   0  0  0  0  0  0  0  0  0  0  0  0
    3.8485  -12.5972    0.0000 C   0  0  2  0  0  0  0  0  0  0  0  0
    4.0951  -11.8099    0.0000 C   0  0  1  0  0  0  0  0  0  0  0  0
    3.5366  -11.2027    0.0000 C   0  0  0  0  0  0  0  0  0  0  0  0
    4.4070  -13.2044    0.0000 C   0  0  1  0  0  0  0  0  0  0  0  0
    5.2121  -13.0243    0.0000 C   0  0  2  0  0  0  0  0  0  0  0  0
    5.4587  -12.2370    0.0000 C   0  0  1  0  0  0  0  0  0  0  0  0
    4.9003  -11.6298    0.0000 O   0  0  0  0  0  0  0  0  0  0  0  0
    6.2639  -12.0570    0.0000 O   0  0  0  0  0  0  0  0  0  0  0  0
    6.5105  -11.2697    0.0000 C   0  0  0  0  0  0  0  0  0  0  0  0
    5.9520  -10.6625    0.0000 C   0  0  0  0  0  0  0  0  0  0  0  0
    5.1469  -10.8425    0.0000 O   0  0  0  0  0  0  0  0  0  0  0  0
    7.3156  -11.0896    0.0000 C   0  0  0  0  0  0  0  0  0  0  0  0
    7.5622  -10.3024    0.0000 C   0  0  0  0  0  0  0  0  0  0  0  0
    7.0037   -9.6952    0.0000 C   0  0  0  0  0  0  0  0  0  0  0  0
    6.1986   -9.8752    0.0000 C   0  0  0  0  0  0  0  0  0  0  0  0
    7.2503   -8.9079    0.0000 C   0  0  2  0  0  0  0  0  0  0  0  0
    8.0322   -8.6446    0.0000 C   0  0  2  0  0  0  0  0  0  0  0  0
    8.0235   -7.8197    0.0000 C   0  0  2  0  0  0  0  0  0  0  0  0
    7.2362   -7.5731    0.0000 C   0  0  0  0  0  0  0  0  0  0  0  0
    6.7584   -8.2456    0.0000 O   0  0  0  0  0  0  0  0  0  0  0  0
    8.8195   -8.8913    0.0000 C   0  0  0  0  0  0  0  0  0  0  0  0
    9.2973   -8.2187    0.0000 O   0  0  0  0  0  0  0  0  0  0  0  0
    8.8054   -7.5565    0.0000 C   0  0  2  0  0  0  0  0  0  0  0  0
    9.0520   -6.7692    0.0000 C   0  0  0  0  0  0  0  0  0  0  0  0
    9.8571   -6.5891    0.0000 C   0  0  0  0  0  0  0  0  0  0  0  0
   10.1037   -5.8018    0.0000 C   0  0  0  0  0  0  0  0  0  0  0  0
    9.5452   -5.1946    0.0000 C   0  0  0  0  0  0  0  0  0  0  0  0
    8.7401   -5.3747    0.0000 C   0  0  0  0  0  0  0  0  0  0  0  0
    8.4935   -6.1620    0.0000 C   0  0  0  0  0  0  0  0  0  0  0  0
    9.7918   -4.4074    0.0000 O   0  0  0  0  0  0  0  0  0  0  0  0
   10.9088   -5.6218    0.0000 O   0  0  0  0  0  0  0  0  0  0  0  0
   11.4673   -6.2290    0.0000 C   0  0  0  0  0  0  0  0  0  0  0  0
    4.5884  -10.2353    0.0000 C   0  0  0  0  0  0  0  0  0  0  0  0
    4.1604  -13.9917    0.0000 O   0  0  0  0  0  0  0  0  0  0  0  0
    8.0147   -6.9947    0.0000 O   0  0  0  0  0  0  0  0  0  0  0  0
    8.0409   -9.4696    0.0000 H   0  0  0  0  0  0  0  0  0  0  0  0
    5.7706  -13.6315    0.0000 O   0  0  0  0  0  0  0  0  0  0  0  0
  3  2  1  6  0  0  0
  3  4  1  0  0  0  0
  4  5  1  1  0  0  0
  5  1  1  0  0  0  0
  3  6  1  0  0  0  0
  6  7  1  0  0  0  0
  7  8  1  0  0  0  0
  8  9  1  0  0  0  0
  9  4  1  0  0  0  0
  8 10  1  1  0  0  0
 10 11  1  0  0  0  0
 11 12  2  0  0  0  0
 12 13  1  0  0  0  0
 11 14  1  0  0  0  0
 14 15  2  0  0  0  0
 15 16  1  0  0  0  0
 16 17  2  0  0  0  0
 17 12  1  0  0  0  0
 18 16  1  1  0  0  0
 18 19  1  0  0  0  0
 19 20  1  0  0  0  0
 20 21  1  0  0  0  0
 21 22  1  0  0  0  0
 22 18  1  0  0  0  0
 19 23  1  0  0  0  0
 23 24  1  0  0  0  0
 24 25  1  0  0  0  0
 25 20  1  0  0  0  0
 25 26  1  1  0  0  0
 26 27  2  0  0  0  0
 27 28  1  0  0  0  0
 28 29  2  0  0  0  0
 29 30  1  0  0  0  0
 30 31  2  0  0  0  0
 31 26  1  0  0  0  0
 29 32  1  0  0  0  0
 28 33  1  0  0  0  0
 33 34  1  0  0  0  0
 13 35  1  0  0  0  0
  6 36  1  1  0  0  0
 20 37  1  1  0  0  0
 19 38  1  1  0  0  0
  7 39  1  6  0  0  0
M  END
>  <cdx:fragmentId>
5

$$$$
