91766.cdx
  Mrv1902 05222410212D          

 22 24  0  0  0  0            999 V2000
    3.2981  -10.8762    0.0000 C   0  0  0  0  0  0  0  0  0  0  0  0
    3.2981  -11.7012    0.0000 C   0  0  0  0  0  0  0  0  0  0  0  0
    4.0125  -12.1138    0.0000 C   0  0  0  0  0  0  0  0  0  0  0  0
    4.7270  -11.7012    0.0000 C   0  0  0  0  0  0  0  0  0  0  0  0
    4.7270  -10.8762    0.0000 C   0  0  0  0  0  0  0  0  0  0  0  0
    4.0125  -10.4637    0.0000 C   0  0  0  0  0  0  0  0  0  0  0  0
    5.5116  -11.9562    0.0000 N   0  0  0  0  0  0  0  0  0  0  0  0
    5.9965  -11.2888    0.0000 C   0  0  0  0  0  0  0  0  0  0  0  0
    5.5116  -10.6213    0.0000 C   0  0  0  0  0  0  0  0  0  0  0  0
    5.7666   -9.8367    0.0000 C   0  0  0  0  0  0  0  0  0  0  0  0
    6.5634   -9.6232    0.0000 C   0  0  0  0  0  0  0  0  0  0  0  0
    6.7770   -8.8263    0.0000 N   0  0  0  0  0  0  0  0  0  0  0  0
    7.5739   -8.6127    0.0000 C   0  0  0  0  0  0  0  0  0  0  0  0
    7.7874   -7.8159    0.0000 C   0  0  0  0  0  0  0  0  0  0  0  0
    8.1572   -9.1961    0.0000 O   0  0  0  0  0  0  0  0  0  0  0  0
    8.5843   -7.6023    0.0000 C   0  0  0  0  0  0  0  0  0  0  0  0
    8.7978   -6.8054    0.0000 C   0  0  0  0  0  0  0  0  0  0  0  0
    8.2144   -6.2221    0.0000 C   0  0  0  0  0  0  0  0  0  0  0  0
    7.4175   -6.4356    0.0000 C   0  0  0  0  0  0  0  0  0  0  0  0
    7.2040   -7.2325    0.0000 C   0  0  0  0  0  0  0  0  0  0  0  0
    9.1676   -8.1857    0.0000 N   0  0  0  0  0  0  0  0  0  0  0  0
    8.9541   -8.9826    0.0000 C   0  0  0  0  0  0  0  0  0  0  0  0
  1  2  2  0  0  0  0
  2  3  1  0  0  0  0
  3  4  2  0  0  0  0
  4  5  1  0  0  0  0
  5  6  2  0  0  0  0
  6  1  1  0  0  0  0
  4  7  1  0  0  0  0
  7  8  1  0  0  0  0
  8  9  2  0  0  0  0
  9  5  1  0  0  0  0
  9 10  1  0  0  0  0
 10 11  1  0  0  0  0
 11 12  1  0  0  0  0
 12 13  1  0  0  0  0
 13 14  1  0  0  0  0
 13 15  2  0  0  0  0
 14 16  2  0  0  0  0
 16 17  1  0  0  0  0
 17 18  2  0  0  0  0
 18 19  1  0  0  0  0
 19 20  2  0  0  0  0
 20 14  1  0  0  0  0
 16 21  1  0  0  0  0
 21 22  1  0  0  0  0
M  END
>  <cdx:fragmentId>
5

$$$$
