91762.cdx
  Mrv1902 05222410222D          

 36 39  0  0  0  0            999 V2000
    9.8663   -7.0537    0.0000 O   0  0  0  0  0  0  0  0  0  0  0  0
    9.8663   -5.4037    0.0000 O   0  0  0  0  0  0  0  0  0  0  0  0
    8.4374   -4.5788    0.0000 O   0  0  0  0  0  0  0  0  0  0  0  0
    3.4361   -6.6413    0.0000 O   0  0  0  0  0  0  0  0  0  0  0  0
    9.1519   -6.6413    0.0000 C   0  0  0  0  0  0  0  0  0  0  0  0
    9.1519   -5.8163    0.0000 C   0  0  0  0  0  0  0  0  0  0  0  0
    8.4374   -5.4037    0.0000 C   0  0  0  0  0  0  0  0  0  0  0  0
    7.7229   -5.8163    0.0000 C   0  0  0  0  0  0  0  0  0  0  0  0
    7.7229   -8.2912    0.0000 O   0  0  0  0  0  0  0  0  0  0  0  0
    8.4374   -7.0537    0.0000 C   0  0  0  0  0  0  0  0  0  0  0  0
    7.7229   -6.6413    0.0000 C   0  0  0  0  0  0  0  0  0  0  0  0
    4.8650   -9.1162    0.0000 O   0  0  0  0  0  0  0  0  0  0  0  0
    6.2940   -9.1162    0.0000 O   0  0  0  0  0  0  0  0  0  0  0  0
    6.2940   -8.2912    0.0000 C   0  0  0  0  0  0  0  0  0  0  0  0
    7.0084   -7.8788    0.0000 C   0  0  0  0  0  0  0  0  0  0  0  0
    7.0084   -7.0537    0.0000 C   0  0  0  0  0  0  0  0  0  0  0  0
    6.2940   -6.6413    0.0000 O   0  0  0  0  0  0  0  0  0  0  0  0
    4.8650   -8.2912    0.0000 C   0  0  0  0  0  0  0  0  0  0  0  0
    5.5795   -7.8788    0.0000 C   0  0  0  0  0  0  0  0  0  0  0  0
    5.5795   -7.0537    0.0000 C   0  0  0  0  0  0  0  0  0  0  0  0
    4.8650   -6.6413    0.0000 C   0  0  0  0  0  0  0  0  0  0  0  0
    4.1506   -7.0537    0.0000 C   0  0  0  0  0  0  0  0  0  0  0  0
    4.1506   -7.8788    0.0000 C   0  0  0  0  0  0  0  0  0  0  0  0
    7.7229   -4.1662    0.0000 C   0  0  0  0  0  0  0  0  0  0  0  0
   10.5808   -6.6412    0.0000 C   0  0  0  0  0  0  0  0  0  0  0  0
    7.7229   -9.1162    0.0000 C   0  0  2  0  0  0  0  0  0  0  0  0
    7.0084   -9.5287    0.0000 O   0  0  0  0  0  0  0  0  0  0  0  0
    7.0084  -10.3537    0.0000 C   0  0  1  0  0  0  0  0  0  0  0  0
    7.7229  -10.7663    0.0000 C   0  0  2  0  0  0  0  0  0  0  0  0
    8.4374  -10.3537    0.0000 C   0  0  1  0  0  0  0  0  0  0  0  0
    8.4374   -9.5287    0.0000 C   0  0  1  0  0  0  0  0  0  0  0  0
    6.2940  -10.7663    0.0000 C   0  0  0  0  0  0  0  0  0  0  0  0
    9.1519  -10.7663    0.0000 O   0  0  0  0  0  0  0  0  0  0  0  0
    9.1519   -9.1162    0.0000 O   0  0  0  0  0  0  0  0  0  0  0  0
    7.7229  -11.5913    0.0000 O   0  0  0  0  0  0  0  0  0  0  0  0
    6.2940  -11.5913    0.0000 O   0  0  0  0  0  0  0  0  0  0  0  0
  5  1  1  0  0  0  0
  6  2  1  0  0  0  0
  7  3  1  0  0  0  0
 22  4  1  0  0  0  0
  5 10  2  0  0  0  0
  6  5  1  0  0  0  0
  7  6  2  0  0  0  0
  8  7  1  0  0  0  0
 11  8  2  0  0  0  0
  9 15  1  0  0  0  0
 11 10  1  0  0  0  0
 16 11  1  0  0  0  0
 12 18  1  0  0  0  0
 14 13  2  0  0  0  0
 14 19  1  0  0  0  0
 15 14  1  0  0  0  0
 16 15  2  0  0  0  0
 17 16  1  0  0  0  0
 20 17  1  0  0  0  0
 18 23  1  0  0  0  0
 19 18  2  0  0  0  0
 20 19  1  0  0  0  0
 21 20  2  0  0  0  0
 22 21  1  0  0  0  0
 23 22  2  0  0  0  0
  3 24  1  0  0  0  0
  1 25  1  0  0  0  0
 26  9  1  1  0  0  0
 26 27  1  0  0  0  0
 27 28  1  0  0  0  0
 28 29  1  0  0  0  0
 29 30  1  0  0  0  0
 30 31  1  0  0  0  0
 31 26  1  0  0  0  0
 28 32  1  1  0  0  0
 30 33  1  1  0  0  0
 31 34  1  6  0  0  0
 29 35  1  6  0  0  0
 32 36  1  0  0  0  0
M  END
>  <cdx:fragmentId>
5

$$$$
