91761.cdx
  Mrv1902 05222410232D          

 23 25  0  0  0  0            999 V2000
    4.0268   -6.7788    0.0000 C   0  0  0  0  0  0  0  0  0  0  0  0
    4.0268   -7.6037    0.0000 C   0  0  0  0  0  0  0  0  0  0  0  0
    4.7413   -8.0162    0.0000 C   0  0  0  0  0  0  0  0  0  0  0  0
    5.4557   -7.6037    0.0000 C   0  0  0  0  0  0  0  0  0  0  0  0
    5.4557   -6.7788    0.0000 C   0  0  0  0  0  0  0  0  0  0  0  0
    4.7413   -6.3662    0.0000 C   0  0  0  0  0  0  0  0  0  0  0  0
    6.1702   -8.0162    0.0000 C   0  0  0  0  0  0  0  0  0  0  0  0
    6.8847   -7.6037    0.0000 C   0  0  0  0  0  0  0  0  0  0  0  0
    6.8847   -6.7788    0.0000 C   0  0  0  0  0  0  0  0  0  0  0  0
    6.1702   -6.3662    0.0000 C   0  0  0  0  0  0  0  0  0  0  0  0
    7.5992   -8.0162    0.0000 C   0  0  0  0  0  0  0  0  0  0  0  0
    8.3136   -7.6037    0.0000 C   0  0  0  0  0  0  0  0  0  0  0  0
    8.3136   -6.7788    0.0000 C   0  0  0  0  0  0  0  0  0  0  0  0
    7.5992   -6.3662    0.0000 C   0  0  0  0  0  0  0  0  0  0  0  0
    6.1702   -5.5413    0.0000 O   0  0  0  0  0  0  0  0  0  0  0  0
    6.1702   -8.8413    0.0000 O   0  0  0  0  0  0  0  0  0  0  0  0
    7.5992   -5.5413    0.0000 O   0  0  0  0  0  0  0  0  0  0  0  0
    9.0281   -6.3662    0.0000 C   0  0  0  0  0  0  0  0  0  0  0  0
    9.7426   -6.7788    0.0000 O   0  0  0  0  0  0  0  0  0  0  0  0
    9.0281   -5.5413    0.0000 O   0  0  0  0  0  0  0  0  0  0  0  0
   10.4570   -6.3662    0.0000 C   0  0  0  0  0  0  0  0  0  0  0  0
   11.1715   -6.7788    0.0000 C   0  0  0  0  0  0  0  0  0  0  0  0
    9.0281   -8.0162    0.0000 O   0  0  0  0  0  0  0  0  0  0  0  0
  1  2  1  0  0  0  0
  2  3  2  0  0  0  0
  3  4  1  0  0  0  0
  4  5  2  0  0  0  0
  5  6  1  0  0  0  0
  6  1  2  0  0  0  0
  4  7  1  0  0  0  0
  7  8  1  0  0  0  0
  8  9  2  0  0  0  0
  9 10  1  0  0  0  0
 10  5  1  0  0  0  0
  8 11  1  0  0  0  0
 11 12  2  0  0  0  0
 12 13  1  0  0  0  0
 13 14  2  0  0  0  0
 14  9  1  0  0  0  0
 10 15  2  0  0  0  0
  7 16  2  0  0  0  0
 14 17  1  0  0  0  0
 13 18  1  0  0  0  0
 18 19  1  0  0  0  0
 18 20  2  0  0  0  0
 19 21  1  0  0  0  0
 21 22  1  0  0  0  0
 12 23  1  0  0  0  0
M  END
>  <cdx:fragmentId>
5

$$$$
