91767.cdx
  Mrv1902 05222410212D          

 43 45  0  0  0  0            999 V2000
    3.2425   -3.5475    0.0000 N   0  0  0  0  0  0  0  0  0  0  0  0
    3.9570   -3.1350    0.0000 C   0  0  0  0  0  0  0  0  0  0  0  0
    4.6715   -3.5475    0.0000 C   0  0  0  0  0  0  0  0  0  0  0  0
    5.3859   -3.1350    0.0000 C   0  0  0  0  0  0  0  0  0  0  0  0
    6.1004   -3.5475    0.0000 N   0  0  0  0  0  0  0  0  0  0  0  0
    6.8149   -3.1350    0.0000 C   0  0  0  0  0  0  0  0  0  0  0  0
    7.5294   -3.5475    0.0000 C   0  0  0  0  0  0  0  0  0  0  0  0
    8.2438   -3.1350    0.0000 C   0  0  0  0  0  0  0  0  0  0  0  0
    8.9583   -3.5475    0.0000 C   0  0  0  0  0  0  0  0  0  0  0  0
    9.6728   -3.1350    0.0000 N   0  0  0  0  0  0  0  0  0  0  0  0
    3.2425   -4.3725    0.0000 C   0  0  0  0  0  0  0  0  0  0  0  0
    3.2425   -5.1975    0.0000 C   0  0  0  0  0  0  0  0  0  0  0  0
    2.4175   -4.3725    0.0000 O   0  0  0  0  0  0  0  0  0  0  0  0
    3.9570   -5.6100    0.0000 C   0  0  0  0  0  0  0  0  0  0  0  0
    3.9570   -6.4350    0.0000 C   0  0  0  0  0  0  0  0  0  0  0  0
    3.2425   -6.8475    0.0000 C   0  0  0  0  0  0  0  0  0  0  0  0
    3.2425   -7.6725    0.0000 C   0  0  0  0  0  0  0  0  0  0  0  0
    3.9570   -8.0850    0.0000 C   0  0  0  0  0  0  0  0  0  0  0  0
    4.6715   -7.6725    0.0000 C   0  0  0  0  0  0  0  0  0  0  0  0
    4.6715   -6.8475    0.0000 C   0  0  0  0  0  0  0  0  0  0  0  0
    3.9570   -8.9100    0.0000 O   0  0  0  0  0  0  0  0  0  0  0  0
    6.1004   -4.3725    0.0000 C   0  0  0  0  0  0  0  0  0  0  0  0
    6.8149   -4.7850    0.0000 C   0  0  0  0  0  0  0  0  0  0  0  0
    5.2754   -4.3725    0.0000 O   0  0  0  0  0  0  0  0  0  0  0  0
    6.8149   -5.6100    0.0000 C   0  0  0  0  0  0  0  0  0  0  0  0
    6.2315   -6.1934    0.0000 C   0  0  0  0  0  0  0  0  0  0  0  0
    5.5202   -6.6112    0.0000 C   0  0  0  0  0  0  0  0  0  0  0  0
    5.5264   -7.4362    0.0000 C   0  0  0  0  0  0  0  0  0  0  0  0
    6.2439   -7.8433    0.0000 C   0  0  0  0  0  0  0  0  0  0  0  0
    6.9553   -7.4255    0.0000 C   0  0  0  0  0  0  0  0  0  0  0  0
    6.9491   -6.6005    0.0000 C   0  0  0  0  0  0  0  0  0  0  0  0
    9.6728   -3.9600    0.0000 C   0  0  0  0  0  0  0  0  0  0  0  0
    8.8478   -3.9600    0.0000 O   0  0  0  0  0  0  0  0  0  0  0  0
    9.8097   -5.8025    0.0000 C   0  0  0  0  0  0  0  0  0  0  0  0
    9.0953   -6.2150    0.0000 C   0  0  0  0  0  0  0  0  0  0  0  0
    9.0953   -7.0400    0.0000 C   0  0  0  0  0  0  0  0  0  0  0  0
    9.8097   -7.4525    0.0000 C   0  0  0  0  0  0  0  0  0  0  0  0
   10.5242   -7.0400    0.0000 C   0  0  0  0  0  0  0  0  0  0  0  0
   10.5242   -6.2150    0.0000 C   0  0  0  0  0  0  0  0  0  0  0  0
    9.8097   -8.2775    0.0000 O   0  0  0  0  0  0  0  0  0  0  0  0
    6.2501   -8.6683    0.0000 O   0  0  0  0  0  0  0  0  0  0  0  0
   10.3872   -4.3725    0.0000 C   0  0  0  0  0  0  0  0  0  0  0  0
   10.3872   -5.1975    0.0000 C   0  0  0  0  0  0  0  0  0  0  0  0
  1  2  1  0  0  0  0
  2  3  1  0  0  0  0
  3  4  1  0  0  0  0
  4  5  1  0  0  0  0
  5  6  1  0  0  0  0
  6  7  1  0  0  0  0
  7  8  1  0  0  0  0
  8  9  1  0  0  0  0
  9 10  1  0  0  0  0
  1 11  1  0  0  0  0
 11 12  1  0  0  0  0
 11 13  2  0  0  0  0
 12 14  2  0  0  0  0
 14 15  1  0  0  0  0
 15 16  2  0  0  0  0
 16 17  1  0  0  0  0
 17 18  2  0  0  0  0
 18 19  1  0  0  0  0
 19 20  2  0  0  0  0
 20 15  1  0  0  0  0
 18 21  1  0  0  0  0
  5 22  1  0  0  0  0
 22 23  1  0  0  0  0
 22 24  2  0  0  0  0
 23 25  2  0  0  0  0
 25 26  1  0  0  0  0
 26 27  2  0  0  0  0
 27 28  1  0  0  0  0
 28 29  2  0  0  0  0
 29 30  1  0  0  0  0
 30 31  2  0  0  0  0
 31 26  1  0  0  0  0
 10 32  1  0  0  0  0
 32 33  2  0  0  0  0
 34 35  2  0  0  0  0
 35 36  1  0  0  0  0
 36 37  2  0  0  0  0
 37 38  1  0  0  0  0
 38 39  2  0  0  0  0
 39 34  1  0  0  0  0
 37 40  1  0  0  0  0
 29 41  1  0  0  0  0
 32 42  1  0  0  0  0
 42 43  2  0  0  0  0
 43 34  1  0  0  0  0
M  END
>  <cdx:fragmentId>
3

$$$$
