91765.cdx
  Mrv1902 05222410202D          

 21 23  0  0  0  0            999 V2000
    3.6556   -4.9637    0.0000 C   0  0  0  0  0  0  0  0  0  0  0  0
    3.6556   -5.7888    0.0000 C   0  0  0  0  0  0  0  0  0  0  0  0
    4.3700   -6.2012    0.0000 C   0  0  0  0  0  0  0  0  0  0  0  0
    5.0845   -5.7888    0.0000 C   0  0  0  0  0  0  0  0  0  0  0  0
    5.0845   -4.9637    0.0000 C   0  0  0  0  0  0  0  0  0  0  0  0
    4.3700   -4.5512    0.0000 C   0  0  0  0  0  0  0  0  0  0  0  0
    5.8691   -6.0437    0.0000 N   0  0  0  0  0  0  0  0  0  0  0  0
    6.3540   -5.3762    0.0000 C   0  0  0  0  0  0  0  0  0  0  0  0
    5.8691   -4.7088    0.0000 N   0  0  0  0  0  0  0  0  0  0  0  0
    7.1790   -5.3762    0.0000 C   0  0  0  0  0  0  0  0  0  0  0  0
    7.5915   -6.0907    0.0000 N   0  0  0  0  0  0  0  0  0  0  0  0
    8.4165   -6.0907    0.0000 C   0  0  0  0  0  0  0  0  0  0  0  0
    8.8290   -6.8052    0.0000 C   0  0  0  0  0  0  0  0  0  0  0  0
    8.8290   -5.3762    0.0000 O   0  0  0  0  0  0  0  0  0  0  0  0
    8.4165   -7.5197    0.0000 C   0  0  0  0  0  0  0  0  0  0  0  0
    8.8290   -8.2341    0.0000 C   0  0  0  0  0  0  0  0  0  0  0  0
    9.6540   -8.2341    0.0000 C   0  0  0  0  0  0  0  0  0  0  0  0
   10.0665   -7.5197    0.0000 C   0  0  0  0  0  0  0  0  0  0  0  0
    9.6540   -6.8052    0.0000 C   0  0  0  0  0  0  0  0  0  0  0  0
   10.0665   -8.9486    0.0000 O   0  0  0  0  0  0  0  0  0  0  0  0
   10.8915   -8.9486    0.0000 C   0  0  0  0  0  0  0  0  0  0  0  0
  1  2  2  0  0  0  0
  2  3  1  0  0  0  0
  3  4  2  0  0  0  0
  4  5  1  0  0  0  0
  5  6  2  0  0  0  0
  6  1  1  0  0  0  0
  4  7  1  0  0  0  0
  7  8  2  0  0  0  0
  8  9  1  0  0  0  0
  9  5  1  0  0  0  0
  8 10  1  0  0  0  0
 10 11  1  0  0  0  0
 11 12  1  0  0  0  0
 12 13  1  0  0  0  0
 12 14  2  0  0  0  0
 13 15  2  0  0  0  0
 15 16  1  0  0  0  0
 16 17  2  0  0  0  0
 17 18  1  0  0  0  0
 18 19  2  0  0  0  0
 19 13  1  0  0  0  0
 17 20  1  0  0  0  0
 20 21  1  0  0  0  0
M  END
>  <cdx:fragmentId>
5

$$$$
