91777.cdx
  Mrv1902 05222410222D          

 67 73  0  0  0  0            999 V2000
    7.9807   -7.9224    0.0000 O   0  0  0  0  0  0  0  0  0  0  0  0
    8.6980   -9.1546    0.0000 O   0  0  0  0  0  0  0  0  0  0  0  0
    9.4094   -8.7405    0.0000 C   0  0  2  0  0  0  0  0  0  0  0  0
    9.4065   -7.9173    0.0000 C   0  0  1  0  0  0  0  0  0  0  0  0
    8.6922   -7.5083    0.0000 C   0  0  0  0  0  0  0  0  0  0  0  0
   10.1238   -9.1496    0.0000 C   0  0  1  0  0  0  0  0  0  0  0  0
   10.8352   -8.7355    0.0000 C   0  0  2  0  0  0  0  0  0  0  0  0
   10.8323   -7.9123    0.0000 C   0  0  1  0  0  0  0  0  0  0  0  0
   10.1179   -7.5032    0.0000 O   0  0  0  0  0  0  0  0  0  0  0  0
   11.5437   -7.4982    0.0000 O   0  0  0  0  0  0  0  0  0  0  0  0
   11.5408   -6.6750    0.0000 C   0  0  0  0  0  0  0  0  0  0  0  0
   10.8265   -6.2659    0.0000 C   0  0  0  0  0  0  0  0  0  0  0  0
   12.2522   -6.2609    0.0000 C   0  0  0  0  0  0  0  0  0  0  0  0
   12.2493   -5.4377    0.0000 C   0  0  0  0  0  0  0  0  0  0  0  0
   11.5350   -5.0286    0.0000 C   0  0  0  0  0  0  0  0  0  0  0  0
   10.8236   -5.4428    0.0000 C   0  0  0  0  0  0  0  0  0  0  0  0
   12.9666   -6.6700    0.0000 C   0  0  0  0  0  0  0  0  0  0  0  0
   13.6780   -6.2558    0.0000 C   0  0  0  0  0  0  0  0  0  0  0  0
   13.6751   -5.4327    0.0000 C   0  0  0  0  0  0  0  0  0  0  0  0
   12.9608   -5.0236    0.0000 O   0  3  0  0  0  0  0  0  0  0  0  0
   15.1009   -5.4276    0.0000 C   0  0  0  0  0  0  0  0  0  0  0  0
   14.3865   -5.0185    0.0000 C   0  0  0  0  0  0  0  0  0  0  0  0
   15.8123   -5.0135    0.0000 C   0  0  0  0  0  0  0  0  0  0  0  0
   15.8094   -4.1903    0.0000 C   0  0  0  0  0  0  0  0  0  0  0  0
   15.0951   -3.7813    0.0000 C   0  0  0  0  0  0  0  0  0  0  0  0
   14.3836   -4.1954    0.0000 C   0  0  0  0  0  0  0  0  0  0  0  0
   16.5267   -5.4226    0.0000 O   0  0  0  0  0  0  0  0  0  0  0  0
   17.2381   -5.0084    0.0000 C   0  0  0  0  0  0  0  0  0  0  0  0
   16.5208   -3.7762    0.0000 O   0  0  0  0  0  0  0  0  0  0  0  0
   15.0922   -2.9581    0.0000 O   0  0  0  0  0  0  0  0  0  0  0  0
   14.3778   -2.5490    0.0000 C   0  0  0  0  0  0  0  0  0  0  0  0
   16.8404   -8.1274    0.0000 O   0  0  0  0  0  0  0  0  0  0  0  0
   15.5526  -11.6730    0.0000 O   0  0  0  0  0  0  0  0  0  0  0  0
   12.2602  -11.6239    0.0000 C   0  0  0  0  0  0  0  0  0  0  0  0
   16.0386   -6.6895    0.0000 O   0  0  0  0  0  0  0  0  0  0  0  0
   11.8380  -12.3306    0.0000 O   0  0  0  0  0  0  0  0  0  0  0  0
   12.2389  -13.0495    0.0000 C   0  0  0  0  0  0  0  0  0  0  0  0
   13.0620  -13.0618    0.0000 O   0  0  0  0  0  0  0  0  0  0  0  0
   11.8168  -13.7562    0.0000 C   0  0  0  0  0  0  0  0  0  0  0  0
    9.6108  -10.6962    0.0000 O   0  0  0  0  0  0  0  0  0  0  0  0
   11.1237  -12.2628    0.0000 C   0  0  0  0  0  0  0  0  0  0  0  0
   10.7772  -11.5161    0.0000 C   0  0  0  0  0  0  0  0  0  0  0  0
    9.9573  -11.4429    0.0000 C   0  0  0  0  0  0  0  0  0  0  0  0
    9.4839  -12.1163    0.0000 C   0  0  0  0  0  0  0  0  0  0  0  0
    9.8304  -12.8630    0.0000 C   0  0  0  0  0  0  0  0  0  0  0  0
   10.6503  -12.9363    0.0000 C   0  0  0  0  0  0  0  0  0  0  0  0
   10.9968  -13.6830    0.0000 C   0  0  0  0  0  0  0  0  0  0  0  0
   14.7082  -13.0864    0.0000 O   0  0  0  0  0  0  0  0  0  0  0  0
   13.0833  -11.6362    0.0000 C   0  0  1  0  0  0  0  0  0  0  0  0
   10.1092   -5.0337    0.0000 O   0  0  0  0  0  0  0  0  0  0  0  0
   13.4842  -12.3552    0.0000 C   0  0  1  0  0  0  0  0  0  0  0  0
   14.3073  -12.3674    0.0000 C   0  0  2  0  0  0  0  0  0  0  0  0
   14.7295  -11.6608    0.0000 C   0  0  2  0  0  0  0  0  0  0  0  0
   13.5055  -10.9295    0.0000 O   0  0  0  0  0  0  0  0  0  0  0  0
   14.3286  -10.9418    0.0000 C   0  0  1  0  0  0  0  0  0  0  0  0
   14.3498   -9.5162    0.0000 C   0  0  0  0  0  0  0  0  0  0  0  0
   14.7507  -10.2351    0.0000 O   0  0  0  0  0  0  0  0  0  0  0  0
   15.9960   -9.5407    0.0000 O   0  0  0  0  0  0  0  0  0  0  0  0
   14.7720   -8.8095    0.0000 C   0  0  2  0  0  0  0  0  0  0  0  0
   10.1267   -9.9728    0.0000 O   0  0  0  0  0  0  0  0  0  0  0  0
   15.5951   -8.8218    0.0000 C   0  0  2  0  0  0  0  0  0  0  0  0
   16.0173   -8.1151    0.0000 C   0  0  1  0  0  0  0  0  0  0  0  0
   15.6164   -7.3961    0.0000 C   0  0  2  0  0  0  0  0  0  0  0  0
   14.3711   -8.0905    0.0000 O   0  0  0  0  0  0  0  0  0  0  0  0
   11.5496   -9.1445    0.0000 O   0  0  0  0  0  0  0  0  0  0  0  0
   14.7933   -7.3839    0.0000 C   0  0  1  0  0  0  0  0  0  0  0  0
   14.3924   -6.6649    0.0000 O   0  0  0  0  0  0  0  0  0  0  0  0
  3  2  1  6  0  0  0
  3  4  1  0  0  0  0
  4  5  1  1  0  0  0
  5  1  1  0  0  0  0
  3  6  1  0  0  0  0
  6  7  1  0  0  0  0
  7  8  1  0  0  0  0
  8  9  1  0  0  0  0
  9  4  1  0  0  0  0
  8 10  1  1  0  0  0
 10 11  1  0  0  0  0
 11 12  2  0  0  0  0
 11 13  1  0  0  0  0
 13 14  2  0  0  0  0
 14 15  1  0  0  0  0
 15 16  2  0  0  0  0
 16 12  1  0  0  0  0
 13 17  1  0  0  0  0
 17 18  2  0  0  0  0
 18 19  1  0  0  0  0
 19 20  2  0  0  0  0
 20 14  1  0  0  0  0
 62 32  1  1  0  0  0
 18 67  1  0  0  0  0
 21 22  2  0  0  0  0
 22 19  1  0  0  0  0
 21 23  1  0  0  0  0
 23 24  2  0  0  0  0
 24 25  1  0  0  0  0
 25 26  2  0  0  0  0
 26 22  1  0  0  0  0
 23 27  1  0  0  0  0
 27 28  1  0  0  0  0
 29 24  1  0  0  0  0
 25 30  1  0  0  0  0
 30 31  1  0  0  0  0
 53 33  1  6  0  0  0
 49 34  1  6  0  0  0
 63 35  1  6  0  0  0
 36 37  2  0  0  0  0
 37 38  1  0  0  0  0
 37 39  1  0  0  0  0
 43 40  1  0  0  0  0
 39 47  2  0  0  0  0
 41 46  1  0  0  0  0
 42 41  2  0  0  0  0
 43 42  1  0  0  0  0
 44 43  2  0  0  0  0
 45 44  1  0  0  0  0
 46 45  2  0  0  0  0
 51 38  1  1  0  0  0
 52 48  1  6  0  0  0
 47 46  1  0  0  0  0
 49 54  1  0  0  0  0
 51 49  1  0  0  0  0
 52 51  1  0  0  0  0
 53 52  1  0  0  0  0
 55 53  1  0  0  0  0
 16 50  1  0  0  0  0
 55 54  1  0  0  0  0
 55 57  1  1  0  0  0
 59 56  1  1  0  0  0
 57 56  1  0  0  0  0
 61 58  1  6  0  0  0
 59 64  1  0  0  0  0
 61 59  1  0  0  0  0
 62 61  1  0  0  0  0
 63 62  1  0  0  0  0
 66 63  1  0  0  0  0
  6 60  1  1  0  0  0
 66 64  1  0  0  0  0
 66 67  1  1  0  0  0
  7 65  1  6  0  0  0
M  CHG  1  20   1
M  END
>  <cdx:fragmentId>
6

$$$$
