91779.cdx
  Mrv1902 05222410232D          

 52 57  0  0  0  0            999 V2000
    2.2470   -9.7003    0.0000 C   0  0  0  0  0  0  0  0  0  0  0  0
    1.9589  -10.2008    0.0000 O   0  0  0  0  0  0  0  0  0  0  0  0
    2.8257  -10.6999    0.0000 C   0  0  0  0  0  0  0  0  0  0  0  0
    3.1139  -10.1994    0.0000 O   0  0  0  0  0  0  0  0  0  0  0  0
    2.8245   -9.6996    0.0000 C   0  0  0  0  0  0  0  0  0  0  0  0
    1.9576   -9.2005    0.0000 C   0  0  0  0  0  0  0  0  0  0  0  0
    1.3814  -10.2015    0.0000 C   0  0  0  0  0  0  0  0  0  0  0  0
    3.1126   -9.1991    0.0000 C   0  0  0  0  0  0  0  0  0  0  0  0
    2.8233   -8.6993    0.0000 C   0  0  0  0  0  0  0  0  0  0  0  0
    2.2458   -8.7001    0.0000 C   0  0  0  0  0  0  0  0  0  0  0  0
    3.9783   -8.6979    0.0000 C   0  0  0  0  0  0  0  0  0  0  0  0
    3.6889   -8.1981    0.0000 C   0  0  2  0  0  0  0  0  0  0  0  0
    3.1114   -8.1989    0.0000 C   0  0  2  0  0  0  0  0  0  0  0  0
    4.8439   -8.1967    0.0000 C   0  0  0  0  0  0  0  0  0  0  0  0
    4.5545   -7.6969    0.0000 C   0  0  0  0  0  0  0  0  0  0  0  0
    3.9770   -7.6977    0.0000 O   0  0  0  0  0  0  0  0  0  0  0  0
    5.4214   -8.1960    0.0000 C   0  0  0  0  0  0  0  0  0  0  0  0
    5.7095   -7.6955    0.0000 C   0  0  0  0  0  0  0  0  0  0  0  0
    5.4202   -7.1957    0.0000 C   0  0  0  0  0  0  0  0  0  0  0  0
    4.8427   -7.1965    0.0000 C   0  0  0  0  0  0  0  0  0  0  0  0
    6.2870   -7.6948    0.0000 C   0  0  2  0  0  0  0  0  0  0  0  0
    6.6271   -8.1616    0.0000 C   0  0  1  0  0  0  0  0  0  0  0  0
    7.1761   -7.9825    0.0000 C   0  0  2  0  0  0  0  0  0  0  0  0
    7.1754   -7.4050    0.0000 C   0  0  2  0  0  0  0  0  0  0  0  0
    6.6259   -7.2272    0.0000 O   0  0  0  0  0  0  0  0  0  0  0  0
    7.6422   -7.0649    0.0000 C   0  0  0  0  0  0  0  0  0  0  0  0
    8.1395   -7.3585    0.0000 C   0  0  0  0  0  0  0  0  0  0  0  0
    8.6424   -7.0745    0.0000 C   0  0  0  0  0  0  0  0  0  0  0  0
    8.6479   -6.4971    0.0000 C   0  0  0  0  0  0  0  0  0  0  0  0
    8.1506   -6.2035    0.0000 C   0  0  0  0  0  0  0  0  0  0  0  0
    7.6477   -6.4875    0.0000 C   0  0  0  0  0  0  0  0  0  0  0  0
    9.1397   -7.3681    0.0000 O   0  0  0  0  0  0  0  0  0  0  0  0
    9.6426   -7.0841    0.0000 C   0  0  0  0  0  0  0  0  0  0  0  0
    9.6419   -6.5067    0.0000 C   0  0  1  0  0  0  0  0  0  0  0  0
    9.1383   -6.2131    0.0000 O   0  0  0  0  0  0  0  0  0  0  0  0
   10.6428   -7.0829    0.0000 C   0  0  0  0  0  0  0  0  0  0  0  0
   10.6421   -6.5054    0.0000 C   0  0  0  0  0  0  0  0  0  0  0  0
   10.1416   -6.2173    0.0000 C   0  0  1  0  0  0  0  0  0  0  0  0
   11.1432   -7.3710    0.0000 C   0  0  0  0  0  0  0  0  0  0  0  0
   11.6430   -7.0817    0.0000 C   0  0  0  0  0  0  0  0  0  0  0  0
   11.6423   -6.5042    0.0000 C   0  0  0  0  0  0  0  0  0  0  0  0
   11.1418   -6.2161    0.0000 C   0  0  0  0  0  0  0  0  0  0  0  0
   12.1924   -7.2594    0.0000 O   0  0  0  0  0  0  0  0  0  0  0  0
   12.5313   -6.7918    0.0000 C   0  0  0  0  0  0  0  0  0  0  0  0
   12.1913   -6.3251    0.0000 O   0  0  0  0  0  0  0  0  0  0  0  0
    4.5533   -6.6967    0.0000 O   0  0  0  0  0  0  0  0  0  0  0  0
    3.9758   -6.6974    0.0000 C   0  0  0  0  0  0  0  0  0  0  0  0
    9.1741   -7.9445    0.0000 C   0  0  0  0  0  0  0  0  0  0  0  0
    7.6437   -8.3213    0.0000 C   0  0  0  0  0  0  0  0  0  0  0  0
   10.1409   -5.6398    0.0000 O   0  0  0  0  0  0  0  0  0  0  0  0
    2.8220   -7.6991    0.0000 O   0  0  0  0  0  0  0  0  0  0  0  0
    6.4493   -8.7111    0.0000 C   0  0  0  0  0  0  0  0  0  0  0  0
  1  2  1  0  0  0  0
  3  4  1  0  0  0  0
  4  5  1  0  0  0  0
  5  1  2  0  0  0  0
  1  6  1  0  0  0  0
  7  2  1  0  0  0  0
  5  8  1  0  0  0  0
  8  9  2  0  0  0  0
  9 10  1  0  0  0  0
 10  6  2  0  0  0  0
 11 12  1  0  0  0  0
 12 13  1  0  0  0  0
 13  9  1  0  0  0  0
 14 15  1  0  0  0  0
 15 16  1  0  0  0  0
 12 16  1  6  0  0  0
 14 17  2  0  0  0  0
 17 18  1  0  0  0  0
 18 19  2  0  0  0  0
 19 20  1  0  0  0  0
 20 15  2  0  0  0  0
 21 18  1  1  0  0  0
 21 22  1  0  0  0  0
 22 23  1  0  0  0  0
 23 24  1  0  0  0  0
 24 25  1  0  0  0  0
 25 21  1  0  0  0  0
 24 26  1  6  0  0  0
 26 27  2  0  0  0  0
 27 28  1  0  0  0  0
 28 29  2  0  0  0  0
 29 30  1  0  0  0  0
 30 31  2  0  0  0  0
 31 26  1  0  0  0  0
 28 32  1  0  0  0  0
 33 34  1  0  0  0  0
 34 35  1  1  0  0  0
 35 29  1  0  0  0  0
 36 37  1  0  0  0  0
 37 38  1  0  0  0  0
 38 34  1  0  0  0  0
 36 39  2  0  0  0  0
 39 40  1  0  0  0  0
 40 41  2  0  0  0  0
 41 42  1  0  0  0  0
 42 37  2  0  0  0  0
 40 43  1  0  0  0  0
 43 44  1  0  0  0  0
 44 45  1  0  0  0  0
 45 41  1  0  0  0  0
 20 46  1  0  0  0  0
 46 47  1  0  0  0  0
 32 48  1  0  0  0  0
 23 49  1  6  0  0  0
 38 50  1  6  0  0  0
 13 51  1  1  0  0  0
 22 52  1  1  0  0  0
M  END
>  <cdx:fragmentId>
5

$$$$
