91775.cdx
  Mrv1902 05222410232D          

 28 31  0  0  0  0            999 V2000
    3.6831   -8.9375    0.0000 C   0  0  0  0  0  0  0  0  0  0  0  0
    4.3975  -10.1750    0.0000 O   0  0  0  0  0  0  0  0  0  0  0  0
    5.1120   -9.7625    0.0000 C   0  0  0  0  0  0  0  0  0  0  0  0
    5.1120   -8.9375    0.0000 C   0  0  0  0  0  0  0  0  0  0  0  0
    4.3975   -8.5250    0.0000 O   0  0  0  0  0  0  0  0  0  0  0  0
    5.8265  -10.1750    0.0000 C   0  0  0  0  0  0  0  0  0  0  0  0
    6.5409   -9.7625    0.0000 C   0  0  0  0  0  0  0  0  0  0  0  0
    6.5409   -8.9375    0.0000 C   0  0  0  0  0  0  0  0  0  0  0  0
    5.8265   -8.5250    0.0000 C   0  0  0  0  0  0  0  0  0  0  0  0
    7.2554  -10.1750    0.0000 C   0  0  0  0  0  0  0  0  0  0  0  0
    7.9699   -9.7625    0.0000 C   0  0  0  0  0  0  0  0  0  0  0  0
    7.9699   -8.9375    0.0000 C   0  0  0  0  0  0  0  0  0  0  0  0
    7.2554   -8.5250    0.0000 C   0  0  0  0  0  0  0  0  0  0  0  0
    7.2554   -7.7000    0.0000 C   0  0  0  0  0  0  0  0  0  0  0  0
    6.5409   -7.2875    0.0000 C   0  0  0  0  0  0  0  0  0  0  0  0
    7.9699   -7.2875    0.0000 C   0  0  0  0  0  0  0  0  0  0  0  0
    7.9699   -6.4625    0.0000 C   0  0  0  0  0  0  0  0  0  0  0  0
    7.2554   -6.0500    0.0000 C   0  0  0  0  0  0  0  0  0  0  0  0
    6.5409   -6.4625    0.0000 C   0  0  0  0  0  0  0  0  0  0  0  0
    8.6844   -6.0500    0.0000 O   0  0  0  0  0  0  0  0  0  0  0  0
    8.6844   -5.2250    0.0000 C   0  0  0  0  0  0  0  0  0  0  0  0
    7.2554   -5.2250    0.0000 O   0  0  0  0  0  0  0  0  0  0  0  0
    8.7545  -10.0174    0.0000 C   0  0  0  0  0  0  0  0  0  0  0  0
    9.2394   -9.3500    0.0000 O   0  0  0  0  0  0  0  0  0  0  0  0
    8.7545   -8.6826    0.0000 C   0  0  0  0  0  0  0  0  0  0  0  0
    6.5409   -4.8125    0.0000 C   0  0  0  0  0  0  0  0  0  0  0  0
    9.0094  -10.8021    0.0000 O   0  0  0  0  0  0  0  0  0  0  0  0
    4.3975  -11.0000    0.0000 C   0  0  0  0  0  0  0  0  0  0  0  0
  2  3  1  0  0  0  0
  3  4  2  0  0  0  0
  4  5  1  0  0  0  0
  5  1  1  0  0  0  0
  3  6  1  0  0  0  0
  6  7  2  0  0  0  0
  7  8  1  0  0  0  0
  8  9  2  0  0  0  0
  9  4  1  0  0  0  0
  7 10  1  0  0  0  0
 10 11  1  0  0  0  0
 11 12  1  0  0  0  0
 12 13  1  0  0  0  0
 13  8  1  0  0  0  0
 13 14  1  0  0  0  0
 14 15  1  0  0  0  0
 14 16  2  0  0  0  0
 16 17  1  0  0  0  0
 17 18  2  0  0  0  0
 18 19  1  0  0  0  0
 19 15  2  0  0  0  0
 17 20  1  0  0  0  0
 20 21  1  0  0  0  0
 22 18  1  0  0  0  0
 11 23  1  0  0  0  0
 23 24  1  0  0  0  0
 24 25  1  0  0  0  0
 25 12  1  0  0  0  0
 22 26  1  0  0  0  0
 23 27  2  0  0  0  0
  2 28  1  0  0  0  0
M  END
>  <cdx:fragmentId>
5

$$$$
