91770.cdx
  Mrv1902 05222410212D          

 24 26  0  0  0  0            999 V2000
    6.6256   -8.4563    0.0000 O   0  0  0  0  0  0  0  0  0  0  0  0
    8.0545   -9.2813    0.0000 C   0  0  0  0  0  0  0  0  0  0  0  0
    8.0545   -8.4563    0.0000 C   0  0  0  0  0  0  0  0  0  0  0  0
    7.3400   -8.0437    0.0000 C   0  0  0  0  0  0  0  0  0  0  0  0
    8.7690   -9.6937    0.0000 C   0  0  0  0  0  0  0  0  0  0  0  0
    9.4834   -9.2813    0.0000 C   0  0  0  0  0  0  0  0  0  0  0  0
    9.4834   -8.4563    0.0000 C   0  0  0  0  0  0  0  0  0  0  0  0
    8.7690   -8.0437    0.0000 C   0  0  0  0  0  0  0  0  0  0  0  0
   10.1979   -9.6937    0.0000 O   0  0  0  0  0  0  0  0  0  0  0  0
   10.9124   -9.2813    0.0000 C   0  0  0  0  0  0  0  0  0  0  0  0
   10.9124   -8.4563    0.0000 C   0  0  0  0  0  0  0  0  0  0  0  0
   10.1979   -8.0437    0.0000 O   0  0  0  0  0  0  0  0  0  0  0  0
    7.3400   -7.2188    0.0000 O   0  0  0  0  0  0  0  0  0  0  0  0
    4.5187   -7.5694    0.0000 C   0  0  0  0  0  0  0  0  0  0  0  0
    3.7510   -7.8710    0.0000 C   0  0  0  0  0  0  0  0  0  0  0  0
    4.1035   -7.1251    0.0000 C   0  0  0  0  0  0  0  0  0  0  0  0
    4.8596   -6.7959    0.0000 C   0  0  0  0  0  0  0  0  0  0  0  0
    4.2325   -6.3250    0.0000 N   0  0  0  0  0  0  0  0  0  0  0  0
    5.5484   -6.8059    0.0000 C   0  0  0  0  0  0  0  0  0  0  0  0
    5.3581   -7.5749    0.0000 C   0  0  0  0  0  0  0  0  0  0  0  0
    5.9102   -8.0449    0.0000 C   0  0  0  0  0  0  0  0  0  0  0  0
    4.2325   -5.5000    0.0000 C   0  0  0  0  0  0  0  0  0  0  0  0
    3.5181   -5.0875    0.0000 C   0  0  0  0  0  0  0  0  0  0  0  0
    4.9470   -5.0875    0.0000 O   0  0  0  0  0  0  0  0  0  0  0  0
  2  3  2  0  0  0  0
  3  4  1  0  0  0  0
  4  1  1  0  0  0  0
  2  5  1  0  0  0  0
  5  6  2  0  0  0  0
  6  7  1  0  0  0  0
  7  8  2  0  0  0  0
  8  3  1  0  0  0  0
  6  9  1  0  0  0  0
  9 10  1  0  0  0  0
 11 12  1  0  0  0  0
 12  7  1  0  0  0  0
  4 13  2  0  0  0  0
 14 15  1  0  0  0  0
 15 16  1  0  0  0  0
 16 17  1  0  0  0  0
 14 18  1  0  0  0  0
 17 18  1  0  0  0  0
 17 19  1  0  0  0  0
 14 20  1  0  0  0  0
 19 21  1  0  0  0  0
 20 21  1  0  0  0  0
 18 22  1  0  0  0  0
 22 23  1  0  0  0  0
 22 24  2  0  0  0  0
  1 21  1  0  0  0  0
M  END
>  <cdx:fragmentId>
5

$$$$
