91771.cdx
  Mrv1902 05222410202D          

  9  9  0  0  0  0            999 V2000
    5.9243   -5.7888    0.0000 C   0  0  0  0  0  0  0  0  0  0  0  0
    5.9243   -6.6137    0.0000 C   0  0  0  0  0  0  0  0  0  0  0  0
    6.6388   -7.0263    0.0000 N   0  0  0  0  0  0  0  0  0  0  0  0
    7.3532   -6.6137    0.0000 C   0  0  0  0  0  0  0  0  0  0  0  0
    7.3532   -5.7888    0.0000 C   0  0  0  0  0  0  0  0  0  0  0  0
    6.6388   -5.3763    0.0000 C   0  0  0  0  0  0  0  0  0  0  0  0
    6.6388   -7.8513    0.0000 C   0  0  0  0  0  0  0  0  0  0  0  0
    7.3532   -8.2637    0.0000 O   0  0  0  0  0  0  0  0  0  0  0  0
    5.9243   -8.2637    0.0000 C   0  0  0  0  0  0  0  0  0  0  0  0
  1  2  2  0  0  0  0
  2  3  1  0  0  0  0
  3  4  1  0  0  0  0
  4  5  2  0  0  0  0
  5  6  1  0  0  0  0
  6  1  1  0  0  0  0
  3  7  1  0  0  0  0
  7  8  2  0  0  0  0
  7  9  1  0  0  0  0
M  END
>  <cdx:fragmentId>
5

$$$$
