91778.cdx
  Mrv1902 05222410232D          

 53 57  0  0  0  0            999 V2000
    3.1188   -2.9293    0.0000 C   0  0  0  0  0  0  0  0  0  0  0  0
    2.7063   -3.6437    0.0000 C   0  0  0  0  0  0  0  0  0  0  0  0
    3.1188   -4.3582    0.0000 C   0  0  0  0  0  0  0  0  0  0  0  0
    3.9438   -4.3582    0.0000 C   0  0  0  0  0  0  0  0  0  0  0  0
    4.3563   -3.6437    0.0000 C   0  0  0  0  0  0  0  0  0  0  0  0
    3.9438   -2.9293    0.0000 C   0  0  0  0  0  0  0  0  0  0  0  0
    2.7063   -2.2148    0.0000 O   0  0  0  0  0  0  0  0  0  0  0  0
    1.8813   -3.6437    0.0000 O   0  0  0  0  0  0  0  0  0  0  0  0
    5.1813   -5.0727    0.0000 C   0  0  0  0  0  0  0  0  0  0  0  0
    5.5938   -4.3582    0.0000 C   0  0  2  0  0  0  0  0  0  0  0  0
    5.1813   -3.6437    0.0000 C   0  0  2  0  0  0  0  0  0  0  0  0
    6.4188   -5.7872    0.0000 C   0  0  0  0  0  0  0  0  0  0  0  0
    6.8313   -5.0727    0.0000 C   0  0  0  0  0  0  0  0  0  0  0  0
    6.4188   -4.3582    0.0000 O   0  0  0  0  0  0  0  0  0  0  0  0
    6.8313   -6.5016    0.0000 C   0  0  0  0  0  0  0  0  0  0  0  0
    7.6563   -6.5016    0.0000 C   0  0  0  0  0  0  0  0  0  0  0  0
    8.0688   -5.7872    0.0000 C   0  0  0  0  0  0  0  0  0  0  0  0
    7.6563   -5.0727    0.0000 C   0  0  0  0  0  0  0  0  0  0  0  0
    8.0688   -7.2161    0.0000 C   0  0  2  0  0  0  0  0  0  0  0  0
    8.8938   -7.2161    0.0000 C   0  0  1  0  0  0  0  0  0  0  0  0
    7.8138   -8.0007    0.0000 O   0  0  0  0  0  0  0  0  0  0  0  0
    8.4813   -8.4856    0.0000 C   0  0  1  0  0  0  0  0  0  0  0  0
    9.1487   -8.0007    0.0000 C   0  0  2  0  0  0  0  0  0  0  0  0
    8.4813   -9.3106    0.0000 C   0  0  0  0  0  0  0  0  0  0  0  0
    7.7668   -9.7231    0.0000 C   0  0  0  0  0  0  0  0  0  0  0  0
    7.7668  -10.5481    0.0000 C   0  0  0  0  0  0  0  0  0  0  0  0
    8.4813  -10.9606    0.0000 C   0  0  0  0  0  0  0  0  0  0  0  0
    9.1957  -10.5481    0.0000 C   0  0  0  0  0  0  0  0  0  0  0  0
    9.1957   -9.7231    0.0000 C   0  0  0  0  0  0  0  0  0  0  0  0
    6.3379  -10.5481    0.0000 C   0  0  0  0  0  0  0  0  0  0  0  0
    7.0523  -10.9606    0.0000 O   0  0  0  0  0  0  0  0  0  0  0  0
    8.4813  -11.7856    0.0000 O   0  0  0  0  0  0  0  0  0  0  0  0
    9.1957  -12.1981    0.0000 C   0  0  2  0  0  0  0  0  0  0  0  0
    9.9102  -11.7856    0.0000 C   0  0  0  0  0  0  0  0  0  0  0  0
    9.1957  -13.0231    0.0000 C   0  0  1  0  0  0  0  0  0  0  0  0
    9.9102  -13.4356    0.0000 C   0  0  0  0  0  0  0  0  0  0  0  0
   10.6247  -13.0231    0.0000 C   0  0  0  0  0  0  0  0  0  0  0  0
    9.9102  -14.2606    0.0000 C   0  0  0  0  0  0  0  0  0  0  0  0
   10.6247  -14.6731    0.0000 C   0  0  0  0  0  0  0  0  0  0  0  0
   11.3392  -14.2606    0.0000 C   0  0  0  0  0  0  0  0  0  0  0  0
   11.3392  -13.4356    0.0000 C   0  0  0  0  0  0  0  0  0  0  0  0
   12.0536  -14.6731    0.0000 O   0  0  0  0  0  0  0  0  0  0  0  0
   12.7681  -14.2606    0.0000 C   0  0  0  0  0  0  0  0  0  0  0  0
    3.1188   -1.5003    0.0000 C   0  0  0  0  0  0  0  0  0  0  0  0
    1.4688   -4.3582    0.0000 C   0  0  0  0  0  0  0  0  0  0  0  0
    8.0688   -4.3582    0.0000 O   0  0  0  0  0  0  0  0  0  0  0  0
    8.8938   -4.3582    0.0000 C   0  0  0  0  0  0  0  0  0  0  0  0
   10.6247  -15.4981    0.0000 O   0  0  0  0  0  0  0  0  0  0  0  0
    9.9102  -15.9106    0.0000 C   0  0  0  0  0  0  0  0  0  0  0  0
    5.5938   -2.9293    0.0000 O   0  0  0  0  0  0  0  0  0  0  0  0
    9.9333   -8.2557    0.0000 C   0  0  0  0  0  0  0  0  0  0  0  0
    8.4813  -13.4356    0.0000 O   0  0  0  0  0  0  0  0  0  0  0  0
    9.3787   -6.5487    0.0000 C   0  0  0  0  0  0  0  0  0  0  0  0
  1  2  2  0  0  0  0
  2  3  1  0  0  0  0
  3  4  2  0  0  0  0
  4  5  1  0  0  0  0
  5  6  2  0  0  0  0
  6  1  1  0  0  0  0
  1  7  1  0  0  0  0
  8  2  1  0  0  0  0
  9 10  1  0  0  0  0
 10 11  1  0  0  0  0
 11  5  1  0  0  0  0
 12 13  1  0  0  0  0
 13 14  1  0  0  0  0
 10 14  1  6  0  0  0
 12 15  2  0  0  0  0
 15 16  1  0  0  0  0
 16 17  2  0  0  0  0
 17 18  1  0  0  0  0
 18 13  2  0  0  0  0
 19 16  1  6  0  0  0
 19 20  1  0  0  0  0
 19 21  1  0  0  0  0
 21 22  1  0  0  0  0
 22 23  1  0  0  0  0
 23 20  1  0  0  0  0
 22 24  1  1  0  0  0
 24 25  2  0  0  0  0
 25 26  1  0  0  0  0
 26 27  2  0  0  0  0
 27 28  1  0  0  0  0
 28 29  2  0  0  0  0
 29 24  1  0  0  0  0
 30 31  1  0  0  0  0
 31 26  1  0  0  0  0
 27 32  1  0  0  0  0
 33 32  1  6  0  0  0
 33 34  1  0  0  0  0
 33 35  1  0  0  0  0
 35 36  1  0  0  0  0
 36 37  1  0  0  0  0
 36 38  2  0  0  0  0
 38 39  1  0  0  0  0
 39 40  2  0  0  0  0
 40 41  1  0  0  0  0
 41 37  2  0  0  0  0
 40 42  1  0  0  0  0
 42 43  1  0  0  0  0
  7 44  1  0  0  0  0
  8 45  1  0  0  0  0
 18 46  1  0  0  0  0
 46 47  1  0  0  0  0
 39 48  1  0  0  0  0
 48 49  1  0  0  0  0
 11 50  1  1  0  0  0
 23 51  1  1  0  0  0
 35 52  1  1  0  0  0
 20 53  1  6  0  0  0
M  END
>  <cdx:fragmentId>
5

$$$$
