91786.cdx
  Mrv1902 05222410232D          

 26 27  0  0  0  0            999 V2000
    6.4464   -3.5759    0.0000 C   0  0  0  0  0  0  0  0  0  0  0  0
    6.4464   -4.4009    0.0000 C   0  0  0  0  0  0  0  0  0  0  0  0
    7.1609   -4.8134    0.0000 C   0  0  0  0  0  0  0  0  0  0  0  0
    7.8754   -4.4009    0.0000 C   0  0  0  0  0  0  0  0  0  0  0  0
    7.8754   -3.5759    0.0000 C   0  0  0  0  0  0  0  0  0  0  0  0
    7.1609   -3.1634    0.0000 C   0  0  0  0  0  0  0  0  0  0  0  0
    5.7320   -3.1634    0.0000 O   0  0  0  0  0  0  0  0  0  0  0  0
    5.7320   -4.8134    0.0000 O   0  0  0  0  0  0  0  0  0  0  0  0
    8.5899   -3.1634    0.0000 C   0  0  0  0  0  0  0  0  0  0  0  0
    9.3043   -3.5759    0.0000 C   0  0  0  0  0  0  0  0  0  0  0  0
   10.0188   -3.1634    0.0000 C   0  0  0  0  0  0  0  0  0  0  0  0
   10.7333   -3.5759    0.0000 O   0  0  0  0  0  0  0  0  0  0  0  0
   10.0188   -2.3384    0.0000 O   0  0  0  0  0  0  0  0  0  0  0  0
    5.0259   -6.8594    0.0000 C   0  0  2  0  0  0  0  0  0  0  0  0
    5.7394   -7.2735    0.0000 C   0  0  2  0  0  0  0  0  0  0  0  0
    6.4548   -6.8627    0.0000 C   0  0  1  0  0  0  0  0  0  0  0  0
    6.4568   -6.0377    0.0000 C   0  0  2  0  0  0  0  0  0  0  0  0
    5.7433   -5.6236    0.0000 C   0  0  1  0  0  0  0  0  0  0  0  0
    5.0278   -6.0344    0.0000 O   0  0  0  0  0  0  0  0  0  0  0  0
    4.3104   -7.2702    0.0000 C   0  0  0  0  0  0  0  0  0  0  0  0
    7.1683   -7.2769    0.0000 O   0  0  0  0  0  0  0  0  0  0  0  0
    5.7374   -8.0985    0.0000 O   0  0  0  0  0  0  0  0  0  0  0  0
    7.1722   -5.6269    0.0000 O   0  0  0  0  0  0  0  0  0  0  0  0
    4.3085   -8.0952    0.0000 O   0  0  0  0  0  0  0  0  0  0  0  0
    3.5969   -6.8560    0.0000 O   0  0  0  0  0  0  0  0  0  0  0  0
   11.4477   -3.1634    0.0000 C   0  0  0  0  0  0  0  0  0  0  0  0
  1  2  2  0  0  0  0
  2  3  1  0  0  0  0
  3  4  2  0  0  0  0
  4  5  1  0  0  0  0
  5  6  2  0  0  0  0
  6  1  1  0  0  0  0
  1  7  1  0  0  0  0
  2  8  1  0  0  0  0
  5  9  1  0  0  0  0
  9 10  2  0  0  0  0
 10 11  1  0  0  0  0
 11 12  1  0  0  0  0
 11 13  2  0  0  0  0
 14 15  1  0  0  0  0
 15 16  1  0  0  0  0
 16 17  1  0  0  0  0
 17 18  1  0  0  0  0
 18 19  1  0  0  0  0
 19 14  1  0  0  0  0
 14 20  1  1  0  0  0
 16 21  1  1  0  0  0
 15 22  1  6  0  0  0
 17 23  1  6  0  0  0
 20 24  1  0  0  0  0
 20 25  2  0  0  0  0
 18  8  1  1  0  0  0
 12 26  1  0  0  0  0
M  END
>  <cdx:fragmentId>
171

$$$$
