91782.cdx
  Mrv1902 05222410252D          

 37 41  0  0  0  0            999 V2000
    4.2056   -7.5625    0.0000 C   0  0  1  0  0  0  0  0  0  0  0  0
    4.2056   -8.3875    0.0000 C   0  0  1  0  0  0  0  0  0  0  0  0
    4.9200   -8.8000    0.0000 C   0  0  0  0  0  0  0  0  0  0  0  0
    5.6345   -8.3875    0.0000 C   0  0  1  0  0  0  0  0  0  0  0  0
    5.6345   -7.5625    0.0000 C   0  0  2  0  0  0  0  0  0  0  0  0
    4.9200   -7.1500    0.0000 C   0  0  0  0  0  0  0  0  0  0  0  0
    6.3490   -8.8000    0.0000 C   0  0  0  0  0  0  0  0  0  0  0  0
    7.0634   -8.3875    0.0000 C   0  0  0  0  0  0  0  0  0  0  0  0
    7.0634   -7.5625    0.0000 C   0  0  2  0  0  0  0  0  0  0  0  0
    6.3490   -7.1500    0.0000 C   0  0  2  0  0  0  0  0  0  0  0  0
    7.7779   -7.1500    0.0000 C   0  0  1  0  0  0  0  0  0  0  0  0
    7.7779   -6.3250    0.0000 C   0  0  0  0  0  0  0  0  0  0  0  0
    7.0634   -5.9125    0.0000 C   0  0  0  0  0  0  0  0  0  0  0  0
    6.3490   -6.3250    0.0000 C   0  0  0  0  0  0  0  0  0  0  0  0
    8.4924   -7.5625    0.0000 C   0  0  0  0  0  0  0  0  0  0  0  0
    9.2069   -7.1500    0.0000 C   0  0  0  0  0  0  0  0  0  0  0  0
    9.2069   -6.3250    0.0000 C   0  0  2  0  0  0  0  0  0  0  0  0
    8.4924   -5.9125    0.0000 C   0  0  1  0  0  0  0  0  0  0  0  0
    9.9213   -5.9125    0.0000 C   0  0  0  0  0  0  0  0  0  0  0  0
    9.9213   -5.0875    0.0000 C   0  0  0  0  0  0  0  0  0  0  0  0
    9.2069   -4.6750    0.0000 C   0  0  0  0  0  0  0  0  0  0  0  0
    8.4924   -5.0875    0.0000 C   0  0  0  0  0  0  0  0  0  0  0  0
    8.7944   -3.9605    0.0000 C   0  0  0  0  0  0  0  0  0  0  0  0
    9.6194   -3.9605    0.0000 C   0  0  0  0  0  0  0  0  0  0  0  0
    9.9213   -6.7375    0.0000 C   0  0  0  0  0  0  0  0  0  0  0  0
   10.6358   -6.3250    0.0000 O   0  0  0  0  0  0  0  0  0  0  0  0
    9.9213   -7.5625    0.0000 O   0  0  0  0  0  0  0  0  0  0  0  0
    4.5075   -9.5145    0.0000 C   0  0  0  0  0  0  0  0  0  0  0  0
    5.3325   -9.5145    0.0000 C   0  0  0  0  0  0  0  0  0  0  0  0
    8.4924   -6.7375    0.0000 H   0  0  0  0  0  0  0  0  0  0  0  0
    7.0634   -6.7375    0.0000 C   0  0  0  0  0  0  0  0  0  0  0  0
    5.6345   -6.7375    0.0000 C   0  0  0  0  0  0  0  0  0  0  0  0
    3.4911   -8.8000    0.0000 O   0  0  0  0  0  0  0  0  0  0  0  0
    3.4911   -7.1500    0.0000 O   0  0  0  0  0  0  0  0  0  0  0  0
    5.6345   -9.2125    0.0000 H   0  0  0  0  0  0  0  0  0  0  0  0
    6.3490   -7.9750    0.0000 H   0  0  0  0  0  0  0  0  0  0  0  0
    7.7779   -7.9750    0.0000 C   0  0  0  0  0  0  0  0  0  0  0  0
  1  2  1  0  0  0  0
  2  3  1  0  0  0  0
  3  4  1  0  0  0  0
  4  5  1  0  0  0  0
  5  6  1  0  0  0  0
  6  1  1  0  0  0  0
  4  7  1  0  0  0  0
  7  8  1  0  0  0  0
  8  9  1  0  0  0  0
  9 10  1  0  0  0  0
 10  5  1  0  0  0  0
  9 11  1  0  0  0  0
 11 12  1  0  0  0  0
 12 13  2  0  0  0  0
 13 14  1  0  0  0  0
 14 10  1  0  0  0  0
 11 15  1  0  0  0  0
 15 16  1  0  0  0  0
 16 17  1  0  0  0  0
 17 18  1  0  0  0  0
 18 12  1  0  0  0  0
 17 19  1  0  0  0  0
 19 20  1  0  0  0  0
 20 21  1  0  0  0  0
 21 22  1  0  0  0  0
 22 18  1  0  0  0  0
 21 23  1  0  0  0  0
 21 24  1  0  0  0  0
 17 25  1  1  0  0  0
 25 26  1  0  0  0  0
 25 27  2  0  0  0  0
  3 28  1  0  0  0  0
  3 29  1  0  0  0  0
 18 30  1  1  0  0  0
  9 31  1  1  0  0  0
  5 32  1  1  0  0  0
  2 33  1  1  0  0  0
  1 34  1  6  0  0  0
  4 35  1  6  0  0  0
 10 36  1  6  0  0  0
 11 37  1  6  0  0  0
M  END
>  <cdx:fragmentId>
5

$$$$
