917867.cdx
  Mrv1902 05222410222D          

 28 30  0  0  0  0            999 V2000
    7.5706   -7.2837    0.0000 C   0  0  0  0  0  0  0  0  0  0  0  0
    8.2881   -6.8765    0.0000 C   0  0  0  0  0  0  0  0  0  0  0  0
    8.9995   -7.2942    0.0000 C   0  0  0  0  0  0  0  0  0  0  0  0
    8.9934   -8.1192    0.0000 C   0  0  2  0  0  0  0  0  0  0  0  0
    8.2759   -8.5264    0.0000 C   0  0  1  0  0  0  0  0  0  0  0  0
    7.5645   -8.1086    0.0000 O   0  0  0  0  0  0  0  0  0  0  0  0
    8.2942   -6.0515    0.0000 C   0  0  0  0  0  0  0  0  0  0  0  0
    9.7170   -6.8870    0.0000 C   0  0  0  0  0  0  0  0  0  0  0  0
    9.7231   -6.0620    0.0000 C   0  0  0  0  0  0  0  0  0  0  0  0
    9.0117   -5.6443    0.0000 O   0  0  0  0  0  0  0  0  0  0  0  0
    7.5828   -5.6337    0.0000 O   0  0  0  0  0  0  0  0  0  0  0  0
    9.7048   -8.5370    0.0000 C   0  0  0  0  0  0  0  0  0  0  0  0
    9.6987   -9.3620    0.0000 C   0  0  0  0  0  0  0  0  0  0  0  0
    8.2698   -9.3514    0.0000 O   0  0  0  0  0  0  0  0  0  0  0  0
    5.4148  -11.0063    0.0000 O   0  0  0  0  0  0  0  0  0  0  0  0
    6.8452  -11.8289    0.0000 O   0  0  0  0  0  0  0  0  0  0  0  0
    8.2727  -11.0014    0.0000 O   0  0  0  0  0  0  0  0  0  0  0  0
    7.5561   -9.7651    0.0000 C   0  0  1  0  0  0  0  0  0  0  0  0
    7.5575  -10.5901    0.0000 C   0  0  1  0  0  0  0  0  0  0  0  0
    6.8438  -11.0039    0.0000 C   0  0  2  0  0  0  0  0  0  0  0  0
    6.1286  -10.5926    0.0000 C   0  0  1  0  0  0  0  0  0  0  0  0
    6.1271   -9.7676    0.0000 C   0  0  2  0  0  0  0  0  0  0  0  0
    6.8409   -9.3539    0.0000 O   0  0  0  0  0  0  0  0  0  0  0  0
    5.4120   -9.3563    0.0000 C   0  0  0  0  0  0  0  0  0  0  0  0
    4.6982   -9.7701    0.0000 O   0  0  0  0  0  0  0  0  0  0  0  0
    3.9816   -8.5338    0.0000 O   0  0  0  0  0  0  0  0  0  0  0  0
    3.2693   -9.7725    0.0000 C   0  0  0  0  0  0  0  0  0  0  0  0
    3.9830   -9.3588    0.0000 C   0  0  0  0  0  0  0  0  0  0  0  0
 25 24  1  0  0  0  0
 22 24  1  1  0  0  0
 18 14  1  1  0  0  0
 21 15  1  6  0  0  0
 20 16  1  1  0  0  0
 19 17  1  6  0  0  0
 23 18  1  0  0  0  0
 19 18  1  0  0  0  0
 20 19  1  0  0  0  0
 21 20  1  0  0  0  0
 22 21  1  0  0  0  0
 23 22  1  0  0  0  0
 28 25  1  0  0  0  0
 28 26  2  0  0  0  0
 28 27  1  0  0  0  0
  1  2  2  0  0  0  0
  2  3  1  0  0  0  0
  3  4  1  0  0  0  0
  4  5  1  0  0  0  0
  5  6  1  0  0  0  0
  1  6  1  0  0  0  0
  8  9  1  0  0  0  0
  9 10  1  0  0  0  0
  7 10  1  0  0  0  0
  7  2  1  0  0  0  0
  8  3  2  0  0  0  0
  7 11  2  0  0  0  0
 12 13  2  0  0  0  0
  4 12  1  1  0  0  0
  5 14  1  6  0  0  0
M  END
>  <cdx:fragmentId>
184544

$$$$
