917805.cdx
  Mrv1902 05222410192D          

 58 63  0  0  0  0            999 V2000
   12.2204  -10.6718    0.0000 C   0  0  0  0  0  0  0  0  0  0  0  0
   11.5060  -11.0843    0.0000 C   0  0  0  0  0  0  0  0  0  0  0  0
   11.5060  -11.9093    0.0000 C   0  0  1  0  0  0  0  0  0  0  0  0
   12.2204  -12.3218    0.0000 C   0  0  2  0  0  0  0  0  0  0  0  0
   12.9349  -11.9093    0.0000 C   0  0  2  0  0  0  0  0  0  0  0  0
   13.6494  -12.3218    0.0000 C   0  0  0  0  0  0  0  0  0  0  0  0
   14.3638  -11.9093    0.0000 C   0  0  0  0  0  0  0  0  0  0  0  0
   14.3638  -11.0843    0.0000 C   0  0  1  0  0  0  0  0  0  0  0  0
   15.0783  -10.6718    0.0000 C   0  0  2  0  0  0  0  0  0  0  0  0
   15.0783   -9.8468    0.0000 C   0  0  2  0  0  0  0  0  0  0  0  0
   14.3638   -9.4343    0.0000 C   0  0  0  0  0  0  0  0  0  0  0  0
   13.6494   -9.8468    0.0000 C   0  0  0  0  0  0  0  0  0  0  0  0
   13.6494  -10.6718    0.0000 C   0  0  2  0  0  0  0  0  0  0  0  0
   12.9349  -11.0843    0.0000 C   0  0  1  0  0  0  0  0  0  0  0  0
   15.0783  -11.4968    0.0000 C   0  0  0  0  0  0  0  0  0  0  0  0
   12.9349  -10.2593    0.0000 C   0  0  0  0  0  0  0  0  0  0  0  0
   14.3638  -10.2593    0.0000 C   0  0  0  0  0  0  0  0  0  0  0  0
   12.6329  -13.0363    0.0000 C   0  0  0  0  0  0  0  0  0  0  0  0
   11.8079  -13.0363    0.0000 C   0  0  0  0  0  0  0  0  0  0  0  0
   10.7915  -12.3218    0.0000 O   0  0  0  0  0  0  0  0  0  0  0  0
   12.9349  -12.7343    0.0000 H   0  0  0  0  0  0  0  0  0  0  0  0
   13.6494  -11.4968    0.0000 H   0  0  0  0  0  0  0  0  0  0  0  0
   15.0783   -9.0218    0.0000 H   0  0  0  0  0  0  0  0  0  0  0  0
   15.7928  -11.0843    0.0000 C   0  0  0  0  0  0  0  0  0  0  0  0
   16.5073  -10.6718    0.0000 C   0  0  0  0  0  0  0  0  0  0  0  0
   16.5073   -9.8468    0.0000 C   0  0  1  0  0  0  0  0  0  0  0  0
   15.7928   -9.4343    0.0000 C   0  0  2  0  0  0  0  0  0  0  0  0
   15.7928   -8.6093    0.0000 O   0  0  0  0  0  0  0  0  0  0  0  0
   17.0906   -9.2634    0.0000 C   0  0  0  0  0  0  0  0  0  0  0  0
   17.3041  -10.0603    0.0000 C   0  0  0  0  0  0  0  0  0  0  0  0
   17.8875   -9.4770    0.0000 C   0  0  0  0  0  0  0  0  0  0  0  0
   17.6740   -8.6801    0.0000 C   0  0  0  0  0  0  0  0  0  0  0  0
   18.2574   -8.0967    0.0000 C   0  0  0  0  0  0  0  0  0  0  0  0
   18.0438   -7.2998    0.0000 C   0  0  0  0  0  0  0  0  0  0  0  0
   19.0542   -8.3102    0.0000 C   0  0  0  0  0  0  0  0  0  0  0  0
   19.6376   -7.7269    0.0000 O   0  0  0  0  0  0  0  0  0  0  0  0
   16.8771   -8.4666    0.0000 O   0  0  0  0  0  0  0  0  0  0  0  0
   15.7928  -11.9093    0.0000 O   0  0  0  0  0  0  0  0  0  0  0  0
   10.0770  -11.9093    0.0000 C   0  0  2  0  0  0  0  0  0  0  0  0
   10.0770  -11.0843    0.0000 O   0  0  0  0  0  0  0  0  0  0  0  0
    9.3626  -10.6718    0.0000 C   0  0  1  0  0  0  0  0  0  0  0  0
    8.6481  -11.0843    0.0000 C   0  0  1  0  0  0  0  0  0  0  0  0
    8.6481  -11.9093    0.0000 C   0  0  1  0  0  0  0  0  0  0  0  0
    9.3626  -12.3218    0.0000 C   0  0  1  0  0  0  0  0  0  0  0  0
    9.3626   -9.8468    0.0000 C   0  0  0  0  0  0  0  0  0  0  0  0
    7.9336  -10.6718    0.0000 O   0  0  0  0  0  0  0  0  0  0  0  0
    7.9336  -12.3218    0.0000 O   0  0  0  0  0  0  0  0  0  0  0  0
    9.3626  -13.1468    0.0000 O   0  0  0  0  0  0  0  0  0  0  0  0
    8.6481   -9.4343    0.0000 O   0  0  0  0  0  0  0  0  0  0  0  0
    8.6481  -13.5593    0.0000 C   0  0  2  0  0  0  0  0  0  0  0  0
    7.9336  -13.1468    0.0000 O   0  0  0  0  0  0  0  0  0  0  0  0
    7.2191  -13.5593    0.0000 C   0  0  0  0  0  0  0  0  0  0  0  0
    7.2191  -14.3843    0.0000 C   0  0  1  0  0  0  0  0  0  0  0  0
    7.9336  -14.7968    0.0000 C   0  0  1  0  0  0  0  0  0  0  0  0
    8.6481  -14.3843    0.0000 C   0  0  1  0  0  0  0  0  0  0  0  0
    9.3626  -14.7968    0.0000 O   0  0  0  0  0  0  0  0  0  0  0  0
    7.9336  -15.6218    0.0000 O   0  0  0  0  0  0  0  0  0  0  0  0
    6.5047  -14.7968    0.0000 O   0  0  0  0  0  0  0  0  0  0  0  0
  1  2  1  0  0  0  0
  2  3  1  0  0  0  0
  3  4  1  0  0  0  0
  4  5  1  0  0  0  0
  5  6  1  0  0  0  0
  6  7  1  0  0  0  0
  7  8  1  0  0  0  0
  8  9  1  0  0  0  0
  9 10  1  0  0  0  0
 10 11  1  0  0  0  0
 11 12  1  0  0  0  0
 12 13  1  0  0  0  0
  8 13  1  0  0  0  0
 13 14  1  0  0  0  0
  5 14  1  0  0  0  0
  1 14  1  0  0  0  0
  9 15  1  6  0  0  0
 14 16  1  1  0  0  0
  8 17  1  1  0  0  0
  4 18  1  6  0  0  0
  4 19  1  1  0  0  0
  3 20  1  1  0  0  0
  5 21  1  6  0  0  0
 13 22  1  6  0  0  0
 10 23  1  1  0  0  0
  9 24  1  0  0  0  0
 24 25  1  0  0  0  0
 25 26  1  0  0  0  0
 26 27  1  0  0  0  0
 27 10  1  0  0  0  0
 27 28  1  1  0  0  0
 26 29  1  1  0  0  0
 26 30  1  6  0  0  0
 30 31  1  0  0  0  0
 31 32  1  0  0  0  0
 32 33  2  0  0  0  0
 33 34  1  0  0  0  0
 33 35  1  0  0  0  0
 35 36  1  0  0  0  0
 29 37  1  0  0  0  0
 15 38  1  0  0  0  0
 39 20  1  1  0  0  0
 39 40  1  0  0  0  0
 40 41  1  0  0  0  0
 41 42  1  0  0  0  0
 42 43  1  0  0  0  0
 43 44  1  0  0  0  0
 44 39  1  0  0  0  0
 41 45  1  1  0  0  0
 42 46  1  1  0  0  0
 43 47  1  1  0  0  0
 44 48  1  6  0  0  0
 45 49  1  0  0  0  0
 50 48  1  1  0  0  0
 50 51  1  0  0  0  0
 51 52  1  0  0  0  0
 52 53  1  0  0  0  0
 53 54  1  0  0  0  0
 54 55  1  0  0  0  0
 55 50  1  0  0  0  0
 55 56  1  6  0  0  0
 54 57  1  1  0  0  0
 53 58  1  1  0  0  0
M  END
>  <cdx:fragmentId>
31612

$$$$
