91784.cdx
  Mrv1902 05222410242D          

 52 57  0  0  0  0            999 V2000
    4.7536  -11.6649    0.0000 O   0  0  0  0  0  0  0  0  0  0  0  0
    5.3014  -12.2818    0.0000 C   0  0  2  0  0  0  0  0  0  0  0  0
    5.0410  -13.0646    0.0000 C   0  0  1  0  0  0  0  0  0  0  0  0
    4.2329  -13.2305    0.0000 C   0  0  2  0  0  0  0  0  0  0  0  0
    3.6851  -12.6136    0.0000 C   0  0  1  0  0  0  0  0  0  0  0  0
    3.9455  -11.8308    0.0000 C   0  0  1  0  0  0  0  0  0  0  0  0
    5.5888  -13.6815    0.0000 O   0  0  0  0  0  0  0  0  0  0  0  0
    3.9725  -14.0134    0.0000 O   0  0  0  0  0  0  0  0  0  0  0  0
    2.8770  -12.7795    0.0000 O   0  0  0  0  0  0  0  0  0  0  0  0
    3.3977  -11.2139    0.0000 C   0  0  0  0  0  0  0  0  0  0  0  0
    2.5896  -11.3798    0.0000 O   0  0  0  0  0  0  0  0  0  0  0  0
    6.1095  -12.1158    0.0000 O   0  0  0  0  0  0  0  0  0  0  0  0
    6.3699  -11.3330    0.0000 C   0  0  0  0  0  0  0  0  0  0  0  0
    5.8221  -10.7161    0.0000 C   0  0  0  0  0  0  0  0  0  0  0  0
    6.0825   -9.9333    0.0000 C   0  0  0  0  0  0  0  0  0  0  0  0
    6.8907   -9.7673    0.0000 C   0  0  0  0  0  0  0  0  0  0  0  0
    7.4384  -10.3843    0.0000 C   0  0  0  0  0  0  0  0  0  0  0  0
    7.1781  -11.1671    0.0000 C   0  0  0  0  0  0  0  0  0  0  0  0
    7.7258  -11.7840    0.0000 O   0  0  0  0  0  0  0  0  0  0  0  0
    8.5340  -11.6181    0.0000 C   0  0  0  0  0  0  0  0  0  0  0  0
    5.0140  -10.8820    0.0000 O   0  0  0  0  0  0  0  0  0  0  0  0
    4.4662  -10.2651    0.0000 C   0  0  0  0  0  0  0  0  0  0  0  0
    9.2098   -8.3314    0.0000 O   0  0  0  0  0  0  0  0  0  0  0  0
    8.7203   -8.9954    0.0000 C   0  0  0  0  0  0  0  0  0  0  0  0
    7.9374   -8.7350    0.0000 C   0  0  1  0  0  0  0  0  0  0  0  0
    7.9432   -7.9101    0.0000 C   0  0  1  0  0  0  0  0  0  0  0  0
    8.7295   -7.6606    0.0000 C   0  0  1  0  0  0  0  0  0  0  0  0
    6.6708   -8.3137    0.0000 O   0  0  0  0  0  0  0  0  0  0  0  0
    7.1511   -8.9845    0.0000 C   0  0  2  0  0  0  0  0  0  0  0  0
    7.1603   -7.6497    0.0000 C   0  0  0  0  0  0  0  0  0  0  0  0
    8.9899   -6.8777    0.0000 C   0  0  0  0  0  0  0  0  0  0  0  0
    9.7981   -6.7118    0.0000 C   0  0  0  0  0  0  0  0  0  0  0  0
   10.0584   -5.9290    0.0000 C   0  0  0  0  0  0  0  0  0  0  0  0
    9.5107   -5.3121    0.0000 C   0  0  0  0  0  0  0  0  0  0  0  0
    8.7025   -5.4780    0.0000 C   0  0  0  0  0  0  0  0  0  0  0  0
    8.4421   -6.2608    0.0000 C   0  0  0  0  0  0  0  0  0  0  0  0
   10.8666   -5.7631    0.0000 O   0  0  0  0  0  0  0  0  0  0  0  0
   11.4459   -6.3505    0.0000 C   0  0  0  0  0  0  0  0  0  0  0  0
    9.7711   -4.5292    0.0000 O   0  0  0  0  0  0  0  0  0  0  0  0
    7.9489   -7.0851    0.0000 H   0  0  0  0  0  0  0  0  0  0  0  0
    7.9317   -9.5600    0.0000 H   0  0  0  0  0  0  0  0  0  0  0  0
    9.2233   -3.9123    0.0000 C   0  0  2  0  0  0  0  0  0  0  0  0
    9.4837   -3.1295    0.0000 O   0  0  0  0  0  0  0  0  0  0  0  0
    8.9359   -2.5126    0.0000 C   0  0  1  0  0  0  0  0  0  0  0  0
    8.1278   -2.6785    0.0000 C   0  0  2  0  0  0  0  0  0  0  0  0
    7.8674   -3.4613    0.0000 C   0  0  1  0  0  0  0  0  0  0  0  0
    8.4151   -4.0782    0.0000 C   0  0  1  0  0  0  0  0  0  0  0  0
    9.1963   -1.7297    0.0000 C   0  0  0  0  0  0  0  0  0  0  0  0
    7.0592   -3.6272    0.0000 O   0  0  0  0  0  0  0  0  0  0  0  0
    7.5800   -2.0616    0.0000 O   0  0  0  0  0  0  0  0  0  0  0  0
    8.1548   -4.8611    0.0000 O   0  0  0  0  0  0  0  0  0  0  0  0
    8.6485   -1.1128    0.0000 O   0  0  0  0  0  0  0  0  0  0  0  0
  1  2  1  0  0  0  0
  2  3  1  0  0  0  0
  3  4  1  0  0  0  0
  4  5  1  0  0  0  0
  5  6  1  0  0  0  0
  1  6  1  0  0  0  0
  3  7  1  6  0  0  0
  4  8  1  1  0  0  0
  5  9  1  6  0  0  0
 10 11  1  0  0  0  0
  6 10  1  1  0  0  0
 13 14  1  0  0  0  0
 14 15  2  0  0  0  0
 15 16  1  0  0  0  0
 16 17  2  0  0  0  0
 17 18  1  0  0  0  0
 13 18  2  0  0  0  0
 12 13  1  0  0  0  0
 19 20  1  0  0  0  0
 18 19  1  0  0  0  0
 21 22  1  0  0  0  0
 14 21  1  0  0  0  0
 23 24  1  0  0  0  0
 24 25  1  0  0  0  0
 25 26  1  0  0  0  0
 26 27  1  0  0  0  0
 23 27  1  0  0  0  0
 28 29  1  0  0  0  0
 28 30  1  0  0  0  0
 29 25  1  0  0  0  0
 30 26  1  0  0  0  0
 31 32  1  0  0  0  0
 32 33  2  0  0  0  0
 33 34  1  0  0  0  0
 34 35  2  0  0  0  0
 35 36  1  0  0  0  0
 31 36  2  0  0  0  0
 37 38  1  0  0  0  0
 33 37  1  0  0  0  0
 34 39  1  0  0  0  0
 27 31  1  1  0  0  0
 29 16  1  1  0  0  0
  2 12  1  1  0  0  0
 26 40  1  1  0  0  0
 25 41  1  1  0  0  0
 42 39  1  1  0  0  0
 42 43  1  0  0  0  0
 43 44  1  0  0  0  0
 44 45  1  0  0  0  0
 45 46  1  0  0  0  0
 46 47  1  0  0  0  0
 47 42  1  0  0  0  0
 44 48  1  1  0  0  0
 46 49  1  1  0  0  0
 45 50  1  6  0  0  0
 47 51  1  6  0  0  0
 48 52  1  0  0  0  0
M  END
>  <cdx:fragmentId>
13188

$$$$
