917804.cdx
  Mrv1902 05222410192D          

 61 66  0  0  0  0            999 V2000
   16.1179   -8.8072    0.0000 C   0  0  1  0  0  0  0  0  0  0  0  0
   12.2204  -10.6718    0.0000 C   0  0  0  0  0  0  0  0  0  0  0  0
   11.5060  -11.0843    0.0000 C   0  0  0  0  0  0  0  0  0  0  0  0
   11.5060  -11.9093    0.0000 C   0  0  1  0  0  0  0  0  0  0  0  0
   12.2204  -12.3218    0.0000 C   0  0  2  0  0  0  0  0  0  0  0  0
   12.9349  -11.9093    0.0000 C   0  0  2  0  0  0  0  0  0  0  0  0
   13.6494  -12.3218    0.0000 C   0  0  0  0  0  0  0  0  0  0  0  0
   14.3638  -11.9093    0.0000 C   0  0  1  0  0  0  0  0  0  0  0  0
   14.3638  -11.0843    0.0000 C   0  0  1  0  0  0  0  0  0  0  0  0
   15.0783  -10.6718    0.0000 C   0  0  2  0  0  0  0  0  0  0  0  0
   15.8629  -10.9267    0.0000 C   0  0  0  0  0  0  0  0  0  0  0  0
   16.3479  -10.2593    0.0000 C   0  0  0  0  0  0  0  0  0  0  0  0
   15.8629   -9.5919    0.0000 C   0  0  1  0  0  0  0  0  0  0  0  0
   15.0783   -9.8468    0.0000 C   0  0  1  0  0  0  0  0  0  0  0  0
   14.3638   -9.4343    0.0000 C   0  0  0  0  0  0  0  0  0  0  0  0
   13.6494   -9.8468    0.0000 C   0  0  0  0  0  0  0  0  0  0  0  0
   13.6494  -10.6718    0.0000 C   0  0  2  0  0  0  0  0  0  0  0  0
   12.9349  -11.0843    0.0000 C   0  0  1  0  0  0  0  0  0  0  0  0
   15.2918  -11.4687    0.0000 C   0  0  0  0  0  0  0  0  0  0  0  0
   12.9349  -10.2593    0.0000 C   0  0  0  0  0  0  0  0  0  0  0  0
   14.9600  -11.7700    0.0000 C   0  0  0  0  0  0  0  0  0  0  0  0
   12.6329  -13.0363    0.0000 C   0  0  0  0  0  0  0  0  0  0  0  0
   11.8079  -13.0363    0.0000 C   0  0  0  0  0  0  0  0  0  0  0  0
   10.7915  -12.3218    0.0000 O   0  0  0  0  0  0  0  0  0  0  0  0
   12.9349  -12.7343    0.0000 H   0  0  0  0  0  0  0  0  0  0  0  0
   13.6494  -11.4968    0.0000 H   0  0  0  0  0  0  0  0  0  0  0  0
   15.0783   -9.0218    0.0000 H   0  0  0  0  0  0  0  0  0  0  0  0
   16.6778   -9.4628    0.0000 H   0  0  0  0  0  0  0  0  0  0  0  0
   16.9249   -8.6357    0.0000 C   0  0  0  0  0  0  0  0  0  0  0  0
   17.4769   -9.2488    0.0000 C   0  0  0  0  0  0  0  0  0  0  0  0
   18.2839   -9.0773    0.0000 C   0  0  0  0  0  0  0  0  0  0  0  0
   18.8359   -9.6904    0.0000 C   0  0  0  0  0  0  0  0  0  0  0  0
   19.6429   -9.5189    0.0000 C   0  0  0  0  0  0  0  0  0  0  0  0
   18.5810  -10.4750    0.0000 C   0  0  0  0  0  0  0  0  0  0  0  0
   16.3728   -8.0226    0.0000 C   0  0  0  0  0  0  0  0  0  0  0  0
   15.0783  -12.3218    0.0000 O   0  0  0  0  0  0  0  0  0  0  0  0
   15.5345   -8.2239    0.0000 O   0  0  0  0  0  0  0  0  0  0  0  0
   20.1949  -10.1320    0.0000 O   0  0  0  0  0  0  0  0  0  0  0  0
   15.7850  -11.7700    0.0000 O   0  0  0  0  0  0  0  0  0  0  0  0
   15.5435   -7.3989    0.0000 C   0  0  2  0  0  0  0  0  0  0  0  0
   16.2623   -6.9942    0.0000 O   0  0  0  0  0  0  0  0  0  0  0  0
   16.2713   -6.1692    0.0000 C   0  0  1  0  0  0  0  0  0  0  0  0
   15.5613   -5.7490    0.0000 C   0  0  2  0  0  0  0  0  0  0  0  0
   14.8424   -6.1538    0.0000 C   0  0  1  0  0  0  0  0  0  0  0  0
   14.8335   -6.9787    0.0000 C   0  0  1  0  0  0  0  0  0  0  0  0
   16.9902   -5.7645    0.0000 C   0  0  0  0  0  0  0  0  0  0  0  0
   14.1325   -5.7336    0.0000 O   0  0  0  0  0  0  0  0  0  0  0  0
   14.1146   -7.3835    0.0000 O   0  0  0  0  0  0  0  0  0  0  0  0
   15.5703   -4.9241    0.0000 O   0  0  0  0  0  0  0  0  0  0  0  0
   16.9991   -4.9396    0.0000 O   0  0  0  0  0  0  0  0  0  0  0  0
   21.0019   -9.9604    0.0000 C   0  0  2  0  0  0  0  0  0  0  0  0
   21.5539  -10.5735    0.0000 O   0  0  0  0  0  0  0  0  0  0  0  0
   22.3609  -10.4020    0.0000 C   0  0  1  0  0  0  0  0  0  0  0  0
   22.6158   -9.6174    0.0000 C   0  0  2  0  0  0  0  0  0  0  0  0
   22.0638   -9.0043    0.0000 C   0  0  1  0  0  0  0  0  0  0  0  0
   21.2568   -9.1758    0.0000 C   0  0  1  0  0  0  0  0  0  0  0  0
   22.9129  -11.0151    0.0000 C   0  0  0  0  0  0  0  0  0  0  0  0
   22.3187   -8.2197    0.0000 O   0  0  0  0  0  0  0  0  0  0  0  0
   23.4228   -9.4458    0.0000 O   0  0  0  0  0  0  0  0  0  0  0  0
   20.7048   -8.5627    0.0000 O   0  0  0  0  0  0  0  0  0  0  0  0
   23.7379  -11.0151    0.0000 O   0  0  0  0  0  0  0  0  0  0  0  0
  2  3  1  0  0  0  0
  3  4  1  0  0  0  0
  4  5  1  0  0  0  0
  5  6  1  0  0  0  0
  6  7  1  0  0  0  0
  7  8  1  0  0  0  0
  8  9  1  0  0  0  0
  9 10  1  0  0  0  0
 10 11  1  0  0  0  0
 11 12  1  0  0  0  0
 13 12  1  0  0  0  0
 13 14  1  0  0  0  0
 10 14  1  0  0  0  0
 14 15  1  0  0  0  0
 15 16  1  0  0  0  0
 16 17  1  0  0  0  0
  9 17  1  0  0  0  0
 17 18  1  0  0  0  0
  6 18  1  0  0  0  0
  2 18  1  0  0  0  0
 10 19  1  6  0  0  0
 18 20  1  1  0  0  0
  9 21  1  1  0  0  0
  5 22  1  6  0  0  0
  5 23  1  1  0  0  0
  4 24  1  1  0  0  0
  1 13  1  0  0  0  0
  6 25  1  6  0  0  0
 17 26  1  6  0  0  0
 14 27  1  1  0  0  0
 13 28  1  6  0  0  0
  1 29  1  0  0  0  0
 29 30  1  0  0  0  0
 30 31  1  0  0  0  0
 31 32  2  0  0  0  0
 32 33  1  0  0  0  0
 32 34  1  0  0  0  0
  1 35  1  6  0  0  0
  8 36  1  1  0  0  0
  1 37  1  1  0  0  0
 33 38  1  0  0  0  0
 21 39  1  0  0  0  0
 40 37  1  1  0  0  0
 40 41  1  0  0  0  0
 41 42  1  0  0  0  0
 42 43  1  0  0  0  0
 43 44  1  0  0  0  0
 44 45  1  0  0  0  0
 45 40  1  0  0  0  0
 42 46  1  1  0  0  0
 44 47  1  1  0  0  0
 45 48  1  6  0  0  0
 43 49  1  6  0  0  0
 46 50  1  0  0  0  0
 51 38  1  1  0  0  0
 51 52  1  0  0  0  0
 52 53  1  0  0  0  0
 53 54  1  0  0  0  0
 54 55  1  0  0  0  0
 55 56  1  0  0  0  0
 56 51  1  0  0  0  0
 53 57  1  1  0  0  0
 55 58  1  1  0  0  0
 54 59  1  6  0  0  0
 56 60  1  6  0  0  0
 57 61  1  0  0  0  0
M  END
>  <cdx:fragmentId>
31612

$$$$
