917970.cdx
  Mrv1902 05222410192D          

 25 28  0  0  0  0            999 V2000
    6.7335   -9.6900    0.0000 C   0  0  0  0  0  0  0  0  0  0  0  0
    7.4480   -9.2775    0.0000 N   0  0  0  0  0  0  0  0  0  0  0  0
    7.4480   -8.4525    0.0000 C   0  0  1  0  0  0  0  0  0  0  0  0
    6.7335   -8.0400    0.0000 C   0  0  0  0  0  0  0  0  0  0  0  0
    6.0190   -8.4525    0.0000 C   0  0  0  0  0  0  0  0  0  0  0  0
    5.3046   -8.0400    0.0000 C   0  0  0  0  0  0  0  0  0  0  0  0
    4.5901   -8.4525    0.0000 C   0  0  0  0  0  0  0  0  0  0  0  0
    4.5901   -9.2775    0.0000 C   0  0  0  0  0  0  0  0  0  0  0  0
    5.3046   -9.6900    0.0000 C   0  0  0  0  0  0  0  0  0  0  0  0
    6.0190   -9.2775    0.0000 C   0  0  0  0  0  0  0  0  0  0  0  0
    8.1625   -9.6900    0.0000 C   0  0  0  0  0  0  0  0  0  0  0  0
    8.8769   -9.2775    0.0000 C   0  0  0  0  0  0  0  0  0  0  0  0
    8.8769   -8.4525    0.0000 C   0  0  0  0  0  0  0  0  0  0  0  0
    9.5914   -8.0400    0.0000 C   0  0  0  0  0  0  0  0  0  0  0  0
    9.5914   -7.2150    0.0000 C   0  0  0  0  0  0  0  0  0  0  0  0
    8.8769   -6.8025    0.0000 C   0  0  0  0  0  0  0  0  0  0  0  0
    8.1625   -7.2150    0.0000 C   0  0  0  0  0  0  0  0  0  0  0  0
    8.1625   -8.0400    0.0000 C   0  0  0  0  0  0  0  0  0  0  0  0
    8.8769   -5.9775    0.0000 O   0  0  0  0  0  0  0  0  0  0  0  0
    3.8756   -9.6900    0.0000 O   0  0  0  0  0  0  0  0  0  0  0  0
    5.3046  -10.5150    0.0000 O   0  0  0  0  0  0  0  0  0  0  0  0
    4.5901  -10.9275    0.0000 C   0  0  0  0  0  0  0  0  0  0  0  0
   10.3059   -6.8025    0.0000 O   0  0  0  0  0  0  0  0  0  0  0  0
   11.0203   -7.2150    0.0000 C   0  0  0  0  0  0  0  0  0  0  0  0
    7.4480   -7.6275    0.0000 H   0  0  0  0  0  0  0  0  0  0  0  0
  1  2  1  0  0  0  0
  2  3  1  0  0  0  0
  3  4  1  0  0  0  0
  4  5  1  0  0  0  0
  5  6  1  0  0  0  0
  6  7  2  0  0  0  0
  7  8  1  0  0  0  0
  8  9  2  0  0  0  0
  9 10  1  0  0  0  0
  1 10  1  0  0  0  0
  5 10  2  0  0  0  0
 11 12  1  0  0  0  0
 12 13  1  0  0  0  0
 13 14  1  0  0  0  0
 14 15  2  0  0  0  0
 15 16  1  0  0  0  0
 16 17  2  0  0  0  0
 17 18  1  0  0  0  0
 13 18  2  0  0  0  0
 11  2  1  0  0  0  0
 18  3  1  0  0  0  0
 16 19  1  0  0  0  0
  8 20  1  0  0  0  0
 21 22  1  0  0  0  0
  9 21  1  0  0  0  0
 23 24  1  0  0  0  0
 15 23  1  0  0  0  0
  3 25  1  6  0  0  0
M  END
>  <cdx:fragmentId>
27073

$$$$
