91799.cdx
  Mrv1902 05222410212D          

 35 37  0  0  0  0            999 V2000
    7.1481   -7.3838    0.0000 C   0  0  2  0  0  0  0  0  0  0  0  0
    7.1481   -8.2088    0.0000 C   0  0  2  0  0  0  0  0  0  0  0  0
    7.8625   -8.6212    0.0000 C   0  0  1  0  0  0  0  0  0  0  0  0
    8.5770   -8.2088    0.0000 C   0  0  2  0  0  0  0  0  0  0  0  0
    8.5770   -7.3838    0.0000 C   0  0  1  0  0  0  0  0  0  0  0  0
    7.8625   -6.9712    0.0000 O   0  0  0  0  0  0  0  0  0  0  0  0
    6.4336   -6.9712    0.0000 C   0  0  0  0  0  0  0  0  0  0  0  0
    7.8625   -9.4462    0.0000 O   0  0  0  0  0  0  0  0  0  0  0  0
    9.2915   -6.9712    0.0000 O   0  0  0  0  0  0  0  0  0  0  0  0
    6.4336   -8.6212    0.0000 O   0  0  0  0  0  0  0  0  0  0  0  0
    9.2915   -8.6212    0.0000 O   0  0  0  0  0  0  0  0  0  0  0  0
    5.7191   -7.3838    0.0000 O   0  0  0  0  0  0  0  0  0  0  0  0
    9.2915   -9.4462    0.0000 C   0  0  0  0  0  0  0  0  0  0  0  0
    9.2915   -6.1463    0.0000 C   0  0  0  0  0  0  0  0  0  0  0  0
   10.0059   -5.7338    0.0000 C   0  0  0  0  0  0  0  0  0  0  0  0
    8.5770   -5.7338    0.0000 O   0  0  0  0  0  0  0  0  0  0  0  0
   10.7204   -6.1463    0.0000 C   0  0  0  0  0  0  0  0  0  0  0  0
   11.4349   -5.7338    0.0000 C   0  0  0  0  0  0  0  0  0  0  0  0
   11.4349   -4.9088    0.0000 C   0  0  0  0  0  0  0  0  0  0  0  0
   10.7204   -4.4962    0.0000 C   0  0  0  0  0  0  0  0  0  0  0  0
   10.0059   -4.9088    0.0000 C   0  0  0  0  0  0  0  0  0  0  0  0
   10.7204   -3.6713    0.0000 O   0  0  0  0  0  0  0  0  0  0  0  0
   12.1494   -4.4962    0.0000 O   0  0  0  0  0  0  0  0  0  0  0  0
   12.1494   -6.1463    0.0000 O   0  0  0  0  0  0  0  0  0  0  0  0
    5.0046   -6.9712    0.0000 C   0  0  0  0  0  0  0  0  0  0  0  0
    4.2902   -7.3838    0.0000 C   0  0  0  0  0  0  0  0  0  0  0  0
    5.0046   -6.1463    0.0000 O   0  0  0  0  0  0  0  0  0  0  0  0
    3.5757   -6.9712    0.0000 C   0  0  0  0  0  0  0  0  0  0  0  0
    2.8612   -7.3838    0.0000 C   0  0  0  0  0  0  0  0  0  0  0  0
    2.8612   -8.2088    0.0000 C   0  0  0  0  0  0  0  0  0  0  0  0
    3.5757   -8.6212    0.0000 C   0  0  0  0  0  0  0  0  0  0  0  0
    4.2902   -8.2088    0.0000 C   0  0  0  0  0  0  0  0  0  0  0  0
    2.1468   -6.9712    0.0000 O   0  0  0  0  0  0  0  0  0  0  0  0
    2.1468   -8.6212    0.0000 O   0  0  0  0  0  0  0  0  0  0  0  0
    3.5757   -9.4462    0.0000 O   0  0  0  0  0  0  0  0  0  0  0  0
  1  2  1  0  0  0  0
  2  3  1  0  0  0  0
  3  4  1  0  0  0  0
  4  5  1  0  0  0  0
  5  6  1  0  0  0  0
  6  1  1  0  0  0  0
  1  7  1  1  0  0  0
  3  8  1  1  0  0  0
  5  9  1  1  0  0  0
  2 10  1  6  0  0  0
  4 11  1  6  0  0  0
  7 12  1  0  0  0  0
 11 13  1  0  0  0  0
  9 14  1  0  0  0  0
 14 15  1  0  0  0  0
 14 16  2  0  0  0  0
 15 17  2  0  0  0  0
 17 18  1  0  0  0  0
 18 19  2  0  0  0  0
 19 20  1  0  0  0  0
 20 21  2  0  0  0  0
 21 15  1  0  0  0  0
 20 22  1  0  0  0  0
 19 23  1  0  0  0  0
 18 24  1  0  0  0  0
 12 25  1  0  0  0  0
 25 26  1  0  0  0  0
 25 27  2  0  0  0  0
 26 28  2  0  0  0  0
 28 29  1  0  0  0  0
 29 30  2  0  0  0  0
 30 31  1  0  0  0  0
 31 32  2  0  0  0  0
 32 26  1  0  0  0  0
 29 33  1  0  0  0  0
 30 34  1  0  0  0  0
 31 35  1  0  0  0  0
M  END
>  <cdx:fragmentId>
5

$$$$
