91797.cdx
  Mrv1902 05222410252D          

 20 22  0  0  0  0            999 V2000
    5.1415   -9.9169    0.0000 C   0  0  0  0  0  0  0  0  0  0  0  0
    9.4419   -6.6347    0.0000 C   0  0  0  0  0  0  0  0  0  0  0  0
    4.4355   -7.8515    0.0000 C   0  0  0  0  0  0  0  0  0  0  0  0
    4.4321   -8.6765    0.0000 C   0  0  0  0  0  0  0  0  0  0  0  0
    5.1449   -9.0920    0.0000 C   0  0  0  0  0  0  0  0  0  0  0  0
    5.8713   -6.2074    0.0000 O   0  0  0  0  0  0  0  0  0  0  0  0
    5.1517   -7.4420    0.0000 C   0  0  0  0  0  0  0  0  0  0  0  0
    5.8644   -7.8574    0.0000 C   0  0  0  0  0  0  0  0  0  0  0  0
    5.8610   -8.6824    0.0000 C   0  0  0  0  0  0  0  0  0  0  0  0
    6.5738   -9.0979    0.0000 C   0  0  0  0  0  0  0  0  0  0  0  0
    7.2900   -8.6883    0.0000 C   0  0  0  0  0  0  0  0  0  0  0  0
    6.5840   -6.6229    0.0000 C   0  0  0  0  0  0  0  0  0  0  0  0
    6.5806   -7.4479    0.0000 C   0  0  0  0  0  0  0  0  0  0  0  0
    7.2934   -7.8633    0.0000 C   0  0  0  0  0  0  0  0  0  0  0  0
    8.0095   -7.4538    0.0000 C   0  0  0  0  0  0  0  0  0  0  0  0
    7.3036   -5.3883    0.0000 O   0  0  0  0  0  0  0  0  0  0  0  0
    7.3002   -6.2133    0.0000 C   0  0  0  0  0  0  0  0  0  0  0  0
    8.0130   -6.6288    0.0000 C   0  0  0  0  0  0  0  0  0  0  0  0
    8.7291   -6.2192    0.0000 C   0  0  0  0  0  0  0  0  0  0  0  0
    8.7325   -5.3943    0.0000 C   0  0  0  0  0  0  0  0  0  0  0  0
  5  1  2  0  0  0  0
 19  2  1  0  0  0  0
  3  7  1  0  0  0  0
  4  3  1  0  0  0  0
  5  4  1  0  0  0  0
  9  5  1  0  0  0  0
  6 12  2  0  0  0  0
  8  7  1  0  0  0  0
  8 13  1  0  0  0  0
  9  8  2  0  0  0  0
 10  9  1  0  0  0  0
 11 10  2  0  0  0  0
 14 11  1  0  0  0  0
 12 17  1  0  0  0  0
 13 12  1  0  0  0  0
 14 13  2  0  0  0  0
 15 14  1  0  0  0  0
 18 15  2  0  0  0  0
 17 16  2  0  0  0  0
 18 17  1  0  0  0  0
 19 18  1  0  0  0  0
 20 19  1  0  0  0  0
M  END
>  <cdx:fragmentId>
5

$$$$
