91798.cdx
  Mrv1902 05222410212D          

 46 49  0  0  0  0            999 V2000
    3.1606   -6.9300    0.0000 C   0  0  0  0  0  0  0  0  0  0  0  0
    4.5895   -7.7550    0.0000 O   0  0  0  0  0  0  0  0  0  0  0  0
    4.5895   -6.9300    0.0000 C   0  0  0  0  0  0  0  0  0  0  0  0
    3.8750   -6.5175    0.0000 O   0  0  0  0  0  0  0  0  0  0  0  0
    5.3040   -8.1675    0.0000 C   0  0  0  0  0  0  0  0  0  0  0  0
    6.0184   -7.7550    0.0000 C   0  0  0  0  0  0  0  0  0  0  0  0
    6.0184   -6.9300    0.0000 C   0  0  2  0  0  0  0  0  0  0  0  0
    5.3040   -6.5175    0.0000 C   0  0  0  0  0  0  0  0  0  0  0  0
    6.7329   -8.1675    0.0000 C   0  0  0  0  0  0  0  0  0  0  0  0
    7.4474   -7.7550    0.0000 O   0  0  0  0  0  0  0  0  0  0  0  0
    7.4474   -6.9300    0.0000 C   0  0  0  0  0  0  0  0  0  0  0  0
    6.7329   -6.5175    0.0000 C   0  0  0  0  0  0  0  0  0  0  0  0
    8.8763   -7.7550    0.0000 C   0  0  0  0  0  0  0  0  0  0  0  0
    8.8763   -6.9300    0.0000 C   0  0  0  0  0  0  0  0  0  0  0  0
    8.1619   -6.5175    0.0000 C   0  0  0  0  0  0  0  0  0  0  0  0
    8.1619   -5.6925    0.0000 C   0  0  0  0  0  0  0  0  0  0  0  0
    7.4474   -5.2800    0.0000 C   0  0  0  0  0  0  0  0  0  0  0  0
    6.7329   -5.6925    0.0000 C   0  0  0  0  0  0  0  0  0  0  0  0
    8.8763   -9.4050    0.0000 C   0  0  0  0  0  0  0  0  0  0  0  0
    9.5908   -8.9925    0.0000 C   0  0  0  0  0  0  0  0  0  0  0  0
    9.5908   -8.1675    0.0000 C   0  0  0  0  0  0  0  0  0  0  0  0
    8.8763  -10.2300    0.0000 C   0  0  0  0  0  0  0  0  0  0  0  0
    9.5908  -10.6425    0.0000 C   0  0  0  0  0  0  0  0  0  0  0  0
   10.3053  -10.2300    0.0000 C   0  0  0  0  0  0  0  0  0  0  0  0
   10.3053   -9.4050    0.0000 C   0  0  0  0  0  0  0  0  0  0  0  0
    5.3040   -8.9925    0.0000 C   0  0  0  0  0  0  0  0  0  0  0  0
    6.0184   -9.4050    0.0000 C   0  0  0  0  0  0  0  0  0  0  0  0
    6.7329   -8.9925    0.0000 C   0  0  0  0  0  0  0  0  0  0  0  0
    6.0184  -10.2300    0.0000 O   0  0  0  0  0  0  0  0  0  0  0  0
    9.5908   -6.5175    0.0000 O   0  0  0  0  0  0  0  0  0  0  0  0
    9.5908  -11.4675    0.0000 O   0  0  0  0  0  0  0  0  0  0  0  0
    6.0184   -5.2800    0.0000 O   0  0  0  0  0  0  0  0  0  0  0  0
    8.8763   -5.2800    0.0000 O   0  0  0  0  0  0  0  0  0  0  0  0
    6.8640   -4.6966    0.0000 O   0  0  0  0  0  0  0  0  0  0  0  0
    8.0307   -4.6966    0.0000 C   0  0  2  0  0  0  0  0  0  0  0  0
    8.8276   -4.9102    0.0000 O   0  0  0  0  0  0  0  0  0  0  0  0
    9.4110   -4.3268    0.0000 C   0  0  1  0  0  0  0  0  0  0  0  0
    9.1975   -3.5299    0.0000 C   0  0  2  0  0  0  0  0  0  0  0  0
    8.4006   -3.3164    0.0000 C   0  0  1  0  0  0  0  0  0  0  0  0
    7.8172   -3.8997    0.0000 C   0  0  1  0  0  0  0  0  0  0  0  0
    7.0203   -3.6862    0.0000 O   0  0  0  0  0  0  0  0  0  0  0  0
    9.7808   -2.9465    0.0000 O   0  0  0  0  0  0  0  0  0  0  0  0
    8.1871   -2.5195    0.0000 O   0  0  0  0  0  0  0  0  0  0  0  0
   10.2079   -4.5403    0.0000 C   0  0  0  0  0  0  0  0  0  0  0  0
   10.7912   -3.9570    0.0000 O   0  0  0  0  0  0  0  0  0  0  0  0
    8.2443   -5.4935    0.0000 H   0  0  0  0  0  0  0  0  0  0  0  0
  2  3  2  0  0  0  0
  3  4  1  0  0  0  0
  4  1  1  0  0  0  0
  5  6  2  0  0  0  0
  7  6  1  6  0  0  0
  7  8  1  0  0  0  0
  8  3  1  0  0  0  0
  6  9  1  0  0  0  0
 10 11  2  0  0  0  0
 11 12  1  0  0  0  0
 12  7  1  0  0  0  0
 13 14  1  0  0  0  0
 14 15  1  0  0  0  0
 15 11  1  0  0  0  0
 15 16  2  0  0  0  0
 16 17  1  0  0  0  0
 17 18  1  0  0  0  0
 18 12  2  0  0  0  0
 19 20  2  0  0  0  0
 20 21  1  0  0  0  0
 21 13  2  0  0  0  0
 19 22  1  0  0  0  0
 22 23  2  0  0  0  0
 23 24  1  0  0  0  0
 24 25  2  0  0  0  0
 25 20  1  0  0  0  0
  5 26  1  0  0  0  0
 26 27  2  0  0  0  0
 27 28  1  0  0  0  0
 28  9  2  0  0  0  0
 27 29  1  0  0  0  0
 14 30  2  0  0  0  0
 23 31  1  0  0  0  0
 18 32  1  0  0  0  0
 16 33  1  0  0  0  0
 17 34  1  0  0  0  0
 17 35  1  0  0  0  0
 35 36  1  0  0  0  0
 36 37  1  0  0  0  0
 37 38  1  0  0  0  0
 38 39  1  0  0  0  0
 39 40  1  0  0  0  0
 40 35  1  0  0  0  0
 40 41  1  6  0  0  0
 38 42  1  6  0  0  0
 39 43  1  1  0  0  0
 37 44  1  1  0  0  0
 44 45  1  0  0  0  0
 35 46  1  6  0  0  0
M  END
>  <cdx:fragmentId>
5

$$$$
