91803.cdx
  Mrv1902 05222410232D          

 14 15  0  0  0  0            999 V2000
    5.2960   -8.3926    0.0000 O   0  0  0  0  0  0  0  0  0  0  0  0
    7.8190   -6.4767    0.0000 H   0  0  0  0  0  0  0  0  0  0  0  0
    5.7187   -7.6841    0.0000 C   0  0  0  0  0  0  0  0  0  0  0  0
    7.0381   -7.0355    0.0000 C   0  0  2  0  0  0  0  0  0  0  0  0
    6.5436   -7.6960    0.0000 C   0  0  0  0  0  0  0  0  0  0  0  0
    7.0190   -8.3703    0.0000 C   0  0  0  0  0  0  0  0  0  0  0  0
    9.0825   -7.7323    0.0000 C   0  0  0  0  0  0  0  0  0  0  0  0
    8.6072   -7.0580    0.0000 C   0  0  0  0  0  0  0  0  0  0  0  0
    7.8190   -7.3017    0.0000 C   0  0  1  0  0  0  0  0  0  0  0  0
    7.8071   -8.1266    0.0000 C   0  0  1  0  0  0  0  0  0  0  0  0
    8.5880   -8.3928    0.0000 O   0  0  0  0  0  0  0  0  0  0  0  0
    7.7953   -8.9515    0.0000 H   0  0  0  0  0  0  0  0  0  0  0  0
    6.7944   -6.2473    0.0000 C   0  0  0  0  0  0  0  0  0  0  0  0
    5.9900   -6.0643    0.0000 O   0  0  0  0  0  0  0  0  0  0  0  0
  3  1  1  0  0  0  0
  9  2  1  6  0  0  0
  5  3  1  0  0  0  0
  4  9  1  0  0  0  0
  5  4  1  0  0  0  0
  6  5  2  0  0  0  0
 10  6  1  0  0  0  0
  7 11  1  0  0  0  0
  8  7  1  0  0  0  0
  9  8  1  0  0  0  0
 10  9  1  0  0  0  0
 11 10  1  0  0  0  0
 10 12  1  6  0  0  0
  4 13  1  1  0  0  0
 13 14  1  0  0  0  0
M  END
>  <cdx:fragmentId>
5

$$$$
