91805.cdx
  Mrv1902 05222410242D          

 24 23  0  0  0  0            999 V2000
    4.3949   -7.8803    0.0000 O   0  0  0  0  0  0  0  0  0  0  0  0
    2.2525   -9.9425    0.0000 C   0  0  0  0  0  0  0  0  0  0  0  0
    1.5380   -8.7055    0.0000 C   0  0  0  0  0  0  0  0  0  0  0  0
    2.2524   -9.1178    0.0000 C   0  0  0  0  0  0  0  0  0  0  0  0
    2.9665   -8.7053    0.0000 C   0  0  0  0  0  0  0  0  0  0  0  0
    3.6809   -9.1175    0.0000 N   0  0  0  0  0  0  0  0  0  0  0  0
    4.3950   -8.7050    0.0000 C   0  0  0  0  0  0  0  0  0  0  0  0
    5.1094   -9.1173    0.0000 C   0  0  0  0  0  0  0  0  0  0  0  0
    5.8235   -8.7048    0.0000 C   0  0  0  0  0  0  0  0  0  0  0  0
    6.5378   -9.1170    0.0000 C   0  0  0  0  0  0  0  0  0  0  0  0
    7.2520   -8.7045    0.0000 C   0  0  0  0  0  0  0  0  0  0  0  0
    7.9663   -9.1167    0.0000 C   0  0  0  0  0  0  0  0  0  0  0  0
    8.6805   -8.7042    0.0000 C   0  0  0  0  0  0  0  0  0  0  0  0
    9.3948   -9.1165    0.0000 C   0  0  0  0  0  0  0  0  0  0  0  0
   10.1090   -8.7040    0.0000 C   0  0  0  0  0  0  0  0  0  0  0  0
   10.8233   -9.1162    0.0000 C   0  0  0  0  0  0  0  0  0  0  0  0
   11.5375   -8.7037    0.0000 C   0  0  0  0  0  0  0  0  0  0  0  0
   12.2518   -9.1160    0.0000 C   0  0  0  0  0  0  0  0  0  0  0  0
   12.9660   -8.7035    0.0000 C   0  0  0  0  0  0  0  0  0  0  0  0
   13.6803   -9.1157    0.0000 C   0  0  0  0  0  0  0  0  0  0  0  0
   14.3945   -8.7032    0.0000 C   0  0  0  0  0  0  0  0  0  0  0  0
   15.1088   -9.1155    0.0000 C   0  0  0  0  0  0  0  0  0  0  0  0
   15.8230   -8.7030    0.0000 C   0  0  0  0  0  0  0  0  0  0  0  0
   16.5373   -9.1152    0.0000 C   0  0  0  0  0  0  0  0  0  0  0  0
  7  1  2  0  0  0  0
  4  2  1  0  0  0  0
  4  3  1  0  0  0  0
  5  4  1  0  0  0  0
  6  5  1  0  0  0  0
  7  6  1  0  0  0  0
  8  7  1  0  0  0  0
  9  8  2  0  0  0  0
 10  9  1  0  0  0  0
 11 10  2  0  0  0  0
 12 11  1  0  0  0  0
 13 12  1  0  0  0  0
 14 13  1  0  0  0  0
 15 14  1  0  0  0  0
 16 15  1  0  0  0  0
 17 16  1  0  0  0  0
 18 17  1  0  0  0  0
 19 18  2  0  0  0  0
 20 19  1  0  0  0  0
 21 20  1  0  0  0  0
 22 21  1  0  0  0  0
 23 22  1  0  0  0  0
 24 23  1  0  0  0  0
M  END
>  <cdx:fragmentId>
3

$$$$
