91809.cdx
  Mrv1902 05222410212D          

 16 15  0  0  0  0            999 V2000
    3.1028   -8.2775    0.0000 C   0  0  0  0  0  0  0  0  0  0  0  0
    5.2463   -6.2150    0.0000 O   0  0  0  0  0  0  0  0  0  0  0  0
    2.3884   -7.0400    0.0000 C   0  0  0  0  0  0  0  0  0  0  0  0
    3.1028   -7.4525    0.0000 C   0  0  0  0  0  0  0  0  0  0  0  0
    3.8173   -7.0400    0.0000 C   0  0  0  0  0  0  0  0  0  0  0  0
    4.5318   -7.4525    0.0000 N   0  0  0  0  0  0  0  0  0  0  0  0
    5.2463   -7.0400    0.0000 C   0  0  0  0  0  0  0  0  0  0  0  0
    5.9607   -7.4525    0.0000 C   0  0  0  0  0  0  0  0  0  0  0  0
    6.6752   -7.0400    0.0000 C   0  0  0  0  0  0  0  0  0  0  0  0
    7.3897   -7.4525    0.0000 C   0  0  0  0  0  0  0  0  0  0  0  0
    8.1041   -7.0400    0.0000 C   0  0  0  0  0  0  0  0  0  0  0  0
    8.8186   -7.4525    0.0000 C   0  0  0  0  0  0  0  0  0  0  0  0
    9.5331   -7.0400    0.0000 C   0  0  0  0  0  0  0  0  0  0  0  0
   10.2476   -7.4525    0.0000 C   0  0  0  0  0  0  0  0  0  0  0  0
   10.9620   -7.0400    0.0000 C   0  0  0  0  0  0  0  0  0  0  0  0
   11.6765   -7.4525    0.0000 C   0  0  0  0  0  0  0  0  0  0  0  0
  4  1  1  0  0  0  0
  7  2  2  0  0  0  0
  4  3  1  0  0  0  0
  5  4  1  0  0  0  0
  6  5  1  0  0  0  0
  7  6  1  0  0  0  0
  8  7  1  0  0  0  0
  9  8  2  0  0  0  0
 10  9  1  0  0  0  0
 11 10  2  0  0  0  0
 12 11  1  0  0  0  0
 13 12  1  0  0  0  0
 14 13  1  0  0  0  0
 15 14  1  0  0  0  0
 16 15  1  0  0  0  0
M  END
>  <cdx:fragmentId>
3

$$$$
