91810.cdx
  Mrv1902 05222410252D          

 18 17  0  0  0  0            999 V2000
   12.8992   -6.8888    0.0000 C   0  0  0  0  0  0  0  0  0  0  0  0
   12.1847   -6.4763    0.0000 C   0  0  0  0  0  0  0  0  0  0  0  0
   11.4702   -6.8888    0.0000 C   0  0  0  0  0  0  0  0  0  0  0  0
   10.7558   -6.4763    0.0000 C   0  0  0  0  0  0  0  0  0  0  0  0
   10.0413   -6.8888    0.0000 C   0  0  0  0  0  0  0  0  0  0  0  0
    9.3268   -6.4763    0.0000 C   0  0  0  0  0  0  0  0  0  0  0  0
    8.6124   -6.8888    0.0000 C   0  0  0  0  0  0  0  0  0  0  0  0
    7.8979   -6.4763    0.0000 C   0  0  0  0  0  0  0  0  0  0  0  0
    7.1834   -6.8888    0.0000 C   0  0  0  0  0  0  0  0  0  0  0  0
    6.4690   -6.4763    0.0000 C   0  0  0  0  0  0  0  0  0  0  0  0
    5.7545   -6.8888    0.0000 C   0  0  0  0  0  0  0  0  0  0  0  0
    5.0400   -6.4763    0.0000 C   0  0  0  0  0  0  0  0  0  0  0  0
    4.3255   -6.8888    0.0000 N   0  0  0  0  0  0  0  0  0  0  0  0
    3.6111   -6.4763    0.0000 C   0  0  0  0  0  0  0  0  0  0  0  0
    2.8966   -6.8888    0.0000 C   0  0  0  0  0  0  0  0  0  0  0  0
    2.1821   -6.4763    0.0000 C   0  0  0  0  0  0  0  0  0  0  0  0
    2.8966   -7.7138    0.0000 C   0  0  0  0  0  0  0  0  0  0  0  0
    5.0400   -5.6512    0.0000 O   0  0  0  0  0  0  0  0  0  0  0  0
  2  1  1  0  0  0  0
  3  2  1  0  0  0  0
  4  3  1  0  0  0  0
  5  4  1  0  0  0  0
  6  5  1  0  0  0  0
  7  6  1  0  0  0  0
  8  7  1  0  0  0  0
  9  8  2  0  0  0  0
 10  9  1  0  0  0  0
 11 10  2  0  0  0  0
 12 11  1  0  0  0  0
 13 12  1  0  0  0  0
 14 13  1  0  0  0  0
 15 14  1  0  0  0  0
 16 15  1  0  0  0  0
 15 17  1  0  0  0  0
 12 18  2  0  0  0  0
M  END
>  <cdx:fragmentId>
3

$$$$
