91816.cdx
  Mrv1902 05222410242D          

 25 28  0  0  0  0            999 V2000
    8.8949   -4.3023    0.0000 O   0  0  0  0  0  0  0  0  0  0  0  0
    8.9031   -5.1272    0.0000 C   0  0  0  0  0  0  0  0  0  0  0  0
    9.6217   -5.5326    0.0000 C   0  0  0  0  0  0  0  0  0  0  0  0
   10.3320   -5.1129    0.0000 O   0  0  0  0  0  0  0  0  0  0  0  0
    8.1928   -5.5468    0.0000 C   0  0  0  0  0  0  0  0  0  0  0  0
    8.2011   -6.3718    0.0000 C   0  0  0  0  0  0  0  0  0  0  0  0
    8.9196   -6.7771    0.0000 C   0  0  0  0  0  0  0  0  0  0  0  0
    9.6299   -6.3575    0.0000 C   0  0  0  0  0  0  0  0  0  0  0  0
    7.4907   -6.7914    0.0000 C   0  0  0  0  0  0  0  0  0  0  0  0
    7.4990   -7.6164    0.0000 N   0  3  0  0  0  0  0  0  0  0  0  0
    8.2176   -8.0217    0.0000 C   0  0  0  0  0  0  0  0  0  0  0  0
    8.9279   -7.6021    0.0000 C   0  0  0  0  0  0  0  0  0  0  0  0
    6.7722   -6.3861    0.0000 C   0  0  0  0  0  0  0  0  0  0  0  0
    6.0619   -6.8057    0.0000 C   0  0  0  0  0  0  0  0  0  0  0  0
    6.0701   -7.6307    0.0000 C   0  0  0  0  0  0  0  0  0  0  0  0
    6.7887   -8.0360    0.0000 C   0  0  0  0  0  0  0  0  0  0  0  0
    5.3433   -6.4004    0.0000 C   0  0  0  0  0  0  0  0  0  0  0  0
    4.6330   -6.8200    0.0000 C   0  0  0  0  0  0  0  0  0  0  0  0
    4.6413   -7.6450    0.0000 C   0  0  0  0  0  0  0  0  0  0  0  0
    5.3598   -8.0503    0.0000 C   0  0  0  0  0  0  0  0  0  0  0  0
    5.3681   -8.8752    0.0000 O   0  0  0  0  0  0  0  0  0  0  0  0
    3.9309   -8.0646    0.0000 O   0  0  0  0  0  0  0  0  0  0  0  0
    7.5072   -8.4413    0.0000 C   0  0  0  0  0  0  0  0  0  0  0  0
   10.3237   -4.2880    0.0000 C   0  0  0  0  0  0  0  0  0  0  0  0
    4.6578   -9.2949    0.0000 C   0  0  0  0  0  0  0  0  0  0  0  0
  1  2  1  0  0  0  0
  2  3  2  0  0  0  0
  3  4  1  0  0  0  0
  2  5  1  0  0  0  0
  5  6  2  0  0  0  0
  6  7  1  0  0  0  0
  7  8  2  0  0  0  0
  8  3  1  0  0  0  0
  6  9  1  0  0  0  0
  9 10  1  0  0  0  0
 10 11  1  0  0  0  0
 11 12  1  0  0  0  0
 12  7  1  0  0  0  0
 13  9  1  0  0  0  0
 13 14  1  0  0  0  0
 14 15  2  0  0  0  0
 15 16  1  0  0  0  0
 16 10  1  0  0  0  0
 14 17  1  0  0  0  0
 17 18  2  0  0  0  0
 18 19  1  0  0  0  0
 19 20  2  0  0  0  0
 20 15  1  0  0  0  0
 20 21  1  0  0  0  0
 19 22  1  0  0  0  0
 10 23  1  0  0  0  0
  4 24  1  0  0  0  0
 21 25  1  0  0  0  0
M  CHG  1  10   1
M  END
>  <cdx:fragmentId>
5

$$$$
