91819.cdx
  Mrv1902 05222410222D          

 16 17  0  0  0  0            999 V2000
    5.2077   -5.9125    0.0000 C   0  0  2  0  0  0  0  0  0  0  0  0
    5.2077   -6.7375    0.0000 C   0  0  0  0  0  0  0  0  0  0  0  0
    5.9221   -7.1500    0.0000 C   0  0  2  0  0  0  0  0  0  0  0  0
    6.6366   -6.7375    0.0000 C   0  0  1  0  0  0  0  0  0  0  0  0
    6.6366   -5.9125    0.0000 C   0  0  0  0  0  0  0  0  0  0  0  0
    5.9221   -5.5000    0.0000 C   0  0  0  0  0  0  0  0  0  0  0  0
    7.3511   -7.1500    0.0000 C   0  0  0  0  0  0  0  0  0  0  0  0
    8.0655   -6.7375    0.0000 C   0  0  0  0  0  0  0  0  0  0  0  0
    8.0655   -5.9125    0.0000 C   0  0  0  0  0  0  0  0  0  0  0  0
    7.3511   -5.5000    0.0000 C   0  0  0  0  0  0  0  0  0  0  0  0
    8.7800   -7.1500    0.0000 C   0  0  0  0  0  0  0  0  0  0  0  0
    9.4945   -6.7375    0.0000 C   0  0  0  0  0  0  0  0  0  0  0  0
    4.4932   -5.5000    0.0000 O   0  0  0  0  0  0  0  0  0  0  0  0
    8.7800   -7.9750    0.0000 C   0  0  0  0  0  0  0  0  0  0  0  0
    5.9221   -7.9750    0.0000 C   0  0  0  0  0  0  0  0  0  0  0  0
    6.6366   -7.5625    0.0000 C   0  0  0  0  0  0  0  0  0  0  0  0
  1  2  1  0  0  0  0
  2  3  1  0  0  0  0
  3  4  1  0  0  0  0
  4  5  1  0  0  0  0
  5  6  2  0  0  0  0
  6  1  1  0  0  0  0
  4  7  1  0  0  0  0
  7  8  1  0  0  0  0
  8  9  1  0  0  0  0
  9 10  1  0  0  0  0
 10  5  1  0  0  0  0
  8 11  1  0  0  0  0
 11 12  1  0  0  0  0
  1 13  1  1  0  0  0
 11 14  2  0  0  0  0
  3 15  1  6  0  0  0
  4 16  1  6  0  0  0
M  END
>  <cdx:fragmentId>
5

$$$$
