91812.cdx
  Mrv1902 05222410252D          

 28 32  0  0  0  0            999 V2000
    7.4352   -6.8750    0.0000 C   0  0  2  0  0  0  0  0  0  0  0  0
    7.4352   -7.7000    0.0000 C   0  0  1  0  0  0  0  0  0  0  0  0
    8.1496   -8.1125    0.0000 C   0  0  2  0  0  0  0  0  0  0  0  0
    8.8641   -7.7000    0.0000 C   0  0  1  0  0  0  0  0  0  0  0  0
    8.8641   -6.8750    0.0000 C   0  0  1  0  0  0  0  0  0  0  0  0
    8.1496   -6.4625    0.0000 C   0  0  2  0  0  0  0  0  0  0  0  0
    8.1496   -5.6375    0.0000 C   0  0  1  0  0  0  0  0  0  0  0  0
    6.7207   -5.6375    0.0000 C   0  0  0  0  0  0  0  0  0  0  0  0
    6.7207   -6.4625    0.0000 N   0  3  0  0  0  0  0  0  0  0  0  0
    9.5786   -6.4625    0.0000 C   0  0  0  0  0  0  0  0  0  0  0  0
    9.5786   -5.6375    0.0000 C   0  0  0  0  0  0  0  0  0  0  0  0
    7.4352   -8.5250    0.0000 O   0  0  0  0  0  0  0  0  0  0  0  0
    8.8641   -8.5250    0.0000 C   0  0  0  0  0  0  0  0  0  0  0  0
    9.4475   -9.1084    0.0000 O   0  0  0  0  0  0  0  0  0  0  0  0
    5.9316   -6.2218    0.0000 C   0  0  0  0  0  0  0  0  0  0  0  0
    5.3286   -6.7848    0.0000 C   0  0  0  0  0  0  0  0  0  0  0  0
    4.5395   -6.5440    0.0000 C   0  0  0  0  0  0  0  0  0  0  0  0
    3.9364   -7.1070    0.0000 C   0  0  0  0  0  0  0  0  0  0  0  0
    4.3534   -5.7403    0.0000 C   0  0  0  0  0  0  0  0  0  0  0  0
    8.1496   -8.9375    0.0000 C   0  0  0  0  0  0  0  0  0  0  0  0
    8.8641   -9.3500    0.0000 C   0  0  0  0  0  0  0  0  0  0  0  0
    7.4352   -9.3500    0.0000 C   0  0  0  0  0  0  0  0  0  0  0  0
    8.1496   -4.8125    0.0000 H   0  0  0  0  0  0  0  0  0  0  0  0
    8.8641   -6.0500    0.0000 C   0  0  0  0  0  0  0  0  0  0  0  0
    9.5786   -7.2875    0.0000 H   0  0  0  0  0  0  0  0  0  0  0  0
    6.1076   -7.0145    0.0000 C   0  0  0  0  0  0  0  0  0  0  0  0
    6.4431   -7.7682    0.0000 C   0  0  0  0  0  0  0  0  0  0  0  0
    7.2636   -7.6820    0.0000 O   0  0  0  0  0  0  0  0  0  0  0  0
  1  2  1  0  0  0  0
  2  3  1  0  0  0  0
  3  4  1  0  0  0  0
  4  5  1  0  0  0  0
  5  6  1  0  0  0  0
  6  1  1  0  0  0  0
  6  7  1  0  0  0  0
  8  9  1  0  0  0  0
  9  1  1  0  0  0  0
  5 10  1  0  0  0  0
 10 11  1  0  0  0  0
  8  7  1  0  0  0  0
  7 11  1  0  0  0  0
  2 12  1  1  0  0  0
  4 13  1  1  0  0  0
 13 14  2  0  0  0  0
  9 15  1  0  0  0  0
 15 16  2  0  0  0  0
 16 17  1  0  0  0  0
 17 18  1  0  0  0  0
 17 19  1  0  0  0  0
  3 20  1  6  0  0  0
 12 13  1  0  0  0  0
 20 21  1  0  0  0  0
 20 22  1  0  0  0  0
  7 23  1  6  0  0  0
  6 24  1  6  0  0  0
  5 25  1  6  0  0  0
  9 26  1  0  0  0  0
 26 27  1  0  0  0  0
 27 28  1  0  0  0  0
  1 28  1  6  0  0  0
M  CHG  1   9   1
M  END
>  <cdx:fragmentId>
5

$$$$
