91818.cdx
  Mrv1902 05222410222D          

 34 38  0  0  0  0            999 V2000
    5.6477   -4.0287    0.0000 C   0  0  0  0  0  0  0  0  0  0  0  0
    5.6477   -4.8538    0.0000 C   0  0  0  0  0  0  0  0  0  0  0  0
    6.3621   -5.2663    0.0000 C   0  0  0  0  0  0  0  0  0  0  0  0
    7.0766   -4.8538    0.0000 C   0  0  0  0  0  0  0  0  0  0  0  0
    7.0766   -4.0287    0.0000 C   0  0  0  0  0  0  0  0  0  0  0  0
    6.3621   -3.6163    0.0000 C   0  0  0  0  0  0  0  0  0  0  0  0
    6.3621   -6.0912    0.0000 C   0  0  2  0  0  0  0  0  0  0  0  0
    7.0766   -6.5037    0.0000 C   0  0  0  0  0  0  0  0  0  0  0  0
    7.7911   -6.0912    0.0000 C   0  0  1  0  0  0  0  0  0  0  0  0
    7.7911   -5.2663    0.0000 C   0  0  0  0  0  0  0  0  0  0  0  0
    5.6477   -6.5037    0.0000 C   0  0  0  0  0  0  0  0  0  0  0  0
    5.6477   -7.3287    0.0000 C   0  0  0  0  0  0  0  0  0  0  0  0
    6.3621   -7.7412    0.0000 C   0  0  0  0  0  0  0  0  0  0  0  0
    7.0766   -7.3287    0.0000 C   0  0  0  0  0  0  0  0  0  0  0  0
    7.7911   -7.7412    0.0000 O   0  0  0  0  0  0  0  0  0  0  0  0
    8.5055   -7.3287    0.0000 C   0  0  1  0  0  0  0  0  0  0  0  0
    8.5055   -6.5037    0.0000 N   0  0  0  0  0  0  0  0  0  0  0  0
    7.7911   -8.5662    0.0000 C   0  0  1  0  0  0  0  0  0  0  0  0
    8.5055   -8.9787    0.0000 C   0  0  2  0  0  0  0  0  0  0  0  0
    9.2200   -8.5662    0.0000 C   0  0  1  0  0  0  0  0  0  0  0  0
    9.2200   -7.7412    0.0000 C   0  0  1  0  0  0  0  0  0  0  0  0
    4.9332   -3.6163    0.0000 O   0  0  0  0  0  0  0  0  0  0  0  0
    4.2187   -4.0287    0.0000 C   0  0  0  0  0  0  0  0  0  0  0  0
    4.9332   -5.2662    0.0000 O   0  0  0  0  0  0  0  0  0  0  0  0
    4.9332   -7.7412    0.0000 O   0  0  0  0  0  0  0  0  0  0  0  0
    4.9332   -8.5662    0.0000 C   0  0  0  0  0  0  0  0  0  0  0  0
    6.3621   -8.5662    0.0000 O   0  0  0  0  0  0  0  0  0  0  0  0
    7.0766   -8.9787    0.0000 C   0  0  0  0  0  0  0  0  0  0  0  0
    9.9345   -8.9787    0.0000 O   0  0  0  0  0  0  0  0  0  0  0  0
    9.9345   -7.3287    0.0000 O   0  0  0  0  0  0  0  0  0  0  0  0
    8.5055   -9.8037    0.0000 O   0  0  0  0  0  0  0  0  0  0  0  0
    7.0766   -9.8037    0.0000 O   0  0  0  0  0  0  0  0  0  0  0  0
    7.0766   -5.6788    0.0000 C   0  0  0  0  0  0  0  0  0  0  0  0
    8.0850   -5.6925    0.0000 C   0  0  0  0  0  0  0  0  0  0  0  0
  1  2  2  0  0  0  0
  2  3  1  0  0  0  0
  3  4  2  0  0  0  0
  4  5  1  0  0  0  0
  5  6  2  0  0  0  0
  6  1  1  0  0  0  0
  3  7  1  0  0  0  0
  7  8  1  0  0  0  0
  8  9  1  0  0  0  0
  9 10  1  0  0  0  0
 10  4  1  0  0  0  0
  7 11  1  0  0  0  0
 11 12  2  0  0  0  0
 12 13  1  0  0  0  0
 13 14  1  0  0  0  0
 14  8  2  0  0  0  0
 15 16  1  0  0  0  0
 16 17  1  1  0  0  0
  9 17  1  1  0  0  0
 15 18  1  0  0  0  0
 18 19  1  0  0  0  0
 19 20  1  0  0  0  0
 20 21  1  0  0  0  0
 21 16  1  0  0  0  0
  1 22  1  0  0  0  0
 22 23  1  0  0  0  0
 24  2  1  0  0  0  0
 12 25  1  0  0  0  0
 25 26  1  0  0  0  0
 27 13  2  0  0  0  0
 18 28  1  1  0  0  0
 20 29  1  1  0  0  0
 21 30  1  6  0  0  0
 19 31  1  6  0  0  0
 28 32  1  0  0  0  0
  7 33  1  1  0  0  0
 34 17  1  1  0  0  0
 33 34  1  1  0  0  0
M  END
>  <cdx:fragmentId>
5

$$$$
