91814.cdx
  Mrv1902 05222410242D          

 23 26  0  0  0  0            999 V2000
    7.4352   -6.8750    0.0000 C   0  0  2  0  0  0  0  0  0  0  0  0
    7.4352   -7.7000    0.0000 C   0  0  1  0  0  0  0  0  0  0  0  0
    8.1496   -8.1125    0.0000 C   0  0  2  0  0  0  0  0  0  0  0  0
    8.8641   -7.7000    0.0000 C   0  0  1  0  0  0  0  0  0  0  0  0
    8.8641   -6.8750    0.0000 C   0  0  1  0  0  0  0  0  0  0  0  0
    8.1496   -6.4625    0.0000 C   0  0  2  0  0  0  0  0  0  0  0  0
    8.1496   -5.6375    0.0000 C   0  0  1  0  0  0  0  0  0  0  0  0
    6.7207   -5.6375    0.0000 C   0  0  0  0  0  0  0  0  0  0  0  0
    6.7207   -6.4625    0.0000 N   0  3  0  0  0  0  0  0  0  0  0  0
    9.5786   -6.4625    0.0000 C   0  0  0  0  0  0  0  0  0  0  0  0
    9.5786   -5.6375    0.0000 C   0  0  0  0  0  0  0  0  0  0  0  0
    7.4352   -8.5250    0.0000 O   0  0  0  0  0  0  0  0  0  0  0  0
    8.8641   -8.5250    0.0000 C   0  0  0  0  0  0  0  0  0  0  0  0
    9.4475   -9.1084    0.0000 O   0  0  0  0  0  0  0  0  0  0  0  0
    8.1496   -8.9375    0.0000 C   0  0  0  0  0  0  0  0  0  0  0  0
    8.8641   -9.3500    0.0000 C   0  0  0  0  0  0  0  0  0  0  0  0
    7.4352   -9.3500    0.0000 C   0  0  0  0  0  0  0  0  0  0  0  0
    8.1496   -4.8125    0.0000 H   0  0  0  0  0  0  0  0  0  0  0  0
    8.8641   -6.0500    0.0000 C   0  0  0  0  0  0  0  0  0  0  0  0
    9.5786   -7.2875    0.0000 H   0  0  0  0  0  0  0  0  0  0  0  0
    6.7207   -7.2875    0.0000 H   0  0  0  0  0  0  0  0  0  0  0  0
    6.0062   -6.0500    0.0000 C   0  0  0  0  0  0  0  0  0  0  0  0
    6.0062   -6.8750    0.0000 C   0  0  0  0  0  0  0  0  0  0  0  0
  1  2  1  0  0  0  0
  2  3  1  0  0  0  0
  3  4  1  0  0  0  0
  4  5  1  0  0  0  0
  5  6  1  0  0  0  0
  6  1  1  0  0  0  0
  6  7  1  0  0  0  0
  8  9  1  0  0  0  0
  9  1  1  0  0  0  0
  5 10  1  0  0  0  0
 10 11  1  0  0  0  0
  8  7  1  0  0  0  0
  7 11  1  0  0  0  0
  2 12  1  1  0  0  0
  4 13  1  1  0  0  0
 13 14  2  0  0  0  0
  3 15  1  6  0  0  0
 12 13  1  0  0  0  0
 15 16  1  0  0  0  0
 15 17  1  0  0  0  0
  7 18  1  6  0  0  0
  6 19  1  6  0  0  0
  5 20  1  6  0  0  0
  1 21  1  6  0  0  0
  9 22  1  0  0  0  0
  9 23  1  0  0  0  0
M  CHG  1   9   1
M  END
>  <cdx:fragmentId>
5

$$$$
