91820.cdx
  Mrv1902 05222410212D          

 35 39  0  0  0  0            999 V2000
    5.5271   -8.7660    0.0000 C   0  0  1  0  0  0  0  0  0  0  0  0
    5.9503   -9.4742    0.0000 C   0  0  1  0  0  0  0  0  0  0  0  0
    6.7752   -9.4618    0.0000 C   0  0  2  0  0  0  0  0  0  0  0  0
    7.1769   -8.7412    0.0000 C   0  0  2  0  0  0  0  0  0  0  0  0
    6.7537   -8.0330    0.0000 C   0  0  1  0  0  0  0  0  0  0  0  0
    5.9288   -8.0454    0.0000 C   0  0  1  0  0  0  0  0  0  0  0  0
    5.3676   -7.4407    0.0000 C   0  0  1  0  0  0  0  0  0  0  0  0
    4.6191   -7.7875    0.0000 C   0  0  0  0  0  0  0  0  0  0  0  0
    4.7176   -8.6066    0.0000 O   0  0  0  0  0  0  0  0  0  0  0  0
    7.9812   -8.5575    0.0000 N   0  3  0  0  0  0  0  0  0  0  0  0
    8.0551   -7.7358    0.0000 C   0  0  1  0  0  0  0  0  0  0  0  0
    7.2965   -7.4116    0.0000 C   0  0  0  0  0  0  0  0  0  0  0  0
    7.0881  -10.2251    0.0000 C   0  0  0  0  0  0  0  0  0  0  0  0
    7.8801  -10.4564    0.0000 C   0  0  0  0  0  0  0  0  0  0  0  0
    8.5546   -9.9814    0.0000 C   0  0  0  0  0  0  0  0  0  0  0  0
    8.6039   -9.1579    0.0000 C   0  0  0  0  0  0  0  0  0  0  0  0
    8.2416   -6.6735    0.0000 H   0  0  0  0  0  0  0  0  0  0  0  0
   10.8864   -7.0894    0.0000 C   0  0  0  0  0  0  0  0  0  0  0  0
    9.9656   -5.5486    0.0000 O   0  0  0  0  0  0  0  0  0  0  0  0
    3.8985   -7.3858    0.0000 O   0  0  0  0  0  0  0  0  0  0  0  0
    5.5486  -10.1948    0.0000 C   0  0  0  0  0  0  0  0  0  0  0  0
    4.7237  -10.2072    0.0000 C   0  0  0  0  0  0  0  0  0  0  0  0
    9.5219   -7.6368    0.0000 C   0  0  0  0  0  0  0  0  0  0  0  0
    5.5270   -6.6312    0.0000 C   0  0  0  0  0  0  0  0  0  0  0  0
    6.5402   -7.2361    0.0000 H   0  0  0  0  0  0  0  0  0  0  0  0
    6.3735  -10.1824    0.0000 H   0  0  0  0  0  0  0  0  0  0  0  0
    7.8416   -6.9389    0.0000 H   0  0  0  0  0  0  0  0  0  0  0  0
   10.0647   -7.0155    0.0000 C   0  0  1  0  0  0  0  0  0  0  0  0
    9.6415   -6.3073    0.0000 C   0  0  0  0  0  0  0  0  0  0  0  0
    6.1423   -7.2485    0.0000 H   0  0  0  0  0  0  0  0  0  0  0  0
    5.0523   -9.4406    0.0000 H   0  0  0  0  0  0  0  0  0  0  0  0
    7.5894   -8.0267    0.0000 H   0  0  0  0  0  0  0  0  0  0  0  0
    8.8372   -6.4909    0.0000 O   0  0  0  0  0  0  0  0  0  0  0  0
    8.7633   -7.3126    0.0000 C   0  0  2  0  0  0  0  0  0  0  0  0
    8.7781   -8.3440    0.0000 O   0  5  0  0  0  0  0  0  0  0  0  0
  1  2  1  0  0  0  0
  2  3  1  0  0  0  0
  3  4  1  0  0  0  0
  4  5  1  0  0  0  0
  5  6  1  0  0  0  0
  6  1  1  0  0  0  0
  6  7  1  0  0  0  0
  7  8  1  0  0  0  0
  8  9  1  0  0  0  0
  9  1  1  0  0  0  0
  4 10  1  0  0  0  0
 10 11  1  0  0  0  0
 11 12  1  0  0  0  0
 12  5  1  0  0  0  0
  3 13  1  0  0  0  0
 13 14  1  0  0  0  0
 14 15  1  0  0  0  0
 15 16  1  0  0  0  0
 16 10  1  0  0  0  0
 34 17  1  6  0  0  0
 11 34  1  0  0  0  0
 28 18  1  1  0  0  0
 29 19  2  0  0  0  0
 23 34  1  0  0  0  0
 28 23  1  0  0  0  0
 29 28  1  0  0  0  0
 33 29  1  0  0  0  0
  8 20  2  0  0  0  0
  2 21  1  1  0  0  0
 21 22  1  0  0  0  0
 34 33  1  0  0  0  0
  7 24  1  1  0  0  0
  5 25  1  6  0  0  0
  3 26  1  1  0  0  0
 11 27  1  6  0  0  0
  6 30  1  1  0  0  0
  1 31  1  1  0  0  0
  4 32  1  1  0  0  0
 10 35  1  0  0  0  0
M  CHG  2  10   1  35  -1
M  END
>  <cdx:fragmentId>
5

$$$$
