91825.cdx
  Mrv1902 05222410222D          

 40 42  0  0  0  0            999 V2000
    6.0752   -7.0215    0.0000 C   0  0  0  0  0  0  0  0  0  0  0  0
    5.6627   -7.7360    0.0000 C   0  0  0  0  0  0  0  0  0  0  0  0
    6.4560   -7.5093    0.0000 C   0  0  0  0  0  0  0  0  0  0  0  0
    7.2540   -7.7185    0.0000 C   0  0  0  0  0  0  0  0  0  0  0  0
    7.6666   -7.0040    0.0000 C   0  0  0  0  0  0  0  0  0  0  0  0
    6.8733   -7.2307    0.0000 C   0  0  0  0  0  0  0  0  0  0  0  0
    8.4635   -7.2175    0.0000 C   0  0  0  0  0  0  0  0  0  0  0  0
    9.0469   -6.6342    0.0000 C   0  0  0  0  0  0  0  0  0  0  0  0
    9.8437   -6.8477    0.0000 C   0  0  0  0  0  0  0  0  0  0  0  0
   10.4271   -6.2643    0.0000 C   0  0  0  0  0  0  0  0  0  0  0  0
   10.0573   -7.6446    0.0000 C   0  0  0  0  0  0  0  0  0  0  0  0
    7.4675   -8.5154    0.0000 C   0  0  0  0  0  0  0  0  0  0  0  0
    8.0509   -7.9320    0.0000 C   0  0  0  0  0  0  0  0  0  0  0  0
    8.2644   -8.7289    0.0000 C   0  0  0  0  0  0  0  0  0  0  0  0
    9.0613   -8.9424    0.0000 C   0  0  0  0  0  0  0  0  0  0  0  0
    9.2748   -9.7393    0.0000 C   0  0  0  0  0  0  0  0  0  0  0  0
   10.0717   -9.9528    0.0000 C   0  0  0  0  0  0  0  0  0  0  0  0
    8.6915  -10.3227    0.0000 C   0  0  0  0  0  0  0  0  0  0  0  0
    5.0124   -8.2436    0.0000 O   0  0  0  0  0  0  0  0  0  0  0  0
    6.0435   -8.2238    0.0000 C   0  0  0  0  0  0  0  0  0  0  0  0
    6.4560   -8.9382    0.0000 C   0  0  0  0  0  0  0  0  0  0  0  0
    5.3290   -8.6363    0.0000 O   0  0  0  0  0  0  0  0  0  0  0  0
    6.0435   -9.6527    0.0000 C   0  0  0  0  0  0  0  0  0  0  0  0
    7.2810   -8.9382    0.0000 C   0  0  0  0  0  0  0  0  0  0  0  0
    5.3607   -6.6090    0.0000 C   0  0  0  0  0  0  0  0  0  0  0  0
    6.0752   -6.1965    0.0000 C   0  0  0  0  0  0  0  0  0  0  0  0
    4.6463   -7.0215    0.0000 C   0  0  0  0  0  0  0  0  0  0  0  0
    5.0935   -6.0459    0.0000 O   0  0  0  0  0  0  0  0  0  0  0  0
    3.9318   -6.6090    0.0000 C   0  0  0  0  0  0  0  0  0  0  0  0
    3.2173   -7.0215    0.0000 C   0  0  0  0  0  0  0  0  0  0  0  0
    3.9318   -5.7840    0.0000 C   0  0  0  0  0  0  0  0  0  0  0  0
    3.2173   -6.1965    0.0000 O   0  0  0  0  0  0  0  0  0  0  0  0
    6.6518   -5.6065    0.0000 C   0  0  0  0  0  0  0  0  0  0  0  0
    7.2351   -6.1898    0.0000 C   0  0  0  0  0  0  0  0  0  0  0  0
    8.0536   -6.0862    0.0000 O   0  0  0  0  0  0  0  0  0  0  0  0
    6.6470   -4.7815    0.0000 C   0  0  0  0  0  0  0  0  0  0  0  0
    7.3591   -4.3649    0.0000 C   0  0  0  0  0  0  0  0  0  0  0  0
    7.3543   -3.5399    0.0000 C   0  0  0  0  0  0  0  0  0  0  0  0
    8.0664   -3.1233    0.0000 C   0  0  0  0  0  0  0  0  0  0  0  0
    6.6375   -3.1315    0.0000 C   0  0  0  0  0  0  0  0  0  0  0  0
  1  2  1  0  0  0  0
  2  3  1  0  0  0  0
  3  4  1  0  0  0  0
  4  5  1  0  0  0  0
  5  6  1  0  0  0  0
  6  1  1  0  0  0  0
  5  7  1  0  0  0  0
  7  8  1  0  0  0  0
  8  9  2  0  0  0  0
  9 10  1  0  0  0  0
  9 11  1  0  0  0  0
  4 12  1  0  0  0  0
  4 13  1  0  0  0  0
 13 14  1  0  0  0  0
 14 15  1  0  0  0  0
 15 16  2  0  0  0  0
 16 17  1  0  0  0  0
 16 18  1  0  0  0  0
  2 19  2  0  0  0  0
  3 20  1  0  0  0  0
 20 21  1  0  0  0  0
 20 22  2  0  0  0  0
 21 23  1  0  0  0  0
 21 24  1  0  0  0  0
  1 25  1  0  0  0  0
  1 26  1  0  0  0  0
 25 27  1  0  0  0  0
 27 28  1  0  0  0  0
 27 29  1  0  0  0  0
 29 30  1  0  0  0  0
 29 31  1  0  0  0  0
 29 32  1  0  0  0  0
 28 26  1  0  0  0  0
 26 33  2  0  0  0  0
 33 34  1  0  0  0  0
 34  3  1  0  0  0  0
 34 35  2  0  0  0  0
 33 36  1  0  0  0  0
 36 37  1  0  0  0  0
 37 38  2  0  0  0  0
 38 39  1  0  0  0  0
 38 40  1  0  0  0  0
M  END
>  <cdx:fragmentId>
30

$$$$
