91829.cdx
  Mrv1902 05222410242D          

 12 13  0  0  0  0            999 V2000
    6.8333   -6.8289    0.0000 C   0  0  0  0  0  0  0  0  0  0  0  0
    8.0563   -6.3673    0.0000 C   0  0  0  0  0  0  0  0  0  0  0  0
    9.2655   -6.7189    0.0000 C   0  0  0  0  0  0  0  0  0  0  0  0
    9.6792   -6.0052    0.0000 C   0  0  0  0  0  0  0  0  0  0  0  0
    6.6694   -6.1565    0.0000 C   0  0  0  0  0  0  0  0  0  0  0  0
    8.4699   -5.6536    0.0000 C   0  0  0  0  0  0  0  0  0  0  0  0
    8.0577   -4.9399    0.0000 C   0  0  0  0  0  0  0  0  0  0  0  0
    6.2499   -7.4123    0.0000 C   0  0  0  0  0  0  0  0  0  0  0  0
    7.2807   -7.5221    0.0000 C   0  0  0  0  0  0  0  0  0  0  0  0
    5.9575   -5.7396    0.0000 C   0  0  0  0  0  0  0  0  0  0  0  0
    5.2405   -6.1477    0.0000 C   0  0  0  0  0  0  0  0  0  0  0  0
    4.5286   -5.7309    0.0000 O   0  0  0  0  0  0  0  0  0  0  0  0
  1  2  1  0  0  0  0
  2  3  1  0  0  0  0
  3  4  1  0  0  0  0
  1  5  1  0  0  0  0
  5  6  1  0  0  0  0
  4  6  1  0  0  0  0
  6  7  1  0  0  0  0
  2  7  1  0  0  0  0
  1  8  1  0  0  0  0
  1  9  1  0  0  0  0
  5 10  2  0  0  0  0
 10 11  1  0  0  0  0
 11 12  1  0  0  0  0
M  END
>  <cdx:fragmentId>
800

$$$$
