91824.cdx
  Mrv1902 05222410222D          

 32 35  0  0  0  0            999 V2000
    3.4477   -8.1400    0.0000 C   0  0  0  0  0  0  0  0  0  0  0  0
    3.4477   -8.9650    0.0000 C   0  0  0  0  0  0  0  0  0  0  0  0
    4.1621   -9.3775    0.0000 C   0  0  0  0  0  0  0  0  0  0  0  0
    4.8766   -8.9650    0.0000 C   0  0  0  0  0  0  0  0  0  0  0  0
    4.8766   -8.1400    0.0000 C   0  0  0  0  0  0  0  0  0  0  0  0
    4.1621   -7.7275    0.0000 O   0  0  0  0  0  0  0  0  0  0  0  0
    5.5911   -9.3775    0.0000 C   0  0  0  0  0  0  0  0  0  0  0  0
    6.3055   -8.9650    0.0000 C   0  0  0  0  0  0  0  0  0  0  0  0
    6.3055   -8.1400    0.0000 C   0  0  0  0  0  0  0  0  0  0  0  0
    5.5911   -7.7275    0.0000 C   0  0  0  0  0  0  0  0  0  0  0  0
    7.0200   -9.3775    0.0000 C   0  0  0  0  0  0  0  0  0  0  0  0
    7.7345   -8.9650    0.0000 C   0  0  0  0  0  0  0  0  0  0  0  0
    7.7345   -8.1400    0.0000 C   0  0  0  0  0  0  0  0  0  0  0  0
    7.0200   -7.7275    0.0000 O   0  0  0  0  0  0  0  0  0  0  0  0
    5.5911  -10.2025    0.0000 O   0  0  0  0  0  0  0  0  0  0  0  0
    7.0200  -10.2025    0.0000 O   0  0  0  0  0  0  0  0  0  0  0  0
    9.1634   -8.9650    0.0000 O   0  0  0  0  0  0  0  0  0  0  0  0
    9.1634   -8.1400    0.0000 C   0  0  0  0  0  0  0  0  0  0  0  0
    8.4490   -7.7275    0.0000 C   0  0  0  0  0  0  0  0  0  0  0  0
    9.8779   -7.7275    0.0000 C   0  0  0  0  0  0  0  0  0  0  0  0
    9.8779   -6.9025    0.0000 C   0  0  0  0  0  0  0  0  0  0  0  0
    9.1634   -6.4900    0.0000 C   0  0  0  0  0  0  0  0  0  0  0  0
    8.4490   -6.9025    0.0000 C   0  0  0  0  0  0  0  0  0  0  0  0
    6.3055   -6.4900    0.0000 C   0  0  0  0  0  0  0  0  0  0  0  0
    5.5911   -6.9025    0.0000 C   0  0  0  0  0  0  0  0  0  0  0  0
    6.3055   -5.6650    0.0000 C   0  0  0  0  0  0  0  0  0  0  0  0
    5.5911   -5.2525    0.0000 C   0  0  0  0  0  0  0  0  0  0  0  0
    7.0200   -5.2525    0.0000 C   0  0  0  0  0  0  0  0  0  0  0  0
    2.6508   -8.3535    0.0000 C   0  0  0  0  0  0  0  0  0  0  0  0
    3.1319   -7.3778    0.0000 C   0  0  0  0  0  0  0  0  0  0  0  0
    7.7345   -6.4900    0.0000 O   0  0  0  0  0  0  0  0  0  0  0  0
    4.8766  -10.6150    0.0000 C   0  0  0  0  0  0  0  0  0  0  0  0
  1  2  1  0  0  0  0
  2  3  2  0  0  0  0
  3  4  1  0  0  0  0
  4  5  2  0  0  0  0
  5  6  1  0  0  0  0
  6  1  1  0  0  0  0
  4  7  1  0  0  0  0
  7  8  2  0  0  0  0
  8  9  1  0  0  0  0
  9 10  2  0  0  0  0
 10  5  1  0  0  0  0
  8 11  1  0  0  0  0
 11 12  1  0  0  0  0
 12 13  1  0  0  0  0
 13 14  1  0  0  0  0
 14  9  1  0  0  0  0
  7 15  1  0  0  0  0
 16 11  2  0  0  0  0
 17 18  1  0  0  0  0
 18 19  2  0  0  0  0
 19 13  1  0  0  0  0
 18 20  1  0  0  0  0
 20 21  2  0  0  0  0
 21 22  1  0  0  0  0
 22 23  2  0  0  0  0
 23 19  1  0  0  0  0
 24 25  1  0  0  0  0
 25 10  1  0  0  0  0
 24 26  2  0  0  0  0
 26 27  1  0  0  0  0
 26 28  1  0  0  0  0
  1 29  1  0  0  0  0
  1 30  1  0  0  0  0
 23 31  1  0  0  0  0
 15 32  1  0  0  0  0
M  END
>  <cdx:fragmentId>
5

$$$$
