91828.cdx
  Mrv1902 05222410242D          

 23 23  0  0  0  0            999 V2000
    9.5640   -3.5887    0.0000 O   0  0  0  0  0  0  0  0  0  0  0  0
    8.1351   -4.4138    0.0000 O   0  0  0  0  0  0  0  0  0  0  0  0
    9.5640   -4.4138    0.0000 C   0  0  0  0  0  0  0  0  0  0  0  0
    9.5640   -6.0638    0.0000 O   0  0  0  0  0  0  0  0  0  0  0  0
    4.5627   -7.3012    0.0000 O   0  0  0  0  0  0  0  0  0  0  0  0
    8.8496   -4.8263    0.0000 C   0  0  2  0  0  0  0  0  0  0  0  0
    7.4206   -5.6512    0.0000 O   0  0  0  0  0  0  0  0  0  0  0  0
    8.8496   -5.6512    0.0000 C   0  0  2  0  0  0  0  0  0  0  0  0
    8.1351   -6.0638    0.0000 C   0  0  1  0  0  0  0  0  0  0  0  0
    8.8496   -7.3012    0.0000 O   0  0  0  0  0  0  0  0  0  0  0  0
    8.1351   -6.8888    0.0000 C   0  0  2  0  0  0  0  0  0  0  0  0
    7.4206   -7.3012    0.0000 C   0  0  0  0  0  0  0  0  0  0  0  0
    7.4206   -9.7762    0.0000 O   0  0  0  0  0  0  0  0  0  0  0  0
    7.4206   -8.1262    0.0000 O   0  0  0  0  0  0  0  0  0  0  0  0
    6.7061   -9.3637    0.0000 C   0  0  1  0  0  0  0  0  0  0  0  0
    6.7061   -8.5387    0.0000 C   0  0  2  0  0  0  0  0  0  0  0  0
    5.9917   -8.1262    0.0000 O   0  0  0  0  0  0  0  0  0  0  0  0
    5.2772   -8.5387    0.0000 C   0  0  2  0  0  0  0  0  0  0  0  0
    4.5627   -8.1263    0.0000 C   0  0  0  0  0  0  0  0  0  0  0  0
    5.9917  -10.6012    0.0000 O   0  0  0  0  0  0  0  0  0  0  0  0
    5.9917   -9.7762    0.0000 C   0  0  1  0  0  0  0  0  0  0  0  0
    5.2772   -9.3637    0.0000 C   0  0  2  0  0  0  0  0  0  0  0  0
    4.5627   -9.7762    0.0000 O   0  0  0  0  0  0  0  0  0  0  0  0
  3  1  1  0  0  0  0
  6  2  1  6  0  0  0
  6  3  1  0  0  0  0
  8  4  1  1  0  0  0
 19  5  1  0  0  0  0
  6  8  1  0  0  0  0
  9  7  1  1  0  0  0
  9  8  1  0  0  0  0
 11  9  1  0  0  0  0
 11 10  1  6  0  0  0
 12 11  1  0  0  0  0
 14 12  1  0  0  0  0
 15 13  1  6  0  0  0
 16 14  1  6  0  0  0
 15 21  1  0  0  0  0
 16 15  1  0  0  0  0
 17 16  1  0  0  0  0
 18 17  1  0  0  0  0
 18 22  1  0  0  0  0
 18 19  1  1  0  0  0
 21 20  1  1  0  0  0
 22 21  1  0  0  0  0
 22 23  1  6  0  0  0
M  END
>  <cdx:fragmentId>
105

$$$$
