91822.cdx
  Mrv1902 05222410202D          

 37 40  0  0  0  0            999 V2000
    5.5794   -7.8375    0.0000 O   0  0  0  0  0  0  0  0  0  0  0  0
   13.4386   -8.2500    0.0000 O   0  0  0  0  0  0  0  0  0  0  0  0
   14.1531   -7.8375    0.0000 C   0  0  0  0  0  0  0  0  0  0  0  0
   12.0097   -8.2500    0.0000 C   0  0  0  0  0  0  0  0  0  0  0  0
   12.7241   -7.8375    0.0000 C   0  0  0  0  0  0  0  0  0  0  0  0
   12.7241   -7.0125    0.0000 C   0  0  0  0  0  0  0  0  0  0  0  0
   12.0097   -6.6000    0.0000 C   0  0  0  0  0  0  0  0  0  0  0  0
    9.8663   -7.8375    0.0000 O   0  0  0  0  0  0  0  0  0  0  0  0
   11.2952   -7.8375    0.0000 C   0  0  0  0  0  0  0  0  0  0  0  0
   11.2952   -7.0125    0.0000 C   0  0  0  0  0  0  0  0  0  0  0  0
    2.7215   -4.5375    0.0000 O   0  0  0  0  0  0  0  0  0  0  0  0
    1.2926   -4.5375    0.0000 O   0  0  0  0  0  0  0  0  0  0  0  0
    1.2926   -5.3625    0.0000 C   0  0  0  0  0  0  0  0  0  0  0  0
    0.5781   -5.7750    0.0000 O   0  0  0  0  0  0  0  0  0  0  0  0
    2.7215   -5.3625    0.0000 C   0  0  0  0  0  0  0  0  0  0  0  0
    2.0071   -5.7750    0.0000 C   0  0  0  0  0  0  0  0  0  0  0  0
    4.1505   -5.3625    0.0000 C   0  0  0  0  0  0  0  0  0  0  0  0
    3.4360   -5.7750    0.0000 O   0  0  0  0  0  0  0  0  0  0  0  0
    4.1505   -7.0125    0.0000 O   0  0  0  0  0  0  0  0  0  0  0  0
    5.5794   -5.3625    0.0000 O   0  0  0  0  0  0  0  0  0  0  0  0
    4.8650   -5.7750    0.0000 C   0  0  1  0  0  0  0  0  0  0  0  0
    4.8650   -6.6000    0.0000 C   0  0  2  0  0  0  0  0  0  0  0  0
    5.5794   -7.0125    0.0000 C   0  0  1  0  0  0  0  0  0  0  0  0
    7.0084   -5.3625    0.0000 O   0  0  0  0  0  0  0  0  0  0  0  0
    6.2939   -5.7750    0.0000 C   0  0  1  0  0  0  0  0  0  0  0  0
    6.2939   -6.6000    0.0000 C   0  0  2  0  0  0  0  0  0  0  0  0
    7.0084   -7.0125    0.0000 O   0  0  0  0  0  0  0  0  0  0  0  0
    8.4373   -5.3625    0.0000 C   0  0  0  0  0  0  0  0  0  0  0  0
    7.7228   -5.7750    0.0000 C   0  0  0  0  0  0  0  0  0  0  0  0
    7.7228   -6.6000    0.0000 C   0  0  0  0  0  0  0  0  0  0  0  0
    8.4373   -7.0125    0.0000 C   0  0  0  0  0  0  0  0  0  0  0  0
    9.8663   -5.3625    0.0000 O   0  0  0  0  0  0  0  0  0  0  0  0
    9.1518   -5.7750    0.0000 C   0  0  0  0  0  0  0  0  0  0  0  0
    9.1518   -6.6000    0.0000 C   0  0  0  0  0  0  0  0  0  0  0  0
    9.8663   -7.0125    0.0000 C   0  0  0  0  0  0  0  0  0  0  0  0
   10.5807   -6.6000    0.0000 C   0  0  0  0  0  0  0  0  0  0  0  0
   10.5807   -5.7750    0.0000 C   0  0  0  0  0  0  0  0  0  0  0  0
 23  1  1  1  0  0  0
  2  5  1  0  0  0  0
  3  2  1  0  0  0  0
  4  9  1  0  0  0  0
  5  4  2  0  0  0  0
  6  5  1  0  0  0  0
  7  6  2  0  0  0  0
 10  7  1  0  0  0  0
  8 35  2  0  0  0  0
 10  9  2  0  0  0  0
 36 10  1  0  0  0  0
 11 15  2  0  0  0  0
 13 12  2  0  0  0  0
 13 16  1  0  0  0  0
 14 13  1  0  0  0  0
 15 18  1  0  0  0  0
 16 15  1  0  0  0  0
 21 17  1  1  0  0  0
 18 17  1  0  0  0  0
 22 19  1  6  0  0  0
 20 25  1  0  0  0  0
 21 20  1  0  0  0  0
 22 21  1  0  0  0  0
 23 22  1  0  0  0  0
 26 23  1  0  0  0  0
 24 29  1  0  0  0  0
 25 24  1  1  0  0  0
 26 25  1  0  0  0  0
 26 27  1  6  0  0  0
 28 33  2  0  0  0  0
 29 28  1  0  0  0  0
 30 29  2  0  0  0  0
 31 30  1  0  0  0  0
 34 31  2  0  0  0  0
 32 37  1  0  0  0  0
 33 32  1  0  0  0  0
 34 33  1  0  0  0  0
 35 34  1  0  0  0  0
 36 35  1  0  0  0  0
 37 36  2  0  0  0  0
M  END
>  <cdx:fragmentId>
5

$$$$
