91833.cdx
  Mrv1902 05222410222D          

 15 16  0  0  0  0            999 V2000
    7.6278   -9.1793    0.0000 C   0  0  0  0  0  0  0  0  0  0  0  0
    6.8581   -9.4806    0.0000 C   0  0  0  0  0  0  0  0  0  0  0  0
    8.0215   -8.4556    0.0000 C   0  0  0  0  0  0  0  0  0  0  0  0
    7.8602   -7.6447    0.0000 C   0  0  0  0  0  0  0  0  0  0  0  0
    7.2149   -7.1325    0.0000 C   0  0  0  0  0  0  0  0  0  0  0  0
    6.3900   -7.1433    0.0000 C   0  0  0  0  0  0  0  0  0  0  0  0
    5.7672   -7.6855    0.0000 C   0  0  0  0  0  0  0  0  0  0  0  0
    5.6435   -8.5007    0.0000 C   0  0  0  0  0  0  0  0  0  0  0  0
    6.0809   -9.1996    0.0000 C   0  0  0  0  0  0  0  0  0  0  0  0
    8.5643   -7.2148    0.0000 C   0  0  0  0  0  0  0  0  0  0  0  0
    4.8356   -8.6680    0.0000 C   0  0  0  0  0  0  0  0  0  0  0  0
    5.7998   -9.9768    0.0000 C   0  0  0  0  0  0  0  0  0  0  0  0
    6.5770  -10.2579    0.0000 C   0  0  0  0  0  0  0  0  0  0  0  0
    7.3739  -10.4714    0.0000 C   0  0  0  0  0  0  0  0  0  0  0  0
    6.3635  -11.0547    0.0000 C   0  0  0  0  0  0  0  0  0  0  0  0
  1  2  1  0  0  0  0
  1  3  1  0  0  0  0
  3  4  2  0  0  0  0
  4  5  1  0  0  0  0
  5  6  1  0  0  0  0
  6  7  1  0  0  0  0
  7  8  1  0  0  0  0
  8  9  1  0  0  0  0
  2  9  1  0  0  0  0
  4 10  1  0  0  0  0
  8 11  2  0  0  0  0
  9 12  1  0  0  0  0
 12 13  1  0  0  0  0
 13  2  1  0  0  0  0
 13 14  1  0  0  0  0
 13 15  1  0  0  0  0
M  END
>  <cdx:groupId>
738

>  <cdx:fragmentId>
739

$$$$
