91835.cdx
  Mrv1902 05222410212D          

 38 40  0  0  0  0            999 V2000
    3.8877   -4.7850    0.0000 C   0  0  0  0  0  0  0  0  0  0  0  0
    3.8877   -5.6100    0.0000 C   0  0  0  0  0  0  0  0  0  0  0  0
    4.6021   -6.0225    0.0000 C   0  0  0  0  0  0  0  0  0  0  0  0
    5.3166   -5.6100    0.0000 C   0  0  0  0  0  0  0  0  0  0  0  0
    5.3166   -4.7850    0.0000 C   0  0  0  0  0  0  0  0  0  0  0  0
    4.6021   -4.3725    0.0000 C   0  0  0  0  0  0  0  0  0  0  0  0
    6.0311   -6.0225    0.0000 C   0  0  0  0  0  0  0  0  0  0  0  0
    6.7455   -5.6100    0.0000 C   0  0  0  0  0  0  0  0  0  0  0  0
    7.4600   -6.0225    0.0000 O   0  0  0  0  0  0  0  0  0  0  0  0
    6.7455   -7.2600    0.0000 O   0  0  0  0  0  0  0  0  0  0  0  0
    7.4600   -6.8475    0.0000 C   0  0  0  0  0  0  0  0  0  0  0  0
    6.7455   -8.0850    0.0000 C   0  0  0  0  0  0  0  0  0  0  0  0
    7.4600   -8.4975    0.0000 C   0  0  0  0  0  0  0  0  0  0  0  0
    8.1745   -8.0850    0.0000 C   0  0  0  0  0  0  0  0  0  0  0  0
    8.1745   -7.2600    0.0000 C   0  0  0  0  0  0  0  0  0  0  0  0
    7.4600   -9.3225    0.0000 C   0  0  0  0  0  0  0  0  0  0  0  0
    8.1745   -9.7350    0.0000 O   0  0  0  0  0  0  0  0  0  0  0  0
    8.8890   -9.3225    0.0000 C   0  0  0  0  0  0  0  0  0  0  0  0
    8.8890   -8.4975    0.0000 C   0  0  0  0  0  0  0  0  0  0  0  0
    6.0311   -8.4975    0.0000 C   0  0  0  0  0  0  0  0  0  0  0  0
    6.7455   -9.7350    0.0000 O   0  0  0  0  0  0  0  0  0  0  0  0
    3.1732   -4.3725    0.0000 O   0  0  0  0  0  0  0  0  0  0  0  0
    3.1732   -6.0225    0.0000 O   0  0  0  0  0  0  0  0  0  0  0  0
    9.6034   -8.0850    0.0000 C   0  0  0  0  0  0  0  0  0  0  0  0
   10.3179   -8.4975    0.0000 O   0  0  0  0  0  0  0  0  0  0  0  0
    9.6034   -7.2600    0.0000 O   0  0  0  0  0  0  0  0  0  0  0  0
   11.0324   -8.0850    0.0000 C   0  0  0  0  0  0  0  0  0  0  0  0
    6.7466  -10.5600    0.0000 C   0  0  2  0  0  0  0  0  0  0  0  0
    6.0327  -10.9734    0.0000 O   0  0  0  0  0  0  0  0  0  0  0  0
    6.0338  -11.7984    0.0000 C   0  0  1  0  0  0  0  0  0  0  0  0
    6.7488  -12.2100    0.0000 C   0  0  2  0  0  0  0  0  0  0  0  0
    7.4627  -11.7966    0.0000 C   0  0  1  0  0  0  0  0  0  0  0  0
    7.4616  -10.9716    0.0000 C   0  0  1  0  0  0  0  0  0  0  0  0
    5.3199  -12.2119    0.0000 C   0  0  0  0  0  0  0  0  0  0  0  0
    8.1778  -12.2081    0.0000 O   0  0  0  0  0  0  0  0  0  0  0  0
    6.7499  -13.0350    0.0000 O   0  0  0  0  0  0  0  0  0  0  0  0
    8.1756  -10.5581    0.0000 O   0  0  0  0  0  0  0  0  0  0  0  0
    5.3210  -13.0369    0.0000 O   0  0  0  0  0  0  0  0  0  0  0  0
  1  2  1  0  0  0  0
  2  3  2  0  0  0  0
  3  4  1  0  0  0  0
  4  5  2  0  0  0  0
  5  6  1  0  0  0  0
  6  1  2  0  0  0  0
  4  7  1  0  0  0  0
  7  8  1  0  0  0  0
  8  9  1  0  0  0  0
 10 11  2  0  0  0  0
 11  9  1  0  0  0  0
 12 13  1  0  0  0  0
 13 14  1  0  0  0  0
 14 15  1  0  0  0  0
 15 11  1  0  0  0  0
 13 16  1  0  0  0  0
 16 17  1  0  0  0  0
 17 18  1  0  0  0  0
 18 19  2  0  0  0  0
 19 14  1  0  0  0  0
 12 20  1  0  0  0  0
 21 16  1  0  0  0  0
  1 22  1  0  0  0  0
  2 23  1  0  0  0  0
 19 24  1  0  0  0  0
 24 25  1  0  0  0  0
 24 26  2  0  0  0  0
 25 27  1  0  0  0  0
 28 21  1  1  0  0  0
 28 29  1  0  0  0  0
 29 30  1  0  0  0  0
 30 31  1  0  0  0  0
 31 32  1  0  0  0  0
 32 33  1  0  0  0  0
 33 28  1  0  0  0  0
 30 34  1  1  0  0  0
 32 35  1  1  0  0  0
 31 36  1  6  0  0  0
 33 37  1  6  0  0  0
 34 38  1  0  0  0  0
M  END
>  <cdx:fragmentId>
5

$$$$
