91830.cdx
  Mrv1902 05222410222D          

 57 63  0  0  0  0            999 V2000
    5.1252   -6.3388    0.0000 C   0  0  0  0  0  0  0  0  0  0  0  0
    5.1252   -7.1638    0.0000 C   0  0  1  0  0  0  0  0  0  0  0  0
    5.8396   -7.5762    0.0000 C   0  0  1  0  0  0  0  0  0  0  0  0
    6.5541   -7.1638    0.0000 C   0  0  0  0  0  0  0  0  0  0  0  0
    6.5541   -6.3388    0.0000 C   0  0  2  0  0  0  0  0  0  0  0  0
    5.8396   -5.9262    0.0000 C   0  0  0  0  0  0  0  0  0  0  0  0
    7.2686   -7.5762    0.0000 C   0  0  0  0  0  0  0  0  0  0  0  0
    7.9830   -7.1638    0.0000 C   0  0  0  0  0  0  0  0  0  0  0  0
    7.9830   -6.3388    0.0000 C   0  0  2  0  0  0  0  0  0  0  0  0
    7.2686   -5.9262    0.0000 C   0  0  0  0  0  0  0  0  0  0  0  0
    8.6975   -5.9262    0.0000 C   0  0  1  0  0  0  0  0  0  0  0  0
    8.6975   -5.1013    0.0000 C   0  0  0  0  0  0  0  0  0  0  0  0
    7.9830   -4.6888    0.0000 C   0  0  0  0  0  0  0  0  0  0  0  0
    7.2686   -5.1013    0.0000 C   0  0  0  0  0  0  0  0  0  0  0  0
    9.4120   -6.3388    0.0000 C   0  0  0  0  0  0  0  0  0  0  0  0
   10.1265   -5.9262    0.0000 C   0  0  0  0  0  0  0  0  0  0  0  0
   10.1265   -5.1013    0.0000 C   0  0  2  0  0  0  0  0  0  0  0  0
    9.4120   -4.6888    0.0000 C   0  0  2  0  0  0  0  0  0  0  0  0
    4.4107   -7.5762    0.0000 O   0  0  0  0  0  0  0  0  0  0  0  0
    5.4271   -8.2907    0.0000 C   0  0  0  0  0  0  0  0  0  0  0  0
    6.5541   -5.5137    0.0000 C   0  0  0  0  0  0  0  0  0  0  0  0
    7.9830   -5.5137    0.0000 C   0  0  0  0  0  0  0  0  0  0  0  0
   10.8409   -5.5137    0.0000 C   0  0  0  0  0  0  0  0  0  0  0  0
   11.5554   -5.1013    0.0000 C   0  0  0  0  0  0  0  0  0  0  0  0
   11.5554   -4.2763    0.0000 C   0  0  2  0  0  0  0  0  0  0  0  0
   10.8409   -3.8638    0.0000 O   0  0  0  0  0  0  0  0  0  0  0  0
   10.1265   -4.2763    0.0000 C   0  0  0  0  0  0  0  0  0  0  0  0
   12.2699   -3.8638    0.0000 C   0  0  2  0  0  0  0  0  0  0  0  0
   12.9843   -4.2763    0.0000 C   0  0  0  0  0  0  0  0  0  0  0  0
   12.2699   -3.0387    0.0000 C   0  0  0  0  0  0  0  0  0  0  0  0
   12.9843   -2.6263    0.0000 O   0  0  0  0  0  0  0  0  0  0  0  0
    9.4120   -3.8638    0.0000 O   0  0  0  0  0  0  0  0  0  0  0  0
   12.2699   -4.6888    0.0000 H   0  0  0  0  0  0  0  0  0  0  0  0
    6.2521   -8.2907    0.0000 C   0  0  0  0  0  0  0  0  0  0  0  0
    8.6975   -6.7512    0.0000 C   0  0  0  0  0  0  0  0  0  0  0  0
   11.6865   -3.2804    0.0000 H   0  0  0  0  0  0  0  0  0  0  0  0
    7.0771   -8.2907    0.0000 O   0  0  0  0  0  0  0  0  0  0  0  0
    3.6962   -7.9888    0.0000 C   0  0  2  0  0  0  0  0  0  0  0  0
    2.9817   -7.5762    0.0000 O   0  0  0  0  0  0  0  0  0  0  0  0
    2.2673   -7.9888    0.0000 C   0  0  1  0  0  0  0  0  0  0  0  0
    2.2673   -8.8138    0.0000 C   0  0  2  0  0  0  0  0  0  0  0  0
    2.9817   -9.2263    0.0000 C   0  0  1  0  0  0  0  0  0  0  0  0
    3.6962   -8.8138    0.0000 C   0  0  1  0  0  0  0  0  0  0  0  0
    1.5528   -7.5762    0.0000 C   0  0  0  0  0  0  0  0  0  0  0  0
    2.9817  -10.0512    0.0000 O   0  0  0  0  0  0  0  0  0  0  0  0
    1.5528   -9.2263    0.0000 O   0  0  0  0  0  0  0  0  0  0  0  0
    4.4107   -9.2263    0.0000 O   0  0  0  0  0  0  0  0  0  0  0  0
    0.8383   -7.9888    0.0000 O   0  0  0  0  0  0  0  0  0  0  0  0
    4.4107  -10.0512    0.0000 C   0  0  2  0  0  0  0  0  0  0  0  0
    3.6962  -10.4637    0.0000 O   0  0  0  0  0  0  0  0  0  0  0  0
    3.6962  -11.2888    0.0000 C   0  0  0  0  0  0  0  0  0  0  0  0
    4.4107  -11.7012    0.0000 C   0  0  2  0  0  0  0  0  0  0  0  0
    5.1252  -11.2888    0.0000 C   0  0  1  0  0  0  0  0  0  0  0  0
    5.1252  -10.4637    0.0000 C   0  0  1  0  0  0  0  0  0  0  0  0
    5.8396  -11.7012    0.0000 O   0  0  0  0  0  0  0  0  0  0  0  0
    5.8396  -10.0512    0.0000 O   0  0  0  0  0  0  0  0  0  0  0  0
    4.4107  -12.5263    0.0000 O   0  0  0  0  0  0  0  0  0  0  0  0
  1  2  1  0  0  0  0
  2  3  1  0  0  0  0
  3  4  1  0  0  0  0
  4  5  1  0  0  0  0
  5  6  1  0  0  0  0
  6  1  1  0  0  0  0
  4  7  1  0  0  0  0
  7  8  1  0  0  0  0
  8  9  1  0  0  0  0
  9 10  1  0  0  0  0
 10  5  1  0  0  0  0
  9 11  1  0  0  0  0
 11 12  1  0  0  0  0
 12 13  1  0  0  0  0
 13 14  1  0  0  0  0
 14 10  1  0  0  0  0
 11 15  1  0  0  0  0
 15 16  1  0  0  0  0
 16 17  1  0  0  0  0
 17 18  1  0  0  0  0
 18 12  1  0  0  0  0
  2 19  1  1  0  0  0
  3 20  1  1  0  0  0
  5 21  1  1  0  0  0
  9 22  1  1  0  0  0
 17 23  1  0  0  0  0
 23 24  1  0  0  0  0
 24 25  1  0  0  0  0
 25 26  1  0  0  0  0
 26 27  1  0  0  0  0
 17 27  1  1  0  0  0
 25 28  1  0  0  0  0
 28 29  1  0  0  0  0
 28 30  1  1  0  0  0
 30 31  1  0  0  0  0
 18 32  1  1  0  0  0
 25 33  1  1  0  0  0
  3 34  1  6  0  0  0
 11 35  1  6  0  0  0
 28 36  1  6  0  0  0
 34 37  1  0  0  0  0
 38 19  1  1  0  0  0
 38 39  1  0  0  0  0
 39 40  1  0  0  0  0
 40 41  1  0  0  0  0
 41 42  1  0  0  0  0
 42 43  1  0  0  0  0
 43 38  1  0  0  0  0
 40 44  1  1  0  0  0
 42 45  1  1  0  0  0
 41 46  1  6  0  0  0
 43 47  1  6  0  0  0
 44 48  1  0  0  0  0
 49 47  1  1  0  0  0
 49 50  1  0  0  0  0
 50 51  1  0  0  0  0
 51 52  1  0  0  0  0
 52 53  1  0  0  0  0
 53 54  1  0  0  0  0
 54 49  1  0  0  0  0
 53 55  1  1  0  0  0
 54 56  1  6  0  0  0
 52 57  1  6  0  0  0
M  END
>  <cdx:fragmentId>
5

$$$$
