91831.cdx
  Mrv1902 05222410222D          

 59 65  0  0  0  0            999 V2000
    4.0203   -8.9925    0.0000 C   0  0  0  0  0  0  0  0  0  0  0  0
    4.0203   -9.6525    0.0000 C   0  0  1  0  0  0  0  0  0  0  0  0
    4.5919   -9.9825    0.0000 C   0  0  1  0  0  0  0  0  0  0  0  0
    5.1634   -9.6525    0.0000 C   0  0  0  0  0  0  0  0  0  0  0  0
    5.1634   -8.9925    0.0000 C   0  0  2  0  0  0  0  0  0  0  0  0
    4.5919   -8.6625    0.0000 C   0  0  0  0  0  0  0  0  0  0  0  0
    5.7350   -9.9825    0.0000 C   0  0  0  0  0  0  0  0  0  0  0  0
    6.3066   -9.6525    0.0000 C   0  0  0  0  0  0  0  0  0  0  0  0
    6.3066   -8.9925    0.0000 C   0  0  2  0  0  0  0  0  0  0  0  0
    5.7350   -8.6625    0.0000 C   0  0  0  0  0  0  0  0  0  0  0  0
    6.8782   -8.6625    0.0000 C   0  0  1  0  0  0  0  0  0  0  0  0
    6.8782   -8.0025    0.0000 C   0  0  0  0  0  0  0  0  0  0  0  0
    6.3066   -7.6725    0.0000 C   0  0  0  0  0  0  0  0  0  0  0  0
    5.7350   -8.0025    0.0000 C   0  0  0  0  0  0  0  0  0  0  0  0
    7.4497   -8.9925    0.0000 C   0  0  0  0  0  0  0  0  0  0  0  0
    8.0213   -8.6625    0.0000 C   0  0  0  0  0  0  0  0  0  0  0  0
    8.0213   -8.0025    0.0000 C   0  0  2  0  0  0  0  0  0  0  0  0
    7.4497   -7.6725    0.0000 C   0  0  2  0  0  0  0  0  0  0  0  0
    3.4487   -9.9825    0.0000 O   0  0  0  0  0  0  0  0  0  0  0  0
    4.2619  -10.5541    0.0000 C   0  0  0  0  0  0  0  0  0  0  0  0
    5.1634   -8.3325    0.0000 C   0  0  0  0  0  0  0  0  0  0  0  0
    6.3066   -8.3325    0.0000 C   0  0  0  0  0  0  0  0  0  0  0  0
    8.5929   -8.3325    0.0000 C   0  0  0  0  0  0  0  0  0  0  0  0
    9.1645   -8.0025    0.0000 C   0  0  0  0  0  0  0  0  0  0  0  0
    9.1645   -7.3425    0.0000 C   0  0  2  0  0  0  0  0  0  0  0  0
    8.5929   -7.0125    0.0000 O   0  0  0  0  0  0  0  0  0  0  0  0
    8.0213   -7.3425    0.0000 C   0  0  0  0  0  0  0  0  0  0  0  0
    9.7361   -7.0125    0.0000 C   0  0  2  0  0  0  0  0  0  0  0  0
   10.3076   -7.3425    0.0000 C   0  0  0  0  0  0  0  0  0  0  0  0
    9.7361   -6.3525    0.0000 C   0  0  0  0  0  0  0  0  0  0  0  0
   10.3076   -6.0225    0.0000 O   0  0  0  0  0  0  0  0  0  0  0  0
    7.4497   -7.0125    0.0000 O   0  0  0  0  0  0  0  0  0  0  0  0
    9.7361   -7.6725    0.0000 H   0  0  0  0  0  0  0  0  0  0  0  0
    4.9219  -10.5541    0.0000 C   0  0  0  0  0  0  0  0  0  0  0  0
    6.8782   -9.3225    0.0000 C   0  0  0  0  0  0  0  0  0  0  0  0
    9.2694   -6.5458    0.0000 H   0  0  0  0  0  0  0  0  0  0  0  0
    5.5819  -10.5541    0.0000 O   0  0  0  0  0  0  0  0  0  0  0  0
    2.8771  -10.3125    0.0000 C   0  0  2  0  0  0  0  0  0  0  0  0
    2.3056   -9.9825    0.0000 O   0  0  0  0  0  0  0  0  0  0  0  0
    1.7340  -10.3125    0.0000 C   0  0  1  0  0  0  0  0  0  0  0  0
    1.7340  -10.9725    0.0000 C   0  0  2  0  0  0  0  0  0  0  0  0
    2.3056  -11.3025    0.0000 C   0  0  1  0  0  0  0  0  0  0  0  0
    2.8771  -10.9725    0.0000 C   0  0  1  0  0  0  0  0  0  0  0  0
    1.1624   -9.9825    0.0000 C   0  0  0  0  0  0  0  0  0  0  0  0
    2.3056  -11.9625    0.0000 O   0  0  0  0  0  0  0  0  0  0  0  0
    1.1624  -11.3025    0.0000 O   0  0  0  0  0  0  0  0  0  0  0  0
    3.4487  -11.3025    0.0000 O   0  0  0  0  0  0  0  0  0  0  0  0
    0.5908  -10.3125    0.0000 O   0  0  0  0  0  0  0  0  0  0  0  0
   10.8786   -6.3512    0.0000 C   0  0  2  0  0  0  0  0  0  0  0  0
   10.8780   -7.0112    0.0000 O   0  0  0  0  0  0  0  0  0  0  0  0
   11.4493   -7.3417    0.0000 C   0  0  1  0  0  0  0  0  0  0  0  0
   12.0211   -7.0122    0.0000 C   0  0  2  0  0  0  0  0  0  0  0  0
   12.0217   -6.3522    0.0000 C   0  0  1  0  0  0  0  0  0  0  0  0
   11.4504   -6.0217    0.0000 C   0  0  1  0  0  0  0  0  0  0  0  0
   11.4487   -8.0017    0.0000 C   0  0  0  0  0  0  0  0  0  0  0  0
   12.5936   -6.0227    0.0000 O   0  0  0  0  0  0  0  0  0  0  0  0
   12.5924   -7.3427    0.0000 O   0  0  0  0  0  0  0  0  0  0  0  0
   11.4510   -5.3617    0.0000 O   0  0  0  0  0  0  0  0  0  0  0  0
   12.0200   -8.3322    0.0000 O   0  0  0  0  0  0  0  0  0  0  0  0
  1  2  1  0  0  0  0
  2  3  1  0  0  0  0
  3  4  1  0  0  0  0
  4  5  1  0  0  0  0
  5  6  1  0  0  0  0
  6  1  1  0  0  0  0
  4  7  1  0  0  0  0
  7  8  1  0  0  0  0
  8  9  1  0  0  0  0
  9 10  1  0  0  0  0
 10  5  1  0  0  0  0
  9 11  1  0  0  0  0
 11 12  1  0  0  0  0
 12 13  1  0  0  0  0
 13 14  1  0  0  0  0
 14 10  1  0  0  0  0
 11 15  1  0  0  0  0
 15 16  1  0  0  0  0
 16 17  1  0  0  0  0
 17 18  1  0  0  0  0
 18 12  1  0  0  0  0
  2 19  1  1  0  0  0
  3 20  1  1  0  0  0
  5 21  1  1  0  0  0
  9 22  1  1  0  0  0
 17 23  1  0  0  0  0
 23 24  1  0  0  0  0
 24 25  1  0  0  0  0
 25 26  1  0  0  0  0
 26 27  1  0  0  0  0
 17 27  1  1  0  0  0
 25 28  1  0  0  0  0
 28 29  1  0  0  0  0
 28 30  1  1  0  0  0
 30 31  1  0  0  0  0
 18 32  1  1  0  0  0
 25 33  1  1  0  0  0
  3 34  1  6  0  0  0
 11 35  1  6  0  0  0
 28 36  1  6  0  0  0
 34 37  1  0  0  0  0
 38 19  1  1  0  0  0
 38 39  1  0  0  0  0
 39 40  1  0  0  0  0
 40 41  1  0  0  0  0
 41 42  1  0  0  0  0
 42 43  1  0  0  0  0
 43 38  1  0  0  0  0
 40 44  1  1  0  0  0
 42 45  1  1  0  0  0
 41 46  1  6  0  0  0
 43 47  1  6  0  0  0
 44 48  1  0  0  0  0
 49 50  1  0  0  0  0
 50 51  1  0  0  0  0
 51 52  1  0  0  0  0
 52 53  1  0  0  0  0
 53 54  1  0  0  0  0
 54 49  1  0  0  0  0
 51 55  1  1  0  0  0
 53 56  1  1  0  0  0
 52 57  1  6  0  0  0
 54 58  1  6  0  0  0
 55 59  1  0  0  0  0
 49 31  1  1  0  0  0
M  END
>  <cdx:fragmentId>
5

$$$$
