91839.cdx
  Mrv1902 05222410242D          

 44 48  0  0  0  0            999 V2000
    6.8989   -6.2150    0.0000 C   0  0  0  0  0  0  0  0  0  0  0  0
    6.8989   -7.0400    0.0000 C   0  0  0  0  0  0  0  0  0  0  0  0
    7.6134   -7.4525    0.0000 C   0  0  0  0  0  0  0  0  0  0  0  0
    8.3278   -7.0400    0.0000 C   0  0  0  0  0  0  0  0  0  0  0  0
    8.3278   -6.2150    0.0000 C   0  0  0  0  0  0  0  0  0  0  0  0
    7.6134   -5.8025    0.0000 C   0  0  0  0  0  0  0  0  0  0  0  0
    9.0423   -7.4525    0.0000 C   0  0  0  0  0  0  0  0  0  0  0  0
    9.7568   -7.0400    0.0000 O   0  0  0  0  0  0  0  0  0  0  0  0
    9.0423   -5.8025    0.0000 O   0  0  0  0  0  0  0  0  0  0  0  0
    9.0423   -8.2775    0.0000 C   0  0  0  0  0  0  0  0  0  0  0  0
    9.7568   -8.6900    0.0000 C   0  0  0  0  0  0  0  0  0  0  0  0
    9.0423   -9.9275    0.0000 C   0  0  0  0  0  0  0  0  0  0  0  0
    9.7568   -9.5150    0.0000 C   0  0  0  0  0  0  0  0  0  0  0  0
    9.0423  -10.7525    0.0000 C   0  0  0  0  0  0  0  0  0  0  0  0
    9.7568  -11.1650    0.0000 C   0  0  0  0  0  0  0  0  0  0  0  0
   10.4713  -10.7525    0.0000 C   0  0  0  0  0  0  0  0  0  0  0  0
   10.4713   -9.9275    0.0000 C   0  0  0  0  0  0  0  0  0  0  0  0
    6.1143   -5.9601    0.0000 N   0  0  0  0  0  0  0  0  0  0  0  0
    5.6294   -6.6275    0.0000 C   0  0  0  0  0  0  0  0  0  0  0  0
    6.1143   -7.2949    0.0000 C   0  0  0  0  0  0  0  0  0  0  0  0
    4.8044   -6.6275    0.0000 C   0  0  2  0  0  0  0  0  0  0  0  0
    5.8593   -8.0796    0.0000 O   0  0  0  0  0  0  0  0  0  0  0  0
    4.3194   -5.9601    0.0000 O   0  0  0  0  0  0  0  0  0  0  0  0
    3.5348   -6.2150    0.0000 C   0  0  0  0  0  0  0  0  0  0  0  0
    3.5348   -7.0400    0.0000 C   0  0  2  0  0  0  0  0  0  0  0  0
    4.3194   -7.2949    0.0000 C   0  0  1  0  0  0  0  0  0  0  0  0
    9.7568  -11.9900    0.0000 O   0  0  0  0  0  0  0  0  0  0  0  0
    7.6134   -8.2775    0.0000 O   0  0  0  0  0  0  0  0  0  0  0  0
    7.2009   -5.0880    0.0000 O   0  0  0  0  0  0  0  0  0  0  0  0
    8.0259   -5.0880    0.0000 C   0  0  2  0  0  0  0  0  0  0  0  0
    5.3877   -7.2109    0.0000 H   0  0  0  0  0  0  0  0  0  0  0  0
    4.7319   -8.0094    0.0000 O   0  0  0  0  0  0  0  0  0  0  0  0
    2.8203   -7.4525    0.0000 O   0  0  0  0  0  0  0  0  0  0  0  0
    8.8509   -5.0880    0.0000 O   0  0  0  0  0  0  0  0  0  0  0  0
    9.2634   -4.3736    0.0000 C   0  0  1  0  0  0  0  0  0  0  0  0
    8.8509   -3.6591    0.0000 C   0  0  2  0  0  0  0  0  0  0  0  0
    8.0259   -3.6591    0.0000 C   0  0  1  0  0  0  0  0  0  0  0  0
    7.6134   -4.3736    0.0000 C   0  0  1  0  0  0  0  0  0  0  0  0
   10.0884   -4.3736    0.0000 C   0  0  0  0  0  0  0  0  0  0  0  0
    7.6134   -2.9446    0.0000 O   0  0  0  0  0  0  0  0  0  0  0  0
    6.7884   -4.3736    0.0000 O   0  0  0  0  0  0  0  0  0  0  0  0
    9.2634   -2.9446    0.0000 O   0  0  0  0  0  0  0  0  0  0  0  0
   10.5009   -3.6591    0.0000 O   0  0  0  0  0  0  0  0  0  0  0  0
    8.2394   -5.8849    0.0000 C   0  0  0  0  0  0  0  0  0  0  0  0
  1  2  2  0  0  0  0
  2  3  1  0  0  0  0
  3  4  1  0  0  0  0
  4  5  2  0  0  0  0
  5  6  1  0  0  0  0
  6  1  1  0  0  0  0
  4  7  1  0  0  0  0
  7  8  2  0  0  0  0
  9  5  1  0  0  0  0
  7 10  1  0  0  0  0
 10 11  2  0  0  0  0
 12 13  2  0  0  0  0
 13 11  1  0  0  0  0
 12 14  1  0  0  0  0
 14 15  2  0  0  0  0
 15 16  1  0  0  0  0
 16 17  2  0  0  0  0
 17 13  1  0  0  0  0
  1 18  1  0  0  0  0
 18 19  1  0  0  0  0
 19 20  1  0  0  0  0
 20  2  1  0  0  0  0
 19 21  1  0  0  0  0
 20 22  1  0  0  0  0
 21 23  1  0  0  0  0
 23 24  1  0  0  0  0
 24 25  1  0  0  0  0
 25 26  1  0  0  0  0
 26 21  1  0  0  0  0
 15 27  1  0  0  0  0
  3 28  2  0  0  0  0
  6 29  1  0  0  0  0
  6 30  1  0  0  0  0
 21 31  1  6  0  0  0
 26 32  1  6  0  0  0
 25 33  1  6  0  0  0
 30 34  1  0  0  0  0
 34 35  1  0  0  0  0
 35 36  1  0  0  0  0
 36 37  1  0  0  0  0
 37 38  1  0  0  0  0
 38 30  1  0  0  0  0
 35 39  1  1  0  0  0
 37 40  1  1  0  0  0
 38 41  1  6  0  0  0
 36 42  1  6  0  0  0
 39 43  1  0  0  0  0
 30 44  1  6  0  0  0
M  END
>  <cdx:fragmentId>
5

$$$$
