91836.cdx
  Mrv1902 05222410202D          

  8  8  0  0  0  0            999 V2000
    6.3764   -4.1937    0.0000 C   0  0  0  0  0  0  0  0  0  0  0  0
    6.3764   -5.0187    0.0000 C   0  0  0  0  0  0  0  0  0  0  0  0
    7.0909   -5.4313    0.0000 C   0  0  0  0  0  0  0  0  0  0  0  0
    7.8053   -5.0187    0.0000 C   0  0  0  0  0  0  0  0  0  0  0  0
    7.8053   -4.1937    0.0000 C   0  0  0  0  0  0  0  0  0  0  0  0
    7.0909   -3.7813    0.0000 C   0  0  0  0  0  0  0  0  0  0  0  0
    7.0909   -2.9562    0.0000 O   0  0  0  0  0  0  0  0  0  0  0  0
    7.0909   -6.2563    0.0000 O   0  0  0  0  0  0  0  0  0  0  0  0
  1  2  2  0  0  0  0
  2  3  1  0  0  0  0
  3  4  2  0  0  0  0
  4  5  1  0  0  0  0
  5  6  2  0  0  0  0
  6  1  1  0  0  0  0
  6  7  1  0  0  0  0
  3  8  1  0  0  0  0
M  END
>  <cdx:fragmentId>
5

$$$$
