91837.cdx
  Mrv1902 05222410212D          

 19 20  0  0  0  0            999 V2000
    6.1014   -7.2188    0.0000 C   0  0  0  0  0  0  0  0  0  0  0  0
    6.1014   -8.0437    0.0000 C   0  0  0  0  0  0  0  0  0  0  0  0
    6.8159   -8.4563    0.0000 C   0  0  0  0  0  0  0  0  0  0  0  0
    7.5303   -8.0437    0.0000 C   0  0  0  0  0  0  0  0  0  0  0  0
    7.5303   -7.2188    0.0000 C   0  0  0  0  0  0  0  0  0  0  0  0
    6.8159   -6.8062    0.0000 C   0  0  0  0  0  0  0  0  0  0  0  0
    6.8159   -5.9813    0.0000 O   0  0  0  0  0  0  0  0  0  0  0  0
    6.8159   -9.2813    0.0000 O   0  0  0  0  0  0  0  0  0  0  0  0
    6.1014   -9.6937    0.0000 C   0  0  2  0  0  0  0  0  0  0  0  0
    5.3869   -9.2813    0.0000 O   0  0  0  0  0  0  0  0  0  0  0  0
    4.6725   -9.6937    0.0000 C   0  0  1  0  0  0  0  0  0  0  0  0
    4.6725  -10.5188    0.0000 C   0  0  2  0  0  0  0  0  0  0  0  0
    5.3869  -10.9312    0.0000 C   0  0  1  0  0  0  0  0  0  0  0  0
    6.1014  -10.5188    0.0000 C   0  0  1  0  0  0  0  0  0  0  0  0
    3.9580   -9.2813    0.0000 C   0  0  0  0  0  0  0  0  0  0  0  0
    5.3869  -11.7562    0.0000 O   0  0  0  0  0  0  0  0  0  0  0  0
    6.8159  -10.9313    0.0000 O   0  0  0  0  0  0  0  0  0  0  0  0
    3.9580  -10.9313    0.0000 O   0  0  0  0  0  0  0  0  0  0  0  0
    3.9580   -8.4563    0.0000 O   0  0  0  0  0  0  0  0  0  0  0  0
  1  2  2  0  0  0  0
  2  3  1  0  0  0  0
  3  4  2  0  0  0  0
  4  5  1  0  0  0  0
  5  6  2  0  0  0  0
  6  1  1  0  0  0  0
  6  7  1  0  0  0  0
  3  8  1  0  0  0  0
  9  8  1  1  0  0  0
  9 10  1  0  0  0  0
 10 11  1  0  0  0  0
 11 12  1  0  0  0  0
 12 13  1  0  0  0  0
 13 14  1  0  0  0  0
 14  9  1  0  0  0  0
 11 15  1  1  0  0  0
 13 16  1  1  0  0  0
 14 17  1  6  0  0  0
 12 18  1  6  0  0  0
 15 19  1  0  0  0  0
M  END
>  <cdx:fragmentId>
5

$$$$
