91834.cdx
  Mrv1902 05222410212D          

 46 52  0  0  0  0            999 V2000
    5.0564  -10.3675    0.0000 N   0  0  0  0  0  0  0  0  0  0  0  0
    5.0564  -11.1925    0.0000 C   0  0  0  0  0  0  0  0  0  0  0  0
    5.7709  -11.6050    0.0000 C   0  0  0  0  0  0  0  0  0  0  0  0
    6.4853  -11.1925    0.0000 C   0  0  0  0  0  0  0  0  0  0  0  0
    6.4853  -10.3675    0.0000 C   0  0  0  0  0  0  0  0  0  0  0  0
    5.7709   -9.9550    0.0000 C   0  0  0  0  0  0  0  0  0  0  0  0
    7.1998  -11.6050    0.0000 C   0  0  0  0  0  0  0  0  0  0  0  0
    7.9143  -11.1925    0.0000 C   0  0  0  0  0  0  0  0  0  0  0  0
    7.9143  -10.3675    0.0000 C   0  0  0  0  0  0  0  0  0  0  0  0
    7.1998   -9.9550    0.0000 C   0  0  0  0  0  0  0  0  0  0  0  0
    5.7709   -9.1300    0.0000 C   0  0  0  0  0  0  0  0  0  0  0  0
    5.7709   -8.3050    0.0000 C   0  0  0  0  0  0  0  0  0  0  0  0
    6.4853   -7.8925    0.0000 C   0  0  0  0  0  0  0  0  0  0  0  0
    6.4853   -7.0675    0.0000 C   0  0  0  0  0  0  0  0  0  0  0  0
    5.7709   -6.6550    0.0000 C   0  0  0  0  0  0  0  0  0  0  0  0
    5.0564   -7.0675    0.0000 C   0  0  0  0  0  0  0  0  0  0  0  0
    5.0564   -7.8925    0.0000 C   0  0  0  0  0  0  0  0  0  0  0  0
    5.7709   -5.8300    0.0000 O   0  0  0  0  0  0  0  0  0  0  0  0
    5.7709   -5.0050    0.0000 C   0  0  0  0  0  0  0  0  0  0  0  0
    6.4853   -4.5925    0.0000 C   0  0  0  0  0  0  0  0  0  0  0  0
    6.4853   -3.7675    0.0000 C   0  0  0  0  0  0  0  0  0  0  0  0
    5.7709   -3.3550    0.0000 C   0  0  0  0  0  0  0  0  0  0  0  0
    5.0564   -3.7675    0.0000 C   0  0  0  0  0  0  0  0  0  0  0  0
    5.0564   -4.5925    0.0000 C   0  0  0  0  0  0  0  0  0  0  0  0
    7.1998   -5.0050    0.0000 C   0  0  0  0  0  0  0  0  0  0  0  0
    7.9143   -4.5925    0.0000 N   0  0  0  0  0  0  0  0  0  0  0  0
    7.9143   -3.7675    0.0000 C   0  0  0  0  0  0  0  0  0  0  0  0
    7.1998   -3.3550    0.0000 C   0  0  0  0  0  0  0  0  0  0  0  0
    7.6123   -5.7195    0.0000 C   0  0  0  0  0  0  0  0  0  0  0  0
    8.0248   -6.4339    0.0000 C   0  0  0  0  0  0  0  0  0  0  0  0
    7.3141   -6.8529    0.0000 C   0  0  0  0  0  0  0  0  0  0  0  0
    7.3216   -7.6779    0.0000 C   0  0  0  0  0  0  0  0  0  0  0  0
    8.0398   -8.0839    0.0000 C   0  0  0  0  0  0  0  0  0  0  0  0
    8.7505   -7.6649    0.0000 C   0  0  0  0  0  0  0  0  0  0  0  0
    8.7430   -6.8399    0.0000 C   0  0  0  0  0  0  0  0  0  0  0  0
    8.0398   -8.9089    0.0000 O   0  0  0  0  0  0  0  0  0  0  0  0
    8.6288  -11.6050    0.0000 O   0  0  0  0  0  0  0  0  0  0  0  0
    8.6288  -12.4300    0.0000 C   0  0  0  0  0  0  0  0  0  0  0  0
    9.5892   -8.8331    0.0000 O   0  0  0  0  0  0  0  0  0  0  0  0
    4.3419   -3.3550    0.0000 O   0  0  0  0  0  0  0  0  0  0  0  0
    4.3419   -2.5300    0.0000 C   0  0  0  0  0  0  0  0  0  0  0  0
    4.3419   -5.0050    0.0000 O   0  0  0  0  0  0  0  0  0  0  0  0
    3.6275   -4.5925    0.0000 C   0  0  0  0  0  0  0  0  0  0  0  0
    7.3253   -9.3214    0.0000 C   0  0  0  0  0  0  0  0  0  0  0  0
    4.3419   -9.9550    0.0000 C   0  0  0  0  0  0  0  0  0  0  0  0
    8.6288   -5.0050    0.0000 C   0  0  0  0  0  0  0  0  0  0  0  0
  1  2  1  0  0  0  0
  2  3  1  0  0  0  0
  3  4  1  0  0  0  0
  4  5  1  0  0  0  0
  5  6  1  0  0  0  0
  6  1  1  0  0  0  0
  4  7  2  0  0  0  0
  7  8  1  0  0  0  0
  8  9  2  0  0  0  0
  9 10  1  0  0  0  0
 10  5  2  0  0  0  0
  6 11  1  0  0  0  0
 11 12  1  0  0  0  0
 12 13  1  0  0  0  0
 13 14  2  0  0  0  0
 14 15  1  0  0  0  0
 15 16  2  0  0  0  0
 16 17  1  0  0  0  0
 17 12  2  0  0  0  0
 15 18  1  0  0  0  0
 18 19  1  0  0  0  0
 19 20  1  0  0  0  0
 20 21  2  0  0  0  0
 21 22  1  0  0  0  0
 22 23  2  0  0  0  0
 23 24  1  0  0  0  0
 24 19  2  0  0  0  0
 20 25  1  0  0  0  0
 25 26  1  0  0  0  0
 26 27  1  0  0  0  0
 27 28  1  0  0  0  0
 28 21  1  0  0  0  0
 25 29  1  0  0  0  0
 29 30  1  0  0  0  0
 30 31  2  0  0  0  0
 31 32  1  0  0  0  0
 32 33  2  0  0  0  0
 33 34  1  0  0  0  0
 34 35  2  0  0  0  0
 35 30  1  0  0  0  0
 33 36  1  0  0  0  0
  8 37  1  0  0  0  0
 37 38  1  0  0  0  0
 34 39  1  0  0  0  0
  9 39  1  0  0  0  0
 23 40  1  0  0  0  0
 40 41  1  0  0  0  0
 24 42  1  0  0  0  0
 42 43  1  0  0  0  0
 36 44  1  0  0  0  0
  1 45  1  0  0  0  0
 26 46  1  0  0  0  0
M  END
>  <cdx:fragmentId>
5

$$$$
