91840.cdx
  Mrv1902 05222410182D          

 14 14  0  0  0  0            999 V2000
    6.4864   -7.4800    0.0000 C   0  0  0  0  0  0  0  0  0  0  0  0
    6.4864   -8.3050    0.0000 C   0  0  0  0  0  0  0  0  0  0  0  0
    7.2009   -8.7175    0.0000 C   0  0  0  0  0  0  0  0  0  0  0  0
    7.9153   -8.3050    0.0000 C   0  0  0  0  0  0  0  0  0  0  0  0
    7.9153   -7.4800    0.0000 C   0  0  0  0  0  0  0  0  0  0  0  0
    7.2009   -7.0675    0.0000 C   0  0  0  0  0  0  0  0  0  0  0  0
    5.7719   -8.7175    0.0000 O   0  0  0  0  0  0  0  0  0  0  0  0
    8.6298   -7.0675    0.0000 C   0  0  0  0  0  0  0  0  0  0  0  0
    9.3443   -7.4800    0.0000 O   0  0  0  0  0  0  0  0  0  0  0  0
    8.6298   -6.2425    0.0000 C   0  0  0  0  0  0  0  0  0  0  0  0
    9.3443   -5.8300    0.0000 C   0  0  0  0  0  0  0  0  0  0  0  0
    5.0575   -8.3050    0.0000 C   0  0  0  0  0  0  0  0  0  0  0  0
    5.0575   -7.4800    0.0000 O   0  0  0  0  0  0  0  0  0  0  0  0
    4.3430   -8.7175    0.0000 C   0  0  0  0  0  0  0  0  0  0  0  0
  1  2  2  0  0  0  0
  2  3  1  0  0  0  0
  3  4  2  0  0  0  0
  4  5  1  0  0  0  0
  5  6  2  0  0  0  0
  6  1  1  0  0  0  0
  2  7  1  0  0  0  0
  5  8  1  0  0  0  0
  8  9  1  0  0  0  0
  8 10  1  0  0  0  0
 10 11  2  0  0  0  0
  7 12  1  0  0  0  0
 12 13  2  0  0  0  0
 12 14  1  0  0  0  0
M  END
>  <cdx:fragmentId>
5

$$$$
