91842.cdx
  Mrv1902 05222410182D          

 11 10  0  0  0  0            999 V2000
    7.9381   -5.6572    0.0000 O   0  0  0  0  0  0  0  0  0  0  0  0
    7.2334   -6.9002    0.0000 C   0  0  1  0  0  0  0  0  0  0  0  0
    7.2399   -7.7252    0.0000 C   0  0  0  0  0  0  0  0  0  0  0  0
    6.5287   -8.1433    0.0000 S   0  0  0  0  0  0  0  0  0  0  0  0
    6.5352   -8.9683    0.0000 C   0  0  0  0  0  0  0  0  0  0  0  0
    5.8240   -9.3864    0.0000 C   0  0  0  0  0  0  0  0  0  0  0  0
    5.8305  -10.2114    0.0000 C   0  0  0  0  0  0  0  0  0  0  0  0
    7.9446   -6.4821    0.0000 C   0  0  0  0  0  0  0  0  0  0  0  0
    8.6623   -6.8890    0.0000 O   0  0  0  0  0  0  0  0  0  0  0  0
    6.5157   -6.4934    0.0000 N   0  0  0  0  0  0  0  0  0  0  0  0
    5.8110   -7.7365    0.0000 O   0  0  0  0  0  0  0  0  0  0  0  0
  8  1  2  0  0  0  0
  9  8  1  0  0  0  0
  8  2  1  0  0  0  0
  2  3  1  0  0  0  0
  3  4  1  0  0  0  0
  4  5  1  0  0  0  0
  5  6  1  0  0  0  0
  6  7  2  0  0  0  0
  2 10  1  6  0  0  0
  4 11  2  0  0  0  0
M  END
>  <cdx:fragmentId>
3

$$$$
