91843.cdx
  Mrv1902 05222410192D          

 26 29  0  0  0  0            999 V2000
    9.9234   -4.4055    0.0000 C   0  0  0  0  0  0  0  0  0  0  0  0
    9.2116   -4.8227    0.0000 O   0  0  0  0  0  0  0  0  0  0  0  0
    9.2169   -5.6476    0.0000 C   0  0  0  0  0  0  0  0  0  0  0  0
    9.9340   -6.0555    0.0000 C   0  0  0  0  0  0  0  0  0  0  0  0
   10.6458   -5.6384    0.0000 O   0  0  0  0  0  0  0  0  0  0  0  0
    8.5051   -6.0648    0.0000 C   0  0  0  0  0  0  0  0  0  0  0  0
    8.5105   -6.8897    0.0000 C   0  0  0  0  0  0  0  0  0  0  0  0
    9.2276   -7.2976    0.0000 C   0  0  0  0  0  0  0  0  0  0  0  0
    9.9394   -6.8805    0.0000 C   0  0  0  0  0  0  0  0  0  0  0  0
    7.7987   -7.3068    0.0000 C   0  0  1  0  0  0  0  0  0  0  0  0
    7.8040   -8.1318    0.0000 N   0  0  0  0  0  0  0  0  0  0  0  0
    8.5211   -8.5397    0.0000 C   0  0  0  0  0  0  0  0  0  0  0  0
    9.2329   -8.1226    0.0000 C   0  0  0  0  0  0  0  0  0  0  0  0
    7.0816   -6.8990    0.0000 C   0  0  0  0  0  0  0  0  0  0  0  0
    6.3698   -7.3161    0.0000 C   0  0  0  0  0  0  0  0  0  0  0  0
    6.3751   -8.1411    0.0000 C   0  0  0  0  0  0  0  0  0  0  0  0
    7.0922   -8.5489    0.0000 C   0  0  0  0  0  0  0  0  0  0  0  0
    5.6527   -6.9082    0.0000 C   0  0  0  0  0  0  0  0  0  0  0  0
    4.9409   -7.3253    0.0000 C   0  0  0  0  0  0  0  0  0  0  0  0
    4.9462   -8.1503    0.0000 C   0  0  0  0  0  0  0  0  0  0  0  0
    5.6633   -8.5582    0.0000 C   0  0  0  0  0  0  0  0  0  0  0  0
    4.2344   -8.5674    0.0000 O   0  0  0  0  0  0  0  0  0  0  0  0
    4.9569   -9.8003    0.0000 C   0  0  0  0  0  0  0  0  0  0  0  0
    5.6687   -9.3832    0.0000 O   0  0  0  0  0  0  0  0  0  0  0  0
    3.5173   -8.1596    0.0000 C   0  0  0  0  0  0  0  0  0  0  0  0
    7.7934   -6.4819    0.0000 H   0  0  0  0  0  0  0  0  0  0  0  0
  1  2  1  0  0  0  0
  2  3  1  0  0  0  0
  3  4  2  0  0  0  0
  4  5  1  0  0  0  0
  3  6  1  0  0  0  0
  6  7  2  0  0  0  0
  7  8  1  0  0  0  0
  8  9  2  0  0  0  0
  9  4  1  0  0  0  0
  7 10  1  0  0  0  0
 10 11  1  0  0  0  0
 11 12  1  0  0  0  0
 12 13  1  0  0  0  0
 13  8  1  0  0  0  0
 10 14  1  0  0  0  0
 14 15  1  0  0  0  0
 15 16  2  0  0  0  0
 16 17  1  0  0  0  0
 17 11  1  0  0  0  0
 15 18  1  0  0  0  0
 18 19  2  0  0  0  0
 19 20  1  0  0  0  0
 20 21  2  0  0  0  0
 21 16  1  0  0  0  0
 20 22  1  0  0  0  0
 23 24  1  0  0  0  0
 24 21  1  0  0  0  0
 22 25  1  0  0  0  0
 10 26  1  6  0  0  0
M  END
>  <cdx:fragmentId>
5

$$$$
