91848.cdx
  Mrv1902 05222410262D          

  9  9  0  0  0  0            999 V2000
    6.9402   -7.1088    0.0000 C   0  0  0  0  0  0  0  0  0  0  0  0
    6.9402   -7.9337    0.0000 C   0  0  0  0  0  0  0  0  0  0  0  0
    7.6546   -8.3462    0.0000 C   0  0  0  0  0  0  0  0  0  0  0  0
    8.3691   -7.9337    0.0000 C   0  0  0  0  0  0  0  0  0  0  0  0
    8.3691   -7.1088    0.0000 C   0  0  0  0  0  0  0  0  0  0  0  0
    7.6546   -6.6962    0.0000 C   0  0  0  0  0  0  0  0  0  0  0  0
    7.6546   -5.8712    0.0000 C   0  0  0  0  0  0  0  0  0  0  0  0
    6.9402   -5.4588    0.0000 O   0  0  0  0  0  0  0  0  0  0  0  0
    8.3691   -5.4588    0.0000 C   0  0  0  0  0  0  0  0  0  0  0  0
  1  2  1  0  0  0  0
  2  3  1  0  0  0  0
  3  4  1  0  0  0  0
  4  5  1  0  0  0  0
  5  6  1  0  0  0  0
  6  1  2  0  0  0  0
  6  7  1  0  0  0  0
  7  8  2  0  0  0  0
  7  9  1  0  0  0  0
M  END
>  <cdx:fragmentId>
5

$$$$
