91841.cdx
  Mrv1902 05222410182D          

 19 22  0  0  0  0            999 V2000
    3.9702   -6.2700    0.0000 C   0  0  0  0  0  0  0  0  0  0  0  0
    3.9702   -7.0950    0.0000 C   0  0  0  0  0  0  0  0  0  0  0  0
    4.6846   -7.5075    0.0000 C   0  0  0  0  0  0  0  0  0  0  0  0
    5.3991   -7.0950    0.0000 N   0  0  0  0  0  0  0  0  0  0  0  0
    5.3991   -6.2700    0.0000 C   0  0  0  0  0  0  0  0  0  0  0  0
    4.6846   -5.8575    0.0000 C   0  0  0  0  0  0  0  0  0  0  0  0
    6.1136   -7.5075    0.0000 C   0  0  0  0  0  0  0  0  0  0  0  0
    6.8280   -7.0950    0.0000 C   0  0  0  0  0  0  0  0  0  0  0  0
    6.8280   -6.2700    0.0000 C   0  0  0  0  0  0  0  0  0  0  0  0
    6.1136   -5.8575    0.0000 C   0  0  2  0  0  0  0  0  0  0  0  0
    6.8280   -5.4450    0.0000 C   0  0  0  0  0  0  0  0  0  0  0  0
    7.5425   -6.6825    0.0000 C   0  0  1  0  0  0  0  0  0  0  0  0
    7.5425   -5.8575    0.0000 N   0  0  0  0  0  0  0  0  0  0  0  0
    8.2570   -7.0950    0.0000 C   0  0  0  0  0  0  0  0  0  0  0  0
    8.9715   -6.6825    0.0000 C   0  0  0  0  0  0  0  0  0  0  0  0
    8.9715   -5.8575    0.0000 C   0  0  0  0  0  0  0  0  0  0  0  0
    8.2570   -5.4450    0.0000 C   0  0  0  0  0  0  0  0  0  0  0  0
    4.6846   -8.3325    0.0000 O   0  0  0  0  0  0  0  0  0  0  0  0
    7.5425   -7.5075    0.0000 H   0  0  0  0  0  0  0  0  0  0  0  0
  1  2  1  0  0  0  0
  2  3  1  0  0  0  0
  3  4  1  0  0  0  0
  4  5  1  0  0  0  0
  5  6  2  0  0  0  0
  6  1  1  0  0  0  0
  4  7  1  0  0  0  0
  7  8  1  0  0  0  0
  8  9  1  1  0  0  0
 10  9  1  1  0  0  0
 10  5  1  0  0  0  0
 10 11  1  0  0  0  0
  8 12  1  0  0  0  0
 11 13  1  0  0  0  0
 13 12  1  0  0  0  0
 12 14  1  0  0  0  0
 14 15  1  0  0  0  0
 15 16  1  0  0  0  0
 16 17  1  0  0  0  0
 17 13  1  0  0  0  0
  3 18  2  0  0  0  0
 12 19  1  6  0  0  0
M  END
>  <cdx:fragmentId>
5

$$$$
