91849.cdx
  Mrv1902 05222410262D          

 25 25  0  0  0  0            999 V2000
   11.9566   -9.0335    0.0000 C   0  0  0  0  0  0  0  0  0  0  0  0
   12.6691   -9.4494    0.0000 C   0  0  0  0  0  0  0  0  0  0  0  0
   13.3855   -9.0403    0.0000 C   0  0  0  0  0  0  0  0  0  0  0  0
   14.0980   -9.4563    0.0000 C   0  0  0  0  0  0  0  0  0  0  0  0
   14.8144   -9.0472    0.0000 C   0  0  0  0  0  0  0  0  0  0  0  0
   15.5269   -9.4631    0.0000 C   0  0  0  0  0  0  0  0  0  0  0  0
   16.2434   -9.0540    0.0000 C   0  0  0  0  0  0  0  0  0  0  0  0
   16.9559   -9.4700    0.0000 C   0  0  0  0  0  0  0  0  0  0  0  0
   11.2402   -9.4426    0.0000 C   0  0  0  0  0  0  0  0  0  0  0  0
   10.5277   -9.0266    0.0000 C   0  0  0  0  0  0  0  0  0  0  0  0
    9.8112   -9.4357    0.0000 C   0  0  0  0  0  0  0  0  0  0  0  0
    9.0987   -9.0198    0.0000 C   0  0  0  0  0  0  0  0  0  0  0  0
    8.3823   -9.4289    0.0000 C   0  0  0  0  0  0  0  0  0  0  0  0
    7.6698   -9.0129    0.0000 C   0  0  0  0  0  0  0  0  0  0  0  0
    6.9534   -9.4220    0.0000 C   0  0  0  0  0  0  0  0  0  0  0  0
    6.2409   -9.0061    0.0000 C   0  0  0  0  0  0  0  0  0  0  0  0
    5.5245   -9.4152    0.0000 C   0  0  0  0  0  0  0  0  0  0  0  0
    4.8159   -8.1743    0.0000 O   0  0  0  0  0  0  0  0  0  0  0  0
    4.8120   -8.9993    0.0000 C   0  0  0  0  0  0  0  0  0  0  0  0
    2.6666   -9.4015    0.0000 C   0  0  0  0  0  0  0  0  0  0  0  0
    2.6626  -10.2265    0.0000 C   0  0  0  0  0  0  0  0  0  0  0  0
    3.3751  -10.6424    0.0000 C   0  0  0  0  0  0  0  0  0  0  0  0
    4.0916  -10.2333    0.0000 C   0  0  0  0  0  0  0  0  0  0  0  0
    4.0955   -9.4083    0.0000 N   0  0  0  0  0  0  0  0  0  0  0  0
    3.3830   -8.9924    0.0000 C   0  0  0  0  0  0  0  0  0  0  0  0
  1  2  1  0  0  0  0
  2  3  2  0  0  0  0
  3  4  1  0  0  0  0
  4  5  1  0  0  0  0
  5  6  1  0  0  0  0
  6  7  1  0  0  0  0
  9  1  1  0  0  0  0
  7  8  1  0  0  0  0
 10  9  1  0  0  0  0
 11 10  1  0  0  0  0
 12 11  1  0  0  0  0
 13 12  1  0  0  0  0
 14 13  1  0  0  0  0
 15 14  2  0  0  0  0
 16 15  1  0  0  0  0
 17 16  2  0  0  0  0
 19 17  1  0  0  0  0
 19 18  2  0  0  0  0
 24 19  1  0  0  0  0
 20 25  1  0  0  0  0
 21 20  1  0  0  0  0
 22 21  1  0  0  0  0
 23 22  1  0  0  0  0
 24 23  1  0  0  0  0
 25 24  1  0  0  0  0
M  END
>  <cdx:fragmentId>
5

$$$$
