91846.cdx
  Mrv1902 05222410192D          

 28 31  0  0  0  0            999 V2000
    4.7402   -8.2363    0.0000 C   0  0  0  0  0  0  0  0  0  0  0  0
    4.7402   -9.0613    0.0000 C   0  0  0  0  0  0  0  0  0  0  0  0
    5.4546   -9.4738    0.0000 C   0  0  0  0  0  0  0  0  0  0  0  0
    6.1691   -9.0613    0.0000 C   0  0  0  0  0  0  0  0  0  0  0  0
    6.1691   -8.2363    0.0000 C   0  0  0  0  0  0  0  0  0  0  0  0
    5.4546   -7.8237    0.0000 C   0  0  0  0  0  0  0  0  0  0  0  0
    7.5980   -8.2363    0.0000 C   0  0  0  0  0  0  0  0  0  0  0  0
    6.8836   -7.8237    0.0000 C   0  0  1  0  0  0  0  0  0  0  0  0
    8.3125   -7.8237    0.0000 C   0  0  0  0  0  0  0  0  0  0  0  0
    8.3125   -6.9988    0.0000 C   0  0  0  0  0  0  0  0  0  0  0  0
    7.5980   -6.5863    0.0000 C   0  0  1  0  0  0  0  0  0  0  0  0
    6.8836   -6.9988    0.0000 C   0  0  2  0  0  0  0  0  0  0  0  0
    8.3125   -6.1737    0.0000 C   0  0  0  0  0  0  0  0  0  0  0  0
    8.3125   -5.3487    0.0000 C   0  0  0  0  0  0  0  0  0  0  0  0
    7.5980   -4.9363    0.0000 C   0  0  0  0  0  0  0  0  0  0  0  0
    6.8836   -5.3487    0.0000 C   0  0  0  0  0  0  0  0  0  0  0  0
    6.8836   -6.1737    0.0000 C   0  0  0  0  0  0  0  0  0  0  0  0
    4.0257   -7.8237    0.0000 O   0  0  0  0  0  0  0  0  0  0  0  0
    4.0257   -6.9988    0.0000 C   0  0  0  0  0  0  0  0  0  0  0  0
    4.0257   -9.4738    0.0000 O   0  0  0  0  0  0  0  0  0  0  0  0
    3.3112   -9.0613    0.0000 C   0  0  0  0  0  0  0  0  0  0  0  0
    5.4546  -10.2988    0.0000 O   0  0  0  0  0  0  0  0  0  0  0  0
    4.7402  -10.7112    0.0000 C   0  0  0  0  0  0  0  0  0  0  0  0
    8.7250   -6.8882    0.0000 O   0  0  0  0  0  0  0  0  0  0  0  0
    6.1691   -4.9363    0.0000 O   0  0  0  0  0  0  0  0  0  0  0  0
    5.4546   -5.3487    0.0000 C   0  0  0  0  0  0  0  0  0  0  0  0
    7.5980   -4.1113    0.0000 O   0  0  0  0  0  0  0  0  0  0  0  0
    6.1691   -6.5863    0.0000 C   0  0  0  0  0  0  0  0  0  0  0  0
  1  2  1  0  0  0  0
  2  3  2  0  0  0  0
  3  4  1  0  0  0  0
  4  5  2  0  0  0  0
  5  6  1  0  0  0  0
  6  1  2  0  0  0  0
  7  8  1  0  0  0  0
  8  5  1  6  0  0  0
  7  9  1  0  0  0  0
  9 10  1  0  0  0  0
 10 11  1  0  0  0  0
 11 12  1  0  0  0  0
 12  8  1  0  0  0  0
 11 13  1  0  0  0  0
 13 14  2  0  0  0  0
 14 15  1  0  0  0  0
 15 16  1  0  0  0  0
 16 17  2  0  0  0  0
 11 17  1  6  0  0  0
  1 18  1  0  0  0  0
 18 19  1  0  0  0  0
  2 20  1  0  0  0  0
 20 21  1  0  0  0  0
  3 22  1  0  0  0  0
 22 23  1  0  0  0  0
 13 24  1  0  0  0  0
 24  9  1  0  0  0  0
 16 25  1  0  0  0  0
 25 26  1  0  0  0  0
 15 27  2  0  0  0  0
 12 28  1  1  0  0  0
M  END
>  <cdx:fragmentId>
5

$$$$
