91859.cdx
  Mrv1902 05222410282D          

 16 17  0  0  0  0            999 V2000
    5.1664   -4.0012    0.0000 C   0  0  0  0  0  0  0  0  0  0  0  0
    5.1664   -4.8263    0.0000 C   0  0  2  0  0  0  0  0  0  0  0  0
    5.8809   -5.2387    0.0000 C   0  0  2  0  0  0  0  0  0  0  0  0
    6.5953   -4.8263    0.0000 C   0  0  2  0  0  0  0  0  0  0  0  0
    6.5953   -4.0012    0.0000 C   0  0  0  0  0  0  0  0  0  0  0  0
    5.8809   -3.5887    0.0000 C   0  0  0  0  0  0  0  0  0  0  0  0
    7.3098   -5.2387    0.0000 C   0  0  0  0  0  0  0  0  0  0  0  0
    8.0243   -4.8263    0.0000 C   0  0  1  0  0  0  0  0  0  0  0  0
    8.0243   -4.0012    0.0000 C   0  0  0  0  0  0  0  0  0  0  0  0
    7.3098   -3.5887    0.0000 C   0  0  0  0  0  0  0  0  0  0  0  0
    8.7388   -5.2387    0.0000 C   0  0  0  0  0  0  0  0  0  0  0  0
    9.4532   -4.8263    0.0000 C   0  0  0  0  0  0  0  0  0  0  0  0
    8.7388   -6.0638    0.0000 C   0  0  0  0  0  0  0  0  0  0  0  0
    4.4519   -5.2387    0.0000 O   0  0  0  0  0  0  0  0  0  0  0  0
    5.8809   -6.0638    0.0000 C   0  0  0  0  0  0  0  0  0  0  0  0
    6.5953   -5.6512    0.0000 C   0  0  0  0  0  0  0  0  0  0  0  0
  1  2  1  0  0  0  0
  2  3  1  0  0  0  0
  3  4  1  0  0  0  0
  4  5  1  0  0  0  0
  5  6  1  0  0  0  0
  6  1  1  0  0  0  0
  4  7  1  0  0  0  0
  7  8  1  0  0  0  0
  8  9  1  0  0  0  0
  9 10  1  0  0  0  0
 10  5  2  0  0  0  0
  8 11  1  1  0  0  0
 11 12  1  0  0  0  0
 11 13  2  0  0  0  0
  2 14  1  6  0  0  0
  3 15  1  6  0  0  0
  4 16  1  1  0  0  0
M  END
>  <cdx:fragmentId>
5

$$$$
