91857.cdx
  Mrv1902 05222410192D          

 10  9  0  0  0  0            999 V2000
    4.0934   -5.3075    0.0000 C   0  0  0  0  0  0  0  0  0  0  0  0
    4.8078   -4.8950    0.0000 C   0  0  0  0  0  0  0  0  0  0  0  0
    5.5223   -5.3075    0.0000 C   0  0  0  0  0  0  0  0  0  0  0  0
    6.2368   -4.8950    0.0000 C   0  0  0  0  0  0  0  0  0  0  0  0
    6.9513   -5.3075    0.0000 C   0  0  0  0  0  0  0  0  0  0  0  0
    7.6657   -4.8950    0.0000 C   0  0  0  0  0  0  0  0  0  0  0  0
    8.3802   -5.3075    0.0000 C   0  0  0  0  0  0  0  0  0  0  0  0
    9.0947   -4.8950    0.0000 C   0  0  0  0  0  0  0  0  0  0  0  0
    9.8091   -5.3075    0.0000 C   0  0  0  0  0  0  0  0  0  0  0  0
   10.5236   -4.8950    0.0000 C   0  0  0  0  0  0  0  0  0  0  0  0
  1  2  1  0  0  0  0
  2  3  1  0  0  0  0
  3  4  1  0  0  0  0
  4  5  1  0  0  0  0
  5  6  1  0  0  0  0
  6  7  1  0  0  0  0
  7  8  1  0  0  0  0
  8  9  1  0  0  0  0
  9 10  2  0  0  0  0
M  END
>  <cdx:fragmentId>
3

$$$$
