91858.cdx
  Mrv1902 05222410282D          

 25 25  0  0  0  0            999 V2000
    2.4247   -7.8251    0.0000 C   0  0  0  0  0  0  0  0  0  0  0  0
    2.4247   -8.6501    0.0000 C   0  0  0  0  0  0  0  0  0  0  0  0
    3.1391   -9.0626    0.0000 C   0  0  0  0  0  0  0  0  0  0  0  0
    3.8536   -8.6501    0.0000 C   0  0  0  0  0  0  0  0  0  0  0  0
    3.8536   -7.8251    0.0000 C   0  0  0  0  0  0  0  0  0  0  0  0
    3.1391   -7.4126    0.0000 C   0  0  0  0  0  0  0  0  0  0  0  0
    1.7102   -7.4126    0.0000 O   0  0  0  0  0  0  0  0  0  0  0  0
    1.7102   -9.0626    0.0000 O   0  0  0  0  0  0  0  0  0  0  0  0
    4.5681   -7.4126    0.0000 C   0  0  0  0  0  0  0  0  0  0  0  0
    5.2825   -7.8251    0.0000 C   0  0  0  0  0  0  0  0  0  0  0  0
    5.9970   -7.4126    0.0000 C   0  0  0  0  0  0  0  0  0  0  0  0
    6.7115   -7.8251    0.0000 C   0  0  0  0  0  0  0  0  0  0  0  0
    7.4260   -7.4126    0.0000 C   0  0  0  0  0  0  0  0  0  0  0  0
    8.1404   -7.8251    0.0000 C   0  0  0  0  0  0  0  0  0  0  0  0
    8.8549   -7.4126    0.0000 C   0  0  0  0  0  0  0  0  0  0  0  0
    5.9970   -6.5876    0.0000 O   0  0  0  0  0  0  0  0  0  0  0  0
    7.4260   -6.5876    0.0000 O   0  0  0  0  0  0  0  0  0  0  0  0
    9.5694   -7.8251    0.0000 C   0  0  0  0  0  0  0  0  0  0  0  0
   10.2838   -7.4126    0.0000 C   0  0  0  0  0  0  0  0  0  0  0  0
    0.9957   -7.8251    0.0000 C   0  0  0  0  0  0  0  0  0  0  0  0
   10.9983   -7.8251    0.0000 C   0  0  0  0  0  0  0  0  0  0  0  0
   11.7128   -7.4126    0.0000 C   0  0  0  0  0  0  0  0  0  0  0  0
   12.4272   -7.8251    0.0000 C   0  0  0  0  0  0  0  0  0  0  0  0
   13.1417   -7.4126    0.0000 C   0  0  0  0  0  0  0  0  0  0  0  0
   13.8562   -7.8251    0.0000 C   0  0  0  0  0  0  0  0  0  0  0  0
  1  2  2  0  0  0  0
  2  3  1  0  0  0  0
  3  4  2  0  0  0  0
  4  5  1  0  0  0  0
  5  6  2  0  0  0  0
  6  1  1  0  0  0  0
  1  7  1  0  0  0  0
  2  8  1  0  0  0  0
  5  9  1  0  0  0  0
  9 10  2  0  0  0  0
 10 11  1  0  0  0  0
 11 12  1  0  0  0  0
 12 13  1  0  0  0  0
 13 14  1  0  0  0  0
 14 15  1  0  0  0  0
 11 16  1  0  0  0  0
 13 17  2  0  0  0  0
 15 18  1  0  0  0  0
 18 19  1  0  0  0  0
  7 20  1  0  0  0  0
 19 21  1  0  0  0  0
 21 22  1  0  0  0  0
 22 23  1  0  0  0  0
 23 24  1  0  0  0  0
 24 25  1  0  0  0  0
M  END
>  <cdx:fragmentId>
5

$$$$
