91851.cdx
  Mrv1902 05222410202D          

 27 30  0  0  0  0            999 V2000
    7.5529   -8.6075    0.0000 C   0  0  0  0  0  0  0  0  0  0  0  0
    7.5529   -7.7825    0.0000 C   0  0  0  0  0  0  0  0  0  0  0  0
    6.8384   -7.3700    0.0000 C   0  0  0  0  0  0  0  0  0  0  0  0
    6.1239   -7.7825    0.0000 C   0  0  0  0  0  0  0  0  0  0  0  0
    6.1239   -8.6075    0.0000 C   0  0  0  0  0  0  0  0  0  0  0  0
    5.4095   -9.0200    0.0000 C   0  0  0  0  0  0  0  0  0  0  0  0
    4.6950   -8.6075    0.0000 C   0  0  0  0  0  0  0  0  0  0  0  0
    3.9805   -9.0200    0.0000 C   0  0  0  0  0  0  0  0  0  0  0  0
    3.9805   -9.8450    0.0000 C   0  0  0  0  0  0  0  0  0  0  0  0
    4.6950  -10.2575    0.0000 C   0  0  0  0  0  0  0  0  0  0  0  0
    5.4095   -9.8450    0.0000 C   0  0  0  0  0  0  0  0  0  0  0  0
    6.1239  -10.2575    0.0000 C   0  0  0  0  0  0  0  0  0  0  0  0
    6.8384   -9.8450    0.0000 C   0  0  0  0  0  0  0  0  0  0  0  0
    6.8384   -9.0200    0.0000 C   0  0  0  0  0  0  0  0  0  0  0  0
    3.2661  -10.2575    0.0000 O   0  0  0  0  0  0  0  0  0  0  0  0
    5.4095   -7.3700    0.0000 O   0  0  0  0  0  0  0  0  0  0  0  0
    8.2674   -7.3700    0.0000 O   0  0  0  0  0  0  0  0  0  0  0  0
    8.2674   -6.5450    0.0000 C   0  0  0  0  0  0  0  0  0  0  0  0
    8.2674   -9.0200    0.0000 C   0  0  0  0  0  0  0  0  0  0  0  0
    8.9818   -8.6075    0.0000 C   0  0  0  0  0  0  0  0  0  0  0  0
    8.9818   -7.7825    0.0000 C   0  0  0  0  0  0  0  0  0  0  0  0
    9.6963   -7.3700    0.0000 C   0  0  0  0  0  0  0  0  0  0  0  0
   10.4108   -7.7825    0.0000 C   0  0  0  0  0  0  0  0  0  0  0  0
   10.4108   -8.6075    0.0000 C   0  0  0  0  0  0  0  0  0  0  0  0
    9.6963   -9.0200    0.0000 C   0  0  0  0  0  0  0  0  0  0  0  0
    8.2674   -9.8450    0.0000 O   0  0  0  0  0  0  0  0  0  0  0  0
   11.1252   -7.3700    0.0000 O   0  0  0  0  0  0  0  0  0  0  0  0
  1  2  1  0  0  0  0
  2  3  2  0  0  0  0
  3  4  1  0  0  0  0
  4  5  2  0  0  0  0
  5  6  1  0  0  0  0
  6  7  1  0  0  0  0
  7  8  2  0  0  0  0
  8  9  1  0  0  0  0
  9 10  2  0  0  0  0
 10 11  1  0  0  0  0
  6 11  2  0  0  0  0
 11 12  1  0  0  0  0
 12 13  1  0  0  0  0
 13 14  1  0  0  0  0
  1 14  2  0  0  0  0
  5 14  1  0  0  0  0
  9 15  1  0  0  0  0
  4 16  1  0  0  0  0
 17 18  1  0  0  0  0
  2 17  1  0  0  0  0
 19 20  1  0  0  0  0
 20 21  1  0  0  0  0
 21 22  2  0  0  0  0
 22 23  1  0  0  0  0
 23 24  2  0  0  0  0
 24 25  1  0  0  0  0
 20 25  2  0  0  0  0
 19 26  2  0  0  0  0
 23 27  1  0  0  0  0
  1 19  1  0  0  0  0
M  END
>  <cdx:fragmentId>
5

$$$$
