91850.cdx
  Mrv1902 05222410202D          

 14 13  0  0  0  0            999 V2000
    3.4938   -3.8439    0.0000 C   0  0  0  0  0  0  0  0  0  0  0  0
    2.7794   -4.2564    0.0000 C   0  0  0  0  0  0  0  0  0  0  0  0
    2.0649   -3.8439    0.0000 C   0  0  0  0  0  0  0  0  0  0  0  0
    2.0649   -3.0189    0.0000 C   0  0  0  0  0  0  0  0  0  0  0  0
    3.4938   -3.0189    0.0000 O   0  0  0  0  0  0  0  0  0  0  0  0
    4.2083   -4.2564    0.0000 O   0  0  0  0  0  0  0  0  0  0  0  0
    1.3504   -4.2564    0.0000 C   0  0  0  0  0  0  0  0  0  0  0  0
    4.9228   -3.8439    0.0000 C   0  0  0  0  0  0  0  0  0  0  0  0
    5.6372   -4.2564    0.0000 C   0  0  0  0  0  0  0  0  0  0  0  0
    6.3517   -3.8439    0.0000 C   0  0  0  0  0  0  0  0  0  0  0  0
    7.0662   -4.2564    0.0000 C   0  0  0  0  0  0  0  0  0  0  0  0
    7.7806   -3.8439    0.0000 C   0  0  0  0  0  0  0  0  0  0  0  0
    8.4951   -4.2564    0.0000 C   0  0  0  0  0  0  0  0  0  0  0  0
    9.2096   -3.8439    0.0000 C   0  0  0  0  0  0  0  0  0  0  0  0
  1  2  1  0  0  0  0
  2  3  1  0  0  0  0
  3  4  1  0  0  0  0
  1  5  2  0  0  0  0
  1  6  1  0  0  0  0
  3  7  1  0  0  0  0
  8  9  1  0  0  0  0
  9 10  1  0  0  0  0
 10 11  1  0  0  0  0
 11 12  1  0  0  0  0
 12 13  1  0  0  0  0
 13 14  1  0  0  0  0
  6  8  1  0  0  0  0
M  END
>  <cdx:groupId>
43

>  <cdx:fragmentId>
19

$$$$
