91865.cdx
  Mrv1902 05222410282D          

 53 55  0  0  0  0            999 V2000
    1.1531   -8.0850    0.0000 C   0  0  0  0  0  0  0  0  0  0  0  0
    1.1531   -8.9100    0.0000 C   0  0  0  0  0  0  0  0  0  0  0  0
    1.8675   -9.3225    0.0000 C   0  0  0  0  0  0  0  0  0  0  0  0
    2.5820   -8.9100    0.0000 C   0  0  0  0  0  0  0  0  0  0  0  0
    2.5820   -8.0850    0.0000 C   0  0  0  0  0  0  0  0  0  0  0  0
    1.8675   -7.6725    0.0000 C   0  0  0  0  0  0  0  0  0  0  0  0
    4.0109   -8.0850    0.0000 C   0  0  0  0  0  0  0  0  0  0  0  0
    3.2965   -7.6725    0.0000 C   0  0  0  0  0  0  0  0  0  0  0  0
    5.4399   -8.0850    0.0000 O   0  0  0  0  0  0  0  0  0  0  0  0
    4.7254   -7.6725    0.0000 C   0  0  0  0  0  0  0  0  0  0  0  0
    6.8688   -8.9100    0.0000 C   0  0  0  0  0  0  0  0  0  0  0  0
    6.8688   -8.0850    0.0000 C   0  0  0  0  0  0  0  0  0  0  0  0
    6.1544   -7.6725    0.0000 C   0  0  0  0  0  0  0  0  0  0  0  0
    8.2978   -8.9100    0.0000 O   0  0  0  0  0  0  0  0  0  0  0  0
    8.2978   -8.0850    0.0000 C   0  0  0  0  0  0  0  0  0  0  0  0
    7.5833   -7.6725    0.0000 O   0  0  0  0  0  0  0  0  0  0  0  0
    9.7267   -8.9100    0.0000 O   0  0  0  0  0  0  0  0  0  0  0  0
    9.7267   -8.0850    0.0000 C   0  0  0  0  0  0  0  0  0  0  0  0
    9.0122   -7.6725    0.0000 C   0  0  0  0  0  0  0  0  0  0  0  0
   10.4412   -9.3225    0.0000 O   0  0  0  0  0  0  0  0  0  0  0  0
   11.1556   -8.9100    0.0000 C   0  0  0  0  0  0  0  0  0  0  0  0
   11.1556   -8.0850    0.0000 C   0  0  0  0  0  0  0  0  0  0  0  0
   10.4412   -7.6725    0.0000 O   0  0  0  0  0  0  0  0  0  0  0  0
   11.8701   -9.3225    0.0000 C   0  0  0  0  0  0  0  0  0  0  0  0
   12.5846   -8.9100    0.0000 C   0  0  0  0  0  0  0  0  0  0  0  0
   12.5846   -8.0850    0.0000 C   0  0  0  0  0  0  0  0  0  0  0  0
   11.8701   -7.6725    0.0000 C   0  0  0  0  0  0  0  0  0  0  0  0
    0.4386   -7.6725    0.0000 O   0  0  0  0  0  0  0  0  0  0  0  0
    0.4386   -9.3225    0.0000 O   0  0  0  0  0  0  0  0  0  0  0  0
    4.7254   -6.8475    0.0000 O   0  0  0  0  0  0  0  0  0  0  0  0
    6.1544   -6.8475    0.0000 C   0  0  0  0  0  0  0  0  0  0  0  0
    5.4399   -6.4350    0.0000 O   0  0  0  0  0  0  0  0  0  0  0  0
    6.8688   -6.4350    0.0000 O   0  0  0  0  0  0  0  0  0  0  0  0
    6.8688   -5.6100    0.0000 C   0  0  0  0  0  0  0  0  0  0  0  0
    7.5833   -5.1975    0.0000 C   0  0  0  0  0  0  0  0  0  0  0  0
    6.1544   -5.1975    0.0000 C   0  0  0  0  0  0  0  0  0  0  0  0
    7.5833   -4.3725    0.0000 C   0  0  0  0  0  0  0  0  0  0  0  0
    5.4399   -5.6100    0.0000 O   0  0  0  0  0  0  0  0  0  0  0  0
    6.1544   -4.3725    0.0000 O   0  0  0  0  0  0  0  0  0  0  0  0
    8.2978   -3.9600    0.0000 C   0  0  0  0  0  0  0  0  0  0  0  0
    8.2978   -3.1350    0.0000 C   0  0  0  0  0  0  0  0  0  0  0  0
    7.5833   -2.7225    0.0000 C   0  0  0  0  0  0  0  0  0  0  0  0
    6.8688   -3.1350    0.0000 C   0  0  0  0  0  0  0  0  0  0  0  0
    6.8688   -3.9600    0.0000 C   0  0  0  0  0  0  0  0  0  0  0  0
    7.5833   -1.8975    0.0000 O   0  0  0  0  0  0  0  0  0  0  0  0
    9.0122   -2.7225    0.0000 O   0  0  0  0  0  0  0  0  0  0  0  0
    7.5833   -9.3225    0.0000 O   0  0  0  0  0  0  0  0  0  0  0  0
    6.1544   -9.3225    0.0000 O   0  0  0  0  0  0  0  0  0  0  0  0
   11.8701  -10.1475    0.0000 O   0  0  0  0  0  0  0  0  0  0  0  0
   12.7981   -7.2881    0.0000 O   0  0  0  0  0  0  0  0  0  0  0  0
   13.3815   -8.2985    0.0000 C   0  0  0  0  0  0  0  0  0  0  0  0
   13.9648   -7.7152    0.0000 O   0  0  0  0  0  0  0  0  0  0  0  0
   13.5950   -9.0954    0.0000 O   0  0  0  0  0  0  0  0  0  0  0  0
  1  2  2  0  0  0  0
  2  3  1  0  0  0  0
  3  4  2  0  0  0  0
  4  5  1  0  0  0  0
  5  6  2  0  0  0  0
  6  1  1  0  0  0  0
  7  8  2  0  0  0  0
  8  5  1  0  0  0  0
  9 10  1  0  0  0  0
 10  7  1  0  0  0  0
 11 12  1  0  0  0  0
 12 13  1  0  0  0  0
 13  9  1  0  0  0  0
 14 15  2  0  0  0  0
 15 16  1  0  0  0  0
 16 12  1  0  0  0  0
 17 18  2  0  0  0  0
 18 19  1  0  0  0  0
 19 15  1  0  0  0  0
 20 21  1  0  0  0  0
 21 22  1  0  0  0  0
 22 23  1  0  0  0  0
 23 18  1  0  0  0  0
 21 24  1  0  0  0  0
 24 25  1  0  0  0  0
 25 26  1  0  0  0  0
 26 27  1  0  0  0  0
 27 22  1  0  0  0  0
  1 28  1  0  0  0  0
  2 29  1  0  0  0  0
 10 30  2  0  0  0  0
 13 31  1  0  0  0  0
 31 32  2  0  0  0  0
 31 33  1  0  0  0  0
 33 34  1  0  0  0  0
 34 35  1  0  0  0  0
 34 36  1  0  0  0  0
 35 37  1  0  0  0  0
 36 38  1  0  0  0  0
 36 39  2  0  0  0  0
 37 40  2  0  0  0  0
 40 41  1  0  0  0  0
 41 42  2  0  0  0  0
 42 43  1  0  0  0  0
 43 44  2  0  0  0  0
 44 37  1  0  0  0  0
 42 45  1  0  0  0  0
 41 46  1  0  0  0  0
 11 47  2  0  0  0  0
 11 48  1  0  0  0  0
 24 49  1  0  0  0  0
 26 50  1  0  0  0  0
 26 51  1  0  0  0  0
 51 52  1  0  0  0  0
 51 53  2  0  0  0  0
M  END
>  <cdx:fragmentId>
5

$$$$
