91863.cdx
  Mrv1902 05222410262D          

 30 33  0  0  0  0            999 V2000
    4.6868  -10.1063    0.0000 C   0  0  0  0  0  0  0  0  0  0  0  0
    4.6868  -10.9313    0.0000 C   0  0  0  0  0  0  0  0  0  0  0  0
    5.4013  -11.3438    0.0000 C   0  0  0  0  0  0  0  0  0  0  0  0
    6.1157  -10.9313    0.0000 C   0  0  0  0  0  0  0  0  0  0  0  0
    6.1157  -10.1063    0.0000 C   0  0  0  0  0  0  0  0  0  0  0  0
    5.4013   -9.6937    0.0000 C   0  0  0  0  0  0  0  0  0  0  0  0
    6.9004  -11.1862    0.0000 O   0  0  0  0  0  0  0  0  0  0  0  0
    7.3853  -10.5188    0.0000 C   0  0  0  0  0  0  0  0  0  0  0  0
    6.9004   -9.8513    0.0000 C   0  0  0  0  0  0  0  0  0  0  0  0
    3.9723  -11.3438    0.0000 O   0  0  0  0  0  0  0  0  0  0  0  0
    8.2103  -10.5188    0.0000 C   0  0  0  0  0  0  0  0  0  0  0  0
    8.6228  -11.2332    0.0000 C   0  0  0  0  0  0  0  0  0  0  0  0
    9.4478  -11.2332    0.0000 C   0  0  0  0  0  0  0  0  0  0  0  0
    9.8603  -10.5188    0.0000 C   0  0  0  0  0  0  0  0  0  0  0  0
    9.4478   -9.8043    0.0000 C   0  0  0  0  0  0  0  0  0  0  0  0
    8.6228   -9.8043    0.0000 C   0  0  0  0  0  0  0  0  0  0  0  0
    9.8603   -9.0898    0.0000 O   0  0  0  0  0  0  0  0  0  0  0  0
    9.8603  -11.9477    0.0000 O   0  0  0  0  0  0  0  0  0  0  0  0
    8.2103   -9.0898    0.0000 C   0  0  0  0  0  0  0  0  0  0  0  0
    8.6228   -8.3753    0.0000 C   0  0  1  0  0  0  0  0  0  0  0  0
    8.2103   -7.6609    0.0000 C   0  0  1  0  0  0  0  0  0  0  0  0
    9.0353   -7.6609    0.0000 O   0  0  0  0  0  0  0  0  0  0  0  0
    7.7978   -6.9464    0.0000 C   0  0  0  0  0  0  0  0  0  0  0  0
    8.2103   -6.2319    0.0000 C   0  0  0  0  0  0  0  0  0  0  0  0
    7.7978   -5.5175    0.0000 C   0  0  0  0  0  0  0  0  0  0  0  0
    8.2103   -4.8030    0.0000 C   0  0  0  0  0  0  0  0  0  0  0  0
    7.7978   -4.0885    0.0000 C   0  0  0  0  0  0  0  0  0  0  0  0
    9.0353   -4.8030    0.0000 C   0  0  0  0  0  0  0  0  0  0  0  0
    9.3373   -8.7878    0.0000 H   0  0  0  0  0  0  0  0  0  0  0  0
    7.4958   -8.0734    0.0000 C   0  0  0  0  0  0  0  0  0  0  0  0
  1  2  2  0  0  0  0
  2  3  1  0  0  0  0
  3  4  2  0  0  0  0
  4  5  1  0  0  0  0
  5  6  2  0  0  0  0
  6  1  1  0  0  0  0
  4  7  1  0  0  0  0
  7  8  1  0  0  0  0
  8  9  2  0  0  0  0
  9  5  1  0  0  0  0
  2 10  1  0  0  0  0
  8 11  1  0  0  0  0
 11 12  2  0  0  0  0
 12 13  1  0  0  0  0
 13 14  2  0  0  0  0
 14 15  1  0  0  0  0
 15 16  2  0  0  0  0
 16 11  1  0  0  0  0
 15 17  1  0  0  0  0
 13 18  1  0  0  0  0
 16 19  1  0  0  0  0
 19 20  1  0  0  0  0
 20 21  1  0  0  0  0
 20 22  1  0  0  0  0
 22 21  1  0  0  0  0
 21 23  1  0  0  0  0
 23 24  1  0  0  0  0
 24 25  1  0  0  0  0
 25 26  2  0  0  0  0
 26 27  1  0  0  0  0
 26 28  1  0  0  0  0
 20 29  1  6  0  0  0
 21 30  1  1  0  0  0
M  END
>  <cdx:fragmentId>
5

$$$$
