91866.cdx
  Mrv1902 05222410272D          

 16 16  0  0  0  0            999 V2000
    5.8556   -8.0162    0.0000 C   0  0  0  0  0  0  0  0  0  0  0  0
    5.8556   -8.8413    0.0000 C   0  0  0  0  0  0  0  0  0  0  0  0
    6.5700   -9.2538    0.0000 C   0  0  0  0  0  0  0  0  0  0  0  0
    7.2845   -8.8413    0.0000 C   0  0  0  0  0  0  0  0  0  0  0  0
    7.2845   -8.0162    0.0000 C   0  0  0  0  0  0  0  0  0  0  0  0
    6.5700   -7.6037    0.0000 C   0  0  0  0  0  0  0  0  0  0  0  0
    6.5700  -10.0787    0.0000 C   0  0  0  0  0  0  0  0  0  0  0  0
    6.5700  -10.9038    0.0000 C   0  0  0  0  0  0  0  0  0  0  0  0
    7.3950  -10.0787    0.0000 C   0  0  0  0  0  0  0  0  0  0  0  0
    5.7450  -10.0787    0.0000 C   0  0  0  0  0  0  0  0  0  0  0  0
    6.5700   -6.7788    0.0000 O   0  0  0  0  0  0  0  0  0  0  0  0
    7.2845   -6.3662    0.0000 C   0  0  0  0  0  0  0  0  0  0  0  0
    7.2845   -5.5413    0.0000 C   0  0  0  0  0  0  0  0  0  0  0  0
    7.9990   -6.7788    0.0000 C   0  0  0  0  0  0  0  0  0  0  0  0
    8.7134   -6.3662    0.0000 O   0  0  0  0  0  0  0  0  0  0  0  0
    7.9990   -7.6037    0.0000 O   0  0  0  0  0  0  0  0  0  0  0  0
  1  2  2  0  0  0  0
  2  3  1  0  0  0  0
  3  4  2  0  0  0  0
  4  5  1  0  0  0  0
  5  6  2  0  0  0  0
  6  1  1  0  0  0  0
  3  7  1  0  0  0  0
  7  8  1  0  0  0  0
  7  9  1  0  0  0  0
  7 10  1  0  0  0  0
  6 11  1  0  0  0  0
 11 12  1  0  0  0  0
 12 13  1  0  0  0  0
 12 14  1  0  0  0  0
 14 15  1  0  0  0  0
 14 16  2  0  0  0  0
M  END
>  <cdx:fragmentId>
44

$$$$
