91862.cdx
  Mrv1902 05222410272D          

 22 21  0  0  0  0            999 V2000
   10.1106   -4.2900    0.0000 C   0  0  0  0  0  0  0  0  0  0  0  0
    9.3962   -3.8775    0.0000 C   0  0  0  0  0  0  0  0  0  0  0  0
    8.6817   -4.2900    0.0000 C   0  0  0  0  0  0  0  0  0  0  0  0
    7.9672   -3.8775    0.0000 C   0  0  0  0  0  0  0  0  0  0  0  0
    7.2528   -4.2900    0.0000 C   0  0  0  0  0  0  0  0  0  0  0  0
    6.5383   -3.8775    0.0000 C   0  0  0  0  0  0  0  0  0  0  0  0
    5.8238   -4.2900    0.0000 C   0  0  0  0  0  0  0  0  0  0  0  0
    5.1094   -3.8775    0.0000 C   0  0  0  0  0  0  0  0  0  0  0  0
    4.3949   -4.2900    0.0000 C   0  0  0  0  0  0  0  0  0  0  0  0
    3.6804   -3.8775    0.0000 C   0  0  0  0  0  0  0  0  0  0  0  0
    2.9659   -4.2900    0.0000 O   0  0  0  0  0  0  0  0  0  0  0  0
    2.2515   -3.8775    0.0000 C   0  0  0  0  0  0  0  0  0  0  0  0
    1.5370   -4.2900    0.0000 C   0  0  0  0  0  0  0  0  0  0  0  0
    0.8225   -3.8775    0.0000 O   0  0  0  0  0  0  0  0  0  0  0  0
   10.1106   -5.1150    0.0000 C   0  0  0  0  0  0  0  0  0  0  0  0
   10.8251   -5.5275    0.0000 C   0  0  0  0  0  0  0  0  0  0  0  0
   10.8251   -6.3525    0.0000 C   0  0  0  0  0  0  0  0  0  0  0  0
   11.5396   -6.7650    0.0000 C   0  0  0  0  0  0  0  0  0  0  0  0
   11.5396   -7.5900    0.0000 C   0  0  0  0  0  0  0  0  0  0  0  0
   12.2541   -8.0025    0.0000 C   0  0  0  0  0  0  0  0  0  0  0  0
   12.2541   -8.8275    0.0000 C   0  0  0  0  0  0  0  0  0  0  0  0
   12.9685   -9.2400    0.0000 C   0  0  0  0  0  0  0  0  0  0  0  0
  2  1  2  0  0  0  0
  3  2  1  0  0  0  0
  4  3  1  0  0  0  0
  5  4  1  0  0  0  0
  6  5  1  0  0  0  0
  7  6  1  0  0  0  0
  8  7  1  0  0  0  0
  9  8  1  0  0  0  0
 10  9  1  0  0  0  0
 11 10  1  0  0  0  0
 12 11  1  0  0  0  0
 13 12  1  0  0  0  0
 14 13  1  0  0  0  0
  1 15  1  0  0  0  0
 15 16  1  0  0  0  0
 16 17  1  0  0  0  0
 17 18  1  0  0  0  0
 18 19  1  0  0  0  0
 19 20  1  0  0  0  0
 20 21  1  0  0  0  0
 21 22  1  0  0  0  0
M  END
>  <cdx:fragmentId>
3

$$$$
