91869.cdx
  Mrv1902 05222410182D          

 11 11  0  0  0  0            999 V2000
    6.1993   -7.7138    0.0000 C   0  0  0  0  0  0  0  0  0  0  0  0
    6.1993   -8.5388    0.0000 C   0  0  0  0  0  0  0  0  0  0  0  0
    6.9138   -8.9513    0.0000 C   0  0  0  0  0  0  0  0  0  0  0  0
    7.6282   -8.5388    0.0000 C   0  0  0  0  0  0  0  0  0  0  0  0
    7.6282   -7.7138    0.0000 C   0  0  0  0  0  0  0  0  0  0  0  0
    6.9138   -7.3012    0.0000 C   0  0  0  0  0  0  0  0  0  0  0  0
    5.4848   -7.3012    0.0000 O   0  0  0  0  0  0  0  0  0  0  0  0
    8.3427   -8.9513    0.0000 O   0  0  0  0  0  0  0  0  0  0  0  0
    6.9138   -6.4763    0.0000 C   0  0  0  0  0  0  0  0  0  0  0  0
    6.1993   -6.0638    0.0000 O   0  0  0  0  0  0  0  0  0  0  0  0
    7.6282   -6.0638    0.0000 C   0  0  0  0  0  0  0  0  0  0  0  0
  1  2  2  0  0  0  0
  2  3  1  0  0  0  0
  3  4  2  0  0  0  0
  4  5  1  0  0  0  0
  5  6  2  0  0  0  0
  6  1  1  0  0  0  0
  1  7  1  0  0  0  0
  4  8  1  0  0  0  0
  6  9  1  0  0  0  0
  9 10  2  0  0  0  0
  9 11  1  0  0  0  0
M  END
>  <cdx:fragmentId>
5

$$$$
