91861.cdx
  Mrv1902 05222410262D          

 10  9  0  0  0  0            999 V2000
    4.9063   -7.7825    0.0000 C   0  0  0  0  0  0  0  0  0  0  0  0
    5.6207   -7.3700    0.0000 C   0  0  0  0  0  0  0  0  0  0  0  0
    6.3352   -7.7825    0.0000 C   0  0  0  0  0  0  0  0  0  0  0  0
    7.0497   -7.3700    0.0000 C   0  0  0  0  0  0  0  0  0  0  0  0
    7.7642   -7.7825    0.0000 C   0  0  0  0  0  0  0  0  0  0  0  0
    8.4786   -7.3700    0.0000 C   0  0  0  0  0  0  0  0  0  0  0  0
    9.1931   -7.7825    0.0000 C   0  0  0  0  0  0  0  0  0  0  0  0
    9.9076   -7.3700    0.0000 C   0  0  0  0  0  0  0  0  0  0  0  0
   10.6220   -7.7825    0.0000 C   0  0  0  0  0  0  0  0  0  0  0  0
   11.3365   -7.3700    0.0000 C   0  0  0  0  0  0  0  0  0  0  0  0
  1  2  1  0  0  0  0
  2  3  2  0  0  0  0
  3  4  1  0  0  0  0
  4  5  1  0  0  0  0
  5  6  1  0  0  0  0
  6  7  1  0  0  0  0
  7  8  1  0  0  0  0
  8  9  2  0  0  0  0
  9 10  1  0  0  0  0
M  END
>  <cdx:fragmentId>
3

$$$$
