91868.cdx
  Mrv1902 05222410182D          

 22 24  0  0  0  0            999 V2000
    6.5002   -9.5309    0.0000 O   0  0  0  0  0  0  0  0  0  0  0  0
    9.3581   -7.0559    0.0000 C   0  0  0  0  0  0  0  0  0  0  0  0
    9.3581   -6.2309    0.0000 C   0  0  0  0  0  0  0  0  0  0  0  0
    8.6436   -5.8184    0.0000 C   0  0  0  0  0  0  0  0  0  0  0  0
    7.9292   -6.2309    0.0000 C   0  0  0  0  0  0  0  0  0  0  0  0
    8.6436   -7.4684    0.0000 C   0  0  0  0  0  0  0  0  0  0  0  0
    7.9292   -7.0559    0.0000 C   0  0  0  0  0  0  0  0  0  0  0  0
    6.5002   -8.7059    0.0000 C   0  0  0  0  0  0  0  0  0  0  0  0
    7.2147   -8.2934    0.0000 C   0  0  0  0  0  0  0  0  0  0  0  0
    7.2147   -7.4684    0.0000 C   0  0  0  0  0  0  0  0  0  0  0  0
    6.5002   -7.0559    0.0000 O   0  0  0  0  0  0  0  0  0  0  0  0
    5.0713   -8.7059    0.0000 C   0  0  0  0  0  0  0  0  0  0  0  0
    5.7857   -8.2934    0.0000 C   0  0  0  0  0  0  0  0  0  0  0  0
    5.7857   -7.4684    0.0000 C   0  0  0  0  0  0  0  0  0  0  0  0
    5.0713   -7.0559    0.0000 C   0  0  0  0  0  0  0  0  0  0  0  0
    4.3568   -7.4684    0.0000 C   0  0  0  0  0  0  0  0  0  0  0  0
    4.3568   -8.2934    0.0000 C   0  0  0  0  0  0  0  0  0  0  0  0
    7.2147   -5.8184    0.0000 O   0  0  0  0  0  0  0  0  0  0  0  0
   10.0726   -5.8184    0.0000 O   0  0  0  0  0  0  0  0  0  0  0  0
    7.9292   -8.7059    0.0000 O   0  0  0  0  0  0  0  0  0  0  0  0
    5.0713   -9.5309    0.0000 O   0  0  0  0  0  0  0  0  0  0  0  0
    3.6423   -7.0559    0.0000 O   0  0  0  0  0  0  0  0  0  0  0  0
  8  1  2  0  0  0  0
  2  6  2  0  0  0  0
  3  2  1  0  0  0  0
  4  3  2  0  0  0  0
  5  4  1  0  0  0  0
  7  5  2  0  0  0  0
  7  6  1  0  0  0  0
 10  7  1  0  0  0  0
  8 13  1  0  0  0  0
  9  8  1  0  0  0  0
 10  9  1  0  0  0  0
 11 10  1  0  0  0  0
 14 11  1  0  0  0  0
 12 17  1  0  0  0  0
 13 12  2  0  0  0  0
 14 13  1  0  0  0  0
 15 14  2  0  0  0  0
 16 15  1  0  0  0  0
 17 16  2  0  0  0  0
  5 18  1  0  0  0  0
  3 19  1  0  0  0  0
  9 20  1  0  0  0  0
 12 21  1  0  0  0  0
 16 22  1  0  0  0  0
M  END
>  <cdx:fragmentId>
5

$$$$
