91864.cdx
  Mrv1902 05222410282D          

 37 38  0  0  0  0            999 V2000
    1.6893   -6.9988    0.0000 C   0  0  0  0  0  0  0  0  0  0  0  0
    1.6893   -7.8237    0.0000 C   0  0  0  0  0  0  0  0  0  0  0  0
    2.4038   -8.2363    0.0000 C   0  0  0  0  0  0  0  0  0  0  0  0
    3.1182   -7.8237    0.0000 C   0  0  0  0  0  0  0  0  0  0  0  0
    3.1182   -6.9988    0.0000 C   0  0  0  0  0  0  0  0  0  0  0  0
    2.4038   -6.5863    0.0000 C   0  0  0  0  0  0  0  0  0  0  0  0
    4.5472   -7.8237    0.0000 O   0  0  0  0  0  0  0  0  0  0  0  0
    4.5472   -6.9988    0.0000 C   0  0  0  0  0  0  0  0  0  0  0  0
    3.8327   -6.5863    0.0000 C   0  0  0  0  0  0  0  0  0  0  0  0
    5.9761   -6.9988    0.0000 O   0  0  0  0  0  0  0  0  0  0  0  0
    5.2617   -6.5863    0.0000 C   0  0  0  0  0  0  0  0  0  0  0  0
    7.4051   -7.8237    0.0000 C   0  0  0  0  0  0  0  0  0  0  0  0
    7.4051   -6.9988    0.0000 C   0  0  0  0  0  0  0  0  0  0  0  0
    6.6906   -6.5863    0.0000 C   0  0  0  0  0  0  0  0  0  0  0  0
    8.1195   -8.2363    0.0000 O   0  0  0  0  0  0  0  0  0  0  0  0
    8.1195   -6.5863    0.0000 O   0  0  0  0  0  0  0  0  0  0  0  0
    0.9748   -6.5863    0.0000 O   0  0  0  0  0  0  0  0  0  0  0  0
    0.9748   -8.2363    0.0000 O   0  0  0  0  0  0  0  0  0  0  0  0
    5.2617   -5.7612    0.0000 O   0  0  0  0  0  0  0  0  0  0  0  0
    6.6906   -5.7612    0.0000 C   0  0  0  0  0  0  0  0  0  0  0  0
    5.9761   -5.3487    0.0000 O   0  0  0  0  0  0  0  0  0  0  0  0
    7.4051   -5.3487    0.0000 O   0  0  0  0  0  0  0  0  0  0  0  0
    6.6906   -8.2363    0.0000 O   0  0  0  0  0  0  0  0  0  0  0  0
    8.8340   -6.1737    0.0000 C   0  0  0  0  0  0  0  0  0  0  0  0
    9.5485   -6.5863    0.0000 C   0  0  0  0  0  0  0  0  0  0  0  0
    8.8340   -5.3487    0.0000 O   0  0  0  0  0  0  0  0  0  0  0  0
    9.5485   -7.4112    0.0000 C   0  0  0  0  0  0  0  0  0  0  0  0
   10.2630   -7.8237    0.0000 C   0  0  0  0  0  0  0  0  0  0  0  0
   10.9774   -7.4112    0.0000 C   0  0  0  0  0  0  0  0  0  0  0  0
   10.9774   -6.5863    0.0000 C   0  0  0  0  0  0  0  0  0  0  0  0
   10.2630   -6.1737    0.0000 C   0  0  0  0  0  0  0  0  0  0  0  0
   10.2630   -8.6487    0.0000 O   0  0  0  0  0  0  0  0  0  0  0  0
   11.6919   -6.1737    0.0000 O   0  0  0  0  0  0  0  0  0  0  0  0
   11.6919   -7.8237    0.0000 O   0  0  0  0  0  0  0  0  0  0  0  0
   12.5169   -7.8237    0.0000 C   0  0  0  0  0  0  0  0  0  0  0  0
   12.9294   -8.5382    0.0000 C   0  0  0  0  0  0  0  0  0  0  0  0
   12.9294   -7.1093    0.0000 O   0  0  0  0  0  0  0  0  0  0  0  0
  1  2  2  0  0  0  0
  2  3  1  0  0  0  0
  3  4  2  0  0  0  0
  4  5  1  0  0  0  0
  5  6  2  0  0  0  0
  6  1  1  0  0  0  0
  7  8  1  0  0  0  0
  8  9  1  0  0  0  0
  9  5  1  0  0  0  0
 10 11  1  0  0  0  0
 11  8  1  0  0  0  0
 12 13  1  0  0  0  0
 13 14  1  0  0  0  0
 14 10  1  0  0  0  0
 12 15  1  0  0  0  0
 16 13  1  0  0  0  0
  1 17  1  0  0  0  0
  2 18  1  0  0  0  0
 11 19  2  0  0  0  0
 14 20  1  0  0  0  0
 20 21  2  0  0  0  0
 20 22  1  0  0  0  0
 12 23  2  0  0  0  0
 16 24  1  0  0  0  0
 24 25  1  0  0  0  0
 24 26  2  0  0  0  0
 25 27  1  0  0  0  0
 27 28  1  0  0  0  0
 28 29  1  0  0  0  0
 29 30  1  0  0  0  0
 30 31  1  0  0  0  0
 31 25  2  0  0  0  0
 28 32  1  0  0  0  0
 30 33  1  0  0  0  0
 29 34  1  0  0  0  0
 34 35  1  0  0  0  0
 35 36  1  0  0  0  0
 35 37  2  0  0  0  0
M  END
>  <cdx:fragmentId>
5

$$$$
