91875.cdx
  Mrv1902 05222410262D          

 38 41  0  0  0  0            999 V2000
    3.7931   -8.0437    0.0000 C   0  0  2  0  0  0  0  0  0  0  0  0
    3.7931   -8.8688    0.0000 C   0  0  1  0  0  0  0  0  0  0  0  0
    4.5075   -9.2813    0.0000 C   0  0  0  0  0  0  0  0  0  0  0  0
    5.2220   -8.8688    0.0000 C   0  0  2  0  0  0  0  0  0  0  0  0
    5.2220   -8.0437    0.0000 C   0  0  2  0  0  0  0  0  0  0  0  0
    4.5075   -7.6313    0.0000 C   0  0  0  0  0  0  0  0  0  0  0  0
    5.9365   -9.2813    0.0000 C   0  0  0  0  0  0  0  0  0  0  0  0
    6.6509   -8.8688    0.0000 C   0  0  0  0  0  0  0  0  0  0  0  0
    6.6509   -8.0437    0.0000 C   0  0  0  0  0  0  0  0  0  0  0  0
    5.9365   -7.6313    0.0000 C   0  0  2  0  0  0  0  0  0  0  0  0
    7.3654   -7.6313    0.0000 C   0  0  2  0  0  0  0  0  0  0  0  0
    7.3654   -6.8062    0.0000 C   0  0  1  0  0  0  0  0  0  0  0  0
    6.6509   -6.3937    0.0000 C   0  0  0  0  0  0  0  0  0  0  0  0
    5.9365   -6.8062    0.0000 C   0  0  0  0  0  0  0  0  0  0  0  0
    5.9365  -10.1063    0.0000 O   0  0  0  0  0  0  0  0  0  0  0  0
    3.0786   -7.6313    0.0000 O   0  0  0  0  0  0  0  0  0  0  0  0
    3.0786   -9.2813    0.0000 O   0  0  0  0  0  0  0  0  0  0  0  0
    5.2220   -7.2188    0.0000 C   0  0  0  0  0  0  0  0  0  0  0  0
    5.2220   -9.6937    0.0000 H   0  0  0  0  0  0  0  0  0  0  0  0
    7.3654   -5.9813    0.0000 C   0  0  0  0  0  0  0  0  0  0  0  0
    5.9365   -8.4562    0.0000 H   0  0  0  0  0  0  0  0  0  0  0  0
    7.3654   -8.4563    0.0000 O   0  0  0  0  0  0  0  0  0  0  0  0
    8.1500   -7.8862    0.0000 C   0  0  0  0  0  0  0  0  0  0  0  0
    8.6350   -7.2188    0.0000 C   0  0  0  0  0  0  0  0  0  0  0  0
    8.1500   -6.5513    0.0000 C   0  0  2  0  0  0  0  0  0  0  0  0
    8.4050   -5.7667    0.0000 C   0  0  0  0  0  0  0  0  0  0  0  0
    7.6081   -5.5532    0.0000 C   0  0  0  0  0  0  0  0  0  0  0  0
    8.6185   -4.9698    0.0000 C   0  0  2  0  0  0  0  0  0  0  0  0
    9.2019   -5.9802    0.0000 O   0  0  0  0  0  0  0  0  0  0  0  0
    8.9347   -6.2964    0.0000 H   0  0  0  0  0  0  0  0  0  0  0  0
    8.0351   -4.3864    0.0000 O   0  0  0  0  0  0  0  0  0  0  0  0
    9.4154   -4.7563    0.0000 C   0  0  0  0  0  0  0  0  0  0  0  0
    9.6289   -3.9594    0.0000 C   0  0  0  0  0  0  0  0  0  0  0  0
   10.4258   -3.7459    0.0000 C   0  0  0  0  0  0  0  0  0  0  0  0
   10.6393   -4.5427    0.0000 C   0  0  0  0  0  0  0  0  0  0  0  0
   10.2123   -2.9490    0.0000 O   0  0  0  0  0  0  0  0  0  0  0  0
   11.2227   -3.5323    0.0000 C   0  0  0  0  0  0  0  0  0  0  0  0
   11.4362   -2.7354    0.0000 O   0  0  0  0  0  0  0  0  0  0  0  0
  1  2  1  0  0  0  0
  2  3  1  0  0  0  0
  3  4  1  0  0  0  0
  4  5  1  0  0  0  0
  5  6  1  0  0  0  0
  6  1  1  0  0  0  0
  4  7  1  0  0  0  0
  7  8  1  0  0  0  0
  8  9  2  0  0  0  0
  9 10  1  0  0  0  0
 10  5  1  0  0  0  0
  9 11  1  0  0  0  0
 11 12  1  0  0  0  0
 12 13  1  0  0  0  0
 13 14  1  0  0  0  0
 14 10  1  0  0  0  0
  7 15  2  0  0  0  0
  1 16  1  1  0  0  0
  2 17  1  1  0  0  0
  5 18  1  1  0  0  0
  4 19  1  1  0  0  0
 12 20  1  1  0  0  0
 10 21  1  6  0  0  0
 11 22  1  6  0  0  0
 11 23  1  0  0  0  0
 23 24  1  0  0  0  0
 24 25  1  0  0  0  0
 25 12  1  0  0  0  0
 25 26  1  0  0  0  0
 26 27  1  0  0  0  0
 26 28  1  0  0  0  0
 26 29  1  1  0  0  0
 25 30  1  6  0  0  0
 28 31  1  6  0  0  0
 28 32  1  0  0  0  0
 32 33  1  0  0  0  0
 33 34  1  0  0  0  0
 34 35  1  0  0  0  0
 34 36  1  0  0  0  0
 34 37  1  0  0  0  0
 37 38  1  0  0  0  0
M  END
>  <cdx:fragmentId>
5

$$$$
