91878.cdx
  Mrv1902 05222410202D          

 39 42  0  0  0  0            999 V2000
    4.3253   -7.0779    0.0000 H   0  0  0  0  0  0  0  0  0  0  0  0
    6.0759   -8.5824    0.0000 H   0  0  0  0  0  0  0  0  0  0  0  0
    6.0001   -9.2473    0.0000 H   0  0  0  0  0  0  0  0  0  0  0  0
    3.5930  -11.3687    0.0000 O   0  0  0  0  0  0  0  0  0  0  0  0
    4.2017  -11.8756    0.0000 O   0  0  0  0  0  0  0  0  0  0  0  0
    6.5198  -11.4098    0.0000 O   0  0  0  0  0  0  0  0  0  0  0  0
    5.7040  -11.5328    0.0000 C   0  0  0  0  0  0  0  0  0  0  0  0
    1.6457  -10.1444    0.0000 C   0  0  0  0  0  0  0  0  0  0  0  0
    5.5826   -6.7527    0.0000 C   0  0  0  0  0  0  0  0  0  0  0  0
    6.2083   -7.2904    0.0000 C   0  0  0  0  0  0  0  0  0  0  0  0
    2.4523   -8.9275    0.0000 C   0  0  0  0  0  0  0  0  0  0  0  0
    4.2017   -8.4133    0.0000 O   0  0  0  0  0  0  0  0  0  0  0  0
    4.3853   -9.2176    0.0000 C   0  0  0  0  0  0  0  0  0  0  0  0
    3.2773   -8.9275    0.0000 C   0  0  2  0  0  0  0  0  0  0  0  0
    3.6491   -8.0771    0.0000 C   0  0  0  0  0  0  0  0  0  0  0  0
    4.5539   -7.8706    0.0000 C   0  0  1  0  0  0  0  0  0  0  0  0
    5.4298   -7.5634    0.0000 C   0  0  0  0  0  0  0  0  0  0  0  0
    5.2579   -8.4755    0.0000 C   0  0  1  0  0  0  0  0  0  0  0  0
    5.1896   -9.4011    0.0000 C   0  0  2  0  0  0  0  0  0  0  0  0
    5.5475  -10.1444    0.0000 C   0  0  0  0  0  0  0  0  0  0  0  0
    5.1896  -10.8877    0.0000 C   0  0  0  0  0  0  0  0  0  0  0  0
    4.3853  -11.0713    0.0000 C   0  0  2  0  0  0  0  0  0  0  0  0
    3.7403  -10.5569    0.0000 C   0  0  1  0  0  0  0  0  0  0  0  0
    2.9556  -10.8119    0.0000 C   0  0  2  0  0  0  0  0  0  0  0  0
    2.4707  -10.1444    0.0000 C   0  0  0  0  0  0  0  0  0  0  0  0
    2.9556   -9.4770    0.0000 C   0  0  0  0  0  0  0  0  0  0  0  0
    3.7403   -9.7319    0.0000 C   0  0  0  0  0  0  0  0  0  0  0  0
    2.7007  -11.5965    0.0000 O   0  0  0  0  0  0  0  0  0  0  0  0
    7.0341  -12.0548    0.0000 C   0  0  0  0  0  0  0  0  0  0  0  0
    7.8499  -11.9318    0.0000 C   0  0  0  0  0  0  0  0  0  0  0  0
    6.7327  -12.8228    0.0000 O   0  0  0  0  0  0  0  0  0  0  0  0
    8.3643  -12.5769    0.0000 C   0  0  0  0  0  0  0  0  0  0  0  0
    9.1801  -12.4539    0.0000 C   0  0  0  0  0  0  0  0  0  0  0  0
    9.6945  -13.0989    0.0000 C   0  0  0  0  0  0  0  0  0  0  0  0
    9.3931  -13.8669    0.0000 C   0  0  0  0  0  0  0  0  0  0  0  0
    9.9074  -14.5119    0.0000 C   0  0  0  0  0  0  0  0  0  0  0  0
    9.6060  -15.2799    0.0000 C   0  0  0  0  0  0  0  0  0  0  0  0
   10.1204  -15.9249    0.0000 C   0  0  0  0  0  0  0  0  0  0  0  0
    9.8190  -16.6928    0.0000 C   0  0  0  0  0  0  0  0  0  0  0  0
 16  1  1  6  0  0  0
 18  2  1  6  0  0  0
 19  3  1  1  0  0  0
 24 28  1  1  0  0  0
 23  4  1  1  0  0  0
 22  5  1  1  0  0  0
 21  7  1  0  0  0  0
  7  6  1  0  0  0  0
 25  8  1  0  0  0  0
 17  9  1  0  0  0  0
 17 10  1  0  0  0  0
 14 11  1  6  0  0  0
 13 12  2  0  0  0  0
 27 23  1  0  0  0  0
 18 16  1  0  0  0  0
 19 13  1  0  0  0  0
 27 13  1  0  0  0  0
 27 14  1  0  0  0  0
 15 14  1  0  0  0  0
 16 15  1  0  0  0  0
 17 16  1  0  0  0  0
 18 17  1  0  0  0  0
 19 18  1  0  0  0  0
 20 19  1  0  0  0  0
 21 20  2  0  0  0  0
 22 21  1  0  0  0  0
 23 22  1  0  0  0  0
 24 23  1  0  0  0  0
 25 24  1  0  0  0  0
 26 25  2  0  0  0  0
 27 26  1  0  0  0  0
  6 29  1  0  0  0  0
 29 30  1  0  0  0  0
 29 31  2  0  0  0  0
 30 32  2  0  0  0  0
 32 33  1  0  0  0  0
 33 34  2  0  0  0  0
 34 35  1  0  0  0  0
 35 36  1  0  0  0  0
 36 37  1  0  0  0  0
 37 38  1  0  0  0  0
 38 39  1  0  0  0  0
M  END
>  <cdx:groupId>
947

>  <cdx:fragmentId>
854

$$$$
