91879.cdx
  Mrv1902 05222410202D          

 31 34  0  0  0  0            999 V2000
    7.2128   -6.6104    0.0000 H   0  0  0  0  0  0  0  0  0  0  0  0
    8.9634   -8.1149    0.0000 H   0  0  0  0  0  0  0  0  0  0  0  0
    8.8876   -8.7798    0.0000 H   0  0  0  0  0  0  0  0  0  0  0  0
    6.4805  -10.9012    0.0000 O   0  0  0  0  0  0  0  0  0  0  0  0
    7.0892  -11.4081    0.0000 O   0  0  0  0  0  0  0  0  0  0  0  0
    9.4073  -10.9423    0.0000 O   0  0  0  0  0  0  0  0  0  0  0  0
    8.5915  -11.0653    0.0000 C   0  0  0  0  0  0  0  0  0  0  0  0
    4.5332   -9.6769    0.0000 C   0  0  0  0  0  0  0  0  0  0  0  0
    8.4701   -6.2852    0.0000 C   0  0  0  0  0  0  0  0  0  0  0  0
    9.0958   -6.8229    0.0000 C   0  0  0  0  0  0  0  0  0  0  0  0
    5.3398   -8.4600    0.0000 C   0  0  0  0  0  0  0  0  0  0  0  0
    7.0892   -7.9458    0.0000 O   0  0  0  0  0  0  0  0  0  0  0  0
    7.2728   -8.7501    0.0000 C   0  0  0  0  0  0  0  0  0  0  0  0
    6.1648   -8.4600    0.0000 C   0  0  2  0  0  0  0  0  0  0  0  0
    6.5366   -7.6096    0.0000 C   0  0  0  0  0  0  0  0  0  0  0  0
    7.4414   -7.4031    0.0000 C   0  0  1  0  0  0  0  0  0  0  0  0
    8.3173   -7.0959    0.0000 C   0  0  0  0  0  0  0  0  0  0  0  0
    8.1454   -8.0080    0.0000 C   0  0  1  0  0  0  0  0  0  0  0  0
    8.0771   -8.9336    0.0000 C   0  0  2  0  0  0  0  0  0  0  0  0
    8.4350   -9.6769    0.0000 C   0  0  0  0  0  0  0  0  0  0  0  0
    8.0771  -10.4202    0.0000 C   0  0  0  0  0  0  0  0  0  0  0  0
    7.2728  -10.6038    0.0000 C   0  0  2  0  0  0  0  0  0  0  0  0
    6.6278  -10.0894    0.0000 C   0  0  1  0  0  0  0  0  0  0  0  0
    5.8431  -10.3444    0.0000 C   0  0  2  0  0  0  0  0  0  0  0  0
    5.3582   -9.6769    0.0000 C   0  0  0  0  0  0  0  0  0  0  0  0
    5.8431   -9.0095    0.0000 C   0  0  0  0  0  0  0  0  0  0  0  0
    6.6278   -9.2644    0.0000 C   0  0  0  0  0  0  0  0  0  0  0  0
    5.5882  -11.1290    0.0000 O   0  0  0  0  0  0  0  0  0  0  0  0
    9.9216  -11.5873    0.0000 C   0  0  0  0  0  0  0  0  0  0  0  0
   10.7374  -11.4643    0.0000 C   0  0  0  0  0  0  0  0  0  0  0  0
    9.6202  -12.3553    0.0000 O   0  0  0  0  0  0  0  0  0  0  0  0
 16  1  1  6  0  0  0
 18  2  1  6  0  0  0
 19  3  1  1  0  0  0
 24 28  1  1  0  0  0
 23  4  1  1  0  0  0
 22  5  1  1  0  0  0
 21  7  1  0  0  0  0
  7  6  1  0  0  0  0
 25  8  1  0  0  0  0
 17  9  1  0  0  0  0
 17 10  1  0  0  0  0
 14 11  1  6  0  0  0
 13 12  2  0  0  0  0
 27 23  1  0  0  0  0
 18 16  1  0  0  0  0
 19 13  1  0  0  0  0
 27 13  1  0  0  0  0
 27 14  1  0  0  0  0
 15 14  1  0  0  0  0
 16 15  1  0  0  0  0
 17 16  1  0  0  0  0
 18 17  1  0  0  0  0
 19 18  1  0  0  0  0
 20 19  1  0  0  0  0
 21 20  2  0  0  0  0
 22 21  1  0  0  0  0
 23 22  1  0  0  0  0
 24 23  1  0  0  0  0
 25 24  1  0  0  0  0
 26 25  2  0  0  0  0
 27 26  1  0  0  0  0
  6 29  1  0  0  0  0
 29 30  1  0  0  0  0
 29 31  2  0  0  0  0
M  END
>  <cdx:groupId>
947

>  <cdx:fragmentId>
854

$$$$
