91877.cdx
  Mrv1902 05222410262D          

 39 42  0  0  0  0            999 V2000
    4.2703   -7.1329    0.0000 H   0  0  0  0  0  0  0  0  0  0  0  0
    6.0209   -8.6374    0.0000 H   0  0  0  0  0  0  0  0  0  0  0  0
    5.9451   -9.3023    0.0000 H   0  0  0  0  0  0  0  0  0  0  0  0
    3.5380  -11.4237    0.0000 O   0  0  0  0  0  0  0  0  0  0  0  0
    4.1467  -11.9306    0.0000 O   0  0  0  0  0  0  0  0  0  0  0  0
    6.4648  -11.4648    0.0000 O   0  0  0  0  0  0  0  0  0  0  0  0
    5.6490  -11.5878    0.0000 C   0  0  0  0  0  0  0  0  0  0  0  0
    1.5907  -10.1994    0.0000 C   0  0  0  0  0  0  0  0  0  0  0  0
    5.5276   -6.8077    0.0000 C   0  0  0  0  0  0  0  0  0  0  0  0
    6.1533   -7.3454    0.0000 C   0  0  0  0  0  0  0  0  0  0  0  0
    2.3973   -8.9825    0.0000 C   0  0  0  0  0  0  0  0  0  0  0  0
    4.1467   -8.4683    0.0000 O   0  0  0  0  0  0  0  0  0  0  0  0
    4.3303   -9.2726    0.0000 C   0  0  0  0  0  0  0  0  0  0  0  0
    3.2223   -8.9825    0.0000 C   0  0  2  0  0  0  0  0  0  0  0  0
    3.5941   -8.1321    0.0000 C   0  0  0  0  0  0  0  0  0  0  0  0
    4.4989   -7.9256    0.0000 C   0  0  1  0  0  0  0  0  0  0  0  0
    5.3748   -7.6184    0.0000 C   0  0  0  0  0  0  0  0  0  0  0  0
    5.2029   -8.5305    0.0000 C   0  0  1  0  0  0  0  0  0  0  0  0
    5.1346   -9.4561    0.0000 C   0  0  2  0  0  0  0  0  0  0  0  0
    5.4925  -10.1994    0.0000 C   0  0  0  0  0  0  0  0  0  0  0  0
    5.1346  -10.9427    0.0000 C   0  0  0  0  0  0  0  0  0  0  0  0
    4.3303  -11.1263    0.0000 C   0  0  2  0  0  0  0  0  0  0  0  0
    3.6853  -10.6119    0.0000 C   0  0  1  0  0  0  0  0  0  0  0  0
    2.9006  -10.8669    0.0000 C   0  0  2  0  0  0  0  0  0  0  0  0
    2.4157  -10.1994    0.0000 C   0  0  0  0  0  0  0  0  0  0  0  0
    2.9006   -9.5320    0.0000 C   0  0  0  0  0  0  0  0  0  0  0  0
    3.6853   -9.7869    0.0000 C   0  0  0  0  0  0  0  0  0  0  0  0
    2.6457  -11.6515    0.0000 O   0  0  0  0  0  0  0  0  0  0  0  0
    6.9791  -12.1098    0.0000 C   0  0  0  0  0  0  0  0  0  0  0  0
    7.7949  -11.9868    0.0000 C   0  0  0  0  0  0  0  0  0  0  0  0
    6.6777  -12.8778    0.0000 O   0  0  0  0  0  0  0  0  0  0  0  0
    8.3093  -12.6319    0.0000 C   0  0  0  0  0  0  0  0  0  0  0  0
    9.1251  -12.5089    0.0000 C   0  0  0  0  0  0  0  0  0  0  0  0
    9.6395  -13.1539    0.0000 C   0  0  0  0  0  0  0  0  0  0  0  0
   10.4553  -13.0310    0.0000 C   0  0  0  0  0  0  0  0  0  0  0  0
   10.9696  -13.6760    0.0000 C   0  0  0  0  0  0  0  0  0  0  0  0
   11.7854  -13.5530    0.0000 C   0  0  0  0  0  0  0  0  0  0  0  0
   12.2998  -14.1980    0.0000 C   0  0  0  0  0  0  0  0  0  0  0  0
   13.1156  -14.0751    0.0000 C   0  0  0  0  0  0  0  0  0  0  0  0
 16  1  1  6  0  0  0
 18  2  1  6  0  0  0
 19  3  1  1  0  0  0
 24 28  1  1  0  0  0
 23  4  1  1  0  0  0
 22  5  1  1  0  0  0
 21  7  1  0  0  0  0
  7  6  1  0  0  0  0
 25  8  1  0  0  0  0
 17  9  1  0  0  0  0
 17 10  1  0  0  0  0
 14 11  1  6  0  0  0
 13 12  2  0  0  0  0
 27 23  1  0  0  0  0
 18 16  1  0  0  0  0
 19 13  1  0  0  0  0
 27 13  1  0  0  0  0
 27 14  1  0  0  0  0
 15 14  1  0  0  0  0
 16 15  1  0  0  0  0
 17 16  1  0  0  0  0
 18 17  1  0  0  0  0
 19 18  1  0  0  0  0
 20 19  1  0  0  0  0
 21 20  2  0  0  0  0
 22 21  1  0  0  0  0
 23 22  1  0  0  0  0
 24 23  1  0  0  0  0
 25 24  1  0  0  0  0
 26 25  2  0  0  0  0
 27 26  1  0  0  0  0
  6 29  1  0  0  0  0
 29 30  1  0  0  0  0
 29 31  2  0  0  0  0
 30 32  2  0  0  0  0
 32 33  1  0  0  0  0
 33 34  2  0  0  0  0
 34 35  1  0  0  0  0
 35 36  1  0  0  0  0
 36 37  1  0  0  0  0
 37 38  1  0  0  0  0
 38 39  1  0  0  0  0
M  END
>  <cdx:groupId>
947

>  <cdx:fragmentId>
854

$$$$
