91870.cdx
  Mrv1902 05222410282D          

 46 48  0  0  0  0            999 V2000
    7.0244   -4.1611    0.0000 C   0  0  0  0  0  0  0  0  0  0  0  0
    7.5035   -3.4895    0.0000 C   0  0  0  0  0  0  0  0  0  0  0  0
    8.3247   -3.5686    0.0000 C   0  0  0  0  0  0  0  0  0  0  0  0
    7.3664   -4.9118    0.0000 O   0  0  0  0  0  0  0  0  0  0  0  0
    6.2032   -4.0819    0.0000 O   0  0  0  0  0  0  0  0  0  0  0  0
    8.8039   -2.8970    0.0000 C   0  0  0  0  0  0  0  0  0  0  0  0
    8.4618   -2.1463    0.0000 C   0  0  0  0  0  0  0  0  0  0  0  0
    8.9410   -1.4747    0.0000 C   0  0  0  0  0  0  0  0  0  0  0  0
    9.7622   -1.5538    0.0000 C   0  0  0  0  0  0  0  0  0  0  0  0
   10.1042   -2.3046    0.0000 C   0  0  0  0  0  0  0  0  0  0  0  0
    9.6251   -2.9762    0.0000 C   0  0  0  0  0  0  0  0  0  0  0  0
   10.2413   -0.8822    0.0000 O   0  0  0  0  0  0  0  0  0  0  0  0
    5.3225   -6.0266    0.0000 O   0  0  0  0  0  0  0  0  0  0  0  0
    5.9858   -5.5359    0.0000 C   0  0  1  0  0  0  0  0  0  0  0  0
    5.7241   -4.7535    0.0000 C   0  0  2  0  0  0  0  0  0  0  0  0
    4.8991   -4.7607    0.0000 C   0  0  1  0  0  0  0  0  0  0  0  0
    4.6509   -5.5475    0.0000 C   0  0  1  0  0  0  0  0  0  0  0  0
    3.8685   -5.8092    0.0000 C   0  0  0  0  0  0  0  0  0  0  0  0
    3.2852   -5.2258    0.0000 O   0  0  0  0  0  0  0  0  0  0  0  0
    4.4084   -4.0974    0.0000 O   0  0  0  0  0  0  0  0  0  0  0  0
    6.7995   -5.3999    0.0000 C   0  0  0  0  0  0  0  0  0  0  0  0
    6.5691   -6.1193    0.0000 O   0  0  0  0  0  0  0  0  0  0  0  0
    6.5691   -6.9443    0.0000 C   0  0  1  0  0  0  0  0  0  0  0  0
    5.8547   -7.3568    0.0000 O   0  0  0  0  0  0  0  0  0  0  0  0
    5.8547   -8.1818    0.0000 C   0  0  1  0  0  0  0  0  0  0  0  0
    6.5691   -8.5943    0.0000 C   0  0  2  0  0  0  0  0  0  0  0  0
    7.2836   -8.1818    0.0000 C   0  0  1  0  0  0  0  0  0  0  0  0
    7.2836   -7.3568    0.0000 C   0  0  1  0  0  0  0  0  0  0  0  0
    5.1402   -8.5943    0.0000 C   0  0  0  0  0  0  0  0  0  0  0  0
    7.9981   -8.5943    0.0000 O   0  0  0  0  0  0  0  0  0  0  0  0
    7.9981   -6.9443    0.0000 O   0  0  0  0  0  0  0  0  0  0  0  0
    6.5691   -9.4193    0.0000 O   0  0  0  0  0  0  0  0  0  0  0  0
    5.1402   -9.4193    0.0000 O   0  0  0  0  0  0  0  0  0  0  0  0
    7.3242   -6.0365    0.0000 O   0  0  0  0  0  0  0  0  0  0  0  0
    4.7375   -3.3409    0.0000 C   0  0  0  0  0  0  0  0  0  0  0  0
    4.2468   -2.6777    0.0000 O   0  0  0  0  0  0  0  0  0  0  0  0
    5.5572   -3.2476    0.0000 C   0  0  0  0  0  0  0  0  0  0  0  0
    8.7125   -8.1818    0.0000 C   0  0  0  0  0  0  0  0  0  0  0  0
    9.4270   -8.5943    0.0000 C   0  0  0  0  0  0  0  0  0  0  0  0
    8.7125   -7.3568    0.0000 O   0  0  0  0  0  0  0  0  0  0  0  0
    7.2836   -9.8318    0.0000 C   0  0  0  0  0  0  0  0  0  0  0  0
    7.2836  -10.6568    0.0000 O   0  0  0  0  0  0  0  0  0  0  0  0
    7.9981   -9.4193    0.0000 C   0  0  0  0  0  0  0  0  0  0  0  0
    4.4257   -9.8318    0.0000 C   0  0  0  0  0  0  0  0  0  0  0  0
    4.4257  -10.6568    0.0000 O   0  0  0  0  0  0  0  0  0  0  0  0
    3.7112   -9.4193    0.0000 C   0  0  0  0  0  0  0  0  0  0  0  0
  1  2  1  0  0  0  0
  2  3  2  0  0  0  0
  1  4  2  0  0  0  0
  1  5  1  0  0  0  0
  6  7  1  0  0  0  0
  7  8  2  0  0  0  0
  8  9  1  0  0  0  0
  9 10  2  0  0  0  0
 10 11  1  0  0  0  0
  6 11  2  0  0  0  0
  9 12  1  0  0  0  0
  3  6  1  0  0  0  0
 13 14  1  0  0  0  0
 14 15  1  0  0  0  0
 15 16  1  0  0  0  0
 16 17  1  0  0  0  0
 13 17  1  0  0  0  0
 18 19  1  0  0  0  0
 17 18  1  6  0  0  0
 16 20  1  1  0  0  0
 15  5  1  6  0  0  0
 14 21  1  0  0  0  0
 14 22  1  6  0  0  0
 23 22  1  6  0  0  0
 23 24  1  0  0  0  0
 24 25  1  0  0  0  0
 25 26  1  0  0  0  0
 26 27  1  0  0  0  0
 27 28  1  0  0  0  0
 28 23  1  0  0  0  0
 25 29  1  1  0  0  0
 27 30  1  1  0  0  0
 28 31  1  6  0  0  0
 26 32  1  6  0  0  0
 29 33  1  0  0  0  0
 21 34  1  0  0  0  0
 20 35  1  0  0  0  0
 35 36  2  0  0  0  0
 35 37  1  0  0  0  0
 30 38  1  0  0  0  0
 38 39  1  0  0  0  0
 38 40  2  0  0  0  0
 32 41  1  0  0  0  0
 41 42  2  0  0  0  0
 41 43  1  0  0  0  0
 33 44  1  0  0  0  0
 44 45  2  0  0  0  0
 44 46  1  0  0  0  0
M  END
>  <cdx:fragmentId>
204591

$$$$
