91885.cdx
  Mrv1902 05222410192D          

 38 42  0  0  0  0            999 V2000
    3.5043   -6.8338    0.0000 C   0  0  0  0  0  0  0  0  0  0  0  0
    3.5043   -7.6587    0.0000 C   0  0  0  0  0  0  0  0  0  0  0  0
    4.2188   -8.0713    0.0000 C   0  0  0  0  0  0  0  0  0  0  0  0
    4.9332   -7.6587    0.0000 C   0  0  1  0  0  0  0  0  0  0  0  0
    4.9332   -6.8338    0.0000 C   0  0  2  0  0  0  0  0  0  0  0  0
    4.2188   -6.4213    0.0000 C   0  0  0  0  0  0  0  0  0  0  0  0
    5.6477   -8.0713    0.0000 C   0  0  0  0  0  0  0  0  0  0  0  0
    6.3622   -7.6587    0.0000 C   0  0  0  0  0  0  0  0  0  0  0  0
    6.3622   -6.8338    0.0000 C   0  0  1  0  0  0  0  0  0  0  0  0
    5.6477   -6.4213    0.0000 C   0  0  1  0  0  0  0  0  0  0  0  0
    7.0767   -6.4213    0.0000 C   0  0  1  0  0  0  0  0  0  0  0  0
    7.0767   -5.5962    0.0000 C   0  0  0  0  0  0  0  0  0  0  0  0
    6.3622   -5.1837    0.0000 C   0  0  0  0  0  0  0  0  0  0  0  0
    5.6477   -5.5962    0.0000 C   0  0  0  0  0  0  0  0  0  0  0  0
    2.7898   -8.0713    0.0000 O   0  0  0  0  0  0  0  0  0  0  0  0
    7.0767   -7.2462    0.0000 C   0  0  0  0  0  0  0  0  0  0  0  0
    5.6477   -7.2462    0.0000 H   0  0  0  0  0  0  0  0  0  0  0  0
    4.9332   -6.0088    0.0000 C   0  0  0  0  0  0  0  0  0  0  0  0
    3.8063   -8.7857    0.0000 C   0  0  0  0  0  0  0  0  0  0  0  0
    4.6313   -8.7857    0.0000 C   0  0  0  0  0  0  0  0  0  0  0  0
    4.9332   -8.4838    0.0000 H   0  0  0  0  0  0  0  0  0  0  0  0
    6.3622   -6.0088    0.0000 C   0  0  0  0  0  0  0  0  0  0  0  0
    7.8613   -6.6762    0.0000 C   0  0  0  0  0  0  0  0  0  0  0  0
    8.3462   -6.0088    0.0000 C   0  0  1  0  0  0  0  0  0  0  0  0
    7.8613   -5.3413    0.0000 C   0  0  0  0  0  0  0  0  0  0  0  0
    9.1667   -5.9225    0.0000 O   0  0  0  0  0  0  0  0  0  0  0  0
    9.5022   -5.1688    0.0000 C   0  0  1  0  0  0  0  0  0  0  0  0
    9.0173   -4.5014    0.0000 C   0  0  0  0  0  0  0  0  0  0  0  0
    8.1968   -4.5876    0.0000 C   0  0  1  0  0  0  0  0  0  0  0  0
    8.7587   -6.7232    0.0000 H   0  0  0  0  0  0  0  0  0  0  0  0
    9.9147   -5.8833    0.0000 H   0  0  0  0  0  0  0  0  0  0  0  0
    7.7119   -3.9202    0.0000 C   0  0  0  0  0  0  0  0  0  0  0  0
   10.3272   -5.1688    0.0000 C   0  0  2  0  0  0  0  0  0  0  0  0
   10.7397   -4.4544    0.0000 C   0  0  0  0  0  0  0  0  0  0  0  0
   11.4542   -4.8669    0.0000 C   0  0  0  0  0  0  0  0  0  0  0  0
   10.0253   -4.0419    0.0000 C   0  0  0  0  0  0  0  0  0  0  0  0
   11.1522   -3.7399    0.0000 O   0  0  0  0  0  0  0  0  0  0  0  0
   10.7397   -5.8833    0.0000 O   0  0  0  0  0  0  0  0  0  0  0  0
  1  2  1  0  0  0  0
  2  3  1  0  0  0  0
  3  4  1  0  0  0  0
  4  5  1  0  0  0  0
  5  6  1  0  0  0  0
  6  1  1  0  0  0  0
  4  7  1  0  0  0  0
  7  8  1  0  0  0  0
  8  9  1  0  0  0  0
  9 10  1  0  0  0  0
 10  5  1  0  0  0  0
  9 11  1  0  0  0  0
 11 12  1  0  0  0  0
 12 13  1  0  0  0  0
 13 14  2  0  0  0  0
 14 10  1  0  0  0  0
  2 15  2  0  0  0  0
 11 16  1  1  0  0  0
 10 17  1  1  0  0  0
  5 18  1  1  0  0  0
  3 19  1  0  0  0  0
  3 20  1  0  0  0  0
  4 21  1  6  0  0  0
  9 22  1  6  0  0  0
 11 23  1  0  0  0  0
 23 24  1  0  0  0  0
 24 25  1  0  0  0  0
 25 12  2  0  0  0  0
 24 26  1  0  0  0  0
 26 27  1  0  0  0  0
 27 28  1  0  0  0  0
 28 29  1  0  0  0  0
 29 25  1  0  0  0  0
 24 30  1  6  0  0  0
 27 31  1  6  0  0  0
 29 32  1  6  0  0  0
 27 33  1  0  0  0  0
 33 34  1  0  0  0  0
 34 35  1  0  0  0  0
 34 36  1  0  0  0  0
 34 37  1  0  0  0  0
 33 38  1  6  0  0  0
M  END
>  <cdx:fragmentId>
116

$$$$
