91887.cdx
  Mrv1902 05222410202D          

 36 39  0  0  0  0            999 V2000
    4.1231   -9.9138    0.0000 C   0  0  0  0  0  0  0  0  0  0  0  0
    4.1231  -10.7387    0.0000 C   0  0  1  0  0  0  0  0  0  0  0  0
    4.8375  -11.1513    0.0000 C   0  0  0  0  0  0  0  0  0  0  0  0
    5.5520  -10.7387    0.0000 C   0  0  0  0  0  0  0  0  0  0  0  0
    5.5520   -9.9138    0.0000 C   0  0  2  0  0  0  0  0  0  0  0  0
    4.8375   -9.5013    0.0000 C   0  0  0  0  0  0  0  0  0  0  0  0
    6.2665  -11.1513    0.0000 C   0  0  0  0  0  0  0  0  0  0  0  0
    6.9809  -10.7387    0.0000 C   0  0  0  0  0  0  0  0  0  0  0  0
    6.9809   -9.9138    0.0000 C   0  0  2  0  0  0  0  0  0  0  0  0
    6.2665   -9.5013    0.0000 C   0  0  2  0  0  0  0  0  0  0  0  0
    7.6954   -9.5013    0.0000 C   0  0  1  0  0  0  0  0  0  0  0  0
    7.6954   -8.6762    0.0000 C   0  0  1  0  0  0  0  0  0  0  0  0
    6.9809   -8.2637    0.0000 C   0  0  0  0  0  0  0  0  0  0  0  0
    6.2665   -8.6762    0.0000 C   0  0  0  0  0  0  0  0  0  0  0  0
    3.4086  -11.1513    0.0000 O   0  0  0  0  0  0  0  0  0  0  0  0
    5.5520   -9.0887    0.0000 C   0  0  0  0  0  0  0  0  0  0  0  0
    7.6954   -7.8513    0.0000 C   0  0  0  0  0  0  0  0  0  0  0  0
    8.4800   -9.7562    0.0000 C   0  0  0  0  0  0  0  0  0  0  0  0
    8.9650   -9.0887    0.0000 C   0  0  0  0  0  0  0  0  0  0  0  0
    8.4800   -8.4213    0.0000 C   0  0  2  0  0  0  0  0  0  0  0  0
    8.7350   -7.6367    0.0000 C   0  0  2  0  0  0  0  0  0  0  0  0
    8.1829   -7.0236    0.0000 C   0  0  0  0  0  0  0  0  0  0  0  0
    9.5419   -7.4652    0.0000 C   0  0  0  0  0  0  0  0  0  0  0  0
    9.7969   -6.6805    0.0000 C   0  0  0  0  0  0  0  0  0  0  0  0
   10.6039   -6.5090    0.0000 C   0  0  0  0  0  0  0  0  0  0  0  0
   10.3903   -5.7121    0.0000 C   0  0  0  0  0  0  0  0  0  0  0  0
    9.2647   -8.1664    0.0000 H   0  0  0  0  0  0  0  0  0  0  0  0
    6.2665  -10.3262    0.0000 H   0  0  0  0  0  0  0  0  0  0  0  0
    6.9809   -9.0887    0.0000 H   0  0  0  0  0  0  0  0  0  0  0  0
    7.6954  -10.3262    0.0000 H   0  0  0  0  0  0  0  0  0  0  0  0
   10.8174   -7.3059    0.0000 C   0  0  0  0  0  0  0  0  0  0  0  0
   11.4108   -6.3375    0.0000 O   0  0  0  0  0  0  0  0  0  0  0  0
   10.9737   -5.1288    0.0000 C   0  0  0  0  0  0  0  0  0  0  0  0
   10.2340   -7.8893    0.0000 C   0  0  0  0  0  0  0  0  0  0  0  0
   11.6143   -7.5194    0.0000 C   0  0  0  0  0  0  0  0  0  0  0  0
   11.8233   -5.6230    0.0000 O   0  0  0  0  0  0  0  0  0  0  0  0
  1  2  1  0  0  0  0
  2  3  1  0  0  0  0
  3  4  1  0  0  0  0
  4  5  1  0  0  0  0
  5  6  1  0  0  0  0
  6  1  1  0  0  0  0
  4  7  2  0  0  0  0
  7  8  1  0  0  0  0
  8  9  1  0  0  0  0
  9 10  1  0  0  0  0
 10  5  1  0  0  0  0
  9 11  1  0  0  0  0
 11 12  1  0  0  0  0
 12 13  1  0  0  0  0
 13 14  1  0  0  0  0
 14 10  1  0  0  0  0
  2 15  1  1  0  0  0
  5 16  1  1  0  0  0
 12 17  1  1  0  0  0
 11 18  1  0  0  0  0
 18 19  1  0  0  0  0
 19 20  1  0  0  0  0
 20 12  1  0  0  0  0
 20 21  1  0  0  0  0
 21 22  1  6  0  0  0
 21 23  1  0  0  0  0
 23 24  1  0  0  0  0
 24 25  1  0  0  0  0
 25 26  1  0  0  0  0
 20 27  1  6  0  0  0
 10 28  1  6  0  0  0
  9 29  1  1  0  0  0
 11 30  1  6  0  0  0
 25 31  1  0  0  0  0
 25 32  1  0  0  0  0
 26 33  2  0  0  0  0
 31 34  1  0  0  0  0
 31 35  1  0  0  0  0
 32 36  1  0  0  0  0
M  END
>  <cdx:fragmentId>
5

$$$$
