91882.cdx
  Mrv1902 05222410182D          

 36 39  0  0  0  0            999 V2000
    3.6952   -9.1575    0.0000 C   0  0  0  0  0  0  0  0  0  0  0  0
    3.6952   -9.9825    0.0000 C   0  0  0  0  0  0  0  0  0  0  0  0
    4.4096  -10.3950    0.0000 C   0  0  0  0  0  0  0  0  0  0  0  0
    5.1241   -9.9825    0.0000 C   0  0  1  0  0  0  0  0  0  0  0  0
    5.1241   -9.1575    0.0000 C   0  0  2  0  0  0  0  0  0  0  0  0
    4.4096   -8.7450    0.0000 C   0  0  0  0  0  0  0  0  0  0  0  0
    5.8386  -10.3950    0.0000 C   0  0  0  0  0  0  0  0  0  0  0  0
    6.5530   -9.9825    0.0000 C   0  0  1  0  0  0  0  0  0  0  0  0
    6.5530   -9.1575    0.0000 C   0  0  0  0  0  0  0  0  0  0  0  0
    5.8386   -8.7450    0.0000 C   0  0  0  0  0  0  0  0  0  0  0  0
    7.2675   -8.7450    0.0000 C   0  0  1  0  0  0  0  0  0  0  0  0
    7.2675   -7.9200    0.0000 C   0  0  2  0  0  0  0  0  0  0  0  0
    6.5530   -7.5075    0.0000 C   0  0  0  0  0  0  0  0  0  0  0  0
    5.8386   -7.9200    0.0000 C   0  0  0  0  0  0  0  0  0  0  0  0
    8.0521   -8.9999    0.0000 C   0  0  0  0  0  0  0  0  0  0  0  0
    8.5371   -8.3325    0.0000 C   0  0  0  0  0  0  0  0  0  0  0  0
    8.0521   -7.6651    0.0000 C   0  0  2  0  0  0  0  0  0  0  0  0
    2.9807  -10.3950    0.0000 O   0  0  0  0  0  0  0  0  0  0  0  0
    5.1241   -7.5075    0.0000 O   0  0  0  0  0  0  0  0  0  0  0  0
    7.2675  -10.3950    0.0000 O   0  0  0  0  0  0  0  0  0  0  0  0
    8.2657   -9.7968    0.0000 O   0  0  0  0  0  0  0  0  0  0  0  0
    3.9971  -11.1095    0.0000 C   0  0  0  0  0  0  0  0  0  0  0  0
    5.1241   -8.3325    0.0000 C   0  0  0  0  0  0  0  0  0  0  0  0
    7.2675   -7.0950    0.0000 C   0  0  0  0  0  0  0  0  0  0  0  0
    8.2657   -6.8682    0.0000 C   0  0  0  0  0  0  0  0  0  0  0  0
    4.8221  -11.1095    0.0000 C   0  0  0  0  0  0  0  0  0  0  0  0
    5.1241  -10.8075    0.0000 H   0  0  0  0  0  0  0  0  0  0  0  0
    7.2675   -9.5700    0.0000 C   0  0  0  0  0  0  0  0  0  0  0  0
    7.6823   -6.2848    0.0000 C   0  0  0  0  0  0  0  0  0  0  0  0
   10.0730   -5.6442    0.0000 C   0  0  0  0  0  0  0  0  0  0  0  0
    9.2761   -5.8578    0.0000 C   0  0  0  0  0  0  0  0  0  0  0  0
    9.0625   -6.6546    0.0000 C   0  0  0  0  0  0  0  0  0  0  0  0
    8.8490   -7.4515    0.0000 H   0  0  0  0  0  0  0  0  0  0  0  0
   10.2865   -4.8473    0.0000 O   0  0  0  0  0  0  0  0  0  0  0  0
   10.6563   -6.2276    0.0000 O   0  0  0  0  0  0  0  0  0  0  0  0
    8.4792   -6.0713    0.0000 O   0  0  0  0  0  0  0  0  0  0  0  0
  1  2  1  0  0  0  0
  2  3  1  0  0  0  0
  3  4  1  0  0  0  0
  4  5  1  0  0  0  0
  5  6  1  0  0  0  0
  6  1  1  0  0  0  0
  4  7  1  0  0  0  0
  7  8  1  0  0  0  0
  8  9  1  0  0  0  0
  9 10  2  0  0  0  0
 10  5  1  0  0  0  0
  9 11  1  0  0  0  0
 11 12  1  0  0  0  0
 12 13  1  0  0  0  0
 13 14  1  0  0  0  0
 14 10  1  0  0  0  0
 11 15  1  0  0  0  0
 15 16  1  0  0  0  0
 16 17  1  0  0  0  0
 17 12  1  0  0  0  0
  2 18  2  0  0  0  0
 14 19  2  0  0  0  0
  8 20  1  1  0  0  0
 15 21  2  0  0  0  0
  3 22  1  0  0  0  0
  5 23  1  1  0  0  0
 12 24  1  1  0  0  0
  3 26  1  0  0  0  0
  4 27  1  6  0  0  0
 11 28  1  6  0  0  0
 25 29  1  6  0  0  0
 31 30  1  0  0  0  0
 25 32  1  0  0  0  0
 32 31  1  0  0  0  0
 17 25  1  0  0  0  0
 17 33  1  6  0  0  0
 30 34  1  0  0  0  0
 30 35  2  0  0  0  0
 25 36  1  0  0  0  0
M  END
>  <cdx:fragmentId>
5

$$$$
