91884.cdx
  Mrv1902 05222410192D          

 43 46  0  0  0  0            999 V2000
    3.4493  -10.0787    0.0000 C   0  0  2  0  0  0  0  0  0  0  0  0
    3.4493  -10.9038    0.0000 C   0  0  0  0  0  0  0  0  0  0  0  0
    4.1638  -11.3163    0.0000 C   0  0  1  0  0  0  0  0  0  0  0  0
    4.8782  -10.9038    0.0000 C   0  0  0  0  0  0  0  0  0  0  0  0
    4.8782  -10.0787    0.0000 C   0  0  1  0  0  0  0  0  0  0  0  0
    4.1638   -9.6662    0.0000 C   0  0  0  0  0  0  0  0  0  0  0  0
    5.5927  -11.3163    0.0000 C   0  0  0  0  0  0  0  0  0  0  0  0
    6.3072  -10.9038    0.0000 C   0  0  0  0  0  0  0  0  0  0  0  0
    6.3072  -10.0787    0.0000 C   0  0  2  0  0  0  0  0  0  0  0  0
    5.5927   -9.6662    0.0000 C   0  0  1  0  0  0  0  0  0  0  0  0
    7.0217   -9.6662    0.0000 C   0  0  2  0  0  0  0  0  0  0  0  0
    7.0217   -8.8413    0.0000 C   0  0  1  0  0  0  0  0  0  0  0  0
    6.3072   -8.4288    0.0000 C   0  0  0  0  0  0  0  0  0  0  0  0
    5.5927   -8.8413    0.0000 C   0  0  0  0  0  0  0  0  0  0  0  0
    2.7348  -11.3163    0.0000 O   0  0  0  0  0  0  0  0  0  0  0  0
    4.8782   -8.4288    0.0000 O   0  0  0  0  0  0  0  0  0  0  0  0
    3.7513  -12.0307    0.0000 C   0  0  0  0  0  0  0  0  0  0  0  0
    2.7348   -9.6662    0.0000 O   0  0  0  0  0  0  0  0  0  0  0  0
    5.5927  -10.4912    0.0000 C   0  0  0  0  0  0  0  0  0  0  0  0
    6.3072   -9.2538    0.0000 H   0  0  0  0  0  0  0  0  0  0  0  0
    7.0217   -8.0162    0.0000 C   0  0  0  0  0  0  0  0  0  0  0  0
    4.5763  -12.0307    0.0000 C   0  0  0  0  0  0  0  0  0  0  0  0
    4.8782   -9.2538    0.0000 H   0  0  0  0  0  0  0  0  0  0  0  0
    7.0217  -10.4912    0.0000 C   0  0  0  0  0  0  0  0  0  0  0  0
    7.8063   -9.9212    0.0000 C   0  0  0  0  0  0  0  0  0  0  0  0
    8.2912   -9.2538    0.0000 C   0  0  2  0  0  0  0  0  0  0  0  0
    7.8063   -8.5863    0.0000 C   0  0  2  0  0  0  0  0  0  0  0  0
    9.1162   -9.2538    0.0000 O   0  0  0  0  0  0  0  0  0  0  0  0
    8.0612   -7.8017    0.0000 C   0  0  0  0  0  0  0  0  0  0  0  0
    8.5909   -8.3314    0.0000 H   0  0  0  0  0  0  0  0  0  0  0  0
    7.2643   -7.5882    0.0000 C   0  0  0  0  0  0  0  0  0  0  0  0
    8.8581   -8.0152    0.0000 O   0  0  0  0  0  0  0  0  0  0  0  0
    8.3162   -7.0171    0.0000 C   0  0  0  0  0  0  0  0  0  0  0  0
    7.7641   -6.4040    0.0000 O   0  0  0  0  0  0  0  0  0  0  0  0
    9.1231   -6.8455    0.0000 C   0  0  0  0  0  0  0  0  0  0  0  0
    9.3781   -6.0609    0.0000 C   0  0  0  0  0  0  0  0  0  0  0  0
   10.1850   -5.8894    0.0000 C   0  0  0  0  0  0  0  0  0  0  0  0
   10.3986   -6.6863    0.0000 C   0  0  0  0  0  0  0  0  0  0  0  0
    9.9715   -5.0925    0.0000 C   0  0  0  0  0  0  0  0  0  0  0  0
   10.9920   -5.7179    0.0000 O   0  0  0  0  0  0  0  0  0  0  0  0
   11.2470   -4.9332    0.0000 C   0  0  0  0  0  0  0  0  0  0  0  0
   10.6949   -4.3201    0.0000 O   0  0  0  0  0  0  0  0  0  0  0  0
   12.0539   -4.7617    0.0000 C   0  0  0  0  0  0  0  0  0  0  0  0
  1  2  1  0  0  0  0
  2  3  1  0  0  0  0
  3  4  1  0  0  0  0
  4  5  1  0  0  0  0
  5  6  1  0  0  0  0
  6  1  1  0  0  0  0
  4  7  2  0  0  0  0
  7  8  1  0  0  0  0
  8  9  1  0  0  0  0
  9 10  1  0  0  0  0
 10  5  1  0  0  0  0
  9 11  1  0  0  0  0
 11 12  1  0  0  0  0
 12 13  1  0  0  0  0
 13 14  1  0  0  0  0
 14 10  1  0  0  0  0
  2 15  2  0  0  0  0
 14 16  2  0  0  0  0
  3 17  1  1  0  0  0
  1 18  1  1  0  0  0
 10 19  1  1  0  0  0
  9 20  1  1  0  0  0
 12 21  1  1  0  0  0
  3 22  1  6  0  0  0
  5 23  1  6  0  0  0
 11 24  1  6  0  0  0
 11 25  1  0  0  0  0
 25 26  1  0  0  0  0
 26 27  1  0  0  0  0
 27 12  1  0  0  0  0
 26 28  1  6  0  0  0
 27 29  1  0  0  0  0
 27 30  1  6  0  0  0
 29 31  1  0  0  0  0
 29 32  1  1  0  0  0
 29 33  1  0  0  0  0
 33 34  2  0  0  0  0
 33 35  1  0  0  0  0
 35 36  1  0  0  0  0
 36 37  1  0  0  0  0
 37 38  1  0  0  0  0
 37 39  1  0  0  0  0
 37 40  1  0  0  0  0
 40 41  1  0  0  0  0
 41 42  2  0  0  0  0
 41 43  1  0  0  0  0
M  END
>  <cdx:fragmentId>
5

$$$$
