91886.cdx
  Mrv1902 05222410202D          

 36 40  0  0  0  0            999 V2000
    3.1331  -10.3664    0.0000 C   0  0  0  0  0  0  0  0  0  0  0  0
    3.1331  -11.1914    0.0000 C   0  0  1  0  0  0  0  0  0  0  0  0
    3.8475  -11.6039    0.0000 C   0  0  0  0  0  0  0  0  0  0  0  0
    4.5620  -11.1914    0.0000 C   0  0  1  0  0  0  0  0  0  0  0  0
    4.5620  -10.3664    0.0000 C   0  0  2  0  0  0  0  0  0  0  0  0
    3.8475   -9.9539    0.0000 C   0  0  0  0  0  0  0  0  0  0  0  0
    5.2765  -11.6039    0.0000 C   0  0  0  0  0  0  0  0  0  0  0  0
    5.9909  -11.1914    0.0000 C   0  0  0  0  0  0  0  0  0  0  0  0
    5.9909  -10.3664    0.0000 C   0  0  2  0  0  0  0  0  0  0  0  0
    5.2765   -9.9539    0.0000 C   0  0  1  0  0  0  0  0  0  0  0  0
    6.7054   -9.9539    0.0000 C   0  0  1  0  0  0  0  0  0  0  0  0
    6.7054   -9.1289    0.0000 C   0  0  2  0  0  0  0  0  0  0  0  0
    5.9909   -8.7164    0.0000 C   0  0  0  0  0  0  0  0  0  0  0  0
    5.2765   -9.1289    0.0000 C   0  0  0  0  0  0  0  0  0  0  0  0
    7.4900  -10.2088    0.0000 C   0  0  0  0  0  0  0  0  0  0  0  0
    7.9750   -9.5414    0.0000 C   0  0  0  0  0  0  0  0  0  0  0  0
    7.4900   -8.8740    0.0000 C   0  0  2  0  0  0  0  0  0  0  0  0
    2.4186  -11.6039    0.0000 O   0  0  0  0  0  0  0  0  0  0  0  0
    3.4350  -12.3184    0.0000 C   0  0  0  0  0  0  0  0  0  0  0  0
    4.2600  -12.3184    0.0000 C   0  0  0  0  0  0  0  0  0  0  0  0
    7.7450   -8.0893    0.0000 C   0  0  2  0  0  0  0  0  0  0  0  0
    7.1929   -7.4762    0.0000 C   0  0  0  0  0  0  0  0  0  0  0  0
    6.7054   -8.3039    0.0000 C   0  0  0  0  0  0  0  0  0  0  0  0
    4.5620   -9.5414    0.0000 C   0  0  0  0  0  0  0  0  0  0  0  0
    6.7054  -10.7789    0.0000 C   0  0  0  0  0  0  0  0  0  0  0  0
   10.6836   -6.0480    0.0000 C   0  0  0  0  0  0  0  0  0  0  0  0
    9.8688   -6.1770    0.0000 C   0  0  0  0  0  0  0  0  0  0  0  0
    9.6139   -6.9617    0.0000 C   0  0  0  0  0  0  0  0  0  0  0  0
    8.8069   -7.1332    0.0000 C   0  0  0  0  0  0  0  0  0  0  0  0
    8.5519   -7.9178    0.0000 C   0  0  0  0  0  0  0  0  0  0  0  0
    4.5620  -12.0164    0.0000 H   0  0  0  0  0  0  0  0  0  0  0  0
    5.9909   -9.5414    0.0000 H   0  0  0  0  0  0  0  0  0  0  0  0
    8.2747   -8.6190    0.0000 H   0  0  0  0  0  0  0  0  0  0  0  0
    9.3330   -5.5497    0.0000 C   0  0  0  0  0  0  0  0  0  0  0  0
   10.1659   -7.5748    0.0000 C   0  0  0  0  0  0  0  0  0  0  0  0
   10.9628   -7.3612    0.0000 C   0  0  0  0  0  0  0  0  0  0  0  0
  1  2  1  0  0  0  0
  2  3  1  0  0  0  0
  3  4  1  0  0  0  0
  4  5  1  0  0  0  0
  5  6  1  0  0  0  0
  6  1  1  0  0  0  0
  4  7  1  0  0  0  0
  7  8  1  0  0  0  0
  8  9  1  0  0  0  0
  9 10  1  0  0  0  0
 10  5  1  0  0  0  0
  9 11  1  0  0  0  0
 11 12  1  0  0  0  0
 12 13  1  0  0  0  0
 13 14  1  0  0  0  0
 14 10  1  0  0  0  0
 11 15  1  0  0  0  0
 15 16  1  0  0  0  0
 16 17  1  0  0  0  0
 17 12  1  0  0  0  0
  2 18  1  1  0  0  0
  3 19  1  0  0  0  0
  3 20  1  0  0  0  0
 17 21  1  0  0  0  0
 21 22  1  6  0  0  0
 21 30  1  0  0  0  0
 12 23  1  1  0  0  0
  5 24  1  1  0  0  0
 10 24  1  1  0  0  0
 11 25  1  6  0  0  0
 27 26  1  0  0  0  0
 28 27  1  0  0  0  0
 29 28  1  0  0  0  0
 30 29  1  0  0  0  0
  4 31  1  6  0  0  0
  9 32  1  1  0  0  0
 17 33  1  6  0  0  0
 27 34  2  0  0  0  0
 28 35  1  0  0  0  0
 35 36  1  0  0  0  0
M  END
>  <cdx:fragmentId>
5

$$$$
