91880.cdx
  Mrv1902 05222410192D          

 49 53  0  0  0  0            999 V2000
    7.0478   -8.5079    0.0000 O   0  0  0  0  0  0  0  0  0  0  0  0
    8.7984  -10.0124    0.0000 H   0  0  0  0  0  0  0  0  0  0  0  0
    8.7226  -10.6773    0.0000 H   0  0  0  0  0  0  0  0  0  0  0  0
    6.3155  -12.7987    0.0000 O   0  0  0  0  0  0  0  0  0  0  0  0
    6.9242  -13.3056    0.0000 O   0  0  0  0  0  0  0  0  0  0  0  0
    9.2423  -12.8398    0.0000 O   0  0  0  0  0  0  0  0  0  0  0  0
    8.4265  -12.9628    0.0000 C   0  0  0  0  0  0  0  0  0  0  0  0
    4.3682  -11.5744    0.0000 C   0  0  0  0  0  0  0  0  0  0  0  0
    8.3051   -8.1827    0.0000 C   0  0  0  0  0  0  0  0  0  0  0  0
    8.9308   -8.7204    0.0000 C   0  0  0  0  0  0  0  0  0  0  0  0
    5.1748  -10.3575    0.0000 C   0  0  0  0  0  0  0  0  0  0  0  0
    6.9242   -9.8433    0.0000 O   0  0  0  0  0  0  0  0  0  0  0  0
    7.1078  -10.6476    0.0000 C   0  0  0  0  0  0  0  0  0  0  0  0
    5.9998  -10.3575    0.0000 C   0  0  2  0  0  0  0  0  0  0  0  0
    6.3716   -9.5071    0.0000 C   0  0  0  0  0  0  0  0  0  0  0  0
    7.2764   -9.3006    0.0000 C   0  0  2  0  0  0  0  0  0  0  0  0
    8.1523   -8.9934    0.0000 C   0  0  0  0  0  0  0  0  0  0  0  0
    7.9804   -9.9055    0.0000 C   0  0  1  0  0  0  0  0  0  0  0  0
    7.9121  -10.8311    0.0000 C   0  0  2  0  0  0  0  0  0  0  0  0
    8.2700  -11.5744    0.0000 C   0  0  0  0  0  0  0  0  0  0  0  0
    7.9121  -12.3177    0.0000 C   0  0  0  0  0  0  0  0  0  0  0  0
    7.1078  -12.5013    0.0000 C   0  0  2  0  0  0  0  0  0  0  0  0
    6.4628  -11.9869    0.0000 C   0  0  1  0  0  0  0  0  0  0  0  0
    5.6781  -12.2419    0.0000 C   0  0  2  0  0  0  0  0  0  0  0  0
    5.1932  -11.5744    0.0000 C   0  0  0  0  0  0  0  0  0  0  0  0
    5.6781  -10.9070    0.0000 C   0  0  0  0  0  0  0  0  0  0  0  0
    6.4628  -11.1619    0.0000 C   0  0  0  0  0  0  0  0  0  0  0  0
    5.4232  -13.0265    0.0000 O   0  0  0  0  0  0  0  0  0  0  0  0
    9.7566  -13.4848    0.0000 C   0  0  0  0  0  0  0  0  0  0  0  0
   10.5724  -13.3618    0.0000 C   0  0  0  0  0  0  0  0  0  0  0  0
    9.4552  -14.2528    0.0000 O   0  0  0  0  0  0  0  0  0  0  0  0
   11.0868  -14.0069    0.0000 C   0  0  0  0  0  0  0  0  0  0  0  0
   11.9026  -13.8839    0.0000 C   0  0  0  0  0  0  0  0  0  0  0  0
   12.2040  -13.1159    0.0000 C   0  0  0  0  0  0  0  0  0  0  0  0
   11.6896  -12.4709    0.0000 C   0  0  0  0  0  0  0  0  0  0  0  0
   10.8738  -12.5939    0.0000 C   0  0  0  0  0  0  0  0  0  0  0  0
    6.2470   -8.3096    0.0000 C   0  0  0  0  0  0  0  0  0  0  0  0
    5.6748   -8.9040    0.0000 O   0  0  0  0  0  0  0  0  0  0  0  0
    6.0183   -7.5169    0.0000 C   0  0  0  0  0  0  0  0  0  0  0  0
    5.2175   -7.3186    0.0000 C   0  0  0  0  0  0  0  0  0  0  0  0
    4.9888   -6.5259    0.0000 C   0  0  0  0  0  0  0  0  0  0  0  0
    4.1880   -6.3276    0.0000 C   0  0  0  0  0  0  0  0  0  0  0  0
    3.9593   -5.5349    0.0000 C   0  0  0  0  0  0  0  0  0  0  0  0
    3.1585   -5.3366    0.0000 C   0  0  0  0  0  0  0  0  0  0  0  0
    2.9299   -4.5440    0.0000 C   0  0  0  0  0  0  0  0  0  0  0  0
    2.1290   -4.3457    0.0000 C   0  0  0  0  0  0  0  0  0  0  0  0
    1.9004   -3.5530    0.0000 C   0  0  0  0  0  0  0  0  0  0  0  0
    1.0996   -3.3547    0.0000 C   0  0  0  0  0  0  0  0  0  0  0  0
    0.8709   -2.5620    0.0000 C   0  0  0  0  0  0  0  0  0  0  0  0
 16  1  1  6  0  0  0
 18  2  1  6  0  0  0
 19  3  1  1  0  0  0
 24 28  1  1  0  0  0
 23  4  1  1  0  0  0
 22  5  1  1  0  0  0
 21  7  1  0  0  0  0
  7  6  1  0  0  0  0
 25  8  1  0  0  0  0
 17  9  1  0  0  0  0
 17 10  1  0  0  0  0
 14 11  1  6  0  0  0
 13 12  2  0  0  0  0
 27 23  1  0  0  0  0
 18 16  1  0  0  0  0
 19 13  1  0  0  0  0
 27 13  1  0  0  0  0
 27 14  1  0  0  0  0
 15 14  1  0  0  0  0
 16 15  1  0  0  0  0
 17 16  1  0  0  0  0
 18 17  1  0  0  0  0
 19 18  1  0  0  0  0
 20 19  1  0  0  0  0
 21 20  2  0  0  0  0
 22 21  1  0  0  0  0
 23 22  1  0  0  0  0
 24 23  1  0  0  0  0
 25 24  1  0  0  0  0
 26 25  2  0  0  0  0
 27 26  1  0  0  0  0
  6 29  1  0  0  0  0
 29 30  1  0  0  0  0
 29 31  2  0  0  0  0
 30 32  2  0  0  0  0
 32 33  1  0  0  0  0
 33 34  2  0  0  0  0
 34 35  1  0  0  0  0
 35 36  2  0  0  0  0
 36 30  1  0  0  0  0
  1 37  1  0  0  0  0
 37 38  2  0  0  0  0
 37 39  1  0  0  0  0
 39 40  2  0  0  0  0
 40 41  1  0  0  0  0
 41 42  2  0  0  0  0
 42 43  1  0  0  0  0
 43 44  1  0  0  0  0
 44 45  1  0  0  0  0
 45 46  1  0  0  0  0
 46 47  1  0  0  0  0
 47 48  1  0  0  0  0
 48 49  1  0  0  0  0
M  END
>  <cdx:groupId>
947

>  <cdx:fragmentId>
854

$$$$
