91888.cdx
  Mrv1902 05222410262D          

 41 45  0  0  0  0            999 V2000
    2.9131   -9.7763    0.0000 C   0  0  2  0  0  0  0  0  0  0  0  0
    2.9131  -10.6013    0.0000 C   0  0  1  0  0  0  0  0  0  0  0  0
    3.6275  -11.0137    0.0000 C   0  0  0  0  0  0  0  0  0  0  0  0
    4.3420  -10.6013    0.0000 C   0  0  2  0  0  0  0  0  0  0  0  0
    4.3420   -9.7763    0.0000 C   0  0  2  0  0  0  0  0  0  0  0  0
    3.6275   -9.3637    0.0000 C   0  0  0  0  0  0  0  0  0  0  0  0
    5.0565  -11.0137    0.0000 C   0  0  0  0  0  0  0  0  0  0  0  0
    5.7709  -10.6013    0.0000 C   0  0  0  0  0  0  0  0  0  0  0  0
    5.7709   -9.7763    0.0000 C   0  0  0  0  0  0  0  0  0  0  0  0
    5.0565   -9.3637    0.0000 C   0  0  2  0  0  0  0  0  0  0  0  0
    6.4854   -9.3637    0.0000 C   0  0  2  0  0  0  0  0  0  0  0  0
    6.4854   -8.5388    0.0000 C   0  0  1  0  0  0  0  0  0  0  0  0
    5.7709   -8.1263    0.0000 C   0  0  0  0  0  0  0  0  0  0  0  0
    5.0565   -8.5388    0.0000 C   0  0  0  0  0  0  0  0  0  0  0  0
    5.0565  -11.8387    0.0000 O   0  0  0  0  0  0  0  0  0  0  0  0
    2.1986   -9.3637    0.0000 O   0  0  0  0  0  0  0  0  0  0  0  0
    2.1986  -11.0137    0.0000 O   0  0  0  0  0  0  0  0  0  0  0  0
    4.3420   -8.9513    0.0000 C   0  0  0  0  0  0  0  0  0  0  0  0
    4.3420  -11.4262    0.0000 H   0  0  0  0  0  0  0  0  0  0  0  0
    6.4854   -7.7138    0.0000 C   0  0  0  0  0  0  0  0  0  0  0  0
    6.4854  -10.1888    0.0000 O   0  0  0  0  0  0  0  0  0  0  0  0
    7.2700   -9.6187    0.0000 C   0  0  0  0  0  0  0  0  0  0  0  0
    7.7550   -8.9513    0.0000 C   0  0  0  0  0  0  0  0  0  0  0  0
    7.2700   -8.2838    0.0000 C   0  0  2  0  0  0  0  0  0  0  0  0
    7.5250   -7.4992    0.0000 C   0  0  0  0  0  0  0  0  0  0  0  0
    6.7281   -7.2857    0.0000 C   0  0  0  0  0  0  0  0  0  0  0  0
    8.3219   -7.7127    0.0000 O   0  0  0  0  0  0  0  0  0  0  0  0
    5.0565  -10.1888    0.0000 H   0  0  0  0  0  0  0  0  0  0  0  0
    8.0950   -8.2838    0.0000 H   0  0  0  0  0  0  0  0  0  0  0  0
    7.7385   -6.7023    0.0000 C   0  0  2  0  0  0  0  0  0  0  0  0
    7.1551   -6.1189    0.0000 O   0  0  0  0  0  0  0  0  0  0  0  0
    8.5354   -6.4888    0.0000 C   0  0  0  0  0  0  0  0  0  0  0  0
    8.7489   -5.6919    0.0000 C   0  0  2  0  0  0  0  0  0  0  0  0
    9.5191   -5.3962    0.0000 C   0  0  2  0  0  0  0  0  0  0  0  0
    9.4759   -4.5724    0.0000 O   0  0  0  0  0  0  0  0  0  0  0  0
    8.6790   -4.3588    0.0000 C   0  0  0  0  0  0  0  0  0  0  0  0
    8.2297   -5.0507    0.0000 C   0  0  1  0  0  0  0  0  0  0  0  0
   10.2110   -5.8456    0.0000 C   0  0  0  0  0  0  0  0  0  0  0  0
    7.4059   -5.0939    0.0000 C   0  0  0  0  0  0  0  0  0  0  0  0
    8.3834   -3.5886    0.0000 O   0  0  0  0  0  0  0  0  0  0  0  0
    9.3620   -6.2439    0.0000 O   0  0  0  0  0  0  0  0  0  0  0  0
  1  2  1  0  0  0  0
  2  3  1  0  0  0  0
  3  4  1  0  0  0  0
  4  5  1  0  0  0  0
  5  6  1  0  0  0  0
  6  1  1  0  0  0  0
  4  7  1  0  0  0  0
  7  8  1  0  0  0  0
  8  9  2  0  0  0  0
  9 10  1  0  0  0  0
 10  5  1  0  0  0  0
  9 11  1  0  0  0  0
 11 12  1  0  0  0  0
 12 13  1  0  0  0  0
 13 14  1  0  0  0  0
 14 10  1  0  0  0  0
  7 15  2  0  0  0  0
  1 16  1  1  0  0  0
  2 17  1  1  0  0  0
  5 18  1  1  0  0  0
  4 19  1  1  0  0  0
 12 20  1  1  0  0  0
 11 21  1  6  0  0  0
 11 22  1  0  0  0  0
 22 23  1  0  0  0  0
 23 24  1  0  0  0  0
 24 12  1  0  0  0  0
 24 25  1  0  0  0  0
 25 26  1  0  0  0  0
 25 27  1  1  0  0  0
 10 28  1  6  0  0  0
 24 29  1  6  0  0  0
 25 30  1  0  0  0  0
 30 31  1  6  0  0  0
 30 32  1  0  0  0  0
 33 32  1  1  0  0  0
 33 34  1  0  0  0  0
 34 35  1  0  0  0  0
 35 36  1  0  0  0  0
 36 37  1  0  0  0  0
 37 33  1  0  0  0  0
 34 38  1  6  0  0  0
 37 39  1  6  0  0  0
 36 40  2  0  0  0  0
 33 41  1  0  0  0  0
M  END
>  <cdx:fragmentId>
5

$$$$
