918945.cdx
  Mrv1902 05222410212D          

 11 11  0  0  0  0            999 V2000
    7.0712   -6.5859    0.0000 C   0  0  0  0  0  0  0  0  0  0  0  0
    6.3567   -6.9984    0.0000 C   0  0  0  0  0  0  0  0  0  0  0  0
    5.6423   -6.5859    0.0000 C   0  0  0  0  0  0  0  0  0  0  0  0
    5.6423   -5.7609    0.0000 C   0  0  0  0  0  0  0  0  0  0  0  0
    6.3567   -5.3484    0.0000 C   0  0  0  0  0  0  0  0  0  0  0  0
    7.0712   -5.7609    0.0000 C   0  0  0  0  0  0  0  0  0  0  0  0
    6.3567   -4.5234    0.0000 C   0  0  1  0  0  0  0  0  0  0  0  0
    7.0712   -4.1109    0.0000 C   0  0  2  0  0  0  0  0  0  0  0  0
    7.7857   -4.5234    0.0000 C   0  0  0  0  0  0  0  0  0  0  0  0
    5.6423   -4.1109    0.0000 O   0  0  0  0  0  0  0  0  0  0  0  0
    7.0712   -3.2859    0.0000 N   0  3  0  0  0  0  0  0  0  0  0  0
  1  2  1  0  0  0  0
  2  3  2  0  0  0  0
  3  4  1  0  0  0  0
  4  5  2  0  0  0  0
  5  6  1  0  0  0  0
  1  6  2  0  0  0  0
  5  7  1  0  0  0  0
  7  8  1  0  0  0  0
  8  9  1  0  0  0  0
  7 10  1  6  0  0  0
  8 11  1  1  0  0  0
M  CHG  1  11   1
M  END
>  <cdx:fragmentId>
13

$$$$
