91890.cdx
  Mrv1902 05222410192D          

 37 40  0  0  0  0            999 V2000
    3.9535   -8.4425    0.0000 C   0  0  1  0  0  0  0  0  0  0  0  0
    3.9535   -9.2675    0.0000 C   0  0  1  0  0  0  0  0  0  0  0  0
    4.5985   -9.7819    0.0000 C   0  0  0  0  0  0  0  0  0  0  0  0
    5.4028   -9.5983    0.0000 C   0  0  0  0  0  0  0  0  0  0  0  0
    5.7607   -8.8550    0.0000 C   0  0  2  0  0  0  0  0  0  0  0  0
    5.4028   -8.1117    0.0000 C   0  0  1  0  0  0  0  0  0  0  0  0
    4.5985   -7.9281    0.0000 C   0  0  0  0  0  0  0  0  0  0  0  0
    3.2102   -9.6255    0.0000 C   0  0  0  0  0  0  0  0  0  0  0  0
    2.5285   -9.1607    0.0000 C   0  0  0  0  0  0  0  0  0  0  0  0
    3.1485  -10.4481    0.0000 C   0  0  0  0  0  0  0  0  0  0  0  0
    3.8062   -7.6308    0.0000 O   0  0  0  0  0  0  0  0  0  0  0  0
    2.9886   -7.5200    0.0000 C   0  0  0  0  0  0  0  0  0  0  0  0
    2.6307   -8.2633    0.0000 C   0  0  0  0  0  0  0  0  0  0  0  0
    3.2270   -8.8334    0.0000 C   0  0  0  0  0  0  0  0  0  0  0  0
    6.5834   -8.9167    0.0000 C   0  0  1  0  0  0  0  0  0  0  0  0
    7.0482   -8.2350    0.0000 C   0  0  2  0  0  0  0  0  0  0  0  0
    6.6902   -7.4917    0.0000 C   0  0  0  0  0  0  0  0  0  0  0  0
    5.8675   -7.4301    0.0000 C   0  0  0  0  0  0  0  0  0  0  0  0
    7.0881   -9.5693    0.0000 C   0  0  0  0  0  0  0  0  0  0  0  0
    7.8647   -9.2910    0.0000 C   0  0  0  0  0  0  0  0  0  0  0  0
    7.8401   -8.4664    0.0000 C   0  0  0  0  0  0  0  0  0  0  0  0
    2.5977   -6.7935    0.0000 O   0  0  0  0  0  0  0  0  0  0  0  0
    8.4927   -7.9617    0.0000 C   0  0  1  0  0  0  0  0  0  0  0  0
    9.2561   -8.2745    0.0000 C   0  0  0  0  0  0  0  0  0  0  0  0
    8.3820   -7.1442    0.0000 C   0  0  0  0  0  0  0  0  0  0  0  0
    9.9087   -7.7699    0.0000 C   0  0  0  0  0  0  0  0  0  0  0  0
   10.6721   -8.0827    0.0000 C   0  0  2  0  0  0  0  0  0  0  0  0
   11.3247   -7.5781    0.0000 C   0  0  0  0  0  0  0  0  0  0  0  0
   12.0881   -7.8909    0.0000 C   0  0  0  0  0  0  0  0  0  0  0  0
   11.2140   -6.7605    0.0000 C   0  0  0  0  0  0  0  0  0  0  0  0
   11.9774   -7.0734    0.0000 O   0  0  0  0  0  0  0  0  0  0  0  0
   10.7828   -8.9003    0.0000 O   0  0  0  0  0  0  0  0  0  0  0  0
    4.9903   -7.3972    0.0000 H   0  0  0  0  0  0  0  0  0  0  0  0
    3.9535  -10.0925    0.0000 H   0  0  0  0  0  0  0  0  0  0  0  0
    6.5834   -9.7417    0.0000 C   0  0  0  0  0  0  0  0  0  0  0  0
    5.7607   -9.6800    0.0000 H   0  0  0  0  0  0  0  0  0  0  0  0
    7.5816   -7.6057    0.0000 C   0  0  0  0  0  0  0  0  0  0  0  0
  1  2  1  0  0  0  0
  2  3  1  0  0  0  0
  3  4  1  0  0  0  0
  4  5  1  0  0  0  0
  5  6  1  0  0  0  0
  6  7  1  0  0  0  0
  7  1  1  0  0  0  0
  2  8  1  0  0  0  0
  8  9  1  0  0  0  0
  8 10  2  0  0  0  0
  1 11  1  6  0  0  0
 11 12  1  0  0  0  0
 12 13  1  0  0  0  0
 13 14  1  0  0  0  0
  1 14  1  1  0  0  0
  5 15  1  0  0  0  0
 15 16  1  0  0  0  0
 16 17  1  0  0  0  0
 17 18  1  0  0  0  0
 18  6  1  0  0  0  0
 15 19  1  0  0  0  0
 19 20  1  0  0  0  0
 20 21  1  0  0  0  0
 21 16  1  0  0  0  0
 12 22  2  0  0  0  0
 21 23  1  0  0  0  0
 23 24  1  0  0  0  0
 23 25  1  6  0  0  0
 24 26  1  0  0  0  0
 26 27  1  0  0  0  0
 27 28  1  0  0  0  0
 28 29  1  0  0  0  0
 28 30  1  0  0  0  0
 28 31  1  0  0  0  0
 27 32  1  6  0  0  0
  6 33  1  6  0  0  0
  2 34  1  6  0  0  0
 15 35  1  6  0  0  0
  5 36  1  1  0  0  0
 16 37  1  1  0  0  0
M  END
>  <cdx:fragmentId>
5

$$$$
