91898.cdx
  Mrv1902 05222410272D          

  7  7  0  0  0  0            999 V2000
    6.2543   -7.7000    0.0000 C   0  0  0  0  0  0  0  0  0  0  0  0
    6.2543   -8.5250    0.0000 C   0  0  0  0  0  0  0  0  0  0  0  0
    6.9688   -8.9375    0.0000 C   0  0  0  0  0  0  0  0  0  0  0  0
    7.6832   -8.5250    0.0000 C   0  0  0  0  0  0  0  0  0  0  0  0
    7.6832   -7.7000    0.0000 C   0  0  0  0  0  0  0  0  0  0  0  0
    6.9688   -7.2875    0.0000 C   0  0  0  0  0  0  0  0  0  0  0  0
    6.9688   -6.4625    0.0000 O   0  0  0  0  0  0  0  0  0  0  0  0
  1  2  1  0  0  0  0
  2  3  1  0  0  0  0
  3  4  1  0  0  0  0
  4  5  2  0  0  0  0
  5  6  1  0  0  0  0
  6  1  1  0  0  0  0
  6  7  1  0  0  0  0
M  END
>  <cdx:fragmentId>
5

$$$$
