91895.cdx
  Mrv1902 05222410182D          

 10  9  0  0  0  0            999 V2000
    6.7768   -6.8613    0.0000 C   0  0  0  0  0  0  0  0  0  0  0  0
    6.7768   -7.6863    0.0000 C   0  0  0  0  0  0  0  0  0  0  0  0
    7.4913   -8.0987    0.0000 C   0  0  0  0  0  0  0  0  0  0  0  0
    8.2057   -7.6863    0.0000 C   0  0  0  0  0  0  0  0  0  0  0  0
    8.2057   -6.8613    0.0000 O   0  0  0  0  0  0  0  0  0  0  0  0
    7.4913   -6.4487    0.0000 O   0  0  0  0  0  0  0  0  0  0  0  0
    6.0623   -5.6238    0.0000 C   0  0  0  0  0  0  0  0  0  0  0  0
    6.0623   -6.4487    0.0000 O   0  0  0  0  0  0  0  0  0  0  0  0
    8.9202   -8.0987    0.0000 O   0  0  0  0  0  0  0  0  0  0  0  0
    9.6347   -7.6863    0.0000 C   0  0  0  0  0  0  0  0  0  0  0  0
  1  2  1  0  0  0  0
  2  3  2  0  0  0  0
  3  4  1  0  0  0  0
  4  5  2  0  0  0  0
  6  1  2  0  0  0  0
  7  8  1  0  0  0  0
  8  1  1  0  0  0  0
  4  9  1  0  0  0  0
  9 10  1  0  0  0  0
M  END
>  <cdx:fragmentId>
5

$$$$
