91896.cdx
  Mrv1902 05222410182D          

  8  7  0  0  0  0            999 V2000
    5.5525   -6.4763    0.0000 C   0  0  0  0  0  0  0  0  0  0  0  0
    6.2670   -6.0638    0.0000 C   0  0  0  0  0  0  0  0  0  0  0  0
    6.9815   -6.4763    0.0000 C   0  0  0  0  0  0  0  0  0  0  0  0
    7.6959   -6.0638    0.0000 C   0  0  0  0  0  0  0  0  0  0  0  0
    8.4104   -6.4763    0.0000 O   0  0  0  0  0  0  0  0  0  0  0  0
    9.1249   -6.0638    0.0000 C   0  0  0  0  0  0  0  0  0  0  0  0
    6.9815   -7.3012    0.0000 C   0  0  0  0  0  0  0  0  0  0  0  0
    7.6959   -5.2387    0.0000 O   0  0  0  0  0  0  0  0  0  0  0  0
  1  2  1  0  0  0  0
  2  3  2  0  0  0  0
  3  4  1  0  0  0  0
  4  5  1  0  0  0  0
  5  6  1  0  0  0  0
  3  7  1  0  0  0  0
  4  8  2  0  0  0  0
M  END
>  <cdx:fragmentId>
3

$$$$
