91894.cdx
  Mrv1902 05222410192D          

 12 13  0  0  0  0            999 V2000
    6.3918  -10.3950    0.0000 C   0  0  0  0  0  0  0  0  0  0  0  0
    6.3918  -11.2200    0.0000 C   0  0  0  0  0  0  0  0  0  0  0  0
    7.1063  -11.6325    0.0000 C   0  0  0  0  0  0  0  0  0  0  0  0
    7.8207  -11.2200    0.0000 C   0  0  0  0  0  0  0  0  0  0  0  0
    7.8207  -10.3950    0.0000 C   0  0  0  0  0  0  0  0  0  0  0  0
    7.1063   -9.9825    0.0000 C   0  0  0  0  0  0  0  0  0  0  0  0
    7.1063   -9.1575    0.0000 C   0  0  0  0  0  0  0  0  0  0  0  0
    7.8207   -8.7450    0.0000 C   0  0  0  0  0  0  0  0  0  0  0  0
    8.5744   -9.0806    0.0000 O   0  0  0  0  0  0  0  0  0  0  0  0
    9.1265   -8.4675    0.0000 C   0  0  0  0  0  0  0  0  0  0  0  0
    8.7140   -7.7530    0.0000 C   0  0  0  0  0  0  0  0  0  0  0  0
    7.9070   -7.9245    0.0000 O   0  0  0  0  0  0  0  0  0  0  0  0
  1  2  2  0  0  0  0
  2  3  1  0  0  0  0
  3  4  2  0  0  0  0
  4  5  1  0  0  0  0
  5  6  2  0  0  0  0
  6  1  1  0  0  0  0
  6  7  1  0  0  0  0
  7  8  1  0  0  0  0
  8  9  1  0  0  0  0
  9 10  1  0  0  0  0
 10 11  1  0  0  0  0
 11 12  1  0  0  0  0
 12  8  1  0  0  0  0
M  END
>  <cdx:fragmentId>
5

$$$$
