91899.cdx
  Mrv1902 05222410272D          

 10 10  0  0  0  0            999 V2000
    5.9243   -7.5350    0.0000 C   0  0  0  0  0  0  0  0  0  0  0  0
    5.9243   -8.3600    0.0000 C   0  0  0  0  0  0  0  0  0  0  0  0
    6.6388   -8.7725    0.0000 C   0  0  0  0  0  0  0  0  0  0  0  0
    7.3532   -8.3600    0.0000 C   0  0  0  0  0  0  0  0  0  0  0  0
    7.3532   -7.5350    0.0000 C   0  0  0  0  0  0  0  0  0  0  0  0
    6.6388   -7.1225    0.0000 C   0  0  0  0  0  0  0  0  0  0  0  0
    5.2098   -8.7725    0.0000 C   0  0  0  0  0  0  0  0  0  0  0  0
    6.6388   -9.5975    0.0000 O   0  0  0  0  0  0  0  0  0  0  0  0
    6.2263   -6.4080    0.0000 C   0  0  0  0  0  0  0  0  0  0  0  0
    7.0513   -6.4080    0.0000 C   0  0  0  0  0  0  0  0  0  0  0  0
  1  2  2  0  0  0  0
  2  3  1  0  0  0  0
  3  4  1  0  0  0  0
  4  5  1  0  0  0  0
  5  6  1  0  0  0  0
  6  1  1  0  0  0  0
  2  7  1  0  0  0  0
  3  8  1  0  0  0  0
  6  9  1  0  0  0  0
  6 10  1  0  0  0  0
M  END
>  <cdx:fragmentId>
5

$$$$
