91905.cdx
  Mrv1902 05222410282D          

 34 37  0  0  0  0            999 V2000
    3.4906  -10.9313    0.0000 C   0  0  0  0  0  0  0  0  0  0  0  0
    3.4906  -11.7562    0.0000 C   0  0  2  0  0  0  0  0  0  0  0  0
    4.2050  -12.1687    0.0000 C   0  0  0  0  0  0  0  0  0  0  0  0
    4.9195  -11.7562    0.0000 C   0  0  0  0  0  0  0  0  0  0  0  0
    4.9195  -10.9313    0.0000 C   0  0  0  0  0  0  0  0  0  0  0  0
    4.2050  -10.5188    0.0000 C   0  0  0  0  0  0  0  0  0  0  0  0
    5.6340  -12.1687    0.0000 C   0  0  0  0  0  0  0  0  0  0  0  0
    6.3484  -11.7562    0.0000 C   0  0  0  0  0  0  0  0  0  0  0  0
    6.3484  -10.9313    0.0000 C   0  0  0  0  0  0  0  0  0  0  0  0
    5.6340  -10.5188    0.0000 C   0  0  0  0  0  0  0  0  0  0  0  0
    7.0629  -10.5188    0.0000 C   0  0  0  0  0  0  0  0  0  0  0  0
    7.0629   -9.6937    0.0000 C   0  0  0  0  0  0  0  0  0  0  0  0
    6.3484   -9.2813    0.0000 C   0  0  0  0  0  0  0  0  0  0  0  0
    5.6340   -9.6937    0.0000 C   0  0  0  0  0  0  0  0  0  0  0  0
    8.4919  -10.5188    0.0000 C   0  0  0  0  0  0  0  0  0  0  0  0
    8.4919   -9.6937    0.0000 C   0  0  0  0  0  0  0  0  0  0  0  0
    7.7774   -9.2813    0.0000 C   0  0  0  0  0  0  0  0  0  0  0  0
    4.9195  -10.1063    0.0000 C   0  0  0  0  0  0  0  0  0  0  0  0
    5.6340  -12.9937    0.0000 O   0  0  0  0  0  0  0  0  0  0  0  0
    2.7761  -10.5188    0.0000 H   0  0  0  0  0  0  0  0  0  0  0  0
    2.7761  -12.1687    0.0000 O   0  0  0  0  0  0  0  0  0  0  0  0
    7.2764  -11.3156    0.0000 O   0  0  0  0  0  0  0  0  0  0  0  0
    7.0629   -8.8688    0.0000 C   0  0  0  0  0  0  0  0  0  0  0  0
    7.7774   -8.4563    0.0000 C   0  0  0  0  0  0  0  0  0  0  0  0
    7.0629   -8.0437    0.0000 C   0  0  0  0  0  0  0  0  0  0  0  0
    7.7774   -7.6313    0.0000 O   0  0  0  0  0  0  0  0  0  0  0  0
    8.4919   -8.0437    0.0000 C   0  0  0  0  0  0  0  0  0  0  0  0
    9.2063   -8.4563    0.0000 C   0  0  0  0  0  0  0  0  0  0  0  0
    8.4919   -7.2188    0.0000 O   0  0  0  0  0  0  0  0  0  0  0  0
    9.9208   -8.0437    0.0000 C   0  0  0  0  0  0  0  0  0  0  0  0
   10.6353   -8.4563    0.0000 C   0  0  0  0  0  0  0  0  0  0  0  0
   11.3497   -8.0437    0.0000 C   0  0  0  0  0  0  0  0  0  0  0  0
   10.6353   -9.2813    0.0000 C   0  0  0  0  0  0  0  0  0  0  0  0
   11.3497   -8.8688    0.0000 O   0  0  0  0  0  0  0  0  0  0  0  0
  1  2  1  0  0  0  0
  2  3  1  0  0  0  0
  3  4  1  0  0  0  0
  4  5  1  0  0  0  0
  5  6  1  0  0  0  0
  6  1  1  0  0  0  0
  4  7  1  0  0  0  0
  7  8  1  0  0  0  0
  8  9  2  0  0  0  0
  9 10  1  0  0  0  0
 10  5  1  0  0  0  0
  9 11  1  0  0  0  0
 11 12  1  0  0  0  0
 12 13  1  0  0  0  0
 13 14  1  0  0  0  0
 14 10  1  0  0  0  0
 15 16  1  0  0  0  0
 16 17  1  0  0  0  0
 17 12  1  0  0  0  0
 11 15  1  0  0  0  0
  5 18  1  0  0  0  0
  7 19  2  0  0  0  0
  1 20  1  0  0  0  0
  2 21  1  6  0  0  0
 11 22  1  0  0  0  0
 12 23  1  0  0  0  0
 17 24  1  0  0  0  0
 24 25  1  0  0  0  0
 24 26  1  0  0  0  0
 24 27  1  0  0  0  0
 27 28  1  0  0  0  0
 27 29  1  0  0  0  0
 28 30  1  0  0  0  0
 30 31  1  0  0  0  0
 31 32  1  0  0  0  0
 31 33  1  0  0  0  0
 31 34  1  0  0  0  0
M  END
>  <cdx:fragmentId>
5

$$$$
