91907.cdx
  Mrv1902 05222410272D          

  9  8  0  0  0  0            999 V2000
    9.5501   -6.0775    0.0000 C   0  0  0  0  0  0  0  0  0  0  0  0
    8.8356   -5.6650    0.0000 C   0  0  0  0  0  0  0  0  0  0  0  0
    8.1211   -6.0775    0.0000 O   0  0  0  0  0  0  0  0  0  0  0  0
    7.4067   -5.6650    0.0000 C   0  0  0  0  0  0  0  0  0  0  0  0
    6.6922   -6.0775    0.0000 C   0  0  0  0  0  0  0  0  0  0  0  0
    5.9777   -5.6650    0.0000 O   0  0  0  0  0  0  0  0  0  0  0  0
    5.2632   -6.0775    0.0000 C   0  0  0  0  0  0  0  0  0  0  0  0
    4.5488   -5.6650    0.0000 C   0  0  0  0  0  0  0  0  0  0  0  0
    5.2632   -6.9025    0.0000 O   0  0  0  0  0  0  0  0  0  0  0  0
  2  1  1  0  0  0  0
  3  2  1  0  0  0  0
  4  3  1  0  0  0  0
  5  4  1  0  0  0  0
  6  5  1  0  0  0  0
  7  6  1  0  0  0  0
  8  7  1  0  0  0  0
  7  9  2  0  0  0  0
M  END
>  <cdx:fragmentId>
3

$$$$
