91901.cdx
  Mrv1902 05222410262D          

 12 12  0  0  0  0            999 V2000
    6.0206   -7.6175    0.0000 C   0  0  0  0  0  0  0  0  0  0  0  0
    6.0206   -8.4425    0.0000 C   0  0  0  0  0  0  0  0  0  0  0  0
    6.7350   -8.8550    0.0000 C   0  0  0  0  0  0  0  0  0  0  0  0
    7.4495   -8.4425    0.0000 C   0  0  0  0  0  0  0  0  0  0  0  0
    7.4495   -7.6175    0.0000 C   0  0  0  0  0  0  0  0  0  0  0  0
    6.7350   -7.2050    0.0000 C   0  0  0  0  0  0  0  0  0  0  0  0
    6.7350   -6.3800    0.0000 O   0  0  0  0  0  0  0  0  0  0  0  0
    5.3061   -8.8550    0.0000 C   0  0  0  0  0  0  0  0  0  0  0  0
    4.5916   -8.4425    0.0000 O   0  0  0  0  0  0  0  0  0  0  0  0
    8.1640   -7.2050    0.0000 C   0  0  0  0  0  0  0  0  0  0  0  0
    8.8784   -7.6175    0.0000 C   0  0  0  0  0  0  0  0  0  0  0  0
    8.1640   -6.3800    0.0000 C   0  0  0  0  0  0  0  0  0  0  0  0
  1  2  2  0  0  0  0
  2  3  1  0  0  0  0
  3  4  1  0  0  0  0
  4  5  1  0  0  0  0
  5  6  1  0  0  0  0
  6  1  1  0  0  0  0
  6  7  2  0  0  0  0
  2  8  1  0  0  0  0
  8  9  1  0  0  0  0
  5 10  1  0  0  0  0
 10 11  1  0  0  0  0
 10 12  1  0  0  0  0
M  END
>  <cdx:fragmentId>
5

$$$$
