91906.cdx
  Mrv1902 05222410272D          

  9  9  0  0  0  0            999 V2000
    3.3668   -7.2188    0.0000 C   0  0  0  0  0  0  0  0  0  0  0  0
    3.3668   -8.0437    0.0000 C   0  0  0  0  0  0  0  0  0  0  0  0
    4.0813   -8.4563    0.0000 C   0  0  0  0  0  0  0  0  0  0  0  0
    4.7957   -8.0437    0.0000 C   0  0  0  0  0  0  0  0  0  0  0  0
    4.7957   -7.2188    0.0000 C   0  0  0  0  0  0  0  0  0  0  0  0
    4.0813   -6.8062    0.0000 C   0  0  0  0  0  0  0  0  0  0  0  0
    5.5102   -6.8062    0.0000 N   0  0  0  0  0  0  0  0  0  0  0  0
    5.5102   -8.4563    0.0000 C   0  0  0  0  0  0  0  0  0  0  0  0
    6.2247   -8.0437    0.0000 C   0  0  0  0  0  0  0  0  0  0  0  0
  1  2  2  0  0  0  0
  2  3  1  0  0  0  0
  3  4  2  0  0  0  0
  4  5  1  0  0  0  0
  5  6  2  0  0  0  0
  6  1  1  0  0  0  0
  5  7  1  0  0  0  0
  4  8  1  0  0  0  0
  8  9  2  0  0  0  0
M  END
>  <cdx:fragmentId>
5

$$$$
