91903.cdx
  Mrv1902 05222410262D          

 11 10  0  0  0  0            999 V2000
    9.9890   -6.8338    0.0000 C   0  0  0  0  0  0  0  0  0  0  0  0
    9.2745   -6.4213    0.0000 C   0  0  0  0  0  0  0  0  0  0  0  0
    8.5601   -6.8338    0.0000 C   0  0  0  0  0  0  0  0  0  0  0  0
    7.8456   -6.4213    0.0000 C   0  0  0  0  0  0  0  0  0  0  0  0
    7.1311   -6.8338    0.0000 C   0  0  0  0  0  0  0  0  0  0  0  0
    6.4167   -6.4213    0.0000 C   0  0  0  0  0  0  0  0  0  0  0  0
    5.7022   -6.8338    0.0000 C   0  0  0  0  0  0  0  0  0  0  0  0
    4.9877   -6.4213    0.0000 C   0  0  0  0  0  0  0  0  0  0  0  0
    4.2732   -6.8338    0.0000 C   0  0  0  0  0  0  0  0  0  0  0  0
    3.5588   -6.4213    0.0000 O   0  0  0  0  0  0  0  0  0  0  0  0
    4.2732   -7.6587    0.0000 C   0  0  0  0  0  0  0  0  0  0  0  0
  2  1  1  0  0  0  0
  3  2  1  0  0  0  0
  4  3  1  0  0  0  0
  5  4  1  0  0  0  0
  6  5  1  0  0  0  0
  7  6  1  0  0  0  0
  8  7  1  0  0  0  0
  9  8  1  0  0  0  0
 10  9  1  0  0  0  0
  9 11  1  0  0  0  0
M  END
>  <cdx:fragmentId>
3

$$$$
