91904.cdx
  Mrv1902 05222410282D          

 11 10  0  0  0  0            999 V2000
    6.2263   -7.9200    0.0000 C   0  0  0  0  0  0  0  0  0  0  0  0
    6.9407   -7.5075    0.0000 C   0  0  0  0  0  0  0  0  0  0  0  0
    7.6552   -7.9200    0.0000 C   0  0  0  0  0  0  0  0  0  0  0  0
    8.3697   -7.5075    0.0000 C   0  0  0  0  0  0  0  0  0  0  0  0
    9.0842   -7.9200    0.0000 C   0  0  0  0  0  0  0  0  0  0  0  0
    9.7986   -7.5075    0.0000 C   0  0  0  0  0  0  0  0  0  0  0  0
   10.5131   -7.9200    0.0000 C   0  0  0  0  0  0  0  0  0  0  0  0
   11.2276   -7.5075    0.0000 C   0  0  0  0  0  0  0  0  0  0  0  0
    5.5118   -8.3325    0.0000 C   0  0  0  0  0  0  0  0  0  0  0  0
    4.7973   -8.7450    0.0000 C   0  0  0  0  0  0  0  0  0  0  0  0
    4.0829   -8.3325    0.0000 O   0  0  0  0  0  0  0  0  0  0  0  0
  1  2  1  0  0  0  0
  2  3  1  0  0  0  0
  3  4  1  0  0  0  0
  4  5  1  0  0  0  0
  5  6  1  0  0  0  0
  6  7  1  0  0  0  0
  7  8  1  0  0  0  0
  1  9  3  0  0  0  0
  9 10  1  0  0  0  0
 10 11  1  0  0  0  0
M  END
>  <cdx:fragmentId>
3

$$$$
