91908.cdx
  Mrv1902 05222410182D          

 21 22  0  0  0  0            999 V2000
    6.0756   -8.6625    0.0000 O   0  0  0  0  0  0  0  0  0  0  0  0
    6.0756   -9.4875    0.0000 C   0  0  1  0  0  0  0  0  0  0  0  0
    6.7900   -9.9000    0.0000 C   0  0  2  0  0  0  0  0  0  0  0  0
    7.5045   -9.4875    0.0000 C   0  0  1  0  0  0  0  0  0  0  0  0
    7.5045   -8.6625    0.0000 C   0  0  2  0  0  0  0  0  0  0  0  0
    6.7900   -8.2500    0.0000 C   0  0  2  0  0  0  0  0  0  0  0  0
    6.7900   -7.4250    0.0000 N   0  0  0  0  0  0  0  0  0  0  0  0
    7.4575   -6.9401    0.0000 C   0  0  0  0  0  0  0  0  0  0  0  0
    7.2025   -6.1555    0.0000 C   0  0  0  0  0  0  0  0  0  0  0  0
    6.3775   -6.1555    0.0000 C   0  0  0  0  0  0  0  0  0  0  0  0
    6.1226   -6.9401    0.0000 C   0  0  0  0  0  0  0  0  0  0  0  0
    5.8926   -5.4880    0.0000 C   0  0  0  0  0  0  0  0  0  0  0  0
    7.6874   -5.4880    0.0000 C   0  0  0  0  0  0  0  0  0  0  0  0
    8.5124   -5.4880    0.0000 C   0  0  0  0  0  0  0  0  0  0  0  0
    5.3380   -7.1950    0.0000 O   0  0  0  0  0  0  0  0  0  0  0  0
    8.2421   -7.1950    0.0000 O   0  0  0  0  0  0  0  0  0  0  0  0
    5.3611   -9.9000    0.0000 C   0  0  0  0  0  0  0  0  0  0  0  0
    5.3611  -10.7250    0.0000 O   0  0  0  0  0  0  0  0  0  0  0  0
    8.2190   -9.9000    0.0000 O   0  0  0  0  0  0  0  0  0  0  0  0
    8.2190   -8.2500    0.0000 O   0  0  0  0  0  0  0  0  0  0  0  0
    6.7900  -10.7250    0.0000 O   0  0  0  0  0  0  0  0  0  0  0  0
  1  2  1  0  0  0  0
  2  3  1  0  0  0  0
  3  4  1  0  0  0  0
  4  5  1  0  0  0  0
  5  6  1  0  0  0  0
  6  1  1  0  0  0  0
  6  7  1  1  0  0  0
  7  8  1  0  0  0  0
  8  9  1  0  0  0  0
  9 10  2  0  0  0  0
 10 11  1  0  0  0  0
 11  7  1  0  0  0  0
 10 12  1  0  0  0  0
  9 13  1  0  0  0  0
 13 14  1  0  0  0  0
 11 15  2  0  0  0  0
  8 16  2  0  0  0  0
  2 17  1  1  0  0  0
 17 18  1  0  0  0  0
  4 19  1  1  0  0  0
  5 20  1  6  0  0  0
  3 21  1  6  0  0  0
M  END
>  <cdx:fragmentId>
5

$$$$
