91902.cdx
  Mrv1902 05222410272D          

  9  9  0  0  0  0            999 V2000
    5.7813   -7.1778    0.0000 C   0  0  0  0  0  0  0  0  0  0  0  0
    6.0399   -7.9612    0.0000 C   0  0  0  0  0  0  0  0  0  0  0  0
    6.8649   -7.9573    0.0000 C   0  0  0  0  0  0  0  0  0  0  0  0
    7.1161   -7.1715    0.0000 C   0  0  0  0  0  0  0  0  0  0  0  0
    6.4464   -6.6897    0.0000 C   0  0  0  0  0  0  0  0  0  0  0  0
    6.4425   -5.8647    0.0000 O   0  0  0  0  0  0  0  0  0  0  0  0
    7.8996   -6.9129    0.0000 O   0  0  0  0  0  0  0  0  0  0  0  0
    4.9955   -6.9266    0.0000 C   0  0  0  0  0  0  0  0  0  0  0  0
    4.3850   -7.4815    0.0000 C   0  0  0  0  0  0  0  0  0  0  0  0
  1  2  1  0  0  0  0
  2  3  1  0  0  0  0
  3  4  1  0  0  0  0
  4  5  1  0  0  0  0
  5  1  2  0  0  0  0
  5  6  1  0  0  0  0
  4  7  2  0  0  0  0
  1  8  1  0  0  0  0
  8  9  1  0  0  0  0
M  END
>  <cdx:fragmentId>
5

$$$$
