919089.cdx
  Mrv1902 05222410242D          

 73 81  0  0  0  0            999 V2000
    5.5806   -9.6387    0.0000 C   0  0  0  0  0  0  0  0  0  0  0  0
    5.5806  -10.4637    0.0000 C   0  0  1  0  0  0  0  0  0  0  0  0
    6.2950  -10.8762    0.0000 C   0  0  0  0  0  0  0  0  0  0  0  0
    7.0095  -10.4637    0.0000 C   0  0  1  0  0  0  0  0  0  0  0  0
    7.0095   -9.6387    0.0000 C   0  0  2  0  0  0  0  0  0  0  0  0
    6.2950   -9.2263    0.0000 C   0  0  0  0  0  0  0  0  0  0  0  0
    7.7240  -10.8762    0.0000 C   0  0  2  0  0  0  0  0  0  0  0  0
    8.4384  -10.4637    0.0000 C   0  0  0  0  0  0  0  0  0  0  0  0
    8.4384   -9.6387    0.0000 C   0  0  2  0  0  0  0  0  0  0  0  0
    7.7240   -9.2263    0.0000 C   0  0  1  0  0  0  0  0  0  0  0  0
    9.1529   -9.2263    0.0000 C   0  0  1  0  0  0  0  0  0  0  0  0
    9.1529   -8.4013    0.0000 C   0  0  2  0  0  0  0  0  0  0  0  0
    8.4384   -7.9888    0.0000 C   0  0  0  0  0  0  0  0  0  0  0  0
    7.7240   -8.4013    0.0000 C   0  0  0  0  0  0  0  0  0  0  0  0
    9.9375   -9.4812    0.0000 C   0  0  0  0  0  0  0  0  0  0  0  0
   10.4225   -8.8138    0.0000 C   0  0  1  0  0  0  0  0  0  0  0  0
    9.9375   -8.1463    0.0000 C   0  0  2  0  0  0  0  0  0  0  0  0
   10.1511   -7.3494    0.0000 C   0  0  2  0  0  0  0  0  0  0  0  0
   10.8199   -6.8665    0.0000 O   0  0  0  0  0  0  0  0  0  0  0  0
   10.5674   -6.0811    0.0000 C   0  0  1  0  0  0  0  0  0  0  0  0
    9.7424   -6.0786    0.0000 C   0  0  0  0  0  0  0  0  0  0  0  0
    9.4851   -6.8625    0.0000 C   0  0  0  0  0  0  0  0  0  0  0  0
    5.8825  -11.5907    0.0000 C   0  0  0  0  0  0  0  0  0  0  0  0
    6.7075  -11.5907    0.0000 C   0  0  0  0  0  0  0  0  0  0  0  0
    4.8661  -10.8762    0.0000 O   0  0  0  0  0  0  0  0  0  0  0  0
    7.0095   -8.8138    0.0000 C   0  0  0  0  0  0  0  0  0  0  0  0
    8.4384   -8.8138    0.0000 H   0  0  0  0  0  0  0  0  0  0  0  0
    9.1529   -7.5762    0.0000 C   0  0  0  0  0  0  0  0  0  0  0  0
   11.2475   -8.8138    0.0000 O   0  0  0  0  0  0  0  0  0  0  0  0
   10.9584   -7.5190    0.0000 C   0  0  0  0  0  0  0  0  0  0  0  0
    7.0095  -11.2888    0.0000 H   0  0  0  0  0  0  0  0  0  0  0  0
    7.7240  -11.7012    0.0000 O   0  0  0  0  0  0  0  0  0  0  0  0
    9.1529  -10.0512    0.0000 C   0  0  0  0  0  0  0  0  0  0  0  0
   10.7625   -8.1463    0.0000 H   0  0  0  0  0  0  0  0  0  0  0  0
    8.1714  -12.3944    0.0000 C   0  0  2  0  0  0  0  0  0  0  0  0
    7.7949  -13.1284    0.0000 O   0  0  0  0  0  0  0  0  0  0  0  0
    8.2423  -13.8215    0.0000 C   0  0  1  0  0  0  0  0  0  0  0  0
    9.0663  -13.7806    0.0000 C   0  0  2  0  0  0  0  0  0  0  0  0
    9.4429  -13.0465    0.0000 C   0  0  1  0  0  0  0  0  0  0  0  0
    8.9954  -12.3534    0.0000 C   0  0  1  0  0  0  0  0  0  0  0  0
    7.8658  -14.5556    0.0000 C   0  0  0  0  0  0  0  0  0  0  0  0
   10.2668  -13.0056    0.0000 O   0  0  0  0  0  0  0  0  0  0  0  0
    9.3719  -11.6194    0.0000 O   0  0  0  0  0  0  0  0  0  0  0  0
    9.5138  -14.4737    0.0000 O   0  0  0  0  0  0  0  0  0  0  0  0
    8.3133  -15.2487    0.0000 O   0  0  0  0  0  0  0  0  0  0  0  0
    4.1516  -10.4637    0.0000 C   0  0  2  0  0  0  0  0  0  0  0  0
    4.1516   -9.6387    0.0000 O   0  0  0  0  0  0  0  0  0  0  0  0
    3.4371   -9.2263    0.0000 C   0  0  0  0  0  0  0  0  0  0  0  0
    2.7227   -9.6387    0.0000 C   0  0  2  0  0  0  0  0  0  0  0  0
    2.7227  -10.4637    0.0000 C   0  0  1  0  0  0  0  0  0  0  0  0
    3.4371  -10.8762    0.0000 C   0  0  1  0  0  0  0  0  0  0  0  0
    2.0082  -10.8762    0.0000 O   0  0  0  0  0  0  0  0  0  0  0  0
    2.0082   -9.2263    0.0000 O   0  0  0  0  0  0  0  0  0  0  0  0
    3.4371  -11.7012    0.0000 O   0  0  0  0  0  0  0  0  0  0  0  0
   11.3748   -6.2507    0.0000 H   0  0  0  0  0  0  0  0  0  0  0  0
   10.9799   -5.3667    0.0000 C   0  0  0  0  0  0  0  0  0  0  0  0
   10.2654   -4.9542    0.0000 C   0  0  0  0  0  0  0  0  0  0  0  0
   11.6943   -5.7792    0.0000 C   0  0  0  0  0  0  0  0  0  0  0  0
   11.3924   -4.6522    0.0000 O   0  0  0  0  0  0  0  0  0  0  0  0
    4.1516  -12.1137    0.0000 C   0  0  0  0  0  0  0  0  0  0  0  0
    4.1516  -12.9387    0.0000 O   0  0  0  0  0  0  0  0  0  0  0  0
    4.8661  -11.7012    0.0000 C   0  0  0  0  0  0  0  0  0  0  0  0
   10.9799   -3.9377    0.0000 C   0  0  2  0  0  0  0  0  0  0  0  0
   11.3924   -3.2232    0.0000 O   0  0  0  0  0  0  0  0  0  0  0  0
   10.9799   -2.5088    0.0000 C   0  0  1  0  0  0  0  0  0  0  0  0
   10.1549   -2.5088    0.0000 C   0  0  2  0  0  0  0  0  0  0  0  0
    9.7424   -3.2232    0.0000 C   0  0  1  0  0  0  0  0  0  0  0  0
   10.1549   -3.9377    0.0000 C   0  0  1  0  0  0  0  0  0  0  0  0
   11.3924   -1.7943    0.0000 C   0  0  0  0  0  0  0  0  0  0  0  0
    8.9174   -3.2232    0.0000 O   0  0  0  0  0  0  0  0  0  0  0  0
    9.7424   -1.7943    0.0000 O   0  0  0  0  0  0  0  0  0  0  0  0
    9.7424   -4.6522    0.0000 O   0  0  0  0  0  0  0  0  0  0  0  0
   10.9799   -1.0798    0.0000 O   0  0  0  0  0  0  0  0  0  0  0  0
  1  2  1  0  0  0  0
  2  3  1  0  0  0  0
  3  4  1  0  0  0  0
  4  5  1  0  0  0  0
  5  6  1  0  0  0  0
  6  1  1  0  0  0  0
  4  7  1  0  0  0  0
  7  8  1  0  0  0  0
  8  9  1  0  0  0  0
  9 10  1  0  0  0  0
 10  5  1  0  0  0  0
  9 11  1  0  0  0  0
 11 12  1  0  0  0  0
 12 13  1  0  0  0  0
 13 14  1  0  0  0  0
 14 10  1  0  0  0  0
 11 15  1  0  0  0  0
 15 16  1  0  0  0  0
 16 17  1  0  0  0  0
 17 12  1  0  0  0  0
 17 18  1  0  0  0  0
 18 19  1  0  0  0  0
 19 20  1  0  0  0  0
 20 21  1  0  0  0  0
 21 22  1  0  0  0  0
 22 18  1  0  0  0  0
  3 23  1  0  0  0  0
  3 24  1  0  0  0  0
  2 25  1  1  0  0  0
  5 26  1  1  0  0  0
 10 26  1  1  0  0  0
  9 27  1  1  0  0  0
 12 28  1  1  0  0  0
 16 29  1  1  0  0  0
 18 30  1  6  0  0  0
  4 31  1  6  0  0  0
  7 32  1  6  0  0  0
 11 33  1  6  0  0  0
 17 34  1  6  0  0  0
 35 32  1  1  0  0  0
 35 36  1  0  0  0  0
 36 37  1  0  0  0  0
 37 38  1  0  0  0  0
 38 39  1  0  0  0  0
 39 40  1  0  0  0  0
 40 35  1  0  0  0  0
 37 41  1  1  0  0  0
 39 42  1  1  0  0  0
 40 43  1  6  0  0  0
 38 44  1  6  0  0  0
 41 45  1  0  0  0  0
 46 25  1  1  0  0  0
 46 47  1  0  0  0  0
 47 48  1  0  0  0  0
 48 49  1  0  0  0  0
 49 50  1  0  0  0  0
 50 51  1  0  0  0  0
 51 46  1  0  0  0  0
 50 52  1  1  0  0  0
 49 53  1  6  0  0  0
 51 54  1  6  0  0  0
 20 55  1  6  0  0  0
 20 56  1  0  0  0  0
 56 57  1  0  0  0  0
 56 58  1  0  0  0  0
 56 59  1  0  0  0  0
 54 60  1  0  0  0  0
 60 61  2  0  0  0  0
 60 62  1  0  0  0  0
 63 59  1  1  0  0  0
 63 64  1  0  0  0  0
 64 65  1  0  0  0  0
 65 66  1  0  0  0  0
 66 67  1  0  0  0  0
 67 68  1  0  0  0  0
 68 63  1  0  0  0  0
 65 69  1  1  0  0  0
 67 70  1  1  0  0  0
 66 71  1  6  0  0  0
 68 72  1  6  0  0  0
 69 73  1  0  0  0  0
M  END
>  <cdx:fragmentId>
5

$$$$
