91909.cdx
  Mrv1902 05222410182D          

 12 12  0  0  0  0            999 V2000
    6.8690   -8.4183    0.0000 C   0  0  0  0  0  0  0  0  0  0  0  0
    7.5828   -8.0046    0.0000 C   0  0  0  0  0  0  0  0  0  0  0  0
    7.5814   -7.1796    0.0000 C   0  0  0  0  0  0  0  0  0  0  0  0
    6.8662   -6.7683    0.0000 C   0  0  0  0  0  0  0  0  0  0  0  0
    6.1524   -7.1820    0.0000 C   0  0  0  0  0  0  0  0  0  0  0  0
    6.1538   -8.0070    0.0000 C   0  0  0  0  0  0  0  0  0  0  0  0
    5.4401   -8.4207    0.0000 O   0  0  0  0  0  0  0  0  0  0  0  0
    6.8704   -9.2433    0.0000 C   0  0  0  0  0  0  0  0  0  0  0  0
    7.5856   -9.6546    0.0000 C   0  0  0  0  0  0  0  0  0  0  0  0
    6.8648   -5.9433    0.0000 C   0  0  0  0  0  0  0  0  0  0  0  0
    7.5786   -5.5296    0.0000 C   0  0  0  0  0  0  0  0  0  0  0  0
    7.5772   -4.7046    0.0000 C   0  0  0  0  0  0  0  0  0  0  0  0
  1  2  2  0  0  0  0
  2  3  1  0  0  0  0
  3  4  2  0  0  0  0
  4  5  1  0  0  0  0
  5  6  2  0  0  0  0
  6  1  1  0  0  0  0
  6  7  1  0  0  0  0
  1  8  1  0  0  0  0
  8  9  1  0  0  0  0
  4 10  1  0  0  0  0
 10 11  1  0  0  0  0
 11 12  1  0  0  0  0
M  END
>  <cdx:fragmentId>
5

$$$$
