91912.cdx
  Mrv1902 05222410272D          

 11 10  0  0  0  0            999 V2000
    9.1626   -3.4402    0.0000 C   0  0  0  0  0  0  0  0  0  0  0  0
    4.8758   -3.4402    0.0000 C   0  0  0  0  0  0  0  0  0  0  0  0
    5.5903   -4.6777    0.0000 C   0  0  0  0  0  0  0  0  0  0  0  0
    5.5903   -3.8527    0.0000 C   0  0  0  0  0  0  0  0  0  0  0  0
    6.3047   -3.4402    0.0000 C   0  0  0  0  0  0  0  0  0  0  0  0
    7.0192   -3.8527    0.0000 C   0  0  0  0  0  0  0  0  0  0  0  0
    7.7337   -3.4402    0.0000 C   0  0  0  0  0  0  0  0  0  0  0  0
    8.4482   -3.8527    0.0000 C   0  0  0  0  0  0  0  0  0  0  0  0
    8.4482   -4.6777    0.0000 C   0  0  0  0  0  0  0  0  0  0  0  0
    6.3047   -5.0902    0.0000 C   0  0  0  0  0  0  0  0  0  0  0  0
    4.1613   -3.8527    0.0000 O   0  0  0  0  0  0  0  0  0  0  0  0
  8  1  1  0  0  0  0
  4  2  1  0  0  0  0
  4  3  2  0  0  0  0
  5  4  1  0  0  0  0
  6  5  2  0  0  0  0
  7  6  1  0  0  0  0
  8  7  2  0  0  0  0
  9  8  1  0  0  0  0
  3 10  1  0  0  0  0
  2 11  2  0  0  0  0
M  END
>  <cdx:fragmentId>
31495

$$$$
