91910.cdx
  Mrv1902 05222410282D          

 11 10  0  0  0  0            999 V2000
    9.3026   -7.3287    0.0000 O   0  0  0  0  0  0  0  0  0  0  0  0
    8.5881   -6.9162    0.0000 C   0  0  0  0  0  0  0  0  0  0  0  0
    7.8736   -7.3287    0.0000 C   0  0  0  0  0  0  0  0  0  0  0  0
    7.1592   -6.9162    0.0000 C   0  0  0  0  0  0  0  0  0  0  0  0
    6.4447   -7.3287    0.0000 C   0  0  0  0  0  0  0  0  0  0  0  0
    5.7302   -6.9162    0.0000 C   0  0  0  0  0  0  0  0  0  0  0  0
    5.0157   -7.3287    0.0000 C   0  0  0  0  0  0  0  0  0  0  0  0
    4.3013   -6.9162    0.0000 C   0  0  0  0  0  0  0  0  0  0  0  0
    8.5881   -6.0912    0.0000 O   0  0  0  0  0  0  0  0  0  0  0  0
    7.8736   -8.1538    0.0000 C   0  0  0  0  0  0  0  0  0  0  0  0
    7.1592   -8.5663    0.0000 C   0  0  0  0  0  0  0  0  0  0  0  0
  2  1  1  0  0  0  0
  3  2  1  0  0  0  0
  4  3  1  0  0  0  0
  5  4  1  0  0  0  0
  6  5  1  0  0  0  0
  7  6  1  0  0  0  0
  8  7  1  0  0  0  0
  2  9  2  0  0  0  0
  3 10  1  0  0  0  0
 10 11  1  0  0  0  0
M  END
>  <cdx:fragmentId>
3

$$$$
