91919.cdx
  Mrv1902 05222410202D          

 18 17  0  0  0  0            999 V2000
   12.6528   -6.9162    0.0000 C   0  0  0  0  0  0  0  0  0  0  0  0
   11.9383   -7.3287    0.0000 C   0  0  0  0  0  0  0  0  0  0  0  0
   11.2239   -6.9162    0.0000 C   0  0  0  0  0  0  0  0  0  0  0  0
   10.5094   -7.3287    0.0000 C   0  0  0  0  0  0  0  0  0  0  0  0
    9.7949   -6.9162    0.0000 C   0  0  0  0  0  0  0  0  0  0  0  0
    9.0805   -7.3287    0.0000 C   0  0  0  0  0  0  0  0  0  0  0  0
    8.3660   -6.9162    0.0000 C   0  0  0  0  0  0  0  0  0  0  0  0
    7.6515   -7.3287    0.0000 C   0  0  0  0  0  0  0  0  0  0  0  0
    6.9370   -6.9162    0.0000 C   0  0  0  0  0  0  0  0  0  0  0  0
    6.2226   -7.3287    0.0000 C   0  0  0  0  0  0  0  0  0  0  0  0
    5.5081   -6.9162    0.0000 C   0  0  0  0  0  0  0  0  0  0  0  0
    4.7936   -7.3287    0.0000 C   0  0  0  0  0  0  0  0  0  0  0  0
    4.0792   -6.9162    0.0000 C   0  0  0  0  0  0  0  0  0  0  0  0
    3.3647   -7.3287    0.0000 C   0  0  0  0  0  0  0  0  0  0  0  0
    2.6502   -6.9162    0.0000 C   0  0  0  0  0  0  0  0  0  0  0  0
    1.9357   -7.3287    0.0000 C   0  0  0  0  0  0  0  0  0  0  0  0
    1.2213   -6.9162    0.0000 C   0  0  0  0  0  0  0  0  0  0  0  0
    1.9357   -8.1538    0.0000 O   0  0  0  0  0  0  0  0  0  0  0  0
  2  1  1  0  0  0  0
  3  2  1  0  0  0  0
  4  3  1  0  0  0  0
  5  4  1  0  0  0  0
  6  5  1  0  0  0  0
  7  6  1  0  0  0  0
  8  7  1  0  0  0  0
  9  8  1  0  0  0  0
 10  9  1  0  0  0  0
 11 10  1  0  0  0  0
 12 11  1  0  0  0  0
 13 12  1  0  0  0  0
 14 13  1  0  0  0  0
 15 14  1  0  0  0  0
 16 15  1  0  0  0  0
 17 16  1  0  0  0  0
 16 18  2  0  0  0  0
M  END
>  <cdx:fragmentId>
3

$$$$
