91916.cdx
  Mrv1902 05222410272D          

 16 16  0  0  0  0            999 V2000
    5.9984   -8.2617    0.0000 C   0  0  0  0  0  0  0  0  0  0  0  0
    6.2691   -9.0410    0.0000 C   0  0  0  0  0  0  0  0  0  0  0  0
    7.0940   -9.0243    0.0000 C   0  0  0  0  0  0  0  0  0  0  0  0
    7.3330   -8.2347    0.0000 C   0  0  0  0  0  0  0  0  0  0  0  0
    6.6559   -7.7634    0.0000 N   0  0  0  0  0  0  0  0  0  0  0  0
    6.6392   -6.9386    0.0000 C   0  0  0  0  0  0  0  0  0  0  0  0
    5.9247   -6.5261    0.0000 C   0  0  0  0  0  0  0  0  0  0  0  0
    5.2103   -6.9386    0.0000 C   0  0  0  0  0  0  0  0  0  0  0  0
    4.4958   -6.5261    0.0000 C   0  0  0  0  0  0  0  0  0  0  0  0
    3.7813   -6.9386    0.0000 O   0  0  0  0  0  0  0  0  0  0  0  0
    4.4958   -5.7011    0.0000 O   0  0  0  0  0  0  0  0  0  0  0  0
    5.2088   -8.0227    0.0000 C   0  0  0  0  0  0  0  0  0  0  0  0
    4.6070   -8.5870    0.0000 H   0  0  0  0  0  0  0  0  0  0  0  0
    5.0210   -7.2193    0.0000 O   0  0  0  0  0  0  0  0  0  0  0  0
    8.1123   -7.9640    0.0000 C   0  0  0  0  0  0  0  0  0  0  0  0
    8.7364   -8.5035    0.0000 O   0  0  0  0  0  0  0  0  0  0  0  0
  1  2  2  0  0  0  0
  2  3  1  0  0  0  0
  3  4  2  0  0  0  0
  4  5  1  0  0  0  0
  5  1  1  0  0  0  0
  5  6  1  0  0  0  0
  6  7  1  0  0  0  0
  7  8  1  0  0  0  0
  8  9  1  0  0  0  0
  9 10  1  0  0  0  0
  9 11  2  0  0  0  0
  1 12  1  0  0  0  0
 12 13  1  0  0  0  0
 12 14  2  0  0  0  0
  4 15  1  0  0  0  0
 15 16  1  0  0  0  0
M  END
>  <cdx:fragmentId>
5

$$$$
