91914.cdx
  Mrv1902 05222410262D          

 16 16  0  0  0  0            999 V2000
    5.8143   -9.9275    0.0000 C   0  0  0  0  0  0  0  0  0  0  0  0
    5.8143  -10.7525    0.0000 C   0  0  0  0  0  0  0  0  0  0  0  0
    6.5288  -11.1650    0.0000 C   0  0  0  0  0  0  0  0  0  0  0  0
    7.2432  -10.7525    0.0000 C   0  0  0  0  0  0  0  0  0  0  0  0
    7.2432   -9.9275    0.0000 C   0  0  0  0  0  0  0  0  0  0  0  0
    6.5288   -9.5150    0.0000 C   0  0  0  0  0  0  0  0  0  0  0  0
    6.5288  -11.9900    0.0000 O   0  0  0  0  0  0  0  0  0  0  0  0
    5.0998  -11.1650    0.0000 O   0  0  0  0  0  0  0  0  0  0  0  0
    5.0998   -9.5150    0.0000 F   0  0  0  0  0  0  0  0  0  0  0  0
    6.5288   -8.6900    0.0000 C   0  0  0  0  0  0  0  0  0  0  0  0
    5.8143   -8.2775    0.0000 O   0  0  0  0  0  0  0  0  0  0  0  0
    7.2432   -8.2775    0.0000 C   0  0  0  0  0  0  0  0  0  0  0  0
    7.2432   -7.4525    0.0000 N   0  0  0  0  0  0  0  0  0  0  0  0
    7.9577   -7.0400    0.0000 C   0  0  0  0  0  0  0  0  0  0  0  0
    7.9577   -6.2150    0.0000 C   0  0  0  0  0  0  0  0  0  0  0  0
    8.6722   -7.4525    0.0000 C   0  0  0  0  0  0  0  0  0  0  0  0
  1  2  2  0  0  0  0
  2  3  1  0  0  0  0
  3  4  2  0  0  0  0
  4  5  1  0  0  0  0
  5  6  2  0  0  0  0
  6  1  1  0  0  0  0
  3  7  1  0  0  0  0
  2  8  1  0  0  0  0
  1  9  1  0  0  0  0
  6 10  1  0  0  0  0
 10 11  1  0  0  0  0
 10 12  1  0  0  0  0
 12 13  1  0  0  0  0
 13 14  1  0  0  0  0
 14 15  1  0  0  0  0
 14 16  1  0  0  0  0
M  END
>  <cdx:fragmentId>
5

$$$$
