91913.cdx
  Mrv1902 05222410272D          

 18 19  0  0  0  0            999 V2000
    5.5554   -8.2500    0.0000 C   0  0  0  0  0  0  0  0  0  0  0  0
    6.2698   -7.8375    0.0000 C   0  0  0  0  0  0  0  0  0  0  0  0
    6.2698   -7.0125    0.0000 C   0  0  0  0  0  0  0  0  0  0  0  0
    5.5554   -9.0750    0.0000 O   0  0  0  0  0  0  0  0  0  0  0  0
    4.8409   -7.8375    0.0000 O   0  0  0  0  0  0  0  0  0  0  0  0
    7.6988   -7.8375    0.0000 C   0  0  0  0  0  0  0  0  0  0  0  0
    6.9843   -8.2500    0.0000 C   0  0  0  0  0  0  0  0  0  0  0  0
    6.9843   -9.0750    0.0000 C   0  0  0  0  0  0  0  0  0  0  0  0
    7.6988   -9.4875    0.0000 C   0  0  0  0  0  0  0  0  0  0  0  0
    8.4133   -9.0750    0.0000 C   0  0  0  0  0  0  0  0  0  0  0  0
    9.1277   -9.4875    0.0000 C   0  0  0  0  0  0  0  0  0  0  0  0
    9.8422   -9.0750    0.0000 C   0  0  0  0  0  0  0  0  0  0  0  0
    9.8422   -8.2500    0.0000 C   0  0  0  0  0  0  0  0  0  0  0  0
    9.1277   -7.8375    0.0000 C   0  0  0  0  0  0  0  0  0  0  0  0
    8.4133   -8.2500    0.0000 C   0  0  0  0  0  0  0  0  0  0  0  0
    9.1277   -7.0125    0.0000 C   0  0  0  0  0  0  0  0  0  0  0  0
    8.4133   -9.9000    0.0000 C   0  0  0  0  0  0  0  0  0  0  0  0
    6.2698   -9.4875    0.0000 O   0  0  0  0  0  0  0  0  0  0  0  0
  1  2  1  0  0  0  0
  2  3  1  0  0  0  0
  1  4  2  0  0  0  0
  1  5  1  0  0  0  0
  6  7  1  0  0  0  0
  7  8  1  0  0  0  0
  8  9  1  0  0  0  0
  9 10  1  0  0  0  0
 10 11  1  0  0  0  0
 11 12  1  0  0  0  0
 12 13  1  0  0  0  0
 13 14  1  0  0  0  0
 14 15  1  0  0  0  0
  6 15  1  0  0  0  0
 10 15  1  0  0  0  0
 14 16  2  0  0  0  0
 10 17  1  0  0  0  0
  8 18  1  0  0  0  0
  2  7  2  0  0  0  0
M  END
>  <cdx:fragmentId>
15

$$$$
