91924.cdx
  Mrv1902 05222410202D          

  7  6  0  0  0  0            999 V2000
    9.4136   -6.8200    0.0000 C   0  0  0  0  0  0  0  0  0  0  0  0
    8.6992   -6.4075    0.0000 C   0  0  0  0  0  0  0  0  0  0  0  0
    7.9847   -6.8200    0.0000 C   0  0  0  0  0  0  0  0  0  0  0  0
    7.2702   -6.4075    0.0000 C   0  0  0  0  0  0  0  0  0  0  0  0
    6.5557   -6.8200    0.0000 C   0  0  0  0  0  0  0  0  0  0  0  0
    5.8413   -6.4075    0.0000 O   0  0  0  0  0  0  0  0  0  0  0  0
    6.5557   -7.6450    0.0000 C   0  0  0  0  0  0  0  0  0  0  0  0
  2  1  1  0  0  0  0
  3  2  1  0  0  0  0
  4  3  1  0  0  0  0
  5  4  1  0  0  0  0
  6  5  1  0  0  0  0
  5  7  1  0  0  0  0
M  END
>  <cdx:fragmentId>
3

$$$$
