91929.cdx
  Mrv1902 05222410262D          

 19 21  0  0  0  0            999 V2000
    4.0956   -6.6137    0.0000 C   0  0  0  0  0  0  0  0  0  0  0  0
    4.0956   -7.4387    0.0000 C   0  0  0  0  0  0  0  0  0  0  0  0
    4.8100   -7.8513    0.0000 C   0  0  0  0  0  0  0  0  0  0  0  0
    5.5245   -7.4387    0.0000 C   0  0  0  0  0  0  0  0  0  0  0  0
    5.5245   -6.6137    0.0000 C   0  0  0  0  0  0  0  0  0  0  0  0
    4.8100   -6.2012    0.0000 C   0  0  0  0  0  0  0  0  0  0  0  0
    6.2390   -7.8513    0.0000 C   0  0  0  0  0  0  0  0  0  0  0  0
    6.9534   -7.4387    0.0000 C   0  0  0  0  0  0  0  0  0  0  0  0
    6.9534   -6.6137    0.0000 C   0  0  0  0  0  0  0  0  0  0  0  0
    6.2390   -6.2012    0.0000 C   0  0  0  0  0  0  0  0  0  0  0  0
    7.6679   -7.8513    0.0000 C   0  0  0  0  0  0  0  0  0  0  0  0
    8.3824   -7.4387    0.0000 C   0  0  0  0  0  0  0  0  0  0  0  0
    8.3824   -6.6137    0.0000 C   0  0  0  0  0  0  0  0  0  0  0  0
    7.6679   -6.2012    0.0000 C   0  0  0  0  0  0  0  0  0  0  0  0
    6.2390   -5.3763    0.0000 O   0  0  0  0  0  0  0  0  0  0  0  0
    6.2390   -8.6762    0.0000 O   0  0  0  0  0  0  0  0  0  0  0  0
    9.0969   -6.2012    0.0000 C   0  0  0  0  0  0  0  0  0  0  0  0
    7.6679   -5.3763    0.0000 O   0  0  0  0  0  0  0  0  0  0  0  0
    9.8113   -6.6137    0.0000 O   0  0  0  0  0  0  0  0  0  0  0  0
  1  2  2  0  0  0  0
  2  3  1  0  0  0  0
  3  4  2  0  0  0  0
  4  5  1  0  0  0  0
  5  6  2  0  0  0  0
  6  1  1  0  0  0  0
  4  7  1  0  0  0  0
  7  8  1  0  0  0  0
  8  9  2  0  0  0  0
  9 10  1  0  0  0  0
 10  5  1  0  0  0  0
  8 11  1  0  0  0  0
 11 12  2  0  0  0  0
 12 13  1  0  0  0  0
 13 14  2  0  0  0  0
 14  9  1  0  0  0  0
 10 15  2  0  0  0  0
  7 16  2  0  0  0  0
 13 17  1  0  0  0  0
 14 18  1  0  0  0  0
 17 19  1  0  0  0  0
M  END
>  <cdx:fragmentId>
5

$$$$
