91927.cdx
  Mrv1902 05222410192D          

  7  6  0  0  0  0            999 V2000
    4.3288   -8.1263    0.0000 O   0  0  0  0  0  0  0  0  0  0  0  0
    5.0432   -8.5388    0.0000 C   0  0  0  0  0  0  0  0  0  0  0  0
    5.7577   -8.1263    0.0000 C   0  0  0  0  0  0  0  0  0  0  0  0
    6.4722   -7.7138    0.0000 C   0  0  0  0  0  0  0  0  0  0  0  0
    7.1867   -7.3012    0.0000 C   0  0  0  0  0  0  0  0  0  0  0  0
    7.9011   -7.7138    0.0000 C   0  0  0  0  0  0  0  0  0  0  0  0
    8.6156   -7.3012    0.0000 C   0  0  0  0  0  0  0  0  0  0  0  0
  1  2  1  0  0  0  0
  2  3  1  0  0  0  0
  3  4  3  0  0  0  0
  4  5  1  0  0  0  0
  5  6  1  0  0  0  0
  6  7  1  0  0  0  0
M  END
>  <cdx:fragmentId>
3

$$$$
