91925.cdx
  Mrv1902 05222410202D          

 23 22  0  0  0  0            999 V2000
    0.7448   -7.2224    0.0000 O   0  0  0  0  0  0  0  0  0  0  0  0
   12.1763   -7.2224    0.0000 C   0  0  0  0  0  0  0  0  0  0  0  0
   11.4618   -8.4599    0.0000 C   0  0  0  0  0  0  0  0  0  0  0  0
   11.4618   -7.6349    0.0000 C   0  0  0  0  0  0  0  0  0  0  0  0
   10.7474   -7.2224    0.0000 C   0  0  0  0  0  0  0  0  0  0  0  0
   10.0329   -7.6349    0.0000 C   0  0  0  0  0  0  0  0  0  0  0  0
    9.3184   -7.2224    0.0000 C   0  0  0  0  0  0  0  0  0  0  0  0
    8.6040   -8.4599    0.0000 C   0  0  0  0  0  0  0  0  0  0  0  0
    8.6040   -7.6349    0.0000 C   0  0  1  0  0  0  0  0  0  0  0  0
    7.8895   -7.2224    0.0000 C   0  0  0  0  0  0  0  0  0  0  0  0
    7.1750   -7.6349    0.0000 C   0  0  0  0  0  0  0  0  0  0  0  0
    6.4605   -7.2224    0.0000 C   0  0  0  0  0  0  0  0  0  0  0  0
    5.7461   -8.4599    0.0000 C   0  0  0  0  0  0  0  0  0  0  0  0
    5.7461   -7.6349    0.0000 C   0  0  1  0  0  0  0  0  0  0  0  0
    5.0316   -7.2224    0.0000 C   0  0  0  0  0  0  0  0  0  0  0  0
    4.3171   -7.6349    0.0000 C   0  0  0  0  0  0  0  0  0  0  0  0
    3.6027   -7.2224    0.0000 C   0  0  0  0  0  0  0  0  0  0  0  0
    2.8882   -8.4599    0.0000 C   0  0  0  0  0  0  0  0  0  0  0  0
    2.8882   -7.6349    0.0000 C   0  0  0  0  0  0  0  0  0  0  0  0
    2.1737   -7.2224    0.0000 C   0  0  0  0  0  0  0  0  0  0  0  0
    1.4593   -7.6349    0.0000 C   0  0  0  0  0  0  0  0  0  0  0  0
   12.8908   -7.6349    0.0000 C   0  0  0  0  0  0  0  0  0  0  0  0
   13.6053   -7.2224    0.0000 C   0  0  0  0  0  0  0  0  0  0  0  0
 21  1  1  0  0  0  0
  4  2  1  0  0  0  0
  4  3  1  0  0  0  0
  5  4  1  0  0  0  0
  6  5  1  0  0  0  0
  7  6  1  0  0  0  0
  9  7  1  0  0  0  0
  9  8  1  1  0  0  0
 10  9  1  0  0  0  0
 11 10  1  0  0  0  0
 12 11  1  0  0  0  0
 14 12  1  0  0  0  0
 14 13  1  1  0  0  0
 15 14  1  0  0  0  0
 16 15  1  0  0  0  0
 17 16  1  0  0  0  0
 19 17  1  0  0  0  0
 19 18  1  0  0  0  0
 20 19  2  0  0  0  0
 21 20  1  0  0  0  0
  2 22  1  0  0  0  0
 22 23  1  0  0  0  0
M  END
>  <cdx:fragmentId>
9105

$$$$
