91920.cdx
  Mrv1902 05222410182D          

  8  7  0  0  0  0            999 V2000
    9.1106   -6.0912    0.0000 C   0  0  0  0  0  0  0  0  0  0  0  0
    8.3961   -6.5038    0.0000 C   0  0  0  0  0  0  0  0  0  0  0  0
    7.6817   -6.0912    0.0000 C   0  0  0  0  0  0  0  0  0  0  0  0
    6.9672   -6.5038    0.0000 C   0  0  0  0  0  0  0  0  0  0  0  0
    6.2527   -6.0912    0.0000 C   0  0  0  0  0  0  0  0  0  0  0  0
    5.5382   -6.5038    0.0000 C   0  0  0  0  0  0  0  0  0  0  0  0
    4.8238   -6.0912    0.0000 O   0  0  0  0  0  0  0  0  0  0  0  0
    5.5382   -7.3287    0.0000 C   0  0  0  0  0  0  0  0  0  0  0  0
  2  1  1  0  0  0  0
  3  2  1  0  0  0  0
  4  3  1  0  0  0  0
  5  4  1  0  0  0  0
  6  5  1  0  0  0  0
  7  6  1  0  0  0  0
  6  8  1  0  0  0  0
M  END
>  <cdx:fragmentId>
3

$$$$
