91921.cdx
  Mrv1902 05222410182D          

  7  6  0  0  0  0            999 V2000
    8.9731   -6.5175    0.0000 C   0  0  0  0  0  0  0  0  0  0  0  0
    8.2586   -6.9300    0.0000 C   0  0  0  0  0  0  0  0  0  0  0  0
    7.5442   -6.5175    0.0000 C   0  0  0  0  0  0  0  0  0  0  0  0
    6.8297   -6.9300    0.0000 C   0  0  0  0  0  0  0  0  0  0  0  0
    6.1152   -6.5175    0.0000 C   0  0  0  0  0  0  0  0  0  0  0  0
    5.4007   -6.9300    0.0000 C   0  0  0  0  0  0  0  0  0  0  0  0
    4.6863   -6.5175    0.0000 C   0  0  0  0  0  0  0  0  0  0  0  0
  2  1  1  0  0  0  0
  3  2  1  0  0  0  0
  4  3  1  0  0  0  0
  5  4  1  0  0  0  0
  6  5  2  0  0  0  0
  7  6  1  0  0  0  0
M  END
>  <cdx:fragmentId>
3

$$$$
