91923.cdx
  Mrv1902 05222410192D          

 21 20  0  0  0  0            999 V2000
    1.4598   -6.7274    0.0000 O   0  0  0  0  0  0  0  0  0  0  0  0
   12.8913   -6.7274    0.0000 C   0  0  0  0  0  0  0  0  0  0  0  0
   12.1768   -7.9649    0.0000 C   0  0  0  0  0  0  0  0  0  0  0  0
   12.1768   -7.1399    0.0000 C   0  0  0  0  0  0  0  0  0  0  0  0
   11.4624   -6.7274    0.0000 C   0  0  0  0  0  0  0  0  0  0  0  0
   10.7479   -7.1399    0.0000 C   0  0  0  0  0  0  0  0  0  0  0  0
   10.0334   -6.7274    0.0000 C   0  0  0  0  0  0  0  0  0  0  0  0
    9.3190   -7.9649    0.0000 C   0  0  0  0  0  0  0  0  0  0  0  0
    9.3190   -7.1399    0.0000 C   0  0  1  0  0  0  0  0  0  0  0  0
    8.6045   -6.7274    0.0000 C   0  0  0  0  0  0  0  0  0  0  0  0
    7.8900   -7.1399    0.0000 C   0  0  0  0  0  0  0  0  0  0  0  0
    7.1755   -6.7274    0.0000 C   0  0  0  0  0  0  0  0  0  0  0  0
    6.4611   -7.9649    0.0000 C   0  0  0  0  0  0  0  0  0  0  0  0
    6.4611   -7.1399    0.0000 C   0  0  1  0  0  0  0  0  0  0  0  0
    5.7466   -6.7274    0.0000 C   0  0  0  0  0  0  0  0  0  0  0  0
    5.0321   -7.1399    0.0000 C   0  0  0  0  0  0  0  0  0  0  0  0
    4.3177   -6.7274    0.0000 C   0  0  0  0  0  0  0  0  0  0  0  0
    3.6032   -7.9649    0.0000 C   0  0  0  0  0  0  0  0  0  0  0  0
    3.6032   -7.1399    0.0000 C   0  0  0  0  0  0  0  0  0  0  0  0
    2.8887   -6.7274    0.0000 C   0  0  0  0  0  0  0  0  0  0  0  0
    2.1743   -7.1399    0.0000 C   0  0  0  0  0  0  0  0  0  0  0  0
 21  1  1  0  0  0  0
  4  2  1  0  0  0  0
  4  3  1  0  0  0  0
  5  4  1  0  0  0  0
  6  5  1  0  0  0  0
  7  6  1  0  0  0  0
  9  7  1  0  0  0  0
  9  8  1  1  0  0  0
 10  9  1  0  0  0  0
 11 10  1  0  0  0  0
 12 11  1  0  0  0  0
 14 12  1  0  0  0  0
 14 13  1  1  0  0  0
 15 14  1  0  0  0  0
 16 15  1  0  0  0  0
 17 16  1  0  0  0  0
 19 17  1  0  0  0  0
 19 18  1  0  0  0  0
 20 19  2  0  0  0  0
 21 20  1  0  0  0  0
M  END
>  <cdx:fragmentId>
9105

$$$$
