91926.cdx
  Mrv1902 05222410192D          

  8  7  0  0  0  0            999 V2000
    9.3581   -6.4625    0.0000 C   0  0  0  0  0  0  0  0  0  0  0  0
    8.6436   -6.8750    0.0000 C   0  0  0  0  0  0  0  0  0  0  0  0
    7.9292   -6.4625    0.0000 C   0  0  0  0  0  0  0  0  0  0  0  0
    7.2147   -6.8750    0.0000 C   0  0  0  0  0  0  0  0  0  0  0  0
    6.5002   -6.4625    0.0000 C   0  0  0  0  0  0  0  0  0  0  0  0
    5.7857   -6.8750    0.0000 C   0  0  0  0  0  0  0  0  0  0  0  0
    5.0713   -6.4625    0.0000 O   0  0  0  0  0  0  0  0  0  0  0  0
    5.7857   -7.7000    0.0000 O   0  0  0  0  0  0  0  0  0  0  0  0
  2  1  1  0  0  0  0
  3  2  1  0  0  0  0
  4  3  1  0  0  0  0
  5  4  2  0  0  0  0
  6  5  1  0  0  0  0
  7  6  1  0  0  0  0
  6  8  2  0  0  0  0
M  END
>  <cdx:fragmentId>
3

$$$$
