91928.cdx
  Mrv1902 05222410262D          

 23 23  0  0  0  0            999 V2000
    3.7322   -8.4489    0.0000 C   0  0  0  0  0  0  0  0  0  0  0  0
    3.0121   -8.8514    0.0000 C   0  0  0  0  0  0  0  0  0  0  0  0
    3.0007   -9.6764    0.0000 C   0  0  0  0  0  0  0  0  0  0  0  0
    3.7094  -10.0987    0.0000 C   0  0  0  0  0  0  0  0  0  0  0  0
    4.4295   -9.6961    0.0000 C   0  0  0  0  0  0  0  0  0  0  0  0
    4.4409   -8.8712    0.0000 C   0  0  0  0  0  0  0  0  0  0  0  0
    2.2806  -10.0790    0.0000 O   0  0  0  0  0  0  0  0  0  0  0  0
    2.3034   -8.4291    0.0000 O   0  0  0  0  0  0  0  0  0  0  0  0
    1.5774   -8.8209    0.0000 C   0  0  0  0  0  0  0  0  0  0  0  0
    5.1610   -8.4686    0.0000 C   0  0  0  0  0  0  0  0  0  0  0  0
    5.8697   -8.8909    0.0000 C   0  0  0  0  0  0  0  0  0  0  0  0
    6.5898   -8.4883    0.0000 C   0  0  0  0  0  0  0  0  0  0  0  0
    5.8583   -9.7158    0.0000 O   0  0  0  0  0  0  0  0  0  0  0  0
    6.6012   -7.6634    0.0000 O   0  0  0  0  0  0  0  0  0  0  0  0
    7.2985   -8.9106    0.0000 C   0  0  0  0  0  0  0  0  0  0  0  0
    8.0186   -8.5080    0.0000 C   0  0  0  0  0  0  0  0  0  0  0  0
    8.7273   -8.9304    0.0000 C   0  0  0  0  0  0  0  0  0  0  0  0
    9.4474   -8.5278    0.0000 C   0  0  0  0  0  0  0  0  0  0  0  0
   10.1561   -8.9501    0.0000 C   0  0  0  0  0  0  0  0  0  0  0  0
   10.8762   -8.5475    0.0000 C   0  0  0  0  0  0  0  0  0  0  0  0
   11.5849   -8.9698    0.0000 C   0  0  0  0  0  0  0  0  0  0  0  0
   12.3050   -8.5672    0.0000 C   0  0  0  0  0  0  0  0  0  0  0  0
   13.0137   -8.9896    0.0000 C   0  0  0  0  0  0  0  0  0  0  0  0
  1  2  2  0  0  0  0
  2  3  1  0  0  0  0
  3  4  2  0  0  0  0
  4  5  1  0  0  0  0
  5  6  2  0  0  0  0
  6  1  1  0  0  0  0
  3  7  1  0  0  0  0
  2  8  1  0  0  0  0
  8  9  1  0  0  0  0
  6 10  1  0  0  0  0
 10 11  1  0  0  0  0
 11 12  1  0  0  0  0
 11 13  1  0  0  0  0
 12 14  2  0  0  0  0
 12 15  1  0  0  0  0
 15 16  1  0  0  0  0
 16 17  1  0  0  0  0
 17 18  1  0  0  0  0
 18 19  1  0  0  0  0
 19 20  1  0  0  0  0
 20 21  1  0  0  0  0
 21 22  1  0  0  0  0
 22 23  1  0  0  0  0
M  END
>  <cdx:fragmentId>
5

$$$$
