91935.cdx
  Mrv1902 05222410182D          

  8  8  0  0  0  0            999 V2000
    5.8230   -7.2997    0.0000 C   0  0  0  0  0  0  0  0  0  0  0  0
    6.0797   -8.0838    0.0000 C   0  0  0  0  0  0  0  0  0  0  0  0
    6.9047   -8.0819    0.0000 C   0  0  0  0  0  0  0  0  0  0  0  0
    7.1579   -7.2968    0.0000 C   0  0  0  0  0  0  0  0  0  0  0  0
    6.4894   -6.8133    0.0000 C   0  0  0  0  0  0  0  0  0  0  0  0
    5.0378   -7.0465    0.0000 C   0  0  0  0  0  0  0  0  0  0  0  0
    6.4875   -5.9883    0.0000 O   0  0  0  0  0  0  0  0  0  0  0  0
    7.9419   -7.0401    0.0000 O   0  0  0  0  0  0  0  0  0  0  0  0
  1  2  1  0  0  0  0
  2  3  1  0  0  0  0
  3  4  1  0  0  0  0
  4  5  1  0  0  0  0
  5  1  2  0  0  0  0
  1  6  1  0  0  0  0
  5  7  1  0  0  0  0
  4  8  2  0  0  0  0
M  END
>  <cdx:fragmentId>
5

$$$$
