91938.cdx
  Mrv1902 05222410282D          

 16 16  0  0  0  0            999 V2000
    3.8068   -6.1600    0.0000 C   0  0  0  0  0  0  0  0  0  0  0  0
    3.8068   -6.9850    0.0000 C   0  0  0  0  0  0  0  0  0  0  0  0
    4.5213   -7.3975    0.0000 C   0  0  0  0  0  0  0  0  0  0  0  0
    5.2357   -6.9850    0.0000 C   0  0  0  0  0  0  0  0  0  0  0  0
    5.2357   -6.1600    0.0000 C   0  0  0  0  0  0  0  0  0  0  0  0
    4.5213   -5.7475    0.0000 O   0  0  0  0  0  0  0  0  0  0  0  0
    5.9502   -7.3975    0.0000 C   0  0  0  0  0  0  0  0  0  0  0  0
    6.6647   -6.9850    0.0000 C   0  0  0  0  0  0  0  0  0  0  0  0
    5.9502   -5.7475    0.0000 O   0  0  0  0  0  0  0  0  0  0  0  0
    7.3792   -7.3975    0.0000 C   0  0  0  0  0  0  0  0  0  0  0  0
    8.0936   -6.9850    0.0000 C   0  0  0  0  0  0  0  0  0  0  0  0
    8.0936   -6.1600    0.0000 C   0  0  0  0  0  0  0  0  0  0  0  0
    3.0923   -5.7475    0.0000 C   0  0  0  0  0  0  0  0  0  0  0  0
    4.5213   -8.2225    0.0000 O   0  0  0  0  0  0  0  0  0  0  0  0
    5.9502   -8.2225    0.0000 O   0  0  0  0  0  0  0  0  0  0  0  0
    8.8081   -7.3975    0.0000 C   0  0  0  0  0  0  0  0  0  0  0  0
  1  2  2  0  0  0  0
  2  3  1  0  0  0  0
  3  4  1  0  0  0  0
  4  5  2  0  0  0  0
  5  6  1  0  0  0  0
  6  1  1  0  0  0  0
  4  7  1  0  0  0  0
  7  8  1  0  0  0  0
  9  5  1  0  0  0  0
  8 10  1  0  0  0  0
 10 11  1  0  0  0  0
 11 12  1  0  0  0  0
  1 13  1  0  0  0  0
  3 14  2  0  0  0  0
  7 15  2  0  0  0  0
 11 16  1  0  0  0  0
M  END
>  <cdx:fragmentId>
5

$$$$
