91932.cdx
  Mrv1902 05222410192D          

 12 12  0  0  0  0            999 V2000
    5.3307   -7.3829    0.0000 C   0  0  0  0  0  0  0  0  0  0  0  0
    6.0445   -7.7965    0.0000 C   0  0  0  0  0  0  0  0  0  0  0  0
    6.7596   -7.3851    0.0000 C   0  0  0  0  0  0  0  0  0  0  0  0
    6.7608   -6.5601    0.0000 C   0  0  0  0  0  0  0  0  0  0  0  0
    6.0470   -6.1465    0.0000 C   0  0  0  0  0  0  0  0  0  0  0  0
    5.3319   -6.5579    0.0000 C   0  0  0  0  0  0  0  0  0  0  0  0
    4.6180   -6.1444    0.0000 O   0  0  0  0  0  0  0  0  0  0  0  0
    4.6156   -7.7944    0.0000 O   0  0  0  0  0  0  0  0  0  0  0  0
    7.4759   -6.1486    0.0000 C   0  0  0  0  0  0  0  0  0  0  0  0
    8.1898   -6.5622    0.0000 C   0  0  0  0  0  0  0  0  0  0  0  0
    8.9048   -6.1507    0.0000 O   0  0  0  0  0  0  0  0  0  0  0  0
    7.4771   -5.3236    0.0000 O   0  0  0  0  0  0  0  0  0  0  0  0
  1  2  2  0  0  0  0
  2  3  1  0  0  0  0
  3  4  2  0  0  0  0
  4  5  1  0  0  0  0
  5  6  2  0  0  0  0
  6  1  1  0  0  0  0
  6  7  1  0  0  0  0
  1  8  1  0  0  0  0
  4  9  1  0  0  0  0
  9 10  1  0  0  0  0
 10 11  1  0  0  0  0
  9 12  2  0  0  0  0
M  END
>  <cdx:fragmentId>
5

$$$$
