91933.cdx
  Mrv1902 05222410192D          

 19 21  0  0  0  0            999 V2000
    4.4806   -6.3525    0.0000 C   0  0  0  0  0  0  0  0  0  0  0  0
    4.4806   -7.1775    0.0000 C   0  0  0  0  0  0  0  0  0  0  0  0
    5.1950   -7.5900    0.0000 C   0  0  0  0  0  0  0  0  0  0  0  0
    5.9095   -7.1775    0.0000 C   0  0  0  0  0  0  0  0  0  0  0  0
    5.9095   -6.3525    0.0000 C   0  0  0  0  0  0  0  0  0  0  0  0
    5.1950   -5.9400    0.0000 C   0  0  0  0  0  0  0  0  0  0  0  0
    6.6240   -7.5900    0.0000 C   0  0  0  0  0  0  0  0  0  0  0  0
    7.3384   -7.1775    0.0000 C   0  0  0  0  0  0  0  0  0  0  0  0
    7.3384   -6.3525    0.0000 C   0  0  0  0  0  0  0  0  0  0  0  0
    6.6240   -5.9400    0.0000 C   0  0  0  0  0  0  0  0  0  0  0  0
    8.0529   -7.5900    0.0000 C   0  0  0  0  0  0  0  0  0  0  0  0
    8.7674   -7.1775    0.0000 C   0  0  0  0  0  0  0  0  0  0  0  0
    8.7674   -6.3525    0.0000 C   0  0  0  0  0  0  0  0  0  0  0  0
    8.0529   -5.9400    0.0000 C   0  0  0  0  0  0  0  0  0  0  0  0
    6.6240   -5.1150    0.0000 O   0  0  0  0  0  0  0  0  0  0  0  0
    6.6240   -8.4150    0.0000 O   0  0  0  0  0  0  0  0  0  0  0  0
    9.4819   -7.5900    0.0000 O   0  0  0  0  0  0  0  0  0  0  0  0
    9.4819   -5.9400    0.0000 C   0  0  0  0  0  0  0  0  0  0  0  0
   10.1963   -6.3525    0.0000 O   0  0  0  0  0  0  0  0  0  0  0  0
  1  2  1  0  0  0  0
  2  3  2  0  0  0  0
  3  4  1  0  0  0  0
  4  5  2  0  0  0  0
  5  6  1  0  0  0  0
  6  1  2  0  0  0  0
  4  7  1  0  0  0  0
  7  8  1  0  0  0  0
  8  9  2  0  0  0  0
  9 10  1  0  0  0  0
 10  5  1  0  0  0  0
  8 11  1  0  0  0  0
 11 12  2  0  0  0  0
 12 13  1  0  0  0  0
 13 14  2  0  0  0  0
 14  9  1  0  0  0  0
 10 15  2  0  0  0  0
  7 16  2  0  0  0  0
 12 17  1  0  0  0  0
 13 18  1  0  0  0  0
 18 19  1  0  0  0  0
M  END
>  <cdx:fragmentId>
5

$$$$
