91939.cdx
  Mrv1902 05222410282D          

 50 57  0  0  0  0            999 V2000
    4.9478  -10.8312    0.0000 C   0  0  0  0  0  0  0  0  0  0  0  0
    5.6622  -11.2437    0.0000 C   0  0  0  0  0  0  0  0  0  0  0  0
    5.6622  -12.0687    0.0000 C   0  0  0  0  0  0  0  0  0  0  0  0
    4.9478  -12.4812    0.0000 C   0  0  0  0  0  0  0  0  0  0  0  0
    4.2333  -11.2437    0.0000 C   0  0  0  0  0  0  0  0  0  0  0  0
    4.2333  -12.0687    0.0000 C   0  0  0  0  0  0  0  0  0  0  0  0
    3.4487  -12.3236    0.0000 O   0  0  0  0  0  0  0  0  0  0  0  0
    2.9638  -11.6562    0.0000 C   0  0  0  0  0  0  0  0  0  0  0  0
    3.4487  -10.9888    0.0000 O   0  0  0  0  0  0  0  0  0  0  0  0
    7.5429  -11.4312    0.0000 C   0  0  0  0  0  0  0  0  0  0  0  0
    8.4361  -12.4232    0.0000 C   0  0  1  0  0  0  0  0  0  0  0  0
    8.3499  -11.6027    0.0000 O   0  0  0  0  0  0  0  0  0  0  0  0
    6.3767  -12.4812    0.0000 C   0  0  1  0  0  0  0  0  0  0  0  0
    7.1304  -12.1457    0.0000 C   0  0  2  0  0  0  0  0  0  0  0  0
    7.6824  -12.7587    0.0000 C   0  0  2  0  0  0  0  0  0  0  0  0
    7.2699  -13.4732    0.0000 C   0  0  0  0  0  0  0  0  0  0  0  0
    6.4630  -13.3017    0.0000 O   0  0  0  0  0  0  0  0  0  0  0  0
    9.8650  -14.0732    0.0000 C   0  0  0  0  0  0  0  0  0  0  0  0
    9.1506  -13.6607    0.0000 C   0  0  0  0  0  0  0  0  0  0  0  0
    9.1506  -12.8357    0.0000 C   0  0  0  0  0  0  0  0  0  0  0  0
    9.8650  -12.4232    0.0000 C   0  0  0  0  0  0  0  0  0  0  0  0
   10.5795  -13.6607    0.0000 C   0  0  0  0  0  0  0  0  0  0  0  0
   10.5795  -12.8357    0.0000 C   0  0  0  0  0  0  0  0  0  0  0  0
   11.3641  -12.5807    0.0000 O   0  0  0  0  0  0  0  0  0  0  0  0
   11.8491  -13.2482    0.0000 C   0  0  0  0  0  0  0  0  0  0  0  0
   11.3641  -13.9156    0.0000 O   0  0  0  0  0  0  0  0  0  0  0  0
    6.5470  -11.5623    0.0000 H   0  0  0  0  0  0  0  0  0  0  0  0
    8.2658  -13.3421    0.0000 H   0  0  0  0  0  0  0  0  0  0  0  0
    6.3767  -10.8312    0.0000 O   0  0  0  0  0  0  0  0  0  0  0  0
    6.3767  -10.0062    0.0000 C   0  0  2  0  0  0  0  0  0  0  0  0
    7.0912   -9.5937    0.0000 O   0  0  0  0  0  0  0  0  0  0  0  0
    7.0912   -8.7687    0.0000 C   0  0  1  0  0  0  0  0  0  0  0  0
    6.3767   -8.3562    0.0000 C   0  0  2  0  0  0  0  0  0  0  0  0
    5.6622   -8.7687    0.0000 C   0  0  1  0  0  0  0  0  0  0  0  0
    5.6622   -9.5937    0.0000 C   0  0  1  0  0  0  0  0  0  0  0  0
    7.8057   -8.3562    0.0000 C   0  0  0  0  0  0  0  0  0  0  0  0
    7.8057   -7.5312    0.0000 O   0  0  0  0  0  0  0  0  0  0  0  0
    6.3767   -7.5312    0.0000 O   0  0  0  0  0  0  0  0  0  0  0  0
    4.9478   -8.3562    0.0000 O   0  0  0  0  0  0  0  0  0  0  0  0
    4.9478  -10.0062    0.0000 O   0  0  0  0  0  0  0  0  0  0  0  0
    8.5201   -7.1187    0.0000 C   0  0  2  0  0  0  0  0  0  0  0  0
    9.2346   -7.5312    0.0000 O   0  0  0  0  0  0  0  0  0  0  0  0
    9.9491   -7.1187    0.0000 C   0  0  2  0  0  0  0  0  0  0  0  0
    9.9491   -6.2937    0.0000 C   0  0  1  0  0  0  0  0  0  0  0  0
    9.2346   -5.8812    0.0000 C   0  0  2  0  0  0  0  0  0  0  0  0
    8.5201   -6.2937    0.0000 C   0  0  1  0  0  0  0  0  0  0  0  0
   10.6635   -5.8812    0.0000 O   0  0  0  0  0  0  0  0  0  0  0  0
   10.6635   -7.5312    0.0000 C   0  0  0  0  0  0  0  0  0  0  0  0
    9.2346   -5.0562    0.0000 O   0  0  0  0  0  0  0  0  0  0  0  0
    7.8057   -5.8812    0.0000 O   0  0  0  0  0  0  0  0  0  0  0  0
 11 20  1  6  0  0  0
 13  3  1  1  0  0  0
  6  4  2  0  0  0  0
  5  1  2  0  0  0  0
  2  1  1  0  0  0  0
  3  2  2  0  0  0  0
  4  3  1  0  0  0  0
  9  5  1  0  0  0  0
  6  5  1  0  0  0  0
  7  6  1  0  0  0  0
  8  7  1  0  0  0  0
  9  8  1  0  0  0  0
 14 10  1  0  0  0  0
 15 11  1  0  0  0  0
 12 10  1  0  0  0  0
 12 11  1  0  0  0  0
 17 13  1  0  0  0  0
 14 13  1  0  0  0  0
 15 14  1  0  0  0  0
 16 15  1  0  0  0  0
 17 16  1  0  0  0  0
 23 21  2  0  0  0  0
 22 18  2  0  0  0  0
 19 18  1  0  0  0  0
 20 19  2  0  0  0  0
 21 20  1  0  0  0  0
 26 22  1  0  0  0  0
 23 22  1  0  0  0  0
 24 23  1  0  0  0  0
 25 24  1  0  0  0  0
 26 25  1  0  0  0  0
 14 27  1  6  0  0  0
 15 28  1  6  0  0  0
  2 29  1  0  0  0  0
 30 29  1  1  0  0  0
 30 31  1  0  0  0  0
 31 32  1  0  0  0  0
 32 33  1  0  0  0  0
 33 34  1  0  0  0  0
 34 35  1  0  0  0  0
 35 30  1  0  0  0  0
 32 36  1  1  0  0  0
 36 37  1  0  0  0  0
 33 38  1  6  0  0  0
 34 39  1  1  0  0  0
 35 40  1  6  0  0  0
 41 37  1  1  0  0  0
 41 42  1  0  0  0  0
 42 43  1  0  0  0  0
 43 44  1  0  0  0  0
 44 45  1  0  0  0  0
 45 46  1  0  0  0  0
 46 41  1  0  0  0  0
 44 47  1  1  0  0  0
 43 48  1  6  0  0  0
 45 49  1  6  0  0  0
 46 50  1  6  0  0  0
M  END
>  <cdx:fragmentId>
43005

$$$$
