91937.cdx
  Mrv1902 05222410192D          

 10 10  0  0  0  0            999 V2000
    6.1718   -7.7275    0.0000 C   0  0  0  0  0  0  0  0  0  0  0  0
    6.1718   -8.5525    0.0000 C   0  0  0  0  0  0  0  0  0  0  0  0
    6.8863   -8.9650    0.0000 C   0  0  0  0  0  0  0  0  0  0  0  0
    7.6007   -8.5525    0.0000 C   0  0  0  0  0  0  0  0  0  0  0  0
    7.6007   -7.7275    0.0000 C   0  0  0  0  0  0  0  0  0  0  0  0
    6.8863   -7.3150    0.0000 C   0  0  0  0  0  0  0  0  0  0  0  0
    5.4573   -7.3150    0.0000 O   0  0  0  0  0  0  0  0  0  0  0  0
    8.3152   -8.9650    0.0000 C   0  0  0  0  0  0  0  0  0  0  0  0
    6.8863   -6.4900    0.0000 C   0  0  0  0  0  0  0  0  0  0  0  0
    7.6007   -6.0775    0.0000 O   0  0  0  0  0  0  0  0  0  0  0  0
  1  2  2  0  0  0  0
  2  3  1  0  0  0  0
  3  4  2  0  0  0  0
  4  5  1  0  0  0  0
  5  6  2  0  0  0  0
  6  1  1  0  0  0  0
  1  7  1  0  0  0  0
  4  8  1  0  0  0  0
  6  9  1  0  0  0  0
  9 10  2  0  0  0  0
M  END
>  <cdx:fragmentId>
5

$$$$
