91949.cdx
  Mrv1902 05222410242D          

  6  5  0  0  0  0            999 V2000
    5.9788   -6.7100    0.0000 C   0  0  0  0  0  0  0  0  0  0  0  0
    6.6932   -6.2975    0.0000 C   0  0  0  0  0  0  0  0  0  0  0  0
    7.4077   -6.7100    0.0000 C   0  0  0  0  0  0  0  0  0  0  0  0
    8.1222   -6.2975    0.0000 C   0  0  0  0  0  0  0  0  0  0  0  0
    8.8367   -6.7100    0.0000 O   0  0  0  0  0  0  0  0  0  0  0  0
    7.4077   -7.5350    0.0000 C   0  0  0  0  0  0  0  0  0  0  0  0
  1  2  1  0  0  0  0
  2  3  2  0  0  0  0
  3  4  1  0  0  0  0
  4  5  2  0  0  0  0
  3  6  1  0  0  0  0
M  END
>  <cdx:fragmentId>
3

$$$$
