91946.cdx
  Mrv1902 05222410232D          

 14 15  0  0  0  0            999 V2000
    5.1818   -7.0263    0.0000 C   0  0  0  0  0  0  0  0  0  0  0  0
    5.1818   -7.8513    0.0000 C   0  0  0  0  0  0  0  0  0  0  0  0
    5.8963   -8.2637    0.0000 C   0  0  0  0  0  0  0  0  0  0  0  0
    6.6107   -7.8513    0.0000 C   0  0  0  0  0  0  0  0  0  0  0  0
    6.6107   -7.0263    0.0000 C   0  0  0  0  0  0  0  0  0  0  0  0
    5.8963   -6.6137    0.0000 C   0  0  0  0  0  0  0  0  0  0  0  0
    7.3252   -8.2637    0.0000 C   0  0  0  0  0  0  0  0  0  0  0  0
    8.0397   -7.8513    0.0000 C   0  0  0  0  0  0  0  0  0  0  0  0
    8.0397   -7.0263    0.0000 C   0  0  0  0  0  0  0  0  0  0  0  0
    7.3252   -6.6137    0.0000 C   0  0  0  0  0  0  0  0  0  0  0  0
    5.8963   -5.7888    0.0000 O   0  0  0  0  0  0  0  0  0  0  0  0
    5.8963   -9.0887    0.0000 O   0  0  0  0  0  0  0  0  0  0  0  0
    4.4673   -8.2637    0.0000 O   0  0  0  0  0  0  0  0  0  0  0  0
    3.7529   -7.8513    0.0000 C   0  0  0  0  0  0  0  0  0  0  0  0
  1  2  2  0  0  0  0
  2  3  1  0  0  0  0
  3  4  1  0  0  0  0
  4  5  2  0  0  0  0
  5  6  1  0  0  0  0
  6  1  1  0  0  0  0
  4  7  1  0  0  0  0
  7  8  2  0  0  0  0
  8  9  1  0  0  0  0
  9 10  2  0  0  0  0
 10  5  1  0  0  0  0
  6 11  2  0  0  0  0
  3 12  2  0  0  0  0
  2 13  1  0  0  0  0
 13 14  1  0  0  0  0
M  END
>  <cdx:fragmentId>
5

$$$$
