91941.cdx
  Mrv1902 05222410212D          

 18 20  0  0  0  0            999 V2000
    4.3568   -7.4387    0.0000 C   0  0  0  0  0  0  0  0  0  0  0  0
    4.3568   -8.2637    0.0000 C   0  0  0  0  0  0  0  0  0  0  0  0
    5.0713   -8.6762    0.0000 C   0  0  0  0  0  0  0  0  0  0  0  0
    5.7857   -8.2637    0.0000 C   0  0  0  0  0  0  0  0  0  0  0  0
    5.7857   -7.4387    0.0000 C   0  0  0  0  0  0  0  0  0  0  0  0
    5.0713   -7.0263    0.0000 C   0  0  0  0  0  0  0  0  0  0  0  0
    6.5002   -8.6762    0.0000 C   0  0  0  0  0  0  0  0  0  0  0  0
    7.2147   -8.2637    0.0000 C   0  0  0  0  0  0  0  0  0  0  0  0
    7.2147   -7.4387    0.0000 C   0  0  0  0  0  0  0  0  0  0  0  0
    6.5002   -7.0263    0.0000 C   0  0  0  0  0  0  0  0  0  0  0  0
    7.9292   -8.6762    0.0000 C   0  0  0  0  0  0  0  0  0  0  0  0
    8.6436   -8.2637    0.0000 C   0  0  0  0  0  0  0  0  0  0  0  0
    8.6436   -7.4387    0.0000 C   0  0  0  0  0  0  0  0  0  0  0  0
    7.9292   -7.0263    0.0000 C   0  0  0  0  0  0  0  0  0  0  0  0
    6.5002   -6.2012    0.0000 O   0  0  0  0  0  0  0  0  0  0  0  0
    6.5002   -9.5013    0.0000 O   0  0  0  0  0  0  0  0  0  0  0  0
    9.3581   -7.0263    0.0000 O   0  0  0  0  0  0  0  0  0  0  0  0
    3.6423   -8.6762    0.0000 C   0  0  0  0  0  0  0  0  0  0  0  0
  1  2  2  0  0  0  0
  2  3  1  0  0  0  0
  3  4  2  0  0  0  0
  4  5  1  0  0  0  0
  5  6  2  0  0  0  0
  6  1  1  0  0  0  0
  4  7  1  0  0  0  0
  7  8  1  0  0  0  0
  8  9  2  0  0  0  0
  9 10  1  0  0  0  0
 10  5  1  0  0  0  0
  8 11  1  0  0  0  0
 11 12  2  0  0  0  0
 12 13  1  0  0  0  0
 13 14  2  0  0  0  0
 14  9  1  0  0  0  0
 10 15  2  0  0  0  0
  7 16  2  0  0  0  0
 13 17  1  0  0  0  0
  2 18  1  0  0  0  0
M  END
>  <cdx:fragmentId>
5

$$$$
