91948.cdx
  Mrv1902 05222410242D          

 18 20  0  0  0  0            999 V2000
    4.7418   -6.6688    0.0000 C   0  0  0  0  0  0  0  0  0  0  0  0
    4.7418   -7.4937    0.0000 C   0  0  0  0  0  0  0  0  0  0  0  0
    5.4563   -7.9063    0.0000 C   0  0  0  0  0  0  0  0  0  0  0  0
    6.1707   -7.4937    0.0000 C   0  0  0  0  0  0  0  0  0  0  0  0
    6.1707   -6.6688    0.0000 C   0  0  0  0  0  0  0  0  0  0  0  0
    5.4563   -6.2563    0.0000 C   0  0  0  0  0  0  0  0  0  0  0  0
    6.8852   -7.9063    0.0000 C   0  0  0  0  0  0  0  0  0  0  0  0
    7.5997   -7.4937    0.0000 C   0  0  0  0  0  0  0  0  0  0  0  0
    7.5997   -6.6688    0.0000 C   0  0  0  0  0  0  0  0  0  0  0  0
    6.8852   -6.2563    0.0000 C   0  0  0  0  0  0  0  0  0  0  0  0
    8.3142   -7.9063    0.0000 C   0  0  0  0  0  0  0  0  0  0  0  0
    9.0286   -7.4937    0.0000 C   0  0  0  0  0  0  0  0  0  0  0  0
    9.0286   -6.6688    0.0000 C   0  0  0  0  0  0  0  0  0  0  0  0
    8.3142   -6.2563    0.0000 C   0  0  0  0  0  0  0  0  0  0  0  0
    6.8852   -5.4313    0.0000 O   0  0  0  0  0  0  0  0  0  0  0  0
    6.8852   -8.7313    0.0000 O   0  0  0  0  0  0  0  0  0  0  0  0
    9.7431   -6.2563    0.0000 O   0  0  0  0  0  0  0  0  0  0  0  0
   10.4576   -6.6688    0.0000 C   0  0  0  0  0  0  0  0  0  0  0  0
  1  2  2  0  0  0  0
  2  3  1  0  0  0  0
  3  4  2  0  0  0  0
  4  5  1  0  0  0  0
  5  6  2  0  0  0  0
  6  1  1  0  0  0  0
  4  7  1  0  0  0  0
  7  8  1  0  0  0  0
  8  9  2  0  0  0  0
  9 10  1  0  0  0  0
 10  5  1  0  0  0  0
  8 11  1  0  0  0  0
 11 12  2  0  0  0  0
 12 13  1  0  0  0  0
 13 14  2  0  0  0  0
 14  9  1  0  0  0  0
 10 15  2  0  0  0  0
  7 16  2  0  0  0  0
 13 17  1  0  0  0  0
 17 18  1  0  0  0  0
M  END
>  <cdx:fragmentId>
5

$$$$
