91947.cdx
  Mrv1902 05222410222D          

 10 10  0  0  0  0            999 V2000
    6.3093   -7.2462    0.0000 C   0  0  0  0  0  0  0  0  0  0  0  0
    6.3093   -8.0713    0.0000 C   0  0  0  0  0  0  0  0  0  0  0  0
    7.0238   -8.4838    0.0000 C   0  0  0  0  0  0  0  0  0  0  0  0
    7.7382   -8.0713    0.0000 C   0  0  0  0  0  0  0  0  0  0  0  0
    7.7382   -7.2462    0.0000 C   0  0  0  0  0  0  0  0  0  0  0  0
    7.0238   -6.8338    0.0000 C   0  0  0  0  0  0  0  0  0  0  0  0
    8.4527   -8.4838    0.0000 C   0  0  0  0  0  0  0  0  0  0  0  0
    5.5948   -6.8338    0.0000 O   0  0  0  0  0  0  0  0  0  0  0  0
    7.0238   -6.0088    0.0000 O   0  0  0  0  0  0  0  0  0  0  0  0
    7.7382   -5.5962    0.0000 C   0  0  0  0  0  0  0  0  0  0  0  0
  1  2  2  0  0  0  0
  2  3  1  0  0  0  0
  3  4  2  0  0  0  0
  4  5  1  0  0  0  0
  5  6  2  0  0  0  0
  6  1  1  0  0  0  0
  4  7  1  0  0  0  0
  1  8  1  0  0  0  0
  6  9  1  0  0  0  0
  9 10  1  0  0  0  0
M  END
>  <cdx:fragmentId>
5

$$$$
