91943.cdx
  Mrv1902 05222410212D          

 19 18  0  0  0  0            999 V2000
    1.4825   -7.0125    0.0000 C   0  0  0  0  0  0  0  0  0  0  0  0
    2.1970   -6.6000    0.0000 C   0  0  0  0  0  0  0  0  0  0  0  0
    2.9115   -7.0125    0.0000 C   0  0  0  0  0  0  0  0  0  0  0  0
    3.6259   -6.6000    0.0000 C   0  0  0  0  0  0  0  0  0  0  0  0
    4.3404   -7.0125    0.0000 C   0  0  0  0  0  0  0  0  0  0  0  0
    5.0549   -6.6000    0.0000 C   0  0  0  0  0  0  0  0  0  0  0  0
    5.7694   -7.0125    0.0000 C   0  0  0  0  0  0  0  0  0  0  0  0
    6.4838   -6.6000    0.0000 C   0  0  0  0  0  0  0  0  0  0  0  0
    7.1983   -7.0125    0.0000 C   0  0  0  0  0  0  0  0  0  0  0  0
    7.9128   -6.6000    0.0000 C   0  0  0  0  0  0  0  0  0  0  0  0
    8.6272   -7.0125    0.0000 C   0  0  0  0  0  0  0  0  0  0  0  0
    9.3417   -6.6000    0.0000 C   0  0  0  0  0  0  0  0  0  0  0  0
   10.0562   -7.0125    0.0000 C   0  0  0  0  0  0  0  0  0  0  0  0
   10.7706   -6.6000    0.0000 C   0  0  0  0  0  0  0  0  0  0  0  0
   11.4851   -7.0125    0.0000 C   0  0  0  0  0  0  0  0  0  0  0  0
   12.1996   -6.6000    0.0000 C   0  0  0  0  0  0  0  0  0  0  0  0
   12.9141   -7.0125    0.0000 O   0  0  0  0  0  0  0  0  0  0  0  0
   11.4851   -7.8375    0.0000 O   0  0  0  0  0  0  0  0  0  0  0  0
   12.1996   -5.7750    0.0000 O   0  0  0  0  0  0  0  0  0  0  0  0
  1  2  1  0  0  0  0
  2  3  1  0  0  0  0
  3  4  1  0  0  0  0
  4  5  1  0  0  0  0
  5  6  1  0  0  0  0
  6  7  1  0  0  0  0
  7  8  1  0  0  0  0
  8  9  1  0  0  0  0
  9 10  1  0  0  0  0
 10 11  1  0  0  0  0
 11 12  1  0  0  0  0
 12 13  1  0  0  0  0
 13 14  1  0  0  0  0
 14 15  1  0  0  0  0
 15 16  1  0  0  0  0
 16 17  1  0  0  0  0
 15 18  1  0  0  0  0
 16 19  2  0  0  0  0
M  END
>  <cdx:fragmentId>
3

$$$$
