91353.cdx
  Mrv1902 05222410222D          

 76 84  0  0  0  0            999 V2000
    7.5180  -12.1350    0.0000 C   0  0  1  0  0  0  0  0  0  0  0  0
    8.2324  -11.7224    0.0000 C   0  0  0  0  0  0  0  0  0  0  0  0
    8.2323  -10.8974    0.0000 C   0  0  2  0  0  0  0  0  0  0  0  0
    7.5178  -10.4850    0.0000 C   0  0  0  0  0  0  0  0  0  0  0  0
    6.8033  -10.8976    0.0000 C   0  0  2  0  0  0  0  0  0  0  0  0
    6.8035  -11.7226    0.0000 C   0  0  2  0  0  0  0  0  0  0  0  0
    6.0888  -10.4852    0.0000 O   0  0  0  0  0  0  0  0  0  0  0  0
    5.3744  -10.8978    0.0000 O   0  0  0  0  0  0  0  0  0  0  0  0
    5.3745  -11.7228    0.0000 C   0  0  0  0  0  0  0  0  0  0  0  0
    6.0891  -12.1352    0.0000 O   0  0  0  0  0  0  0  0  0  0  0  0
    4.6599  -10.4854    0.0000 C   0  0  1  0  0  0  0  0  0  0  0  0
    3.9455  -10.8980    0.0000 C   0  0  2  0  0  0  0  0  0  0  0  0
    3.9456  -11.7230    0.0000 C   0  0  1  0  0  0  0  0  0  0  0  0
    4.6601  -12.1354    0.0000 C   0  0  2  0  0  0  0  0  0  0  0  0
    8.9469  -12.1348    0.0000 C   0  0  0  0  0  0  0  0  0  0  0  0
    9.6613  -11.7222    0.0000 C   0  0  0  0  0  0  0  0  0  0  0  0
    9.6612  -10.8972    0.0000 C   0  0  2  0  0  0  0  0  0  0  0  0
    8.9467  -10.4848    0.0000 C   0  0  0  0  0  0  0  0  0  0  0  0
   10.3756  -10.4846    0.0000 C   0  0  1  0  0  0  0  0  0  0  0  0
   10.3755   -9.6596    0.0000 C   0  0  0  0  0  0  0  0  0  0  0  0
    9.6610   -9.2472    0.0000 C   0  0  0  0  0  0  0  0  0  0  0  0
    8.9466   -9.6598    0.0000 C   0  0  0  0  0  0  0  0  0  0  0  0
   11.0902  -10.8970    0.0000 C   0  0  0  0  0  0  0  0  0  0  0  0
   11.8046  -10.4844    0.0000 C   0  0  0  0  0  0  0  0  0  0  0  0
   11.8045   -9.6594    0.0000 C   0  0  0  0  0  0  0  0  0  0  0  0
   11.0899   -9.2470    0.0000 C   0  0  0  0  0  0  0  0  0  0  0  0
   12.5189   -9.2468    0.0000 C   0  0  0  0  0  0  0  0  0  0  0  0
   12.5187   -8.4218    0.0000 C   0  0  0  0  0  0  0  0  0  0  0  0
   11.8042   -8.0094    0.0000 C   0  0  0  0  0  0  0  0  0  0  0  0
   11.0898   -8.4220    0.0000 C   0  0  0  0  0  0  0  0  0  0  0  0
   13.2825   -9.5975    0.0000 C   0  0  0  0  0  0  0  0  0  0  0  0
   13.2825  -10.4225    0.0000 O   0  0  0  0  0  0  0  0  0  0  0  0
   13.9209   -9.1642    0.0000 O   0  0  0  0  0  0  0  0  0  0  0  0
   14.6354   -9.5766    0.0000 C   0  0  0  0  0  0  0  0  0  0  0  0
   14.6356  -10.4016    0.0000 O   0  0  0  0  0  0  0  0  0  0  0  0
   15.3501  -10.8140    0.0000 C   0  0  1  0  0  0  0  0  0  0  0  0
   16.0645  -10.4014    0.0000 C   0  0  2  0  0  0  0  0  0  0  0  0
   16.0644   -9.5764    0.0000 C   0  0  1  0  0  0  0  0  0  0  0  0
   15.3498   -9.1640    0.0000 C   0  0  2  0  0  0  0  0  0  0  0  0
   16.7788   -9.1638    0.0000 O   0  0  0  0  0  0  0  0  0  0  0  0
   16.7787   -8.3388    0.0000 O   0  0  0  0  0  0  0  0  0  0  0  0
   16.0641   -7.9264    0.0000 C   0  0  0  0  0  0  0  0  0  0  0  0
   15.3497   -8.3390    0.0000 O   0  0  0  0  0  0  0  0  0  0  0  0
   17.4931   -7.9262    0.0000 C   0  0  2  0  0  0  0  0  0  0  0  0
   17.4930   -7.1012    0.0000 C   0  0  2  0  0  0  0  0  0  0  0  0
   16.7784   -6.6888    0.0000 C   0  0  1  0  0  0  0  0  0  0  0  0
   16.0640   -7.1014    0.0000 C   0  0  2  0  0  0  0  0  0  0  0  0
   16.7783   -5.8638    0.0000 O   0  0  0  0  0  0  0  0  0  0  0  0
   15.3495   -6.6890    0.0000 O   0  0  0  0  0  0  0  0  0  0  0  0
   18.2074   -6.6886    0.0000 O   0  0  0  0  0  0  0  0  0  0  0  0
   18.9219   -7.1010    0.0000 C   0  0  0  0  0  0  0  0  0  0  0  0
   18.9220   -7.9260    0.0000 O   0  0  0  0  0  0  0  0  0  0  0  0
   19.6363   -6.6884    0.0000 C   0  0  2  0  0  0  0  0  0  0  0  0
   20.3508   -7.1007    0.0000 C   0  0  1  0  0  0  0  0  0  0  0  0
   20.3510   -7.9257    0.0000 C   0  0  2  0  0  0  0  0  0  0  0  0
   19.6365   -8.3384    0.0000 C   0  0  0  0  0  0  0  0  0  0  0  0
    4.6597   -9.6604    0.0000 C   0  0  0  0  0  0  0  0  0  0  0  0
    5.3742   -9.2478    0.0000 O   0  0  0  0  0  0  0  0  0  0  0  0
    7.3046  -12.9319    0.0000 C   0  0  0  0  0  0  0  0  0  0  0  0
    7.7172  -13.6464    0.0000 O   0  0  0  0  0  0  0  0  0  0  0  0
   11.3916   -7.2950    0.0000 C   0  0  0  0  0  0  0  0  0  0  0  0
   12.3875   -7.4259    0.0000 C   0  0  0  0  0  0  0  0  0  0  0  0
   15.3502  -11.6390    0.0000 C   0  0  0  0  0  0  0  0  0  0  0  0
   14.6358  -12.0516    0.0000 O   0  0  0  0  0  0  0  0  0  0  0  0
    3.2312  -12.1356    0.0000 O   0  0  0  0  0  0  0  0  0  0  0  0
    7.9306  -12.8494    0.0000 C   0  0  0  0  0  0  0  0  0  0  0  0
    8.2323  -10.0724    0.0000 C   0  0  0  0  0  0  0  0  0  0  0  0
    9.6612  -10.0722    0.0000 C   0  0  0  0  0  0  0  0  0  0  0  0
   21.0655   -8.3381    0.0000 O   0  0  0  0  0  0  0  0  0  0  0  0
   19.6362   -5.8634    0.0000 O   0  0  0  0  0  0  0  0  0  0  0  0
    4.6602  -12.9604    0.0000 O   0  0  0  0  0  0  0  0  0  0  0  0
    3.2309  -10.4856    0.0000 O   0  0  0  0  0  0  0  0  0  0  0  0
   10.3756  -11.3096    0.0000 C   0  0  0  0  0  0  0  0  0  0  0  0
   16.7790  -10.8138    0.0000 O   0  0  0  0  0  0  0  0  0  0  0  0
   18.2076   -8.3386    0.0000 C   0  0  0  0  0  0  0  0  0  0  0  0
   21.0652   -6.6881    0.0000 O   0  0  0  0  0  0  0  0  0  0  0  0
  1  2  1  0  0  0  0
  2  3  1  0  0  0  0
  3  4  1  0  0  0  0
  4  5  1  0  0  0  0
  5  6  1  0  0  0  0
  6  1  1  0  0  0  0
  5  7  1  6  0  0  0
  8  9  1  0  0  0  0
  9 10  1  0  0  0  0
  6 10  1  1  0  0  0
  8 11  1  0  0  0  0
 11 12  1  0  0  0  0
 12 13  1  0  0  0  0
 13 14  1  0  0  0  0
 14  9  1  0  0  0  0
  2 15  1  0  0  0  0
 15 16  1  0  0  0  0
 16 17  1  0  0  0  0
 17 18  1  0  0  0  0
 18  3  1  0  0  0  0
 17 19  1  0  0  0  0
 19 20  1  0  0  0  0
 20 21  2  0  0  0  0
 21 22  1  0  0  0  0
 22 18  1  0  0  0  0
 19 23  1  0  0  0  0
 23 24  1  0  0  0  0
 24 25  1  0  0  0  0
 25 26  1  0  0  0  0
 26 20  1  0  0  0  0
 25 27  1  0  0  0  0
 27 28  1  0  0  0  0
 28 29  1  0  0  0  0
 29 30  1  0  0  0  0
 30 26  1  0  0  0  0
 31 32  2  0  0  0  0
 31 33  1  0  0  0  0
 33 34  1  0  0  0  0
 34 35  1  0  0  0  0
 35 36  1  0  0  0  0
 36 37  1  0  0  0  0
 37 38  1  0  0  0  0
 38 39  1  0  0  0  0
 39 34  1  0  0  0  0
 38 40  1  1  0  0  0
 41 42  1  0  0  0  0
 42 43  1  0  0  0  0
 39 43  1  1  0  0  0
 41 44  1  0  0  0  0
 44 45  1  0  0  0  0
 45 46  1  0  0  0  0
 46 47  1  0  0  0  0
 47 42  1  0  0  0  0
 46 48  1  1  0  0  0
 47 49  1  1  0  0  0
 45 50  1  6  0  0  0
 50 51  1  0  0  0  0
 51 52  1  0  0  0  0
 51 53  1  0  0  0  0
 53 54  1  0  0  0  0
 54 55  1  0  0  0  0
 55 56  1  0  0  0  0
 56 52  1  0  0  0  0
 11 57  1  1  0  0  0
 57 58  1  0  0  0  0
  1 59  1  0  0  0  0
 59 60  1  0  0  0  0
 29 61  1  0  0  0  0
 29 62  1  0  0  0  0
 36 63  1  1  0  0  0
 63 64  1  0  0  0  0
 13 65  1  1  0  0  0
  1 66  1  1  0  0  0
  3 67  1  1  0  0  0
 17 68  1  1  0  0  0
 55 69  1  1  0  0  0
 53 70  1  1  0  0  0
 14 71  1  1  0  0  0
 12 72  1  6  0  0  0
 19 73  1  6  0  0  0
 37 74  1  6  0  0  0
 44 75  1  6  0  0  0
 54 76  1  6  0  0  0
 31 27  1  1  0  0  0
M  END
>  <cdx:fragmentId>
5

$$$$
