91958.cdx
  Mrv1902 05222410252D          

 15 17  0  0  0  0            999 V2000
    4.4393   -6.5587    0.0000 C   0  0  0  0  0  0  0  0  0  0  0  0
    4.4393   -7.3838    0.0000 C   0  0  0  0  0  0  0  0  0  0  0  0
    5.1538   -7.7963    0.0000 C   0  0  0  0  0  0  0  0  0  0  0  0
    5.8682   -7.3838    0.0000 C   0  0  0  0  0  0  0  0  0  0  0  0
    5.8682   -6.5587    0.0000 C   0  0  0  0  0  0  0  0  0  0  0  0
    5.1538   -6.1463    0.0000 C   0  0  0  0  0  0  0  0  0  0  0  0
    6.5827   -7.7963    0.0000 C   0  0  0  0  0  0  0  0  0  0  0  0
    7.2972   -7.3838    0.0000 C   0  0  0  0  0  0  0  0  0  0  0  0
    7.2972   -6.5587    0.0000 C   0  0  0  0  0  0  0  0  0  0  0  0
    6.5827   -6.1463    0.0000 C   0  0  0  0  0  0  0  0  0  0  0  0
    8.0117   -7.7963    0.0000 C   0  0  0  0  0  0  0  0  0  0  0  0
    8.7261   -7.3838    0.0000 C   0  0  0  0  0  0  0  0  0  0  0  0
    8.7261   -6.5587    0.0000 C   0  0  0  0  0  0  0  0  0  0  0  0
    8.0117   -6.1463    0.0000 C   0  0  0  0  0  0  0  0  0  0  0  0
    9.4406   -6.1463    0.0000 C   0  0  0  0  0  0  0  0  0  0  0  0
  1  2  2  0  0  0  0
  2  3  1  0  0  0  0
  3  4  2  0  0  0  0
  4  5  1  0  0  0  0
  5  6  2  0  0  0  0
  6  1  1  0  0  0  0
  4  7  1  0  0  0  0
  7  8  2  0  0  0  0
  8  9  1  0  0  0  0
  9 10  2  0  0  0  0
 10  5  1  0  0  0  0
  8 11  1  0  0  0  0
 11 12  2  0  0  0  0
 12 13  1  0  0  0  0
 13 14  2  0  0  0  0
 14  9  1  0  0  0  0
 13 15  1  0  0  0  0
M  END
>  <cdx:fragmentId>
5

$$$$
