91956.cdx
  Mrv1902 05222410202D          

  7  6  0  0  0  0            999 V2000
    5.8275   -6.9850    0.0000 O   0  0  0  0  0  0  0  0  0  0  0  0
    6.5420   -6.5725    0.0000 C   0  0  0  0  0  0  0  0  0  0  0  0
    7.2565   -6.9850    0.0000 C   0  0  0  0  0  0  0  0  0  0  0  0
    7.9709   -6.5725    0.0000 C   0  0  0  0  0  0  0  0  0  0  0  0
    8.6854   -6.9850    0.0000 C   0  0  0  0  0  0  0  0  0  0  0  0
    9.3999   -6.5725    0.0000 C   0  0  0  0  0  0  0  0  0  0  0  0
    7.2565   -7.8100    0.0000 C   0  0  0  0  0  0  0  0  0  0  0  0
  1  2  2  0  0  0  0
  2  3  1  0  0  0  0
  3  4  1  0  0  0  0
  4  5  1  0  0  0  0
  5  6  2  0  0  0  0
  3  7  1  0  0  0  0
M  END
>  <cdx:fragmentId>
3

$$$$
