91955.cdx
  Mrv1902 05222410212D          

 16 16  0  0  0  0            999 V2000
    7.9318   -6.1188    0.0000 C   0  0  0  0  0  0  0  0  0  0  0  0
    7.9318   -6.9438    0.0000 C   0  0  0  0  0  0  0  0  0  0  0  0
    8.6463   -7.3563    0.0000 C   0  0  0  0  0  0  0  0  0  0  0  0
    9.3607   -6.9438    0.0000 C   0  0  0  0  0  0  0  0  0  0  0  0
    9.3607   -6.1188    0.0000 C   0  0  0  0  0  0  0  0  0  0  0  0
    8.6463   -5.7062    0.0000 C   0  0  0  0  0  0  0  0  0  0  0  0
    7.2173   -8.1813    0.0000 C   0  0  0  0  0  0  0  0  0  0  0  0
    7.9318   -8.5938    0.0000 C   0  0  0  0  0  0  0  0  0  0  0  0
    8.6463   -8.1813    0.0000 C   0  0  0  0  0  0  0  0  0  0  0  0
    7.2173   -9.8312    0.0000 O   0  0  0  0  0  0  0  0  0  0  0  0
    7.9318   -9.4187    0.0000 C   0  0  0  0  0  0  0  0  0  0  0  0
    8.6463   -9.8312    0.0000 O   0  0  0  0  0  0  0  0  0  0  0  0
    8.6463   -4.8812    0.0000 C   0  0  0  0  0  0  0  0  0  0  0  0
    8.6463   -4.0563    0.0000 C   0  0  0  0  0  0  0  0  0  0  0  0
    9.4713   -4.8812    0.0000 C   0  0  0  0  0  0  0  0  0  0  0  0
    7.8213   -4.8812    0.0000 C   0  0  0  0  0  0  0  0  0  0  0  0
  1  2  2  0  0  0  0
  2  3  1  0  0  0  0
  3  4  2  0  0  0  0
  4  5  1  0  0  0  0
  5  6  2  0  0  0  0
  6  1  1  0  0  0  0
  7  8  1  0  0  0  0
  8  9  1  0  0  0  0
  9  3  1  0  0  0  0
 10 11  1  0  0  0  0
 11  8  1  0  0  0  0
 11 12  2  0  0  0  0
  6 13  1  0  0  0  0
 13 14  1  0  0  0  0
 13 15  1  0  0  0  0
 13 16  1  0  0  0  0
M  END
>  <cdx:fragmentId>
5

$$$$
