91957.cdx
  Mrv1902 05222410212D          

 11 10  0  0  0  0            999 V2000
    3.6138   -7.1225    0.0000 O   0  0  0  0  0  0  0  0  0  0  0  0
    4.3282   -6.7100    0.0000 C   0  0  0  0  0  0  0  0  0  0  0  0
    5.0427   -7.1225    0.0000 C   0  0  0  0  0  0  0  0  0  0  0  0
    5.7572   -6.7100    0.0000 C   0  0  0  0  0  0  0  0  0  0  0  0
    6.4717   -7.1225    0.0000 C   0  0  0  0  0  0  0  0  0  0  0  0
    7.1861   -6.7100    0.0000 C   0  0  0  0  0  0  0  0  0  0  0  0
    7.9006   -7.1225    0.0000 C   0  0  0  0  0  0  0  0  0  0  0  0
    8.6151   -6.7100    0.0000 C   0  0  0  0  0  0  0  0  0  0  0  0
    9.3295   -7.1225    0.0000 C   0  0  0  0  0  0  0  0  0  0  0  0
    5.0427   -7.9475    0.0000 C   0  0  0  0  0  0  0  0  0  0  0  0
    7.9006   -7.9475    0.0000 C   0  0  0  0  0  0  0  0  0  0  0  0
  1  2  2  0  0  0  0
  2  3  1  0  0  0  0
  3  4  2  0  0  0  0
  4  5  1  0  0  0  0
  5  6  1  0  0  0  0
  6  7  1  0  0  0  0
  7  8  1  0  0  0  0
  8  9  2  0  0  0  0
  3 10  1  0  0  0  0
  7 11  2  0  0  0  0
M  END
>  <cdx:fragmentId>
3

$$$$
