91954.cdx
  Mrv1902 05222410212D          

  6  5  0  0  0  0            999 V2000
    8.6442   -6.5038    0.0000 C   0  0  0  0  0  0  0  0  0  0  0  0
    7.9297   -6.9162    0.0000 S   0  0  0  0  0  0  0  0  0  0  0  0
    7.2152   -6.5038    0.0000 C   0  0  0  0  0  0  0  0  0  0  0  0
    6.5007   -6.9162    0.0000 C   0  0  0  0  0  0  0  0  0  0  0  0
    5.7863   -6.5038    0.0000 C   0  0  0  0  0  0  0  0  0  0  0  0
    6.5007   -7.7413    0.0000 C   0  0  0  0  0  0  0  0  0  0  0  0
  2  1  1  0  0  0  0
  3  2  1  0  0  0  0
  4  3  1  0  0  0  0
  5  4  1  0  0  0  0
  4  6  2  0  0  0  0
M  END
>  <cdx:fragmentId>
3

$$$$
