91952.cdx
  Mrv1902 05222410232D          

  6  5  0  0  0  0            999 V2000
    8.5072   -7.0125    0.0000 O   0  0  0  0  0  0  0  0  0  0  0  0
    7.7927   -6.6000    0.0000 C   0  0  0  0  0  0  0  0  0  0  0  0
    7.0782   -7.0125    0.0000 C   0  0  0  0  0  0  0  0  0  0  0  0
    6.3638   -6.6000    0.0000 C   0  0  0  0  0  0  0  0  0  0  0  0
    7.0782   -7.8375    0.0000 C   0  0  0  0  0  0  0  0  0  0  0  0
    5.6493   -7.0125    0.0000 C   0  0  0  0  0  0  0  0  0  0  0  0
  2  1  1  0  0  0  0
  3  2  1  0  0  0  0
  4  3  2  0  0  0  0
  3  5  1  0  0  0  0
  4  6  1  0  0  0  0
M  END
>  <cdx:fragmentId>
3

$$$$
