91967.cdx
  Mrv1902 05222410252D          

 14 16  0  0  0  0            999 V2000
    4.7258   -6.4503    0.0000 C   0  0  0  0  0  0  0  0  0  0  0  0
    4.9916   -7.2313    0.0000 C   0  0  0  0  0  0  0  0  0  0  0  0
    5.8009   -7.3916    0.0000 C   0  0  0  0  0  0  0  0  0  0  0  0
    6.3443   -6.7708    0.0000 C   0  0  0  0  0  0  0  0  0  0  0  0
    6.0785   -5.9898    0.0000 C   0  0  0  0  0  0  0  0  0  0  0  0
    5.2692   -5.8296    0.0000 C   0  0  0  0  0  0  0  0  0  0  0  0
    7.1693   -6.7593    0.0000 C   0  0  0  0  0  0  0  0  0  0  0  0
    7.4132   -5.9712    0.0000 C   0  0  0  0  0  0  0  0  0  0  0  0
    6.7391   -5.4956    0.0000 N   0  0  0  0  0  0  0  0  0  0  0  0
    7.7298   -7.3647    0.0000 C   0  0  0  0  0  0  0  0  0  0  0  0
    8.5343   -7.1819    0.0000 C   0  0  0  0  0  0  0  0  0  0  0  0
    8.7783   -6.3938    0.0000 N   0  0  0  0  0  0  0  0  0  0  0  0
    8.2177   -5.7885    0.0000 C   0  0  0  0  0  0  0  0  0  0  0  0
    9.5828   -6.2110    0.0000 C   0  0  0  0  0  0  0  0  0  0  0  0
  1  2  1  0  0  0  0
  2  3  2  0  0  0  0
  3  4  1  0  0  0  0
  4  5  1  0  0  0  0
  5  6  1  0  0  0  0
  6  1  2  0  0  0  0
  4  7  2  0  0  0  0
  7  8  1  0  0  0  0
  8  9  1  0  0  0  0
  9  5  2  0  0  0  0
  7 10  1  0  0  0  0
 10 11  2  0  0  0  0
 11 12  1  0  0  0  0
 12 13  1  0  0  0  0
 13  8  2  0  0  0  0
 12 14  1  0  0  0  0
M  END
>  <cdx:fragmentId>
5

$$$$
