91968.cdx
  Mrv1902 05222410212D          

 23 22  0  0  0  0            999 V2000
    0.6025   -6.9162    0.0000 O   0  0  0  0  0  0  0  0  0  0  0  0
    1.3170   -6.5038    0.0000 C   0  0  0  0  0  0  0  0  0  0  0  0
    2.0315   -6.9162    0.0000 C   0  0  0  0  0  0  0  0  0  0  0  0
    2.7459   -6.5038    0.0000 O   0  0  0  0  0  0  0  0  0  0  0  0
    3.4604   -6.9162    0.0000 C   0  0  0  0  0  0  0  0  0  0  0  0
    4.1749   -6.5038    0.0000 C   0  0  0  0  0  0  0  0  0  0  0  0
    4.8894   -6.9162    0.0000 C   0  0  0  0  0  0  0  0  0  0  0  0
    5.6038   -6.5038    0.0000 C   0  0  0  0  0  0  0  0  0  0  0  0
    6.3183   -6.9162    0.0000 C   0  0  0  0  0  0  0  0  0  0  0  0
    7.0328   -6.5038    0.0000 C   0  0  0  0  0  0  0  0  0  0  0  0
    7.7472   -6.9162    0.0000 C   0  0  0  0  0  0  0  0  0  0  0  0
    8.4617   -6.5038    0.0000 C   0  0  0  0  0  0  0  0  0  0  0  0
    9.1762   -6.9162    0.0000 C   0  0  0  0  0  0  0  0  0  0  0  0
    9.8906   -6.5038    0.0000 C   0  0  0  0  0  0  0  0  0  0  0  0
   10.6051   -6.9162    0.0000 C   0  0  0  0  0  0  0  0  0  0  0  0
   11.3196   -6.5038    0.0000 C   0  0  0  0  0  0  0  0  0  0  0  0
   12.0341   -6.9162    0.0000 C   0  0  0  0  0  0  0  0  0  0  0  0
   12.7485   -6.5038    0.0000 C   0  0  0  0  0  0  0  0  0  0  0  0
   13.4630   -6.9162    0.0000 C   0  0  0  0  0  0  0  0  0  0  0  0
   14.1775   -6.5038    0.0000 C   0  0  0  0  0  0  0  0  0  0  0  0
    2.0315   -7.7413    0.0000 C   0  0  0  0  0  0  0  0  0  0  0  0
    1.3170   -8.1538    0.0000 O   0  0  0  0  0  0  0  0  0  0  0  0
    3.4604   -7.7413    0.0000 O   0  0  0  0  0  0  0  0  0  0  0  0
  1  2  1  0  0  0  0
  2  3  1  0  0  0  0
  3  4  1  0  0  0  0
  4  5  1  0  0  0  0
  5  6  1  0  0  0  0
  6  7  1  0  0  0  0
  7  8  1  0  0  0  0
  8  9  1  0  0  0  0
  9 10  1  0  0  0  0
 10 11  1  0  0  0  0
 11 12  1  0  0  0  0
 12 13  1  0  0  0  0
 13 14  1  0  0  0  0
 14 15  1  0  0  0  0
 15 16  1  0  0  0  0
 16 17  1  0  0  0  0
 17 18  1  0  0  0  0
 18 19  1  0  0  0  0
 19 20  1  0  0  0  0
  3 21  1  0  0  0  0
 21 22  1  0  0  0  0
  5 23  2  0  0  0  0
M  END
>  <cdx:fragmentId>
3

$$$$
