91961.cdx
  Mrv1902 05222410242D          

  7  6  0  0  0  0            999 V2000
    5.8413   -6.0225    0.0000 O   0  0  0  0  0  0  0  0  0  0  0  0
    6.5557   -5.6100    0.0000 C   0  0  0  0  0  0  0  0  0  0  0  0
    7.2702   -6.0225    0.0000 C   0  0  0  0  0  0  0  0  0  0  0  0
    7.9847   -5.6100    0.0000 C   0  0  0  0  0  0  0  0  0  0  0  0
    8.6992   -6.0225    0.0000 C   0  0  0  0  0  0  0  0  0  0  0  0
    9.4136   -5.6100    0.0000 C   0  0  0  0  0  0  0  0  0  0  0  0
    7.2702   -6.8475    0.0000 C   0  0  0  0  0  0  0  0  0  0  0  0
  1  2  2  0  0  0  0
  2  3  1  0  0  0  0
  3  4  1  0  0  0  0
  4  5  1  0  0  0  0
  5  6  2  0  0  0  0
  3  7  2  0  0  0  0
M  END
>  <cdx:fragmentId>
3

$$$$
