91965.cdx
  Mrv1902 05222410252D          

  6  5  0  0  0  0            999 V2000
    7.6547   -7.7687    0.0000 O   0  5  0  0  0  0  0  0  0  0  0  0
    6.9402   -7.3563    0.0000 C   0  0  0  0  0  0  0  0  0  0  0  0
    6.2257   -7.7687    0.0000 C   0  0  0  0  0  0  0  0  0  0  0  0
    5.5113   -7.3563    0.0000 C   0  0  0  0  0  0  0  0  0  0  0  0
    6.2257   -8.5938    0.0000 C   0  0  0  0  0  0  0  0  0  0  0  0
    6.9402   -6.5313    0.0000 O   0  0  0  0  0  0  0  0  0  0  0  0
  2  1  1  0  0  0  0
  3  2  1  0  0  0  0
  4  3  1  0  0  0  0
  3  5  1  0  0  0  0
  2  6  2  0  0  0  0
M  CHG  1   1  -1
M  END
>  <cdx:fragmentId>
3

$$$$
