919623.cdx
  Mrv1902 05222410192D          

 26 29  0  0  0  0            999 V2000
    6.9110  -16.8635    0.0000 C   0  0  0  0  0  0  0  0  0  0  0  0
    7.6255  -16.4510    0.0000 N   0  0  0  0  0  0  0  0  0  0  0  0
    7.6255  -15.6260    0.0000 C   0  0  1  0  0  0  0  0  0  0  0  0
    6.9110  -15.2135    0.0000 C   0  0  0  0  0  0  0  0  0  0  0  0
    6.1965  -15.6260    0.0000 C   0  0  0  0  0  0  0  0  0  0  0  0
    5.4821  -15.2135    0.0000 C   0  0  0  0  0  0  0  0  0  0  0  0
    4.7676  -15.6260    0.0000 C   0  0  0  0  0  0  0  0  0  0  0  0
    4.7676  -16.4510    0.0000 C   0  0  0  0  0  0  0  0  0  0  0  0
    5.4821  -16.8635    0.0000 C   0  0  0  0  0  0  0  0  0  0  0  0
    6.1965  -16.4510    0.0000 C   0  0  0  0  0  0  0  0  0  0  0  0
    8.3400  -16.8635    0.0000 C   0  0  0  0  0  0  0  0  0  0  0  0
    9.0544  -16.4510    0.0000 C   0  0  0  0  0  0  0  0  0  0  0  0
    9.0544  -15.6260    0.0000 C   0  0  0  0  0  0  0  0  0  0  0  0
    9.7689  -15.2135    0.0000 C   0  0  0  0  0  0  0  0  0  0  0  0
    9.7689  -14.3885    0.0000 C   0  0  0  0  0  0  0  0  0  0  0  0
    9.0544  -13.9760    0.0000 C   0  0  0  0  0  0  0  0  0  0  0  0
    8.3400  -14.3885    0.0000 C   0  0  0  0  0  0  0  0  0  0  0  0
    8.3400  -15.2135    0.0000 C   0  0  0  0  0  0  0  0  0  0  0  0
    4.0531  -15.2135    0.0000 O   0  0  0  0  0  0  0  0  0  0  0  0
    4.0531  -16.8635    0.0000 O   0  0  0  0  0  0  0  0  0  0  0  0
    3.3387  -16.4510    0.0000 C   0  0  0  0  0  0  0  0  0  0  0  0
   10.4834  -13.9760    0.0000 O   0  0  0  0  0  0  0  0  0  0  0  0
   11.1978  -14.3885    0.0000 C   0  0  0  0  0  0  0  0  0  0  0  0
    9.0544  -13.1510    0.0000 O   0  0  0  0  0  0  0  0  0  0  0  0
    9.7689  -12.7385    0.0000 C   0  0  0  0  0  0  0  0  0  0  0  0
    7.6255  -14.8010    0.0000 H   0  0  0  0  0  0  0  0  0  0  0  0
  1  2  1  0  0  0  0
  2  3  1  0  0  0  0
  3  4  1  0  0  0  0
  4  5  1  0  0  0  0
  5  6  1  0  0  0  0
  6  7  2  0  0  0  0
  7  8  1  0  0  0  0
  8  9  2  0  0  0  0
  9 10  1  0  0  0  0
  1 10  1  0  0  0  0
  5 10  2  0  0  0  0
 11 12  1  0  0  0  0
 12 13  1  0  0  0  0
 13 14  1  0  0  0  0
 14 15  2  0  0  0  0
 15 16  1  0  0  0  0
 16 17  2  0  0  0  0
 17 18  1  0  0  0  0
 13 18  2  0  0  0  0
 11  2  1  0  0  0  0
 18  3  1  0  0  0  0
  7 19  1  0  0  0  0
 20 21  1  0  0  0  0
  8 20  1  0  0  0  0
 22 23  1  0  0  0  0
 15 22  1  0  0  0  0
 24 25  1  0  0  0  0
 16 24  1  0  0  0  0
  3 26  1  6  0  0  0
M  END
>  <cdx:fragmentId>
178738

$$$$
