91969.cdx
  Mrv1902 05222410212D          

 10  9  0  0  0  0            999 V2000
    9.8245   -6.1600    0.0000 C   0  0  0  0  0  0  0  0  0  0  0  0
    9.1101   -6.5725    0.0000 C   0  0  0  0  0  0  0  0  0  0  0  0
    8.3956   -6.1600    0.0000 C   0  0  0  0  0  0  0  0  0  0  0  0
    7.6811   -6.5725    0.0000 C   0  0  0  0  0  0  0  0  0  0  0  0
    6.9667   -6.1600    0.0000 C   0  0  0  0  0  0  0  0  0  0  0  0
    6.2522   -6.5725    0.0000 C   0  0  0  0  0  0  0  0  0  0  0  0
    5.5377   -6.1600    0.0000 C   0  0  0  0  0  0  0  0  0  0  0  0
    4.8232   -6.5725    0.0000 C   0  0  0  0  0  0  0  0  0  0  0  0
    4.1088   -6.1600    0.0000 O   0  0  0  0  0  0  0  0  0  0  0  0
    4.8232   -7.3975    0.0000 C   0  0  0  0  0  0  0  0  0  0  0  0
  2  1  1  0  0  0  0
  3  2  1  0  0  0  0
  4  3  1  0  0  0  0
  5  4  1  0  0  0  0
  6  5  1  0  0  0  0
  7  6  1  0  0  0  0
  8  7  1  0  0  0  0
  9  8  1  0  0  0  0
  8 10  1  0  0  0  0
M  END
>  <cdx:fragmentId>
3

$$$$
