91971.cdx
  Mrv1902 05222410242D          

  9  8  0  0  0  0            999 V2000
    9.0138   -5.8988    0.0000 C   0  0  0  0  0  0  0  0  0  0  0  0
    8.2994   -5.4863    0.0000 C   0  0  0  0  0  0  0  0  0  0  0  0
    7.5849   -5.8988    0.0000 C   0  0  0  0  0  0  0  0  0  0  0  0
    6.8704   -5.4863    0.0000 C   0  0  0  0  0  0  0  0  0  0  0  0
    6.1559   -5.8988    0.0000 C   0  0  0  0  0  0  0  0  0  0  0  0
    5.4415   -5.4863    0.0000 C   0  0  0  0  0  0  0  0  0  0  0  0
    4.7270   -5.8988    0.0000 C   0  0  0  0  0  0  0  0  0  0  0  0
    4.0125   -5.4863    0.0000 O   0  0  0  0  0  0  0  0  0  0  0  0
    4.7270   -6.7237    0.0000 C   0  0  0  0  0  0  0  0  0  0  0  0
  2  1  1  0  0  0  0
  3  2  1  0  0  0  0
  4  3  1  0  0  0  0
  5  4  1  0  0  0  0
  6  5  1  0  0  0  0
  7  6  1  0  0  0  0
  8  7  1  0  0  0  0
  7  9  1  0  0  0  0
M  END
>  <cdx:fragmentId>
3

$$$$
