91972.cdx
  Mrv1902 05222410252D          

  9  8  0  0  0  0            999 V2000
   10.1545   -7.8855    0.0000 C   0  0  0  0  0  0  0  0  0  0  0  0
    9.4401   -8.2980    0.0000 C   0  0  0  0  0  0  0  0  0  0  0  0
    8.7256   -7.8855    0.0000 C   0  0  0  0  0  0  0  0  0  0  0  0
    8.0111   -8.2980    0.0000 C   0  0  0  0  0  0  0  0  0  0  0  0
    7.2967   -7.8855    0.0000 C   0  0  0  0  0  0  0  0  0  0  0  0
    6.5822   -8.2980    0.0000 C   0  0  0  0  0  0  0  0  0  0  0  0
    5.8677   -7.8855    0.0000 C   0  0  0  0  0  0  0  0  0  0  0  0
    5.1532   -8.2980    0.0000 C   0  0  0  0  0  0  0  0  0  0  0  0
    4.4388   -7.8855    0.0000 O   0  0  0  0  0  0  0  0  0  0  0  0
  2  1  1  0  0  0  0
  3  2  1  0  0  0  0
  4  3  1  0  0  0  0
  5  4  1  0  0  0  0
  6  5  1  0  0  0  0
  7  6  2  0  0  0  0
  8  7  1  0  0  0  0
  9  8  1  0  0  0  0
M  END
>  <cdx:fragmentId>
3

$$$$
