91979.cdx
  Mrv1902 05222410222D          

 29 31  0  0  0  0            999 V2000
   10.7889   -8.8189    0.0000 C   0  0  0  0  0  0  0  0  0  0  0  0
   10.8000   -7.9939    0.0000 C   0  0  0  0  0  0  0  0  0  0  0  0
   10.0912   -7.5719    0.0000 C   0  0  0  0  0  0  0  0  0  0  0  0
    9.3712   -7.9747    0.0000 C   0  0  0  0  0  0  0  0  0  0  0  0
    9.3601   -8.7997    0.0000 C   0  0  0  0  0  0  0  0  0  0  0  0
   10.0690   -9.2217    0.0000 C   0  0  0  0  0  0  0  0  0  0  0  0
   10.0579  -10.0467    0.0000 C   0  0  0  0  0  0  0  0  0  0  0  0
    9.3380  -10.4495    0.0000 C   0  0  0  0  0  0  0  0  0  0  0  0
    9.3269  -11.2744    0.0000 O   0  0  0  0  0  0  0  0  0  0  0  0
    8.6069  -11.6773    0.0000 C   0  0  2  0  0  0  0  0  0  0  0  0
    7.8980  -11.2552    0.0000 O   0  0  0  0  0  0  0  0  0  0  0  0
    7.1781  -11.6581    0.0000 C   0  0  1  0  0  0  0  0  0  0  0  0
    7.1670  -12.4830    0.0000 C   0  0  2  0  0  0  0  0  0  0  0  0
    7.8759  -12.9051    0.0000 C   0  0  1  0  0  0  0  0  0  0  0  0
    8.5958  -12.5022    0.0000 C   0  0  1  0  0  0  0  0  0  0  0  0
    6.4692  -11.2360    0.0000 C   0  0  0  0  0  0  0  0  0  0  0  0
    6.4803  -10.4111    0.0000 O   0  0  0  0  0  0  0  0  0  0  0  0
    7.8648  -13.7300    0.0000 O   0  0  0  0  0  0  0  0  0  0  0  0
    9.3047  -12.9243    0.0000 O   0  0  0  0  0  0  0  0  0  0  0  0
    6.4471  -12.8859    0.0000 O   0  0  0  0  0  0  0  0  0  0  0  0
    5.7715   -9.9890    0.0000 C   0  0  2  0  0  0  0  0  0  0  0  0
    5.6963   -9.1675    0.0000 O   0  0  0  0  0  0  0  0  0  0  0  0
    4.8917   -8.9851    0.0000 C   0  0  2  0  0  0  0  0  0  0  0  0
    4.4696   -9.6940    0.0000 C   0  0  1  0  0  0  0  0  0  0  0  0
    5.0133  -10.3144    0.0000 C   0  0  1  0  0  0  0  0  0  0  0  0
    3.6480   -9.7692    0.0000 O   0  0  0  0  0  0  0  0  0  0  0  0
    4.8310  -11.1190    0.0000 O   0  0  0  0  0  0  0  0  0  0  0  0
    4.5663   -8.2270    0.0000 C   0  0  0  0  0  0  0  0  0  0  0  0
    3.7775   -8.0156    0.0000 O   0  0  0  0  0  0  0  0  0  0  0  0
  1  2  2  0  0  0  0
  2  3  1  0  0  0  0
  3  4  2  0  0  0  0
  4  5  1  0  0  0  0
  5  6  2  0  0  0  0
  6  1  1  0  0  0  0
  6  7  1  0  0  0  0
  7  8  1  0  0  0  0
  8  9  1  0  0  0  0
 10  9  1  1  0  0  0
 10 11  1  0  0  0  0
 11 12  1  0  0  0  0
 12 13  1  0  0  0  0
 13 14  1  0  0  0  0
 14 15  1  0  0  0  0
 15 10  1  0  0  0  0
 12 16  1  1  0  0  0
 16 17  1  0  0  0  0
 14 18  1  1  0  0  0
 15 19  1  6  0  0  0
 13 20  1  6  0  0  0
 21 17  1  1  0  0  0
 21 22  1  0  0  0  0
 22 23  1  0  0  0  0
 23 24  1  0  0  0  0
 24 25  1  0  0  0  0
 25 21  1  0  0  0  0
 24 26  1  1  0  0  0
 25 27  1  6  0  0  0
 23 28  1  6  0  0  0
 28 29  1  0  0  0  0
M  END
>  <cdx:fragmentId>
5

$$$$
