91975.cdx
  Mrv1902 05222410242D          

  6  5  0  0  0  0            999 V2000
    7.8879   -6.1600    0.0000 C   0  0  0  0  0  0  0  0  0  0  0  0
    7.1734   -6.5725    0.0000 C   0  0  0  0  0  0  0  0  0  0  0  0
    6.4590   -6.1600    0.0000 C   0  0  0  0  0  0  0  0  0  0  0  0
    5.7445   -6.5725    0.0000 C   0  0  0  0  0  0  0  0  0  0  0  0
    5.0300   -6.1600    0.0000 O   0  0  0  0  0  0  0  0  0  0  0  0
    5.7445   -7.3975    0.0000 C   0  0  0  0  0  0  0  0  0  0  0  0
  2  1  1  0  0  0  0
  3  2  1  0  0  0  0
  4  3  1  0  0  0  0
  5  4  1  0  0  0  0
  4  6  1  0  0  0  0
M  END
>  <cdx:fragmentId>
3

$$$$
