91973.cdx
  Mrv1902 05222410252D          

 15 15  0  0  0  0            999 V2000
    6.6256  -10.9175    0.0000 C   0  0  0  0  0  0  0  0  0  0  0  0
    6.6256  -11.7425    0.0000 C   0  0  0  0  0  0  0  0  0  0  0  0
    7.3400  -12.1550    0.0000 C   0  0  0  0  0  0  0  0  0  0  0  0
    8.0545  -11.7425    0.0000 C   0  0  0  0  0  0  0  0  0  0  0  0
    8.0545  -10.9175    0.0000 C   0  0  0  0  0  0  0  0  0  0  0  0
    7.3400  -10.5050    0.0000 C   0  0  0  0  0  0  0  0  0  0  0  0
    5.9111  -10.5050    0.0000 O   0  0  0  0  0  0  0  0  0  0  0  0
    7.3400   -9.6800    0.0000 C   0  0  0  0  0  0  0  0  0  0  0  0
    8.0545   -9.2675    0.0000 C   0  0  0  0  0  0  0  0  0  0  0  0
    8.0545   -8.4425    0.0000 C   0  0  0  0  0  0  0  0  0  0  0  0
    8.7690   -8.0300    0.0000 C   0  0  0  0  0  0  0  0  0  0  0  0
    8.7690   -7.2050    0.0000 C   0  0  0  0  0  0  0  0  0  0  0  0
    9.4834   -6.7925    0.0000 C   0  0  0  0  0  0  0  0  0  0  0  0
    9.4834   -5.9675    0.0000 C   0  0  0  0  0  0  0  0  0  0  0  0
   10.1979   -5.5550    0.0000 C   0  0  0  0  0  0  0  0  0  0  0  0
  1  2  2  0  0  0  0
  2  3  1  0  0  0  0
  3  4  2  0  0  0  0
  4  5  1  0  0  0  0
  5  6  2  0  0  0  0
  6  1  1  0  0  0  0
  1  7  1  0  0  0  0
  6  8  1  0  0  0  0
  8  9  1  0  0  0  0
  9 10  1  0  0  0  0
 10 11  1  0  0  0  0
 11 12  1  0  0  0  0
 12 13  1  0  0  0  0
 13 14  1  0  0  0  0
 14 15  1  0  0  0  0
M  END
>  <cdx:fragmentId>
5

$$$$
