91984.cdx
  Mrv1902 05222410222D          

 10 10  0  0  0  0            999 V2000
    6.7356   -8.5250    0.0000 C   0  0  0  0  0  0  0  0  0  0  0  0
    6.7356   -9.3500    0.0000 C   0  0  0  0  0  0  0  0  0  0  0  0
    7.4500   -9.7625    0.0000 C   0  0  0  0  0  0  0  0  0  0  0  0
    8.1645   -9.3500    0.0000 C   0  0  0  0  0  0  0  0  0  0  0  0
    8.1645   -8.5250    0.0000 C   0  0  0  0  0  0  0  0  0  0  0  0
    7.4500   -8.1125    0.0000 C   0  0  0  0  0  0  0  0  0  0  0  0
    6.0211   -8.1125    0.0000 C   0  0  0  0  0  0  0  0  0  0  0  0
    7.4500   -7.2875    0.0000 C   0  0  0  0  0  0  0  0  0  0  0  0
    6.7356   -6.8750    0.0000 O   0  0  0  0  0  0  0  0  0  0  0  0
    8.1645   -6.8750    0.0000 O   0  0  0  0  0  0  0  0  0  0  0  0
  1  2  2  0  0  0  0
  2  3  1  0  0  0  0
  3  4  2  0  0  0  0
  4  5  1  0  0  0  0
  5  6  2  0  0  0  0
  6  1  1  0  0  0  0
  1  7  1  0  0  0  0
  6  8  1  0  0  0  0
  8  9  2  0  0  0  0
  8 10  1  0  0  0  0
M  END
>  <cdx:fragmentId>
5

$$$$
