91985.cdx
  Mrv1902 05222410232D          

 14 13  0  0  0  0            999 V2000
   11.3624   -6.7788    0.0000 C   0  0  0  0  0  0  0  0  0  0  0  0
   10.6480   -7.1913    0.0000 C   0  0  0  0  0  0  0  0  0  0  0  0
    9.9335   -6.7788    0.0000 C   0  0  0  0  0  0  0  0  0  0  0  0
    9.2190   -7.1913    0.0000 C   0  0  0  0  0  0  0  0  0  0  0  0
    8.5045   -6.7788    0.0000 C   0  0  0  0  0  0  0  0  0  0  0  0
    7.7901   -7.1913    0.0000 C   0  0  0  0  0  0  0  0  0  0  0  0
    7.0756   -6.7788    0.0000 C   0  0  0  0  0  0  0  0  0  0  0  0
    6.3611   -7.1913    0.0000 C   0  0  0  0  0  0  0  0  0  0  0  0
    5.6467   -6.7788    0.0000 C   0  0  0  0  0  0  0  0  0  0  0  0
    4.9322   -7.1913    0.0000 C   0  0  0  0  0  0  0  0  0  0  0  0
    4.2177   -6.7788    0.0000 C   0  0  0  0  0  0  0  0  0  0  0  0
    3.5032   -7.1913    0.0000 C   0  0  0  0  0  0  0  0  0  0  0  0
    2.7888   -6.7788    0.0000 C   0  0  0  0  0  0  0  0  0  0  0  0
    3.5032   -8.0162    0.0000 O   0  0  0  0  0  0  0  0  0  0  0  0
  2  1  1  0  0  0  0
  3  2  1  0  0  0  0
  4  3  1  0  0  0  0
  5  4  1  0  0  0  0
  6  5  1  0  0  0  0
  7  6  1  0  0  0  0
  8  7  1  0  0  0  0
  9  8  1  0  0  0  0
 10  9  1  0  0  0  0
 11 10  1  0  0  0  0
 12 11  1  0  0  0  0
 13 12  1  0  0  0  0
 12 14  2  0  0  0  0
M  END
>  <cdx:fragmentId>
3

$$$$
