91988.cdx
  Mrv1902 05222410232D          

 20 22  0  0  0  0            999 V2000
    5.5269   -8.5156    0.0000 C   0  0  0  0  0  0  0  0  0  0  0  0
    5.4233   -5.6133    0.0000 O   0  0  0  0  0  0  0  0  0  0  0  0
    5.7060   -6.3883    0.0000 C   0  0  1  0  0  0  0  0  0  0  0  0
    5.2452   -7.0726    0.0000 C   0  0  0  0  0  0  0  0  0  0  0  0
    5.7537   -7.7224    0.0000 C   0  0  2  0  0  0  0  0  0  0  0  0
    6.4992   -6.6151    0.0000 C   0  0  2  0  0  0  0  0  0  0  0  0
    6.5287   -7.4396    0.0000 C   0  0  2  0  0  0  0  0  0  0  0  0
    6.4698   -5.7906    0.0000 H   0  0  0  0  0  0  0  0  0  0  0  0
    6.5581   -8.2641    0.0000 H   0  0  0  0  0  0  0  0  0  0  0  0
    7.1916   -7.9306    0.0000 C   0  0  0  0  0  0  0  0  0  0  0  0
    7.9889   -7.7184    0.0000 C   0  0  1  0  0  0  0  0  0  0  0  0
    8.3201   -6.9629    0.0000 C   0  0  0  0  0  0  0  0  0  0  0  0
    7.9358   -6.2328    0.0000 C   0  0  0  0  0  0  0  0  0  0  0  0
    7.1255   -6.0780    0.0000 C   0  0  2  0  0  0  0  0  0  0  0  0
    6.9133   -5.2808    0.0000 C   0  0  0  0  0  0  0  0  0  0  0  0
    8.5260   -8.3447    0.0000 C   0  0  0  0  0  0  0  0  0  0  0  0
    8.2521   -9.1229    0.0000 C   0  0  0  0  0  0  0  0  0  0  0  0
    9.3368   -8.1927    0.0000 C   0  0  0  0  0  0  0  0  0  0  0  0
    7.7754   -8.5153    0.0000 O   0  0  0  0  0  0  0  0  0  0  0  0
    7.9750   -6.8475    0.0000 O   0  0  0  0  0  0  0  0  0  0  0  0
  5  1  1  6  0  0  0
  3  2  1  6  0  0  0
  3  6  1  0  0  0  0
  4  3  1  0  0  0  0
  5  4  1  0  0  0  0
  7  5  1  0  0  0  0
  7  6  1  0  0  0  0
  6  8  1  6  0  0  0
  7  9  1  1  0  0  0
  7 10  1  0  0  0  0
 10 11  1  0  0  0  0
 11 12  1  0  0  0  0
 12 13  1  0  0  0  0
 13 14  1  0  0  0  0
 14  6  1  0  0  0  0
 14 15  1  6  0  0  0
 11 16  1  1  0  0  0
 16 17  1  0  0  0  0
 16 18  1  0  0  0  0
 11 19  1  6  0  0  0
 14 20  1  1  0  0  0
 20 16  1  0  0  0  0
M  END
>  <cdx:fragmentId>
109

$$$$
