91983.cdx
  Mrv1902 05222410212D          

  8  8  0  0  0  0            999 V2000
    6.8839   -7.0745    0.0000 C   0  0  0  0  0  0  0  0  0  0  0  0
    6.6367   -7.8616    0.0000 C   0  0  0  0  0  0  0  0  0  0  0  0
    7.3088   -8.3399    0.0000 N   0  0  0  0  0  0  0  0  0  0  0  0
    7.9715   -7.8485    0.0000 N   0  0  0  0  0  0  0  0  0  0  0  0
    7.7088   -7.0664    0.0000 C   0  0  0  0  0  0  0  0  0  0  0  0
    6.3924   -6.4119    0.0000 C   0  0  0  0  0  0  0  0  0  0  0  0
    8.1872   -6.3942    0.0000 C   0  0  0  0  0  0  0  0  0  0  0  0
    7.3169   -9.1649    0.0000 C   0  0  0  0  0  0  0  0  0  0  0  0
  1  2  1  0  0  0  0
  2  3  1  0  0  0  0
  3  4  1  0  0  0  0
  4  5  2  0  0  0  0
  5  1  1  0  0  0  0
  1  6  1  0  0  0  0
  5  7  1  0  0  0  0
  3  8  1  0  0  0  0
M  END
>  <cdx:fragmentId>
5

$$$$
