91986.cdx
  Mrv1902 05222410222D          

 12 11  0  0  0  0            999 V2000
   10.7860   -6.8338    0.0000 C   0  0  0  0  0  0  0  0  0  0  0  0
   10.0715   -7.2462    0.0000 C   0  0  0  0  0  0  0  0  0  0  0  0
    9.3570   -6.8338    0.0000 C   0  0  0  0  0  0  0  0  0  0  0  0
    8.6426   -7.2462    0.0000 C   0  0  0  0  0  0  0  0  0  0  0  0
    7.9281   -6.8338    0.0000 C   0  0  0  0  0  0  0  0  0  0  0  0
    7.2136   -7.2462    0.0000 C   0  0  0  0  0  0  0  0  0  0  0  0
    6.4992   -6.8338    0.0000 C   0  0  0  0  0  0  0  0  0  0  0  0
    5.7847   -7.2462    0.0000 C   0  0  0  0  0  0  0  0  0  0  0  0
    5.0702   -6.8338    0.0000 C   0  0  0  0  0  0  0  0  0  0  0  0
    4.3557   -7.2462    0.0000 C   0  0  0  0  0  0  0  0  0  0  0  0
    3.6413   -6.8338    0.0000 O   0  0  0  0  0  0  0  0  0  0  0  0
    4.3557   -8.0713    0.0000 C   0  0  0  0  0  0  0  0  0  0  0  0
  2  1  1  0  0  0  0
  3  2  1  0  0  0  0
  4  3  1  0  0  0  0
  5  4  1  0  0  0  0
  6  5  1  0  0  0  0
  7  6  1  0  0  0  0
  8  7  1  0  0  0  0
  9  8  1  0  0  0  0
 10  9  1  0  0  0  0
 11 10  1  0  0  0  0
 10 12  1  0  0  0  0
M  END
>  <cdx:fragmentId>
3

$$$$
