91992.cdx
  Mrv1902 05222410222D          

 14 14  0  0  0  0            999 V2000
    4.7171   -6.7036    0.0000 C   0  0  0  0  0  0  0  0  0  0  0  0
    5.4323   -7.1147    0.0000 C   0  0  0  0  0  0  0  0  0  0  0  0
    6.1460   -6.7009    0.0000 C   0  0  0  0  0  0  0  0  0  0  0  0
    6.1445   -5.8759    0.0000 C   0  0  0  0  0  0  0  0  0  0  0  0
    5.4293   -5.4647    0.0000 C   0  0  0  0  0  0  0  0  0  0  0  0
    4.7156   -5.8786    0.0000 C   0  0  0  0  0  0  0  0  0  0  0  0
    4.0003   -5.4674    0.0000 O   0  0  0  0  0  0  0  0  0  0  0  0
    3.2859   -5.8799    0.0000 C   0  0  0  0  0  0  0  0  0  0  0  0
    4.0034   -7.1174    0.0000 O   0  0  0  0  0  0  0  0  0  0  0  0
    4.0049   -7.9424    0.0000 C   0  0  0  0  0  0  0  0  0  0  0  0
    6.8582   -5.4621    0.0000 C   0  0  0  0  0  0  0  0  0  0  0  0
    7.5735   -5.8733    0.0000 C   0  0  0  0  0  0  0  0  0  0  0  0
    8.2872   -5.4595    0.0000 C   0  0  0  0  0  0  0  0  0  0  0  0
    9.0024   -5.8707    0.0000 O   0  0  0  0  0  0  0  0  0  0  0  0
  1  2  2  0  0  0  0
  2  3  1  0  0  0  0
  3  4  2  0  0  0  0
  4  5  1  0  0  0  0
  5  6  2  0  0  0  0
  6  1  1  0  0  0  0
  6  7  1  0  0  0  0
  7  8  1  0  0  0  0
  1  9  1  0  0  0  0
  9 10  1  0  0  0  0
  4 11  1  0  0  0  0
 11 12  1  0  0  0  0
 12 13  1  0  0  0  0
 13 14  1  0  0  0  0
M  END
>  <cdx:fragmentId>
5

$$$$
