91995.cdx
  Mrv1902 05222410202D          

 23 25  0  0  0  0            999 V2000
   10.6818   -4.2721    0.0000 O   0  0  0  0  0  0  0  0  0  0  0  0
    4.2397   -5.4465    0.0000 O   0  0  0  0  0  0  0  0  0  0  0  0
    3.5212   -5.8519    0.0000 C   0  0  0  0  0  0  0  0  0  0  0  0
    9.9552   -5.5026    0.0000 C   0  0  0  0  0  0  0  0  0  0  0  0
    9.9633   -4.6776    0.0000 C   0  0  0  0  0  0  0  0  0  0  0  0
    9.2529   -4.2581    0.0000 C   0  0  0  0  0  0  0  0  0  0  0  0
    8.5344   -4.6636    0.0000 C   0  0  0  0  0  0  0  0  0  0  0  0
    8.5101   -7.1385    0.0000 O   0  0  0  0  0  0  0  0  0  0  0  0
    9.2367   -5.9080    0.0000 C   0  0  0  0  0  0  0  0  0  0  0  0
    8.5263   -5.4886    0.0000 C   0  0  0  0  0  0  0  0  0  0  0  0
    5.6443   -7.9354    0.0000 O   0  0  0  0  0  0  0  0  0  0  0  0
    7.0732   -7.9494    0.0000 O   0  0  0  0  0  0  0  0  0  0  0  0
    7.0813   -7.1244    0.0000 C   0  0  0  0  0  0  0  0  0  0  0  0
    7.7998   -6.7190    0.0000 C   0  0  0  0  0  0  0  0  0  0  0  0
    7.8079   -5.8940    0.0000 C   0  0  0  0  0  0  0  0  0  0  0  0
    7.0975   -5.4745    0.0000 O   0  0  0  0  0  0  0  0  0  0  0  0
    5.6524   -7.1104    0.0000 C   0  0  0  0  0  0  0  0  0  0  0  0
    6.3709   -6.7050    0.0000 C   0  0  0  0  0  0  0  0  0  0  0  0
    6.3790   -5.8800    0.0000 C   0  0  0  0  0  0  0  0  0  0  0  0
    5.6686   -5.4605    0.0000 C   0  0  0  0  0  0  0  0  0  0  0  0
    4.9501   -5.8660    0.0000 C   0  0  0  0  0  0  0  0  0  0  0  0
    4.9420   -6.6909    0.0000 C   0  0  0  0  0  0  0  0  0  0  0  0
    9.2610   -3.4332    0.0000 O   0  0  0  0  0  0  0  0  0  0  0  0
  5  1  1  0  0  0  0
  2 21  1  0  0  0  0
  3  2  1  0  0  0  0
  4  9  1  0  0  0  0
  5  4  2  0  0  0  0
  6  5  1  0  0  0  0
  7  6  2  0  0  0  0
 10  7  1  0  0  0  0
  8 14  1  0  0  0  0
 10  9  2  0  0  0  0
 15 10  1  0  0  0  0
 11 17  1  0  0  0  0
 13 12  2  0  0  0  0
 13 18  1  0  0  0  0
 14 13  1  0  0  0  0
 15 14  2  0  0  0  0
 16 15  1  0  0  0  0
 19 16  1  0  0  0  0
 17 22  1  0  0  0  0
 18 17  2  0  0  0  0
 19 18  1  0  0  0  0
 20 19  2  0  0  0  0
 21 20  1  0  0  0  0
 22 21  2  0  0  0  0
  6 23  1  0  0  0  0
M  END
>  <cdx:fragmentId>
5

$$$$
