91993.cdx
  Mrv1902 05222410222D          

 15 15  0  0  0  0            999 V2000
    5.9931   -6.6413    0.0000 C   0  0  0  0  0  0  0  0  0  0  0  0
    5.9931   -7.4663    0.0000 C   0  0  0  0  0  0  0  0  0  0  0  0
    6.7075   -7.8788    0.0000 C   0  0  0  0  0  0  0  0  0  0  0  0
    7.4220   -7.4663    0.0000 C   0  0  0  0  0  0  0  0  0  0  0  0
    7.4220   -6.6413    0.0000 C   0  0  0  0  0  0  0  0  0  0  0  0
    6.7075   -6.2287    0.0000 C   0  0  0  0  0  0  0  0  0  0  0  0
    6.7075   -5.4037    0.0000 C   0  0  0  0  0  0  0  0  0  0  0  0
    6.7075   -4.5788    0.0000 C   0  0  0  0  0  0  0  0  0  0  0  0
    7.5325   -5.4037    0.0000 C   0  0  0  0  0  0  0  0  0  0  0  0
    5.8825   -5.4037    0.0000 C   0  0  0  0  0  0  0  0  0  0  0  0
    6.7075   -8.7037    0.0000 C   0  0  0  0  0  0  0  0  0  0  0  0
    5.9931   -9.1162    0.0000 C   0  0  0  0  0  0  0  0  0  0  0  0
    5.9931   -9.9413    0.0000 C   0  0  0  0  0  0  0  0  0  0  0  0
    5.2786   -8.7037    0.0000 C   0  0  0  0  0  0  0  0  0  0  0  0
    5.2786  -10.3537    0.0000 O   0  0  0  0  0  0  0  0  0  0  0  0
  1  2  2  0  0  0  0
  2  3  1  0  0  0  0
  3  4  2  0  0  0  0
  4  5  1  0  0  0  0
  5  6  2  0  0  0  0
  6  1  1  0  0  0  0
  6  7  1  0  0  0  0
  7  8  1  0  0  0  0
  7  9  1  0  0  0  0
  7 10  1  0  0  0  0
  3 11  1  0  0  0  0
 11 12  1  0  0  0  0
 12 13  1  0  0  0  0
 12 14  1  0  0  0  0
 13 15  2  0  0  0  0
M  END
>  <cdx:fragmentId>
5

$$$$
