91994.cdx
  Mrv1902 05222410212D          

 42 46  0  0  0  0            999 V2000
    5.7043   -3.4238    0.0000 C   0  0  0  0  0  0  0  0  0  0  0  0
    5.7043   -4.2488    0.0000 C   0  0  0  0  0  0  0  0  0  0  0  0
    6.4188   -4.6612    0.0000 C   0  0  0  0  0  0  0  0  0  0  0  0
    7.1332   -4.2488    0.0000 C   0  0  0  0  0  0  0  0  0  0  0  0
    7.1332   -3.4238    0.0000 C   0  0  0  0  0  0  0  0  0  0  0  0
    6.4188   -3.0112    0.0000 C   0  0  0  0  0  0  0  0  0  0  0  0
    7.1332   -5.8988    0.0000 O   0  0  0  0  0  0  0  0  0  0  0  0
    7.8477   -5.4863    0.0000 C   0  0  0  0  0  0  0  0  0  0  0  0
    7.8477   -4.6612    0.0000 C   0  0  0  0  0  0  0  0  0  0  0  0
    8.5622   -5.8988    0.0000 C   0  0  0  0  0  0  0  0  0  0  0  0
    9.2767   -5.4863    0.0000 C   0  0  0  0  0  0  0  0  0  0  0  0
    9.2767   -4.6612    0.0000 C   0  0  0  0  0  0  0  0  0  0  0  0
    8.5622   -4.2488    0.0000 O   0  0  0  0  0  0  0  0  0  0  0  0
    9.9911   -5.8988    0.0000 C   0  0  0  0  0  0  0  0  0  0  0  0
   10.7056   -5.4863    0.0000 C   0  0  0  0  0  0  0  0  0  0  0  0
   10.7056   -4.6612    0.0000 C   0  0  0  0  0  0  0  0  0  0  0  0
    9.9911   -4.2488    0.0000 C   0  0  0  0  0  0  0  0  0  0  0  0
    8.5622   -6.7237    0.0000 O   0  0  0  0  0  0  0  0  0  0  0  0
    9.9911   -6.7237    0.0000 O   0  0  0  0  0  0  0  0  0  0  0  0
    7.1332   -6.7237    0.0000 C   0  0  2  0  0  0  0  0  0  0  0  0
    7.8477   -7.1362    0.0000 O   0  0  0  0  0  0  0  0  0  0  0  0
    6.4188   -7.1362    0.0000 C   0  0  1  0  0  0  0  0  0  0  0  0
    6.4188   -7.9612    0.0000 C   0  0  1  0  0  0  0  0  0  0  0  0
    7.1332   -8.3737    0.0000 C   0  0  2  0  0  0  0  0  0  0  0  0
    7.8477   -7.9612    0.0000 C   0  0  2  0  0  0  0  0  0  0  0  0
    5.7043   -8.3737    0.0000 O   0  0  0  0  0  0  0  0  0  0  0  0
    5.7043   -9.1987    0.0000 C   0  0  0  0  0  0  0  0  0  0  0  0
    6.4188   -9.6112    0.0000 O   0  0  0  0  0  0  0  0  0  0  0  0
    7.1332   -9.1987    0.0000 O   0  0  0  0  0  0  0  0  0  0  0  0
    4.9898   -9.6112    0.0000 C   0  0  0  0  0  0  0  0  0  0  0  0
    4.9898  -10.4363    0.0000 C   0  0  0  0  0  0  0  0  0  0  0  0
    3.5609  -10.4363    0.0000 C   0  0  0  0  0  0  0  0  0  0  0  0
    4.2754  -10.8487    0.0000 C   0  0  0  0  0  0  0  0  0  0  0  0
    2.8464  -10.8487    0.0000 C   0  0  0  0  0  0  0  0  0  0  0  0
    2.8464  -11.6737    0.0000 C   0  0  0  0  0  0  0  0  0  0  0  0
    3.5609  -12.0862    0.0000 C   0  0  0  0  0  0  0  0  0  0  0  0
    4.2754  -11.6737    0.0000 C   0  0  0  0  0  0  0  0  0  0  0  0
    6.4188   -2.1863    0.0000 O   0  0  0  0  0  0  0  0  0  0  0  0
    4.9898   -3.0112    0.0000 O   0  0  0  0  0  0  0  0  0  0  0  0
   11.4201   -4.2487    0.0000 O   0  0  0  0  0  0  0  0  0  0  0  0
    5.7043   -6.7237    0.0000 O   0  0  0  0  0  0  0  0  0  0  0  0
    8.5622   -8.3737    0.0000 C   0  0  0  0  0  0  0  0  0  0  0  0
  1  2  2  0  0  0  0
  2  3  1  0  0  0  0
  3  4  2  0  0  0  0
  4  5  1  0  0  0  0
  5  6  2  0  0  0  0
  6  1  1  0  0  0  0
  7  8  1  0  0  0  0
  8  9  2  0  0  0  0
  9  4  1  0  0  0  0
  8 10  1  0  0  0  0
 10 11  1  0  0  0  0
 11 12  1  0  0  0  0
 12 13  1  0  0  0  0
 13  9  1  0  0  0  0
 11 14  2  0  0  0  0
 14 15  1  0  0  0  0
 15 16  2  0  0  0  0
 16 17  1  0  0  0  0
 17 12  2  0  0  0  0
 10 18  2  0  0  0  0
 19 14  1  0  0  0  0
 20  7  1  6  0  0  0
 20 21  1  0  0  0  0
 20 22  1  0  0  0  0
 22 23  1  0  0  0  0
 23 24  1  0  0  0  0
 24 25  1  0  0  0  0
 25 21  1  0  0  0  0
 23 26  1  1  0  0  0
 26 27  1  0  0  0  0
 27 28  2  0  0  0  0
 24 29  1  6  0  0  0
 27 30  1  0  0  0  0
 30 31  2  0  0  0  0
 32 33  1  0  0  0  0
 33 31  1  0  0  0  0
 32 34  2  0  0  0  0
 34 35  1  0  0  0  0
 35 36  2  0  0  0  0
 36 37  1  0  0  0  0
 37 33  2  0  0  0  0
  6 38  1  0  0  0  0
  1 39  1  0  0  0  0
 16 40  1  0  0  0  0
 22 41  1  1  0  0  0
 25 42  1  1  0  0  0
M  END
>  <cdx:fragmentId>
5

$$$$
