91991.cdx
  Mrv1902 05222410232D          

 37 41  0  0  0  0            999 V2000
   11.2126   -7.7830    0.0000 C   0  0  0  0  0  0  0  0  0  0  0  0
    6.5278   -9.8207    0.0000 C   0  0  0  0  0  0  0  0  0  0  0  0
    6.5278   -8.9957    0.0000 C   0  0  2  0  0  0  0  0  0  0  0  0
    7.2423   -8.5832    0.0000 C   0  0  0  0  0  0  0  0  0  0  0  0
    7.2423  -10.2332    0.0000 C   0  0  2  0  0  0  0  0  0  0  0  0
    7.9568   -9.8207    0.0000 C   0  0  1  0  0  0  0  0  0  0  0  0
    7.9568  -10.6457    0.0000 H   0  0  0  0  0  0  0  0  0  0  0  0
    8.6712  -10.2332    0.0000 C   0  0  0  0  0  0  0  0  0  0  0  0
    9.3857   -9.8207    0.0000 C   0  0  0  0  0  0  0  0  0  0  0  0
    9.3857   -8.9957    0.0000 C   0  0  1  0  0  0  0  0  0  0  0  0
    8.6712   -8.5832    0.0000 C   0  0  2  0  0  0  0  0  0  0  0  0
    8.6712   -9.4082    0.0000 H   0  0  0  0  0  0  0  0  0  0  0  0
    7.9568   -8.9957    0.0000 C   0  0  2  0  0  0  0  0  0  0  0  0
    7.9568   -8.1707    0.0000 C   0  0  0  0  0  0  0  0  0  0  0  0
   10.1537   -8.6943    0.0000 C   0  0  2  0  0  0  0  0  0  0  0  0
   10.3968   -7.9059    0.0000 C   0  0  0  0  0  0  0  0  0  0  0  0
    9.9321   -7.2243    0.0000 C   0  0  1  0  0  0  0  0  0  0  0  0
    9.1483   -7.9515    0.0000 C   0  0  0  0  0  0  0  0  0  0  0  0
    9.1094   -7.1626    0.0000 C   0  0  0  0  0  0  0  0  0  0  0  0
    8.5483   -7.7674    0.0000 C   0  0  0  0  0  0  0  0  0  0  0  0
   10.7584   -9.2554    0.0000 O   0  0  0  0  0  0  0  0  0  0  0  0
    5.8133   -8.5832    0.0000 O   0  0  0  0  0  0  0  0  0  0  0  0
    5.8133   -7.7582    0.0000 C   0  0  2  0  0  0  0  0  0  0  0  0
    6.5278   -7.3457    0.0000 O   0  0  0  0  0  0  0  0  0  0  0  0
    6.5278   -6.5207    0.0000 C   0  0  1  0  0  0  0  0  0  0  0  0
    5.8133   -6.1082    0.0000 C   0  0  2  0  0  0  0  0  0  0  0  0
    5.0989   -6.5207    0.0000 C   0  0  1  0  0  0  0  0  0  0  0  0
    5.0989   -7.3457    0.0000 C   0  0  1  0  0  0  0  0  0  0  0  0
    4.3844   -6.1082    0.0000 O   0  0  0  0  0  0  0  0  0  0  0  0
    7.2423   -6.1082    0.0000 C   0  0  0  0  0  0  0  0  0  0  0  0
    4.3844   -7.7582    0.0000 O   0  0  0  0  0  0  0  0  0  0  0  0
    5.8133   -5.2832    0.0000 O   0  0  0  0  0  0  0  0  0  0  0  0
    7.2423   -5.2832    0.0000 O   0  0  0  0  0  0  0  0  0  0  0  0
    7.2423  -11.0582    0.0000 C   0  0  0  0  0  0  0  0  0  0  0  0
    7.9568  -11.4707    0.0000 O   0  0  0  0  0  0  0  0  0  0  0  0
    6.5278  -11.4707    0.0000 O   0  0  0  0  0  0  0  0  0  0  0  0
   10.3446   -6.5098    0.0000 H   0  0  0  0  0  0  0  0  0  0  0  0
  2  3  1  0  0  0  0
  3  4  1  0  0  0  0
  2  5  1  0  0  0  0
  5  6  1  0  0  0  0
  6  7  1  1  0  0  0
  6  8  1  0  0  0  0
  8  9  1  0  0  0  0
 10  9  1  6  0  0  0
 10 11  1  0  0  0  0
 11 12  1  1  0  0  0
 11 13  1  0  0  0  0
  4 13  1  0  0  0  0
  6 13  1  0  0  0  0
 13 14  1  6  0  0  0
 10 15  1  0  0  0  0
 15 16  1  0  0  0  0
  1 16  2  0  0  0  0
 16 17  1  0  0  0  0
 17 18  1  0  0  0  0
 10 18  1  0  0  0  0
 17 19  1  0  0  0  0
 19 20  1  0  0  0  0
 11 20  1  0  0  0  0
 15 21  1  6  0  0  0
  3 22  1  1  0  0  0
 23 22  1  1  0  0  0
 23 24  1  0  0  0  0
 24 25  1  0  0  0  0
 25 26  1  0  0  0  0
 26 27  1  0  0  0  0
 27 28  1  0  0  0  0
 28 23  1  0  0  0  0
 27 29  1  1  0  0  0
 25 30  1  1  0  0  0
 28 31  1  6  0  0  0
 26 32  1  6  0  0  0
 30 33  1  0  0  0  0
  5 34  1  6  0  0  0
 34 35  2  0  0  0  0
 34 36  1  0  0  0  0
 17 37  1  6  0  0  0
M  END
>  <cdx:fragmentId>
7

$$$$
