92.cdx
  Mrv1902 05222410242D          

 57 61  0  0  0  0            999 V2000
   14.3954   -9.9049    0.0000 C   0  0  0  0  0  0  0  0  0  0  0  0
   14.3954  -10.7299    0.0000 C   0  0  1  0  0  0  0  0  0  0  0  0
   15.1099  -11.1424    0.0000 C   0  0  0  0  0  0  0  0  0  0  0  0
   15.8243  -10.7299    0.0000 C   0  0  2  0  0  0  0  0  0  0  0  0
   15.8243   -9.9049    0.0000 C   0  0  2  0  0  0  0  0  0  0  0  0
   15.1099   -9.4924    0.0000 C   0  0  1  0  0  0  0  0  0  0  0  0
   16.5388  -11.1424    0.0000 C   0  0  0  0  0  0  0  0  0  0  0  0
   17.2533  -10.7299    0.0000 C   0  0  0  0  0  0  0  0  0  0  0  0
   17.2533   -9.9049    0.0000 C   0  0  2  0  0  0  0  0  0  0  0  0
   16.5388   -9.4924    0.0000 C   0  0  2  0  0  0  0  0  0  0  0  0
   17.9677   -9.4924    0.0000 C   0  0  2  0  0  0  0  0  0  0  0  0
   17.9677   -8.6674    0.0000 C   0  0  2  0  0  0  0  0  0  0  0  0
   17.2533   -8.2549    0.0000 C   0  0  0  0  0  0  0  0  0  0  0  0
   16.5388   -8.6674    0.0000 C   0  0  2  0  0  0  0  0  0  0  0  0
   18.7524   -9.7473    0.0000 C   0  0  0  0  0  0  0  0  0  0  0  0
   19.2373   -9.0799    0.0000 C   0  0  2  0  0  0  0  0  0  0  0  0
   18.7524   -8.4125    0.0000 C   0  0  2  0  0  0  0  0  0  0  0  0
   19.0073   -7.6278    0.0000 C   0  0  0  0  0  0  0  0  0  0  0  0
   19.8143   -7.4563    0.0000 C   0  0  0  0  0  0  0  0  0  0  0  0
   18.4553   -7.0147    0.0000 C   0  0  0  0  0  0  0  0  0  0  0  0
   20.0692   -6.6717    0.0000 C   0  0  0  0  0  0  0  0  0  0  0  0
   18.7102   -6.2301    0.0000 O   0  0  0  0  0  0  0  0  0  0  0  0
   19.5172   -6.0586    0.0000 C   0  0  0  0  0  0  0  0  0  0  0  0
   19.7721   -5.2740    0.0000 O   0  0  0  0  0  0  0  0  0  0  0  0
   13.6809  -11.1424    0.0000 O   0  0  0  0  0  0  0  0  0  0  0  0
   15.8243   -9.0799    0.0000 C   0  0  0  0  0  0  0  0  0  0  0  0
   15.8243  -11.5549    0.0000 O   0  0  0  0  0  0  0  0  0  0  0  0
   18.0540   -7.8469    0.0000 C   0  0  0  0  0  0  0  0  0  0  0  0
   20.0623   -9.0799    0.0000 H   0  0  0  0  0  0  0  0  0  0  0  0
   18.0540  -10.3129    0.0000 O   0  0  0  0  0  0  0  0  0  0  0  0
   15.8243   -8.2549    0.0000 H   0  0  0  0  0  0  0  0  0  0  0  0
   15.1099  -10.3174    0.0000 H   0  0  0  0  0  0  0  0  0  0  0  0
   15.1099   -8.6674    0.0000 O   0  0  0  0  0  0  0  0  0  0  0  0
   12.9664  -10.7299    0.0000 C   0  0  0  0  0  0  0  0  0  0  0  0
   12.2520  -11.1424    0.0000 C   0  0  0  0  0  0  0  0  0  0  0  0
   12.9664   -9.9049    0.0000 O   0  0  0  0  0  0  0  0  0  0  0  0
   11.5375  -10.7299    0.0000 C   0  0  0  0  0  0  0  0  0  0  0  0
   10.8230  -11.1424    0.0000 C   0  0  0  0  0  0  0  0  0  0  0  0
    8.6786  -10.7299    0.0000 C   0  0  0  0  0  0  0  0  0  0  0  0
    7.9641  -11.1424    0.0000 C   0  0  0  0  0  0  0  0  0  0  0  0
    7.2496  -10.7299    0.0000 N   0  0  0  0  0  0  0  0  0  0  0  0
    7.9641  -11.9674    0.0000 O   0  0  0  0  0  0  0  0  0  0  0  0
    6.5351  -11.1424    0.0000 C   0  0  2  0  0  0  0  0  0  0  0  0
    5.8207  -10.7299    0.0000 C   0  0  0  0  0  0  0  0  0  0  0  0
    6.5351  -11.9674    0.0000 C   0  0  0  0  0  0  0  0  0  0  0  0
    5.1062  -11.1424    0.0000 O   0  0  0  0  0  0  0  0  0  0  0  0
    5.8207   -9.9049    0.0000 O   0  0  0  0  0  0  0  0  0  0  0  0
    5.8207  -12.3799    0.0000 C   0  0  0  0  0  0  0  0  0  0  0  0
    5.8207  -13.2049    0.0000 C   0  0  0  0  0  0  0  0  0  0  0  0
    5.1062  -13.6174    0.0000 N   0  0  0  0  0  0  0  0  0  0  0  0
    5.1062  -14.4424    0.0000 C   0  0  0  0  0  0  0  0  0  0  0  0
    5.8207  -14.8549    0.0000 N   0  0  0  0  0  0  0  0  0  0  0  0
    4.3917  -14.8549    0.0000 N   0  0  0  0  0  0  0  0  0  0  0  0
   10.1086  -10.7299    0.0000 C   0  0  0  0  0  0  0  0  0  0  0  0
    9.3941  -11.1424    0.0000 C   0  0  0  0  0  0  0  0  0  0  0  0
   16.5388  -10.3174    0.0000 H   0  0  0  0  0  0  0  0  0  0  0  0
   17.2533   -9.0799    0.0000 H   0  0  0  0  0  0  0  0  0  0  0  0
  1  2  1  0  0  0  0
  2  3  1  0  0  0  0
  3  4  1  0  0  0  0
  4  5  1  0  0  0  0
  5  6  1  0  0  0  0
  6  1  1  0  0  0  0
  4  7  1  0  0  0  0
  7  8  1  0  0  0  0
  8  9  1  0  0  0  0
  9 10  1  0  0  0  0
 10  5  1  0  0  0  0
  9 11  1  0  0  0  0
 11 12  1  0  0  0  0
 12 13  1  0  0  0  0
 13 14  1  0  0  0  0
 14 10  1  0  0  0  0
 11 15  1  0  0  0  0
 15 16  1  0  0  0  0
 16 17  1  0  0  0  0
 17 12  1  0  0  0  0
 17 18  1  1  0  0  0
 18 19  1  0  0  0  0
 18 20  2  0  0  0  0
 19 21  2  0  0  0  0
 20 22  1  0  0  0  0
 21 23  1  0  0  0  0
 22 23  1  0  0  0  0
 23 24  2  0  0  0  0
  2 25  1  1  0  0  0
  5 26  1  1  0  0  0
  4 27  1  1  0  0  0
 12 28  1  1  0  0  0
 16 29  1  1  0  0  0
 11 30  1  1  0  0  0
 14 31  1  6  0  0  0
  6 32  1  1  0  0  0
 26 33  2  0  0  0  0
 25 34  1  0  0  0  0
 34 35  1  0  0  0  0
 34 36  2  0  0  0  0
 35 37  1  0  0  0  0
 37 38  1  0  0  0  0
 39 40  1  0  0  0  0
 40 41  1  0  0  0  0
 40 42  2  0  0  0  0
 43 41  1  1  0  0  0
 43 44  1  0  0  0  0
 43 45  1  0  0  0  0
 44 46  1  0  0  0  0
 44 47  2  0  0  0  0
 45 48  1  0  0  0  0
 48 49  1  0  0  0  0
 49 50  1  0  0  0  0
 50 51  2  0  0  0  0
 51 52  1  0  0  0  0
 51 53  1  0  0  0  0
 38 54  1  0  0  0  0
 54 55  1  0  0  0  0
 39 55  1  0  0  0  0
 10 56  1  6  0  0  0
  9 57  1  1  0  0  0
M  END
>  <cdx:fragmentId>
5

$$$$
