92007.cdx
  Mrv1902 05222410272D          

 31 33  0  0  0  0            999 V2000
    3.7959   -6.7527    0.0000 C   0  0  0  0  0  0  0  0  0  0  0  0
    6.9590   -8.6955    0.0000 C   0  0  0  0  0  0  0  0  0  0  0  0
   10.2208   -4.6736    0.0000 O   0  0  0  0  0  0  0  0  0  0  0  0
    7.3629   -4.6810    0.0000 O   0  0  0  0  0  0  0  0  0  0  0  0
    5.9340   -4.6847    0.0000 C   0  0  0  0  0  0  0  0  0  0  0  0
    5.9361   -5.5097    0.0000 C   0  0  0  0  0  0  0  0  0  0  0  0
    5.2227   -5.9240    0.0000 C   0  0  0  0  0  0  0  0  0  0  0  0
    8.0806   -5.9166    0.0000 O   0  0  0  0  0  0  0  0  0  0  0  0
    7.3651   -5.5060    0.0000 C   0  0  0  0  0  0  0  0  0  0  0  0
    6.6517   -5.9203    0.0000 C   0  0  0  0  0  0  0  0  0  0  0  0
   10.9406   -6.7342    0.0000 C   0  0  0  0  0  0  0  0  0  0  0  0
   10.9385   -5.9092    0.0000 C   0  0  0  0  0  0  0  0  0  0  0  0
   10.2229   -5.4986    0.0000 C   0  0  0  0  0  0  0  0  0  0  0  0
    9.5095   -5.9129    0.0000 O   0  0  0  0  0  0  0  0  0  0  0  0
    9.5159   -8.3879    0.0000 C   0  0  0  0  0  0  0  0  0  0  0  0
   10.2293   -7.9736    0.0000 C   0  0  0  0  0  0  0  0  0  0  0  0
   10.2272   -7.1486    0.0000 C   0  0  0  0  0  0  0  0  0  0  0  0
    9.5117   -6.7379    0.0000 C   0  0  0  0  0  0  0  0  0  0  0  0
    8.0870   -8.3916    0.0000 O   0  0  0  0  0  0  0  0  0  0  0  0
    8.8004   -7.9773    0.0000 C   0  0  0  0  0  0  0  0  0  0  0  0
    8.7983   -7.1523    0.0000 C   0  0  0  0  0  0  0  0  0  0  0  0
    8.0827   -6.7416    0.0000 C   0  0  2  0  0  0  0  0  0  0  0  0
    6.5465   -7.9810    0.0000 C   0  0  0  0  0  0  0  0  0  0  0  0
    7.3715   -7.9810    0.0000 C   0  0  0  0  0  0  0  0  0  0  0  0
    7.3693   -7.1560    0.0000 C   0  0  2  0  0  0  0  0  0  0  0  0
    6.6538   -6.7453    0.0000 O   0  0  0  0  0  0  0  0  0  0  0  0
    5.9425   -7.9847    0.0000 O   0  0  0  0  0  0  0  0  0  0  0  0
    5.9404   -7.1597    0.0000 C   0  0  0  0  0  0  0  0  0  0  0  0
    5.2249   -6.7490    0.0000 C   0  0  0  0  0  0  0  0  0  0  0  0
    4.5115   -7.1634    0.0000 C   0  0  0  0  0  0  0  0  0  0  0  0
    4.5136   -7.9884    0.0000 C   0  0  0  0  0  0  0  0  0  0  0  0
 30  1  1  0  0  0  0
 24  2  1  0  0  0  0
 13  3  2  0  0  0  0
  4  9  2  0  0  0  0
  6  5  1  0  0  0  0
  6 10  1  0  0  0  0
  7  6  1  0  0  0  0
 22  8  1  6  0  0  0
  9  8  1  0  0  0  0
 10  9  1  0  0  0  0
 11 17  1  0  0  0  0
 12 11  2  0  0  0  0
 13 12  1  0  0  0  0
 14 13  1  0  0  0  0
 18 14  1  0  0  0  0
 15 20  2  0  0  0  0
 16 15  1  0  0  0  0
 17 16  2  0  0  0  0
 18 17  1  0  0  0  0
 21 18  2  0  0  0  0
 19 24  1  0  0  0  0
 20 19  1  0  0  0  0
 21 20  1  0  0  0  0
 22 21  1  0  0  0  0
 25 22  1  0  0  0  0
 24 23  1  0  0  0  0
 25 24  1  0  0  0  0
 25 26  1  6  0  0  0
 28 26  1  0  0  0  0
 28 27  2  0  0  0  0
 29 28  1  0  0  0  0
 30 29  1  0  0  0  0
 31 30  1  0  0  0  0
M  END
>  <cdx:fragmentId>
5

$$$$
