92002.cdx
  Mrv1902 05222410272D          

 15 16  0  0  0  0            999 V2000
    5.3881   -6.3662    0.0000 C   0  0  0  0  0  0  0  0  0  0  0  0
    5.3881   -7.1913    0.0000 C   0  0  0  0  0  0  0  0  0  0  0  0
    6.1025   -7.6037    0.0000 C   0  0  0  0  0  0  0  0  0  0  0  0
    6.8170   -7.1913    0.0000 C   0  0  0  0  0  0  0  0  0  0  0  0
    6.8170   -6.3662    0.0000 C   0  0  0  0  0  0  0  0  0  0  0  0
    6.1025   -5.9538    0.0000 C   0  0  0  0  0  0  0  0  0  0  0  0
    7.5315   -7.6037    0.0000 C   0  0  0  0  0  0  0  0  0  0  0  0
    8.2459   -7.1913    0.0000 C   0  0  0  0  0  0  0  0  0  0  0  0
    8.2459   -6.3662    0.0000 C   0  0  0  0  0  0  0  0  0  0  0  0
    7.5315   -5.9538    0.0000 O   0  0  0  0  0  0  0  0  0  0  0  0
    4.6736   -5.9538    0.0000 C   0  0  0  0  0  0  0  0  0  0  0  0
    6.1025   -5.1287    0.0000 C   0  0  0  0  0  0  0  0  0  0  0  0
    8.9604   -5.9538    0.0000 O   0  0  0  0  0  0  0  0  0  0  0  0
    7.1190   -8.3182    0.0000 C   0  0  0  0  0  0  0  0  0  0  0  0
    7.9440   -8.3182    0.0000 C   0  0  0  0  0  0  0  0  0  0  0  0
  1  2  2  0  0  0  0
  2  3  1  0  0  0  0
  3  4  2  0  0  0  0
  4  5  1  0  0  0  0
  5  6  2  0  0  0  0
  6  1  1  0  0  0  0
  4  7  1  0  0  0  0
  7  8  1  0  0  0  0
  8  9  1  0  0  0  0
  9 10  1  0  0  0  0
 10  5  1  0  0  0  0
  1 11  1  0  0  0  0
  6 12  1  0  0  0  0
  9 13  2  0  0  0  0
  7 14  1  0  0  0  0
  7 15  1  0  0  0  0
M  END
>  <cdx:fragmentId>
5

$$$$
