92009.cdx
  Mrv1902 05222410202D          

 13 13  0  0  0  0            999 V2000
    6.5161   -7.2076    0.0000 C   0  0  0  0  0  0  0  0  0  0  0  0
    7.2330   -7.6158    0.0000 C   0  0  0  0  0  0  0  0  0  0  0  0
    7.2380   -8.4408    0.0000 C   0  0  0  0  0  0  0  0  0  0  0  0
    7.9549   -8.8491    0.0000 C   0  0  0  0  0  0  0  0  0  0  0  0
    7.9598   -9.6740    0.0000 C   0  0  0  0  0  0  0  0  0  0  0  0
    7.2478  -10.0908    0.0000 C   0  0  0  0  0  0  0  0  0  0  0  0
    6.5309   -9.6826    0.0000 C   0  0  0  0  0  0  0  0  0  0  0  0
    6.5260   -8.8576    0.0000 C   0  0  0  0  0  0  0  0  0  0  0  0
    7.2528  -10.9158    0.0000 O   0  0  0  0  0  0  0  0  0  0  0  0
    7.9697  -11.3240    0.0000 C   0  0  0  0  0  0  0  0  0  0  0  0
    8.6767  -10.0823    0.0000 O   0  0  0  0  0  0  0  0  0  0  0  0
    6.5112   -6.3826    0.0000 O   0  0  0  0  0  0  0  0  0  0  0  0
    9.3887   -9.6655    0.0000 C   0  0  0  0  0  0  0  0  0  0  0  0
  1  2  1  0  0  0  0
  3  4  1  0  0  0  0
  4  5  2  0  0  0  0
  5  6  1  0  0  0  0
  6  7  2  0  0  0  0
  7  8  1  0  0  0  0
  3  8  2  0  0  0  0
  9 10  1  0  0  0  0
  6  9  1  0  0  0  0
  5 11  1  0  0  0  0
  2  3  1  0  0  0  0
  1 12  1  0  0  0  0
 11 13  1  0  0  0  0
M  END
>  <cdx:fragmentId>
9

$$$$
