9200.cdx
  Mrv1902 05222410272D          

 24 26  0  0  0  0            999 V2000
    3.9427   -7.1981    0.0000 C   0  0  0  0  0  0  0  0  0  0  0  0
    3.9427   -8.0231    0.0000 C   0  0  0  0  0  0  0  0  0  0  0  0
    4.6571   -8.4356    0.0000 C   0  0  1  0  0  0  0  0  0  0  0  0
    5.3716   -8.0231    0.0000 C   0  0  1  0  0  0  0  0  0  0  0  0
    5.3716   -7.1981    0.0000 C   0  0  2  0  0  0  0  0  0  0  0  0
    4.6571   -6.7856    0.0000 C   0  0  0  0  0  0  0  0  0  0  0  0
    6.0861   -8.4356    0.0000 C   0  0  0  0  0  0  0  0  0  0  0  0
    6.8005   -8.0231    0.0000 C   0  0  0  0  0  0  0  0  0  0  0  0
    6.8005   -7.1981    0.0000 C   0  0  0  0  0  0  0  0  0  0  0  0
    6.0861   -6.7856    0.0000 C   0  0  2  0  0  0  0  0  0  0  0  0
    7.5150   -6.7856    0.0000 C   0  0  0  0  0  0  0  0  0  0  0  0
    7.5150   -5.9606    0.0000 C   0  0  1  0  0  0  0  0  0  0  0  0
    6.8005   -5.5481    0.0000 C   0  0  0  0  0  0  0  0  0  0  0  0
    6.0861   -5.9606    0.0000 C   0  0  0  0  0  0  0  0  0  0  0  0
    8.2295   -5.5481    0.0000 C   0  0  0  0  0  0  0  0  0  0  0  0
    8.9440   -5.9606    0.0000 C   0  0  0  0  0  0  0  0  0  0  0  0
    4.2446   -9.1501    0.0000 C   0  0  0  0  0  0  0  0  0  0  0  0
    3.4196   -9.1501    0.0000 O   0  0  0  0  0  0  0  0  0  0  0  0
    4.6571   -9.8646    0.0000 O   0  0  0  0  0  0  0  0  0  0  0  0
    5.3716   -6.3731    0.0000 C   0  0  0  0  0  0  0  0  0  0  0  0
    5.0696   -9.1501    0.0000 C   0  0  0  0  0  0  0  0  0  0  0  0
    5.3716   -8.8481    0.0000 H   0  0  0  0  0  0  0  0  0  0  0  0
    6.0861   -7.6106    0.0000 H   0  0  0  0  0  0  0  0  0  0  0  0
    7.5150   -5.1356    0.0000 C   0  0  0  0  0  0  0  0  0  0  0  0
  1  2  1  0  0  0  0
  2  3  1  0  0  0  0
  3  4  1  0  0  0  0
  4  5  1  0  0  0  0
  5  6  1  0  0  0  0
  6  1  1  0  0  0  0
  4  7  1  0  0  0  0
  7  8  1  0  0  0  0
  8  9  1  0  0  0  0
  9 10  1  0  0  0  0
 10  5  1  0  0  0  0
  9 11  2  0  0  0  0
 11 12  1  0  0  0  0
 12 13  1  0  0  0  0
 13 14  1  0  0  0  0
 14 10  1  0  0  0  0
 12 15  1  0  0  0  0
 15 16  2  0  0  0  0
  3 17  1  1  0  0  0
 17 18  1  0  0  0  0
 17 19  2  0  0  0  0
  5 20  1  1  0  0  0
  3 21  1  6  0  0  0
  4 22  1  6  0  0  0
 10 23  1  6  0  0  0
 12 24  1  6  0  0  0
M  END
>  <cdx:fragmentId>
5

$$$$
