3920069.cdx
  Mrv1902 05222410272D          

 11 11  0  0  0  0            999 V2000
    8.7726   -6.2752    0.0000 C   0  0  0  0  0  0  0  0  0  0  0  0
    8.0582   -6.6877    0.0000 C   0  0  0  0  0  0  0  0  0  0  0  0
    7.3437   -6.2752    0.0000 C   0  0  0  0  0  0  0  0  0  0  0  0
    8.7726   -5.4502    0.0000 O   0  0  0  0  0  0  0  0  0  0  0  0
    9.4871   -6.6877    0.0000 O   0  5  0  0  0  0  0  0  0  0  0  0
    6.6292   -6.6877    0.0000 C   0  0  0  0  0  0  0  0  0  0  0  0
    6.6292   -7.5127    0.0000 C   0  0  0  0  0  0  0  0  0  0  0  0
    5.9148   -7.9252    0.0000 C   0  0  0  0  0  0  0  0  0  0  0  0
    5.2003   -7.5127    0.0000 C   0  0  0  0  0  0  0  0  0  0  0  0
    5.2003   -6.6877    0.0000 C   0  0  0  0  0  0  0  0  0  0  0  0
    5.9148   -6.2752    0.0000 C   0  0  0  0  0  0  0  0  0  0  0  0
  1  2  1  0  0  0  0
  2  3  2  0  0  0  0
  1  4  2  0  0  0  0
  1  5  1  0  0  0  0
  6  7  1  0  0  0  0
  7  8  2  0  0  0  0
  8  9  1  0  0  0  0
  9 10  2  0  0  0  0
 10 11  1  0  0  0  0
  6 11  2  0  0  0  0
  3  6  1  0  0  0  0
M  CHG  1   5  -1
M  END
>  <cdx:groupId>
35

>  <cdx:fragmentId>
15

$$$$
