92004.cdx
  Mrv1902 05222410262D          

 23 25  0  0  0  0            999 V2000
    3.9581   -7.0263    0.0000 C   0  0  0  0  0  0  0  0  0  0  0  0
    3.9581   -7.8513    0.0000 C   0  0  0  0  0  0  0  0  0  0  0  0
    4.6725   -8.2637    0.0000 C   0  0  0  0  0  0  0  0  0  0  0  0
    5.3870   -7.8513    0.0000 C   0  0  0  0  0  0  0  0  0  0  0  0
    5.3870   -7.0263    0.0000 C   0  0  0  0  0  0  0  0  0  0  0  0
    4.6725   -6.6137    0.0000 C   0  0  0  0  0  0  0  0  0  0  0  0
    6.1015   -8.2637    0.0000 C   0  0  0  0  0  0  0  0  0  0  0  0
    6.8159   -7.8513    0.0000 C   0  0  0  0  0  0  0  0  0  0  0  0
    6.8159   -7.0263    0.0000 C   0  0  0  0  0  0  0  0  0  0  0  0
    6.1015   -6.6137    0.0000 O   0  0  0  0  0  0  0  0  0  0  0  0
    6.1015   -9.0887    0.0000 O   0  0  0  0  0  0  0  0  0  0  0  0
    8.2449   -7.0263    0.0000 C   0  0  0  0  0  0  0  0  0  0  0  0
    7.5304   -6.6137    0.0000 C   0  0  0  0  0  0  0  0  0  0  0  0
    8.9594   -6.6137    0.0000 C   0  0  0  0  0  0  0  0  0  0  0  0
    8.9594   -5.7888    0.0000 C   0  0  0  0  0  0  0  0  0  0  0  0
    8.2449   -5.3763    0.0000 C   0  0  0  0  0  0  0  0  0  0  0  0
    7.5304   -5.7888    0.0000 C   0  0  0  0  0  0  0  0  0  0  0  0
    3.2436   -6.6137    0.0000 O   0  0  0  0  0  0  0  0  0  0  0  0
    8.2449   -4.5512    0.0000 O   0  0  0  0  0  0  0  0  0  0  0  0
    9.6738   -5.3763    0.0000 O   0  0  0  0  0  0  0  0  0  0  0  0
    9.6738   -7.0263    0.0000 O   0  0  0  0  0  0  0  0  0  0  0  0
    7.5304   -4.1387    0.0000 C   0  0  0  0  0  0  0  0  0  0  0  0
    2.5291   -7.0263    0.0000 C   0  0  0  0  0  0  0  0  0  0  0  0
  1  2  2  0  0  0  0
  2  3  1  0  0  0  0
  3  4  2  0  0  0  0
  4  5  1  0  0  0  0
  5  6  2  0  0  0  0
  6  1  1  0  0  0  0
  4  7  1  0  0  0  0
  7  8  1  0  0  0  0
  8  9  2  0  0  0  0
  9 10  1  0  0  0  0
 10  5  1  0  0  0  0
 11  7  2  0  0  0  0
 12 13  1  0  0  0  0
 13  9  1  0  0  0  0
 12 14  2  0  0  0  0
 14 15  1  0  0  0  0
 15 16  2  0  0  0  0
 16 17  1  0  0  0  0
 17 13  2  0  0  0  0
  1 18  1  0  0  0  0
 16 19  1  0  0  0  0
 15 20  1  0  0  0  0
 14 21  1  0  0  0  0
 19 22  1  0  0  0  0
 18 23  1  0  0  0  0
M  END
>  <cdx:fragmentId>
5

$$$$
