92003.cdx
  Mrv1902 05222410272D          

 13 14  0  0  0  0            999 V2000
    6.1168   -5.9538    0.0000 C   0  0  0  0  0  0  0  0  0  0  0  0
    6.1168   -6.7788    0.0000 C   0  0  0  0  0  0  0  0  0  0  0  0
    6.8313   -7.1913    0.0000 C   0  0  0  0  0  0  0  0  0  0  0  0
    7.5457   -6.7788    0.0000 C   0  0  0  0  0  0  0  0  0  0  0  0
    7.5457   -5.9538    0.0000 C   0  0  0  0  0  0  0  0  0  0  0  0
    6.8313   -5.5413    0.0000 C   0  0  0  0  0  0  0  0  0  0  0  0
    8.2602   -7.1913    0.0000 C   0  0  0  0  0  0  0  0  0  0  0  0
    8.9747   -6.7788    0.0000 C   0  0  0  0  0  0  0  0  0  0  0  0
    8.9747   -5.9538    0.0000 C   0  0  0  0  0  0  0  0  0  0  0  0
    8.2602   -5.5413    0.0000 C   0  0  0  0  0  0  0  0  0  0  0  0
    5.4023   -5.5413    0.0000 C   0  0  0  0  0  0  0  0  0  0  0  0
    6.8313   -8.0162    0.0000 C   0  0  0  0  0  0  0  0  0  0  0  0
    8.2602   -4.7162    0.0000 O   0  0  0  0  0  0  0  0  0  0  0  0
  1  2  1  0  0  0  0
  2  3  2  0  0  0  0
  3  4  1  0  0  0  0
  4  5  2  0  0  0  0
  5  6  1  0  0  0  0
  6  1  2  0  0  0  0
  4  7  1  0  0  0  0
  7  8  1  0  0  0  0
  8  9  1  0  0  0  0
  9 10  1  0  0  0  0
 10  5  1  0  0  0  0
  1 11  1  0  0  0  0
  3 12  1  0  0  0  0
 10 13  2  0  0  0  0
M  END
>  <cdx:fragmentId>
5

$$$$
