92016.cdx
  Mrv1902 05222410272D          

 29 31  0  0  0  0            999 V2000
    9.5633   -4.8812    0.0000 C   0  0  0  0  0  0  0  0  0  0  0  0
    8.8488   -5.2938    0.0000 O   0  0  0  0  0  0  0  0  0  0  0  0
   10.9922   -6.5313    0.0000 C   0  0  0  0  0  0  0  0  0  0  0  0
   10.2778   -6.1188    0.0000 O   0  0  0  0  0  0  0  0  0  0  0  0
    8.8488   -8.5937    0.0000 C   0  0  0  0  0  0  0  0  0  0  0  0
    5.9909  -10.2437    0.0000 C   0  0  0  0  0  0  0  0  0  0  0  0
    9.5633   -7.3563    0.0000 C   0  0  0  0  0  0  0  0  0  0  0  0
    9.5633   -6.5313    0.0000 C   0  0  0  0  0  0  0  0  0  0  0  0
    8.8488   -6.1188    0.0000 C   0  0  0  0  0  0  0  0  0  0  0  0
    8.1344   -6.5313    0.0000 C   0  0  0  0  0  0  0  0  0  0  0  0
    8.8488   -7.7687    0.0000 C   0  0  0  0  0  0  0  0  0  0  0  0
    8.1344   -7.3563    0.0000 C   0  0  0  0  0  0  0  0  0  0  0  0
    6.7054   -9.8312    0.0000 O   0  0  0  0  0  0  0  0  0  0  0  0
    8.1344   -9.0062    0.0000 O   0  0  0  0  0  0  0  0  0  0  0  0
    3.8475   -9.8312    0.0000 C   0  0  0  0  0  0  0  0  0  0  0  0
    5.2765   -9.8312    0.0000 O   0  0  0  0  0  0  0  0  0  0  0  0
    6.7054   -9.0062    0.0000 C   0  0  0  0  0  0  0  0  0  0  0  0
    7.4199   -8.5937    0.0000 C   0  0  0  0  0  0  0  0  0  0  0  0
    7.4199   -7.7687    0.0000 C   0  0  0  0  0  0  0  0  0  0  0  0
    6.7054   -7.3562    0.0000 O   0  0  0  0  0  0  0  0  0  0  0  0
    5.2765   -9.0062    0.0000 C   0  0  0  0  0  0  0  0  0  0  0  0
    5.9909   -8.5937    0.0000 C   0  0  0  0  0  0  0  0  0  0  0  0
    5.9909   -7.7687    0.0000 C   0  0  0  0  0  0  0  0  0  0  0  0
    5.2765   -7.3562    0.0000 C   0  0  0  0  0  0  0  0  0  0  0  0
    3.8475   -9.0062    0.0000 O   0  0  0  0  0  0  0  0  0  0  0  0
    4.5620   -8.5937    0.0000 C   0  0  0  0  0  0  0  0  0  0  0  0
    4.5620   -7.7687    0.0000 C   0  0  0  0  0  0  0  0  0  0  0  0
    3.8475   -7.3562    0.0000 O   0  0  0  0  0  0  0  0  0  0  0  0
    3.1331   -7.7687    0.0000 C   0  0  0  0  0  0  0  0  0  0  0  0
  2  1  1  0  0  0  0
  9  2  1  0  0  0  0
  4  3  1  0  0  0  0
  8  4  1  0  0  0  0
 14  5  1  0  0  0  0
 16  6  1  0  0  0  0
  7 11  2  0  0  0  0
  8  7  1  0  0  0  0
  9  8  2  0  0  0  0
 10  9  1  0  0  0  0
 12 10  2  0  0  0  0
 12 11  1  0  0  0  0
 19 12  1  0  0  0  0
 13 17  2  0  0  0  0
 18 14  1  0  0  0  0
 15 25  1  0  0  0  0
 21 16  1  0  0  0  0
 17 22  1  0  0  0  0
 18 17  1  0  0  0  0
 19 18  2  0  0  0  0
 20 19  1  0  0  0  0
 23 20  1  0  0  0  0
 21 26  2  0  0  0  0
 22 21  1  0  0  0  0
 23 22  2  0  0  0  0
 24 23  1  0  0  0  0
 27 24  2  0  0  0  0
 26 25  1  0  0  0  0
 27 26  1  0  0  0  0
 28 27  1  0  0  0  0
 29 28  1  0  0  0  0
M  END
>  <cdx:fragmentId>
5

$$$$
