92017.cdx
  Mrv1902 05222410272D          

 43 46  0  0  0  0            999 V2000
    3.4192   -5.7696    0.0000 C   0  0  0  0  0  0  0  0  0  0  0  0
    2.7011   -6.1757    0.0000 C   0  0  0  0  0  0  0  0  0  0  0  0
    2.6937   -7.0007    0.0000 C   0  0  0  0  0  0  0  0  0  0  0  0
    3.4044   -7.4196    0.0000 C   0  0  0  0  0  0  0  0  0  0  0  0
    4.1226   -7.0135    0.0000 C   0  0  0  0  0  0  0  0  0  0  0  0
    4.1300   -6.1885    0.0000 C   0  0  0  0  0  0  0  0  0  0  0  0
    3.3970   -8.2445    0.0000 C   0  0  0  0  0  0  0  0  0  0  0  0
    4.1078   -8.6634    0.0000 C   0  0  0  0  0  0  0  0  0  0  0  0
    4.8259   -8.2574    0.0000 C   0  0  0  0  0  0  0  0  0  0  0  0
    4.8333   -7.4324    0.0000 C   0  0  0  0  0  0  0  0  0  0  0  0
    1.9755   -7.4068    0.0000 C   0  0  0  0  0  0  0  0  0  0  0  0
    1.9681   -8.2317    0.0000 C   0  0  0  0  0  0  0  0  0  0  0  0
    4.1004   -9.4884    0.0000 C   0  0  0  0  0  0  0  0  0  0  0  0
    5.5367   -8.6762    0.0000 O   0  0  0  0  0  0  0  0  0  0  0  0
    1.2648   -6.9879    0.0000 C   0  0  0  0  0  0  0  0  0  0  0  0
    4.8481   -5.7825    0.0000 C   0  0  0  0  0  0  0  0  0  0  0  0
    6.2511   -8.2637    0.0000 C   0  0  0  0  0  0  0  0  0  0  0  0
    6.9656   -8.6762    0.0000 C   0  0  0  0  0  0  0  0  0  0  0  0
    7.6801   -8.2637    0.0000 C   0  0  0  0  0  0  0  0  0  0  0  0
    7.6801   -7.4387    0.0000 C   0  0  0  0  0  0  0  0  0  0  0  0
    6.9656   -7.0263    0.0000 C   0  0  0  0  0  0  0  0  0  0  0  0
    6.2511   -7.4387    0.0000 C   0  0  0  0  0  0  0  0  0  0  0  0
    5.5367   -7.0263    0.0000 O   0  0  0  0  0  0  0  0  0  0  0  0
    6.9656   -6.2012    0.0000 O   0  0  0  0  0  0  0  0  0  0  0  0
    6.9656   -9.5013    0.0000 O   0  0  0  0  0  0  0  0  0  0  0  0
    7.6801   -9.9138    0.0000 C   0  0  0  0  0  0  0  0  0  0  0  0
    5.5367   -6.2012    0.0000 C   0  0  0  0  0  0  0  0  0  0  0  0
    8.3945   -8.6762    0.0000 C   0  0  0  0  0  0  0  0  0  0  0  0
    9.1090   -8.2637    0.0000 C   0  0  0  0  0  0  0  0  0  0  0  0
    9.1090   -7.4387    0.0000 C   0  0  0  0  0  0  0  0  0  0  0  0
    8.3945   -7.0263    0.0000 O   0  0  0  0  0  0  0  0  0  0  0  0
    9.8235   -8.6762    0.0000 O   0  0  0  0  0  0  0  0  0  0  0  0
   10.5380   -7.4387    0.0000 C   0  0  0  0  0  0  0  0  0  0  0  0
    9.8235   -7.0263    0.0000 C   0  0  0  0  0  0  0  0  0  0  0  0
   11.2524   -7.0263    0.0000 C   0  0  0  0  0  0  0  0  0  0  0  0
   11.2524   -6.2012    0.0000 C   0  0  0  0  0  0  0  0  0  0  0  0
   10.5380   -5.7888    0.0000 C   0  0  0  0  0  0  0  0  0  0  0  0
    9.8235   -6.2012    0.0000 C   0  0  0  0  0  0  0  0  0  0  0  0
    9.8235   -9.5013    0.0000 C   0  0  0  0  0  0  0  0  0  0  0  0
    8.3945   -9.5013    0.0000 O   0  0  0  0  0  0  0  0  0  0  0  0
   11.9669   -7.4387    0.0000 O   0  0  0  0  0  0  0  0  0  0  0  0
   11.9669   -5.7888    0.0000 O   0  0  0  0  0  0  0  0  0  0  0  0
   10.5380   -4.9637    0.0000 O   0  0  0  0  0  0  0  0  0  0  0  0
  1  2  1  0  0  0  0
  2  3  1  0  0  0  0
  4  5  1  0  0  0  0
  5  6  1  0  0  0  0
  6  1  1  0  0  0  0
  4  7  1  0  0  0  0
  7  8  1  0  0  0  0
  8  9  1  0  0  0  0
  9 10  1  0  0  0  0
 10  5  1  0  0  0  0
  3 11  1  0  0  0  0
 11 12  1  0  0  0  0
  8 13  1  0  0  0  0
 14  9  1  0  0  0  0
 11 15  1  0  0  0  0
  6 16  1  0  0  0  0
 14 17  1  0  0  0  0
 17 18  2  0  0  0  0
 18 19  1  0  0  0  0
 19 20  2  0  0  0  0
 20 21  1  0  0  0  0
 21 22  2  0  0  0  0
 22 17  1  0  0  0  0
 22 23  1  0  0  0  0
 21 24  1  0  0  0  0
 18 25  1  0  0  0  0
 25 26  1  0  0  0  0
 23 27  1  0  0  0  0
 19 28  1  0  0  0  0
 28 29  1  0  0  0  0
 29 30  2  0  0  0  0
 30 31  1  0  0  0  0
 31 20  1  0  0  0  0
 29 32  1  0  0  0  0
 33 34  1  0  0  0  0
 34 30  1  0  0  0  0
 33 35  2  0  0  0  0
 35 36  1  0  0  0  0
 36 37  2  0  0  0  0
 37 38  1  0  0  0  0
 38 34  2  0  0  0  0
 32 39  1  0  0  0  0
 28 40  2  0  0  0  0
 35 41  1  0  0  0  0
 36 42  1  0  0  0  0
 37 43  1  0  0  0  0
M  END
>  <cdx:fragmentId>
5

$$$$
