92011.cdx
  Mrv1902 05222410262D          

 24 27  0  0  0  0            999 V2000
    5.1543   -6.9575    0.0000 C   0  0  0  0  0  0  0  0  0  0  0  0
    5.1543   -7.7825    0.0000 O   0  0  0  0  0  0  0  0  0  0  0  0
    5.8688   -8.1950    0.0000 C   0  0  0  0  0  0  0  0  0  0  0  0
    6.5832   -7.7825    0.0000 C   0  0  0  0  0  0  0  0  0  0  0  0
    6.5832   -6.9575    0.0000 C   0  0  0  0  0  0  0  0  0  0  0  0
    5.8688   -6.5450    0.0000 C   0  0  0  0  0  0  0  0  0  0  0  0
    7.2977   -8.1950    0.0000 C   0  0  0  0  0  0  0  0  0  0  0  0
    8.0122   -7.7825    0.0000 C   0  0  0  0  0  0  0  0  0  0  0  0
    8.0122   -6.9575    0.0000 O   0  0  0  0  0  0  0  0  0  0  0  0
    7.2977   -6.5450    0.0000 C   0  0  0  0  0  0  0  0  0  0  0  0
    7.2977   -5.7200    0.0000 C   0  0  0  0  0  0  0  0  0  0  0  0
    6.5832   -5.3075    0.0000 C   0  0  0  0  0  0  0  0  0  0  0  0
    5.8688   -5.7200    0.0000 C   0  0  0  0  0  0  0  0  0  0  0  0
    8.0122   -5.3075    0.0000 O   0  0  0  0  0  0  0  0  0  0  0  0
    8.0122   -4.4825    0.0000 C   0  0  0  0  0  0  0  0  0  0  0  0
    6.5832   -4.4825    0.0000 O   0  0  0  0  0  0  0  0  0  0  0  0
    5.8688   -9.0200    0.0000 C   0  0  0  0  0  0  0  0  0  0  0  0
    6.5832   -9.4325    0.0000 C   0  0  0  0  0  0  0  0  0  0  0  0
    7.2977   -9.0200    0.0000 C   0  0  0  0  0  0  0  0  0  0  0  0
    5.1543   -9.4325    0.0000 O   0  0  0  0  0  0  0  0  0  0  0  0
    6.5832  -10.2575    0.0000 O   0  0  0  0  0  0  0  0  0  0  0  0
    4.4398   -6.5450    0.0000 O   0  0  0  0  0  0  0  0  0  0  0  0
    8.7267   -8.1950    0.0000 O   0  0  0  0  0  0  0  0  0  0  0  0
    7.2977  -10.6700    0.0000 C   0  0  0  0  0  0  0  0  0  0  0  0
  1  2  1  0  0  0  0
  2  3  1  0  0  0  0
  3  4  2  0  0  0  0
  4  5  1  0  0  0  0
  5  6  1  0  0  0  0
  6  1  1  0  0  0  0
  4  7  1  0  0  0  0
  7  8  1  0  0  0  0
  8  9  1  0  0  0  0
  9 10  1  0  0  0  0
 10  5  2  0  0  0  0
 10 11  1  0  0  0  0
 11 12  2  0  0  0  0
 12 13  1  0  0  0  0
 13  6  2  0  0  0  0
 11 14  1  0  0  0  0
 14 15  1  0  0  0  0
 16 12  1  0  0  0  0
  3 17  1  0  0  0  0
 17 18  2  0  0  0  0
 18 19  1  0  0  0  0
 19  7  2  0  0  0  0
 17 20  1  0  0  0  0
 21 18  1  0  0  0  0
  1 22  2  0  0  0  0
  8 23  2  0  0  0  0
 21 24  1  0  0  0  0
M  END
>  <cdx:fragmentId>
5

$$$$
