920149.cdx
  Mrv1902 05222410202D          

 21 24  0  0  0  0            999 V2000
    4.2124   -7.5488    0.0000 C   0  0  0  0  0  0  0  0  0  0  0  0
    4.2124   -8.3737    0.0000 C   0  0  0  0  0  0  0  0  0  0  0  0
    4.9269   -8.7862    0.0000 C   0  0  0  0  0  0  0  0  0  0  0  0
    5.6414   -8.3737    0.0000 C   0  0  0  0  0  0  0  0  0  0  0  0
    5.6414   -7.5488    0.0000 C   0  0  0  0  0  0  0  0  0  0  0  0
    4.9269   -7.1362    0.0000 C   0  0  0  0  0  0  0  0  0  0  0  0
    6.3558   -8.7862    0.0000 C   0  0  0  0  0  0  0  0  0  0  0  0
    7.0703   -8.3737    0.0000 C   0  0  0  0  0  0  0  0  0  0  0  0
    7.0703   -7.5488    0.0000 C   0  0  0  0  0  0  0  0  0  0  0  0
    6.3558   -7.1362    0.0000 C   0  0  0  0  0  0  0  0  0  0  0  0
    7.7848   -7.1362    0.0000 C   0  0  0  0  0  0  0  0  0  0  0  0
    7.7848   -6.3113    0.0000 C   0  0  0  0  0  0  0  0  0  0  0  0
    7.0703   -5.8988    0.0000 C   0  0  0  0  0  0  0  0  0  0  0  0
    6.3558   -6.3113    0.0000 C   0  0  0  0  0  0  0  0  0  0  0  0
    8.5694   -7.3912    0.0000 O   0  0  0  0  0  0  0  0  0  0  0  0
    9.0543   -6.7237    0.0000 C   0  0  0  0  0  0  0  0  0  0  0  0
    8.5694   -6.0563    0.0000 C   0  0  0  0  0  0  0  0  0  0  0  0
    4.9269   -9.6112    0.0000 C   0  0  0  0  0  0  0  0  0  0  0  0
    5.6414   -5.8988    0.0000 O   0  0  0  0  0  0  0  0  0  0  0  0
    7.0703   -5.0737    0.0000 O   0  0  0  0  0  0  0  0  0  0  0  0
    8.8243   -5.2717    0.0000 C   0  0  0  0  0  0  0  0  0  0  0  0
  1  2  1  0  0  0  0
  2  3  1  0  0  0  0
  3  4  1  0  0  0  0
  4  5  2  0  0  0  0
  5  6  1  0  0  0  0
  6  1  1  0  0  0  0
  4  7  1  0  0  0  0
  7  8  2  0  0  0  0
  8  9  1  0  0  0  0
  9 10  2  0  0  0  0
 10  5  1  0  0  0  0
  9 11  1  0  0  0  0
 11 12  2  0  0  0  0
 12 13  1  0  0  0  0
 13 14  1  0  0  0  0
 14 10  1  0  0  0  0
 11 15  1  0  0  0  0
 15 16  1  0  0  0  0
 16 17  1  0  0  0  0
 17 12  1  0  0  0  0
  3 18  2  0  0  0  0
 14 19  2  0  0  0  0
 13 20  2  0  0  0  0
 17 21  1  0  0  0  0
M  END
>  <cdx:fragmentId>
5

$$$$
