92015.cdx
  Mrv1902 05222410282D          

 15 16  0  0  0  0            999 V2000
    4.2056   -5.5000    0.0000 C   0  0  0  0  0  0  0  0  0  0  0  0
    4.2056   -6.3250    0.0000 C   0  0  0  0  0  0  0  0  0  0  0  0
    4.9200   -6.7375    0.0000 C   0  0  0  0  0  0  0  0  0  0  0  0
    5.6345   -6.3250    0.0000 C   0  0  0  0  0  0  0  0  0  0  0  0
    5.6345   -5.5000    0.0000 C   0  0  2  0  0  0  0  0  0  0  0  0
    4.9200   -5.0875    0.0000 C   0  0  0  0  0  0  0  0  0  0  0  0
    6.3490   -6.7375    0.0000 C   0  0  0  0  0  0  0  0  0  0  0  0
    7.0634   -6.3250    0.0000 C   0  0  1  0  0  0  0  0  0  0  0  0
    7.0634   -5.5000    0.0000 C   0  0  0  0  0  0  0  0  0  0  0  0
    6.3490   -5.0875    0.0000 C   0  0  0  0  0  0  0  0  0  0  0  0
    7.7779   -6.7375    0.0000 C   0  0  0  0  0  0  0  0  0  0  0  0
    8.4924   -6.3250    0.0000 C   0  0  0  0  0  0  0  0  0  0  0  0
    5.6345   -4.6750    0.0000 C   0  0  0  0  0  0  0  0  0  0  0  0
    4.9200   -7.5625    0.0000 C   0  0  0  0  0  0  0  0  0  0  0  0
    7.7779   -7.5625    0.0000 C   0  0  0  0  0  0  0  0  0  0  0  0
  1  2  1  0  0  0  0
  2  3  2  0  0  0  0
  3  4  1  0  0  0  0
  4  5  1  0  0  0  0
  5  6  1  0  0  0  0
  6  1  1  0  0  0  0
  4  7  2  0  0  0  0
  7  8  1  0  0  0  0
  8  9  1  0  0  0  0
  9 10  1  0  0  0  0
 10  5  1  0  0  0  0
  8 11  1  1  0  0  0
 11 12  1  0  0  0  0
  5 13  1  1  0  0  0
  3 14  1  6  0  0  0
 11 15  2  0  0  0  0
M  END
>  <cdx:fragmentId>
5

$$$$
