92026.cdx
  Mrv1902 05222410192D          

 31 32  0  0  0  0            999 V2000
    2.7052   -7.0976    0.0000 C   0  0  0  0  0  0  0  0  0  0  0  0
    2.7052   -6.2726    0.0000 C   0  0  0  0  0  0  0  0  0  0  0  0
    3.4196   -5.8601    0.0000 C   0  0  0  0  0  0  0  0  0  0  0  0
    4.1341   -6.2726    0.0000 C   0  0  0  0  0  0  0  0  0  0  0  0
    4.1341   -7.0976    0.0000 C   0  0  0  0  0  0  0  0  0  0  0  0
    3.4196   -7.5101    0.0000 C   0  0  0  0  0  0  0  0  0  0  0  0
    4.8486   -5.8601    0.0000 C   0  0  0  0  0  0  0  0  0  0  0  0
    5.5630   -6.2726    0.0000 C   0  0  0  0  0  0  0  0  0  0  0  0
    6.2775   -5.8601    0.0000 C   0  0  0  0  0  0  0  0  0  0  0  0
    6.9920   -6.2726    0.0000 C   0  0  0  0  0  0  0  0  0  0  0  0
    7.7065   -5.8601    0.0000 C   0  0  0  0  0  0  0  0  0  0  0  0
    8.4209   -6.2726    0.0000 C   0  0  0  0  0  0  0  0  0  0  0  0
    9.1354   -5.8601    0.0000 C   0  0  0  0  0  0  0  0  0  0  0  0
    9.8499   -6.2726    0.0000 C   0  0  0  0  0  0  0  0  0  0  0  0
    9.8499   -7.0976    0.0000 C   0  0  0  0  0  0  0  0  0  0  0  0
   10.5643   -5.8601    0.0000 C   0  0  0  0  0  0  0  0  0  0  0  0
   11.2788   -6.2726    0.0000 C   0  0  0  0  0  0  0  0  0  0  0  0
   11.2788   -7.0976    0.0000 C   0  0  0  0  0  0  0  0  0  0  0  0
   10.5643   -7.5101    0.0000 C   0  0  0  0  0  0  0  0  0  0  0  0
    6.2775   -5.0351    0.0000 O   0  0  0  0  0  0  0  0  0  0  0  0
    7.7065   -5.0351    0.0000 O   0  0  0  0  0  0  0  0  0  0  0  0
    3.4196   -8.3351    0.0000 O   0  0  0  0  0  0  0  0  0  0  0  0
    1.9907   -7.5101    0.0000 O   0  0  0  0  0  0  0  0  0  0  0  0
    1.9907   -5.8601    0.0000 O   0  0  0  0  0  0  0  0  0  0  0  0
   11.9933   -7.5101    0.0000 O   0  0  0  0  0  0  0  0  0  0  0  0
   10.5643   -8.3351    0.0000 O   0  0  0  0  0  0  0  0  0  0  0  0
    1.2762   -6.2726    0.0000 C   0  0  0  0  0  0  0  0  0  0  0  0
   11.9933   -5.8601    0.0000 O   0  0  0  0  0  0  0  0  0  0  0  0
   12.7077   -6.2726    0.0000 C   0  0  0  0  0  0  0  0  0  0  0  0
   11.2788   -8.7476    0.0000 C   0  0  0  0  0  0  0  0  0  0  0  0
    2.7052   -8.7476    0.0000 C   0  0  0  0  0  0  0  0  0  0  0  0
  1  2  2  0  0  0  0
  2  3  1  0  0  0  0
  3  4  2  0  0  0  0
  4  5  1  0  0  0  0
  5  6  2  0  0  0  0
  6  1  1  0  0  0  0
  4  7  1  0  0  0  0
  7  8  1  0  0  0  0
  8  9  1  0  0  0  0
  9 10  1  0  0  0  0
 10 11  1  0  0  0  0
 11 12  1  0  0  0  0
 12 13  1  0  0  0  0
 13 14  1  0  0  0  0
 14 15  2  0  0  0  0
 14 16  1  0  0  0  0
 16 17  2  0  0  0  0
 17 18  1  0  0  0  0
 18 19  2  0  0  0  0
 19 15  1  0  0  0  0
  9 20  1  0  0  0  0
 11 21  1  0  0  0  0
  6 22  1  0  0  0  0
  1 23  1  0  0  0  0
  2 24  1  0  0  0  0
 18 25  1  0  0  0  0
 19 26  1  0  0  0  0
 24 27  1  0  0  0  0
 17 28  1  0  0  0  0
 28 29  1  0  0  0  0
 26 30  1  0  0  0  0
 22 31  1  0  0  0  0
M  END
>  <cdx:fragmentId>
5

$$$$
