92023.cdx
  Mrv1902 05222410192D          

 32 33  0  0  0  0            999 V2000
    4.6038   -7.2188    0.0000 C   0  0  0  0  0  0  0  0  0  0  0  0
    5.3182   -6.8063    0.0000 C   0  0  0  0  0  0  0  0  0  0  0  0
    6.0327   -7.2188    0.0000 C   0  0  0  0  0  0  0  0  0  0  0  0
    6.7472   -6.8063    0.0000 C   0  0  0  0  0  0  0  0  0  0  0  0
    7.4617   -7.2188    0.0000 C   0  0  0  0  0  0  0  0  0  0  0  0
    8.1761   -6.8063    0.0000 C   0  0  0  0  0  0  0  0  0  0  0  0
    8.8906   -7.2188    0.0000 C   0  0  0  0  0  0  0  0  0  0  0  0
    9.6051   -6.8063    0.0000 C   0  0  0  0  0  0  0  0  0  0  0  0
   10.3195   -7.2188    0.0000 C   0  0  0  0  0  0  0  0  0  0  0  0
    3.8893   -6.8063    0.0000 C   0  0  0  0  0  0  0  0  0  0  0  0
    3.1748   -7.2188    0.0000 C   0  0  0  0  0  0  0  0  0  0  0  0
    3.1748   -8.0438    0.0000 C   0  0  0  0  0  0  0  0  0  0  0  0
    3.8893   -8.4563    0.0000 C   0  0  0  0  0  0  0  0  0  0  0  0
    4.6038   -8.0438    0.0000 C   0  0  0  0  0  0  0  0  0  0  0  0
    2.4604   -8.4563    0.0000 O   0  0  0  0  0  0  0  0  0  0  0  0
    3.8893   -9.2813    0.0000 O   0  0  0  0  0  0  0  0  0  0  0  0
   10.3195   -8.0438    0.0000 C   0  0  0  0  0  0  0  0  0  0  0  0
   11.0340   -8.4563    0.0000 C   0  0  0  0  0  0  0  0  0  0  0  0
   11.7485   -8.0438    0.0000 C   0  0  0  0  0  0  0  0  0  0  0  0
   11.7485   -7.2188    0.0000 C   0  0  0  0  0  0  0  0  0  0  0  0
   11.0340   -6.8063    0.0000 C   0  0  0  0  0  0  0  0  0  0  0  0
   12.4630   -8.4563    0.0000 O   0  0  0  0  0  0  0  0  0  0  0  0
   11.0340   -9.2813    0.0000 O   0  0  0  0  0  0  0  0  0  0  0  0
   10.3195   -9.6938    0.0000 C   0  0  0  0  0  0  0  0  0  0  0  0
    8.1761   -5.9813    0.0000 O   0  0  0  0  0  0  0  0  0  0  0  0
    8.8906   -5.5687    0.0000 C   0  0  0  0  0  0  0  0  0  0  0  0
    9.6064   -5.9789    0.0000 C   0  0  0  0  0  0  0  0  0  0  0  0
    8.8893   -4.7431    0.0000 O   0  0  0  0  0  0  0  0  0  0  0  0
    6.7472   -5.9813    0.0000 O   0  0  0  0  0  0  0  0  0  0  0  0
    6.0327   -5.5688    0.0000 C   0  0  0  0  0  0  0  0  0  0  0  0
    6.0301   -4.7438    0.0000 C   0  0  0  0  0  0  0  0  0  0  0  0
    5.3184   -5.9827    0.0000 O   0  0  0  0  0  0  0  0  0  0  0  0
  1  2  1  0  0  0  0
  2  3  1  0  0  0  0
  3  4  1  0  0  0  0
  4  5  1  0  0  0  0
  5  6  1  0  0  0  0
  6  7  1  0  0  0  0
  7  8  1  0  0  0  0
  8  9  1  0  0  0  0
  4 29  1  0  0  0  0
  6 25  1  0  0  0  0
  1 10  2  0  0  0  0
 10 11  1  0  0  0  0
 11 12  2  0  0  0  0
 12 13  1  0  0  0  0
 13 14  2  0  0  0  0
 14  1  1  0  0  0  0
 12 15  1  0  0  0  0
 13 16  1  0  0  0  0
  9 17  2  0  0  0  0
 17 18  1  0  0  0  0
 18 19  2  0  0  0  0
 19 20  1  0  0  0  0
 20 21  2  0  0  0  0
 21  9  1  0  0  0  0
 19 22  1  0  0  0  0
 18 23  1  0  0  0  0
 23 24  1  0  0  0  0
 25 26  1  0  0  0  0
 26 27  1  0  0  0  0
 26 28  2  0  0  0  0
 29 30  1  0  0  0  0
 30 31  1  0  0  0  0
 30 32  2  0  0  0  0
M  END
>  <cdx:fragmentId>
3

$$$$
