92029.cdx
  Mrv1902 05222410282D          

 34 37  0  0  0  0            999 V2000
    7.9497   -7.4918    0.0000 C   0  0  0  0  0  0  0  0  0  0  0  0
    7.9499   -8.3168    0.0000 C   0  0  0  0  0  0  0  0  0  0  0  0
    8.6644   -8.7292    0.0000 C   0  0  0  0  0  0  0  0  0  0  0  0
    8.6646   -9.5542    0.0000 C   0  0  0  0  0  0  0  0  0  0  0  0
    7.9502   -9.9668    0.0000 C   0  0  0  0  0  0  0  0  0  0  0  0
    7.2356   -9.5545    0.0000 C   0  0  0  0  0  0  0  0  0  0  0  0
    7.2355   -8.7295    0.0000 C   0  0  0  0  0  0  0  0  0  0  0  0
    7.2352   -7.0795    0.0000 C   0  0  0  0  0  0  0  0  0  0  0  0
    7.2350   -6.2545    0.0000 C   0  0  0  0  0  0  0  0  0  0  0  0
    7.9494   -5.8418    0.0000 C   0  0  0  0  0  0  0  0  0  0  0  0
    7.9492   -5.0168    0.0000 C   0  0  0  0  0  0  0  0  0  0  0  0
    7.2347   -4.6045    0.0000 C   0  0  0  0  0  0  0  0  0  0  0  0
    6.5203   -5.0171    0.0000 C   0  0  0  0  0  0  0  0  0  0  0  0
    6.5205   -5.8421    0.0000 C   0  0  0  0  0  0  0  0  0  0  0  0
    9.3791   -9.9666    0.0000 O   0  0  0  0  0  0  0  0  0  0  0  0
    9.3793  -10.7916    0.0000 C   0  0  0  0  0  0  0  0  0  0  0  0
    7.9503  -10.7918    0.0000 C   0  0  0  0  0  0  0  0  0  0  0  0
    7.2360  -11.2045    0.0000 C   0  0  0  0  0  0  0  0  0  0  0  0
    7.2361  -12.0295    0.0000 C   0  0  0  0  0  0  0  0  0  0  0  0
    6.5217  -12.4421    0.0000 C   0  0  0  0  0  0  0  0  0  0  0  0
    5.8072  -12.0298    0.0000 C   0  0  0  0  0  0  0  0  0  0  0  0
    5.8070  -11.2048    0.0000 C   0  0  0  0  0  0  0  0  0  0  0  0
    6.5214  -10.7921    0.0000 C   0  0  0  0  0  0  0  0  0  0  0  0
    5.0928  -12.4424    0.0000 O   0  0  0  0  0  0  0  0  0  0  0  0
    9.3788   -8.3166    0.0000 C   0  0  0  0  0  0  0  0  0  0  0  0
    9.3787   -7.4916    0.0000 C   0  0  0  0  0  0  0  0  0  0  0  0
    8.6641   -7.0792    0.0000 C   0  0  0  0  0  0  0  0  0  0  0  0
    8.6639   -6.2542    0.0000 C   0  0  0  0  0  0  0  0  0  0  0  0
    9.3783   -5.8416    0.0000 C   0  0  0  0  0  0  0  0  0  0  0  0
   10.0929   -6.2539    0.0000 C   0  0  0  0  0  0  0  0  0  0  0  0
   10.0930   -7.0789    0.0000 C   0  0  0  0  0  0  0  0  0  0  0  0
    9.3782   -5.0166    0.0000 O   0  0  0  0  0  0  0  0  0  0  0  0
    6.5212   -9.9671    0.0000 O   0  0  0  0  0  0  0  0  0  0  0  0
    8.6636   -4.6042    0.0000 O   0  0  0  0  0  0  0  0  0  0  0  0
  1  2  1  0  0  0  0
  2  3  1  0  0  0  0
  3  4  2  0  0  0  0
  4  5  1  0  0  0  0
  5  6  2  0  0  0  0
  6  7  1  0  0  0  0
  2  7  2  0  0  0  0
  8  9  1  0  0  0  0
  9 10  1  0  0  0  0
 10 11  2  0  0  0  0
 11 12  1  0  0  0  0
 12 13  2  0  0  0  0
 13 14  1  0  0  0  0
  9 14  2  0  0  0  0
  1  8  1  0  0  0  0
 15 16  1  0  0  0  0
  4 15  1  0  0  0  0
 17 18  1  0  0  0  0
 18 19  1  0  0  0  0
 19 20  2  0  0  0  0
 20 21  1  0  0  0  0
 21 22  2  0  0  0  0
 22 23  1  0  0  0  0
 18 23  2  0  0  0  0
 21 24  1  0  0  0  0
  5 17  1  0  0  0  0
 25 26  1  0  0  0  0
 26 27  1  0  0  0  0
 27 28  2  0  0  0  0
 28 29  1  0  0  0  0
 29 30  2  0  0  0  0
 30 31  1  0  0  0  0
 26 31  2  0  0  0  0
 29 32  1  0  0  0  0
  3 25  1  0  0  0  0
  6 33  1  0  0  0  0
 11 34  1  0  0  0  0
M  END
>  <cdx:fragmentId>
19

$$$$
