92028.cdx
  Mrv1902 05222410282D          

 26 28  0  0  0  0            999 V2000
    5.4679   -4.9012    0.0000 C   0  0  0  0  0  0  0  0  0  0  0  0
    4.7532   -5.3132    0.0000 C   0  0  0  0  0  0  0  0  0  0  0  0
    4.7527   -6.1382    0.0000 C   0  0  0  0  0  0  0  0  0  0  0  0
    5.4669   -6.5512    0.0000 C   0  0  0  0  0  0  0  0  0  0  0  0
    6.1816   -6.1391    0.0000 C   0  0  0  0  0  0  0  0  0  0  0  0
    6.1821   -5.3141    0.0000 C   0  0  0  0  0  0  0  0  0  0  0  0
    6.8969   -4.9021    0.0000 O   0  0  0  0  0  0  0  0  0  0  0  0
    5.4663   -7.3762    0.0000 C   0  0  0  0  0  0  0  0  0  0  0  0
    6.1805   -7.7891    0.0000 C   0  0  0  0  0  0  0  0  0  0  0  0
    6.1800   -8.6141    0.0000 C   0  0  0  0  0  0  0  0  0  0  0  0
    5.4652   -9.0262    0.0000 C   0  0  0  0  0  0  0  0  0  0  0  0
    5.4647   -9.8512    0.0000 C   0  0  0  0  0  0  0  0  0  0  0  0
    6.1789  -10.2641    0.0000 C   0  0  0  0  0  0  0  0  0  0  0  0
    6.8936   -9.8521    0.0000 C   0  0  0  0  0  0  0  0  0  0  0  0
    6.8942   -9.0271    0.0000 C   0  0  0  0  0  0  0  0  0  0  0  0
    4.7500  -10.2632    0.0000 O   0  0  0  0  0  0  0  0  0  0  0  0
    7.6078  -10.2651    0.0000 O   0  0  0  0  0  0  0  0  0  0  0  0
    7.6073  -11.0901    0.0000 C   0  0  0  0  0  0  0  0  0  0  0  0
    7.6089   -8.6151    0.0000 C   0  0  0  0  0  0  0  0  0  0  0  0
    8.3231   -9.0280    0.0000 C   0  0  0  0  0  0  0  0  0  0  0  0
    8.3226   -9.8530    0.0000 C   0  0  0  0  0  0  0  0  0  0  0  0
    9.0368  -10.2660    0.0000 C   0  0  0  0  0  0  0  0  0  0  0  0
    9.7515   -9.8540    0.0000 C   0  0  0  0  0  0  0  0  0  0  0  0
    9.7521   -9.0290    0.0000 C   0  0  0  0  0  0  0  0  0  0  0  0
    9.0379   -8.6160    0.0000 C   0  0  0  0  0  0  0  0  0  0  0  0
   10.4657  -10.2669    0.0000 O   0  0  0  0  0  0  0  0  0  0  0  0
  1  2  2  0  0  0  0
  2  3  1  0  0  0  0
  3  4  2  0  0  0  0
  4  5  1  0  0  0  0
  5  6  2  0  0  0  0
  6  1  1  0  0  0  0
  6  7  1  0  0  0  0
  4  8  1  0  0  0  0
  8  9  1  0  0  0  0
  9 10  1  0  0  0  0
 10 11  2  0  0  0  0
 11 12  1  0  0  0  0
 12 13  2  0  0  0  0
 13 14  1  0  0  0  0
 14 15  2  0  0  0  0
 15 10  1  0  0  0  0
 12 16  1  0  0  0  0
 14 17  1  0  0  0  0
 17 18  1  0  0  0  0
 15 19  1  0  0  0  0
 19 20  1  0  0  0  0
 20 21  2  0  0  0  0
 21 22  1  0  0  0  0
 22 23  2  0  0  0  0
 23 24  1  0  0  0  0
 24 25  2  0  0  0  0
 25 20  1  0  0  0  0
 23 26  1  0  0  0  0
M  END
>  <cdx:fragmentId>
5

$$$$
