9202.cdx
  Mrv1902 05222410282D          

 24 29  0  0  0  0            999 V2000
    9.7907   -6.9430    0.0000 C   0  0  0  0  0  0  0  0  0  0  0  0
    9.0738   -6.5346    0.0000 C   0  0  0  0  0  0  0  0  0  0  0  0
    8.3618   -6.9513    0.0000 C   0  0  0  0  0  0  0  0  0  0  0  0
    8.3666   -7.7763    0.0000 C   0  0  0  0  0  0  0  0  0  0  0  0
    9.0834   -8.1846    0.0000 C   0  0  0  0  0  0  0  0  0  0  0  0
    9.7955   -7.7680    0.0000 C   0  0  0  0  0  0  0  0  0  0  0  0
    7.6545   -8.1929    0.0000 C   0  0  0  0  0  0  0  0  0  0  0  0
    7.6593   -9.0179    0.0000 N   0  3  0  0  0  0  0  0  0  0  0  0
    8.3761   -9.4263    0.0000 C   0  0  0  0  0  0  0  0  0  0  0  0
    9.0882   -9.0096    0.0000 C   0  0  0  0  0  0  0  0  0  0  0  0
    6.9376   -7.7846    0.0000 C   0  0  0  0  0  0  0  0  0  0  0  0
    6.2256   -8.2012    0.0000 C   0  0  0  0  0  0  0  0  0  0  0  0
    6.2304   -9.0262    0.0000 C   0  0  0  0  0  0  0  0  0  0  0  0
    6.9472   -9.4345    0.0000 C   0  0  0  0  0  0  0  0  0  0  0  0
    5.5087   -7.7929    0.0000 C   0  0  0  0  0  0  0  0  0  0  0  0
    4.7967   -8.2095    0.0000 C   0  0  0  0  0  0  0  0  0  0  0  0
    4.8014   -9.0345    0.0000 C   0  0  0  0  0  0  0  0  0  0  0  0
    5.5183   -9.4428    0.0000 C   0  0  0  0  0  0  0  0  0  0  0  0
   10.4006   -6.3874    0.0000 O   0  0  0  0  0  0  0  0  0  0  0  0
   10.0606   -5.6357    0.0000 C   0  0  0  0  0  0  0  0  0  0  0  0
    9.2407   -5.7267    0.0000 O   0  0  0  0  0  0  0  0  0  0  0  0
    4.1916   -9.5901    0.0000 O   0  0  0  0  0  0  0  0  0  0  0  0
    4.5315  -10.3418    0.0000 C   0  0  0  0  0  0  0  0  0  0  0  0
    5.3515  -10.2508    0.0000 O   0  0  0  0  0  0  0  0  0  0  0  0
  1  2  2  0  0  0  0
  2  3  1  0  0  0  0
  3  4  2  0  0  0  0
  4  5  1  0  0  0  0
  5  6  2  0  0  0  0
  6  1  1  0  0  0  0
  4  7  1  0  0  0  0
  7  8  2  0  0  0  0
  8  9  1  0  0  0  0
  9 10  1  0  0  0  0
 10  5  1  0  0  0  0
  7 11  1  0  0  0  0
 11 12  2  0  0  0  0
 12 13  1  0  0  0  0
 13 14  2  0  0  0  0
 14  8  1  0  0  0  0
 12 15  1  0  0  0  0
 15 16  2  0  0  0  0
 16 17  1  0  0  0  0
 17 18  2  0  0  0  0
 18 13  1  0  0  0  0
  1 19  1  0  0  0  0
 19 20  1  0  0  0  0
 20 21  1  0  0  0  0
 21  2  1  0  0  0  0
 17 22  1  0  0  0  0
 22 23  1  0  0  0  0
 23 24  1  0  0  0  0
 24 18  1  0  0  0  0
M  CHG  1   8   1
M  END
>  <cdx:fragmentId>
5

$$$$
