6920223.cdx
  Mrv1902 05222410232D          

  9  9  0  0  0  0            999 V2000
    7.3437   -6.3742    0.0000 C   0  0  0  0  0  0  0  0  0  0  0  0
    6.6292   -5.9617    0.0000 C   0  0  0  0  0  0  0  0  0  0  0  0
    5.9148   -6.3742    0.0000 C   0  0  0  0  0  0  0  0  0  0  0  0
    5.9148   -7.1992    0.0000 C   0  0  0  0  0  0  0  0  0  0  0  0
    6.6292   -7.6117    0.0000 C   0  0  0  0  0  0  0  0  0  0  0  0
    7.3437   -7.1992    0.0000 N   0  0  0  0  0  0  0  0  0  0  0  0
    8.0582   -5.9617    0.0000 C   0  0  0  0  0  0  0  0  0  0  0  0
    8.0582   -5.1367    0.0000 O   0  0  0  0  0  0  0  0  0  0  0  0
    8.7726   -6.3742    0.0000 O   0  5  0  0  0  0  0  0  0  0  0  0
  1  2  1  0  0  0  0
  2  3  2  0  0  0  0
  3  4  1  0  0  0  0
  4  5  2  0  0  0  0
  5  6  1  0  0  0  0
  1  6  2  0  0  0  0
  7  8  2  0  0  0  0
  7  9  1  0  0  0  0
  1  7  1  0  0  0  0
M  CHG  1   9  -1
M  END
>  <cdx:groupId>
29

>  <cdx:fragmentId>
5

$$$$
