92021.cdx
  Mrv1902 05222410202D          

 33 34  0  0  0  0            999 V2000
    4.8641   -8.0293    0.0000 C   0  0  0  0  0  0  0  0  0  0  0  0
    5.5786   -8.4418    0.0000 C   0  0  0  0  0  0  0  0  0  0  0  0
    6.2931   -8.0292    0.0000 C   0  0  0  0  0  0  0  0  0  0  0  0
    7.0076   -8.4417    0.0000 C   0  0  0  0  0  0  0  0  0  0  0  0
    7.7220   -8.0291    0.0000 C   0  0  0  0  0  0  0  0  0  0  0  0
    8.4365   -8.4416    0.0000 C   0  0  0  0  0  0  0  0  0  0  0  0
    9.1509   -8.0290    0.0000 C   0  0  0  0  0  0  0  0  0  0  0  0
    9.8654   -8.4415    0.0000 C   0  0  0  0  0  0  0  0  0  0  0  0
    1.2918   -8.4421    0.0000 C   0  0  0  0  0  0  0  0  0  0  0  0
    2.0062   -8.0295    0.0000 O   0  0  0  0  0  0  0  0  0  0  0  0
    2.0063   -9.6795    0.0000 O   0  0  0  0  0  0  0  0  0  0  0  0
    3.4352   -8.0294    0.0000 C   0  0  0  0  0  0  0  0  0  0  0  0
    2.7207   -8.4420    0.0000 C   0  0  0  0  0  0  0  0  0  0  0  0
    2.7208   -9.2670    0.0000 C   0  0  0  0  0  0  0  0  0  0  0  0
    3.4353   -9.6794    0.0000 C   0  0  0  0  0  0  0  0  0  0  0  0
    9.8655   -9.2665    0.0000 C   0  0  0  0  0  0  0  0  0  0  0  0
   10.5800   -9.6789    0.0000 C   0  0  0  0  0  0  0  0  0  0  0  0
   11.2944   -9.2664    0.0000 C   0  0  0  0  0  0  0  0  0  0  0  0
   11.2944   -8.4414    0.0000 C   0  0  0  0  0  0  0  0  0  0  0  0
   10.5799   -8.0289    0.0000 C   0  0  0  0  0  0  0  0  0  0  0  0
   12.0089   -9.6788    0.0000 O   0  0  0  0  0  0  0  0  0  0  0  0
    4.1497   -9.2669    0.0000 C   0  0  0  0  0  0  0  0  0  0  0  0
    4.1497   -8.4419    0.0000 C   0  0  0  0  0  0  0  0  0  0  0  0
    7.7219   -7.2041    0.0000 O   0  0  0  0  0  0  0  0  0  0  0  0
    8.4364   -6.7916    0.0000 C   0  0  0  0  0  0  0  0  0  0  0  0
    9.1522   -7.2017    0.0000 C   0  0  0  0  0  0  0  0  0  0  0  0
    8.4350   -5.9660    0.0000 O   0  0  0  0  0  0  0  0  0  0  0  0
    6.2930   -7.2042    0.0000 O   0  0  0  0  0  0  0  0  0  0  0  0
    5.5785   -6.7918    0.0000 C   0  0  0  0  0  0  0  0  0  0  0  0
    5.5758   -5.9668    0.0000 C   0  0  0  0  0  0  0  0  0  0  0  0
    4.8642   -7.2058    0.0000 O   0  0  0  0  0  0  0  0  0  0  0  0
   12.0088   -8.0288    0.0000 O   0  0  0  0  0  0  0  0  0  0  0  0
   12.7233   -8.4413    0.0000 C   0  0  0  0  0  0  0  0  0  0  0  0
 10  9  1  0  0  0  0
 23  1  1  0  0  0  0
  1  2  1  0  0  0  0
  2  3  1  0  0  0  0
  3  4  1  0  0  0  0
  4  5  1  0  0  0  0
  5  6  1  0  0  0  0
  6  7  1  0  0  0  0
  7  8  1  0  0  0  0
  3 28  1  0  0  0  0
  5 24  1  0  0  0  0
 13 10  1  0  0  0  0
 14 11  1  0  0  0  0
 12 23  1  0  0  0  0
 13 12  2  0  0  0  0
 14 13  1  0  0  0  0
 15 14  2  0  0  0  0
 22 15  1  0  0  0  0
 23 22  2  0  0  0  0
  8 16  2  0  0  0  0
 16 17  1  0  0  0  0
 17 18  2  0  0  0  0
 18 19  1  0  0  0  0
 19 20  2  0  0  0  0
 20  8  1  0  0  0  0
 18 21  1  0  0  0  0
 24 25  1  0  0  0  0
 25 26  1  0  0  0  0
 25 27  2  0  0  0  0
 28 29  1  0  0  0  0
 29 30  1  0  0  0  0
 29 31  2  0  0  0  0
 19 32  1  0  0  0  0
 32 33  1  0  0  0  0
M  END
>  <cdx:fragmentId>
3

$$$$
