920224.cdx
  Mrv1902 05222410252D          

 11 10  0  0  0  0            999 V2000
    6.3800   -7.0400    0.0000 C   0  0  0  0  0  0  0  0  0  0  0  0
    7.0945   -6.6275    0.0000 C   0  0  0  0  0  0  0  0  0  0  0  0
    5.6655   -6.6275    0.0000 C   0  0  0  0  0  0  0  0  0  0  0  0
    4.9511   -7.0400    0.0000 O   0  0  0  0  0  0  0  0  0  0  0  0
    5.6655   -5.8025    0.0000 O   0  0  0  0  0  0  0  0  0  0  0  0
    7.8089   -7.0400    0.0000 C   0  0  0  0  0  0  0  0  0  0  0  0
    8.5234   -6.6275    0.0000 C   0  0  0  0  0  0  0  0  0  0  0  0
    9.2379   -7.0400    0.0000 C   0  0  0  0  0  0  0  0  0  0  0  0
    9.9524   -6.6275    0.0000 C   0  0  0  0  0  0  0  0  0  0  0  0
   10.6668   -7.0400    0.0000 O   0  0  0  0  0  0  0  0  0  0  0  0
    9.9524   -5.8025    0.0000 O   0  0  0  0  0  0  0  0  0  0  0  0
  1  2  1  0  0  0  0
  1  3  1  0  0  0  0
  3  4  1  0  0  0  0
  3  5  2  0  0  0  0
  2  6  1  0  0  0  0
  6  7  1  0  0  0  0
  7  8  1  0  0  0  0
  8  9  1  0  0  0  0
  9 10  1  0  0  0  0
  9 11  2  0  0  0  0
M  END
>  <cdx:fragmentId>
46

$$$$
