92033.cdx
  Mrv1902 05222410192D          

 12 13  0  0  0  0            999 V2000
    6.5018   -5.3487    0.0000 C   0  0  0  0  0  0  0  0  0  0  0  0
    6.5018   -6.1737    0.0000 C   0  0  0  0  0  0  0  0  0  0  0  0
    7.2163   -6.5863    0.0000 C   0  0  0  0  0  0  0  0  0  0  0  0
    7.9307   -6.1737    0.0000 C   0  0  0  0  0  0  0  0  0  0  0  0
    7.9307   -5.3487    0.0000 C   0  0  0  0  0  0  0  0  0  0  0  0
    7.2163   -4.9363    0.0000 C   0  0  0  0  0  0  0  0  0  0  0  0
    8.7154   -6.4287    0.0000 O   0  0  0  0  0  0  0  0  0  0  0  0
    9.2003   -5.7612    0.0000 C   0  0  0  0  0  0  0  0  0  0  0  0
    8.7154   -5.0938    0.0000 C   0  0  0  0  0  0  0  0  0  0  0  0
    8.9703   -4.3092    0.0000 C   0  0  0  0  0  0  0  0  0  0  0  0
    5.7873   -6.5863    0.0000 C   0  0  0  0  0  0  0  0  0  0  0  0
    5.7873   -4.9363    0.0000 O   0  0  0  0  0  0  0  0  0  0  0  0
  1  2  2  0  0  0  0
  2  3  1  0  0  0  0
  3  4  2  0  0  0  0
  4  5  1  0  0  0  0
  5  6  2  0  0  0  0
  6  1  1  0  0  0  0
  4  7  1  0  0  0  0
  7  8  1  0  0  0  0
  8  9  2  0  0  0  0
  9  5  1  0  0  0  0
  9 10  1  0  0  0  0
  2 11  1  0  0  0  0
  1 12  1  0  0  0  0
M  END
>  <cdx:fragmentId>
5

$$$$
