92032.cdx
  Mrv1902 05222410192D          

 53 56  0  0  0  0            999 V2000
    1.1044  -10.4559    0.0000 O   0  0  0  0  0  0  0  0  0  0  0  0
    1.7474  -10.0846    0.0000 C   0  0  0  0  0  0  0  0  0  0  0  0
    1.7474   -9.3421    0.0000 C   0  0  0  0  0  0  0  0  0  0  0  0
    1.1044   -8.9709    0.0000 O   0  0  0  0  0  0  0  0  0  0  0  0
    2.3905  -10.4559    0.0000 C   0  0  0  0  0  0  0  0  0  0  0  0
    3.0335  -10.0846    0.0000 C   0  0  0  0  0  0  0  0  0  0  0  0
    3.0335   -9.3421    0.0000 C   0  0  0  0  0  0  0  0  0  0  0  0
    2.3905   -8.9709    0.0000 C   0  0  0  0  0  0  0  0  0  0  0  0
    4.3195   -9.3421    0.0000 C   0  0  0  0  0  0  0  0  0  0  0  0
    3.6765   -8.9709    0.0000 C   0  0  0  0  0  0  0  0  0  0  0  0
    4.9626   -8.9709    0.0000 C   0  0  0  0  0  0  0  0  0  0  0  0
    4.9626   -8.2284    0.0000 O   0  0  0  0  0  0  0  0  0  0  0  0
    5.6056   -9.3421    0.0000 O   0  0  0  0  0  0  0  0  0  0  0  0
    6.2486   -8.9709    0.0000 C   0  0  0  0  0  0  0  0  0  0  0  0
    6.2486  -10.4559    0.0000 O   0  0  0  0  0  0  0  0  0  0  0  0
    6.8916  -10.0846    0.0000 C   0  0  2  0  0  0  0  0  0  0  0  0
    6.8916   -9.3421    0.0000 C   0  0  2  0  0  0  0  0  0  0  0  0
    7.5347  -10.4559    0.0000 C   0  0  1  0  0  0  0  0  0  0  0  0
    8.1777  -10.0846    0.0000 C   0  0  2  0  0  0  0  0  0  0  0  0
    8.1777   -9.3421    0.0000 C   0  0  2  0  0  0  0  0  0  0  0  0
    7.5347   -8.9709    0.0000 O   0  0  0  0  0  0  0  0  0  0  0  0
    8.8207   -8.9709    0.0000 O   0  0  0  0  0  0  0  0  0  0  0  0
    8.6285   -8.2537    0.0000 C   0  0  1  0  0  0  0  0  0  0  0  0
    8.8455   -7.5436    0.0000 C   0  0  2  0  0  0  0  0  0  0  0  0
    8.2372   -7.1178    0.0000 C   0  0  1  0  0  0  0  0  0  0  0  0
    7.6443   -7.5648    0.0000 C   0  0  2  0  0  0  0  0  0  0  0  0
    7.8861   -8.2668    0.0000 O   0  0  0  0  0  0  0  0  0  0  0  0
    9.5475   -7.3017    0.0000 O   0  0  0  0  0  0  0  0  0  0  0  0
    9.7397   -6.5845    0.0000 C   0  0  0  0  0  0  0  0  0  0  0  0
   10.4569   -6.3924    0.0000 C   0  0  0  0  0  0  0  0  0  0  0  0
    9.2147   -6.0595    0.0000 O   0  0  0  0  0  0  0  0  0  0  0  0
   10.6491   -5.6752    0.0000 C   0  0  0  0  0  0  0  0  0  0  0  0
   11.3663   -5.4830    0.0000 C   0  0  0  0  0  0  0  0  0  0  0  0
   11.8913   -6.0080    0.0000 C   0  0  0  0  0  0  0  0  0  0  0  0
   12.6085   -5.8159    0.0000 C   0  0  0  0  0  0  0  0  0  0  0  0
   12.8007   -5.0987    0.0000 C   0  0  0  0  0  0  0  0  0  0  0  0
   12.2756   -4.5736    0.0000 C   0  0  0  0  0  0  0  0  0  0  0  0
   11.5584   -4.7658    0.0000 C   0  0  0  0  0  0  0  0  0  0  0  0
   13.5179   -4.9065    0.0000 O   0  0  0  0  0  0  0  0  0  0  0  0
   12.4678   -3.8564    0.0000 O   0  0  0  0  0  0  0  0  0  0  0  0
   11.9428   -3.3314    0.0000 C   0  0  0  0  0  0  0  0  0  0  0  0
   13.1335   -6.3409    0.0000 O   0  0  0  0  0  0  0  0  0  0  0  0
   13.8507   -6.1487    0.0000 C   0  0  0  0  0  0  0  0  0  0  0  0
    6.9342   -7.3478    0.0000 C   0  0  0  0  0  0  0  0  0  0  0  0
    6.7420   -6.6306    0.0000 O   0  0  0  0  0  0  0  0  0  0  0  0
    9.3709   -8.2666    0.0000 C   0  0  0  0  0  0  0  0  0  0  0  0
    9.8959   -7.7416    0.0000 O   0  0  0  0  0  0  0  0  0  0  0  0
    2.3905  -11.1984    0.0000 O   0  0  0  0  0  0  0  0  0  0  0  0
    1.7474  -11.5696    0.0000 C   0  0  0  0  0  0  0  0  0  0  0  0
    1.1044   -8.2284    0.0000 C   0  0  0  0  0  0  0  0  0  0  0  0
    7.5347  -11.1984    0.0000 O   0  0  0  0  0  0  0  0  0  0  0  0
    8.2241   -6.3754    0.0000 O   0  0  0  0  0  0  0  0  0  0  0  0
    8.8207  -10.4559    0.0000 O   0  0  0  0  0  0  0  0  0  0  0  0
  1  2  1  0  0  0  0
  2  3  2  0  0  0  0
  3  4  1  0  0  0  0
  2  5  1  0  0  0  0
  5  6  2  0  0  0  0
  6  7  1  0  0  0  0
  7  8  2  0  0  0  0
  8  3  1  0  0  0  0
  9 10  2  0  0  0  0
 10  7  1  0  0  0  0
  9 11  1  0  0  0  0
 11 12  2  0  0  0  0
 11 13  1  0  0  0  0
 13 14  1  0  0  0  0
 16 15  1  6  0  0  0
 16 17  1  0  0  0  0
 17 14  1  1  0  0  0
 16 18  1  0  0  0  0
 18 19  1  0  0  0  0
 19 20  1  0  0  0  0
 20 21  1  0  0  0  0
 21 17  1  0  0  0  0
 20 22  1  6  0  0  0
 23 22  1  6  0  0  0
 23 24  1  0  0  0  0
 24 25  1  0  0  0  0
 25 26  1  0  0  0  0
 26 27  1  0  0  0  0
 27 23  1  0  0  0  0
 24 28  1  6  0  0  0
 28 29  1  0  0  0  0
 29 30  1  0  0  0  0
 29 31  2  0  0  0  0
 30 32  2  0  0  0  0
 32 33  1  0  0  0  0
 33 34  2  0  0  0  0
 34 35  1  0  0  0  0
 35 36  2  0  0  0  0
 36 37  1  0  0  0  0
 37 38  2  0  0  0  0
 38 33  1  0  0  0  0
 36 39  1  0  0  0  0
 37 40  1  0  0  0  0
 40 41  1  0  0  0  0
 35 42  1  0  0  0  0
 42 43  1  0  0  0  0
 26 44  1  6  0  0  0
 44 45  1  0  0  0  0
 23 46  1  0  0  0  0
 46 47  1  0  0  0  0
  5 48  1  0  0  0  0
 48 49  1  0  0  0  0
  4 50  1  0  0  0  0
 18 51  1  1  0  0  0
 25 52  1  1  0  0  0
 19 53  1  6  0  0  0
M  END
>  <cdx:fragmentId>
5

$$$$
