92034.cdx
  Mrv1902 05222410202D          

 21 20  0  0  0  0            999 V2000
    1.8340   -4.0147    0.0000 C   0  0  0  0  0  0  0  0  0  0  0  0
    2.5508   -3.6063    0.0000 C   0  0  0  0  0  0  0  0  0  0  0  0
    3.2629   -4.0229    0.0000 C   0  0  0  0  0  0  0  0  0  0  0  0
    3.9797   -3.6146    0.0000 C   0  0  0  0  0  0  0  0  0  0  0  0
    4.6918   -4.0312    0.0000 C   0  0  0  0  0  0  0  0  0  0  0  0
    5.4086   -3.6228    0.0000 C   0  0  0  0  0  0  0  0  0  0  0  0
    6.1207   -4.0394    0.0000 C   0  0  0  0  0  0  0  0  0  0  0  0
    6.8376   -3.6311    0.0000 C   0  0  0  0  0  0  0  0  0  0  0  0
    7.5496   -4.0477    0.0000 C   0  0  0  0  0  0  0  0  0  0  0  0
    8.2665   -3.6393    0.0000 C   0  0  0  0  0  0  0  0  0  0  0  0
    8.9785   -4.0559    0.0000 C   0  0  0  0  0  0  0  0  0  0  0  0
    9.6954   -3.6476    0.0000 C   0  0  0  0  0  0  0  0  0  0  0  0
   10.4075   -4.0642    0.0000 C   0  0  0  0  0  0  0  0  0  0  0  0
   11.1243   -3.6558    0.0000 C   0  0  0  0  0  0  0  0  0  0  0  0
   11.8364   -4.0724    0.0000 C   0  0  0  0  0  0  0  0  0  0  0  0
   12.5532   -3.6640    0.0000 C   0  0  0  0  0  0  0  0  0  0  0  0
    3.6712   -4.7398    0.0000 O   0  0  0  0  0  0  0  0  0  0  0  0
   11.8316   -4.8974    0.0000 C   0  0  0  0  0  0  0  0  0  0  0  0
    8.9738   -4.8809    0.0000 C   0  0  0  0  0  0  0  0  0  0  0  0
    6.1160   -4.8644    0.0000 C   0  0  0  0  0  0  0  0  0  0  0  0
    2.8463   -4.7350    0.0000 C   0  0  0  0  0  0  0  0  0  0  0  0
  1  2  2  0  0  0  0
  2  3  1  0  0  0  0
  3  4  1  0  0  0  0
  4  5  1  0  0  0  0
  5  6  1  0  0  0  0
  6  7  2  0  0  0  0
  7  8  1  0  0  0  0
  8  9  1  0  0  0  0
  9 10  1  0  0  0  0
 10 11  2  0  0  0  0
 11 12  1  0  0  0  0
 12 13  1  0  0  0  0
 13 14  1  0  0  0  0
 14 15  2  0  0  0  0
 15 16  1  0  0  0  0
  3 17  1  0  0  0  0
 15 18  1  0  0  0  0
 11 19  1  0  0  0  0
  7 20  1  0  0  0  0
  3 21  1  0  0  0  0
M  END
>  <cdx:fragmentId>
28770

$$$$
