92036.cdx
  Mrv1902 05222410192D          

 38 41  0  0  0  0            999 V2000
    2.5281   -9.2950    0.0000 C   0  0  0  0  0  0  0  0  0  0  0  0
    2.5281  -10.1200    0.0000 C   0  0  0  0  0  0  0  0  0  0  0  0
    3.2425  -10.5325    0.0000 C   0  0  0  0  0  0  0  0  0  0  0  0
    3.9570  -10.1200    0.0000 C   0  0  1  0  0  0  0  0  0  0  0  0
    3.9570   -9.2950    0.0000 C   0  0  2  0  0  0  0  0  0  0  0  0
    3.2425   -8.8825    0.0000 C   0  0  0  0  0  0  0  0  0  0  0  0
    4.6715  -10.5325    0.0000 C   0  0  0  0  0  0  0  0  0  0  0  0
    5.3859  -10.1200    0.0000 C   0  0  0  0  0  0  0  0  0  0  0  0
    5.3859   -9.2950    0.0000 C   0  0  0  0  0  0  0  0  0  0  0  0
    4.6715   -8.8825    0.0000 C   0  0  0  0  0  0  0  0  0  0  0  0
    6.1004   -8.8825    0.0000 C   0  0  2  0  0  0  0  0  0  0  0  0
    6.1004   -8.0575    0.0000 C   0  0  1  0  0  0  0  0  0  0  0  0
    5.3859   -7.6450    0.0000 C   0  0  0  0  0  0  0  0  0  0  0  0
    4.6715   -8.0575    0.0000 C   0  0  0  0  0  0  0  0  0  0  0  0
    3.9570   -7.6450    0.0000 O   0  0  0  0  0  0  0  0  0  0  0  0
    1.8136  -10.5325    0.0000 O   0  0  0  0  0  0  0  0  0  0  0  0
    6.1004  -10.5325    0.0000 O   0  0  0  0  0  0  0  0  0  0  0  0
    2.8300  -11.2470    0.0000 C   0  0  0  0  0  0  0  0  0  0  0  0
    3.9570   -8.4700    0.0000 C   0  0  0  0  0  0  0  0  0  0  0  0
    6.1004   -7.2325    0.0000 C   0  0  0  0  0  0  0  0  0  0  0  0
    3.6550  -11.2470    0.0000 C   0  0  0  0  0  0  0  0  0  0  0  0
    6.1004   -9.7075    0.0000 C   0  0  0  0  0  0  0  0  0  0  0  0
    6.8850   -9.1374    0.0000 C   0  0  0  0  0  0  0  0  0  0  0  0
    7.3700   -8.4700    0.0000 C   0  0  0  0  0  0  0  0  0  0  0  0
    6.8850   -7.8026    0.0000 C   0  0  0  0  0  0  0  0  0  0  0  0
    7.1400   -7.0179    0.0000 C   0  0  2  0  0  0  0  0  0  0  0  0
    6.5879   -6.4048    0.0000 C   0  0  0  0  0  0  0  0  0  0  0  0
    7.9469   -6.8464    0.0000 C   0  0  0  0  0  0  0  0  0  0  0  0
    8.2019   -6.0618    0.0000 C   0  0  0  0  0  0  0  0  0  0  0  0
    7.6498   -5.4487    0.0000 O   0  0  0  0  0  0  0  0  0  0  0  0
    9.0089   -5.8903    0.0000 C   0  0  0  0  0  0  0  0  0  0  0  0
    9.2638   -5.1056    0.0000 C   0  0  0  0  0  0  0  0  0  0  0  0
    8.7118   -4.4925    0.0000 C   0  0  0  0  0  0  0  0  0  0  0  0
    7.1400   -9.9221    0.0000 O   0  0  0  0  0  0  0  0  0  0  0  0
   10.6228   -5.5472    0.0000 O   0  0  0  0  0  0  0  0  0  0  0  0
   10.3257   -4.1495    0.0000 O   0  0  0  0  0  0  0  0  0  0  0  0
   10.0708   -4.9341    0.0000 C   0  0  0  0  0  0  0  0  0  0  0  0
    3.9570  -10.9450    0.0000 H   0  0  0  0  0  0  0  0  0  0  0  0
  1  2  1  0  0  0  0
  2  3  1  0  0  0  0
  3  4  1  0  0  0  0
  4  5  1  0  0  0  0
  5  6  1  0  0  0  0
  6  1  1  0  0  0  0
  4  7  1  0  0  0  0
  7  8  1  0  0  0  0
  8  9  1  0  0  0  0
  9 10  2  0  0  0  0
 10  5  1  0  0  0  0
  9 11  1  0  0  0  0
 11 12  1  0  0  0  0
 12 13  1  0  0  0  0
 13 14  1  0  0  0  0
 14 10  1  0  0  0  0
 14 15  2  0  0  0  0
  2 16  1  0  0  0  0
  8 17  1  0  0  0  0
  3 18  1  0  0  0  0
  5 19  1  1  0  0  0
 12 20  1  1  0  0  0
  3 21  1  0  0  0  0
 11 22  1  6  0  0  0
 11 23  1  0  0  0  0
 23 24  1  0  0  0  0
 24 25  2  0  0  0  0
 25 12  1  0  0  0  0
 25 26  1  0  0  0  0
 26 27  1  6  0  0  0
 26 28  1  0  0  0  0
 28 29  1  0  0  0  0
 29 30  2  0  0  0  0
 29 31  1  0  0  0  0
 31 32  1  0  0  0  0
 32 33  1  0  0  0  0
 37 35  1  0  0  0  0
 32 37  1  0  0  0  0
 23 34  1  0  0  0  0
 37 36  2  0  0  0  0
  4 38  1  6  0  0  0
M  END
>  <cdx:fragmentId>
5

$$$$
