92031.cdx
  Mrv1902 05222410182D          

 24 26  0  0  0  0            999 V2000
    4.5631   -7.6863    0.0000 C   0  0  0  0  0  0  0  0  0  0  0  0
    4.5631   -8.5113    0.0000 C   0  0  0  0  0  0  0  0  0  0  0  0
    5.2775   -8.9238    0.0000 C   0  0  0  0  0  0  0  0  0  0  0  0
    5.9920   -8.5113    0.0000 C   0  0  0  0  0  0  0  0  0  0  0  0
    5.9920   -7.6863    0.0000 C   0  0  0  0  0  0  0  0  0  0  0  0
    5.2775   -7.2738    0.0000 C   0  0  0  0  0  0  0  0  0  0  0  0
    6.7065   -8.9238    0.0000 C   0  0  0  0  0  0  0  0  0  0  0  0
    7.4209   -8.5113    0.0000 C   0  0  0  0  0  0  0  0  0  0  0  0
    7.4209   -7.6863    0.0000 C   0  0  0  0  0  0  0  0  0  0  0  0
    6.7065   -7.2738    0.0000 O   0  0  0  0  0  0  0  0  0  0  0  0
    5.2775   -9.7487    0.0000 O   0  0  0  0  0  0  0  0  0  0  0  0
    6.7065   -9.7487    0.0000 O   0  0  0  0  0  0  0  0  0  0  0  0
    8.8499   -7.6863    0.0000 C   0  0  0  0  0  0  0  0  0  0  0  0
    8.1354   -7.2738    0.0000 C   0  0  0  0  0  0  0  0  0  0  0  0
    9.5644   -7.2738    0.0000 C   0  0  0  0  0  0  0  0  0  0  0  0
    9.5644   -6.4487    0.0000 C   0  0  0  0  0  0  0  0  0  0  0  0
    8.8499   -6.0362    0.0000 C   0  0  0  0  0  0  0  0  0  0  0  0
    8.1354   -6.4487    0.0000 C   0  0  0  0  0  0  0  0  0  0  0  0
    3.8486   -7.2738    0.0000 O   0  0  0  0  0  0  0  0  0  0  0  0
    8.8499   -5.2113    0.0000 O   0  0  0  0  0  0  0  0  0  0  0  0
   10.2788   -6.0362    0.0000 O   0  0  0  0  0  0  0  0  0  0  0  0
   10.2788   -7.6863    0.0000 O   0  0  0  0  0  0  0  0  0  0  0  0
    9.5644   -4.7988    0.0000 C   0  0  0  0  0  0  0  0  0  0  0  0
   10.2788   -8.5113    0.0000 C   0  0  0  0  0  0  0  0  0  0  0  0
  1  2  2  0  0  0  0
  2  3  1  0  0  0  0
  3  4  2  0  0  0  0
  4  5  1  0  0  0  0
  5  6  2  0  0  0  0
  6  1  1  0  0  0  0
  4  7  1  0  0  0  0
  7  8  1  0  0  0  0
  8  9  2  0  0  0  0
  9 10  1  0  0  0  0
 10  5  1  0  0  0  0
  3 11  1  0  0  0  0
 12  7  2  0  0  0  0
 13 14  2  0  0  0  0
 14  9  1  0  0  0  0
 13 15  1  0  0  0  0
 15 16  2  0  0  0  0
 16 17  1  0  0  0  0
 17 18  2  0  0  0  0
 18 14  1  0  0  0  0
  1 19  1  0  0  0  0
 17 20  1  0  0  0  0
 16 21  1  0  0  0  0
 15 22  1  0  0  0  0
 20 23  1  0  0  0  0
 22 24  1  0  0  0  0
M  END
>  <cdx:fragmentId>
5

$$$$
