92041.cdx
  Mrv1902 05222410222D          

 11 12  0  0  0  0            999 V2000
    5.6356   -6.9438    0.0000 C   0  0  0  0  0  0  0  0  0  0  0  0
    5.6356   -7.7687    0.0000 C   0  0  0  0  0  0  0  0  0  0  0  0
    6.3500   -8.1813    0.0000 C   0  0  0  0  0  0  0  0  0  0  0  0
    7.0645   -7.7687    0.0000 C   0  0  0  0  0  0  0  0  0  0  0  0
    7.0645   -6.9438    0.0000 C   0  0  0  0  0  0  0  0  0  0  0  0
    6.3500   -6.5313    0.0000 C   0  0  0  0  0  0  0  0  0  0  0  0
    7.8491   -8.0237    0.0000 O   0  0  0  0  0  0  0  0  0  0  0  0
    8.3340   -7.3563    0.0000 C   0  0  0  0  0  0  0  0  0  0  0  0
    7.8491   -6.6888    0.0000 C   0  0  0  0  0  0  0  0  0  0  0  0
    4.9211   -8.1813    0.0000 C   0  0  0  0  0  0  0  0  0  0  0  0
    8.1041   -5.9042    0.0000 C   0  0  0  0  0  0  0  0  0  0  0  0
  1  2  1  0  0  0  0
  2  3  1  0  0  0  0
  3  4  1  0  0  0  0
  4  5  2  0  0  0  0
  5  6  1  0  0  0  0
  6  1  1  0  0  0  0
  4  7  1  0  0  0  0
  7  8  1  0  0  0  0
  8  9  2  0  0  0  0
  9  5  1  0  0  0  0
  2 10  1  0  0  0  0
  9 11  1  0  0  0  0
M  END
>  <cdx:fragmentId>
5

$$$$
