92042.cdx
  Mrv1902 05222410232D          

 16 17  0  0  0  0            999 V2000
    4.9756   -9.1438    0.0000 C   0  0  0  0  0  0  0  0  0  0  0  0
    4.9756   -9.9688    0.0000 C   0  0  0  0  0  0  0  0  0  0  0  0
    5.6900  -10.3812    0.0000 C   0  0  0  0  0  0  0  0  0  0  0  0
    6.4045   -9.9688    0.0000 C   0  0  0  0  0  0  0  0  0  0  0  0
    6.4045   -9.1438    0.0000 C   0  0  0  0  0  0  0  0  0  0  0  0
    5.6900   -8.7313    0.0000 C   0  0  0  0  0  0  0  0  0  0  0  0
    4.2611  -10.3812    0.0000 O   0  0  0  0  0  0  0  0  0  0  0  0
    5.6900   -7.9063    0.0000 C   0  0  0  0  0  0  0  0  0  0  0  0
    6.4045   -7.4937    0.0000 C   0  0  0  0  0  0  0  0  0  0  0  0
    6.4045   -6.6688    0.0000 C   0  0  0  0  0  0  0  0  0  0  0  0
    7.1190   -7.9063    0.0000 C   0  0  0  0  0  0  0  0  0  0  0  0
    7.1190   -6.2563    0.0000 C   0  0  0  0  0  0  0  0  0  0  0  0
    7.1190   -5.4313    0.0000 C   0  0  0  0  0  0  0  0  0  0  0  0
    6.4045   -5.0187    0.0000 C   0  0  0  0  0  0  0  0  0  0  0  0
    5.6900   -5.4313    0.0000 C   0  0  0  0  0  0  0  0  0  0  0  0
    5.6900   -6.2563    0.0000 C   0  0  0  0  0  0  0  0  0  0  0  0
  1  2  1  0  0  0  0
  2  3  1  0  0  0  0
  3  4  1  0  0  0  0
  4  5  1  0  0  0  0
  5  6  1  0  0  0  0
  6  1  1  0  0  0  0
  2  7  2  0  0  0  0
  6  8  1  0  0  0  0
  8  9  2  0  0  0  0
  9 10  1  0  0  0  0
  9 11  1  0  0  0  0
 10 12  2  0  0  0  0
 12 13  1  0  0  0  0
 13 14  2  0  0  0  0
 14 15  1  0  0  0  0
 15 16  2  0  0  0  0
 16 10  1  0  0  0  0
M  END
>  <cdx:fragmentId>
5

$$$$
