9204.cdx
  Mrv1902 05222410262D          

 26 29  0  0  0  0            999 V2000
    9.2420   -5.1147    0.0000 C   0  0  0  0  0  0  0  0  0  0  0  0
    8.5301   -4.6978    0.0000 C   0  0  0  0  0  0  0  0  0  0  0  0
    7.8130   -5.1059    0.0000 C   0  0  0  0  0  0  0  0  0  0  0  0
    7.8079   -5.9309    0.0000 C   0  0  0  0  0  0  0  0  0  0  0  0
    8.5199   -6.3478    0.0000 C   0  0  0  0  0  0  0  0  0  0  0  0
    9.2369   -5.9397    0.0000 C   0  0  0  0  0  0  0  0  0  0  0  0
    7.0909   -6.3390    0.0000 C   0  0  0  0  0  0  0  0  0  0  0  0
    7.0858   -7.1639    0.0000 N   0  3  0  0  0  0  0  0  0  0  0  0
    7.7977   -7.5808    0.0000 C   0  0  0  0  0  0  0  0  0  0  0  0
    8.5148   -7.1728    0.0000 C   0  0  0  0  0  0  0  0  0  0  0  0
    9.8585   -4.5665    0.0000 O   0  0  0  0  0  0  0  0  0  0  0  0
    9.5276   -3.8108    0.0000 C   0  0  0  0  0  0  0  0  0  0  0  0
    8.7066   -3.8919    0.0000 O   0  0  0  0  0  0  0  0  0  0  0  0
    6.3079   -6.0792    0.0000 C   0  0  0  0  0  0  0  0  0  0  0  0
    5.8189   -6.7436    0.0000 C   0  0  0  0  0  0  0  0  0  0  0  0
    6.2997   -7.4140    0.0000 C   0  0  0  0  0  0  0  0  0  0  0  0
    4.9979   -6.8248    0.0000 C   0  0  0  0  0  0  0  0  0  0  0  0
    4.6577   -7.5763    0.0000 C   0  0  0  0  0  0  0  0  0  0  0  0
    5.1384   -8.2468    0.0000 C   0  0  0  0  0  0  0  0  0  0  0  0
    5.9594   -8.1656    0.0000 C   0  0  0  0  0  0  0  0  0  0  0  0
    6.0993   -5.2810    0.0000 O   0  0  0  0  0  0  0  0  0  0  0  0
    6.3675   -8.8826    0.0000 O   0  0  0  0  0  0  0  0  0  0  0  0
    4.9200   -9.0423    0.0000 O   0  0  0  0  0  0  0  0  0  0  0  0
    4.1218   -9.2509    0.0000 C   0  0  0  0  0  0  0  0  0  0  0  0
    5.9506   -9.5945    0.0000 C   0  0  0  0  0  0  0  0  0  0  0  0
    6.9640   -8.1485    0.0000 O   0  5  0  0  0  0  0  0  0  0  0  0
  1  2  2  0  0  0  0
  2  3  1  0  0  0  0
  3  4  2  0  0  0  0
  4  5  1  0  0  0  0
  5  6  2  0  0  0  0
  6  1  1  0  0  0  0
  4  7  1  0  0  0  0
  7  8  2  0  0  0  0
  8  9  1  0  0  0  0
  9 10  2  0  0  0  0
 10  5  1  0  0  0  0
  1 11  1  0  0  0  0
 11 12  1  0  0  0  0
 12 13  1  0  0  0  0
 13  2  1  0  0  0  0
  7 14  1  0  0  0  0
 14 15  1  0  0  0  0
 15 16  2  0  0  0  0
 16  8  1  0  0  0  0
 15 17  1  0  0  0  0
 17 18  2  0  0  0  0
 18 19  1  0  0  0  0
 19 20  2  0  0  0  0
 20 16  1  0  0  0  0
 14 21  2  0  0  0  0
 20 22  1  0  0  0  0
 19 23  1  0  0  0  0
 23 24  1  0  0  0  0
 22 25  1  0  0  0  0
M  CHG  2   8   1  26  -1
M  END
>  <cdx:fragmentId>
101

$$$$
