92044.cdx
  Mrv1902 05222410212D          

 20 22  0  0  0  0            999 V2000
    4.6043   -6.8750    0.0000 C   0  0  0  0  0  0  0  0  0  0  0  0
    4.6043   -7.7000    0.0000 C   0  0  0  0  0  0  0  0  0  0  0  0
    5.3188   -8.1125    0.0000 C   0  0  0  0  0  0  0  0  0  0  0  0
    6.0332   -7.7000    0.0000 C   0  0  0  0  0  0  0  0  0  0  0  0
    6.0332   -6.8750    0.0000 C   0  0  0  0  0  0  0  0  0  0  0  0
    5.3188   -6.4625    0.0000 C   0  0  0  0  0  0  0  0  0  0  0  0
    6.7477   -8.1125    0.0000 C   0  0  0  0  0  0  0  0  0  0  0  0
    7.4622   -7.7000    0.0000 C   0  0  0  0  0  0  0  0  0  0  0  0
    7.4622   -6.8750    0.0000 C   0  0  0  0  0  0  0  0  0  0  0  0
    6.7477   -6.4625    0.0000 O   0  0  0  0  0  0  0  0  0  0  0  0
    8.8911   -6.8750    0.0000 C   0  0  0  0  0  0  0  0  0  0  0  0
    8.1767   -6.4625    0.0000 C   0  0  0  0  0  0  0  0  0  0  0  0
    9.6056   -6.4625    0.0000 C   0  0  0  0  0  0  0  0  0  0  0  0
    9.6056   -5.6375    0.0000 C   0  0  0  0  0  0  0  0  0  0  0  0
    8.8911   -5.2250    0.0000 C   0  0  0  0  0  0  0  0  0  0  0  0
    8.1767   -5.6375    0.0000 C   0  0  0  0  0  0  0  0  0  0  0  0
    6.7477   -8.9375    0.0000 O   0  0  0  0  0  0  0  0  0  0  0  0
    3.8898   -6.4625    0.0000 O   0  0  0  0  0  0  0  0  0  0  0  0
    8.8911   -4.4000    0.0000 O   0  0  0  0  0  0  0  0  0  0  0  0
   10.3201   -5.2250    0.0000 O   0  0  0  0  0  0  0  0  0  0  0  0
  1  2  2  0  0  0  0
  2  3  1  0  0  0  0
  3  4  2  0  0  0  0
  4  5  1  0  0  0  0
  5  6  2  0  0  0  0
  6  1  1  0  0  0  0
  4  7  1  0  0  0  0
  7  8  1  0  0  0  0
  8  9  2  0  0  0  0
  9 10  1  0  0  0  0
 10  5  1  0  0  0  0
 11 12  2  0  0  0  0
 12  9  1  0  0  0  0
 11 13  1  0  0  0  0
 13 14  2  0  0  0  0
 14 15  1  0  0  0  0
 15 16  2  0  0  0  0
 16 12  1  0  0  0  0
  7 17  2  0  0  0  0
  1 18  1  0  0  0  0
 15 19  1  0  0  0  0
 14 20  1  0  0  0  0
M  END
>  <cdx:fragmentId>
5

$$$$
