92049.cdx
  Mrv1902 05222410252D          

 12 12  0  0  0  0            999 V2000
    7.1893   -5.3487    0.0000 C   0  0  0  0  0  0  0  0  0  0  0  0
    7.1893   -6.1737    0.0000 C   0  0  0  0  0  0  0  0  0  0  0  0
    7.9038   -6.5863    0.0000 C   0  0  0  0  0  0  0  0  0  0  0  0
    8.6182   -6.1737    0.0000 C   0  0  0  0  0  0  0  0  0  0  0  0
    8.6182   -5.3487    0.0000 C   0  0  0  0  0  0  0  0  0  0  0  0
    7.9038   -4.9363    0.0000 C   0  0  0  0  0  0  0  0  0  0  0  0
    9.3327   -6.5863    0.0000 O   0  0  0  0  0  0  0  0  0  0  0  0
    7.9038   -7.4112    0.0000 O   0  0  0  0  0  0  0  0  0  0  0  0
    8.6182   -7.8237    0.0000 C   0  0  0  0  0  0  0  0  0  0  0  0
    6.4748   -6.5863    0.0000 C   0  0  0  0  0  0  0  0  0  0  0  0
    5.7604   -6.1737    0.0000 C   0  0  0  0  0  0  0  0  0  0  0  0
    5.0459   -6.5863    0.0000 C   0  0  0  0  0  0  0  0  0  0  0  0
  1  2  2  0  0  0  0
  2  3  1  0  0  0  0
  3  4  2  0  0  0  0
  4  5  1  0  0  0  0
  5  6  2  0  0  0  0
  6  1  1  0  0  0  0
  4  7  1  0  0  0  0
  3  8  1  0  0  0  0
  8  9  1  0  0  0  0
  2 10  1  0  0  0  0
 10 11  1  0  0  0  0
 11 12  2  0  0  0  0
M  END
>  <cdx:fragmentId>
5

$$$$
