92046.cdx
  Mrv1902 05222410212D          

 11 10  0  0  0  0            999 V2000
    9.4401   -6.9850    0.0000 C   0  0  0  0  0  0  0  0  0  0  0  0
    8.7256   -6.5725    0.0000 O   0  0  0  0  0  0  0  0  0  0  0  0
    8.0111   -6.9850    0.0000 C   0  0  0  0  0  0  0  0  0  0  0  0
    7.2967   -6.5725    0.0000 C   0  0  0  0  0  0  0  0  0  0  0  0
    6.5822   -6.9850    0.0000 C   0  0  0  0  0  0  0  0  0  0  0  0
    5.8677   -6.5725    0.0000 O   0  0  0  0  0  0  0  0  0  0  0  0
    5.1532   -6.9850    0.0000 C   0  0  0  0  0  0  0  0  0  0  0  0
    4.4388   -6.5725    0.0000 C   0  0  0  0  0  0  0  0  0  0  0  0
    5.1532   -7.8100    0.0000 O   0  0  0  0  0  0  0  0  0  0  0  0
    6.5822   -7.8100    0.0000 O   0  0  0  0  0  0  0  0  0  0  0  0
    8.0111   -7.8100    0.0000 O   0  0  0  0  0  0  0  0  0  0  0  0
  2  1  1  0  0  0  0
  3  2  1  0  0  0  0
  4  3  1  0  0  0  0
  5  4  1  0  0  0  0
  6  5  1  0  0  0  0
  7  6  1  0  0  0  0
  8  7  1  0  0  0  0
  7  9  2  0  0  0  0
  5 10  1  0  0  0  0
  3 11  2  0  0  0  0
M  END
>  <cdx:fragmentId>
3

$$$$
