92047.cdx
  Mrv1902 05222410212D          

 30 31  0  0  0  0            999 V2000
    2.4181   -7.0675    0.0000 C   0  0  0  0  0  0  0  0  0  0  0  0
    2.4181   -7.8925    0.0000 C   0  0  0  0  0  0  0  0  0  0  0  0
    3.1325   -8.3050    0.0000 C   0  0  0  0  0  0  0  0  0  0  0  0
    3.8470   -7.8925    0.0000 C   0  0  0  0  0  0  0  0  0  0  0  0
    3.8470   -7.0675    0.0000 C   0  0  0  0  0  0  0  0  0  0  0  0
    3.1325   -6.6550    0.0000 C   0  0  0  0  0  0  0  0  0  0  0  0
    4.5615   -6.6550    0.0000 C   0  0  0  0  0  0  0  0  0  0  0  0
    5.2759   -7.0675    0.0000 C   0  0  0  0  0  0  0  0  0  0  0  0
    5.9904   -6.6550    0.0000 C   0  0  0  0  0  0  0  0  0  0  0  0
    6.7049   -7.0675    0.0000 C   0  0  0  0  0  0  0  0  0  0  0  0
    7.4194   -6.6550    0.0000 C   0  0  0  0  0  0  0  0  0  0  0  0
    8.1338   -7.0675    0.0000 C   0  0  0  0  0  0  0  0  0  0  0  0
    8.8483   -6.6550    0.0000 C   0  0  0  0  0  0  0  0  0  0  0  0
    9.5628   -7.0675    0.0000 C   0  0  0  0  0  0  0  0  0  0  0  0
    9.5628   -7.8925    0.0000 C   0  0  0  0  0  0  0  0  0  0  0  0
   10.2772   -8.3050    0.0000 C   0  0  0  0  0  0  0  0  0  0  0  0
   10.9917   -7.8925    0.0000 C   0  0  0  0  0  0  0  0  0  0  0  0
   10.9917   -7.0675    0.0000 C   0  0  0  0  0  0  0  0  0  0  0  0
   10.2772   -6.6550    0.0000 C   0  0  0  0  0  0  0  0  0  0  0  0
    1.7036   -8.3050    0.0000 O   0  0  0  0  0  0  0  0  0  0  0  0
    1.7036   -6.6550    0.0000 O   0  0  0  0  0  0  0  0  0  0  0  0
    1.7036   -5.8300    0.0000 C   0  0  0  0  0  0  0  0  0  0  0  0
    5.9904   -5.8300    0.0000 O   0  0  0  0  0  0  0  0  0  0  0  0
    5.2759   -5.4175    0.0000 C   0  0  0  0  0  0  0  0  0  0  0  0
    5.2759   -4.5925    0.0000 O   0  0  0  0  0  0  0  0  0  0  0  0
    4.5615   -5.8300    0.0000 C   0  0  0  0  0  0  0  0  0  0  0  0
    7.4194   -5.8300    0.0000 O   0  0  0  0  0  0  0  0  0  0  0  0
   10.2772   -9.1300    0.0000 O   0  0  0  0  0  0  0  0  0  0  0  0
    9.5628   -9.5425    0.0000 C   0  0  0  0  0  0  0  0  0  0  0  0
   11.7062   -8.3050    0.0000 O   0  0  0  0  0  0  0  0  0  0  0  0
  1  2  2  0  0  0  0
  2  3  1  0  0  0  0
  3  4  2  0  0  0  0
  4  5  1  0  0  0  0
  5  6  2  0  0  0  0
  6  1  1  0  0  0  0
  5  7  1  0  0  0  0
  7  8  1  0  0  0  0
  8  9  1  0  0  0  0
  9 10  1  0  0  0  0
 10 11  1  0  0  0  0
 11 12  1  0  0  0  0
 12 13  1  0  0  0  0
 13 14  1  0  0  0  0
 14 15  2  0  0  0  0
 15 16  1  0  0  0  0
 16 17  2  0  0  0  0
 17 18  1  0  0  0  0
 18 19  2  0  0  0  0
 19 14  1  0  0  0  0
  2 20  1  0  0  0  0
  1 21  1  0  0  0  0
 21 22  1  0  0  0  0
  9 23  1  0  0  0  0
 23 24  1  0  0  0  0
 24 25  2  0  0  0  0
 24 26  1  0  0  0  0
 11 27  1  0  0  0  0
 16 28  1  0  0  0  0
 28 29  1  0  0  0  0
 17 30  1  0  0  0  0
M  END
>  <cdx:fragmentId>
5

$$$$
