92056.cdx
  Mrv1902 05222410232D          

 14 15  0  0  0  0            999 V2000
    4.8793   -7.2600    0.0000 C   0  0  0  0  0  0  0  0  0  0  0  0
    4.8793   -8.0850    0.0000 C   0  0  0  0  0  0  0  0  0  0  0  0
    5.5938   -8.4975    0.0000 C   0  0  0  0  0  0  0  0  0  0  0  0
    6.3082   -8.0850    0.0000 C   0  0  0  0  0  0  0  0  0  0  0  0
    6.3082   -7.2600    0.0000 C   0  0  0  0  0  0  0  0  0  0  0  0
    5.5938   -6.8475    0.0000 C   0  0  0  0  0  0  0  0  0  0  0  0
    7.0929   -8.3399    0.0000 C   0  0  0  0  0  0  0  0  0  0  0  0
    7.5778   -7.6725    0.0000 O   0  0  0  0  0  0  0  0  0  0  0  0
    7.0929   -7.0051    0.0000 C   0  0  0  0  0  0  0  0  0  0  0  0
    7.3478   -6.2204    0.0000 O   0  0  0  0  0  0  0  0  0  0  0  0
    7.3478   -9.1246    0.0000 C   0  0  0  0  0  0  0  0  0  0  0  0
    8.1447   -9.3381    0.0000 C   0  0  0  0  0  0  0  0  0  0  0  0
    8.3582  -10.1350    0.0000 O   0  0  0  0  0  0  0  0  0  0  0  0
    8.7281   -8.7547    0.0000 O   0  0  0  0  0  0  0  0  0  0  0  0
  1  2  2  0  0  0  0
  2  3  1  0  0  0  0
  3  4  2  0  0  0  0
  4  5  1  0  0  0  0
  5  6  2  0  0  0  0
  6  1  1  0  0  0  0
  4  7  1  0  0  0  0
  7  8  1  0  0  0  0
  8  9  1  0  0  0  0
  9  5  1  0  0  0  0
  9 10  2  0  0  0  0
  7 11  1  0  0  0  0
 11 12  1  0  0  0  0
 12 13  1  0  0  0  0
 12 14  2  0  0  0  0
M  END
>  <cdx:fragmentId>
5

$$$$
