92054.cdx
  Mrv1902 05222410222D          

 13 14  0  0  0  0            999 V2000
    5.2093   -7.5762    0.0000 C   0  0  0  0  0  0  0  0  0  0  0  0
    5.2093   -8.4013    0.0000 C   0  0  0  0  0  0  0  0  0  0  0  0
    5.9238   -8.8138    0.0000 C   0  0  0  0  0  0  0  0  0  0  0  0
    6.6382   -8.4013    0.0000 C   0  0  0  0  0  0  0  0  0  0  0  0
    6.6382   -7.5762    0.0000 C   0  0  0  0  0  0  0  0  0  0  0  0
    5.9238   -7.1638    0.0000 C   0  0  0  0  0  0  0  0  0  0  0  0
    7.4229   -8.6562    0.0000 N   0  0  0  0  0  0  0  0  0  0  0  0
    7.9078   -7.9888    0.0000 C   0  0  0  0  0  0  0  0  0  0  0  0
    7.4229   -7.3213    0.0000 C   0  0  0  0  0  0  0  0  0  0  0  0
    7.6778   -6.5367    0.0000 C   0  0  0  0  0  0  0  0  0  0  0  0
    7.1258   -5.9236    0.0000 O   0  0  0  0  0  0  0  0  0  0  0  0
    8.4848   -6.3652    0.0000 O   0  0  0  0  0  0  0  0  0  0  0  0
    8.6983   -5.5683    0.0000 C   0  0  0  0  0  0  0  0  0  0  0  0
  1  2  2  0  0  0  0
  2  3  1  0  0  0  0
  3  4  2  0  0  0  0
  4  5  1  0  0  0  0
  5  6  2  0  0  0  0
  6  1  1  0  0  0  0
  4  7  1  0  0  0  0
  7  8  1  0  0  0  0
  8  9  2  0  0  0  0
  9  5  1  0  0  0  0
  9 10  1  0  0  0  0
 10 11  2  0  0  0  0
 10 12  1  0  0  0  0
 12 13  1  0  0  0  0
M  END
>  <cdx:fragmentId>
5

$$$$
