92059.cdx
  Mrv1902 05222410242D          

  8  8  0  0  0  0            999 V2000
    6.2681   -8.2088    0.0000 C   0  0  0  0  0  0  0  0  0  0  0  0
    6.2681   -9.0337    0.0000 C   0  0  0  0  0  0  0  0  0  0  0  0
    6.9825   -9.4462    0.0000 C   0  0  0  0  0  0  0  0  0  0  0  0
    7.6970   -9.0337    0.0000 C   0  0  0  0  0  0  0  0  0  0  0  0
    7.6970   -8.2088    0.0000 C   0  0  0  0  0  0  0  0  0  0  0  0
    6.9825   -7.7963    0.0000 C   0  0  0  0  0  0  0  0  0  0  0  0
    6.9825   -6.9712    0.0000 C   0  0  0  0  0  0  0  0  0  0  0  0
    7.6970   -6.5587    0.0000 O   0  0  0  0  0  0  0  0  0  0  0  0
  1  2  1  0  0  0  0
  2  3  1  0  0  0  0
  3  4  2  0  0  0  0
  4  5  1  0  0  0  0
  5  6  1  0  0  0  0
  6  1  1  0  0  0  0
  6  7  1  0  0  0  0
  7  8  1  0  0  0  0
M  END
>  <cdx:fragmentId>
5

$$$$
