92050.cdx
  Mrv1902 05222410212D          

 25 27  0  0  0  0            999 V2000
    8.5306   -9.5523    0.0000 O   0  0  0  0  0  0  0  0  0  0  0  0
    8.5306   -8.7273    0.0000 C   0  0  0  0  0  0  0  0  0  0  0  0
    7.8161   -8.3148    0.0000 C   0  0  2  0  0  0  0  0  0  0  0  0
    7.1016   -8.7273    0.0000 C   0  0  2  0  0  0  0  0  0  0  0  0
    7.1016   -9.5523    0.0000 C   0  0  0  0  0  0  0  0  0  0  0  0
    7.8161   -9.9648    0.0000 C   0  0  0  0  0  0  0  0  0  0  0  0
    6.3872   -9.9648    0.0000 C   0  0  0  0  0  0  0  0  0  0  0  0
    6.3872  -10.7898    0.0000 C   0  0  0  0  0  0  0  0  0  0  0  0
    7.1016  -11.2023    0.0000 C   0  0  0  0  0  0  0  0  0  0  0  0
    7.8161  -10.7898    0.0000 C   0  0  0  0  0  0  0  0  0  0  0  0
    5.6727   -9.5523    0.0000 O   0  0  0  0  0  0  0  0  0  0  0  0
    4.9582   -9.9648    0.0000 C   0  0  0  0  0  0  0  0  0  0  0  0
    4.9582  -10.7898    0.0000 C   0  0  0  0  0  0  0  0  0  0  0  0
    5.6727  -11.2023    0.0000 C   0  0  0  0  0  0  0  0  0  0  0  0
    4.2438   -9.5523    0.0000 O   0  0  0  0  0  0  0  0  0  0  0  0
    9.3556   -8.7273    0.0000 C   0  0  0  0  0  0  0  0  0  0  0  0
    8.9431   -8.0128    0.0000 C   0  0  0  0  0  0  0  0  0  0  0  0
    7.8161   -7.4898    0.0000 O   0  0  0  0  0  0  0  0  0  0  0  0
    6.3872   -8.3148    0.0000 O   0  0  0  0  0  0  0  0  0  0  0  0
    7.1016   -7.0773    0.0000 C   0  0  0  0  0  0  0  0  0  0  0  0
    7.1016   -6.2523    0.0000 O   0  0  0  0  0  0  0  0  0  0  0  0
    7.8161   -5.8398    0.0000 C   0  0  0  0  0  0  0  0  0  0  0  0
    7.8161   -5.0148    0.0000 C   0  0  0  0  0  0  0  0  0  0  0  0
    8.5306   -6.2523    0.0000 C   0  0  0  0  0  0  0  0  0  0  0  0
    7.1016   -4.6023    0.0000 C   0  0  0  0  0  0  0  0  0  0  0  0
  1  2  1  0  0  0  0
  2  3  1  0  0  0  0
  3  4  1  0  0  0  0
  4  5  1  0  0  0  0
  5  6  1  0  0  0  0
  6  1  1  0  0  0  0
  5  7  2  0  0  0  0
  7  8  1  0  0  0  0
  8  9  2  0  0  0  0
  9 10  1  0  0  0  0
 10  6  2  0  0  0  0
  7 11  1  0  0  0  0
 11 12  1  0  0  0  0
 12 13  1  0  0  0  0
 13 14  2  0  0  0  0
 14  8  1  0  0  0  0
 12 15  2  0  0  0  0
  2 16  1  0  0  0  0
  2 17  1  0  0  0  0
  3 18  1  6  0  0  0
  4 19  1  6  0  0  0
 18 20  1  0  0  0  0
 20 21  1  0  0  0  0
 21 22  1  0  0  0  0
 22 23  2  0  0  0  0
 22 24  1  0  0  0  0
 23 25  1  0  0  0  0
M  END
>  <cdx:fragmentId>
5

$$$$
