92053.cdx
  Mrv1902 05222410212D          

 16 17  0  0  0  0            999 V2000
    4.7006   -6.9438    0.0000 C   0  0  0  0  0  0  0  0  0  0  0  0
    4.7006   -7.7687    0.0000 C   0  0  0  0  0  0  0  0  0  0  0  0
    5.4150   -8.1813    0.0000 C   0  0  0  0  0  0  0  0  0  0  0  0
    6.1295   -7.7687    0.0000 C   0  0  0  0  0  0  0  0  0  0  0  0
    6.1295   -6.9438    0.0000 C   0  0  0  0  0  0  0  0  0  0  0  0
    5.4150   -6.5313    0.0000 C   0  0  0  0  0  0  0  0  0  0  0  0
    6.9141   -8.0237    0.0000 C   0  0  0  0  0  0  0  0  0  0  0  0
    7.3990   -7.3563    0.0000 O   0  0  0  0  0  0  0  0  0  0  0  0
    6.9141   -6.6888    0.0000 C   0  0  0  0  0  0  0  0  0  0  0  0
    7.1691   -5.9042    0.0000 O   0  0  0  0  0  0  0  0  0  0  0  0
    7.1691   -8.8083    0.0000 C   0  0  0  0  0  0  0  0  0  0  0  0
    7.9659   -9.0218    0.0000 C   0  0  0  0  0  0  0  0  0  0  0  0
    8.1795   -9.8187    0.0000 C   0  0  0  0  0  0  0  0  0  0  0  0
    8.9764  -10.0323    0.0000 C   0  0  0  0  0  0  0  0  0  0  0  0
    5.4150   -5.7062    0.0000 O   0  0  0  0  0  0  0  0  0  0  0  0
    3.9861   -6.5313    0.0000 O   0  0  0  0  0  0  0  0  0  0  0  0
  1  2  2  0  0  0  0
  2  3  1  0  0  0  0
  3  4  2  0  0  0  0
  4  5  1  0  0  0  0
  5  6  2  0  0  0  0
  6  1  1  0  0  0  0
  4  7  1  0  0  0  0
  7  8  1  0  0  0  0
  8  9  1  0  0  0  0
  9  5  1  0  0  0  0
  9 10  2  0  0  0  0
  7 11  1  0  0  0  0
 11 12  1  0  0  0  0
 12 13  1  0  0  0  0
 13 14  1  0  0  0  0
  6 15  1  0  0  0  0
  1 16  1  0  0  0  0
M  END
>  <cdx:fragmentId>
5

$$$$
