92067.cdx
  Mrv1902 05222410232D          

 26 28  0  0  0  0            999 V2000
    4.2076   -8.7984    0.0000 C   0  0  0  0  0  0  0  0  0  0  0  0
    3.7191   -9.4632    0.0000 C   0  0  0  0  0  0  0  0  0  0  0  0
    4.0505  -10.2187    0.0000 C   0  0  0  0  0  0  0  0  0  0  0  0
    4.8705  -10.3094    0.0000 C   0  0  0  0  0  0  0  0  0  0  0  0
    5.3591   -9.6446    0.0000 C   0  0  0  0  0  0  0  0  0  0  0  0
    5.0276   -8.8891    0.0000 C   0  0  0  0  0  0  0  0  0  0  0  0
    6.1791   -9.7353    0.0000 C   0  0  0  0  0  0  0  0  0  0  0  0
    3.8762   -8.0429    0.0000 O   0  0  0  0  0  0  0  0  0  0  0  0
    3.0562   -7.9522    0.0000 C   0  0  0  0  0  0  0  0  0  0  0  0
    2.8991   -9.3724    0.0000 O   0  0  0  0  0  0  0  0  0  0  0  0
    2.4105  -10.0372    0.0000 C   0  0  0  0  0  0  0  0  0  0  0  0
    6.6676   -9.0705    0.0000 C   0  0  0  0  0  0  0  0  0  0  0  0
    7.4926   -9.0751    0.0000 C   0  0  0  0  0  0  0  0  0  0  0  0
    7.7518   -8.2918    0.0000 C   0  0  0  0  0  0  0  0  0  0  0  0
    7.0871   -7.8033    0.0000 O   0  0  0  0  0  0  0  0  0  0  0  0
    6.4170   -8.2845    0.0000 C   0  0  0  0  0  0  0  0  0  0  0  0
    8.5378   -8.0412    0.0000 C   0  0  0  0  0  0  0  0  0  0  0  0
    7.9739   -9.7451    0.0000 O   0  0  0  0  0  0  0  0  0  0  0  0
    9.1479   -8.5966    0.0000 C   0  0  0  0  0  0  0  0  0  0  0  0
    9.9339   -8.3459    0.0000 C   0  0  0  0  0  0  0  0  0  0  0  0
   10.1098   -7.5399    0.0000 C   0  0  0  0  0  0  0  0  0  0  0  0
    9.4998   -6.9845    0.0000 C   0  0  0  0  0  0  0  0  0  0  0  0
    8.7138   -7.2352    0.0000 C   0  0  0  0  0  0  0  0  0  0  0  0
   10.8958   -7.2893    0.0000 O   0  0  0  0  0  0  0  0  0  0  0  0
   10.5440   -8.9013    0.0000 O   0  0  0  0  0  0  0  0  0  0  0  0
   10.2441   -9.6699    0.0000 C   0  0  0  0  0  0  0  0  0  0  0  0
  1  2  2  0  0  0  0
  2  3  1  0  0  0  0
  3  4  2  0  0  0  0
  4  5  1  0  0  0  0
  5  6  2  0  0  0  0
  6  1  1  0  0  0  0
  5  7  1  0  0  0  0
  1  8  1  0  0  0  0
  8  9  1  0  0  0  0
  2 10  1  0  0  0  0
 10 11  1  0  0  0  0
  7 12  1  0  0  0  0
 12 13  1  0  0  0  0
 13 14  1  0  0  0  0
 14 15  1  0  0  0  0
 15 16  1  0  0  0  0
 16 12  1  0  0  0  0
 14 17  1  0  0  0  0
 13 18  2  0  0  0  0
 17 19  2  0  0  0  0
 19 20  1  0  0  0  0
 20 21  2  0  0  0  0
 21 22  1  0  0  0  0
 22 23  2  0  0  0  0
 23 17  1  0  0  0  0
 21 24  1  0  0  0  0
 20 25  1  0  0  0  0
 25 26  1  0  0  0  0
M  END
>  <cdx:fragmentId>
5

$$$$
