92069.cdx
  Mrv1902 05222410222D          

 12 11  0  0  0  0            999 V2000
    6.3088   -7.6037    0.0000 O   0  5  0  0  0  0  0  0  0  0  0  0
    7.0232   -7.1913    0.0000 N   0  3  0  0  0  0  0  0  0  0  0  0
    7.7377   -7.6037    0.0000 C   0  0  0  0  0  0  0  0  0  0  0  0
    8.4522   -7.1913    0.0000 C   0  0  0  0  0  0  0  0  0  0  0  0
    9.1667   -7.6037    0.0000 C   0  0  0  0  0  0  0  0  0  0  0  0
    9.8811   -7.1913    0.0000 C   0  0  0  0  0  0  0  0  0  0  0  0
    7.0232   -6.3662    0.0000 O   0  0  0  0  0  0  0  0  0  0  0  0
    8.4522   -6.3662    0.0000 O   0  0  0  0  0  0  0  0  0  0  0  0
    9.1667   -8.4288    0.0000 C   0  0  0  0  0  0  0  0  0  0  0  0
    7.7377   -8.4288    0.0000 C   0  0  0  0  0  0  0  0  0  0  0  0
    8.4522   -8.8413    0.0000 C   0  0  0  0  0  0  0  0  0  0  0  0
    7.0232   -8.8413    0.0000 C   0  0  0  0  0  0  0  0  0  0  0  0
  1  2  1  0  0  0  0
  2  3  1  0  0  0  0
  3  4  1  0  0  0  0
  4  5  1  0  0  0  0
  5  6  1  0  0  0  0
  2  7  2  0  0  0  0
  4  8  2  0  0  0  0
  5  9  1  0  0  0  0
  3 10  1  0  0  0  0
 10 11  1  0  0  0  0
 10 12  1  0  0  0  0
M  CHG  2   1  -1   2   1
M  END
>  <cdx:fragmentId>
3

$$$$
