92068.cdx
  Mrv1902 05222410222D          

 43 47  0  0  0  0            999 V2000
    4.5493   -5.4588    0.0000 C   0  0  0  0  0  0  0  0  0  0  0  0
    4.5493   -6.2837    0.0000 C   0  0  0  0  0  0  0  0  0  0  0  0
    5.2638   -6.6962    0.0000 C   0  0  0  0  0  0  0  0  0  0  0  0
    5.9782   -6.2837    0.0000 C   0  0  0  0  0  0  0  0  0  0  0  0
    5.9782   -5.4588    0.0000 C   0  0  0  0  0  0  0  0  0  0  0  0
    5.2638   -5.0462    0.0000 C   0  0  0  0  0  0  0  0  0  0  0  0
    6.6927   -6.6962    0.0000 C   0  0  0  0  0  0  0  0  0  0  0  0
    7.4072   -6.2837    0.0000 C   0  0  0  0  0  0  0  0  0  0  0  0
    7.4072   -5.4588    0.0000 C   0  0  0  0  0  0  0  0  0  0  0  0
    6.6927   -5.0462    0.0000 O   0  0  0  0  0  0  0  0  0  0  0  0
    5.2638   -7.5213    0.0000 O   0  0  0  0  0  0  0  0  0  0  0  0
    6.6927   -7.5213    0.0000 O   0  0  0  0  0  0  0  0  0  0  0  0
    8.1217   -6.6962    0.0000 O   0  0  0  0  0  0  0  0  0  0  0  0
    8.8361   -5.4588    0.0000 C   0  0  0  0  0  0  0  0  0  0  0  0
    8.1217   -5.0462    0.0000 C   0  0  0  0  0  0  0  0  0  0  0  0
    9.5506   -5.0462    0.0000 C   0  0  0  0  0  0  0  0  0  0  0  0
    9.5506   -4.2213    0.0000 C   0  0  0  0  0  0  0  0  0  0  0  0
    8.8361   -3.8087    0.0000 C   0  0  0  0  0  0  0  0  0  0  0  0
    8.1217   -4.2213    0.0000 C   0  0  0  0  0  0  0  0  0  0  0  0
    7.4072   -7.9337    0.0000 O   0  0  0  0  0  0  0  0  0  0  0  0
    8.1217   -7.5213    0.0000 C   0  0  2  0  0  0  0  0  0  0  0  0
    7.4072   -8.7588    0.0000 C   0  0  1  0  0  0  0  0  0  0  0  0
    8.1217   -9.1712    0.0000 C   0  0  2  0  0  0  0  0  0  0  0  0
    8.8361   -8.7588    0.0000 C   0  0  1  0  0  0  0  0  0  0  0  0
    8.8361   -7.9337    0.0000 C   0  0  1  0  0  0  0  0  0  0  0  0
    6.6927   -9.1712    0.0000 C   0  0  0  0  0  0  0  0  0  0  0  0
    6.6927   -9.9962    0.0000 O   0  0  0  0  0  0  0  0  0  0  0  0
    8.1217   -9.9962    0.0000 O   0  0  0  0  0  0  0  0  0  0  0  0
    5.2638   -9.9962    0.0000 O   0  0  0  0  0  0  0  0  0  0  0  0
    5.9782  -10.4087    0.0000 C   0  0  2  0  0  0  0  0  0  0  0  0
    4.5493  -10.4087    0.0000 C   0  0  1  0  0  0  0  0  0  0  0  0
    4.5493  -11.2337    0.0000 C   0  0  2  0  0  0  0  0  0  0  0  0
    5.2638  -11.6462    0.0000 C   0  0  1  0  0  0  0  0  0  0  0  0
    5.9782  -11.2337    0.0000 C   0  0  1  0  0  0  0  0  0  0  0  0
    3.1204  -10.4087    0.0000 O   0  0  0  0  0  0  0  0  0  0  0  0
    3.8348   -9.9962    0.0000 C   0  0  0  0  0  0  0  0  0  0  0  0
    3.8348   -5.0462    0.0000 O   0  0  0  0  0  0  0  0  0  0  0  0
   10.2651   -3.8087    0.0000 O   0  0  0  0  0  0  0  0  0  0  0  0
    9.5506   -9.1713    0.0000 O   0  0  0  0  0  0  0  0  0  0  0  0
    5.2638  -12.4712    0.0000 O   0  0  0  0  0  0  0  0  0  0  0  0
    3.8348  -11.6462    0.0000 O   0  0  0  0  0  0  0  0  0  0  0  0
    6.6927  -11.6462    0.0000 O   0  0  0  0  0  0  0  0  0  0  0  0
    9.5506   -7.5213    0.0000 O   0  0  0  0  0  0  0  0  0  0  0  0
  1  2  2  0  0  0  0
  2  3  1  0  0  0  0
  3  4  2  0  0  0  0
  4  5  1  0  0  0  0
  5  6  2  0  0  0  0
  6  1  1  0  0  0  0
  4  7  1  0  0  0  0
  7  8  1  0  0  0  0
  8  9  2  0  0  0  0
  9 10  1  0  0  0  0
 10  5  1  0  0  0  0
  3 11  1  0  0  0  0
 12  7  2  0  0  0  0
  8 13  1  0  0  0  0
 14 15  2  0  0  0  0
 15  9  1  0  0  0  0
 14 16  1  0  0  0  0
 16 17  2  0  0  0  0
 17 18  1  0  0  0  0
 18 19  2  0  0  0  0
 19 15  1  0  0  0  0
 20 21  1  0  0  0  0
 21 13  1  1  0  0  0
 20 22  1  0  0  0  0
 22 23  1  0  0  0  0
 23 24  1  0  0  0  0
 24 25  1  0  0  0  0
 25 21  1  0  0  0  0
 22 26  1  1  0  0  0
 26 27  1  0  0  0  0
 23 28  1  6  0  0  0
 29 30  1  0  0  0  0
 30 27  1  1  0  0  0
 29 31  1  0  0  0  0
 31 32  1  0  0  0  0
 32 33  1  0  0  0  0
 33 34  1  0  0  0  0
 34 30  1  0  0  0  0
 35 36  1  0  0  0  0
 31 36  1  1  0  0  0
  1 37  1  0  0  0  0
 17 38  1  0  0  0  0
 24 39  1  1  0  0  0
 33 40  1  1  0  0  0
 32 41  1  6  0  0  0
 34 42  1  6  0  0  0
 25 43  1  6  0  0  0
M  END
>  <cdx:fragmentId>
5

$$$$
