92061.cdx
  Mrv1902 05222410252D          

 11 10  0  0  0  0            999 V2000
    4.2050   -7.8650    0.0000 C   0  0  0  0  0  0  0  0  0  0  0  0
    4.9195   -7.4525    0.0000 C   0  0  0  0  0  0  0  0  0  0  0  0
    5.6340   -7.8650    0.0000 C   0  0  0  0  0  0  0  0  0  0  0  0
    6.3484   -7.4525    0.0000 C   0  0  0  0  0  0  0  0  0  0  0  0
    7.0629   -7.8650    0.0000 C   0  0  0  0  0  0  0  0  0  0  0  0
    7.7774   -7.4525    0.0000 C   0  0  0  0  0  0  0  0  0  0  0  0
    8.4919   -7.8650    0.0000 C   0  0  0  0  0  0  0  0  0  0  0  0
    9.2063   -7.4525    0.0000 C   0  0  0  0  0  0  0  0  0  0  0  0
    9.9208   -7.8650    0.0000 C   0  0  0  0  0  0  0  0  0  0  0  0
   10.6353   -7.4525    0.0000 C   0  0  0  0  0  0  0  0  0  0  0  0
    5.6340   -8.6900    0.0000 O   0  0  0  0  0  0  0  0  0  0  0  0
  1  2  1  0  0  0  0
  2  3  1  0  0  0  0
  3  4  1  0  0  0  0
  4  5  1  0  0  0  0
  5  6  1  0  0  0  0
  6  7  1  0  0  0  0
  7  8  1  0  0  0  0
  8  9  1  0  0  0  0
  9 10  1  0  0  0  0
  3 11  2  0  0  0  0
M  END
>  <cdx:fragmentId>
3

$$$$
