92063.cdx
  Mrv1902 05222410252D          

 20 19  0  0  0  0            999 V2000
   14.1225   -6.7375    0.0000 C   0  0  0  0  0  0  0  0  0  0  0  0
   13.4080   -6.3250    0.0000 C   0  0  0  0  0  0  0  0  0  0  0  0
   12.6935   -6.7375    0.0000 C   0  0  0  0  0  0  0  0  0  0  0  0
   11.9791   -6.3250    0.0000 C   0  0  0  0  0  0  0  0  0  0  0  0
   11.2646   -6.7375    0.0000 C   0  0  0  0  0  0  0  0  0  0  0  0
   10.5501   -6.3250    0.0000 C   0  0  0  0  0  0  0  0  0  0  0  0
    9.8356   -6.7375    0.0000 C   0  0  0  0  0  0  0  0  0  0  0  0
    9.1212   -6.3250    0.0000 C   0  0  0  0  0  0  0  0  0  0  0  0
    8.4067   -6.7375    0.0000 C   0  0  0  0  0  0  0  0  0  0  0  0
    7.6922   -6.3250    0.0000 C   0  0  0  0  0  0  0  0  0  0  0  0
    6.9778   -6.7375    0.0000 C   0  0  0  0  0  0  0  0  0  0  0  0
    6.2633   -6.3250    0.0000 C   0  0  0  0  0  0  0  0  0  0  0  0
    5.5488   -6.7375    0.0000 C   0  0  0  0  0  0  0  0  0  0  0  0
    4.8344   -6.3250    0.0000 C   0  0  0  0  0  0  0  0  0  0  0  0
    4.1199   -6.7375    0.0000 C   0  0  0  0  0  0  0  0  0  0  0  0
    3.4054   -6.3250    0.0000 C   0  0  0  0  0  0  0  0  0  0  0  0
    2.6909   -6.7375    0.0000 C   0  0  0  0  0  0  0  0  0  0  0  0
    1.9765   -6.3250    0.0000 C   0  0  0  0  0  0  0  0  0  0  0  0
    1.2620   -6.7375    0.0000 C   0  0  0  0  0  0  0  0  0  0  0  0
    0.5475   -6.3250    0.0000 C   0  0  0  0  0  0  0  0  0  0  0  0
  2  1  1  0  0  0  0
  3  2  1  0  0  0  0
  4  3  2  0  0  0  0
  5  4  1  0  0  0  0
  6  5  1  0  0  0  0
  7  6  1  0  0  0  0
  8  7  1  0  0  0  0
  9  8  1  0  0  0  0
 10  9  1  0  0  0  0
 11 10  1  0  0  0  0
 12 11  1  0  0  0  0
 13 12  1  0  0  0  0
 14 13  1  0  0  0  0
 15 14  1  0  0  0  0
 16 15  1  0  0  0  0
 17 16  1  0  0  0  0
 18 17  1  0  0  0  0
 19 18  1  0  0  0  0
 20 19  1  0  0  0  0
M  END
>  <cdx:fragmentId>
3

$$$$
