92064.cdx
  Mrv1902 05222410242D          

  8  8  0  0  0  0            999 V2000
    7.9131   -7.4429    0.0000 C   0  0  0  0  0  0  0  0  0  0  0  0
    7.9003   -6.6180    0.0000 C   0  0  0  0  0  0  0  0  0  0  0  0
    7.1796   -6.2166    0.0000 S   0  0  0  0  0  0  0  0  0  0  0  0
    6.4716   -6.6401    0.0000 S   0  0  0  0  0  0  0  0  0  0  0  0
    6.4843   -7.4650    0.0000 C   0  0  0  0  0  0  0  0  0  0  0  0
    7.2051   -7.8664    0.0000 C   0  0  0  0  0  0  0  0  0  0  0  0
    8.6083   -6.1945    0.0000 C   0  0  0  0  0  0  0  0  0  0  0  0
    9.3291   -6.5959    0.0000 C   0  0  0  0  0  0  0  0  0  0  0  0
  1  2  1  0  0  0  0
  2  3  1  0  0  0  0
  3  4  1  0  0  0  0
  4  5  1  0  0  0  0
  5  6  1  0  0  0  0
  6  1  2  0  0  0  0
  2  7  1  0  0  0  0
  7  8  2  0  0  0  0
M  END
>  <cdx:fragmentId>
5

$$$$
