92062.cdx
  Mrv1902 05222410252D          

 13 12  0  0  0  0            999 V2000
    3.2013   -6.1325    0.0000 C   0  0  0  0  0  0  0  0  0  0  0  0
    3.9157   -5.7200    0.0000 C   0  0  0  0  0  0  0  0  0  0  0  0
    4.6302   -6.1325    0.0000 C   0  0  0  0  0  0  0  0  0  0  0  0
    5.3447   -5.7200    0.0000 C   0  0  0  0  0  0  0  0  0  0  0  0
    6.0592   -6.1325    0.0000 C   0  0  0  0  0  0  0  0  0  0  0  0
    6.7736   -5.7200    0.0000 C   0  0  0  0  0  0  0  0  0  0  0  0
    7.4881   -6.1325    0.0000 C   0  0  0  0  0  0  0  0  0  0  0  0
    8.2026   -5.7200    0.0000 C   0  0  0  0  0  0  0  0  0  0  0  0
    8.9170   -6.1325    0.0000 C   0  0  0  0  0  0  0  0  0  0  0  0
    9.6315   -5.7200    0.0000 C   0  0  0  0  0  0  0  0  0  0  0  0
   10.3460   -6.1325    0.0000 C   0  0  0  0  0  0  0  0  0  0  0  0
   11.0605   -5.7200    0.0000 C   0  0  0  0  0  0  0  0  0  0  0  0
    4.6302   -6.9575    0.0000 O   0  0  0  0  0  0  0  0  0  0  0  0
  1  2  1  0  0  0  0
  2  3  1  0  0  0  0
  3  4  1  0  0  0  0
  4  5  1  0  0  0  0
  5  6  1  0  0  0  0
  6  7  1  0  0  0  0
  7  8  1  0  0  0  0
  8  9  1  0  0  0  0
  9 10  1  0  0  0  0
 10 11  1  0  0  0  0
 11 12  1  0  0  0  0
  3 13  2  0  0  0  0
M  END
>  <cdx:fragmentId>
3

$$$$
