92076.cdx
  Mrv1902 05222410252D          

 26 28  0  0  0  0            999 V2000
    6.9677   -7.9549    0.0000 O   0  0  0  0  0  0  0  0  0  0  0  0
    9.8256   -5.4799    0.0000 C   0  0  0  0  0  0  0  0  0  0  0  0
    9.8256   -4.6549    0.0000 C   0  0  0  0  0  0  0  0  0  0  0  0
    9.1111   -4.2424    0.0000 C   0  0  0  0  0  0  0  0  0  0  0  0
    8.3967   -4.6549    0.0000 C   0  0  0  0  0  0  0  0  0  0  0  0
    9.1111   -5.8924    0.0000 C   0  0  0  0  0  0  0  0  0  0  0  0
    8.3967   -5.4799    0.0000 C   0  0  0  0  0  0  0  0  0  0  0  0
    6.9677   -7.1299    0.0000 C   0  0  0  0  0  0  0  0  0  0  0  0
    7.6822   -6.7174    0.0000 C   0  0  0  0  0  0  0  0  0  0  0  0
    7.6822   -5.8924    0.0000 C   0  0  0  0  0  0  0  0  0  0  0  0
    6.9677   -5.4799    0.0000 O   0  0  0  0  0  0  0  0  0  0  0  0
    5.5388   -7.1299    0.0000 C   0  0  0  0  0  0  0  0  0  0  0  0
    6.2532   -6.7174    0.0000 C   0  0  0  0  0  0  0  0  0  0  0  0
    6.2532   -5.8924    0.0000 C   0  0  0  0  0  0  0  0  0  0  0  0
    5.5388   -5.4799    0.0000 C   0  0  0  0  0  0  0  0  0  0  0  0
    4.8243   -5.8924    0.0000 C   0  0  0  0  0  0  0  0  0  0  0  0
    4.8243   -6.7174    0.0000 C   0  0  0  0  0  0  0  0  0  0  0  0
    8.3967   -7.1299    0.0000 O   0  0  0  0  0  0  0  0  0  0  0  0
    5.5388   -7.9549    0.0000 O   0  0  0  0  0  0  0  0  0  0  0  0
    4.8243   -8.3674    0.0000 C   0  0  0  0  0  0  0  0  0  0  0  0
    4.1098   -7.1299    0.0000 O   0  0  0  0  0  0  0  0  0  0  0  0
    3.3954   -6.7174    0.0000 C   0  0  0  0  0  0  0  0  0  0  0  0
    4.1098   -5.4799    0.0000 O   0  0  0  0  0  0  0  0  0  0  0  0
    4.1098   -4.6549    0.0000 C   0  0  0  0  0  0  0  0  0  0  0  0
   10.5401   -4.2424    0.0000 O   0  0  0  0  0  0  0  0  0  0  0  0
   11.2545   -4.6549    0.0000 C   0  0  0  0  0  0  0  0  0  0  0  0
  8  1  2  0  0  0  0
  2  6  1  0  0  0  0
  3  2  2  0  0  0  0
  4  3  1  0  0  0  0
  5  4  2  0  0  0  0
  7  5  1  0  0  0  0
  7  6  2  0  0  0  0
 10  7  1  0  0  0  0
  8 13  1  0  0  0  0
  9  8  1  0  0  0  0
 10  9  1  0  0  0  0
 11 10  1  0  0  0  0
 14 11  1  0  0  0  0
 12 17  1  0  0  0  0
 13 12  2  0  0  0  0
 14 13  1  0  0  0  0
 15 14  2  0  0  0  0
 16 15  1  0  0  0  0
 17 16  2  0  0  0  0
  9 18  1  0  0  0  0
 12 19  1  0  0  0  0
 19 20  1  0  0  0  0
 17 21  1  0  0  0  0
 21 22  1  0  0  0  0
 16 23  1  0  0  0  0
 23 24  1  0  0  0  0
  3 25  1  0  0  0  0
 25 26  1  0  0  0  0
M  END
>  <cdx:fragmentId>
5

$$$$
