92078.cdx
  Mrv1902 05222410212D          

 22 24  0  0  0  0            999 V2000
   11.0070   -8.7037    0.0000 C   0  0  0  0  0  0  0  0  0  0  0  0
   10.2926   -9.1162    0.0000 O   0  0  0  0  0  0  0  0  0  0  0  0
    3.8623   -6.2287    0.0000 O   0  0  0  0  0  0  0  0  0  0  0  0
    8.8636   -9.1162    0.0000 C   0  0  0  0  0  0  0  0  0  0  0  0
    9.5781   -8.7037    0.0000 C   0  0  0  0  0  0  0  0  0  0  0  0
    9.5781   -7.8788    0.0000 C   0  0  0  0  0  0  0  0  0  0  0  0
    8.8636   -7.4663    0.0000 C   0  0  0  0  0  0  0  0  0  0  0  0
    8.1492   -8.7037    0.0000 C   0  0  0  0  0  0  0  0  0  0  0  0
    8.1492   -7.8788    0.0000 C   0  0  0  0  0  0  0  0  0  0  0  0
    5.2913   -8.7037    0.0000 O   0  0  0  0  0  0  0  0  0  0  0  0
    6.7202   -8.7037    0.0000 O   0  0  0  0  0  0  0  0  0  0  0  0
    6.7202   -7.8788    0.0000 C   0  0  0  0  0  0  0  0  0  0  0  0
    7.4347   -7.4663    0.0000 C   0  0  0  0  0  0  0  0  0  0  0  0
    7.4347   -6.6413    0.0000 C   0  0  0  0  0  0  0  0  0  0  0  0
    6.7202   -6.2287    0.0000 O   0  0  0  0  0  0  0  0  0  0  0  0
    5.2913   -7.8788    0.0000 C   0  0  0  0  0  0  0  0  0  0  0  0
    6.0057   -7.4663    0.0000 C   0  0  0  0  0  0  0  0  0  0  0  0
    6.0057   -6.6413    0.0000 C   0  0  0  0  0  0  0  0  0  0  0  0
    5.2913   -6.2287    0.0000 C   0  0  0  0  0  0  0  0  0  0  0  0
    4.5768   -6.6413    0.0000 C   0  0  0  0  0  0  0  0  0  0  0  0
    4.5768   -7.4663    0.0000 C   0  0  0  0  0  0  0  0  0  0  0  0
   10.2926   -7.4663    0.0000 O   0  0  0  0  0  0  0  0  0  0  0  0
  2  1  1  0  0  0  0
  5  2  1  0  0  0  0
 20  3  1  0  0  0  0
  4  8  1  0  0  0  0
  5  4  2  0  0  0  0
  6  5  1  0  0  0  0
  7  6  2  0  0  0  0
  9  7  1  0  0  0  0
  9  8  2  0  0  0  0
 13  9  1  0  0  0  0
 10 16  1  0  0  0  0
 12 11  2  0  0  0  0
 12 17  1  0  0  0  0
 13 12  1  0  0  0  0
 14 13  2  0  0  0  0
 15 14  1  0  0  0  0
 18 15  1  0  0  0  0
 16 21  1  0  0  0  0
 17 16  2  0  0  0  0
 18 17  1  0  0  0  0
 19 18  2  0  0  0  0
 20 19  1  0  0  0  0
 21 20  2  0  0  0  0
  6 22  1  0  0  0  0
M  END
>  <cdx:fragmentId>
5

$$$$
