92071.cdx
  Mrv1902 05222410242D          

 21 23  0  0  0  0            999 V2000
    4.4531   -7.1775    0.0000 C   0  0  0  0  0  0  0  0  0  0  0  0
    4.4531   -8.0025    0.0000 C   0  0  0  0  0  0  0  0  0  0  0  0
    5.1675   -8.4150    0.0000 C   0  0  0  0  0  0  0  0  0  0  0  0
    5.8820   -8.0025    0.0000 C   0  0  0  0  0  0  0  0  0  0  0  0
    5.8820   -7.1775    0.0000 C   0  0  0  0  0  0  0  0  0  0  0  0
    5.1675   -6.7650    0.0000 C   0  0  0  0  0  0  0  0  0  0  0  0
    6.5965   -8.4150    0.0000 C   0  0  0  0  0  0  0  0  0  0  0  0
    7.3109   -8.0025    0.0000 C   0  0  0  0  0  0  0  0  0  0  0  0
    7.3109   -7.1775    0.0000 C   0  0  0  0  0  0  0  0  0  0  0  0
    6.5965   -6.7650    0.0000 C   0  0  0  0  0  0  0  0  0  0  0  0
    8.0254   -8.4150    0.0000 C   0  0  0  0  0  0  0  0  0  0  0  0
    8.7399   -8.0025    0.0000 C   0  0  0  0  0  0  0  0  0  0  0  0
    8.7399   -7.1775    0.0000 C   0  0  0  0  0  0  0  0  0  0  0  0
    8.0254   -6.7650    0.0000 C   0  0  0  0  0  0  0  0  0  0  0  0
    9.4544   -6.7650    0.0000 O   0  0  0  0  0  0  0  0  0  0  0  0
    8.7399   -5.5275    0.0000 C   0  0  0  0  0  0  0  0  0  0  0  0
    8.0254   -5.9400    0.0000 O   0  0  0  0  0  0  0  0  0  0  0  0
    6.5965   -5.9400    0.0000 O   0  0  0  0  0  0  0  0  0  0  0  0
    6.5965   -9.2400    0.0000 O   0  0  0  0  0  0  0  0  0  0  0  0
    9.4544   -8.4150    0.0000 O   0  0  0  0  0  0  0  0  0  0  0  0
   10.1688   -7.1775    0.0000 C   0  0  0  0  0  0  0  0  0  0  0  0
  1  2  2  0  0  0  0
  2  3  1  0  0  0  0
  3  4  2  0  0  0  0
  4  5  1  0  0  0  0
  5  6  2  0  0  0  0
  6  1  1  0  0  0  0
  4  7  1  0  0  0  0
  7  8  1  0  0  0  0
  8  9  2  0  0  0  0
  9 10  1  0  0  0  0
 10  5  1  0  0  0  0
  8 11  1  0  0  0  0
 11 12  2  0  0  0  0
 12 13  1  0  0  0  0
 13 14  2  0  0  0  0
 14  9  1  0  0  0  0
 13 15  1  0  0  0  0
 16 17  1  0  0  0  0
 17 14  1  0  0  0  0
 10 18  2  0  0  0  0
  7 19  2  0  0  0  0
 12 20  1  0  0  0  0
 15 21  1  0  0  0  0
M  END
>  <cdx:fragmentId>
5

$$$$
