92073.cdx
  Mrv1902 05222410232D          

 13 12  0  0  0  0            999 V2000
    9.1783   -6.8338    0.0000 C   0  0  0  0  0  0  0  0  0  0  0  0
    8.4638   -7.2462    0.0000 O   0  0  0  0  0  0  0  0  0  0  0  0
    7.7494   -6.8338    0.0000 C   0  0  0  0  0  0  0  0  0  0  0  0
    7.0349   -7.2462    0.0000 C   0  0  0  0  0  0  0  0  0  0  0  0
    6.3204   -6.8338    0.0000 C   0  0  0  0  0  0  0  0  0  0  0  0
    5.6059   -7.2462    0.0000 C   0  0  0  0  0  0  0  0  0  0  0  0
    4.8915   -6.8338    0.0000 C   0  0  0  0  0  0  0  0  0  0  0  0
    4.1770   -7.2462    0.0000 O   0  0  0  0  0  0  0  0  0  0  0  0
    3.4625   -6.8338    0.0000 C   0  0  0  0  0  0  0  0  0  0  0  0
    4.8915   -6.0088    0.0000 O   0  0  0  0  0  0  0  0  0  0  0  0
    5.6059   -8.0713    0.0000 C   0  0  0  0  0  0  0  0  0  0  0  0
    6.3204   -6.0088    0.0000 O   0  0  0  0  0  0  0  0  0  0  0  0
    7.7494   -6.0088    0.0000 O   0  0  0  0  0  0  0  0  0  0  0  0
  2  1  1  0  0  0  0
  3  2  1  0  0  0  0
  4  3  1  0  0  0  0
  5  4  1  0  0  0  0
  6  5  1  0  0  0  0
  7  6  1  0  0  0  0
  8  7  1  0  0  0  0
  9  8  1  0  0  0  0
  7 10  2  0  0  0  0
  6 11  1  0  0  0  0
  5 12  1  0  0  0  0
  3 13  2  0  0  0  0
M  END
>  <cdx:fragmentId>
3

$$$$
