92079.cdx
  Mrv1902 05222410212D          

  7  6  0  0  0  0            999 V2000
    8.2729   -6.5313    0.0000 O   0  0  0  0  0  0  0  0  0  0  0  0
    7.5584   -6.9438    0.0000 C   0  0  0  0  0  0  0  0  0  0  0  0
    6.8440   -6.5313    0.0000 C   0  0  0  0  0  0  0  0  0  0  0  0
    6.1295   -6.9438    0.0000 C   0  0  0  0  0  0  0  0  0  0  0  0
    5.4150   -6.5313    0.0000 O   0  0  0  0  0  0  0  0  0  0  0  0
    6.1295   -7.7687    0.0000 C   0  0  0  0  0  0  0  0  0  0  0  0
    7.5584   -7.7687    0.0000 O   0  0  0  0  0  0  0  0  0  0  0  0
  2  1  1  0  0  0  0
  3  2  1  0  0  0  0
  4  3  1  0  0  0  0
  5  4  1  0  0  0  0
  4  6  1  0  0  0  0
  2  7  2  0  0  0  0
M  END
>  <cdx:fragmentId>
3

$$$$
