92087.cdx
  Mrv1902 05222410212D          

  8  7  0  0  0  0            999 V2000
    8.8769   -6.9712    0.0000 O   0  0  0  0  0  0  0  0  0  0  0  0
    8.1624   -7.3838    0.0000 C   0  0  0  0  0  0  0  0  0  0  0  0
    7.4479   -6.9712    0.0000 C   0  0  0  0  0  0  0  0  0  0  0  0
    6.7334   -7.3838    0.0000 C   0  0  0  0  0  0  0  0  0  0  0  0
    6.0190   -6.9712    0.0000 C   0  0  0  0  0  0  0  0  0  0  0  0
    5.3045   -7.3838    0.0000 C   0  0  0  0  0  0  0  0  0  0  0  0
    4.5900   -6.9712    0.0000 C   0  0  0  0  0  0  0  0  0  0  0  0
    6.7334   -8.2088    0.0000 C   0  0  0  0  0  0  0  0  0  0  0  0
  2  1  1  0  0  0  0
  3  2  1  0  0  0  0
  4  3  1  0  0  0  0
  5  4  1  0  0  0  0
  6  5  1  0  0  0  0
  7  6  1  0  0  0  0
  4  8  1  0  0  0  0
M  END
>  <cdx:fragmentId>
3

$$$$
