92081.cdx
  Mrv1902 05222410232D          

 33 35  0  0  0  0            999 V2000
    9.4680  -10.7020    0.0000 O   0  0  0  0  0  0  0  0  0  0  0  0
    8.0444  -11.5362    0.0000 O   0  0  0  0  0  0  0  0  0  0  0  0
    3.7257   -6.6140    0.0000 O   0  0  0  0  0  0  0  0  0  0  0  0
    5.1493   -5.7798    0.0000 O   0  0  0  0  0  0  0  0  0  0  0  0
    6.5836   -6.5955    0.0000 O   0  0  0  0  0  0  0  0  0  0  0  0
    4.4588   -9.4968    0.0000 O   0  0  0  0  0  0  0  0  0  0  0  0
   10.8809   -8.2178    0.0000 O   0  0  0  0  0  0  0  0  0  0  0  0
   10.1425   -4.5100    0.0000 O   0  0  0  0  0  0  0  0  0  0  0  0
   10.1478   -5.3350    0.0000 C   0  0  0  0  0  0  0  0  0  0  0  0
    9.4361   -5.7521    0.0000 C   0  0  0  0  0  0  0  0  0  0  0  0
    5.8718   -7.0126    0.0000 C   0  0  0  0  0  0  0  0  0  0  0  0
    5.1546   -6.6047    0.0000 C   0  0  0  0  0  0  0  0  0  0  0  0
    4.4428   -7.0218    0.0000 C   0  0  0  0  0  0  0  0  0  0  0  0
    4.4482   -7.8468    0.0000 C   0  0  0  0  0  0  0  0  0  0  0  0
    5.8771   -7.8376    0.0000 C   0  0  0  0  0  0  0  0  0  0  0  0
    5.1653   -8.2547    0.0000 C   0  0  0  0  0  0  0  0  0  0  0  0
    5.1706   -9.0797    0.0000 C   0  0  0  0  0  0  0  0  0  0  0  0
    6.5995   -9.0705    0.0000 C   0  0  0  0  0  0  0  0  0  0  0  0
    5.8877   -9.4876    0.0000 O   0  0  0  0  0  0  0  0  0  0  0  0
    6.6102  -10.7204    0.0000 O   0  0  0  0  0  0  0  0  0  0  0  0
   10.1638   -7.8100    0.0000 C   0  0  0  0  0  0  0  0  0  0  0  0
   10.1585   -6.9850    0.0000 C   0  0  0  0  0  0  0  0  0  0  0  0
    9.4414   -6.5771    0.0000 C   0  0  0  0  0  0  0  0  0  0  0  0
    8.7296   -6.9942    0.0000 C   0  0  0  0  0  0  0  0  0  0  0  0
    9.4573   -9.0520    0.0000 O   0  0  0  0  0  0  0  0  0  0  0  0
    9.4520   -8.2271    0.0000 C   0  0  0  0  0  0  0  0  0  0  0  0
    8.7349   -7.8192    0.0000 C   0  0  0  0  0  0  0  0  0  0  0  0
    7.3166   -9.4784    0.0000 C   0  0  2  0  0  0  0  0  0  0  0  0
    7.3220  -10.3033    0.0000 C   0  0  2  0  0  0  0  0  0  0  0  0
    8.0391  -10.7112    0.0000 C   0  0  1  0  0  0  0  0  0  0  0  0
    8.7509  -10.2941    0.0000 C   0  0  2  0  0  0  0  0  0  0  0  0
    8.7455   -9.4691    0.0000 C   0  0  1  0  0  0  0  0  0  0  0  0
    8.0284   -9.0613    0.0000 O   0  0  0  0  0  0  0  0  0  0  0  0
 31  1  1  6  0  0  0
 30  2  1  1  0  0  0
 13  3  1  0  0  0  0
 12  4  1  0  0  0  0
 11  5  1  0  0  0  0
 17  6  2  0  0  0  0
 21  7  1  0  0  0  0
  9  8  1  0  0  0  0
 10  9  1  0  0  0  0
 23 10  1  0  0  0  0
 11 15  1  0  0  0  0
 12 11  2  0  0  0  0
 13 12  1  0  0  0  0
 14 13  2  0  0  0  0
 16 14  1  0  0  0  0
 16 15  2  0  0  0  0
 17 16  1  0  0  0  0
 19 17  1  0  0  0  0
 28 18  1  1  0  0  0
 19 18  1  0  0  0  0
 29 20  1  6  0  0  0
 21 26  1  0  0  0  0
 22 21  2  0  0  0  0
 23 22  1  0  0  0  0
 24 23  2  0  0  0  0
 27 24  1  0  0  0  0
 32 25  1  1  0  0  0
 26 25  1  0  0  0  0
 27 26  2  0  0  0  0
 28 33  1  0  0  0  0
 29 28  1  0  0  0  0
 30 29  1  0  0  0  0
 31 30  1  0  0  0  0
 32 31  1  0  0  0  0
 33 32  1  0  0  0  0
M  END
>  <cdx:fragmentId>
5

$$$$
