92080.cdx
  Mrv1902 05222410232D          

 12 12  0  0  0  0            999 V2000
    6.1031   -8.3737    0.0000 C   0  0  0  0  0  0  0  0  0  0  0  0
    6.1031   -9.1987    0.0000 C   0  0  0  0  0  0  0  0  0  0  0  0
    6.8175   -9.6112    0.0000 C   0  0  0  0  0  0  0  0  0  0  0  0
    7.5320   -9.1987    0.0000 C   0  0  0  0  0  0  0  0  0  0  0  0
    7.5320   -8.3737    0.0000 C   0  0  0  0  0  0  0  0  0  0  0  0
    6.8175   -7.9612    0.0000 C   0  0  0  0  0  0  0  0  0  0  0  0
    5.3886   -9.6112    0.0000 O   0  0  0  0  0  0  0  0  0  0  0  0
    6.8175   -7.1362    0.0000 C   0  0  0  0  0  0  0  0  0  0  0  0
    7.5320   -6.7237    0.0000 C   0  0  0  0  0  0  0  0  0  0  0  0
    7.5320   -5.8988    0.0000 C   0  0  0  0  0  0  0  0  0  0  0  0
    8.2465   -5.4863    0.0000 O   0  0  0  0  0  0  0  0  0  0  0  0
    6.8175   -5.4863    0.0000 O   0  0  0  0  0  0  0  0  0  0  0  0
  1  2  2  0  0  0  0
  2  3  1  0  0  0  0
  3  4  2  0  0  0  0
  4  5  1  0  0  0  0
  5  6  2  0  0  0  0
  6  1  1  0  0  0  0
  2  7  1  0  0  0  0
  6  8  1  0  0  0  0
  8  9  2  0  0  0  0
  9 10  1  0  0  0  0
 10 11  1  0  0  0  0
 10 12  2  0  0  0  0
M  END
>  <cdx:fragmentId>
5

$$$$
