92084.cdx
  Mrv1902 05222410212D          

 17 19  0  0  0  0            999 V2000
    6.9831   -5.3763    0.0000 C   0  0  0  0  0  0  0  0  0  0  0  0
    6.9831   -6.2012    0.0000 C   0  0  0  0  0  0  0  0  0  0  0  0
    7.6975   -6.6137    0.0000 C   0  0  0  0  0  0  0  0  0  0  0  0
    8.4120   -6.2012    0.0000 C   0  0  0  0  0  0  0  0  0  0  0  0
    8.4120   -5.3763    0.0000 C   0  0  0  0  0  0  0  0  0  0  0  0
    7.6975   -4.9637    0.0000 C   0  0  0  0  0  0  0  0  0  0  0  0
    6.3700   -6.7533    0.0000 C   0  0  0  0  0  0  0  0  0  0  0  0
    6.7055   -7.5070    0.0000 C   0  0  0  0  0  0  0  0  0  0  0  0
    7.5260   -7.4207    0.0000 C   0  0  0  0  0  0  0  0  0  0  0  0
    6.2686   -4.9637    0.0000 C   0  0  0  0  0  0  0  0  0  0  0  0
    5.5541   -5.3763    0.0000 C   0  0  0  0  0  0  0  0  0  0  0  0
    6.2686   -4.1387    0.0000 C   0  0  0  0  0  0  0  0  0  0  0  0
    6.2930   -8.2214    0.0000 O   0  0  0  0  0  0  0  0  0  0  0  0
    8.0780   -8.0338    0.0000 O   0  0  0  0  0  0  0  0  0  0  0  0
    8.0193   -7.0768    0.0000 C   0  0  0  0  0  0  0  0  0  0  0  0
    9.2187   -6.3739    0.0000 C   0  0  0  0  0  0  0  0  0  0  0  0
    8.3987   -7.8094    0.0000 C   0  0  0  0  0  0  0  0  0  0  0  0
  1  2  1  0  0  0  0
  2  3  1  0  0  0  0
  3  4  1  0  0  0  0
  4  5  1  0  0  0  0
  5  6  1  0  0  0  0
  6  1  1  0  0  0  0
  2  7  1  0  0  0  0
  7  8  1  0  0  0  0
  8  9  1  0  0  0  0
  9  3  1  0  0  0  0
  1 10  1  0  0  0  0
 10 11  1  0  0  0  0
 10 12  1  0  0  0  0
  8 13  1  0  0  0  0
  9 14  1  0  0  0  0
  7 15  1  0  0  0  0
 15  4  1  0  0  0  0
  4 16  1  0  0  0  0
 15 17  1  0  0  0  0
M  END
>  <cdx:fragmentId>
5

$$$$
