92082.cdx
  Mrv1902 05222410222D          

 13 14  0  0  0  0            999 V2000
    4.7418   -6.8338    0.0000 C   0  0  0  0  0  0  0  0  0  0  0  0
    4.7418   -7.6587    0.0000 C   0  0  0  0  0  0  0  0  0  0  0  0
    5.4563   -8.0713    0.0000 C   0  0  0  0  0  0  0  0  0  0  0  0
    6.1707   -7.6587    0.0000 C   0  0  0  0  0  0  0  0  0  0  0  0
    6.1707   -6.8338    0.0000 C   0  0  0  0  0  0  0  0  0  0  0  0
    5.4563   -6.4213    0.0000 C   0  0  0  0  0  0  0  0  0  0  0  0
    6.9554   -7.9137    0.0000 N   0  0  0  0  0  0  0  0  0  0  0  0
    7.4403   -7.2462    0.0000 C   0  0  0  0  0  0  0  0  0  0  0  0
    6.9554   -6.5788    0.0000 C   0  0  0  0  0  0  0  0  0  0  0  0
    7.2103   -5.7942    0.0000 C   0  0  0  0  0  0  0  0  0  0  0  0
    8.0072   -5.5807    0.0000 C   0  0  0  0  0  0  0  0  0  0  0  0
    8.2207   -4.7838    0.0000 O   0  0  0  0  0  0  0  0  0  0  0  0
    8.5906   -6.1640    0.0000 O   0  0  0  0  0  0  0  0  0  0  0  0
  1  2  2  0  0  0  0
  2  3  1  0  0  0  0
  3  4  2  0  0  0  0
  4  5  1  0  0  0  0
  5  6  2  0  0  0  0
  6  1  1  0  0  0  0
  4  7  1  0  0  0  0
  7  8  1  0  0  0  0
  8  9  2  0  0  0  0
  9  5  1  0  0  0  0
  9 10  1  0  0  0  0
 10 11  1  0  0  0  0
 11 12  1  0  0  0  0
 11 13  2  0  0  0  0
M  END
>  <cdx:fragmentId>
5

$$$$
