92089.cdx
  Mrv1902 05222410252D          

 11 11  0  0  0  0            999 V2000
    6.2177   -7.5771    0.0000 C   0  0  0  0  0  0  0  0  0  0  0  0
    5.9603   -8.3609    0.0000 C   0  0  0  0  0  0  0  0  0  0  0  0
    6.6263   -8.8479    0.0000 O   0  0  0  0  0  0  0  0  0  0  0  0
    7.2952   -8.3650    0.0000 C   0  0  0  0  0  0  0  0  0  0  0  0
    7.0427   -7.5796    0.0000 C   0  0  0  0  0  0  0  0  0  0  0  0
    5.1749   -8.6134    0.0000 O   0  0  0  0  0  0  0  0  0  0  0  0
    8.0790   -8.6224    0.0000 O   0  0  0  0  0  0  0  0  0  0  0  0
    5.7348   -6.9081    0.0000 C   0  0  0  0  0  0  0  0  0  0  0  0
    7.5297   -6.9137    0.0000 C   0  0  0  0  0  0  0  0  0  0  0  0
    8.3547   -6.9137    0.0000 C   0  0  0  0  0  0  0  0  0  0  0  0
    8.7672   -6.1992    0.0000 C   0  0  0  0  0  0  0  0  0  0  0  0
  1  2  1  0  0  0  0
  2  3  1  0  0  0  0
  3  4  1  0  0  0  0
  4  5  1  0  0  0  0
  5  1  2  0  0  0  0
  2  6  2  0  0  0  0
  4  7  2  0  0  0  0
  1  8  1  0  0  0  0
  5  9  1  0  0  0  0
  9 10  1  0  0  0  0
 10 11  1  0  0  0  0
M  END
>  <cdx:fragmentId>
5

$$$$
