92086.cdx
  Mrv1902 05222410212D          

 10 10  0  0  0  0            999 V2000
    6.4056   -6.6137    0.0000 C   0  0  0  0  0  0  0  0  0  0  0  0
    6.4056   -7.4387    0.0000 C   0  0  0  0  0  0  0  0  0  0  0  0
    7.1200   -7.8513    0.0000 C   0  0  0  0  0  0  0  0  0  0  0  0
    7.8345   -7.4387    0.0000 C   0  0  0  0  0  0  0  0  0  0  0  0
    7.8345   -6.6137    0.0000 C   0  0  0  0  0  0  0  0  0  0  0  0
    7.1200   -6.2012    0.0000 C   0  0  0  0  0  0  0  0  0  0  0  0
    5.6911   -7.8513    0.0000 O   0  0  0  0  0  0  0  0  0  0  0  0
    7.1200   -5.3763    0.0000 O   0  0  0  0  0  0  0  0  0  0  0  0
    7.8345   -4.9637    0.0000 C   0  0  0  0  0  0  0  0  0  0  0  0
    8.5490   -7.8513    0.0000 C   0  0  0  0  0  0  0  0  0  0  0  0
  1  2  2  0  0  0  0
  2  3  1  0  0  0  0
  3  4  2  0  0  0  0
  4  5  1  0  0  0  0
  5  6  2  0  0  0  0
  6  1  1  0  0  0  0
  2  7  1  0  0  0  0
  6  8  1  0  0  0  0
  8  9  1  0  0  0  0
  4 10  1  0  0  0  0
M  END
>  <cdx:fragmentId>
5

$$$$
