92096.cdx
  Mrv1902 05222410222D          

 10  9  0  0  0  0            999 V2000
    5.6625   -6.2425    0.0000 C   0  0  0  0  0  0  0  0  0  0  0  0
    6.3770   -5.8300    0.0000 C   0  0  0  0  0  0  0  0  0  0  0  0
    7.0915   -6.2425    0.0000 C   0  0  0  0  0  0  0  0  0  0  0  0
    7.8059   -5.8300    0.0000 C   0  0  0  0  0  0  0  0  0  0  0  0
    8.5204   -6.2425    0.0000 C   0  0  0  0  0  0  0  0  0  0  0  0
    9.2349   -5.8300    0.0000 C   0  0  0  0  0  0  0  0  0  0  0  0
    9.9494   -6.2425    0.0000 C   0  0  0  0  0  0  0  0  0  0  0  0
   10.6638   -5.8300    0.0000 C   0  0  0  0  0  0  0  0  0  0  0  0
   11.3783   -6.2425    0.0000 C   0  0  0  0  0  0  0  0  0  0  0  0
    7.0915   -7.0675    0.0000 O   0  0  0  0  0  0  0  0  0  0  0  0
  1  2  1  0  0  0  0
  2  3  1  0  0  0  0
  3  4  1  0  0  0  0
  4  5  1  0  0  0  0
  5  6  1  0  0  0  0
  6  7  1  0  0  0  0
  7  8  1  0  0  0  0
  8  9  1  0  0  0  0
  3 10  2  0  0  0  0
M  END
>  <cdx:fragmentId>
3

$$$$
