92095.cdx
  Mrv1902 05222410232D          

 36 41  0  0  0  0            999 V2000
    6.5721   -8.5552    0.0000 C   0  0  1  0  0  0  0  0  0  0  0  0
    7.2866   -8.1427    0.0000 C   0  0  2  0  0  0  0  0  0  0  0  0
    8.0712   -8.3977    0.0000 C   0  0  0  0  0  0  0  0  0  0  0  0
    8.5561   -7.7302    0.0000 C   0  0  2  0  0  0  0  0  0  0  0  0
    9.3408   -7.4753    0.0000 O   0  0  0  0  0  0  0  0  0  0  0  0
    9.3408   -6.6503    0.0000 C   0  0  2  0  0  0  0  0  0  0  0  0
    8.5561   -6.3953    0.0000 C   0  0  2  0  0  0  0  0  0  0  0  0
    8.0712   -7.0628    0.0000 C   0  0  2  0  0  0  0  0  0  0  0  0
    7.2866   -7.3177    0.0000 C   0  0  1  0  0  0  0  0  0  0  0  0
    6.5721   -6.9052    0.0000 C   0  0  0  0  0  0  0  0  0  0  0  0
    5.8577   -7.3177    0.0000 C   0  0  0  0  0  0  0  0  0  0  0  0
    5.8577   -8.1427    0.0000 C   0  0  2  0  0  0  0  0  0  0  0  0
    5.1432   -8.5552    0.0000 C   0  0  1  0  0  0  0  0  0  0  0  0
    4.4287   -8.1427    0.0000 C   0  0  0  0  0  0  0  0  0  0  0  0
    3.7142   -8.5552    0.0000 C   0  0  0  0  0  0  0  0  0  0  0  0
    3.7142   -9.3802    0.0000 C   0  0  1  0  0  0  0  0  0  0  0  0
    4.4287   -9.7927    0.0000 C   0  0  0  0  0  0  0  0  0  0  0  0
    5.1432   -9.3802    0.0000 C   0  0  1  0  0  0  0  0  0  0  0  0
    5.8577   -9.7927    0.0000 C   0  0  0  0  0  0  0  0  0  0  0  0
    6.5721   -9.3802    0.0000 C   0  0  0  0  0  0  0  0  0  0  0  0
    9.2545   -5.8298    0.0000 O   0  0  0  0  0  0  0  0  0  0  0  0
   10.0944   -6.9858    0.0000 C   0  0  0  0  0  0  0  0  0  0  0  0
   10.7619   -6.5009    0.0000 C   0  0  0  0  0  0  0  0  0  0  0  0
   10.6756   -5.6804    0.0000 C   0  0  1  0  0  0  0  0  0  0  0  0
    9.9220   -5.3449    0.0000 C   0  0  0  0  0  0  0  0  0  0  0  0
    2.9998   -9.7927    0.0000 O   0  0  0  0  0  0  0  0  0  0  0  0
    5.1432   -7.7302    0.0000 C   0  0  0  0  0  0  0  0  0  0  0  0
    7.2866   -6.4927    0.0000 C   0  0  0  0  0  0  0  0  0  0  0  0
    8.3012   -5.6107    0.0000 C   0  0  0  0  0  0  0  0  0  0  0  0
   11.3431   -5.1955    0.0000 C   0  0  0  0  0  0  0  0  0  0  0  0
    6.5721   -7.7302    0.0000 H   0  0  0  0  0  0  0  0  0  0  0  0
    7.2866   -8.9677    0.0000 H   0  0  0  0  0  0  0  0  0  0  0  0
    9.0411   -8.3977    0.0000 H   0  0  0  0  0  0  0  0  0  0  0  0
    7.7096   -6.3213    0.0000 H   0  0  0  0  0  0  0  0  0  0  0  0
    5.8577   -8.9677    0.0000 H   0  0  0  0  0  0  0  0  0  0  0  0
    5.1432  -10.2052    0.0000 H   0  0  0  0  0  0  0  0  0  0  0  0
  1  2  1  0  0  0  0
  2  3  1  0  0  0  0
  3  4  1  0  0  0  0
  4  5  1  0  0  0  0
  6  5  1  6  0  0  0
  6  7  1  0  0  0  0
  7  8  1  0  0  0  0
  8  9  1  0  0  0  0
  9 10  1  0  0  0  0
 10 11  1  0  0  0  0
 11 12  1  0  0  0  0
 12 13  1  0  0  0  0
 13 14  1  0  0  0  0
 14 15  1  0  0  0  0
 15 16  1  0  0  0  0
 16 17  1  0  0  0  0
 17 18  1  0  0  0  0
 18 19  1  0  0  0  0
 19 20  1  0  0  0  0
  1 20  1  0  0  0  0
  1 12  1  0  0  0  0
 13 18  1  0  0  0  0
  2  9  1  0  0  0  0
  4  8  1  0  0  0  0
 22 23  1  0  0  0  0
 23 24  1  0  0  0  0
 24 25  1  0  0  0  0
 21 25  1  0  0  0  0
  6 21  1  0  0  0  0
  6 22  1  0  0  0  0
 16 26  1  1  0  0  0
 13 27  1  1  0  0  0
  9 28  1  1  0  0  0
  7 29  1  6  0  0  0
 24 30  1  1  0  0  0
  1 31  1  1  0  0  0
  2 32  1  6  0  0  0
  4 33  1  6  0  0  0
  8 34  1  6  0  0  0
 12 35  1  6  0  0  0
 18 36  1  1  0  0  0
M  END
>  <cdx:groupId>
115

>  <cdx:fragmentId>
5

$$$$
