92099.cdx
  Mrv1902 05222410232D          

 49 53  0  0  0  0            999 V2000
    9.0003   -8.5354    0.0000 O   0  0  0  0  0  0  0  0  0  0  0  0
   10.7509  -10.0399    0.0000 H   0  0  0  0  0  0  0  0  0  0  0  0
   10.6751  -10.7048    0.0000 H   0  0  0  0  0  0  0  0  0  0  0  0
    8.2680  -12.8262    0.0000 O   0  0  0  0  0  0  0  0  0  0  0  0
    8.8767  -13.3331    0.0000 O   0  0  0  0  0  0  0  0  0  0  0  0
   11.1948  -12.8673    0.0000 O   0  0  0  0  0  0  0  0  0  0  0  0
   10.3790  -12.9903    0.0000 C   0  0  0  0  0  0  0  0  0  0  0  0
    6.3207  -11.6019    0.0000 C   0  0  0  0  0  0  0  0  0  0  0  0
   10.2576   -8.2102    0.0000 C   0  0  0  0  0  0  0  0  0  0  0  0
   10.8833   -8.7479    0.0000 C   0  0  0  0  0  0  0  0  0  0  0  0
    7.1273  -10.3850    0.0000 C   0  0  0  0  0  0  0  0  0  0  0  0
    8.8767   -9.8708    0.0000 O   0  0  0  0  0  0  0  0  0  0  0  0
    9.0603  -10.6751    0.0000 C   0  0  0  0  0  0  0  0  0  0  0  0
    7.9523  -10.3850    0.0000 C   0  0  2  0  0  0  0  0  0  0  0  0
    8.3241   -9.5346    0.0000 C   0  0  0  0  0  0  0  0  0  0  0  0
    9.2289   -9.3281    0.0000 C   0  0  2  0  0  0  0  0  0  0  0  0
   10.1048   -9.0209    0.0000 C   0  0  0  0  0  0  0  0  0  0  0  0
    9.9329   -9.9330    0.0000 C   0  0  1  0  0  0  0  0  0  0  0  0
    9.8646  -10.8586    0.0000 C   0  0  2  0  0  0  0  0  0  0  0  0
   10.2225  -11.6019    0.0000 C   0  0  0  0  0  0  0  0  0  0  0  0
    9.8646  -12.3452    0.0000 C   0  0  0  0  0  0  0  0  0  0  0  0
    9.0603  -12.5288    0.0000 C   0  0  2  0  0  0  0  0  0  0  0  0
    8.4153  -12.0144    0.0000 C   0  0  1  0  0  0  0  0  0  0  0  0
    7.6306  -12.2694    0.0000 C   0  0  2  0  0  0  0  0  0  0  0  0
    7.1457  -11.6019    0.0000 C   0  0  0  0  0  0  0  0  0  0  0  0
    7.6306  -10.9345    0.0000 C   0  0  0  0  0  0  0  0  0  0  0  0
    8.4153  -11.1894    0.0000 C   0  0  0  0  0  0  0  0  0  0  0  0
    7.3757  -13.0540    0.0000 O   0  0  0  0  0  0  0  0  0  0  0  0
    8.1995   -8.3371    0.0000 C   0  0  0  0  0  0  0  0  0  0  0  0
    7.6273   -8.9315    0.0000 O   0  0  0  0  0  0  0  0  0  0  0  0
    7.9708   -7.5444    0.0000 C   0  0  0  0  0  0  0  0  0  0  0  0
    7.1700   -7.3461    0.0000 C   0  0  0  0  0  0  0  0  0  0  0  0
    6.9413   -6.5534    0.0000 C   0  0  0  0  0  0  0  0  0  0  0  0
    6.1405   -6.3551    0.0000 C   0  0  0  0  0  0  0  0  0  0  0  0
    5.9118   -5.5624    0.0000 C   0  0  0  0  0  0  0  0  0  0  0  0
    5.1110   -5.3641    0.0000 C   0  0  0  0  0  0  0  0  0  0  0  0
    4.8824   -4.5715    0.0000 C   0  0  0  0  0  0  0  0  0  0  0  0
    4.0815   -4.3732    0.0000 C   0  0  0  0  0  0  0  0  0  0  0  0
    3.8529   -3.5805    0.0000 C   0  0  0  0  0  0  0  0  0  0  0  0
    3.0521   -3.3822    0.0000 C   0  0  0  0  0  0  0  0  0  0  0  0
    2.8234   -2.5895    0.0000 C   0  0  0  0  0  0  0  0  0  0  0  0
    6.5687  -13.2255    0.0000 C   0  0  0  0  0  0  0  0  0  0  0  0
    6.0167  -12.6124    0.0000 O   0  0  0  0  0  0  0  0  0  0  0  0
    6.3138  -14.0102    0.0000 C   0  0  0  0  0  0  0  0  0  0  0  0
    5.5068  -14.1817    0.0000 C   0  0  0  0  0  0  0  0  0  0  0  0
    5.2519  -14.9663    0.0000 C   0  0  0  0  0  0  0  0  0  0  0  0
    5.8039  -15.5794    0.0000 C   0  0  0  0  0  0  0  0  0  0  0  0
    6.6109  -15.4079    0.0000 C   0  0  0  0  0  0  0  0  0  0  0  0
    6.8658  -14.6233    0.0000 C   0  0  0  0  0  0  0  0  0  0  0  0
 16  1  1  6  0  0  0
 18  2  1  6  0  0  0
 19  3  1  1  0  0  0
 24 28  1  1  0  0  0
 23  4  1  1  0  0  0
 22  5  1  1  0  0  0
 21  7  1  0  0  0  0
  7  6  1  0  0  0  0
 25  8  1  0  0  0  0
 17  9  1  0  0  0  0
 17 10  1  0  0  0  0
 14 11  1  6  0  0  0
 13 12  2  0  0  0  0
 27 23  1  0  0  0  0
 18 16  1  0  0  0  0
 19 13  1  0  0  0  0
 27 13  1  0  0  0  0
 27 14  1  0  0  0  0
 15 14  1  0  0  0  0
 16 15  1  0  0  0  0
 17 16  1  0  0  0  0
 18 17  1  0  0  0  0
 19 18  1  0  0  0  0
 20 19  1  0  0  0  0
 21 20  2  0  0  0  0
 22 21  1  0  0  0  0
 23 22  1  0  0  0  0
 24 23  1  0  0  0  0
 25 24  1  0  0  0  0
 26 25  2  0  0  0  0
 27 26  1  0  0  0  0
  1 29  1  0  0  0  0
 29 30  2  0  0  0  0
 29 31  1  0  0  0  0
 31 32  2  0  0  0  0
 32 33  1  0  0  0  0
 33 34  2  0  0  0  0
 34 35  1  0  0  0  0
 35 36  1  0  0  0  0
 36 37  1  0  0  0  0
 37 38  1  0  0  0  0
 38 39  1  0  0  0  0
 39 40  1  0  0  0  0
 40 41  1  0  0  0  0
 28 42  1  0  0  0  0
 42 43  2  0  0  0  0
 42 44  1  0  0  0  0
 44 45  2  0  0  0  0
 45 46  1  0  0  0  0
 46 47  2  0  0  0  0
 47 48  1  0  0  0  0
 48 49  2  0  0  0  0
 49 44  1  0  0  0  0
M  END
>  <cdx:groupId>
947

>  <cdx:fragmentId>
854

$$$$
