92097.cdx
  Mrv1902 05222410222D          

 34 38  0  0  0  0            999 V2000
    5.6932  -10.7763    0.0000 H   0  0  0  0  0  0  0  0  0  0  0  0
    5.3914  -11.0785    0.0000 C   0  0  0  0  0  0  0  0  0  0  0  0
    4.5664  -11.0789    0.0000 C   0  0  0  0  0  0  0  0  0  0  0  0
    9.9786   -8.2988    0.0000 C   0  0  0  0  0  0  0  0  0  0  0  0
    8.8499   -5.5225    0.0000 C   0  0  0  0  0  0  0  0  0  0  0  0
    9.6749   -5.5220    0.0000 C   0  0  0  0  0  0  0  0  0  0  0  0
    3.5495  -10.3651    0.0000 O   0  0  0  0  0  0  0  0  0  0  0  0
    5.6922   -9.1263    0.0000 C   0  0  2  0  0  0  0  0  0  0  0  0
    6.4064   -8.7134    0.0000 C   0  0  1  0  0  0  0  0  0  0  0  0
    6.4060   -7.8884    0.0000 C   0  0  0  0  0  0  0  0  0  0  0  0
    7.1202   -7.4755    0.0000 C   0  0  0  0  0  0  0  0  0  0  0  0
    7.8349   -7.8875    0.0000 C   0  0  1  0  0  0  0  0  0  0  0  0
    8.5491   -7.4746    0.0000 C   0  0  2  0  0  0  0  0  0  0  0  0
    8.5486   -6.6496    0.0000 C   0  0  0  0  0  0  0  0  0  0  0  0
    9.2629   -6.2367    0.0000 C   0  0  0  0  0  0  0  0  0  0  0  0
    9.9776   -6.6488    0.0000 C   0  0  0  0  0  0  0  0  0  0  0  0
    9.9781   -7.4738    0.0000 C   0  0  0  0  0  0  0  0  0  0  0  0
    9.2638   -7.8867    0.0000 C   0  0  1  0  0  0  0  0  0  0  0  0
    9.2643   -8.7117    0.0000 C   0  0  0  0  0  0  0  0  0  0  0  0
    8.5501   -9.1246    0.0000 C   0  0  0  0  0  0  0  0  0  0  0  0
    7.8354   -8.7125    0.0000 C   0  0  0  0  0  0  0  0  0  0  0  0
    7.1212   -9.1255    0.0000 C   0  0  2  0  0  0  0  0  0  0  0  0
    7.1216   -9.9505    0.0000 C   0  0  0  0  0  0  0  0  0  0  0  0
    6.4074  -10.3634    0.0000 C   0  0  0  0  0  0  0  0  0  0  0  0
    5.6927   -9.9513    0.0000 C   0  0  1  0  0  0  0  0  0  0  0  0
    4.9785  -10.3642    0.0000 C   0  0  0  0  0  0  0  0  0  0  0  0
    4.2638   -9.9522    0.0000 C   0  0  2  0  0  0  0  0  0  0  0  0
    4.2633   -9.1272    0.0000 C   0  0  0  0  0  0  0  0  0  0  0  0
    4.9775   -8.7142    0.0000 C   0  0  0  0  0  0  0  0  0  0  0  0
    5.6917   -8.3013    0.0000 C   0  0  0  0  0  0  0  0  0  0  0  0
    7.1212   -8.3005    0.0000 C   0  0  0  0  0  0  0  0  0  0  0  0
    8.5491   -8.2996    0.0000 H   0  0  0  0  0  0  0  0  0  0  0  0
    6.4064   -9.5384    0.0000 H   0  0  0  0  0  0  0  0  0  0  0  0
    7.8344   -7.0625    0.0000 C   0  0  0  0  0  0  0  0  0  0  0  0
 25  1  1  6  0  0  0
 26  2  1  0  0  0  0
 26  3  1  0  0  0  0
 18  4  1  1  0  0  0
 15  5  1  0  0  0  0
 15  6  1  0  0  0  0
 27  7  1  1  0  0  0
 29  8  1  0  0  0  0
 25  8  1  0  0  0  0
  9  8  1  0  0  0  0
 22  9  1  0  0  0  0
 10  9  1  0  0  0  0
 11 10  1  0  0  0  0
 12 11  1  0  0  0  0
 21 12  1  0  0  0  0
 13 12  1  0  0  0  0
 18 13  1  0  0  0  0
 14 13  1  0  0  0  0
 15 14  1  0  0  0  0
 16 15  1  0  0  0  0
 17 16  1  0  0  0  0
 18 17  1  0  0  0  0
 19 18  1  0  0  0  0
 20 19  1  0  0  0  0
 21 20  2  0  0  0  0
 22 21  1  0  0  0  0
 23 22  1  0  0  0  0
 24 23  1  0  0  0  0
 25 24  1  0  0  0  0
 26 25  1  0  0  0  0
 27 26  1  0  0  0  0
 28 27  1  0  0  0  0
 29 28  1  0  0  0  0
  8 30  1  1  0  0  0
 22 31  1  1  0  0  0
 13 32  1  1  0  0  0
  9 33  1  6  0  0  0
 12 34  1  6  0  0  0
M  END
>  <cdx:fragmentId>
5

$$$$
