92092.cdx
  Mrv1902 05222410212D          

  8  7  0  0  0  0            999 V2000
    8.6706   -6.9850    0.0000 C   0  0  0  0  0  0  0  0  0  0  0  0
    7.9561   -7.3975    0.0000 C   0  0  0  0  0  0  0  0  0  0  0  0
    7.2417   -6.9850    0.0000 C   0  0  0  0  0  0  0  0  0  0  0  0
    6.5272   -7.3975    0.0000 C   0  0  0  0  0  0  0  0  0  0  0  0
    5.8127   -6.9850    0.0000 C   0  0  0  0  0  0  0  0  0  0  0  0
    5.0982   -7.3975    0.0000 C   0  0  0  0  0  0  0  0  0  0  0  0
    4.3838   -6.9850    0.0000 O   0  0  0  0  0  0  0  0  0  0  0  0
    6.5272   -8.2225    0.0000 C   0  0  0  0  0  0  0  0  0  0  0  0
  2  1  1  0  0  0  0
  3  2  1  0  0  0  0
  4  3  1  0  0  0  0
  5  4  1  0  0  0  0
  6  5  1  0  0  0  0
  7  6  2  0  0  0  0
  4  8  1  0  0  0  0
M  END
>  <cdx:fragmentId>
3

$$$$
