92108.cdx
  Mrv1902 05222410222D          

  6  5  0  0  0  0            999 V2000
    8.3004   -5.6512    0.0000 C   0  0  0  0  0  0  0  0  0  0  0  0
    7.5859   -6.0638    0.0000 C   0  0  0  0  0  0  0  0  0  0  0  0
    6.8715   -5.6512    0.0000 C   0  0  0  0  0  0  0  0  0  0  0  0
    6.1570   -6.0638    0.0000 C   0  0  0  0  0  0  0  0  0  0  0  0
    5.4425   -5.6512    0.0000 C   0  0  0  0  0  0  0  0  0  0  0  0
    6.1570   -6.8888    0.0000 O   0  0  0  0  0  0  0  0  0  0  0  0
  2  1  1  0  0  0  0
  3  2  2  0  0  0  0
  4  3  1  0  0  0  0
  5  4  1  0  0  0  0
  4  6  2  0  0  0  0
M  END
>  <cdx:fragmentId>
3

$$$$
