92101.cdx
  Mrv1902 05222410242D          

 38 42  0  0  0  0            999 V2000
    6.6068   -5.4664    0.0000 C   0  0  0  0  0  0  0  0  0  0  0  0
    7.3213   -5.8789    0.0000 C   0  0  0  0  0  0  0  0  0  0  0  0
    7.3213   -6.7039    0.0000 C   0  0  0  0  0  0  0  0  0  0  0  0
    6.6068   -7.1164    0.0000 C   0  0  0  0  0  0  0  0  0  0  0  0
    5.8923   -6.7039    0.0000 C   0  0  0  0  0  0  0  0  0  0  0  0
    5.1778   -7.1164    0.0000 C   0  0  0  0  0  0  0  0  0  0  0  0
    4.4634   -6.7039    0.0000 C   0  0  0  0  0  0  0  0  0  0  0  0
    3.7489   -7.1164    0.0000 C   0  0  0  0  0  0  0  0  0  0  0  0
    3.0344   -6.7039    0.0000 C   0  0  0  0  0  0  0  0  0  0  0  0
    3.0344   -5.8789    0.0000 C   0  0  0  0  0  0  0  0  0  0  0  0
    3.7489   -5.4664    0.0000 C   0  0  0  0  0  0  0  0  0  0  0  0
    4.4634   -5.8789    0.0000 C   0  0  0  0  0  0  0  0  0  0  0  0
    5.1778   -5.4664    0.0000 C   0  0  0  0  0  0  0  0  0  0  0  0
    5.8923   -5.8789    0.0000 C   0  0  0  0  0  0  0  0  0  0  0  0
    5.1778   -4.6414    0.0000 O   0  0  0  0  0  0  0  0  0  0  0  0
    5.1778   -7.9414    0.0000 O   0  0  0  0  0  0  0  0  0  0  0  0
   10.2240   -8.3201    0.0000 O   0  0  0  0  0  0  0  0  0  0  0  0
    9.4919   -9.5472    0.0000 O   0  0  0  0  0  0  0  0  0  0  0  0
   10.2122   -9.1450    0.0000 C   0  0  2  0  0  0  0  0  0  0  0  0
   10.9207   -9.5677    0.0000 C   0  0  1  0  0  0  0  0  0  0  0  0
   10.9089  -10.3926    0.0000 C   0  0  2  0  0  0  0  0  0  0  0  0
   10.1886  -10.7948    0.0000 C   0  0  1  0  0  0  0  0  0  0  0  0
    9.4801  -10.3722    0.0000 C   0  0  0  0  0  0  0  0  0  0  0  0
   10.1769  -11.6197    0.0000 O   0  0  0  0  0  0  0  0  0  0  0  0
   11.6174  -10.8152    0.0000 O   0  0  0  0  0  0  0  0  0  0  0  0
   11.6410   -9.1654    0.0000 O   0  0  0  0  0  0  0  0  0  0  0  0
    6.6068   -4.6414    0.0000 O   0  0  0  0  0  0  0  0  0  0  0  0
    9.4516   -4.6192    0.0000 O   0  0  0  0  0  0  0  0  0  0  0  0
   10.8933   -5.4218    0.0000 O   0  0  0  0  0  0  0  0  0  0  0  0
   10.9191   -7.0716    0.0000 O   0  0  0  0  0  0  0  0  0  0  0  0
    9.5032   -7.9188    0.0000 C   0  0  0  0  0  0  0  0  0  0  0  0
    9.4903   -7.0939    0.0000 C   0  0  2  0  0  0  0  0  0  0  0  0
   10.1982   -6.6703    0.0000 C   0  0  2  0  0  0  0  0  0  0  0  0
   10.1853   -5.8454    0.0000 C   0  0  1  0  0  0  0  0  0  0  0  0
    9.4645   -5.4441    0.0000 C   0  0  2  0  0  0  0  0  0  0  0  0
    8.7566   -5.8677    0.0000 C   0  0  1  0  0  0  0  0  0  0  0  0
    8.7695   -6.6926    0.0000 O   0  0  0  0  0  0  0  0  0  0  0  0
    8.0357   -5.4664    0.0000 O   0  0  0  0  0  0  0  0  0  0  0  0
 36 38  1  1  0  0  0
 35 28  1  6  0  0  0
 34 29  1  1  0  0  0
 33 30  1  6  0  0  0
 32 31  1  1  0  0  0
 31 17  1  0  0  0  0
 37 32  1  0  0  0  0
 33 32  1  0  0  0  0
 34 33  1  0  0  0  0
 35 34  1  0  0  0  0
 36 35  1  0  0  0  0
  1  2  1  0  0  0  0
  2  3  2  0  0  0  0
  3  4  1  0  0  0  0
  4  5  2  0  0  0  0
  5  6  1  0  0  0  0
  6  7  1  0  0  0  0
  7  8  1  0  0  0  0
  8  9  2  0  0  0  0
  9 10  1  0  0  0  0
 10 11  2  0  0  0  0
 11 12  1  0  0  0  0
  7 12  2  0  0  0  0
 12 13  1  0  0  0  0
 13 14  1  0  0  0  0
  5 14  1  0  0  0  0
  1 14  2  0  0  0  0
 13 15  2  0  0  0  0
  6 16  2  0  0  0  0
 37 36  1  0  0  0  0
 18 19  1  0  0  0  0
 19 20  1  0  0  0  0
 20 21  1  0  0  0  0
 21 22  1  0  0  0  0
 22 23  1  0  0  0  0
 18 23  1  0  0  0  0
 22 24  1  6  0  0  0
 21 25  1  1  0  0  0
 20 26  1  6  0  0  0
 19 17  1  1  0  0  0
  2 38  1  0  0  0  0
  1 27  1  0  0  0  0
M  END
>  <cdx:fragmentId>
55

$$$$
