9210.cdx
  Mrv1902 05222410262D          

 54 59  0  0  0  0            999 V2000
    6.0405   -5.5138    0.0000 C   0  0  1  0  0  0  0  0  0  0  0  0
    5.3224   -5.1078    0.0000 C   0  0  0  0  0  0  0  0  0  0  0  0
    5.3149   -4.2828    0.0000 C   0  0  0  0  0  0  0  0  0  0  0  0
    6.0256   -3.8639    0.0000 C   0  0  0  0  0  0  0  0  0  0  0  0
    6.7438   -4.2699    0.0000 C   0  0  0  0  0  0  0  0  0  0  0  0
    6.7512   -5.0949    0.0000 O   0  0  0  0  0  0  0  0  0  0  0  0
    6.0480   -6.3388    0.0000 O   0  0  0  0  0  0  0  0  0  0  0  0
    6.7736   -7.5698    0.0000 O   0  0  0  0  0  0  0  0  0  0  0  0
    6.7662   -6.7448    0.0000 C   0  0  2  0  0  0  0  0  0  0  0  0
    7.4769   -6.3259    0.0000 C   0  0  1  0  0  0  0  0  0  0  0  0
    8.1951   -6.7319    0.0000 C   0  0  2  0  0  0  0  0  0  0  0  0
    8.2025   -7.5568    0.0000 C   0  0  1  0  0  0  0  0  0  0  0  0
    7.4918   -7.9758    0.0000 C   0  0  1  0  0  0  0  0  0  0  0  0
    7.4993   -8.8008    0.0000 C   0  0  0  0  0  0  0  0  0  0  0  0
    8.2174   -9.2068    0.0000 O   0  0  0  0  0  0  0  0  0  0  0  0
    8.9207   -7.9629    0.0000 O   0  0  0  0  0  0  0  0  0  0  0  0
    8.9058   -6.3129    0.0000 O   0  0  0  0  0  0  0  0  0  0  0  0
    7.4694   -5.5009    0.0000 O   0  0  0  0  0  0  0  0  0  0  0  0
    7.4433   -3.0325    0.0000 C   0  0  0  0  0  0  0  0  0  0  0  0
    6.7289   -2.6200    0.0000 O   0  0  0  0  0  0  0  0  0  0  0  0
    5.3000   -2.6329    0.0000 O   0  0  0  0  0  0  0  0  0  0  0  0
    6.0181   -3.0389    0.0000 C   0  0  0  0  0  0  0  0  0  0  0  0
    4.5280   -4.0350    0.0000 C   0  0  0  0  0  0  0  0  0  0  0  0
    4.0491   -4.7068    0.0000 C   0  0  0  0  0  0  0  0  0  0  0  0
    4.5280   -5.3698    0.0000 C   0  0  2  0  0  0  0  0  0  0  0  0
    3.2241   -4.7094    0.0000 O   0  0  0  0  0  0  0  0  0  0  0  0
    4.2737   -6.1547    0.0000 C   0  0  0  0  0  0  0  0  0  0  0  0
    8.2249  -10.0317    0.0000 C   0  0  2  0  0  0  0  0  0  0  0  0
    7.5086  -10.4411    0.0000 O   0  0  0  0  0  0  0  0  0  0  0  0
    7.5086  -11.2661    0.0000 C   0  0  2  0  0  0  0  0  0  0  0  0
    8.2249  -11.6817    0.0000 C   0  0  0  0  0  0  0  0  0  0  0  0
    8.9412  -11.2661    0.0000 C   0  0  0  0  0  0  0  0  0  0  0  0
    8.9412  -10.4411    0.0000 C   0  0  0  0  0  0  0  0  0  0  0  0
    8.2249  -12.5099    0.0000 C   0  0  1  0  0  0  0  0  0  0  0  0
    8.9412  -12.9224    0.0000 O   0  0  0  0  0  0  0  0  0  0  0  0
    9.6575  -12.5099    0.0000 C   0  0  0  0  0  0  0  0  0  0  0  0
    9.6575  -11.6817    0.0000 C   0  0  0  0  0  0  0  0  0  0  0  0
    6.7937  -11.6778    0.0000 C   0  0  0  0  0  0  0  0  0  0  0  0
    7.5107  -12.9228    0.0000 O   0  0  0  0  0  0  0  0  0  0  0  0
    7.5111  -13.7478    0.0000 C   0  0  2  0  0  0  0  0  0  0  0  0
    6.7965  -14.1601    0.0000 O   0  0  0  0  0  0  0  0  0  0  0  0
    6.7965  -14.9851    0.0000 C   0  0  1  0  0  0  0  0  0  0  0  0
    7.5111  -15.3978    0.0000 C   0  0  2  0  0  0  0  0  0  0  0  0
    8.2257  -14.9851    0.0000 C   0  0  1  0  0  0  0  0  0  0  0  0
    8.2257  -14.1601    0.0000 C   0  0  1  0  0  0  0  0  0  0  0  0
    6.0820  -15.3975    0.0000 C   0  0  0  0  0  0  0  0  0  0  0  0
    8.9402  -15.3975    0.0000 O   0  0  0  0  0  0  0  0  0  0  0  0
    8.9401  -13.7475    0.0000 O   0  0  0  0  0  0  0  0  0  0  0  0
    7.5111  -16.2228    0.0000 O   0  0  0  0  0  0  0  0  0  0  0  0
    6.0820  -16.2225    0.0000 O   0  0  0  0  0  0  0  0  0  0  0  0
   10.3724  -11.2700    0.0000 C   0  0  0  0  0  0  0  0  0  0  0  0
   11.0864  -11.6833    0.0000 O   0  0  0  0  0  0  0  0  0  0  0  0
   10.3733  -10.4450    0.0000 O   0  0  0  0  0  0  0  0  0  0  0  0
   11.0864  -12.5083    0.0000 C   0  0  0  0  0  0  0  0  0  0  0  0
 20 19  1  0  0  0  0
 22 20  1  0  0  0  0
 22 21  2  0  0  0  0
  1  2  1  0  0  0  0
  2  3  1  0  0  0  0
  3  4  1  0  0  0  0
  4  5  2  0  0  0  0
  5  6  1  0  0  0  0
  1  6  1  0  0  0  0
  4 22  1  0  0  0  0
  8  9  1  0  0  0  0
  9 10  1  0  0  0  0
 10 11  1  0  0  0  0
 11 12  1  0  0  0  0
 12 13  1  0  0  0  0
  8 13  1  0  0  0  0
 14 15  1  0  0  0  0
 13 14  1  1  0  0  0
 12 16  1  6  0  0  0
 11 17  1  1  0  0  0
 10 18  1  6  0  0  0
  9  7  1  1  0  0  0
  1  7  1  1  0  0  0
  3 23  1  0  0  0  0
 23 24  1  0  0  0  0
 24 25  1  0  0  0  0
 25  2  1  0  0  0  0
 24 26  1  0  0  0  0
 25 27  1  1  0  0  0
 28 15  1  1  0  0  0
 28 29  1  0  0  0  0
 29 30  1  0  0  0  0
 30 31  1  0  0  0  0
 31 32  1  0  0  0  0
 32 33  1  0  0  0  0
 33 28  1  0  0  0  0
 31 34  1  0  0  0  0
 34 35  1  0  0  0  0
 35 36  1  0  0  0  0
 36 37  2  0  0  0  0
 37 32  1  0  0  0  0
 30 38  1  6  0  0  0
 34 39  1  1  0  0  0
 40 39  1  1  0  0  0
 40 41  1  0  0  0  0
 41 42  1  0  0  0  0
 42 43  1  0  0  0  0
 43 44  1  0  0  0  0
 44 45  1  0  0  0  0
 45 40  1  0  0  0  0
 42 46  1  1  0  0  0
 44 47  1  1  0  0  0
 45 48  1  6  0  0  0
 43 49  1  6  0  0  0
 46 50  1  0  0  0  0
 37 51  1  0  0  0  0
 51 52  1  0  0  0  0
 51 53  2  0  0  0  0
 52 54  1  0  0  0  0
M  END
>  <cdx:fragmentId>
5350

$$$$
