92106.cdx
  Mrv1902 05222410242D          

 15 15  0  0  0  0            999 V2000
    6.1443  -10.2850    0.0000 C   0  0  0  0  0  0  0  0  0  0  0  0
    6.1443  -11.1100    0.0000 C   0  0  0  0  0  0  0  0  0  0  0  0
    6.8588  -11.5225    0.0000 C   0  0  0  0  0  0  0  0  0  0  0  0
    7.5732  -11.1100    0.0000 C   0  0  0  0  0  0  0  0  0  0  0  0
    7.5732  -10.2850    0.0000 C   0  0  0  0  0  0  0  0  0  0  0  0
    6.8588   -9.8725    0.0000 C   0  0  0  0  0  0  0  0  0  0  0  0
    6.8588  -12.3475    0.0000 O   0  0  0  0  0  0  0  0  0  0  0  0
    8.2877   -9.8725    0.0000 C   0  0  0  0  0  0  0  0  0  0  0  0
    5.3474  -10.4985    0.0000 C   0  0  0  0  0  0  0  0  0  0  0  0
    5.7318   -9.5705    0.0000 C   0  0  0  0  0  0  0  0  0  0  0  0
    6.8588   -9.0475    0.0000 C   0  0  0  0  0  0  0  0  0  0  0  0
    7.5732   -8.6350    0.0000 C   0  0  0  0  0  0  0  0  0  0  0  0
    7.5732   -7.8100    0.0000 C   0  0  0  0  0  0  0  0  0  0  0  0
    8.2877   -7.3975    0.0000 O   0  0  0  0  0  0  0  0  0  0  0  0
    6.8588   -7.3975    0.0000 C   0  0  0  0  0  0  0  0  0  0  0  0
  1  2  1  0  0  0  0
  2  3  1  0  0  0  0
  3  4  1  0  0  0  0
  4  5  2  0  0  0  0
  5  6  1  0  0  0  0
  6  1  1  0  0  0  0
  3  7  2  0  0  0  0
  5  8  1  0  0  0  0
  1  9  1  0  0  0  0
  1 10  1  0  0  0  0
  6 11  2  0  0  0  0
 11 12  1  0  0  0  0
 12 13  1  0  0  0  0
 13 14  1  0  0  0  0
 13 15  1  0  0  0  0
M  END
>  <cdx:fragmentId>
5

$$$$
