92119.cdx
  Mrv1902 05222410212D          

 36 40  0  0  0  0            999 V2000
    3.4906   -9.3637    0.0000 C   0  0  0  0  0  0  0  0  0  0  0  0
    3.4906  -10.1888    0.0000 C   0  0  1  0  0  0  0  0  0  0  0  0
    4.2050  -10.6013    0.0000 C   0  0  2  0  0  0  0  0  0  0  0  0
    4.9195  -10.1888    0.0000 C   0  0  1  0  0  0  0  0  0  0  0  0
    4.9195   -9.3637    0.0000 C   0  0  2  0  0  0  0  0  0  0  0  0
    4.2050   -8.9513    0.0000 C   0  0  0  0  0  0  0  0  0  0  0  0
    5.6340  -10.6013    0.0000 C   0  0  0  0  0  0  0  0  0  0  0  0
    6.3484  -10.1888    0.0000 C   0  0  0  0  0  0  0  0  0  0  0  0
    6.3484   -9.3637    0.0000 C   0  0  2  0  0  0  0  0  0  0  0  0
    5.6340   -8.9513    0.0000 C   0  0  2  0  0  0  0  0  0  0  0  0
    7.0629   -8.9513    0.0000 C   0  0  1  0  0  0  0  0  0  0  0  0
    7.0629   -8.1263    0.0000 C   0  0  0  0  0  0  0  0  0  0  0  0
    6.3484   -7.7138    0.0000 C   0  0  0  0  0  0  0  0  0  0  0  0
    5.6340   -8.1263    0.0000 C   0  0  0  0  0  0  0  0  0  0  0  0
    7.7774   -9.3637    0.0000 C   0  0  0  0  0  0  0  0  0  0  0  0
    8.4919   -8.9513    0.0000 C   0  0  0  0  0  0  0  0  0  0  0  0
    8.4919   -8.1263    0.0000 C   0  0  2  0  0  0  0  0  0  0  0  0
    7.7774   -7.7138    0.0000 C   0  0  0  0  0  0  0  0  0  0  0  0
    9.2063   -7.7138    0.0000 C   0  0  0  0  0  0  0  0  0  0  0  0
    9.2063   -6.8888    0.0000 C   0  0  0  0  0  0  0  0  0  0  0  0
    8.4919   -6.4763    0.0000 C   0  0  1  0  0  0  0  0  0  0  0  0
    7.7774   -6.8888    0.0000 C   0  0  0  0  0  0  0  0  0  0  0  0
    4.6175  -11.3157    0.0000 C   0  0  0  0  0  0  0  0  0  0  0  0
    4.2050  -12.0302    0.0000 O   0  0  0  0  0  0  0  0  0  0  0  0
    7.0629   -6.4763    0.0000 C   0  0  0  0  0  0  0  0  0  0  0  0
    8.4919   -5.6512    0.0000 C   0  0  0  0  0  0  0  0  0  0  0  0
    9.2063   -8.5388    0.0000 C   0  0  0  0  0  0  0  0  0  0  0  0
    6.3484   -8.5388    0.0000 C   0  0  0  0  0  0  0  0  0  0  0  0
    4.9195   -8.5388    0.0000 C   0  0  0  0  0  0  0  0  0  0  0  0
    3.7925  -11.3157    0.0000 C   0  0  0  0  0  0  0  0  0  0  0  0
    2.7761  -10.6013    0.0000 O   0  0  0  0  0  0  0  0  0  0  0  0
    7.0629   -9.7763    0.0000 C   0  0  0  0  0  0  0  0  0  0  0  0
    9.9208   -8.1263    0.0000 O   0  0  0  0  0  0  0  0  0  0  0  0
    9.2063   -9.3637    0.0000 O   0  0  0  0  0  0  0  0  0  0  0  0
    4.9195  -11.0137    0.0000 H   0  0  0  0  0  0  0  0  0  0  0  0
    5.6340   -9.7763    0.0000 H   0  0  0  0  0  0  0  0  0  0  0  0
  1  2  1  0  0  0  0
  2  3  1  0  0  0  0
  3  4  1  0  0  0  0
  4  5  1  0  0  0  0
  5  6  1  0  0  0  0
  6  1  1  0  0  0  0
  4  7  1  0  0  0  0
  7  8  1  0  0  0  0
  8  9  1  0  0  0  0
  9 10  1  0  0  0  0
 10  5  1  0  0  0  0
  9 11  1  0  0  0  0
 11 12  1  0  0  0  0
 12 13  2  0  0  0  0
 13 14  1  0  0  0  0
 14 10  1  0  0  0  0
 11 15  1  0  0  0  0
 15 16  1  0  0  0  0
 16 17  1  0  0  0  0
 17 18  1  0  0  0  0
 18 12  1  0  0  0  0
 17 19  1  0  0  0  0
 19 20  1  0  0  0  0
 20 21  1  0  0  0  0
 21 22  1  0  0  0  0
 22 18  2  0  0  0  0
  3 23  1  6  0  0  0
 23 24  1  0  0  0  0
 22 25  1  0  0  0  0
 21 26  1  1  0  0  0
 17 27  1  1  0  0  0
  9 28  1  1  0  0  0
  5 29  1  1  0  0  0
  3 30  1  1  0  0  0
  2 31  1  1  0  0  0
 11 32  1  6  0  0  0
 27 33  1  0  0  0  0
 27 34  2  0  0  0  0
  4 35  1  6  0  0  0
 10 36  1  6  0  0  0
M  END
>  <cdx:fragmentId>
5

$$$$
