9211.cdx
  Mrv1902 05222410272D          

 10 11  0  0  0  0            999 V2000
    4.7661   -2.4885    0.0000 C   0  0  0  0  0  0  0  0  0  0  0  0
    4.7661   -3.3135    0.0000 C   0  0  0  0  0  0  0  0  0  0  0  0
    4.0516   -3.7260    0.0000 C   0  0  0  0  0  0  0  0  0  0  0  0
    3.3371   -3.3135    0.0000 C   0  0  0  0  0  0  0  0  0  0  0  0
    2.6227   -3.7260    0.0000 C   0  0  0  0  0  0  0  0  0  0  0  0
    1.9082   -3.3135    0.0000 C   0  0  0  0  0  0  0  0  0  0  0  0
    1.9082   -2.4885    0.0000 C   0  0  0  0  0  0  0  0  0  0  0  0
    2.6227   -2.0760    0.0000 C   0  0  0  0  0  0  0  0  0  0  0  0
    3.3371   -2.4885    0.0000 C   0  0  0  0  0  0  0  0  0  0  0  0
    4.0516   -2.0760    0.0000 O   0  0  0  0  0  0  0  0  0  0  0  0
  1  2  1  0  0  0  0
  2  3  2  0  0  0  0
  3  4  1  0  0  0  0
  4  5  1  0  0  0  0
  5  6  2  0  0  0  0
  6  7  1  0  0  0  0
  7  8  2  0  0  0  0
  8  9  1  0  0  0  0
  4  9  2  0  0  0  0
  9 10  1  0  0  0  0
  1 10  1  0  0  0  0
M  END
>  <cdx:groupId>
33

>  <cdx:fragmentId>
5

$$$$
