92111.cdx
  Mrv1902 05222410242D          

 15 16  0  0  0  0            999 V2000
    5.5668   -6.6550    0.0000 C   0  0  0  0  0  0  0  0  0  0  0  0
    5.5668   -7.4800    0.0000 C   0  0  0  0  0  0  0  0  0  0  0  0
    6.2813   -7.8925    0.0000 C   0  0  0  0  0  0  0  0  0  0  0  0
    6.9957   -7.4800    0.0000 C   0  0  0  0  0  0  0  0  0  0  0  0
    6.9957   -6.6550    0.0000 C   0  0  0  0  0  0  0  0  0  0  0  0
    6.2813   -6.2425    0.0000 C   0  0  0  0  0  0  0  0  0  0  0  0
    7.7804   -7.7349    0.0000 C   0  0  0  0  0  0  0  0  0  0  0  0
    8.2653   -7.0675    0.0000 O   0  0  0  0  0  0  0  0  0  0  0  0
    7.7804   -6.4001    0.0000 C   0  0  2  0  0  0  0  0  0  0  0  0
    8.0353   -8.5196    0.0000 O   0  0  0  0  0  0  0  0  0  0  0  0
    9.9042   -4.4878    0.0000 C   0  0  0  0  0  0  0  0  0  0  0  0
    9.0972   -4.6593    0.0000 C   0  0  0  0  0  0  0  0  0  0  0  0
    8.8423   -5.4439    0.0000 C   0  0  0  0  0  0  0  0  0  0  0  0
    8.0353   -5.6154    0.0000 C   0  0  0  0  0  0  0  0  0  0  0  0
    7.1970   -5.8167    0.0000 H   0  0  0  0  0  0  0  0  0  0  0  0
  1  2  1  0  0  0  0
  2  3  2  0  0  0  0
  3  4  1  0  0  0  0
  4  5  2  0  0  0  0
  5  6  1  0  0  0  0
  6  1  1  0  0  0  0
  4  7  1  0  0  0  0
  7  8  1  0  0  0  0
  8  9  1  0  0  0  0
  9  5  1  0  0  0  0
  7 10  2  0  0  0  0
 12 11  1  0  0  0  0
  9 14  1  0  0  0  0
 13 12  1  0  0  0  0
 14 13  1  0  0  0  0
  9 15  1  6  0  0  0
M  END
>  <cdx:fragmentId>
5

$$$$
