92114.cdx
  Mrv1902 05222410252D          

  8  7  0  0  0  0            999 V2000
    8.2994   -6.7237    0.0000 O   0  0  0  0  0  0  0  0  0  0  0  0
    7.5849   -7.1362    0.0000 C   0  0  0  0  0  0  0  0  0  0  0  0
    6.8704   -6.7237    0.0000 C   0  0  0  0  0  0  0  0  0  0  0  0
    6.1559   -7.1362    0.0000 C   0  0  0  0  0  0  0  0  0  0  0  0
    5.4415   -6.7237    0.0000 C   0  0  0  0  0  0  0  0  0  0  0  0
    4.7270   -7.1362    0.0000 C   0  0  0  0  0  0  0  0  0  0  0  0
    4.0125   -6.7237    0.0000 C   0  0  0  0  0  0  0  0  0  0  0  0
    6.1559   -7.9612    0.0000 S   0  0  0  0  0  0  0  0  0  0  0  0
  2  1  1  0  0  0  0
  3  2  1  0  0  0  0
  4  3  1  0  0  0  0
  5  4  1  0  0  0  0
  6  5  1  0  0  0  0
  7  6  1  0  0  0  0
  4  8  1  0  0  0  0
M  END
>  <cdx:fragmentId>
3

$$$$
