92112.cdx
  Mrv1902 05222410242D          

 27 29  0  0  0  0            999 V2000
    4.2606   -5.8438    0.0000 C   0  0  0  0  0  0  0  0  0  0  0  0
    4.2606   -6.6688    0.0000 C   0  0  0  0  0  0  0  0  0  0  0  0
    4.9750   -7.0812    0.0000 C   0  0  0  0  0  0  0  0  0  0  0  0
    5.6895   -6.6688    0.0000 C   0  0  0  0  0  0  0  0  0  0  0  0
    5.6895   -5.8438    0.0000 C   0  0  0  0  0  0  0  0  0  0  0  0
    4.9750   -5.4313    0.0000 C   0  0  0  0  0  0  0  0  0  0  0  0
    6.4741   -6.9237    0.0000 N   0  0  0  0  0  0  0  0  0  0  0  0
    6.9590   -6.2563    0.0000 C   0  0  0  0  0  0  0  0  0  0  0  0
    6.4741   -5.5888    0.0000 C   0  0  1  0  0  0  0  0  0  0  0  0
    7.7840   -6.2563    0.0000 O   0  0  0  0  0  0  0  0  0  0  0  0
    6.7291   -4.8042    0.0000 C   0  0  0  0  0  0  0  0  0  0  0  0
    7.5360   -4.6327    0.0000 C   0  0  0  0  0  0  0  0  0  0  0  0
    8.0881   -5.2458    0.0000 O   0  0  0  0  0  0  0  0  0  0  0  0
    7.7910   -3.8480    0.0000 O   0  0  0  0  0  0  0  0  0  0  0  0
    5.9549   -4.9477    0.0000 O   0  0  0  0  0  0  0  0  0  0  0  0
    6.7291   -7.7083    0.0000 C   0  0  2  0  0  0  0  0  0  0  0  0
    6.1770   -8.3214    0.0000 O   0  0  0  0  0  0  0  0  0  0  0  0
    6.4320   -9.1060    0.0000 C   0  0  1  0  0  0  0  0  0  0  0  0
    7.2389   -9.2776    0.0000 C   0  0  2  0  0  0  0  0  0  0  0  0
    7.7910   -8.6645    0.0000 C   0  0  1  0  0  0  0  0  0  0  0  0
    7.5360   -7.8798    0.0000 C   0  0  1  0  0  0  0  0  0  0  0  0
    5.8799   -9.7191    0.0000 C   0  0  0  0  0  0  0  0  0  0  0  0
    8.5979   -8.8360    0.0000 O   0  0  0  0  0  0  0  0  0  0  0  0
    8.0881   -7.2667    0.0000 O   0  0  0  0  0  0  0  0  0  0  0  0
    7.4939  -10.0622    0.0000 O   0  0  0  0  0  0  0  0  0  0  0  0
    6.1349  -10.5037    0.0000 O   0  0  0  0  0  0  0  0  0  0  0  0
    5.9221   -7.5368    0.0000 H   0  0  0  0  0  0  0  0  0  0  0  0
  1  2  1  0  0  0  0
  2  3  2  0  0  0  0
  3  4  1  0  0  0  0
  4  5  2  0  0  0  0
  5  6  1  0  0  0  0
  6  1  2  0  0  0  0
  4  7  1  0  0  0  0
  7  8  1  0  0  0  0
  8  9  1  0  0  0  0
  9  5  1  0  0  0  0
  8 10  2  0  0  0  0
  9 11  1  0  0  0  0
 11 12  1  0  0  0  0
 12 13  1  0  0  0  0
 12 14  2  0  0  0  0
  9 15  1  1  0  0  0
  7 16  1  0  0  0  0
 16 17  1  0  0  0  0
 17 18  1  0  0  0  0
 18 19  1  0  0  0  0
 19 20  1  0  0  0  0
 20 21  1  0  0  0  0
 21 16  1  0  0  0  0
 18 22  1  1  0  0  0
 20 23  1  1  0  0  0
 21 24  1  6  0  0  0
 19 25  1  6  0  0  0
 22 26  1  0  0  0  0
 16 27  1  6  0  0  0
M  END
>  <cdx:fragmentId>
5

$$$$
