92115.cdx
  Mrv1902 05222410242D          

 14 13  0  0  0  0            999 V2000
    2.0188   -7.1362    0.0000 C   0  0  0  0  0  0  0  0  0  0  0  0
    2.7332   -6.7237    0.0000 C   0  0  0  0  0  0  0  0  0  0  0  0
    3.4477   -7.1362    0.0000 C   0  0  0  0  0  0  0  0  0  0  0  0
    4.1622   -6.7237    0.0000 C   0  0  0  0  0  0  0  0  0  0  0  0
    4.8767   -7.1362    0.0000 C   0  0  0  0  0  0  0  0  0  0  0  0
    5.5911   -6.7237    0.0000 C   0  0  0  0  0  0  0  0  0  0  0  0
    6.3056   -7.1362    0.0000 C   0  0  0  0  0  0  0  0  0  0  0  0
    7.0201   -6.7237    0.0000 C   0  0  0  0  0  0  0  0  0  0  0  0
    7.7345   -7.1362    0.0000 C   0  0  0  0  0  0  0  0  0  0  0  0
    8.4490   -6.7237    0.0000 C   0  0  0  0  0  0  0  0  0  0  0  0
    9.1635   -7.1362    0.0000 C   0  0  0  0  0  0  0  0  0  0  0  0
    9.8780   -6.7237    0.0000 C   0  0  0  0  0  0  0  0  0  0  0  0
    9.8780   -5.8988    0.0000 C   0  0  0  0  0  0  0  0  0  0  0  0
   10.5924   -5.4863    0.0000 C   0  0  0  0  0  0  0  0  0  0  0  0
  1  2  1  0  0  0  0
  2  3  1  0  0  0  0
  3  4  1  0  0  0  0
  4  5  1  0  0  0  0
  5  6  1  0  0  0  0
  6  7  1  0  0  0  0
  7  8  1  0  0  0  0
  8  9  1  0  0  0  0
  9 10  1  0  0  0  0
 10 11  1  0  0  0  0
 11 12  2  0  0  0  0
 12 13  1  0  0  0  0
 13 14  1  0  0  0  0
M  END
>  <cdx:fragmentId>
3

$$$$
