92118.cdx
  Mrv1902 05222410212D          

 37 41  0  0  0  0            999 V2000
    2.8993   -9.6387    0.0000 C   0  0  0  0  0  0  0  0  0  0  0  0
    2.8993  -10.4637    0.0000 C   0  0  1  0  0  0  0  0  0  0  0  0
    3.6138  -10.8762    0.0000 C   0  0  0  0  0  0  0  0  0  0  0  0
    4.3282  -10.4637    0.0000 C   0  0  1  0  0  0  0  0  0  0  0  0
    4.3282   -9.6387    0.0000 C   0  0  2  0  0  0  0  0  0  0  0  0
    3.6138   -9.2263    0.0000 C   0  0  0  0  0  0  0  0  0  0  0  0
    5.0427  -10.8762    0.0000 C   0  0  0  0  0  0  0  0  0  0  0  0
    5.7572  -10.4637    0.0000 C   0  0  0  0  0  0  0  0  0  0  0  0
    5.7572   -9.6387    0.0000 C   0  0  2  0  0  0  0  0  0  0  0  0
    5.0427   -9.2263    0.0000 C   0  0  2  0  0  0  0  0  0  0  0  0
    6.4717   -9.2263    0.0000 C   0  0  1  0  0  0  0  0  0  0  0  0
    6.4717   -8.4013    0.0000 C   0  0  0  0  0  0  0  0  0  0  0  0
    5.7572   -7.9888    0.0000 C   0  0  0  0  0  0  0  0  0  0  0  0
    5.0427   -8.4013    0.0000 C   0  0  0  0  0  0  0  0  0  0  0  0
    7.1861   -9.6387    0.0000 C   0  0  0  0  0  0  0  0  0  0  0  0
    7.9006   -9.2263    0.0000 C   0  0  0  0  0  0  0  0  0  0  0  0
    7.9006   -8.4013    0.0000 C   0  0  2  0  0  0  0  0  0  0  0  0
    7.1861   -7.9888    0.0000 C   0  0  1  0  0  0  0  0  0  0  0  0
    8.6151   -7.9888    0.0000 C   0  0  2  0  0  0  0  0  0  0  0  0
    8.6151   -7.1638    0.0000 C   0  0  0  0  0  0  0  0  0  0  0  0
    7.9006   -6.7512    0.0000 C   0  0  2  0  0  0  0  0  0  0  0  0
    7.1861   -7.1638    0.0000 C   0  0  2  0  0  0  0  0  0  0  0  0
    3.2013  -11.5907    0.0000 C   0  0  0  0  0  0  0  0  0  0  0  0
    4.0263  -11.5907    0.0000 C   0  0  0  0  0  0  0  0  0  0  0  0
    8.6151   -8.8138    0.0000 C   0  0  0  0  0  0  0  0  0  0  0  0
    9.3295   -8.4013    0.0000 O   0  0  0  0  0  0  0  0  0  0  0  0
    8.6151   -9.6387    0.0000 O   0  0  0  0  0  0  0  0  0  0  0  0
    2.1848  -10.8762    0.0000 O   0  0  0  0  0  0  0  0  0  0  0  0
    4.3282   -8.8138    0.0000 C   0  0  0  0  0  0  0  0  0  0  0  0
    5.7572   -8.8138    0.0000 C   0  0  0  0  0  0  0  0  0  0  0  0
    6.4717   -7.5762    0.0000 H   0  0  0  0  0  0  0  0  0  0  0  0
    6.4717   -6.7512    0.0000 C   0  0  0  0  0  0  0  0  0  0  0  0
    4.3282  -11.2888    0.0000 H   0  0  0  0  0  0  0  0  0  0  0  0
    5.0427  -10.0512    0.0000 H   0  0  0  0  0  0  0  0  0  0  0  0
    6.4717  -10.0512    0.0000 C   0  0  0  0  0  0  0  0  0  0  0  0
    7.9006   -5.9262    0.0000 C   0  0  0  0  0  0  0  0  0  0  0  0
    9.4401   -7.9888    0.0000 O   0  0  0  0  0  0  0  0  0  0  0  0
  1  2  1  0  0  0  0
  2  3  1  0  0  0  0
  3  4  1  0  0  0  0
  4  5  1  0  0  0  0
  5  6  1  0  0  0  0
  6  1  1  0  0  0  0
  4  7  1  0  0  0  0
  7  8  1  0  0  0  0
  8  9  1  0  0  0  0
  9 10  1  0  0  0  0
 10  5  1  0  0  0  0
  9 11  1  0  0  0  0
 11 12  1  0  0  0  0
 12 13  2  0  0  0  0
 13 14  1  0  0  0  0
 14 10  1  0  0  0  0
 11 15  1  0  0  0  0
 15 16  1  0  0  0  0
 16 17  1  0  0  0  0
 17 18  1  0  0  0  0
 18 12  1  0  0  0  0
 17 19  1  0  0  0  0
 19 20  1  0  0  0  0
 20 21  1  0  0  0  0
 21 22  1  0  0  0  0
 22 18  1  0  0  0  0
  3 23  1  0  0  0  0
  3 24  1  0  0  0  0
 17 25  1  1  0  0  0
 25 26  2  0  0  0  0
 25 27  1  0  0  0  0
  2 28  1  1  0  0  0
  5 29  1  1  0  0  0
  9 30  1  1  0  0  0
 18 31  1  1  0  0  0
 22 32  1  1  0  0  0
  4 33  1  6  0  0  0
 10 34  1  6  0  0  0
 11 35  1  6  0  0  0
 21 36  1  6  0  0  0
 19 37  1  6  0  0  0
M  END
>  <cdx:fragmentId>
5

$$$$
