92121.cdx
  Mrv1902 05222410222D          

 22 24  0  0  0  0            999 V2000
    5.5668   -6.7650    0.0000 C   0  0  0  0  0  0  0  0  0  0  0  0
    5.5668   -7.5900    0.0000 C   0  0  1  0  0  0  0  0  0  0  0  0
    6.2813   -8.0025    0.0000 C   0  0  0  0  0  0  0  0  0  0  0  0
    6.9957   -7.5900    0.0000 C   0  0  1  0  0  0  0  0  0  0  0  0
    6.9957   -6.7650    0.0000 C   0  0  2  0  0  0  0  0  0  0  0  0
    6.2813   -6.3525    0.0000 C   0  0  0  0  0  0  0  0  0  0  0  0
    7.7102   -8.0025    0.0000 C   0  0  0  0  0  0  0  0  0  0  0  0
    8.4247   -7.5900    0.0000 C   0  0  0  0  0  0  0  0  0  0  0  0
    8.4247   -6.7650    0.0000 C   0  0  0  0  0  0  0  0  0  0  0  0
    7.7102   -6.3525    0.0000 C   0  0  0  0  0  0  0  0  0  0  0  0
    9.8536   -7.5900    0.0000 C   0  0  0  0  0  0  0  0  0  0  0  0
    9.8536   -6.7650    0.0000 C   0  0  0  0  0  0  0  0  0  0  0  0
    9.1392   -6.3525    0.0000 O   0  0  0  0  0  0  0  0  0  0  0  0
   10.4370   -8.1734    0.0000 C   0  0  0  0  0  0  0  0  0  0  0  0
   10.5681   -6.3525    0.0000 O   0  0  0  0  0  0  0  0  0  0  0  0
    6.2813   -8.8275    0.0000 C   0  0  0  0  0  0  0  0  0  0  0  0
    4.8523   -8.0025    0.0000 O   0  0  0  0  0  0  0  0  0  0  0  0
    4.1379   -7.5900    0.0000 C   0  0  0  0  0  0  0  0  0  0  0  0
    3.4234   -8.0025    0.0000 C   0  0  0  0  0  0  0  0  0  0  0  0
    4.1379   -6.7650    0.0000 O   0  0  0  0  0  0  0  0  0  0  0  0
    6.9957   -5.9400    0.0000 C   0  0  0  0  0  0  0  0  0  0  0  0
    6.9957   -8.4150    0.0000 H   0  0  0  0  0  0  0  0  0  0  0  0
  1  2  1  0  0  0  0
  2  3  1  0  0  0  0
  3  4  1  0  0  0  0
  4  5  1  0  0  0  0
  5  6  1  0  0  0  0
  6  1  1  0  0  0  0
  4  7  1  0  0  0  0
  7  8  1  0  0  0  0
  8  9  1  0  0  0  0
  9 10  2  0  0  0  0
 10  5  1  0  0  0  0
 11 12  1  0  0  0  0
 12 13  1  0  0  0  0
 13  9  1  0  0  0  0
  8 11  2  0  0  0  0
 11 14  1  0  0  0  0
 12 15  2  0  0  0  0
  3 16  2  0  0  0  0
  2 17  1  1  0  0  0
 17 18  1  0  0  0  0
 18 19  1  0  0  0  0
 18 20  2  0  0  0  0
  5 21  1  1  0  0  0
  4 22  1  6  0  0  0
M  END
>  <cdx:fragmentId>
5

$$$$
