92124.cdx
  Mrv1902 05222410212D          

 19 20  0  0  0  0            999 V2000
    4.5356   -8.8688    0.0000 C   0  0  0  0  0  0  0  0  0  0  0  0
    4.5356   -9.6937    0.0000 C   0  0  0  0  0  0  0  0  0  0  0  0
    5.2500  -10.1063    0.0000 C   0  0  0  0  0  0  0  0  0  0  0  0
    5.9645   -9.6937    0.0000 C   0  0  0  0  0  0  0  0  0  0  0  0
    5.9645   -8.8688    0.0000 C   0  0  0  0  0  0  0  0  0  0  0  0
    5.2500   -8.4563    0.0000 C   0  0  0  0  0  0  0  0  0  0  0  0
    3.8211  -10.1063    0.0000 O   0  0  0  0  0  0  0  0  0  0  0  0
    6.6790   -8.4562    0.0000 C   0  0  0  0  0  0  0  0  0  0  0  0
    7.3934   -8.8687    0.0000 C   0  0  0  0  0  0  0  0  0  0  0  0
    6.6790   -7.6312    0.0000 C   0  0  0  0  0  0  0  0  0  0  0  0
    5.9645   -7.2187    0.0000 C   0  0  0  0  0  0  0  0  0  0  0  0
    5.9645   -6.3937    0.0000 C   0  0  0  0  0  0  0  0  0  0  0  0
    5.2500   -5.9812    0.0000 C   0  0  0  0  0  0  0  0  0  0  0  0
    7.3934   -9.6937    0.0000 C   0  0  0  0  0  0  0  0  0  0  0  0
    8.1079  -10.1062    0.0000 C   0  0  0  0  0  0  0  0  0  0  0  0
    8.8224   -9.6937    0.0000 C   0  0  0  0  0  0  0  0  0  0  0  0
    8.8224   -8.8687    0.0000 C   0  0  0  0  0  0  0  0  0  0  0  0
    8.1079   -8.4563    0.0000 C   0  0  0  0  0  0  0  0  0  0  0  0
    9.5369  -10.1062    0.0000 O   0  0  0  0  0  0  0  0  0  0  0  0
  1  2  2  0  0  0  0
  2  3  1  0  0  0  0
  3  4  2  0  0  0  0
  4  5  1  0  0  0  0
  5  6  2  0  0  0  0
  6  1  1  0  0  0  0
  2  7  1  0  0  0  0
  5  8  1  0  0  0  0
  8  9  1  0  0  0  0
  8 10  1  0  0  0  0
 10 11  1  0  0  0  0
 11 12  1  0  0  0  0
 12 13  1  0  0  0  0
  9 14  2  0  0  0  0
 14 15  1  0  0  0  0
 15 16  2  0  0  0  0
 16 17  1  0  0  0  0
 17 18  2  0  0  0  0
 18  9  1  0  0  0  0
 16 19  1  0  0  0  0
M  END
>  <cdx:fragmentId>
5

$$$$
