92125.cdx
  Mrv1902 05222410212D          

  8  7  0  0  0  0            999 V2000
    7.3099   -6.7237    0.0000 C   0  0  0  0  0  0  0  0  0  0  0  0
    6.5954   -6.3113    0.0000 C   0  0  0  0  0  0  0  0  0  0  0  0
    5.8809   -6.7237    0.0000 C   0  0  0  0  0  0  0  0  0  0  0  0
    5.1665   -6.3113    0.0000 C   0  0  0  0  0  0  0  0  0  0  0  0
    4.4520   -6.7237    0.0000 S   0  0  0  0  0  0  0  0  0  0  0  0
    3.7375   -6.3113    0.0000 C   0  0  0  0  0  0  0  0  0  0  0  0
    4.4520   -7.5488    0.0000 O   0  0  0  0  0  0  0  0  0  0  0  0
    8.0244   -7.1362    0.0000 N   0  0  0  0  0  0  0  0  0  0  0  0
  2  1  1  0  0  0  0
  3  2  1  0  0  0  0
  4  3  1  0  0  0  0
  5  4  1  0  0  0  0
  6  5  1  0  0  0  0
  5  7  2  0  0  0  0
  1  8  3  0  0  0  0
M  END
>  <cdx:fragmentId>
3

$$$$
