92137.cdx
  Mrv1902 05222410222D          

 23 25  0  0  0  0            999 V2000
    9.9076   -5.2250    0.0000 O   0  0  0  0  0  0  0  0  0  0  0  0
    6.3352   -8.9375    0.0000 O   0  0  0  0  0  0  0  0  0  0  0  0
    4.1918   -5.2250    0.0000 C   0  0  0  0  0  0  0  0  0  0  0  0
    4.9063   -5.6375    0.0000 O   0  0  0  0  0  0  0  0  0  0  0  0
    2.7629   -6.8750    0.0000 C   0  0  0  0  0  0  0  0  0  0  0  0
    3.4773   -6.4625    0.0000 O   0  0  0  0  0  0  0  0  0  0  0  0
    4.9063   -8.9375    0.0000 O   0  0  0  0  0  0  0  0  0  0  0  0
    9.1931   -6.4625    0.0000 C   0  0  0  0  0  0  0  0  0  0  0  0
    9.1931   -5.6375    0.0000 C   0  0  0  0  0  0  0  0  0  0  0  0
    8.4786   -5.2250    0.0000 C   0  0  0  0  0  0  0  0  0  0  0  0
    7.7642   -5.6375    0.0000 C   0  0  0  0  0  0  0  0  0  0  0  0
    8.4786   -6.8750    0.0000 C   0  0  0  0  0  0  0  0  0  0  0  0
    7.7642   -6.4625    0.0000 C   0  0  0  0  0  0  0  0  0  0  0  0
    6.3352   -8.1125    0.0000 C   0  0  0  0  0  0  0  0  0  0  0  0
    7.0497   -7.7000    0.0000 C   0  0  0  0  0  0  0  0  0  0  0  0
    7.0497   -6.8750    0.0000 C   0  0  0  0  0  0  0  0  0  0  0  0
    6.3352   -6.4625    0.0000 O   0  0  0  0  0  0  0  0  0  0  0  0
    4.9063   -8.1125    0.0000 C   0  0  0  0  0  0  0  0  0  0  0  0
    5.6207   -7.7000    0.0000 C   0  0  0  0  0  0  0  0  0  0  0  0
    5.6207   -6.8750    0.0000 C   0  0  0  0  0  0  0  0  0  0  0  0
    4.9063   -6.4625    0.0000 C   0  0  0  0  0  0  0  0  0  0  0  0
    4.1918   -6.8750    0.0000 C   0  0  0  0  0  0  0  0  0  0  0  0
    4.1918   -7.7000    0.0000 C   0  0  0  0  0  0  0  0  0  0  0  0
  9  1  1  0  0  0  0
 14  2  2  0  0  0  0
  4  3  1  0  0  0  0
 21  4  1  0  0  0  0
  6  5  1  0  0  0  0
 22  6  1  0  0  0  0
 18  7  1  0  0  0  0
  8 12  1  0  0  0  0
  9  8  2  0  0  0  0
 10  9  1  0  0  0  0
 11 10  2  0  0  0  0
 13 11  1  0  0  0  0
 13 12  2  0  0  0  0
 16 13  1  0  0  0  0
 14 19  1  0  0  0  0
 15 14  1  0  0  0  0
 16 15  2  0  0  0  0
 17 16  1  0  0  0  0
 20 17  1  0  0  0  0
 18 23  1  0  0  0  0
 19 18  2  0  0  0  0
 20 19  1  0  0  0  0
 21 20  2  0  0  0  0
 22 21  1  0  0  0  0
 23 22  2  0  0  0  0
M  END
>  <cdx:fragmentId>
5

$$$$
