92132.cdx
  Mrv1902 05222410202D          

 16 17  0  0  0  0            999 V2000
    5.8831  -10.0238    0.0000 C   0  0  0  0  0  0  0  0  0  0  0  0
    5.8831  -10.8488    0.0000 C   0  0  0  0  0  0  0  0  0  0  0  0
    6.5975  -11.2613    0.0000 C   0  0  0  0  0  0  0  0  0  0  0  0
    7.3120  -10.8488    0.0000 C   0  0  0  0  0  0  0  0  0  0  0  0
    7.3120  -10.0238    0.0000 C   0  0  0  0  0  0  0  0  0  0  0  0
    6.5975   -9.6112    0.0000 C   0  0  0  0  0  0  0  0  0  0  0  0
    5.1686   -9.6112    0.0000 C   0  0  0  0  0  0  0  0  0  0  0  0
    6.5975  -12.0862    0.0000 C   0  0  0  0  0  0  0  0  0  0  0  0
    6.5975   -8.7862    0.0000 C   0  0  0  0  0  0  0  0  0  0  0  0
    7.3120   -8.3737    0.0000 C   0  0  0  0  0  0  0  0  0  0  0  0
    7.3120   -7.5488    0.0000 C   0  0  0  0  0  0  0  0  0  0  0  0
    6.5975   -7.1362    0.0000 C   0  0  0  0  0  0  0  0  0  0  0  0
    5.8831   -7.5488    0.0000 C   0  0  0  0  0  0  0  0  0  0  0  0
    5.8831   -8.3737    0.0000 C   0  0  0  0  0  0  0  0  0  0  0  0
    6.5975   -6.3113    0.0000 C   0  0  0  0  0  0  0  0  0  0  0  0
    8.0265   -8.7862    0.0000 C   0  0  0  0  0  0  0  0  0  0  0  0
  1  2  1  0  0  0  0
  2  3  2  0  0  0  0
  3  4  1  0  0  0  0
  4  5  1  0  0  0  0
  5  6  1  0  0  0  0
  6  1  1  0  0  0  0
  1  7  2  0  0  0  0
  3  8  1  0  0  0  0
  6  9  1  0  0  0  0
  9 10  1  0  0  0  0
 10 11  1  0  0  0  0
 11 12  2  0  0  0  0
 12 13  1  0  0  0  0
 13 14  1  0  0  0  0
 14  9  1  0  0  0  0
 12 15  1  0  0  0  0
 10 16  2  0  0  0  0
M  END
>  <cdx:fragmentId>
5

$$$$
