92135.cdx
  Mrv1902 05222410222D          

 14 16  0  0  0  0            999 V2000
    9.0405   -7.1500    0.0000 O   0  0  0  0  0  0  0  0  0  0  0  0
    4.6835   -7.3076    0.0000 O   0  0  0  0  0  0  0  0  0  0  0  0
    4.1986   -7.9750    0.0000 C   0  0  0  0  0  0  0  0  0  0  0  0
    4.6835   -8.6424    0.0000 C   0  0  0  0  0  0  0  0  0  0  0  0
    6.1826   -7.1500    0.0000 C   0  0  0  0  0  0  0  0  0  0  0  0
    5.4682   -7.5625    0.0000 C   0  0  0  0  0  0  0  0  0  0  0  0
    5.4682   -8.3875    0.0000 C   0  0  0  0  0  0  0  0  0  0  0  0
    6.1826   -8.8000    0.0000 C   0  0  0  0  0  0  0  0  0  0  0  0
    7.6116   -7.1500    0.0000 O   0  0  0  0  0  0  0  0  0  0  0  0
    6.8971   -7.5625    0.0000 C   0  0  0  0  0  0  0  0  0  0  0  0
    6.8971   -8.3875    0.0000 C   0  0  0  0  0  0  0  0  0  0  0  0
    7.6116   -8.8000    0.0000 C   0  0  0  0  0  0  0  0  0  0  0  0
    8.3261   -8.3875    0.0000 C   0  0  0  0  0  0  0  0  0  0  0  0
    8.3261   -7.5625    0.0000 C   0  0  0  0  0  0  0  0  0  0  0  0
 14  1  2  0  0  0  0
  2  6  1  0  0  0  0
  3  2  1  0  0  0  0
  4  3  1  0  0  0  0
  7  4  1  0  0  0  0
  5 10  2  0  0  0  0
  6  5  1  0  0  0  0
  7  6  2  0  0  0  0
  8  7  1  0  0  0  0
 11  8  2  0  0  0  0
  9 14  1  0  0  0  0
 10  9  1  0  0  0  0
 11 10  1  0  0  0  0
 12 11  1  0  0  0  0
 13 12  2  0  0  0  0
 14 13  1  0  0  0  0
M  END
>  <cdx:fragmentId>
5

$$$$
