92130.cdx
  Mrv1902 05222410222D          

 15 16  0  0  0  0            999 V2000
    6.7925   -6.7375    0.0000 C   0  0  0  0  0  0  0  0  0  0  0  0
    7.5070   -6.3250    0.0000 O   0  0  0  0  0  0  0  0  0  0  0  0
    8.2214   -6.7375    0.0000 C   0  0  0  0  0  0  0  0  0  0  0  0
    6.0780   -6.3250    0.0000 C   0  0  0  0  0  0  0  0  0  0  0  0
    5.3636   -6.7375    0.0000 C   0  0  0  0  0  0  0  0  0  0  0  0
    5.3636   -7.5625    0.0000 C   0  0  0  0  0  0  0  0  0  0  0  0
    6.0780   -7.9750    0.0000 C   0  0  0  0  0  0  0  0  0  0  0  0
    6.7925   -7.5625    0.0000 C   0  0  0  0  0  0  0  0  0  0  0  0
    8.2214   -7.5625    0.0000 C   0  0  0  0  0  0  0  0  0  0  0  0
    8.9359   -7.9750    0.0000 C   0  0  0  0  0  0  0  0  0  0  0  0
    9.6504   -7.5625    0.0000 C   0  0  0  0  0  0  0  0  0  0  0  0
    9.6504   -6.7375    0.0000 C   0  0  0  0  0  0  0  0  0  0  0  0
    8.9359   -6.3250    0.0000 C   0  0  0  0  0  0  0  0  0  0  0  0
    4.6491   -7.9750    0.0000 O   0  0  0  0  0  0  0  0  0  0  0  0
   10.3649   -7.9750    0.0000 O   0  0  0  0  0  0  0  0  0  0  0  0
  1  2  1  0  0  0  0
  2  3  1  0  0  0  0
  1  4  2  0  0  0  0
  4  5  1  0  0  0  0
  5  6  2  0  0  0  0
  6  7  1  0  0  0  0
  7  8  2  0  0  0  0
  8  1  1  0  0  0  0
  3  9  2  0  0  0  0
  9 10  1  0  0  0  0
 10 11  2  0  0  0  0
 11 12  1  0  0  0  0
 12 13  2  0  0  0  0
 13  3  1  0  0  0  0
  6 14  1  0  0  0  0
 11 15  1  0  0  0  0
M  END
>  <cdx:fragmentId>
2115

$$$$
