92136.cdx
  Mrv1902 05222410232D          

 27 29  0  0  0  0            999 V2000
    6.7477   -8.2711    0.0000 O   0  0  0  0  0  0  0  0  0  0  0  0
    9.6056   -5.7961    0.0000 C   0  0  0  0  0  0  0  0  0  0  0  0
    9.6056   -4.9711    0.0000 C   0  0  0  0  0  0  0  0  0  0  0  0
    8.8911   -4.5586    0.0000 C   0  0  0  0  0  0  0  0  0  0  0  0
    8.1767   -4.9711    0.0000 C   0  0  0  0  0  0  0  0  0  0  0  0
    8.8911   -6.2086    0.0000 C   0  0  0  0  0  0  0  0  0  0  0  0
    8.1767   -5.7961    0.0000 C   0  0  0  0  0  0  0  0  0  0  0  0
    6.7477   -7.4461    0.0000 C   0  0  0  0  0  0  0  0  0  0  0  0
    7.4622   -7.0336    0.0000 C   0  0  0  0  0  0  0  0  0  0  0  0
    7.4622   -6.2086    0.0000 C   0  0  0  0  0  0  0  0  0  0  0  0
    6.7477   -5.7961    0.0000 O   0  0  0  0  0  0  0  0  0  0  0  0
    5.3188   -7.4461    0.0000 C   0  0  0  0  0  0  0  0  0  0  0  0
    6.0332   -7.0336    0.0000 C   0  0  0  0  0  0  0  0  0  0  0  0
    6.0332   -6.2086    0.0000 C   0  0  0  0  0  0  0  0  0  0  0  0
    5.3188   -5.7961    0.0000 C   0  0  0  0  0  0  0  0  0  0  0  0
    4.6043   -6.2086    0.0000 C   0  0  0  0  0  0  0  0  0  0  0  0
    4.6043   -7.0336    0.0000 C   0  0  0  0  0  0  0  0  0  0  0  0
   10.3201   -4.5586    0.0000 O   0  0  0  0  0  0  0  0  0  0  0  0
    5.3188   -8.2711    0.0000 O   0  0  0  0  0  0  0  0  0  0  0  0
    7.4622   -4.5586    0.0000 O   0  0  0  0  0  0  0  0  0  0  0  0
    7.4622   -3.7336    0.0000 C   0  0  0  0  0  0  0  0  0  0  0  0
    8.8911   -3.7336    0.0000 O   0  0  0  0  0  0  0  0  0  0  0  0
    9.6056   -3.3211    0.0000 C   0  0  0  0  0  0  0  0  0  0  0  0
    3.8898   -5.7961    0.0000 O   0  0  0  0  0  0  0  0  0  0  0  0
    3.1754   -6.2086    0.0000 C   0  0  0  0  0  0  0  0  0  0  0  0
    5.3188   -4.9711    0.0000 O   0  0  0  0  0  0  0  0  0  0  0  0
    4.6043   -4.5586    0.0000 C   0  0  0  0  0  0  0  0  0  0  0  0
  8  1  2  0  0  0  0
  2  6  2  0  0  0  0
  3  2  1  0  0  0  0
  4  3  2  0  0  0  0
  5  4  1  0  0  0  0
  7  5  2  0  0  0  0
  7  6  1  0  0  0  0
 10  7  1  0  0  0  0
  8 13  1  0  0  0  0
  9  8  1  0  0  0  0
 10  9  2  0  0  0  0
 11 10  1  0  0  0  0
 14 11  1  0  0  0  0
 12 17  1  0  0  0  0
 13 12  2  0  0  0  0
 14 13  1  0  0  0  0
 15 14  2  0  0  0  0
 16 15  1  0  0  0  0
 17 16  2  0  0  0  0
  3 18  1  0  0  0  0
 12 19  1  0  0  0  0
  5 20  1  0  0  0  0
 20 21  1  0  0  0  0
  4 22  1  0  0  0  0
 22 23  1  0  0  0  0
 16 24  1  0  0  0  0
 24 25  1  0  0  0  0
 15 26  1  0  0  0  0
 26 27  1  0  0  0  0
M  END
>  <cdx:fragmentId>
5

$$$$
