921404.cdx
  Mrv1902 05222410272D          

 39 41  0  0  0  0            999 V2000
    7.2125   -8.6157    0.0000 C   0  0  0  0  0  0  0  0  0  0  0  0
    7.9270   -8.2032    0.0000 C   0  0  2  0  0  0  0  0  0  0  0  0
    8.6415   -8.6157    0.0000 C   0  0  0  0  0  0  0  0  0  0  0  0
    7.2125   -9.4407    0.0000 O   0  0  0  0  0  0  0  0  0  0  0  0
    6.4981   -8.2032    0.0000 N   0  0  0  0  0  0  0  0  0  0  0  0
    9.3560   -8.2032    0.0000 C   0  0  0  0  0  0  0  0  0  0  0  0
   10.0704   -8.6157    0.0000 C   0  0  0  0  0  0  0  0  0  0  0  0
   10.7849   -8.2032    0.0000 C   0  0  0  0  0  0  0  0  0  0  0  0
   10.7849   -7.3782    0.0000 C   0  0  0  0  0  0  0  0  0  0  0  0
   10.0704   -6.9657    0.0000 C   0  0  0  0  0  0  0  0  0  0  0  0
    9.3560   -7.3782    0.0000 C   0  0  0  0  0  0  0  0  0  0  0  0
    7.9270   -7.3782    0.0000 N   0  0  0  0  0  0  0  0  0  0  0  0
    8.6415   -6.9657    0.0000 C   0  0  0  0  0  0  0  0  0  0  0  0
    7.2125   -6.9657    0.0000 C   0  0  0  0  0  0  0  0  0  0  0  0
    5.7343   -8.7394    0.0000 C   0  0  1  0  0  0  0  0  0  0  0  0
    5.0198   -8.3269    0.0000 C   0  0  2  0  0  0  0  0  0  0  0  0
    5.7343   -9.5644    0.0000 C   0  0  0  0  0  0  0  0  0  0  0  0
    5.0198   -7.5019    0.0000 C   0  0  0  0  0  0  0  0  0  0  0  0
    5.7343   -7.0894    0.0000 C   0  0  0  0  0  0  0  0  0  0  0  0
    4.3053   -7.0894    0.0000 C   0  0  0  0  0  0  0  0  0  0  0  0
    4.3053   -8.7394    0.0000 O   0  0  0  0  0  0  0  0  0  0  0  0
    4.3053   -9.5644    0.0000 C   0  0  0  0  0  0  0  0  0  0  0  0
    3.5909   -9.9769    0.0000 C   0  0  0  0  0  0  0  0  0  0  0  0
    3.5909  -10.8019    0.0000 C   0  0  0  0  0  0  0  0  0  0  0  0
    4.3053  -11.2144    0.0000 C   0  0  0  0  0  0  0  0  0  0  0  0
    5.0198  -10.8019    0.0000 C   0  0  0  0  0  0  0  0  0  0  0  0
    5.0198   -9.9769    0.0000 C   0  0  0  0  0  0  0  0  0  0  0  0
    4.3053  -12.0394    0.0000 C   0  0  0  0  0  0  0  0  0  0  0  0
    5.0198  -12.4519    0.0000 C   0  0  0  0  0  0  0  0  0  0  0  0
    5.7343  -12.0394    0.0000 N   0  0  0  0  0  0  0  0  0  0  0  0
    5.7343  -11.2144    0.0000 C   0  0  0  0  0  0  0  0  0  0  0  0
    6.4487  -10.8019    0.0000 C   0  0  1  0  0  0  0  0  0  0  0  0
    7.1632  -11.2144    0.0000 C   0  0  0  0  0  0  0  0  0  0  0  0
    6.4487   -9.9769    0.0000 N   0  0  0  0  0  0  0  0  0  0  0  0
    7.8777  -10.8019    0.0000 C   0  0  0  0  0  0  0  0  0  0  0  0
    7.1632  -12.0394    0.0000 C   0  0  0  0  0  0  0  0  0  0  0  0
    8.5921  -11.2144    0.0000 C   0  0  0  0  0  0  0  0  0  0  0  0
    5.0198   -9.1519    0.0000 O   0  0  0  0  0  0  0  0  0  0  0  0
    5.0198  -11.6269    0.0000 O   0  0  0  0  0  0  0  0  0  0  0  0
  1  2  1  0  0  0  0
  2  3  1  0  0  0  0
  1  4  2  0  0  0  0
  1  5  1  0  0  0  0
  6  7  1  0  0  0  0
  7  8  2  0  0  0  0
  8  9  1  0  0  0  0
  9 10  2  0  0  0  0
 10 11  1  0  0  0  0
  6 11  2  0  0  0  0
  3  6  1  0  0  0  0
 12 13  1  0  0  0  0
 12 14  1  0  0  0  0
  2 12  1  1  0  0  0
 15  5  1  6  0  0  0
 15 16  1  0  0  0  0
 15 17  1  0  0  0  0
 16 18  1  1  0  0  0
 18 19  1  0  0  0  0
 18 20  1  0  0  0  0
 16 21  1  0  0  0  0
 21 22  1  0  0  0  0
 22 23  2  0  0  0  0
 23 24  1  0  0  0  0
 24 25  2  0  0  0  0
 25 26  1  0  0  0  0
 26 27  2  0  0  0  0
 27 22  1  0  0  0  0
 25 28  1  0  0  0  0
 28 29  2  0  0  0  0
 29 30  1  0  0  0  0
 30 31  1  0  0  0  0
 31 32  1  0  0  0  0
 32 33  1  6  0  0  0
 32 34  1  0  0  0  0
 34 17  1  0  0  0  0
 33 35  1  0  0  0  0
 33 36  1  0  0  0  0
 35 37  1  0  0  0  0
 17 38  2  0  0  0  0
 31 39  2  0  0  0  0
M  END
>  <cdx:fragmentId>
5906

$$$$
