92148.cdx
  Mrv1902 05222410282D          

 22 24  0  0  0  0            999 V2000
    5.7968   -6.6270    0.0000 C   0  0  0  0  0  0  0  0  0  0  0  0
    5.9755   -7.4324    0.0000 C   0  0  1  0  0  0  0  0  0  0  0  0
    6.7167   -7.7948    0.0000 C   0  0  1  0  0  0  0  0  0  0  0  0
    7.4621   -7.4413    0.0000 C   0  0  0  0  0  0  0  0  0  0  0  0
    7.6505   -6.6382    0.0000 C   0  0  1  0  0  0  0  0  0  0  0  0
    7.1401   -5.9901    0.0000 C   0  0  2  0  0  0  0  0  0  0  0  0
    6.3151   -5.9851    0.0000 C   0  0  0  0  0  0  0  0  0  0  0  0
    8.4247   -6.3529    0.0000 C   0  0  0  0  0  0  0  0  0  0  0  0
    8.3926   -5.5286    0.0000 C   0  0  0  0  0  0  0  0  0  0  0  0
    7.5987   -5.3043    0.0000 O   0  0  0  0  0  0  0  0  0  0  0  0
    5.4018   -8.0252    0.0000 C   0  0  0  0  0  0  0  0  0  0  0  0
    5.7884   -8.7541    0.0000 C   0  0  0  0  0  0  0  0  0  0  0  0
    6.6010   -8.6117    0.0000 C   0  0  1  0  0  0  0  0  0  0  0  0
    4.9936   -6.4385    0.0000 C   0  0  0  0  0  0  0  0  0  0  0  0
    9.0407   -5.0181    0.0000 O   0  0  0  0  0  0  0  0  0  0  0  0
    9.1104   -6.8116    0.0000 C   0  0  0  0  0  0  0  0  0  0  0  0
    7.3979   -8.8252    0.0000 C   0  0  0  0  0  0  0  0  0  0  0  0
    6.8145   -9.4085    0.0000 O   0  0  0  0  0  0  0  0  0  0  0  0
    6.7276   -5.2756    0.0000 H   0  0  0  0  0  0  0  0  0  0  0  0
    8.2339   -7.2215    0.0000 H   0  0  0  0  0  0  0  0  0  0  0  0
    7.4311   -8.2073    0.0000 H   0  0  0  0  0  0  0  0  0  0  0  0
    5.1787   -7.2188    0.0000 H   0  0  0  0  0  0  0  0  0  0  0  0
  1  2  1  0  0  0  0
  2  3  1  0  0  0  0
  3  4  1  0  0  0  0
  4  5  1  0  0  0  0
  5  6  1  0  0  0  0
  6  7  1  0  0  0  0
  7  1  2  0  0  0  0
  5  8  1  0  0  0  0
  8  9  1  0  0  0  0
  9 10  1  0  0  0  0
 10  6  1  0  0  0  0
  2 11  1  0  0  0  0
 11 12  1  0  0  0  0
 12 13  1  0  0  0  0
 13  3  1  0  0  0  0
  1 14  1  0  0  0  0
  9 15  2  0  0  0  0
  8 16  2  0  0  0  0
 13 17  1  0  0  0  0
 13 18  1  1  0  0  0
  6 19  1  1  0  0  0
  5 20  1  6  0  0  0
  3 21  1  6  0  0  0
  2 22  1  6  0  0  0
M  END
>  <cdx:fragmentId>
5

$$$$
