92147.cdx
  Mrv1902 05222410192D          

 11 11  0  0  0  0            999 V2000
    6.8043   -7.0812    0.0000 C   0  0  0  0  0  0  0  0  0  0  0  0
    6.8043   -7.9063    0.0000 C   0  0  0  0  0  0  0  0  0  0  0  0
    7.5188   -8.3187    0.0000 C   0  0  0  0  0  0  0  0  0  0  0  0
    8.2332   -7.9063    0.0000 C   0  0  0  0  0  0  0  0  0  0  0  0
    8.2332   -7.0812    0.0000 C   0  0  0  0  0  0  0  0  0  0  0  0
    7.5188   -6.6688    0.0000 C   0  0  0  0  0  0  0  0  0  0  0  0
    7.5188   -9.1438    0.0000 C   0  0  0  0  0  0  0  0  0  0  0  0
    7.5188   -5.8438    0.0000 C   0  0  0  0  0  0  0  0  0  0  0  0
    6.8043   -5.4313    0.0000 C   0  0  0  0  0  0  0  0  0  0  0  0
    8.2332   -5.4313    0.0000 C   0  0  0  0  0  0  0  0  0  0  0  0
    8.2332   -4.6063    0.0000 O   0  0  0  0  0  0  0  0  0  0  0  0
  1  2  1  0  0  0  0
  2  3  1  0  0  0  0
  3  4  2  0  0  0  0
  4  5  1  0  0  0  0
  5  6  1  0  0  0  0
  6  1  1  0  0  0  0
  3  7  1  0  0  0  0
  6  8  1  0  0  0  0
  8  9  1  0  0  0  0
  8 10  1  0  0  0  0
 10 11  2  0  0  0  0
M  END
>  <cdx:fragmentId>
5

$$$$
