92146.cdx
  Mrv1902 05222410182D          

 31 35  0  0  0  0            999 V2000
    6.4056   -5.7612    0.0000 C   0  0  1  0  0  0  0  0  0  0  0  0
    6.4056   -6.5863    0.0000 C   0  0  0  0  0  0  0  0  0  0  0  0
    7.1200   -6.9988    0.0000 C   0  0  0  0  0  0  0  0  0  0  0  0
    7.8345   -6.5863    0.0000 C   0  0  2  0  0  0  0  0  0  0  0  0
    7.8345   -5.7612    0.0000 C   0  0  2  0  0  0  0  0  0  0  0  0
    7.1200   -5.3487    0.0000 C   0  0  2  0  0  0  0  0  0  0  0  0
    5.6911   -6.9988    0.0000 C   0  0  0  0  0  0  0  0  0  0  0  0
    5.6911   -7.8237    0.0000 C   0  0  0  0  0  0  0  0  0  0  0  0
    6.4056   -8.2363    0.0000 C   0  0  0  0  0  0  0  0  0  0  0  0
    7.1200   -7.8237    0.0000 C   0  0  0  0  0  0  0  0  0  0  0  0
    5.0780   -8.3758    0.0000 O   0  0  0  0  0  0  0  0  0  0  0  0
    5.4135   -9.1295    0.0000 C   0  0  0  0  0  0  0  0  0  0  0  0
    6.2340   -9.0432    0.0000 O   0  0  0  0  0  0  0  0  0  0  0  0
    8.4476   -5.2092    0.0000 C   0  0  0  0  0  0  0  0  0  0  0  0
    8.1120   -4.4555    0.0000 O   0  0  0  0  0  0  0  0  0  0  0  0
    7.2916   -4.5418    0.0000 C   0  0  0  0  0  0  0  0  0  0  0  0
    9.2546   -5.3807    0.0000 O   0  0  0  0  0  0  0  0  0  0  0  0
    8.5490   -6.9988    0.0000 C   0  0  0  0  0  0  0  0  0  0  0  0
    8.5490   -7.8237    0.0000 C   0  0  0  0  0  0  0  0  0  0  0  0
    9.2634   -8.2363    0.0000 C   0  0  0  0  0  0  0  0  0  0  0  0
    9.9779   -7.8237    0.0000 C   0  0  0  0  0  0  0  0  0  0  0  0
    9.9779   -6.9988    0.0000 C   0  0  0  0  0  0  0  0  0  0  0  0
    9.2634   -6.5862    0.0000 C   0  0  0  0  0  0  0  0  0  0  0  0
   10.6924   -8.2362    0.0000 O   0  0  0  0  0  0  0  0  0  0  0  0
   10.6924   -6.5863    0.0000 O   0  0  0  0  0  0  0  0  0  0  0  0
   10.6924   -5.7612    0.0000 C   0  0  0  0  0  0  0  0  0  0  0  0
    9.2634   -9.0613    0.0000 O   0  0  0  0  0  0  0  0  0  0  0  0
    9.9779   -9.4738    0.0000 C   0  0  0  0  0  0  0  0  0  0  0  0
    6.4526   -4.8638    0.0000 H   0  0  0  0  0  0  0  0  0  0  0  0
    5.6911   -5.3487    0.0000 O   0  0  0  0  0  0  0  0  0  0  0  0
    8.5882   -6.0968    0.0000 H   0  0  0  0  0  0  0  0  0  0  0  0
  1  2  1  0  0  0  0
  2  3  1  0  0  0  0
  3  4  1  0  0  0  0
  4  5  1  0  0  0  0
  5  6  1  0  0  0  0
  6  1  1  0  0  0  0
  2  7  2  0  0  0  0
  7  8  1  0  0  0  0
  8  9  2  0  0  0  0
  9 10  1  0  0  0  0
 10  3  2  0  0  0  0
  8 11  1  0  0  0  0
 11 12  1  0  0  0  0
 12 13  1  0  0  0  0
 13  9  1  0  0  0  0
  5 14  1  0  0  0  0
 14 15  1  0  0  0  0
 15 16  1  0  0  0  0
 16  6  1  0  0  0  0
 14 17  2  0  0  0  0
  4 18  1  6  0  0  0
 18 19  2  0  0  0  0
 19 20  1  0  0  0  0
 20 21  2  0  0  0  0
 21 22  1  0  0  0  0
 22 23  2  0  0  0  0
 23 18  1  0  0  0  0
 21 24  1  0  0  0  0
 22 25  1  0  0  0  0
 25 26  1  0  0  0  0
 20 27  1  0  0  0  0
 27 28  1  0  0  0  0
  6 29  1  6  0  0  0
  1 30  1  6  0  0  0
  5 31  1  1  0  0  0
M  END
>  <cdx:fragmentId>
5

$$$$
