92140.cdx
  Mrv1902 05222410202D          

 18 18  0  0  0  0            999 V2000
    3.5807  -10.3287    0.0000 C   0  0  0  0  0  0  0  0  0  0  0  0
    3.8416  -11.1113    0.0000 C   0  0  0  0  0  0  0  0  0  0  0  0
    4.6666  -11.1051    0.0000 C   0  0  0  0  0  0  0  0  0  0  0  0
    4.9156  -10.3185    0.0000 O   0  0  0  0  0  0  0  0  0  0  0  0
    4.2445   -9.8387    0.0000 C   0  0  0  0  0  0  0  0  0  0  0  0
    5.1566  -11.7688    0.0000 O   0  0  0  0  0  0  0  0  0  0  0  0
    3.8320   -9.1242    0.0000 C   0  0  0  0  0  0  0  0  0  0  0  0
    4.6570   -9.1242    0.0000 C   0  0  0  0  0  0  0  0  0  0  0  0
    5.4820   -9.1242    0.0000 C   0  0  0  0  0  0  0  0  0  0  0  0
    5.8945   -8.4097    0.0000 C   0  0  0  0  0  0  0  0  0  0  0  0
    6.7195   -8.4097    0.0000 C   0  0  0  0  0  0  0  0  0  0  0  0
    7.1320   -7.6953    0.0000 C   0  0  0  0  0  0  0  0  0  0  0  0
    7.1320   -9.1242    0.0000 C   0  0  0  0  0  0  0  0  0  0  0  0
    7.9570   -7.6953    0.0000 C   0  0  0  0  0  0  0  0  0  0  0  0
    8.3695   -6.9808    0.0000 C   0  0  0  0  0  0  0  0  0  0  0  0
    9.1945   -6.9808    0.0000 C   0  0  0  0  0  0  0  0  0  0  0  0
    9.6070   -6.2663    0.0000 C   0  0  0  0  0  0  0  0  0  0  0  0
    9.6070   -7.6953    0.0000 C   0  0  0  0  0  0  0  0  0  0  0  0
  1  2  1  0  0  0  0
  2  3  1  0  0  0  0
  3  4  1  0  0  0  0
  4  5  1  0  0  0  0
  5  1  1  0  0  0  0
  3  6  2  0  0  0  0
  5  7  1  0  0  0  0
  5  8  1  0  0  0  0
  8  9  1  0  0  0  0
  9 10  1  0  0  0  0
 10 11  1  0  0  0  0
 11 12  1  0  0  0  0
 11 13  1  0  0  0  0
 12 14  1  0  0  0  0
 14 15  1  0  0  0  0
 15 16  1  0  0  0  0
 16 17  1  0  0  0  0
 16 18  1  0  0  0  0
M  END
>  <cdx:fragmentId>
5

$$$$
