10921406.cdx
  Mrv1902 05222410262D          

 14 14  0  0  0  0            999 V2000
    9.3491  -12.2919    0.0000 C   0  0  0  0  0  0  0  0  0  0  0  0
    8.6346  -11.8794    0.0000 C   0  0  0  0  0  0  0  0  0  0  0  0
    7.9202  -12.2919    0.0000 C   0  0  0  0  0  0  0  0  0  0  0  0
   10.0636  -11.8794    0.0000 O   0  0  0  0  0  0  0  0  0  0  0  0
    7.2057  -11.8794    0.0000 C   0  0  0  0  0  0  0  0  0  0  0  0
    6.4912  -12.2919    0.0000 C   0  0  0  0  0  0  0  0  0  0  0  0
    5.7767  -11.8794    0.0000 C   0  0  0  0  0  0  0  0  0  0  0  0
    5.7767  -11.0544    0.0000 C   0  0  0  0  0  0  0  0  0  0  0  0
    6.4912  -10.6419    0.0000 C   0  0  0  0  0  0  0  0  0  0  0  0
    7.2057  -11.0544    0.0000 C   0  0  0  0  0  0  0  0  0  0  0  0
    5.0623  -10.6419    0.0000 O   0  0  0  0  0  0  0  0  0  0  0  0
    4.3478  -11.0544    0.0000 C   0  0  0  0  0  0  0  0  0  0  0  0
    5.0623  -12.2919    0.0000 O   0  0  0  0  0  0  0  0  0  0  0  0
    4.3478  -11.8794    0.0000 C   0  0  0  0  0  0  0  0  0  0  0  0
  1  2  1  0  0  0  0
  2  3  1  0  0  0  0
  1  4  2  0  0  0  0
  5  6  1  0  0  0  0
  6  7  2  0  0  0  0
  7  8  1  0  0  0  0
  8  9  2  0  0  0  0
  9 10  1  0  0  0  0
  5 10  2  0  0  0  0
 11 12  1  0  0  0  0
  8 11  1  0  0  0  0
 13 14  1  0  0  0  0
  7 13  1  0  0  0  0
  3  5  1  0  0  0  0
M  END
>  <cdx:groupId>
63303

>  <cdx:fragmentId>
63272

$$$$
