92143.cdx
  Mrv1902 05222410192D          

 24 26  0  0  0  0            999 V2000
    4.0131   -5.7338    0.0000 C   0  0  0  0  0  0  0  0  0  0  0  0
    4.0131   -6.5587    0.0000 C   0  0  0  0  0  0  0  0  0  0  0  0
    4.7275   -6.9712    0.0000 C   0  0  0  0  0  0  0  0  0  0  0  0
    5.4420   -6.5587    0.0000 C   0  0  0  0  0  0  0  0  0  0  0  0
    5.4420   -5.7338    0.0000 C   0  0  0  0  0  0  0  0  0  0  0  0
    4.7275   -5.3213    0.0000 C   0  0  0  0  0  0  0  0  0  0  0  0
    6.1565   -6.9712    0.0000 C   0  0  0  0  0  0  0  0  0  0  0  0
    6.8709   -6.5587    0.0000 C   0  0  0  0  0  0  0  0  0  0  0  0
    6.8709   -5.7338    0.0000 C   0  0  0  0  0  0  0  0  0  0  0  0
    6.1565   -5.3213    0.0000 O   0  0  0  0  0  0  0  0  0  0  0  0
    8.2999   -5.7338    0.0000 C   0  0  0  0  0  0  0  0  0  0  0  0
    7.5854   -5.3213    0.0000 C   0  0  0  0  0  0  0  0  0  0  0  0
    9.0144   -5.3213    0.0000 C   0  0  0  0  0  0  0  0  0  0  0  0
    9.0144   -4.4962    0.0000 C   0  0  0  0  0  0  0  0  0  0  0  0
    8.2999   -4.0838    0.0000 C   0  0  0  0  0  0  0  0  0  0  0  0
    7.5854   -4.4962    0.0000 C   0  0  0  0  0  0  0  0  0  0  0  0
    6.1565   -7.7963    0.0000 O   0  0  0  0  0  0  0  0  0  0  0  0
    9.7288   -4.0838    0.0000 O   0  0  0  0  0  0  0  0  0  0  0  0
    4.7275   -7.7963    0.0000 O   0  0  0  0  0  0  0  0  0  0  0  0
    3.2986   -6.9712    0.0000 O   0  0  0  0  0  0  0  0  0  0  0  0
    3.2986   -5.3213    0.0000 O   0  0  0  0  0  0  0  0  0  0  0  0
    4.0131   -8.2088    0.0000 C   0  0  0  0  0  0  0  0  0  0  0  0
    2.5841   -6.5587    0.0000 C   0  0  0  0  0  0  0  0  0  0  0  0
    3.2986   -4.4962    0.0000 C   0  0  0  0  0  0  0  0  0  0  0  0
  1  2  2  0  0  0  0
  2  3  1  0  0  0  0
  3  4  2  0  0  0  0
  4  5  1  0  0  0  0
  5  6  2  0  0  0  0
  6  1  1  0  0  0  0
  4  7  1  0  0  0  0
  7  8  1  0  0  0  0
  8  9  2  0  0  0  0
  9 10  1  0  0  0  0
 10  5  1  0  0  0  0
 11 12  2  0  0  0  0
 12  9  1  0  0  0  0
 11 13  1  0  0  0  0
 13 14  2  0  0  0  0
 14 15  1  0  0  0  0
 15 16  2  0  0  0  0
 16 12  1  0  0  0  0
  7 17  2  0  0  0  0
 14 18  1  0  0  0  0
  3 19  1  0  0  0  0
  2 20  1  0  0  0  0
  1 21  1  0  0  0  0
 19 22  1  0  0  0  0
 20 23  1  0  0  0  0
 21 24  1  0  0  0  0
M  END
>  <cdx:fragmentId>
5

$$$$
