92156.cdx
  Mrv1902 05222410202D          

 28 30  0  0  0  0            999 V2000
    4.3843   -5.7888    0.0000 C   0  0  0  0  0  0  0  0  0  0  0  0
    4.3843   -6.6137    0.0000 C   0  0  0  0  0  0  0  0  0  0  0  0
    5.0988   -7.0263    0.0000 C   0  0  0  0  0  0  0  0  0  0  0  0
    5.8132   -6.6137    0.0000 C   0  0  0  0  0  0  0  0  0  0  0  0
    5.8132   -5.7888    0.0000 C   0  0  0  0  0  0  0  0  0  0  0  0
    5.0988   -5.3763    0.0000 C   0  0  0  0  0  0  0  0  0  0  0  0
    6.5277   -7.0263    0.0000 C   0  0  0  0  0  0  0  0  0  0  0  0
    7.2422   -6.6137    0.0000 C   0  0  0  0  0  0  0  0  0  0  0  0
    7.2422   -5.7888    0.0000 C   0  0  0  0  0  0  0  0  0  0  0  0
    6.5277   -5.3763    0.0000 O   0  0  0  0  0  0  0  0  0  0  0  0
    8.6711   -5.7888    0.0000 C   0  0  0  0  0  0  0  0  0  0  0  0
    7.9567   -5.3763    0.0000 C   0  0  0  0  0  0  0  0  0  0  0  0
    9.3856   -5.3763    0.0000 C   0  0  0  0  0  0  0  0  0  0  0  0
    9.3856   -4.5512    0.0000 C   0  0  0  0  0  0  0  0  0  0  0  0
    8.6711   -4.1387    0.0000 C   0  0  0  0  0  0  0  0  0  0  0  0
    7.9567   -4.5512    0.0000 C   0  0  0  0  0  0  0  0  0  0  0  0
    6.5277   -7.8513    0.0000 O   0  0  0  0  0  0  0  0  0  0  0  0
   10.1001   -4.1387    0.0000 O   0  0  0  0  0  0  0  0  0  0  0  0
    8.6711   -3.3138    0.0000 O   0  0  0  0  0  0  0  0  0  0  0  0
    7.9567   -2.9013    0.0000 C   0  0  0  0  0  0  0  0  0  0  0  0
    5.0988   -7.8513    0.0000 O   0  0  0  0  0  0  0  0  0  0  0  0
    4.3843   -8.2637    0.0000 C   0  0  0  0  0  0  0  0  0  0  0  0
    3.6698   -7.0263    0.0000 O   0  0  0  0  0  0  0  0  0  0  0  0
    2.9554   -6.6137    0.0000 C   0  0  0  0  0  0  0  0  0  0  0  0
    3.6698   -5.3763    0.0000 O   0  0  0  0  0  0  0  0  0  0  0  0
    3.6698   -4.5512    0.0000 C   0  0  0  0  0  0  0  0  0  0  0  0
    5.0988   -4.5512    0.0000 O   0  0  0  0  0  0  0  0  0  0  0  0
    5.8132   -4.1387    0.0000 C   0  0  0  0  0  0  0  0  0  0  0  0
  1  2  2  0  0  0  0
  2  3  1  0  0  0  0
  3  4  2  0  0  0  0
  4  5  1  0  0  0  0
  5  6  2  0  0  0  0
  6  1  1  0  0  0  0
  4  7  1  0  0  0  0
  7  8  1  0  0  0  0
  8  9  2  0  0  0  0
  9 10  1  0  0  0  0
 10  5  1  0  0  0  0
 11 12  2  0  0  0  0
 12  9  1  0  0  0  0
 11 13  1  0  0  0  0
 13 14  2  0  0  0  0
 14 15  1  0  0  0  0
 15 16  2  0  0  0  0
 16 12  1  0  0  0  0
  7 17  2  0  0  0  0
 14 18  1  0  0  0  0
 15 19  1  0  0  0  0
 19 20  1  0  0  0  0
  3 21  1  0  0  0  0
 21 22  1  0  0  0  0
  2 23  1  0  0  0  0
 23 24  1  0  0  0  0
  1 25  1  0  0  0  0
 25 26  1  0  0  0  0
  6 27  1  0  0  0  0
 27 28  1  0  0  0  0
M  END
>  <cdx:fragmentId>
5

$$$$
