921581.cdx
  Mrv1902 05222410202D          

 20 21  0  0  0  0            999 V2000
    6.1687   -5.8932    0.0000 O   0  0  0  0  0  0  0  0  0  0  0  0
    7.6385   -6.5456    0.0000 C   0  0  0  0  0  0  0  0  0  0  0  0
    6.7844   -8.8907    0.0000 C   0  0  0  0  0  0  0  0  0  0  0  0
    4.8406   -8.2985    0.0000 O   0  0  0  0  0  0  0  0  0  0  0  0
    6.8832   -6.3057    0.0000 C   0  0  2  0  0  0  0  0  0  0  0  0
    8.4700   -7.5625    0.0000 C   0  0  0  0  0  0  0  0  0  0  0  0
    8.1675   -8.4975    0.0000 O   0  0  0  0  0  0  0  0  0  0  0  0
    6.9979   -8.0938    0.0000 C   0  0  1  0  0  0  0  0  0  0  0  0
    6.1600   -8.6350    0.0000 C   0  0  0  0  0  0  0  0  0  0  0  0
    5.6375   -8.0850    0.0000 C   0  0  0  0  0  0  0  0  0  0  0  0
    6.0225   -7.4250    0.0000 C   0  0  0  0  0  0  0  0  0  0  0  0
    7.4250   -7.3425    0.0000 C   0  0  2  0  0  0  0  0  0  0  0  0
    6.8570   -3.8308    0.0000 C   0  0  0  0  0  0  0  0  0  0  0  0
    9.7147   -3.8005    0.0000 O   0  5  0  0  0  0  0  0  0  0  0  0
    9.0134   -5.0455    0.0000 O   0  0  0  0  0  0  0  0  0  0  0  0
    6.8744   -5.4807    0.0000 C   0  0  0  0  0  0  0  0  0  0  0  0
    7.5845   -5.0607    0.0000 C   0  0  0  0  0  0  0  0  0  0  0  0
    7.5758   -4.2357    0.0000 C   0  0  0  0  0  0  0  0  0  0  0  0
    8.2858   -3.8157    0.0000 C   0  0  0  0  0  0  0  0  0  0  0  0
    9.0046   -4.2206    0.0000 C   0  0  0  0  0  0  0  0  0  0  0  0
 16  5  1  0  0  0  0
  5  1  1  1  0  0  0
 12  2  1  6  0  0  0
  8  3  1  1  0  0  0
 10  4  2  0  0  0  0
  5  8  1  0  0  0  0
 12  5  1  0  0  0  0
 12  6  1  0  0  0  0
  7  6  1  0  0  0  0
  8  7  1  0  0  0  0
  9  8  1  0  0  0  0
 10  9  1  0  0  0  0
 11 10  1  0  0  0  0
 12 11  1  0  0  0  0
 18 13  1  0  0  0  0
 20 14  1  0  0  0  0
 20 15  2  0  0  0  0
 17 16  2  0  0  0  0
 18 17  1  0  0  0  0
 19 18  2  0  0  0  0
 20 19  1  0  0  0  0
M  CHG  1  14  -1
M  END
>  <cdx:fragmentId>
185419

$$$$
