92157.cdx
  Mrv1902 05222410192D          

 38 42  0  0  0  0            999 V2000
    4.1769   -8.4157    0.0000 C   0  0  0  0  0  0  0  0  0  0  0  0
    3.4625   -8.8282    0.0000 C   0  0  0  0  0  0  0  0  0  0  0  0
    4.1769   -7.5907    0.0000 O   0  0  0  0  0  0  0  0  0  0  0  0
    4.8914   -8.8282    0.0000 O   0  0  0  0  0  0  0  0  0  0  0  0
    9.8927   -5.9407    0.0000 C   0  0  1  0  0  0  0  0  0  0  0  0
   10.6072   -6.3532    0.0000 C   0  0  1  0  0  0  0  0  0  0  0  0
   10.6072   -7.1782    0.0000 C   0  0  0  0  0  0  0  0  0  0  0  0
    9.8927   -7.5907    0.0000 C   0  0  0  0  0  0  0  0  0  0  0  0
    9.1782   -7.1782    0.0000 C   0  0  1  0  0  0  0  0  0  0  0  0
    8.4638   -7.5907    0.0000 C   0  0  2  0  0  0  0  0  0  0  0  0
    8.4638   -8.4157    0.0000 C   0  0  0  0  0  0  0  0  0  0  0  0
    7.7493   -8.8282    0.0000 C   0  0  0  0  0  0  0  0  0  0  0  0
    7.0348   -8.4157    0.0000 C   0  0  1  0  0  0  0  0  0  0  0  0
    6.3204   -8.8282    0.0000 C   0  0  0  0  0  0  0  0  0  0  0  0
    5.6059   -8.4157    0.0000 C   0  0  2  0  0  0  0  0  0  0  0  0
    5.6059   -7.5907    0.0000 C   0  0  0  0  0  0  0  0  0  0  0  0
    6.3204   -7.1782    0.0000 C   0  0  0  0  0  0  0  0  0  0  0  0
    7.0348   -7.5907    0.0000 C   0  0  2  0  0  0  0  0  0  0  0  0
    7.7493   -7.1782    0.0000 C   0  0  1  0  0  0  0  0  0  0  0  0
    7.7493   -6.3532    0.0000 C   0  0  0  0  0  0  0  0  0  0  0  0
    8.4638   -5.9407    0.0000 C   0  0  0  0  0  0  0  0  0  0  0  0
    9.1782   -6.3532    0.0000 C   0  0  2  0  0  0  0  0  0  0  0  0
   11.2203   -5.8012    0.0000 C   0  0  0  0  0  0  0  0  0  0  0  0
   10.8847   -5.0475    0.0000 C   0  0  0  0  0  0  0  0  0  0  0  0
   10.0642   -5.1337    0.0000 C   0  0  1  0  0  0  0  0  0  0  0  0
    9.7671   -3.7360    0.0000 C   0  0  0  0  0  0  0  0  0  0  0  0
    9.5122   -4.5206    0.0000 C   0  0  0  0  0  0  0  0  0  0  0  0
    8.7052   -4.6922    0.0000 C   0  0  0  0  0  0  0  0  0  0  0  0
    7.0348   -6.7657    0.0000 C   0  0  0  0  0  0  0  0  0  0  0  0
    6.7329   -9.5427    0.0000 C   0  0  0  0  0  0  0  0  0  0  0  0
    5.9079   -9.5427    0.0000 C   0  0  0  0  0  0  0  0  0  0  0  0
    8.4638   -6.7657    0.0000 C   0  0  0  0  0  0  0  0  0  0  0  0
    9.1782   -8.0032    0.0000 C   0  0  0  0  0  0  0  0  0  0  0  0
   11.3609   -6.6888    0.0000 C   0  0  0  0  0  0  0  0  0  0  0  0
    7.0348   -9.2407    0.0000 H   0  0  0  0  0  0  0  0  0  0  0  0
    7.7493   -8.0032    0.0000 H   0  0  0  0  0  0  0  0  0  0  0  0
    9.1782   -5.5282    0.0000 H   0  0  0  0  0  0  0  0  0  0  0  0
    9.8927   -6.7657    0.0000 H   0  0  0  0  0  0  0  0  0  0  0  0
  1  2  1  0  0  0  0
  1  3  2  0  0  0  0
  1  4  1  0  0  0  0
  5  6  1  0  0  0  0
  6  7  1  0  0  0  0
  7  8  1  0  0  0  0
  8  9  1  0  0  0  0
  9 10  1  0  0  0  0
 10 11  1  0  0  0  0
 11 12  1  0  0  0  0
 12 13  1  0  0  0  0
 13 14  1  0  0  0  0
 14 15  1  0  0  0  0
 15 16  1  0  0  0  0
 16 17  1  0  0  0  0
 17 18  1  0  0  0  0
 13 18  1  0  0  0  0
 18 19  1  0  0  0  0
 10 19  1  0  0  0  0
 19 20  1  0  0  0  0
 20 21  1  0  0  0  0
 21 22  1  0  0  0  0
  9 22  1  0  0  0  0
  5 22  1  0  0  0  0
 23 24  1  0  0  0  0
 24 25  1  0  0  0  0
 25  5  1  0  0  0  0
 23  6  1  0  0  0  0
 26 27  2  0  0  0  0
 27 28  1  0  0  0  0
 25 27  1  6  0  0  0
 18 29  1  1  0  0  0
 14 30  1  0  0  0  0
 14 31  1  0  0  0  0
 10 32  1  1  0  0  0
  9 33  1  6  0  0  0
  6 34  1  1  0  0  0
 15  4  1  1  0  0  0
 13 35  1  6  0  0  0
 19 36  1  6  0  0  0
 22 37  1  1  0  0  0
  5 38  1  6  0  0  0
M  END
>  <cdx:groupId>
120

>  <cdx:fragmentId>
13

$$$$
