92153.cdx
  Mrv1902 05222410192D          

 13 13  0  0  0  0            999 V2000
    6.6393   -7.1638    0.0000 C   0  0  0  0  0  0  0  0  0  0  0  0
    6.6393   -7.9888    0.0000 C   0  0  0  0  0  0  0  0  0  0  0  0
    7.3538   -8.4013    0.0000 C   0  0  0  0  0  0  0  0  0  0  0  0
    8.0682   -7.9888    0.0000 C   0  0  0  0  0  0  0  0  0  0  0  0
    8.0682   -7.1638    0.0000 C   0  0  0  0  0  0  0  0  0  0  0  0
    7.3538   -6.7512    0.0000 C   0  0  0  0  0  0  0  0  0  0  0  0
    7.3538   -9.2263    0.0000 O   0  0  0  0  0  0  0  0  0  0  0  0
    5.9248   -8.4013    0.0000 O   0  0  0  0  0  0  0  0  0  0  0  0
    5.2104   -7.9888    0.0000 C   0  0  0  0  0  0  0  0  0  0  0  0
    7.3538   -5.9262    0.0000 C   0  0  0  0  0  0  0  0  0  0  0  0
    8.0682   -5.5137    0.0000 C   0  0  0  0  0  0  0  0  0  0  0  0
    8.0682   -4.6888    0.0000 C   0  0  0  0  0  0  0  0  0  0  0  0
    8.7827   -4.2763    0.0000 O   0  0  0  0  0  0  0  0  0  0  0  0
  1  2  2  0  0  0  0
  2  3  1  0  0  0  0
  3  4  2  0  0  0  0
  4  5  1  0  0  0  0
  5  6  2  0  0  0  0
  6  1  1  0  0  0  0
  3  7  1  0  0  0  0
  2  8  1  0  0  0  0
  8  9  1  0  0  0  0
  6 10  1  0  0  0  0
 10 11  2  0  0  0  0
 11 12  1  0  0  0  0
 12 13  2  0  0  0  0
M  END
>  <cdx:fragmentId>
5

$$$$
