92150.cdx
  Mrv1902 05222410182D          

 19 19  0  0  0  0            999 V2000
    6.2584   -6.6297    0.0000 C   0  0  0  0  0  0  0  0  0  0  0  0
    6.9728   -7.0422    0.0000 C   0  0  0  0  0  0  0  0  0  0  0  0
    7.6873   -6.6297    0.0000 C   0  0  0  0  0  0  0  0  0  0  0  0
    8.4018   -7.0422    0.0000 C   0  0  0  0  0  0  0  0  0  0  0  0
    9.1163   -6.6297    0.0000 C   0  0  2  0  0  0  0  0  0  0  0  0
    9.8307   -7.0422    0.0000 C   0  0  0  0  0  0  0  0  0  0  0  0
   10.5452   -6.6297    0.0000 C   0  0  0  0  0  0  0  0  0  0  0  0
   11.2597   -7.0422    0.0000 C   0  0  0  0  0  0  0  0  0  0  0  0
    7.6873   -5.8047    0.0000 O   0  0  0  0  0  0  0  0  0  0  0  0
    5.5439   -7.0422    0.0000 C   0  0  0  0  0  0  0  0  0  0  0  0
    4.8294   -6.6297    0.0000 C   0  0  0  0  0  0  0  0  0  0  0  0
    4.1150   -7.0422    0.0000 C   0  0  0  0  0  0  0  0  0  0  0  0
    4.1150   -7.8672    0.0000 C   0  0  0  0  0  0  0  0  0  0  0  0
    4.8294   -8.2797    0.0000 C   0  0  0  0  0  0  0  0  0  0  0  0
    5.5439   -7.8672    0.0000 C   0  0  0  0  0  0  0  0  0  0  0  0
    3.4005   -6.6297    0.0000 O   0  0  0  0  0  0  0  0  0  0  0  0
    2.6860   -7.0422    0.0000 C   0  0  0  0  0  0  0  0  0  0  0  0
    3.4005   -8.2797    0.0000 O   0  0  0  0  0  0  0  0  0  0  0  0
    9.1163   -5.8047    0.0000 O   0  0  0  0  0  0  0  0  0  0  0  0
  1  2  1  0  0  0  0
  2  3  1  0  0  0  0
  3  4  1  0  0  0  0
  4  5  1  0  0  0  0
  5  6  1  0  0  0  0
  6  7  1  0  0  0  0
  7  8  1  0  0  0  0
  3  9  2  0  0  0  0
 10 11  1  0  0  0  0
 11 12  2  0  0  0  0
 12 13  1  0  0  0  0
 13 14  2  0  0  0  0
 14 15  1  0  0  0  0
 10 15  2  0  0  0  0
 16 17  1  0  0  0  0
 12 16  1  0  0  0  0
 13 18  1  0  0  0  0
  1 10  1  0  0  0  0
  5 19  1  1  0  0  0
M  END
>  <cdx:groupId>
10687

>  <cdx:fragmentId>
10615

$$$$
