92151.cdx
  Mrv1902 05222410182D          

 13 13  0  0  0  0            999 V2000
    5.9656   -7.4387    0.0000 C   0  0  0  0  0  0  0  0  0  0  0  0
    5.9656   -8.2637    0.0000 C   0  0  0  0  0  0  0  0  0  0  0  0
    6.6800   -8.6762    0.0000 C   0  0  0  0  0  0  0  0  0  0  0  0
    7.3945   -8.2637    0.0000 C   0  0  0  0  0  0  0  0  0  0  0  0
    7.3945   -7.4387    0.0000 C   0  0  0  0  0  0  0  0  0  0  0  0
    6.6800   -7.0263    0.0000 C   0  0  0  0  0  0  0  0  0  0  0  0
    6.6800   -6.2012    0.0000 C   0  0  0  0  0  0  0  0  0  0  0  0
    8.1090   -7.0263    0.0000 O   0  0  0  0  0  0  0  0  0  0  0  0
    8.1090   -8.6762    0.0000 O   0  0  0  0  0  0  0  0  0  0  0  0
    5.2511   -7.0263    0.0000 C   0  0  0  0  0  0  0  0  0  0  0  0
    4.5366   -7.4387    0.0000 O   0  0  0  0  0  0  0  0  0  0  0  0
    5.1406   -8.2637    0.0000 C   0  0  0  0  0  0  0  0  0  0  0  0
    5.7520   -9.0606    0.0000 C   0  0  0  0  0  0  0  0  0  0  0  0
  1  2  1  0  0  0  0
  2  3  1  0  0  0  0
  3  4  1  0  0  0  0
  4  5  1  0  0  0  0
  5  6  1  0  0  0  0
  6  1  1  0  0  0  0
  6  7  1  0  0  0  0
  5  8  2  0  0  0  0
  4  9  1  0  0  0  0
  1 10  1  0  0  0  0
 10 11  2  0  0  0  0
  2 12  1  0  0  0  0
  2 13  1  0  0  0  0
M  END
>  <cdx:fragmentId>
5

$$$$
