92152.cdx
  Mrv1902 05222410182D          

 28 30  0  0  0  0            999 V2000
    4.3293   -6.3113    0.0000 C   0  0  0  0  0  0  0  0  0  0  0  0
    4.3293   -7.1362    0.0000 C   0  0  0  0  0  0  0  0  0  0  0  0
    5.0438   -7.5488    0.0000 C   0  0  0  0  0  0  0  0  0  0  0  0
    5.7582   -7.1362    0.0000 C   0  0  0  0  0  0  0  0  0  0  0  0
    5.7582   -6.3113    0.0000 C   0  0  0  0  0  0  0  0  0  0  0  0
    5.0438   -5.8988    0.0000 C   0  0  0  0  0  0  0  0  0  0  0  0
    6.4727   -7.5488    0.0000 C   0  0  0  0  0  0  0  0  0  0  0  0
    7.1872   -7.1362    0.0000 C   0  0  0  0  0  0  0  0  0  0  0  0
    7.1872   -6.3113    0.0000 C   0  0  0  0  0  0  0  0  0  0  0  0
    6.4727   -5.8988    0.0000 O   0  0  0  0  0  0  0  0  0  0  0  0
    8.6161   -6.3113    0.0000 C   0  0  0  0  0  0  0  0  0  0  0  0
    7.9017   -5.8988    0.0000 C   0  0  0  0  0  0  0  0  0  0  0  0
    9.3306   -5.8988    0.0000 C   0  0  0  0  0  0  0  0  0  0  0  0
    9.3306   -5.0737    0.0000 C   0  0  0  0  0  0  0  0  0  0  0  0
    8.6161   -4.6612    0.0000 C   0  0  0  0  0  0  0  0  0  0  0  0
    7.9017   -5.0737    0.0000 C   0  0  0  0  0  0  0  0  0  0  0  0
    6.4727   -8.3737    0.0000 O   0  0  0  0  0  0  0  0  0  0  0  0
   10.0451   -4.6612    0.0000 O   0  0  0  0  0  0  0  0  0  0  0  0
    8.6161   -3.8363    0.0000 O   0  0  0  0  0  0  0  0  0  0  0  0
    7.9017   -3.4238    0.0000 C   0  0  0  0  0  0  0  0  0  0  0  0
    7.9017   -7.5488    0.0000 O   0  0  0  0  0  0  0  0  0  0  0  0
    7.9017   -8.3737    0.0000 C   0  0  0  0  0  0  0  0  0  0  0  0
    5.0438   -8.3737    0.0000 O   0  0  0  0  0  0  0  0  0  0  0  0
    4.3293   -8.7862    0.0000 C   0  0  0  0  0  0  0  0  0  0  0  0
    3.6148   -7.5488    0.0000 O   0  0  0  0  0  0  0  0  0  0  0  0
    2.9004   -7.1362    0.0000 C   0  0  0  0  0  0  0  0  0  0  0  0
    3.6148   -5.8988    0.0000 O   0  0  0  0  0  0  0  0  0  0  0  0
    3.6148   -5.0737    0.0000 C   0  0  0  0  0  0  0  0  0  0  0  0
  1  2  2  0  0  0  0
  2  3  1  0  0  0  0
  3  4  2  0  0  0  0
  4  5  1  0  0  0  0
  5  6  2  0  0  0  0
  6  1  1  0  0  0  0
  4  7  1  0  0  0  0
  7  8  1  0  0  0  0
  8  9  2  0  0  0  0
  9 10  1  0  0  0  0
 10  5  1  0  0  0  0
 11 12  2  0  0  0  0
 12  9  1  0  0  0  0
 11 13  1  0  0  0  0
 13 14  2  0  0  0  0
 14 15  1  0  0  0  0
 15 16  2  0  0  0  0
 16 12  1  0  0  0  0
  7 17  2  0  0  0  0
 14 18  1  0  0  0  0
 15 19  1  0  0  0  0
 19 20  1  0  0  0  0
  8 21  1  0  0  0  0
 21 22  1  0  0  0  0
  3 23  1  0  0  0  0
 23 24  1  0  0  0  0
  2 25  1  0  0  0  0
 25 26  1  0  0  0  0
  1 27  1  0  0  0  0
 27 28  1  0  0  0  0
M  END
>  <cdx:fragmentId>
5

$$$$
