92154.cdx
  Mrv1902 05222410202D          

 14 15  0  0  0  0            999 V2000
    4.7143   -6.6000    0.0000 C   0  0  0  0  0  0  0  0  0  0  0  0
    4.7143   -7.4250    0.0000 C   0  0  0  0  0  0  0  0  0  0  0  0
    5.4288   -7.8375    0.0000 C   0  0  0  0  0  0  0  0  0  0  0  0
    6.1432   -7.4250    0.0000 C   0  0  0  0  0  0  0  0  0  0  0  0
    6.1432   -6.6000    0.0000 C   0  0  0  0  0  0  0  0  0  0  0  0
    5.4288   -6.1875    0.0000 C   0  0  0  0  0  0  0  0  0  0  0  0
    6.8577   -7.8375    0.0000 C   0  0  0  0  0  0  0  0  0  0  0  0
    7.5722   -7.4250    0.0000 C   0  0  0  0  0  0  0  0  0  0  0  0
    7.5722   -6.6000    0.0000 C   0  0  0  0  0  0  0  0  0  0  0  0
    6.8577   -6.1875    0.0000 C   0  0  0  0  0  0  0  0  0  0  0  0
    6.8577   -5.3625    0.0000 O   0  0  0  0  0  0  0  0  0  0  0  0
    6.4452   -8.5520    0.0000 O   0  0  0  0  0  0  0  0  0  0  0  0
    7.2702   -8.5520    0.0000 C   0  0  0  0  0  0  0  0  0  0  0  0
    3.9998   -6.1875    0.0000 C   0  0  0  0  0  0  0  0  0  0  0  0
  1  2  2  0  0  0  0
  2  3  1  0  0  0  0
  3  4  2  0  0  0  0
  4  5  1  0  0  0  0
  5  6  2  0  0  0  0
  6  1  1  0  0  0  0
  4  7  1  0  0  0  0
  7  8  1  0  0  0  0
  8  9  1  0  0  0  0
  9 10  1  0  0  0  0
 10  5  1  0  0  0  0
 10 11  2  0  0  0  0
  7 12  1  0  0  0  0
  7 13  1  0  0  0  0
  1 14  1  0  0  0  0
M  END
>  <cdx:fragmentId>
5

$$$$
