92163.cdx
  Mrv1902 05222410272D          

 15 17  0  0  0  0            999 V2000
    7.9556   -7.2626    0.0000 C   0  0  0  0  0  0  0  0  0  0  0  0
    8.7646   -7.1008    0.0000 C   0  0  0  0  0  0  0  0  0  0  0  0
    9.0289   -6.3193    0.0000 N   0  0  0  0  0  0  0  0  0  0  0  0
    8.4843   -5.6996    0.0000 C   0  0  0  0  0  0  0  0  0  0  0  0
    7.4110   -6.6429    0.0000 C   0  0  0  0  0  0  0  0  0  0  0  0
    7.6754   -5.8614    0.0000 C   0  0  0  0  0  0  0  0  0  0  0  0
    7.0138   -5.3684    0.0000 N   0  0  0  0  0  0  0  0  0  0  0  0
    6.0266   -7.2393    0.0000 C   0  0  0  0  0  0  0  0  0  0  0  0
    6.5860   -6.6329    0.0000 C   0  0  0  0  0  0  0  0  0  0  0  0
    6.3406   -5.8453    0.0000 C   0  0  0  0  0  0  0  0  0  0  0  0
    5.5357   -5.6640    0.0000 C   0  0  0  0  0  0  0  0  0  0  0  0
    4.9763   -6.2704    0.0000 C   0  0  0  0  0  0  0  0  0  0  0  0
    5.2218   -7.0581    0.0000 C   0  0  0  0  0  0  0  0  0  0  0  0
    7.6912   -8.0441    0.0000 C   0  0  0  0  0  0  0  0  0  0  0  0
    8.2358   -8.6638    0.0000 O   0  0  0  0  0  0  0  0  0  0  0  0
  1  5  1  0  0  0  0
  2  1  2  0  0  0  0
  3  2  1  0  0  0  0
  4  3  2  0  0  0  0
  6  4  1  0  0  0  0
  5  9  1  0  0  0  0
  6  5  2  0  0  0  0
  7  6  1  0  0  0  0
 10  7  1  0  0  0  0
  8 13  1  0  0  0  0
  9  8  2  0  0  0  0
 10  9  1  0  0  0  0
 11 10  2  0  0  0  0
 12 11  1  0  0  0  0
 13 12  2  0  0  0  0
  1 14  1  0  0  0  0
 14 15  1  0  0  0  0
M  END
>  <cdx:fragmentId>
5

$$$$
