92162.cdx
  Mrv1902 05222410272D          

 16 18  0  0  0  0            999 V2000
    5.2218   -7.0747    0.0000 C   0  0  0  0  0  0  0  0  0  0  0  0
    4.9763   -6.2870    0.0000 C   0  0  0  0  0  0  0  0  0  0  0  0
    5.5357   -5.6807    0.0000 C   0  0  0  0  0  0  0  0  0  0  0  0
    6.3406   -5.8619    0.0000 C   0  0  0  0  0  0  0  0  0  0  0  0
    6.5860   -6.6496    0.0000 C   0  0  0  0  0  0  0  0  0  0  0  0
    6.0266   -7.2559    0.0000 C   0  0  0  0  0  0  0  0  0  0  0  0
    7.0138   -5.3851    0.0000 N   0  0  0  0  0  0  0  0  0  0  0  0
    7.6754   -5.8780    0.0000 C   0  0  0  0  0  0  0  0  0  0  0  0
    7.4110   -6.6595    0.0000 C   0  0  0  0  0  0  0  0  0  0  0  0
    8.4843   -5.7162    0.0000 C   0  0  0  0  0  0  0  0  0  0  0  0
    9.0289   -6.3360    0.0000 N   0  0  0  0  0  0  0  0  0  0  0  0
    8.7646   -7.1174    0.0000 C   0  0  0  0  0  0  0  0  0  0  0  0
    7.9556   -7.2792    0.0000 C   0  0  0  0  0  0  0  0  0  0  0  0
    7.6912   -8.0607    0.0000 O   0  0  0  0  0  0  0  0  0  0  0  0
    8.7487   -4.9348    0.0000 O   0  0  0  0  0  0  0  0  0  0  0  0
    9.5456   -4.7212    0.0000 C   0  0  0  0  0  0  0  0  0  0  0  0
  1  2  2  0  0  0  0
  2  3  1  0  0  0  0
  3  4  2  0  0  0  0
  4  5  1  0  0  0  0
  5  6  2  0  0  0  0
  6  1  1  0  0  0  0
  4  7  1  0  0  0  0
  7  8  1  0  0  0  0
  8  9  2  0  0  0  0
  9  5  1  0  0  0  0
  8 10  1  0  0  0  0
 10 11  2  0  0  0  0
 11 12  1  0  0  0  0
 12 13  2  0  0  0  0
 13  9  1  0  0  0  0
 13 14  1  0  0  0  0
 10 15  1  0  0  0  0
 15 16  1  0  0  0  0
M  END
>  <cdx:fragmentId>
5

$$$$
