92168.cdx
  Mrv1902 05222410202D          

  8  8  0  0  0  0            999 V2000
    5.8675   -6.4572    0.0000 S   0  0  0  0  0  0  0  0  0  0  0  0
    5.7064   -7.2663    0.0000 C   0  0  0  0  0  0  0  0  0  0  0  0
    6.2386   -7.8967    0.0000 S   0  0  0  0  0  0  0  0  0  0  0  0
    7.0633   -7.8737    0.0000 S   0  0  0  0  0  0  0  0  0  0  0  0
    7.5595   -7.2145    0.0000 C   0  0  0  0  0  0  0  0  0  0  0  0
    7.3535   -6.4157    0.0000 S   0  0  0  0  0  0  0  0  0  0  0  0
    6.6005   -6.0786    0.0000 S   0  0  0  0  0  0  0  0  0  0  0  0
    8.3686   -7.3756    0.0000 C   0  0  0  0  0  0  0  0  0  0  0  0
  1  2  1  0  0  0  0
  2  3  1  0  0  0  0
  3  4  1  0  0  0  0
  4  5  1  0  0  0  0
  5  6  1  0  0  0  0
  6  7  1  0  0  0  0
  7  1  1  0  0  0  0
  5  8  1  0  0  0  0
M  END
>  <cdx:fragmentId>
5

$$$$
