92169.cdx
  Mrv1902 05222410202D          

  6  6  0  0  0  0            999 V2000
    7.0592   -7.9520    0.0000 C   0  0  0  0  0  0  0  0  0  0  0  0
    7.3151   -7.1677    0.0000 S   0  0  0  0  0  0  0  0  0  0  0  0
    6.6482   -6.6820    0.0000 S   0  0  0  0  0  0  0  0  0  0  0  0
    5.9802   -7.1661    0.0000 S   0  0  0  0  0  0  0  0  0  0  0  0
    6.2342   -7.9510    0.0000 C   0  0  0  0  0  0  0  0  0  0  0  0
    7.5434   -8.6200    0.0000 C   0  0  0  0  0  0  0  0  0  0  0  0
  1  2  1  0  0  0  0
  2  3  1  0  0  0  0
  3  4  1  0  0  0  0
  4  5  1  0  0  0  0
  5  1  1  0  0  0  0
  1  6  1  0  0  0  0
M  END
>  <cdx:fragmentId>
5

$$$$
