92164.cdx
  Mrv1902 05222410262D          

 11 11  0  0  0  0            999 V2000
    6.6331   -7.3565    0.0000 C   0  0  0  0  0  0  0  0  0  0  0  0
    7.3457   -7.7722    0.0000 C   0  0  0  0  0  0  0  0  0  0  0  0
    8.0620   -7.3629    0.0000 C   0  0  0  0  0  0  0  0  0  0  0  0
    8.0657   -6.5380    0.0000 C   0  0  0  0  0  0  0  0  0  0  0  0
    7.3531   -6.1222    0.0000 C   0  0  0  0  0  0  0  0  0  0  0  0
    6.6368   -6.5315    0.0000 C   0  0  0  0  0  0  0  0  0  0  0  0
    7.3420   -8.5972    0.0000 O   0  0  0  0  0  0  0  0  0  0  0  0
    7.3568   -5.2973    0.0000 O   0  0  0  0  0  0  0  0  0  0  0  0
    8.0731   -4.8880    0.0000 C   0  0  0  0  0  0  0  0  0  0  0  0
    8.0769   -4.0630    0.0000 C   0  0  0  0  0  0  0  0  0  0  0  0
    8.7858   -5.3037    0.0000 O   0  0  0  0  0  0  0  0  0  0  0  0
  1  2  2  0  0  0  0
  2  3  1  0  0  0  0
  3  4  2  0  0  0  0
  4  5  1  0  0  0  0
  5  6  2  0  0  0  0
  6  1  1  0  0  0  0
  2  7  1  0  0  0  0
  5  8  1  0  0  0  0
  8  9  1  0  0  0  0
  9 10  1  0  0  0  0
  9 11  2  0  0  0  0
M  END
>  <cdx:fragmentId>
5

$$$$
