92167.cdx
  Mrv1902 05222410262D          

 18 20  0  0  0  0            999 V2000
    9.4144   -7.6204    0.0000 C   0  0  0  0  0  0  0  0  0  0  0  0
    9.4143   -6.7954    0.0000 C   0  0  0  0  0  0  0  0  0  0  0  0
    8.6998   -6.3830    0.0000 C   0  0  0  0  0  0  0  0  0  0  0  0
    7.9853   -6.7956    0.0000 C   0  0  0  0  0  0  0  0  0  0  0  0
    7.9854   -7.6206    0.0000 C   0  0  0  0  0  0  0  0  0  0  0  0
    8.6999   -8.0330    0.0000 C   0  0  0  0  0  0  0  0  0  0  0  0
    7.2710   -8.0331    0.0000 C   0  0  0  0  0  0  0  0  0  0  0  0
    7.2711   -8.8581    0.0000 C   0  0  0  0  0  0  0  0  0  0  0  0
    7.9856   -9.2706    0.0000 C   0  0  0  0  0  0  0  0  0  0  0  0
    8.7000   -8.8580    0.0000 C   0  0  0  0  0  0  0  0  0  0  0  0
    6.5565   -7.6207    0.0000 C   0  0  0  0  0  0  0  0  0  0  0  0
    5.8420   -8.0333    0.0000 C   0  0  0  0  0  0  0  0  0  0  0  0
    5.8421   -8.8583    0.0000 C   0  0  0  0  0  0  0  0  0  0  0  0
    6.5566   -9.2707    0.0000 C   0  0  0  0  0  0  0  0  0  0  0  0
    6.5564   -6.7957    0.0000 O   0  0  0  0  0  0  0  0  0  0  0  0
    5.8419   -6.3833    0.0000 C   0  0  0  0  0  0  0  0  0  0  0  0
    5.1277   -9.2708    0.0000 O   0  0  0  0  0  0  0  0  0  0  0  0
    7.2708   -6.3831    0.0000 O   0  0  0  0  0  0  0  0  0  0  0  0
  1  2  2  0  0  0  0
  2  3  1  0  0  0  0
  3  4  2  0  0  0  0
  4  5  1  0  0  0  0
  5  6  2  0  0  0  0
  6  1  1  0  0  0  0
  5  7  1  0  0  0  0
  7  8  2  0  0  0  0
  8  9  1  0  0  0  0
  9 10  1  0  0  0  0
 10  6  1  0  0  0  0
  7 11  1  0  0  0  0
 11 12  2  0  0  0  0
 12 13  1  0  0  0  0
 13 14  2  0  0  0  0
 14  8  1  0  0  0  0
 11 15  1  0  0  0  0
 15 16  1  0  0  0  0
 13 17  1  0  0  0  0
  4 18  1  0  0  0  0
M  END
>  <cdx:fragmentId>
5

$$$$
