92166.cdx
  Mrv1902 05222410272D          

 15 15  0  0  0  0            999 V2000
    4.3293   -7.2462    0.0000 C   0  0  0  0  0  0  0  0  0  0  0  0
    4.3293   -8.0713    0.0000 C   0  0  0  0  0  0  0  0  0  0  0  0
    5.0438   -8.4838    0.0000 C   0  0  0  0  0  0  0  0  0  0  0  0
    5.7582   -8.0713    0.0000 C   0  0  0  0  0  0  0  0  0  0  0  0
    5.7582   -7.2462    0.0000 C   0  0  0  0  0  0  0  0  0  0  0  0
    5.0438   -6.8338    0.0000 C   0  0  0  0  0  0  0  0  0  0  0  0
    3.6148   -8.4838    0.0000 O   0  0  0  0  0  0  0  0  0  0  0  0
    2.9004   -8.0713    0.0000 C   0  0  0  0  0  0  0  0  0  0  0  0
    6.4727   -6.8337    0.0000 C   0  0  0  0  0  0  0  0  0  0  0  0
    7.1872   -7.2462    0.0000 C   0  0  0  0  0  0  0  0  0  0  0  0
    7.9017   -6.8337    0.0000 C   0  0  0  0  0  0  0  0  0  0  0  0
    8.6161   -7.2462    0.0000 O   0  0  0  0  0  0  0  0  0  0  0  0
    7.9017   -6.0087    0.0000 O   0  0  0  0  0  0  0  0  0  0  0  0
    9.3306   -6.8337    0.0000 C   0  0  0  0  0  0  0  0  0  0  0  0
   10.0451   -7.2462    0.0000 C   0  0  0  0  0  0  0  0  0  0  0  0
  1  2  2  0  0  0  0
  2  3  1  0  0  0  0
  3  4  2  0  0  0  0
  4  5  1  0  0  0  0
  5  6  2  0  0  0  0
  6  1  1  0  0  0  0
  2  7  1  0  0  0  0
  7  8  1  0  0  0  0
  5  9  1  0  0  0  0
  9 10  2  0  0  0  0
 10 11  1  0  0  0  0
 11 12  1  0  0  0  0
 11 13  2  0  0  0  0
 12 14  1  0  0  0  0
 14 15  1  0  0  0  0
M  END
>  <cdx:fragmentId>
5

$$$$
