92172.cdx
  Mrv1902 05222410272D          

  8  7  0  0  0  0            999 V2000
    7.2009   -6.9570    0.0000 C   0  0  0  0  0  0  0  0  0  0  0  0
    7.6134   -6.2425    0.0000 C   0  0  0  0  0  0  0  0  0  0  0  0
    6.8990   -5.8300    0.0000 C   0  0  0  0  0  0  0  0  0  0  0  0
    6.1845   -6.2425    0.0000 C   0  0  0  0  0  0  0  0  0  0  0  0
    5.4700   -5.8300    0.0000 C   0  0  0  0  0  0  0  0  0  0  0  0
    6.1845   -7.0675    0.0000 O   0  0  0  0  0  0  0  0  0  0  0  0
    8.3279   -6.6550    0.0000 S   0  0  0  0  0  0  0  0  0  0  0  0
    8.0259   -5.5280    0.0000 C   0  0  0  0  0  0  0  0  0  0  0  0
  2  1  1  0  0  0  0
  3  2  1  0  0  0  0
  4  3  1  0  0  0  0
  5  4  1  0  0  0  0
  4  6  2  0  0  0  0
  2  7  1  0  0  0  0
  2  8  1  0  0  0  0
M  END
>  <cdx:fragmentId>
3

$$$$
