92171.cdx
  Mrv1902 05222410262D          

  8  7  0  0  0  0            999 V2000
    4.9063   -4.6612    0.0000 C   0  0  0  0  0  0  0  0  0  0  0  0
    5.6207   -4.2488    0.0000 C   0  0  0  0  0  0  0  0  0  0  0  0
    6.3352   -4.6612    0.0000 C   0  0  0  0  0  0  0  0  0  0  0  0
    7.0497   -4.2488    0.0000 C   0  0  0  0  0  0  0  0  0  0  0  0
    7.7642   -4.6612    0.0000 C   0  0  0  0  0  0  0  0  0  0  0  0
    8.4786   -4.2488    0.0000 O   0  0  0  0  0  0  0  0  0  0  0  0
    6.3352   -5.4863    0.0000 C   0  0  0  0  0  0  0  0  0  0  0  0
    7.7642   -5.4863    0.0000 C   0  0  0  0  0  0  0  0  0  0  0  0
  1  2  1  0  0  0  0
  2  3  1  0  0  0  0
  3  4  1  0  0  0  0
  4  5  1  0  0  0  0
  5  6  1  0  0  0  0
  3  7  1  0  0  0  0
  5  8  1  0  0  0  0
M  END
>  <cdx:fragmentId>
3

$$$$
