92177.cdx
  Mrv1902 05222410272D          

  9  8  0  0  0  0            999 V2000
    9.7976   -7.1913    0.0000 C   0  0  0  0  0  0  0  0  0  0  0  0
    9.0831   -6.7788    0.0000 C   0  0  0  0  0  0  0  0  0  0  0  0
    8.3686   -7.1913    0.0000 C   0  0  0  0  0  0  0  0  0  0  0  0
    7.6542   -6.7788    0.0000 C   0  0  0  0  0  0  0  0  0  0  0  0
    6.9397   -7.1913    0.0000 C   0  0  0  0  0  0  0  0  0  0  0  0
    6.2252   -6.7788    0.0000 C   0  0  0  0  0  0  0  0  0  0  0  0
    5.5107   -7.1913    0.0000 C   0  0  0  0  0  0  0  0  0  0  0  0
    4.7963   -6.7788    0.0000 C   0  0  0  0  0  0  0  0  0  0  0  0
    6.9397   -8.0162    0.0000 O   0  0  0  0  0  0  0  0  0  0  0  0
  2  1  1  0  0  0  0
  3  2  1  0  0  0  0
  4  3  1  0  0  0  0
  5  4  1  0  0  0  0
  6  5  1  0  0  0  0
  7  6  1  0  0  0  0
  8  7  1  0  0  0  0
  5  9  2  0  0  0  0
M  END
>  <cdx:fragmentId>
3

$$$$
