92174.cdx
  Mrv1902 05222410282D          

 11 10  0  0  0  0            999 V2000
    2.7613   -6.7237    0.0000 C   0  0  0  0  0  0  0  0  0  0  0  0
    3.4757   -6.3113    0.0000 C   0  0  0  0  0  0  0  0  0  0  0  0
    4.1902   -6.7237    0.0000 C   0  0  0  0  0  0  0  0  0  0  0  0
    4.9047   -6.3113    0.0000 C   0  0  0  0  0  0  0  0  0  0  0  0
    5.6192   -6.7237    0.0000 C   0  0  0  0  0  0  0  0  0  0  0  0
    6.3336   -6.3113    0.0000 C   0  0  0  0  0  0  0  0  0  0  0  0
    7.0481   -6.7237    0.0000 C   0  0  0  0  0  0  0  0  0  0  0  0
    7.7626   -6.3113    0.0000 C   0  0  0  0  0  0  0  0  0  0  0  0
    8.4770   -6.7237    0.0000 O   0  0  0  0  0  0  0  0  0  0  0  0
    5.6192   -7.5488    0.0000 C   0  0  0  0  0  0  0  0  0  0  0  0
    7.7626   -5.4863    0.0000 O   0  0  0  0  0  0  0  0  0  0  0  0
  1  2  1  0  0  0  0
  2  3  1  0  0  0  0
  3  4  1  0  0  0  0
  4  5  1  0  0  0  0
  5  6  1  0  0  0  0
  6  7  1  0  0  0  0
  7  8  1  0  0  0  0
  8  9  1  0  0  0  0
  5 10  1  0  0  0  0
  8 11  2  0  0  0  0
M  END
>  <cdx:fragmentId>
3

$$$$
