92176.cdx
  Mrv1902 05222410272D          

 19 18  0  0  0  0            999 V2000
   13.6693   -7.7201    0.0000 C   0  0  0  0  0  0  0  0  0  0  0  0
   12.9548   -7.3076    0.0000 C   0  0  0  0  0  0  0  0  0  0  0  0
   12.2403   -7.7201    0.0000 C   0  0  0  0  0  0  0  0  0  0  0  0
   11.5258   -7.3076    0.0000 C   0  0  0  0  0  0  0  0  0  0  0  0
   10.8114   -7.7201    0.0000 C   0  0  0  0  0  0  0  0  0  0  0  0
   10.0969   -7.3076    0.0000 C   0  0  0  0  0  0  0  0  0  0  0  0
    9.3824   -7.7201    0.0000 C   0  0  0  0  0  0  0  0  0  0  0  0
    8.6680   -7.3076    0.0000 C   0  0  0  0  0  0  0  0  0  0  0  0
    7.9535   -7.7201    0.0000 C   0  0  0  0  0  0  0  0  0  0  0  0
    7.2390   -7.3076    0.0000 C   0  0  0  0  0  0  0  0  0  0  0  0
    6.5245   -7.7201    0.0000 C   0  0  0  0  0  0  0  0  0  0  0  0
    5.8101   -7.3076    0.0000 C   0  0  0  0  0  0  0  0  0  0  0  0
    5.0956   -7.7201    0.0000 C   0  0  0  0  0  0  0  0  0  0  0  0
    4.3811   -7.3076    0.0000 C   0  0  0  0  0  0  0  0  0  0  0  0
    3.6667   -7.7201    0.0000 C   0  0  0  0  0  0  0  0  0  0  0  0
    2.9522   -7.3076    0.0000 C   0  0  0  0  0  0  0  0  0  0  0  0
    2.2377   -7.7201    0.0000 C   0  0  0  0  0  0  0  0  0  0  0  0
    1.5232   -7.3076    0.0000 C   0  0  0  0  0  0  0  0  0  0  0  0
    0.8088   -7.7201    0.0000 O   0  0  0  0  0  0  0  0  0  0  0  0
  2  1  1  0  0  0  0
  3  2  1  0  0  0  0
  4  3  1  0  0  0  0
  5  4  1  0  0  0  0
  6  5  1  0  0  0  0
  7  6  1  0  0  0  0
  8  7  1  0  0  0  0
  9  8  1  0  0  0  0
 10  9  1  0  0  0  0
 11 10  1  0  0  0  0
 12 11  1  0  0  0  0
 13 12  1  0  0  0  0
 14 13  1  0  0  0  0
 15 14  2  0  0  0  0
 16 15  1  0  0  0  0
 17 16  1  0  0  0  0
 18 17  1  0  0  0  0
 19 18  2  0  0  0  0
M  END
>  <cdx:fragmentId>
3

$$$$
