92178.cdx
  Mrv1902 05222410182D          

  8  7  0  0  0  0            999 V2000
    6.2252   -6.7788    0.0000 C   0  0  0  0  0  0  0  0  0  0  0  0
    5.5107   -7.1913    0.0000 C   0  0  0  0  0  0  0  0  0  0  0  0
    4.7963   -6.7788    0.0000 C   0  0  0  0  0  0  0  0  0  0  0  0
    6.9397   -6.3662    0.0000 C   0  0  0  0  0  0  0  0  0  0  0  0
    4.0818   -7.1913    0.0000 C   0  0  0  0  0  0  0  0  0  0  0  0
    7.6542   -5.9538    0.0000 C   0  0  0  0  0  0  0  0  0  0  0  0
    8.3686   -6.3662    0.0000 C   0  0  0  0  0  0  0  0  0  0  0  0
    9.0831   -5.9538    0.0000 C   0  0  0  0  0  0  0  0  0  0  0  0
  2  1  1  0  0  0  0
  3  2  1  0  0  0  0
  1  4  3  0  0  0  0
  3  5  1  0  0  0  0
  4  6  1  0  0  0  0
  6  7  1  0  0  0  0
  7  8  1  0  0  0  0
M  END
>  <cdx:fragmentId>
26

$$$$
