92175.cdx
  Mrv1902 05222410282D          

 14 16  0  0  0  0            999 V2000
    5.0689   -6.8304    0.0000 C   0  0  0  0  0  0  0  0  0  0  0  0
    4.8255   -6.0421    0.0000 C   0  0  0  0  0  0  0  0  0  0  0  0
    5.3865   -5.4372    0.0000 C   0  0  0  0  0  0  0  0  0  0  0  0
    6.1908   -5.6206    0.0000 C   0  0  0  0  0  0  0  0  0  0  0  0
    6.4342   -6.4088    0.0000 C   0  0  0  0  0  0  0  0  0  0  0  0
    5.8732   -7.0138    0.0000 C   0  0  0  0  0  0  0  0  0  0  0  0
    6.8653   -5.1455    0.0000 N   0  0  0  0  0  0  0  0  0  0  0  0
    7.5256   -5.6402    0.0000 C   0  0  0  0  0  0  0  0  0  0  0  0
    7.2591   -6.4210    0.0000 C   0  0  0  0  0  0  0  0  0  0  0  0
    8.3350   -5.4805    0.0000 C   0  0  0  0  0  0  0  0  0  0  0  0
    8.8779   -6.1016    0.0000 N   0  0  0  0  0  0  0  0  0  0  0  0
    8.6115   -6.8824    0.0000 C   0  0  0  0  0  0  0  0  0  0  0  0
    7.8021   -7.0421    0.0000 C   0  0  0  0  0  0  0  0  0  0  0  0
    7.5357   -7.8229    0.0000 C   0  0  0  0  0  0  0  0  0  0  0  0
  1  2  2  0  0  0  0
  2  3  1  0  0  0  0
  3  4  2  0  0  0  0
  4  5  1  0  0  0  0
  5  6  2  0  0  0  0
  6  1  1  0  0  0  0
  4  7  1  0  0  0  0
  7  8  1  0  0  0  0
  8  9  2  0  0  0  0
  9  5  1  0  0  0  0
  8 10  1  0  0  0  0
 10 11  2  0  0  0  0
 11 12  1  0  0  0  0
 12 13  2  0  0  0  0
 13  9  1  0  0  0  0
 13 14  1  0  0  0  0
M  END
>  <cdx:fragmentId>
5

$$$$
