92183.cdx
  Mrv1902 05222410202D          

  6  5  0  0  0  0            999 V2000
    7.4225   -8.4150    0.0000 O   0  0  0  0  0  0  0  0  0  0  0  0
    8.1370   -8.0025    0.0000 C   0  0  0  0  0  0  0  0  0  0  0  0
    8.8515   -8.4150    0.0000 C   0  0  0  0  0  0  0  0  0  0  0  0
    9.5659   -8.0025    0.0000 C   0  0  0  0  0  0  0  0  0  0  0  0
   10.2804   -8.4150    0.0000 C   0  0  0  0  0  0  0  0  0  0  0  0
   10.9949   -8.0025    0.0000 C   0  0  0  0  0  0  0  0  0  0  0  0
  1  2  2  0  0  0  0
  2  3  1  0  0  0  0
  3  4  1  0  0  0  0
  4  5  1  0  0  0  0
  5  6  2  0  0  0  0
M  END
>  <cdx:fragmentId>
3

$$$$
