92187.cdx
  Mrv1902 05222410182D          

 19 20  0  0  0  0            999 V2000
    4.9618   -6.9025    0.0000 C   0  0  0  0  0  0  0  0  0  0  0  0
    4.9618   -7.7275    0.0000 C   0  0  0  0  0  0  0  0  0  0  0  0
    5.6763   -8.1400    0.0000 C   0  0  1  0  0  0  0  0  0  0  0  0
    6.3907   -7.7275    0.0000 C   0  0  2  0  0  0  0  0  0  0  0  0
    6.3907   -6.9025    0.0000 C   0  0  1  0  0  0  0  0  0  0  0  0
    5.6763   -6.4900    0.0000 C   0  0  0  0  0  0  0  0  0  0  0  0
    7.1052   -8.1400    0.0000 C   0  0  0  0  0  0  0  0  0  0  0  0
    7.8197   -7.7275    0.0000 C   0  0  2  0  0  0  0  0  0  0  0  0
    7.8197   -6.9025    0.0000 C   0  0  0  0  0  0  0  0  0  0  0  0
    7.1052   -6.4900    0.0000 C   0  0  0  0  0  0  0  0  0  0  0  0
    8.5342   -8.1400    0.0000 C   0  0  0  0  0  0  0  0  0  0  0  0
    9.2486   -7.7275    0.0000 C   0  0  0  0  0  0  0  0  0  0  0  0
    8.5342   -8.9650    0.0000 C   0  0  0  0  0  0  0  0  0  0  0  0
    9.2486   -8.5525    0.0000 O   0  0  0  0  0  0  0  0  0  0  0  0
    5.2638   -8.8545    0.0000 O   0  0  0  0  0  0  0  0  0  0  0  0
    6.3907   -8.5525    0.0000 H   0  0  0  0  0  0  0  0  0  0  0  0
    7.8197   -8.5525    0.0000 O   0  0  0  0  0  0  0  0  0  0  0  0
    6.0888   -8.8545    0.0000 C   0  0  0  0  0  0  0  0  0  0  0  0
    6.3907   -6.0775    0.0000 C   0  0  0  0  0  0  0  0  0  0  0  0
  1  2  1  0  0  0  0
  2  3  1  0  0  0  0
  3  4  1  0  0  0  0
  4  5  1  0  0  0  0
  5  6  1  0  0  0  0
  6  1  1  0  0  0  0
  4  7  1  0  0  0  0
  7  8  1  0  0  0  0
  8  9  1  0  0  0  0
  9 10  1  0  0  0  0
 10  5  1  0  0  0  0
  8 11  1  6  0  0  0
 11 12  1  0  0  0  0
 11 13  1  0  0  0  0
 11 14  1  0  0  0  0
  3 15  1  1  0  0  0
  4 16  1  1  0  0  0
  8 17  1  1  0  0  0
  3 18  1  6  0  0  0
  5 19  1  6  0  0  0
M  END
>  <cdx:fragmentId>
5

$$$$
