92182.cdx
  Mrv1902 05222410202D          

 23 24  0  0  0  0            999 V2000
    6.1168   -6.3662    0.0000 C   0  0  0  0  0  0  0  0  0  0  0  0
    6.1168   -7.1913    0.0000 C   0  0  0  0  0  0  0  0  0  0  0  0
    6.8313   -7.6037    0.0000 C   0  0  0  0  0  0  0  0  0  0  0  0
    7.5457   -7.1913    0.0000 C   0  0  0  0  0  0  0  0  0  0  0  0
    7.5457   -6.3662    0.0000 C   0  0  0  0  0  0  0  0  0  0  0  0
    6.8313   -5.9538    0.0000 C   0  0  0  0  0  0  0  0  0  0  0  0
    8.2602   -5.9538    0.0000 C   0  0  0  0  0  0  0  0  0  0  0  0
    8.9747   -6.3662    0.0000 C   0  0  0  0  0  0  0  0  0  0  0  0
    9.6892   -5.9538    0.0000 C   0  0  0  0  0  0  0  0  0  0  0  0
   10.4036   -6.3662    0.0000 O   0  0  0  0  0  0  0  0  0  0  0  0
    9.6892   -5.1287    0.0000 O   0  0  0  0  0  0  0  0  0  0  0  0
    5.4023   -7.6037    0.0000 O   0  0  0  0  0  0  0  0  0  0  0  0
    4.6879   -7.1913    0.0000 C   0  0  2  0  0  0  0  0  0  0  0  0
    4.6879   -6.3662    0.0000 O   0  0  0  0  0  0  0  0  0  0  0  0
    3.9734   -5.9538    0.0000 C   0  0  1  0  0  0  0  0  0  0  0  0
    3.2589   -6.3662    0.0000 C   0  0  2  0  0  0  0  0  0  0  0  0
    3.2589   -7.1913    0.0000 C   0  0  1  0  0  0  0  0  0  0  0  0
    3.9734   -7.6037    0.0000 C   0  0  1  0  0  0  0  0  0  0  0  0
    3.9734   -5.1287    0.0000 C   0  0  0  0  0  0  0  0  0  0  0  0
    2.5444   -7.6037    0.0000 O   0  0  0  0  0  0  0  0  0  0  0  0
    2.5444   -5.9538    0.0000 O   0  0  0  0  0  0  0  0  0  0  0  0
    3.9734   -8.4287    0.0000 O   0  0  0  0  0  0  0  0  0  0  0  0
    3.2589   -4.7162    0.0000 O   0  0  0  0  0  0  0  0  0  0  0  0
  1  2  2  0  0  0  0
  2  3  1  0  0  0  0
  3  4  2  0  0  0  0
  4  5  1  0  0  0  0
  5  6  2  0  0  0  0
  6  1  1  0  0  0  0
  5  7  1  0  0  0  0
  7  8  2  0  0  0  0
  8  9  1  0  0  0  0
  9 10  1  0  0  0  0
  9 11  2  0  0  0  0
  2 12  1  0  0  0  0
 13 12  1  1  0  0  0
 13 14  1  0  0  0  0
 14 15  1  0  0  0  0
 15 16  1  0  0  0  0
 16 17  1  0  0  0  0
 17 18  1  0  0  0  0
 18 13  1  0  0  0  0
 15 19  1  1  0  0  0
 17 20  1  1  0  0  0
 16 21  1  6  0  0  0
 18 22  1  6  0  0  0
 19 23  1  0  0  0  0
M  END
>  <cdx:fragmentId>
5

$$$$
