92186.cdx
  Mrv1902 05222410182D          

 19 22  0  0  0  0            999 V2000
    4.2331   -6.6688    0.0000 C   0  0  0  0  0  0  0  0  0  0  0  0
    4.2331   -7.4937    0.0000 C   0  0  1  0  0  0  0  0  0  0  0  0
    4.9475   -7.9063    0.0000 C   0  0  2  0  0  0  0  0  0  0  0  0
    5.6620   -7.4937    0.0000 C   0  0  1  0  0  0  0  0  0  0  0  0
    5.6620   -6.6688    0.0000 C   0  0  1  0  0  0  0  0  0  0  0  0
    4.9475   -6.2563    0.0000 C   0  0  1  0  0  0  0  0  0  0  0  0
    6.3765   -7.9063    0.0000 C   0  0  0  0  0  0  0  0  0  0  0  0
    7.0909   -7.4937    0.0000 C   0  0  0  0  0  0  0  0  0  0  0  0
    7.0909   -6.6688    0.0000 C   0  0  0  0  0  0  0  0  0  0  0  0
    6.3765   -6.2563    0.0000 C   0  0  0  0  0  0  0  0  0  0  0  0
    7.8756   -7.7487    0.0000 C   0  0  0  0  0  0  0  0  0  0  0  0
    8.3605   -7.0812    0.0000 C   0  0  0  0  0  0  0  0  0  0  0  0
    7.8756   -6.4138    0.0000 O   0  0  0  0  0  0  0  0  0  0  0  0
    8.1305   -8.5333    0.0000 C   0  0  0  0  0  0  0  0  0  0  0  0
    9.1855   -7.0812    0.0000 O   0  0  0  0  0  0  0  0  0  0  0  0
    5.6620   -5.8438    0.0000 C   0  0  0  0  0  0  0  0  0  0  0  0
    5.6620   -8.3187    0.0000 H   0  0  0  0  0  0  0  0  0  0  0  0
    4.3642   -8.4896    0.0000 O   0  0  0  0  0  0  0  0  0  0  0  0
    4.9475   -8.7313    0.0000 C   0  0  0  0  0  0  0  0  0  0  0  0
  2  1  1  6  0  0  0
  2  3  1  0  0  0  0
  3  4  1  0  0  0  0
  4  5  1  0  0  0  0
  5  6  1  0  0  0  0
  6  1  1  6  0  0  0
  4  7  1  0  0  0  0
  7  8  1  0  0  0  0
  8  9  1  0  0  0  0
  9 10  2  0  0  0  0
 10  5  1  0  0  0  0
  8 11  2  0  0  0  0
 11 12  1  0  0  0  0
 12 13  1  0  0  0  0
  9 13  1  6  0  0  0
  2  6  1  0  0  0  0
 11 14  1  0  0  0  0
 12 15  2  0  0  0  0
  5 16  1  6  0  0  0
  4 17  1  6  0  0  0
  3 18  1  6  0  0  0
  3 19  1  1  0  0  0
M  END
>  <cdx:fragmentId>
5

$$$$
