92185.cdx
  Mrv1902 05222410182D          

  9  8  0  0  0  0            999 V2000
    6.2395   -5.9437    0.0000 C   0  0  0  0  0  0  0  0  0  0  0  0
    6.9582   -5.5387    0.0000 C   0  0  0  0  0  0  0  0  0  0  0  0
    8.4213   -2.2536    0.0000 O   0  0  0  0  0  0  0  0  0  0  0  0
    9.1229   -3.4985    0.0000 O   0  0  0  0  0  0  0  0  0  0  0  0
    6.9668   -4.7137    0.0000 S   0  0  0  0  0  0  0  0  0  0  0  0
    7.6855   -4.3086    0.0000 C   0  0  0  0  0  0  0  0  0  0  0  0
    7.6940   -3.4837    0.0000 C   0  0  2  0  0  0  0  0  0  0  0  0
    6.9839   -3.0638    0.0000 N   0  0  0  0  0  0  0  0  0  0  0  0
    8.4127   -3.0786    0.0000 C   0  0  0  0  0  0  0  0  0  0  0  0
  5  2  1  0  0  0  0
  2  1  1  0  0  0  0
  9  3  1  0  0  0  0
  9  4  2  0  0  0  0
  6  5  1  0  0  0  0
  7  6  1  0  0  0  0
  9  7  1  0  0  0  0
  7  8  1  6  0  0  0
M  END
>  <cdx:groupId>
28

>  <cdx:fragmentId>
5

$$$$
