92189.cdx
  Mrv1902 05222410272D          

 28 30  0  0  0  0            999 V2000
    8.4040   -7.9460    0.0000 O   0  0  0  0  0  0  0  0  0  0  0  0
    8.8890   -8.6135    0.0000 C   0  0  0  0  0  0  0  0  0  0  0  0
    8.4040   -9.2809    0.0000 C   0  0  0  0  0  0  0  0  0  0  0  0
    7.6194   -9.0260    0.0000 C   0  0  0  0  0  0  0  0  0  0  0  0
    7.6194   -8.2010    0.0000 C   0  0  0  0  0  0  0  0  0  0  0  0
    6.9050   -9.4385    0.0000 C   0  0  0  0  0  0  0  0  0  0  0  0
    6.1905   -9.0260    0.0000 C   0  0  0  0  0  0  0  0  0  0  0  0
    6.1905   -8.2010    0.0000 C   0  0  0  0  0  0  0  0  0  0  0  0
    6.9050   -7.7885    0.0000 C   0  0  0  0  0  0  0  0  0  0  0  0
    8.6590  -10.0655    0.0000 C   0  0  0  0  0  0  0  0  0  0  0  0
    6.9050   -6.9635    0.0000 O   0  0  0  0  0  0  0  0  0  0  0  0
    7.6194   -6.5510    0.0000 C   0  0  0  0  0  0  0  0  0  0  0  0
    9.7140   -8.6135    0.0000 C   0  0  0  0  0  0  0  0  0  0  0  0
   10.1265   -7.8990    0.0000 C   0  0  0  0  0  0  0  0  0  0  0  0
   10.9515   -7.8990    0.0000 C   0  0  0  0  0  0  0  0  0  0  0  0
   11.3640   -8.6135    0.0000 C   0  0  0  0  0  0  0  0  0  0  0  0
   10.9515   -9.3279    0.0000 C   0  0  0  0  0  0  0  0  0  0  0  0
   10.1265   -9.3279    0.0000 C   0  0  0  0  0  0  0  0  0  0  0  0
   11.3640   -7.1845    0.0000 O   0  0  0  0  0  0  0  0  0  0  0  0
   12.1890   -7.1845    0.0000 C   0  0  0  0  0  0  0  0  0  0  0  0
   12.1890   -8.6135    0.0000 O   0  0  0  0  0  0  0  0  0  0  0  0
    5.4760   -9.4385    0.0000 C   0  0  0  0  0  0  0  0  0  0  0  0
    4.7615   -9.0260    0.0000 C   0  0  0  0  0  0  0  0  0  0  0  0
    4.0471   -9.4385    0.0000 C   0  0  0  0  0  0  0  0  0  0  0  0
    3.3326   -9.0260    0.0000 O   0  0  0  0  0  0  0  0  0  0  0  0
    2.6181   -9.4385    0.0000 C   0  0  0  0  0  0  0  0  0  0  0  0
    2.6181  -10.2635    0.0000 O   0  0  0  0  0  0  0  0  0  0  0  0
    1.9037   -9.0260    0.0000 C   0  0  0  0  0  0  0  0  0  0  0  0
  1  2  1  0  0  0  0
  2  3  2  0  0  0  0
  3  4  1  0  0  0  0
  4  5  1  0  0  0  0
  1  5  1  0  0  0  0
  6  7  1  0  0  0  0
  7  8  2  0  0  0  0
  8  9  1  0  0  0  0
  9  5  2  0  0  0  0
  6  4  2  0  0  0  0
  3 10  1  0  0  0  0
 11 12  1  0  0  0  0
  9 11  1  0  0  0  0
 13 14  1  0  0  0  0
 14 15  2  0  0  0  0
 15 16  1  0  0  0  0
 16 17  2  0  0  0  0
 17 18  1  0  0  0  0
 13 18  2  0  0  0  0
 19 20  1  0  0  0  0
 15 19  1  0  0  0  0
 16 21  1  0  0  0  0
  2 13  1  0  0  0  0
 22 23  1  0  0  0  0
 23 24  1  0  0  0  0
 26 27  2  0  0  0  0
 26 28  1  0  0  0  0
 25 26  1  0  0  0  0
 24 25  1  0  0  0  0
  7 22  1  0  0  0  0
M  END
>  <cdx:fragmentId>
5

$$$$
