92180.cdx
  Mrv1902 05222410192D          

 32 35  0  0  0  0            999 V2000
    5.9656   -6.8062    0.0000 C   0  0  0  0  0  0  0  0  0  0  0  0
    5.9656   -7.6313    0.0000 C   0  0  0  0  0  0  0  0  0  0  0  0
    6.6800   -8.0437    0.0000 C   0  0  0  0  0  0  0  0  0  0  0  0
    7.3945   -7.6313    0.0000 C   0  0  0  0  0  0  0  0  0  0  0  0
    7.3945   -6.8062    0.0000 C   0  0  0  0  0  0  0  0  0  0  0  0
    6.6800   -6.3937    0.0000 C   0  0  0  0  0  0  0  0  0  0  0  0
    8.1090   -8.0437    0.0000 C   0  0  0  0  0  0  0  0  0  0  0  0
    8.8234   -7.6313    0.0000 C   0  0  0  0  0  0  0  0  0  0  0  0
    8.8234   -6.8062    0.0000 C   0  0  0  0  0  0  0  0  0  0  0  0
    8.1090   -6.3937    0.0000 O   0  0  0  0  0  0  0  0  0  0  0  0
    6.6800   -8.8688    0.0000 O   0  0  0  0  0  0  0  0  0  0  0  0
    8.1090   -8.8688    0.0000 O   0  0  0  0  0  0  0  0  0  0  0  0
   10.2524   -6.8062    0.0000 C   0  0  0  0  0  0  0  0  0  0  0  0
    9.5379   -6.3937    0.0000 C   0  0  0  0  0  0  0  0  0  0  0  0
   10.9669   -6.3937    0.0000 C   0  0  0  0  0  0  0  0  0  0  0  0
   10.9669   -5.5687    0.0000 C   0  0  0  0  0  0  0  0  0  0  0  0
   10.2524   -5.1563    0.0000 C   0  0  0  0  0  0  0  0  0  0  0  0
    9.5379   -5.5687    0.0000 C   0  0  0  0  0  0  0  0  0  0  0  0
    5.2511   -6.3937    0.0000 O   0  0  0  0  0  0  0  0  0  0  0  0
   11.6813   -5.1563    0.0000 O   0  0  0  0  0  0  0  0  0  0  0  0
    4.5366   -6.8062    0.0000 C   0  0  2  0  0  0  0  0  0  0  0  0
    3.8221   -6.3937    0.0000 O   0  0  0  0  0  0  0  0  0  0  0  0
    3.1077   -6.8062    0.0000 C   0  0  1  0  0  0  0  0  0  0  0  0
    3.1077   -7.6313    0.0000 C   0  0  2  0  0  0  0  0  0  0  0  0
    3.8221   -8.0437    0.0000 C   0  0  1  0  0  0  0  0  0  0  0  0
    4.5366   -7.6313    0.0000 C   0  0  1  0  0  0  0  0  0  0  0  0
    2.3932   -6.3937    0.0000 C   0  0  0  0  0  0  0  0  0  0  0  0
    3.8221   -8.8688    0.0000 O   0  0  0  0  0  0  0  0  0  0  0  0
    5.2511   -8.0437    0.0000 O   0  0  0  0  0  0  0  0  0  0  0  0
    2.3932   -8.0437    0.0000 O   0  0  0  0  0  0  0  0  0  0  0  0
    1.6787   -6.8062    0.0000 O   0  0  0  0  0  0  0  0  0  0  0  0
   10.2524   -4.3313    0.0000 O   0  0  0  0  0  0  0  0  0  0  0  0
  1  2  2  0  0  0  0
  2  3  1  0  0  0  0
  3  4  2  0  0  0  0
  4  5  1  0  0  0  0
  5  6  2  0  0  0  0
  6  1  1  0  0  0  0
  4  7  1  0  0  0  0
  7  8  1  0  0  0  0
  8  9  2  0  0  0  0
  9 10  1  0  0  0  0
 10  5  1  0  0  0  0
  3 11  1  0  0  0  0
 12  7  2  0  0  0  0
 13 14  2  0  0  0  0
 14  9  1  0  0  0  0
 13 15  1  0  0  0  0
 15 16  2  0  0  0  0
 16 17  1  0  0  0  0
 17 18  2  0  0  0  0
 18 14  1  0  0  0  0
 19  1  1  0  0  0  0
 16 20  1  0  0  0  0
 21 19  1  1  0  0  0
 21 22  1  0  0  0  0
 22 23  1  0  0  0  0
 23 24  1  0  0  0  0
 24 25  1  0  0  0  0
 25 26  1  0  0  0  0
 26 21  1  0  0  0  0
 23 27  1  1  0  0  0
 25 28  1  1  0  0  0
 26 29  1  6  0  0  0
 24 30  1  6  0  0  0
 27 31  1  0  0  0  0
 17 32  1  0  0  0  0
M  END
>  <cdx:fragmentId>
169

$$$$
