92181.cdx
  Mrv1902 05222410202D          

 30 35  0  0  0  0            999 V2000
    6.3093   -4.2075    0.0000 C   0  0  0  0  0  0  0  0  0  0  0  0
    6.3093   -5.0325    0.0000 C   0  0  0  0  0  0  0  0  0  0  0  0
    7.0238   -5.4450    0.0000 C   0  0  0  0  0  0  0  0  0  0  0  0
    7.7382   -5.0325    0.0000 C   0  0  0  0  0  0  0  0  0  0  0  0
    7.7382   -4.2075    0.0000 C   0  0  0  0  0  0  0  0  0  0  0  0
    7.0238   -3.7950    0.0000 C   0  0  0  0  0  0  0  0  0  0  0  0
    6.8522   -2.9880    0.0000 O   0  0  0  0  0  0  0  0  0  0  0  0
    6.0318   -2.9018    0.0000 C   0  0  0  0  0  0  0  0  0  0  0  0
    5.6962   -3.6555    0.0000 O   0  0  0  0  0  0  0  0  0  0  0  0
    7.0238   -6.2700    0.0000 C   0  0  2  0  0  0  0  0  0  0  0  0
    6.3563   -6.7549    0.0000 O   0  0  0  0  0  0  0  0  0  0  0  0
    6.6113   -7.5395    0.0000 C   0  0  0  0  0  0  0  0  0  0  0  0
    7.4363   -7.5395    0.0000 C   0  0  2  0  0  0  0  0  0  0  0  0
    7.6912   -6.7549    0.0000 C   0  0  1  0  0  0  0  0  0  0  0  0
    8.1037   -8.0245    0.0000 C   0  0  1  0  0  0  0  0  0  0  0  0
    8.7712   -7.5395    0.0000 O   0  0  0  0  0  0  0  0  0  0  0  0
    8.5162   -6.7549    0.0000 C   0  0  0  0  0  0  0  0  0  0  0  0
    8.1037   -8.8495    0.0000 C   0  0  0  0  0  0  0  0  0  0  0  0
    7.3892   -9.2620    0.0000 C   0  0  0  0  0  0  0  0  0  0  0  0
    7.3892  -10.0870    0.0000 C   0  0  0  0  0  0  0  0  0  0  0  0
    8.1037  -10.4995    0.0000 C   0  0  0  0  0  0  0  0  0  0  0  0
    8.8182  -10.0870    0.0000 C   0  0  0  0  0  0  0  0  0  0  0  0
    8.8182   -9.2620    0.0000 C   0  0  0  0  0  0  0  0  0  0  0  0
    9.6028  -10.3419    0.0000 O   0  0  0  0  0  0  0  0  0  0  0  0
   10.0877   -9.6745    0.0000 C   0  0  0  0  0  0  0  0  0  0  0  0
    9.6028   -9.0070    0.0000 O   0  0  0  0  0  0  0  0  0  0  0  0
    7.9462   -5.9703    0.0000 H   0  0  0  0  0  0  0  0  0  0  0  0
    7.1813   -8.3242    0.0000 H   0  0  0  0  0  0  0  0  0  0  0  0
    8.8182   -8.4370    0.0000 H   0  0  0  0  0  0  0  0  0  0  0  0
    9.0011   -6.0875    0.0000 O   0  0  0  0  0  0  0  0  0  0  0  0
  1  2  2  0  0  0  0
  2  3  1  0  0  0  0
  3  4  2  0  0  0  0
  4  5  1  0  0  0  0
  5  6  2  0  0  0  0
  6  1  1  0  0  0  0
  6  7  1  0  0  0  0
  7  8  1  0  0  0  0
  8  9  1  0  0  0  0
  9  1  1  0  0  0  0
 10  3  1  1  0  0  0
 10 11  1  0  0  0  0
 11 12  1  0  0  0  0
 12 13  1  0  0  0  0
 13 14  1  0  0  0  0
 14 10  1  0  0  0  0
 13 15  1  0  0  0  0
 15 16  1  0  0  0  0
 16 17  1  0  0  0  0
 17 14  1  0  0  0  0
 15 18  1  0  0  0  0
 18 19  2  0  0  0  0
 19 20  1  0  0  0  0
 20 21  2  0  0  0  0
 21 22  1  0  0  0  0
 22 23  2  0  0  0  0
 23 18  1  0  0  0  0
 22 24  1  0  0  0  0
 24 25  1  0  0  0  0
 25 26  1  0  0  0  0
 26 23  1  0  0  0  0
 14 27  1  1  0  0  0
 13 28  1  1  0  0  0
 15 29  1  6  0  0  0
 17 30  2  0  0  0  0
M  END
>  <cdx:fragmentId>
5

$$$$
