92191.cdx
  Mrv1902 05222410182D          

 14 14  0  0  0  0            999 V2000
    5.9931   -8.1813    0.0000 C   0  0  0  0  0  0  0  0  0  0  0  0
    5.9931   -9.0062    0.0000 C   0  0  0  0  0  0  0  0  0  0  0  0
    6.7075   -9.4187    0.0000 C   0  0  0  0  0  0  0  0  0  0  0  0
    7.4220   -9.0062    0.0000 C   0  0  0  0  0  0  0  0  0  0  0  0
    7.4220   -8.1813    0.0000 C   0  0  0  0  0  0  0  0  0  0  0  0
    6.7075   -7.7687    0.0000 C   0  0  0  0  0  0  0  0  0  0  0  0
    6.7075   -6.9438    0.0000 O   0  0  0  0  0  0  0  0  0  0  0  0
    6.2950  -10.1332    0.0000 C   0  0  0  0  0  0  0  0  0  0  0  0
    7.1200  -10.1332    0.0000 C   0  0  0  0  0  0  0  0  0  0  0  0
    8.1365   -7.7687    0.0000 C   0  0  0  0  0  0  0  0  0  0  0  0
    8.1365   -9.4187    0.0000 C   0  0  0  0  0  0  0  0  0  0  0  0
    8.8509   -9.0062    0.0000 C   0  0  0  0  0  0  0  0  0  0  0  0
    9.5654   -9.4187    0.0000 C   0  0  0  0  0  0  0  0  0  0  0  0
   10.2799   -9.0062    0.0000 C   0  0  0  0  0  0  0  0  0  0  0  0
  1  2  1  0  0  0  0
  2  3  1  0  0  0  0
  3  4  1  0  0  0  0
  4  5  2  0  0  0  0
  5  6  1  0  0  0  0
  6  1  2  0  0  0  0
  6  7  1  0  0  0  0
  3  8  1  0  0  0  0
  3  9  1  0  0  0  0
  5 10  1  0  0  0  0
  4 11  1  0  0  0  0
 11 12  2  0  0  0  0
 12 13  1  0  0  0  0
 13 14  2  0  0  0  0
M  END
>  <cdx:fragmentId>
5

$$$$
