92192.cdx
  Mrv1902 05222410182D          

 12 12  0  0  0  0            999 V2000
    5.2984   -9.6749    0.0000 C   0  0  0  0  0  0  0  0  0  0  0  0
    5.5365  -10.4648    0.0000 C   0  0  0  0  0  0  0  0  0  0  0  0
    6.3613  -10.4825    0.0000 C   0  0  0  0  0  0  0  0  0  0  0  0
    6.6330   -9.7035    0.0000 C   0  0  0  0  0  0  0  0  0  0  0  0
    5.9761   -9.2044    0.0000 N   0  0  0  0  0  0  0  0  0  0  0  0
    5.9938   -8.3796    0.0000 C   0  0  0  0  0  0  0  0  0  0  0  0
    6.7082   -7.9671    0.0000 C   0  0  0  0  0  0  0  0  0  0  0  0
    6.7082   -7.1421    0.0000 O   0  0  0  0  0  0  0  0  0  0  0  0
    7.4229   -9.4655    0.0000 C   0  0  0  0  0  0  0  0  0  0  0  0
    7.6117   -8.6624    0.0000 O   0  0  0  0  0  0  0  0  0  0  0  0
    8.0240  -10.0305    0.0000 C   0  0  0  0  0  0  0  0  0  0  0  0
    8.8209   -9.8170    0.0000 O   0  0  0  0  0  0  0  0  0  0  0  0
  1  2  2  0  0  0  0
  2  3  1  0  0  0  0
  3  4  2  0  0  0  0
  4  5  1  0  0  0  0
  5  1  1  0  0  0  0
  5  6  1  0  0  0  0
  6  7  1  0  0  0  0
  7  8  1  0  0  0  0
  4  9  1  0  0  0  0
  9 10  2  0  0  0  0
  9 11  1  0  0  0  0
 11 12  1  0  0  0  0
M  END
>  <cdx:fragmentId>
5

$$$$
