92199.cdx
  Mrv1902 05222410272D          

 27 29  0  0  0  0            999 V2000
    7.5529   -8.1013    0.0000 C   0  0  0  0  0  0  0  0  0  0  0  0
    7.5529   -8.9263    0.0000 C   0  0  0  0  0  0  0  0  0  0  0  0
    6.8384   -9.3388    0.0000 C   0  0  0  0  0  0  0  0  0  0  0  0
    6.8384  -10.1638    0.0000 O   0  0  0  0  0  0  0  0  0  0  0  0
    6.1239   -8.9263    0.0000 C   0  0  0  0  0  0  0  0  0  0  0  0
    5.4095   -9.3388    0.0000 C   0  0  0  0  0  0  0  0  0  0  0  0
    4.6950   -8.9263    0.0000 C   0  0  0  0  0  0  0  0  0  0  0  0
    4.6950   -8.1013    0.0000 C   0  0  0  0  0  0  0  0  0  0  0  0
    5.4095   -7.6888    0.0000 C   0  0  0  0  0  0  0  0  0  0  0  0
    6.1239   -8.1013    0.0000 C   0  0  0  0  0  0  0  0  0  0  0  0
    6.8384   -7.6888    0.0000 O   0  0  0  0  0  0  0  0  0  0  0  0
    8.2674   -7.6888    0.0000 C   0  0  0  0  0  0  0  0  0  0  0  0
    8.2674   -6.8638    0.0000 C   0  0  0  0  0  0  0  0  0  0  0  0
    8.9818   -6.4513    0.0000 C   0  0  0  0  0  0  0  0  0  0  0  0
    9.6963   -6.8638    0.0000 C   0  0  0  0  0  0  0  0  0  0  0  0
    9.6963   -7.6888    0.0000 C   0  0  0  0  0  0  0  0  0  0  0  0
    8.9818   -8.1013    0.0000 C   0  0  0  0  0  0  0  0  0  0  0  0
   10.4108   -6.4513    0.0000 O   0  0  0  0  0  0  0  0  0  0  0  0
   11.1252   -6.8638    0.0000 C   0  0  0  0  0  0  0  0  0  0  0  0
    5.4095   -6.8638    0.0000 O   0  0  0  0  0  0  0  0  0  0  0  0
    4.6950   -6.4513    0.0000 C   0  0  0  0  0  0  0  0  0  0  0  0
    3.9805   -7.6888    0.0000 O   0  0  0  0  0  0  0  0  0  0  0  0
    3.2661   -8.1013    0.0000 C   0  0  0  0  0  0  0  0  0  0  0  0
    3.9805   -9.3388    0.0000 O   0  0  0  0  0  0  0  0  0  0  0  0
    3.2661   -8.9263    0.0000 C   0  0  0  0  0  0  0  0  0  0  0  0
    5.4095  -10.1638    0.0000 O   0  0  0  0  0  0  0  0  0  0  0  0
    4.6950  -10.5763    0.0000 C   0  0  0  0  0  0  0  0  0  0  0  0
  1  2  1  0  0  0  0
  2  3  1  0  0  0  0
  3  4  2  0  0  0  0
  3  5  1  0  0  0  0
  5  6  1  0  0  0  0
  6  7  2  0  0  0  0
  7  8  1  0  0  0  0
  8  9  2  0  0  0  0
  9 10  1  0  0  0  0
  5 10  2  0  0  0  0
 10 11  1  0  0  0  0
  1 11  1  0  0  0  0
  1 12  1  0  0  0  0
 12 13  1  0  0  0  0
 13 14  2  0  0  0  0
 14 15  1  0  0  0  0
 15 16  2  0  0  0  0
 16 17  1  0  0  0  0
 12 17  2  0  0  0  0
 18 19  1  0  0  0  0
 15 18  1  0  0  0  0
 20 21  1  0  0  0  0
  9 20  1  0  0  0  0
 22 23  1  0  0  0  0
  8 22  1  0  0  0  0
 24 25  1  0  0  0  0
  7 24  1  0  0  0  0
 26 27  1  0  0  0  0
  6 26  1  0  0  0  0
M  END
>  <cdx:fragmentId>
5

$$$$
