92198.cdx
  Mrv1902 05222410262D          

 29 31  0  0  0  0            999 V2000
    3.7518   -6.4763    0.0000 C   0  0  0  0  0  0  0  0  0  0  0  0
    3.7518   -7.3012    0.0000 C   0  0  0  0  0  0  0  0  0  0  0  0
    4.4663   -7.7138    0.0000 C   0  0  0  0  0  0  0  0  0  0  0  0
    5.1807   -7.3012    0.0000 C   0  0  0  0  0  0  0  0  0  0  0  0
    5.1807   -6.4763    0.0000 C   0  0  0  0  0  0  0  0  0  0  0  0
    4.4663   -6.0638    0.0000 C   0  0  0  0  0  0  0  0  0  0  0  0
    5.8952   -7.7138    0.0000 C   0  0  0  0  0  0  0  0  0  0  0  0
    6.6097   -7.3012    0.0000 C   0  0  0  0  0  0  0  0  0  0  0  0
    6.6097   -6.4763    0.0000 C   0  0  2  0  0  0  0  0  0  0  0  0
    5.8952   -6.0638    0.0000 O   0  0  0  0  0  0  0  0  0  0  0  0
    8.0386   -6.4763    0.0000 C   0  0  0  0  0  0  0  0  0  0  0  0
    7.3242   -6.0638    0.0000 C   0  0  0  0  0  0  0  0  0  0  0  0
    8.7531   -6.0638    0.0000 C   0  0  0  0  0  0  0  0  0  0  0  0
    8.7531   -5.2387    0.0000 C   0  0  0  0  0  0  0  0  0  0  0  0
    8.0386   -4.8263    0.0000 C   0  0  0  0  0  0  0  0  0  0  0  0
    7.3242   -5.2387    0.0000 C   0  0  0  0  0  0  0  0  0  0  0  0
    5.8952   -8.5388    0.0000 O   0  0  0  0  0  0  0  0  0  0  0  0
    4.4663   -8.5388    0.0000 O   0  0  0  0  0  0  0  0  0  0  0  0
    3.0373   -7.7138    0.0000 O   0  0  0  0  0  0  0  0  0  0  0  0
    9.4676   -4.8263    0.0000 O   0  0  0  0  0  0  0  0  0  0  0  0
    3.0373   -6.0638    0.0000 O   0  0  0  0  0  0  0  0  0  0  0  0
    2.3229   -6.4763    0.0000 C   0  0  0  0  0  0  0  0  0  0  0  0
    3.0373   -8.5388    0.0000 C   0  0  0  0  0  0  0  0  0  0  0  0
    5.1807   -8.9513    0.0000 C   0  0  0  0  0  0  0  0  0  0  0  0
    8.0386   -4.0012    0.0000 O   0  0  0  0  0  0  0  0  0  0  0  0
    7.3242   -3.5887    0.0000 C   0  0  0  0  0  0  0  0  0  0  0  0
    9.4676   -4.0012    0.0000 C   0  0  0  0  0  0  0  0  0  0  0  0
    4.4663   -5.2387    0.0000 O   0  0  0  0  0  0  0  0  0  0  0  0
    3.7518   -4.8263    0.0000 C   0  0  0  0  0  0  0  0  0  0  0  0
  1  2  2  0  0  0  0
  2  3  1  0  0  0  0
  3  4  2  0  0  0  0
  4  5  1  0  0  0  0
  5  6  2  0  0  0  0
  6  1  1  0  0  0  0
  4  7  1  0  0  0  0
  7  8  1  0  0  0  0
  8  9  1  0  0  0  0
  9 10  1  0  0  0  0
 10  5  1  0  0  0  0
 11 12  2  0  0  0  0
  9 12  1  6  0  0  0
 11 13  1  0  0  0  0
 13 14  2  0  0  0  0
 14 15  1  0  0  0  0
 15 16  2  0  0  0  0
 16 12  1  0  0  0  0
  7 17  2  0  0  0  0
  3 18  1  0  0  0  0
  2 19  1  0  0  0  0
 14 20  1  0  0  0  0
  1 21  1  0  0  0  0
 21 22  1  0  0  0  0
 19 23  1  0  0  0  0
 18 24  1  0  0  0  0
 15 25  1  0  0  0  0
 25 26  1  0  0  0  0
 20 27  1  0  0  0  0
  6 28  1  0  0  0  0
 28 29  1  0  0  0  0
M  END
>  <cdx:fragmentId>
5

$$$$
