92194.cdx
  Mrv1902 05222410192D          

 27 29  0  0  0  0            999 V2000
   10.8701   -4.9397    0.0000 O   0  0  0  0  0  0  0  0  0  0  0  0
    9.4411   -4.1147    0.0000 O   0  0  0  0  0  0  0  0  0  0  0  0
    8.7267   -3.7022    0.0000 C   0  0  0  0  0  0  0  0  0  0  0  0
   10.1556   -6.1772    0.0000 C   0  0  0  0  0  0  0  0  0  0  0  0
   10.1556   -5.3522    0.0000 C   0  0  0  0  0  0  0  0  0  0  0  0
    9.4411   -4.9397    0.0000 C   0  0  0  0  0  0  0  0  0  0  0  0
    8.7267   -5.3522    0.0000 C   0  0  0  0  0  0  0  0  0  0  0  0
    9.4411   -6.5897    0.0000 C   0  0  0  0  0  0  0  0  0  0  0  0
    8.7267   -6.1772    0.0000 C   0  0  0  0  0  0  0  0  0  0  0  0
    5.8688   -5.3522    0.0000 O   0  0  0  0  0  0  0  0  0  0  0  0
    5.1543   -4.9397    0.0000 C   0  0  0  0  0  0  0  0  0  0  0  0
    8.0122   -7.4147    0.0000 C   0  0  0  0  0  0  0  0  0  0  0  0
    8.0122   -6.5897    0.0000 C   0  0  0  0  0  0  0  0  0  0  0  0
    7.2977   -6.1772    0.0000 O   0  0  0  0  0  0  0  0  0  0  0  0
    5.8688   -8.6522    0.0000 O   0  0  0  0  0  0  0  0  0  0  0  0
    7.2977   -8.6522    0.0000 O   0  0  0  0  0  0  0  0  0  0  0  0
    7.2977   -7.8272    0.0000 C   0  0  0  0  0  0  0  0  0  0  0  0
    4.4398   -6.1772    0.0000 O   0  0  0  0  0  0  0  0  0  0  0  0
    3.7254   -6.5897    0.0000 C   0  0  0  0  0  0  0  0  0  0  0  0
    3.7254   -7.4147    0.0000 C   0  0  0  0  0  0  0  0  0  0  0  0
    4.4398   -7.8272    0.0000 O   0  0  0  0  0  0  0  0  0  0  0  0
    5.8688   -7.8272    0.0000 C   0  0  0  0  0  0  0  0  0  0  0  0
    6.5832   -7.4147    0.0000 C   0  0  0  0  0  0  0  0  0  0  0  0
    6.5832   -6.5897    0.0000 C   0  0  0  0  0  0  0  0  0  0  0  0
    5.8688   -6.1772    0.0000 C   0  0  0  0  0  0  0  0  0  0  0  0
    5.1543   -6.5897    0.0000 C   0  0  0  0  0  0  0  0  0  0  0  0
    5.1543   -7.4147    0.0000 C   0  0  0  0  0  0  0  0  0  0  0  0
  5  1  1  0  0  0  0
  2  6  1  0  0  0  0
  3  2  1  0  0  0  0
  4  8  2  0  0  0  0
  5  4  1  0  0  0  0
  6  5  2  0  0  0  0
  7  6  1  0  0  0  0
  9  7  2  0  0  0  0
  9  8  1  0  0  0  0
 13  9  1  0  0  0  0
 10 25  1  0  0  0  0
 11 10  1  0  0  0  0
 12 17  1  0  0  0  0
 13 12  2  0  0  0  0
 14 13  1  0  0  0  0
 24 14  1  0  0  0  0
 15 22  1  0  0  0  0
 17 16  2  0  0  0  0
 23 17  1  0  0  0  0
 18 26  1  0  0  0  0
 19 18  1  0  0  0  0
 21 20  1  0  0  0  0
 27 21  1  0  0  0  0
 22 27  1  0  0  0  0
 23 22  2  0  0  0  0
 24 23  1  0  0  0  0
 25 24  2  0  0  0  0
 26 25  1  0  0  0  0
 27 26  2  0  0  0  0
M  END
>  <cdx:fragmentId>
5

$$$$
