92196.cdx
  Mrv1902 05222410202D          

 24 26  0  0  0  0            999 V2000
    5.7868   -5.7612    0.0000 C   0  0  0  0  0  0  0  0  0  0  0  0
    5.7868   -6.5863    0.0000 C   0  0  0  0  0  0  0  0  0  0  0  0
    6.5013   -6.9988    0.0000 C   0  0  0  0  0  0  0  0  0  0  0  0
    7.2157   -6.5863    0.0000 C   0  0  0  0  0  0  0  0  0  0  0  0
    7.2157   -5.7612    0.0000 C   0  0  0  0  0  0  0  0  0  0  0  0
    6.5013   -5.3487    0.0000 C   0  0  0  0  0  0  0  0  0  0  0  0
    7.9302   -6.9988    0.0000 C   0  0  0  0  0  0  0  0  0  0  0  0
    8.6447   -6.5863    0.0000 C   0  0  0  0  0  0  0  0  0  0  0  0
    8.6447   -5.7612    0.0000 C   0  0  0  0  0  0  0  0  0  0  0  0
    7.9302   -5.3487    0.0000 O   0  0  0  0  0  0  0  0  0  0  0  0
   10.0736   -5.7612    0.0000 C   0  0  0  0  0  0  0  0  0  0  0  0
    9.3592   -5.3487    0.0000 C   0  0  0  0  0  0  0  0  0  0  0  0
   10.7881   -5.3487    0.0000 C   0  0  0  0  0  0  0  0  0  0  0  0
   10.7881   -4.5237    0.0000 C   0  0  0  0  0  0  0  0  0  0  0  0
   10.0736   -4.1113    0.0000 C   0  0  0  0  0  0  0  0  0  0  0  0
    9.3592   -4.5237    0.0000 C   0  0  0  0  0  0  0  0  0  0  0  0
    7.9302   -7.8237    0.0000 O   0  0  0  0  0  0  0  0  0  0  0  0
    6.5013   -7.8237    0.0000 O   0  0  0  0  0  0  0  0  0  0  0  0
    5.0723   -6.9988    0.0000 O   0  0  0  0  0  0  0  0  0  0  0  0
   11.5026   -4.1113    0.0000 O   0  0  0  0  0  0  0  0  0  0  0  0
    5.0723   -5.3487    0.0000 O   0  0  0  0  0  0  0  0  0  0  0  0
    4.3579   -5.7612    0.0000 C   0  0  0  0  0  0  0  0  0  0  0  0
    6.5013   -4.5237    0.0000 O   0  0  0  0  0  0  0  0  0  0  0  0
    5.7868   -4.1113    0.0000 C   0  0  0  0  0  0  0  0  0  0  0  0
  1  2  2  0  0  0  0
  2  3  1  0  0  0  0
  3  4  2  0  0  0  0
  4  5  1  0  0  0  0
  5  6  2  0  0  0  0
  6  1  1  0  0  0  0
  4  7  1  0  0  0  0
  7  8  1  0  0  0  0
  8  9  2  0  0  0  0
  9 10  1  0  0  0  0
 10  5  1  0  0  0  0
 11 12  2  0  0  0  0
 12  9  1  0  0  0  0
 11 13  1  0  0  0  0
 13 14  2  0  0  0  0
 14 15  1  0  0  0  0
 15 16  2  0  0  0  0
 16 12  1  0  0  0  0
  7 17  2  0  0  0  0
  3 18  1  0  0  0  0
  2 19  1  0  0  0  0
 14 20  1  0  0  0  0
  1 21  1  0  0  0  0
 21 22  1  0  0  0  0
  6 23  1  0  0  0  0
 23 24  1  0  0  0  0
M  END
>  <cdx:fragmentId>
5

$$$$
