92190.cdx
  Mrv1902 05222410192D          

 14 14  0  0  0  0            999 V2000
    5.4018   -6.9162    0.0000 C   0  0  0  0  0  0  0  0  0  0  0  0
    5.4018   -7.7413    0.0000 C   0  0  0  0  0  0  0  0  0  0  0  0
    6.1163   -8.1538    0.0000 N   0  0  0  0  0  0  0  0  0  0  0  0
    6.8307   -7.7413    0.0000 C   0  0  0  0  0  0  0  0  0  0  0  0
    6.8307   -6.9162    0.0000 C   0  0  0  0  0  0  0  0  0  0  0  0
    6.1163   -6.5038    0.0000 C   0  0  0  0  0  0  0  0  0  0  0  0
    4.6873   -8.1538    0.0000 C   0  0  0  0  0  0  0  0  0  0  0  0
    3.9729   -7.7413    0.0000 O   0  0  0  0  0  0  0  0  0  0  0  0
    4.6873   -8.9788    0.0000 O   0  0  0  0  0  0  0  0  0  0  0  0
    7.5452   -6.5038    0.0000 C   0  0  0  0  0  0  0  0  0  0  0  0
    8.2597   -6.9162    0.0000 C   0  0  0  0  0  0  0  0  0  0  0  0
    8.9742   -6.5038    0.0000 C   0  0  0  0  0  0  0  0  0  0  0  0
    9.6886   -6.9162    0.0000 C   0  0  0  0  0  0  0  0  0  0  0  0
    8.9742   -5.6788    0.0000 C   0  0  0  0  0  0  0  0  0  0  0  0
  1  2  2  0  0  0  0
  2  3  1  0  0  0  0
  3  4  2  0  0  0  0
  4  5  1  0  0  0  0
  5  6  2  0  0  0  0
  6  1  1  0  0  0  0
  2  7  1  0  0  0  0
  7  8  1  0  0  0  0
  7  9  2  0  0  0  0
  5 10  1  0  0  0  0
 10 11  1  0  0  0  0
 11 12  1  0  0  0  0
 12 13  1  0  0  0  0
 12 14  1  0  0  0  0
M  END
>  <cdx:fragmentId>
5

$$$$
