92208.cdx
  Mrv1902 05222410192D          

 21 23  0  0  0  0            999 V2000
    4.3156   -6.4763    0.0000 C   0  0  0  0  0  0  0  0  0  0  0  0
    4.3156   -7.3012    0.0000 C   0  0  0  0  0  0  0  0  0  0  0  0
    5.0300   -7.7138    0.0000 C   0  0  0  0  0  0  0  0  0  0  0  0
    5.7445   -7.3012    0.0000 C   0  0  0  0  0  0  0  0  0  0  0  0
    5.7445   -6.4763    0.0000 C   0  0  0  0  0  0  0  0  0  0  0  0
    5.0300   -6.0638    0.0000 C   0  0  0  0  0  0  0  0  0  0  0  0
    6.4590   -7.7138    0.0000 C   0  0  0  0  0  0  0  0  0  0  0  0
    7.1734   -7.3012    0.0000 C   0  0  0  0  0  0  0  0  0  0  0  0
    7.1734   -6.4763    0.0000 C   0  0  0  0  0  0  0  0  0  0  0  0
    6.4590   -6.0638    0.0000 O   0  0  0  0  0  0  0  0  0  0  0  0
    6.4590   -8.5388    0.0000 O   0  0  0  0  0  0  0  0  0  0  0  0
    7.8879   -7.7138    0.0000 C   0  0  0  0  0  0  0  0  0  0  0  0
    7.8879   -8.5388    0.0000 C   0  0  0  0  0  0  0  0  0  0  0  0
    8.6024   -8.9513    0.0000 C   0  0  0  0  0  0  0  0  0  0  0  0
    9.3169   -8.5388    0.0000 C   0  0  0  0  0  0  0  0  0  0  0  0
    9.3169   -7.7138    0.0000 C   0  0  0  0  0  0  0  0  0  0  0  0
    8.6024   -7.3012    0.0000 C   0  0  0  0  0  0  0  0  0  0  0  0
    5.0300   -8.5388    0.0000 O   0  0  0  0  0  0  0  0  0  0  0  0
    3.6011   -6.0638    0.0000 O   0  0  0  0  0  0  0  0  0  0  0  0
   10.0313   -8.9513    0.0000 O   0  0  0  0  0  0  0  0  0  0  0  0
   10.7458   -8.5388    0.0000 C   0  0  0  0  0  0  0  0  0  0  0  0
  1  2  2  0  0  0  0
  2  3  1  0  0  0  0
  3  4  2  0  0  0  0
  4  5  1  0  0  0  0
  5  6  2  0  0  0  0
  6  1  1  0  0  0  0
  4  7  1  0  0  0  0
  7  8  1  0  0  0  0
  8  9  2  0  0  0  0
  9 10  1  0  0  0  0
 10  5  1  0  0  0  0
  7 11  2  0  0  0  0
  8 12  1  0  0  0  0
 12 13  2  0  0  0  0
 13 14  1  0  0  0  0
 14 15  2  0  0  0  0
 15 16  1  0  0  0  0
 16 17  2  0  0  0  0
 17 12  1  0  0  0  0
  3 18  1  0  0  0  0
  1 19  1  0  0  0  0
 15 20  1  0  0  0  0
 20 21  1  0  0  0  0
M  END
>  <cdx:fragmentId>
5

$$$$
