92201.cdx
  Mrv1902 05222410272D          

 18 20  0  0  0  0            999 V2000
    5.6494   -7.2961    0.0000 C   0  0  0  0  0  0  0  0  0  0  0  0
    5.6494   -8.1211    0.0000 C   0  0  0  0  0  0  0  0  0  0  0  0
    6.3639   -8.5336    0.0000 C   0  0  0  0  0  0  0  0  0  0  0  0
    7.0783   -8.1211    0.0000 C   0  0  0  0  0  0  0  0  0  0  0  0
    7.7928   -8.5336    0.0000 C   0  0  0  0  0  0  0  0  0  0  0  0
    8.5073   -8.1211    0.0000 C   0  0  0  0  0  0  0  0  0  0  0  0
    8.5073   -7.2961    0.0000 C   0  0  0  0  0  0  0  0  0  0  0  0
    7.7928   -6.8836    0.0000 C   0  0  0  0  0  0  0  0  0  0  0  0
    7.0783   -7.2961    0.0000 C   0  0  0  0  0  0  0  0  0  0  0  0
    6.3639   -6.8836    0.0000 O   0  0  0  0  0  0  0  0  0  0  0  0
    9.1204   -6.7440    0.0000 O   0  0  0  0  0  0  0  0  0  0  0  0
    7.9643   -6.0766    0.0000 C   0  0  0  0  0  0  0  0  0  0  0  0
    8.7848   -5.9904    0.0000 C   0  0  1  0  0  0  0  0  0  0  0  0
    4.9349   -6.8836    0.0000 O   0  0  0  0  0  0  0  0  0  0  0  0
    8.7848   -4.5614    0.0000 C   0  0  0  0  0  0  0  0  0  0  0  0
    9.1973   -5.2759    0.0000 C   0  0  0  0  0  0  0  0  0  0  0  0
   10.0223   -5.2759    0.0000 C   0  0  0  0  0  0  0  0  0  0  0  0
    9.6098   -4.5614    0.0000 O   0  0  0  0  0  0  0  0  0  0  0  0
  1  2  1  0  0  0  0
  2  3  2  0  0  0  0
  3  4  1  0  0  0  0
  4  5  1  0  0  0  0
  5  6  2  0  0  0  0
  6  7  1  0  0  0  0
  7  8  2  0  0  0  0
  8  9  1  0  0  0  0
  4  9  2  0  0  0  0
  9 10  1  0  0  0  0
  1 10  1  0  0  0  0
 12 13  1  0  0  0  0
 11 13  1  0  0  0  0
 11  7  1  0  0  0  0
 12  8  1  0  0  0  0
  1 14  2  0  0  0  0
 15 16  1  0  0  0  0
 16 17  1  0  0  0  0
 16 18  1  0  0  0  0
 13 16  1  1  0  0  0
M  END
>  <cdx:groupId>
58

>  <cdx:fragmentId>
5

$$$$
