92209.cdx
  Mrv1902 05222410192D          

 27 29  0  0  0  0            999 V2000
    3.8893   -6.4625    0.0000 C   0  0  0  0  0  0  0  0  0  0  0  0
    3.8893   -7.2875    0.0000 C   0  0  0  0  0  0  0  0  0  0  0  0
    4.6038   -7.7000    0.0000 C   0  0  0  0  0  0  0  0  0  0  0  0
    5.3182   -7.2875    0.0000 C   0  0  0  0  0  0  0  0  0  0  0  0
    5.3182   -6.4625    0.0000 C   0  0  0  0  0  0  0  0  0  0  0  0
    4.6038   -6.0500    0.0000 C   0  0  0  0  0  0  0  0  0  0  0  0
    6.0327   -7.7000    0.0000 C   0  0  0  0  0  0  0  0  0  0  0  0
    6.7472   -7.2875    0.0000 C   0  0  0  0  0  0  0  0  0  0  0  0
    6.7472   -6.4625    0.0000 C   0  0  0  0  0  0  0  0  0  0  0  0
    6.0327   -6.0500    0.0000 O   0  0  0  0  0  0  0  0  0  0  0  0
    8.1761   -6.4625    0.0000 C   0  0  0  0  0  0  0  0  0  0  0  0
    7.4617   -6.0500    0.0000 C   0  0  0  0  0  0  0  0  0  0  0  0
    8.8906   -6.0500    0.0000 C   0  0  0  0  0  0  0  0  0  0  0  0
    8.8906   -5.2250    0.0000 C   0  0  0  0  0  0  0  0  0  0  0  0
    8.1761   -4.8125    0.0000 C   0  0  0  0  0  0  0  0  0  0  0  0
    7.4617   -5.2250    0.0000 C   0  0  0  0  0  0  0  0  0  0  0  0
    6.0327   -8.5250    0.0000 O   0  0  0  0  0  0  0  0  0  0  0  0
    4.6038   -8.5250    0.0000 O   0  0  0  0  0  0  0  0  0  0  0  0
    3.1748   -6.0500    0.0000 O   0  0  0  0  0  0  0  0  0  0  0  0
    3.1748   -7.7000    0.0000 O   0  0  0  0  0  0  0  0  0  0  0  0
    2.4604   -7.2875    0.0000 C   0  0  0  0  0  0  0  0  0  0  0  0
    4.6038   -5.2250    0.0000 O   0  0  0  0  0  0  0  0  0  0  0  0
    3.8893   -4.8125    0.0000 C   0  0  0  0  0  0  0  0  0  0  0  0
    8.1761   -3.9875    0.0000 O   0  0  0  0  0  0  0  0  0  0  0  0
    7.4617   -3.5750    0.0000 C   0  0  0  0  0  0  0  0  0  0  0  0
    9.6051   -4.8125    0.0000 O   0  0  0  0  0  0  0  0  0  0  0  0
   10.3195   -5.2250    0.0000 C   0  0  0  0  0  0  0  0  0  0  0  0
  1  2  2  0  0  0  0
  2  3  1  0  0  0  0
  3  4  2  0  0  0  0
  4  5  1  0  0  0  0
  5  6  2  0  0  0  0
  6  1  1  0  0  0  0
  4  7  1  0  0  0  0
  7  8  1  0  0  0  0
  8  9  2  0  0  0  0
  9 10  1  0  0  0  0
 10  5  1  0  0  0  0
 11 12  2  0  0  0  0
 12  9  1  0  0  0  0
 11 13  1  0  0  0  0
 13 14  2  0  0  0  0
 14 15  1  0  0  0  0
 15 16  2  0  0  0  0
 16 12  1  0  0  0  0
  7 17  2  0  0  0  0
  3 18  1  0  0  0  0
  1 19  1  0  0  0  0
  2 20  1  0  0  0  0
 20 21  1  0  0  0  0
  6 22  1  0  0  0  0
 22 23  1  0  0  0  0
 15 24  1  0  0  0  0
 24 25  1  0  0  0  0
 14 26  1  0  0  0  0
 26 27  1  0  0  0  0
M  END
>  <cdx:fragmentId>
5

$$$$
