92206.cdx
  Mrv1902 05222410262D          

 22 24  0  0  0  0            999 V2000
    5.0031   -6.6413    0.0000 C   0  0  0  0  0  0  0  0  0  0  0  0
    5.0031   -7.4663    0.0000 C   0  0  0  0  0  0  0  0  0  0  0  0
    5.7175   -7.8788    0.0000 C   0  0  0  0  0  0  0  0  0  0  0  0
    6.4320   -7.4663    0.0000 C   0  0  0  0  0  0  0  0  0  0  0  0
    6.4320   -6.6413    0.0000 C   0  0  0  0  0  0  0  0  0  0  0  0
    5.7175   -6.2287    0.0000 C   0  0  0  0  0  0  0  0  0  0  0  0
    7.2166   -7.7212    0.0000 C   0  0  0  0  0  0  0  0  0  0  0  0
    7.7015   -7.0537    0.0000 O   0  0  0  0  0  0  0  0  0  0  0  0
    7.2166   -6.3863    0.0000 C   0  0  0  0  0  0  0  0  0  0  0  0
    4.2886   -6.2287    0.0000 O   0  0  0  0  0  0  0  0  0  0  0  0
    5.7175   -8.7037    0.0000 O   0  0  0  0  0  0  0  0  0  0  0  0
    5.0031   -9.1162    0.0000 C   0  0  2  0  0  0  0  0  0  0  0  0
    4.2886   -8.7037    0.0000 O   0  0  0  0  0  0  0  0  0  0  0  0
    3.5741   -9.1162    0.0000 C   0  0  1  0  0  0  0  0  0  0  0  0
    3.5741   -9.9413    0.0000 C   0  0  2  0  0  0  0  0  0  0  0  0
    4.2886  -10.3537    0.0000 C   0  0  1  0  0  0  0  0  0  0  0  0
    5.0031   -9.9413    0.0000 C   0  0  1  0  0  0  0  0  0  0  0  0
    2.8596   -8.7037    0.0000 C   0  0  0  0  0  0  0  0  0  0  0  0
    4.2886  -11.1787    0.0000 O   0  0  0  0  0  0  0  0  0  0  0  0
    2.8596  -10.3537    0.0000 O   0  0  0  0  0  0  0  0  0  0  0  0
    5.7175  -10.3537    0.0000 O   0  0  0  0  0  0  0  0  0  0  0  0
    2.1452   -9.1162    0.0000 O   0  0  0  0  0  0  0  0  0  0  0  0
  1  2  1  0  0  0  0
  2  3  2  0  0  0  0
  3  4  1  0  0  0  0
  4  5  1  0  0  0  0
  5  6  1  0  0  0  0
  6  1  2  0  0  0  0
  4  7  2  0  0  0  0
  7  8  1  0  0  0  0
  8  9  1  0  0  0  0
  9  5  2  0  0  0  0
  1 10  1  0  0  0  0
  3 11  1  0  0  0  0
 12 11  1  1  0  0  0
 12 13  1  0  0  0  0
 13 14  1  0  0  0  0
 14 15  1  0  0  0  0
 15 16  1  0  0  0  0
 16 17  1  0  0  0  0
 17 12  1  0  0  0  0
 14 18  1  1  0  0  0
 16 19  1  1  0  0  0
 15 20  1  6  0  0  0
 17 21  1  6  0  0  0
 18 22  1  0  0  0  0
M  END
>  <cdx:fragmentId>
5

$$$$
