922008.cdx
  Mrv1902 05222410252D          

 21 22  0  0  0  0            999 V2000
   12.3896   -9.2413    0.0000 O   0  0  0  0  0  0  0  0  0  0  0  0
   12.8745   -8.5738    0.0000 C   0  0  0  0  0  0  0  0  0  0  0  0
   12.3896   -7.9064    0.0000 O   0  0  0  0  0  0  0  0  0  0  0  0
   11.6050   -8.1613    0.0000 C   0  0  0  0  0  0  0  0  0  0  0  0
   11.6050   -8.9863    0.0000 C   0  0  0  0  0  0  0  0  0  0  0  0
   10.8905   -7.7488    0.0000 C   0  0  0  0  0  0  0  0  0  0  0  0
   10.1760   -8.1613    0.0000 C   0  0  0  0  0  0  0  0  0  0  0  0
   10.1760   -8.9863    0.0000 C   0  0  0  0  0  0  0  0  0  0  0  0
   10.8905   -9.3988    0.0000 C   0  0  0  0  0  0  0  0  0  0  0  0
    9.4616   -7.7488    0.0000 C   0  0  0  0  0  0  0  0  0  0  0  0
    8.7471   -8.1613    0.0000 C   0  0  0  0  0  0  0  0  0  0  0  0
    8.0326   -7.7488    0.0000 C   0  0  0  0  0  0  0  0  0  0  0  0
    7.3181   -8.1613    0.0000 C   0  0  0  0  0  0  0  0  0  0  0  0
    6.6037   -7.7488    0.0000 C   0  0  0  0  0  0  0  0  0  0  0  0
    5.8892   -8.1613    0.0000 C   0  0  0  0  0  0  0  0  0  0  0  0
    5.1747   -7.7488    0.0000 C   0  0  0  0  0  0  0  0  0  0  0  0
    4.4603   -8.1613    0.0000 C   0  0  0  0  0  0  0  0  0  0  0  0
    3.7458   -7.7488    0.0000 C   0  0  0  0  0  0  0  0  0  0  0  0
    3.0313   -8.1613    0.0000 C   0  0  0  0  0  0  0  0  0  0  0  0
    2.3168   -7.7488    0.0000 C   0  0  0  0  0  0  0  0  0  0  0  0
    1.6024   -8.1613    0.0000 C   0  0  0  0  0  0  0  0  0  0  0  0
  1  2  1  0  0  0  0
  2  3  1  0  0  0  0
  3  4  1  0  0  0  0
  4  5  1  0  0  0  0
  1  5  1  0  0  0  0
  6  7  1  0  0  0  0
  7  8  2  0  0  0  0
  8  9  1  0  0  0  0
  9  5  2  0  0  0  0
  6  4  2  0  0  0  0
 10 11  2  0  0  0  0
 11 12  1  0  0  0  0
 12 13  1  0  0  0  0
 13 14  1  0  0  0  0
 14 15  1  0  0  0  0
 15 16  1  0  0  0  0
 16 17  1  0  0  0  0
 17 18  1  0  0  0  0
 18 19  1  0  0  0  0
 19 20  1  0  0  0  0
 20 21  1  0  0  0  0
  7 10  1  0  0  0  0
M  END
>  <cdx:groupId>
32336

>  <cdx:fragmentId>
32293

$$$$
