92202.cdx
  Mrv1902 05222410282D          

 25 27  0  0  0  0            999 V2000
    4.9343   -6.8750    0.0000 C   0  0  0  0  0  0  0  0  0  0  0  0
    4.9343   -7.7000    0.0000 C   0  0  0  0  0  0  0  0  0  0  0  0
    5.6488   -8.1125    0.0000 C   0  0  0  0  0  0  0  0  0  0  0  0
    6.3632   -7.7000    0.0000 C   0  0  0  0  0  0  0  0  0  0  0  0
    6.3632   -6.8750    0.0000 C   0  0  0  0  0  0  0  0  0  0  0  0
    5.6488   -6.4625    0.0000 C   0  0  0  0  0  0  0  0  0  0  0  0
    7.0777   -8.1125    0.0000 C   0  0  0  0  0  0  0  0  0  0  0  0
    7.7922   -7.7000    0.0000 C   0  0  0  0  0  0  0  0  0  0  0  0
    7.7922   -6.8750    0.0000 C   0  0  0  0  0  0  0  0  0  0  0  0
    7.0777   -6.4625    0.0000 O   0  0  0  0  0  0  0  0  0  0  0  0
    9.2211   -6.8750    0.0000 C   0  0  0  0  0  0  0  0  0  0  0  0
    8.5067   -6.4625    0.0000 C   0  0  0  0  0  0  0  0  0  0  0  0
    9.9356   -6.4625    0.0000 C   0  0  0  0  0  0  0  0  0  0  0  0
    9.9356   -5.6375    0.0000 C   0  0  0  0  0  0  0  0  0  0  0  0
    9.2211   -5.2250    0.0000 C   0  0  0  0  0  0  0  0  0  0  0  0
    8.5067   -5.6375    0.0000 C   0  0  0  0  0  0  0  0  0  0  0  0
    7.0777   -8.9375    0.0000 O   0  0  0  0  0  0  0  0  0  0  0  0
   10.6501   -5.2250    0.0000 O   0  0  0  0  0  0  0  0  0  0  0  0
   11.3645   -5.6375    0.0000 C   0  0  0  0  0  0  0  0  0  0  0  0
    4.2198   -8.1125    0.0000 O   0  0  0  0  0  0  0  0  0  0  0  0
    3.5054   -7.7000    0.0000 C   0  0  0  0  0  0  0  0  0  0  0  0
    5.6488   -8.9375    0.0000 O   0  0  0  0  0  0  0  0  0  0  0  0
    4.2198   -6.4625    0.0000 O   0  0  0  0  0  0  0  0  0  0  0  0
    9.2211   -4.4000    0.0000 O   0  0  0  0  0  0  0  0  0  0  0  0
   10.6501   -6.8750    0.0000 O   0  0  0  0  0  0  0  0  0  0  0  0
  1  2  2  0  0  0  0
  2  3  1  0  0  0  0
  3  4  2  0  0  0  0
  4  5  1  0  0  0  0
  5  6  2  0  0  0  0
  6  1  1  0  0  0  0
  4  7  1  0  0  0  0
  7  8  1  0  0  0  0
  8  9  2  0  0  0  0
  9 10  1  0  0  0  0
 10  5  1  0  0  0  0
 11 12  2  0  0  0  0
 12  9  1  0  0  0  0
 11 13  1  0  0  0  0
 13 14  2  0  0  0  0
 14 15  1  0  0  0  0
 15 16  2  0  0  0  0
 16 12  1  0  0  0  0
  7 17  2  0  0  0  0
 14 18  1  0  0  0  0
 18 19  1  0  0  0  0
  2 20  1  0  0  0  0
 20 21  1  0  0  0  0
  3 22  1  0  0  0  0
  1 23  1  0  0  0  0
 15 24  1  0  0  0  0
 13 25  1  0  0  0  0
M  END
>  <cdx:fragmentId>
5

$$$$
