92216.cdx
  Mrv1902 05222410282D          

 25 26  0  0  0  0            999 V2000
    3.4081   -5.6788    0.0000 C   0  0  0  0  0  0  0  0  0  0  0  0
    3.4081   -6.5038    0.0000 C   0  0  0  0  0  0  0  0  0  0  0  0
    4.1225   -6.9162    0.0000 C   0  0  0  0  0  0  0  0  0  0  0  0
    4.8370   -6.5038    0.0000 C   0  0  0  0  0  0  0  0  0  0  0  0
    4.8370   -5.6788    0.0000 C   0  0  0  0  0  0  0  0  0  0  0  0
    4.1225   -5.2663    0.0000 C   0  0  0  0  0  0  0  0  0  0  0  0
    4.1225   -7.7413    0.0000 C   0  0  0  0  0  0  0  0  0  0  0  0
    4.8370   -8.1538    0.0000 C   0  0  0  0  0  0  0  0  0  0  0  0
    5.5515   -7.7413    0.0000 C   0  0  0  0  0  0  0  0  0  0  0  0
    5.5515   -6.9162    0.0000 O   0  0  0  0  0  0  0  0  0  0  0  0
    6.2659   -8.1538    0.0000 O   0  0  0  0  0  0  0  0  0  0  0  0
    6.9804   -7.7413    0.0000 C   0  0  2  0  0  0  0  0  0  0  0  0
    6.9804   -6.9162    0.0000 C   0  0  0  0  0  0  0  0  0  0  0  0
    7.6949   -8.1538    0.0000 C   0  0  2  0  0  0  0  0  0  0  0  0
    8.4094   -7.7413    0.0000 C   0  0  1  0  0  0  0  0  0  0  0  0
    8.4094   -6.9162    0.0000 C   0  0  0  0  0  0  0  0  0  0  0  0
    7.6949   -6.5038    0.0000 C   0  0  2  0  0  0  0  0  0  0  0  0
    4.1225   -4.4412    0.0000 O   0  0  0  0  0  0  0  0  0  0  0  0
    5.5515   -5.2662    0.0000 O   0  0  0  0  0  0  0  0  0  0  0  0
    8.1074   -5.7893    0.0000 C   0  0  0  0  0  0  0  0  0  0  0  0
    7.6949   -5.0748    0.0000 O   0  0  0  0  0  0  0  0  0  0  0  0
    8.9324   -5.7893    0.0000 O   0  0  0  0  0  0  0  0  0  0  0  0
    7.2824   -5.7893    0.0000 O   0  0  0  0  0  0  0  0  0  0  0  0
    7.6949   -8.9788    0.0000 O   0  0  0  0  0  0  0  0  0  0  0  0
    9.1238   -8.1538    0.0000 O   0  0  0  0  0  0  0  0  0  0  0  0
  1  2  2  0  0  0  0
  2  3  1  0  0  0  0
  3  4  2  0  0  0  0
  4  5  1  0  0  0  0
  5  6  2  0  0  0  0
  6  1  1  0  0  0  0
  3  7  1  0  0  0  0
  7  8  2  0  0  0  0
  8  9  1  0  0  0  0
  9 10  2  0  0  0  0
  9 11  1  0  0  0  0
 12 11  1  6  0  0  0
 12 13  1  0  0  0  0
 12 14  1  0  0  0  0
 14 15  1  0  0  0  0
 15 16  1  0  0  0  0
 16 17  1  0  0  0  0
 17 13  1  0  0  0  0
  6 18  1  0  0  0  0
  5 19  1  0  0  0  0
 17 20  1  0  0  0  0
 20 21  2  0  0  0  0
 20 22  1  0  0  0  0
 17 23  1  6  0  0  0
 14 24  1  6  0  0  0
 15 25  1  1  0  0  0
M  END
>  <cdx:fragmentId>
5

$$$$
