92215.cdx
  Mrv1902 05222410272D          

 43 47  0  0  0  0            999 V2000
    6.4056   -3.3687    0.0000 C   0  0  0  0  0  0  0  0  0  0  0  0
    6.4056   -4.1937    0.0000 C   0  0  0  0  0  0  0  0  0  0  0  0
    7.1200   -4.6063    0.0000 C   0  0  0  0  0  0  0  0  0  0  0  0
    7.8345   -4.1937    0.0000 C   0  0  0  0  0  0  0  0  0  0  0  0
    7.8345   -3.3687    0.0000 C   0  0  0  0  0  0  0  0  0  0  0  0
    7.1200   -2.9562    0.0000 C   0  0  0  0  0  0  0  0  0  0  0  0
    5.6911   -4.6063    0.0000 O   0  0  0  0  0  0  0  0  0  0  0  0
    5.6911   -5.4313    0.0000 C   0  0  0  0  0  0  0  0  0  0  0  0
    6.4056   -5.8438    0.0000 C   0  0  0  0  0  0  0  0  0  0  0  0
    7.1200   -5.4313    0.0000 C   0  0  0  0  0  0  0  0  0  0  0  0
    7.8345   -5.8437    0.0000 C   0  0  0  0  0  0  0  0  0  0  0  0
    8.5490   -5.4312    0.0000 C   0  0  0  0  0  0  0  0  0  0  0  0
    8.5490   -4.6063    0.0000 O   0  0  0  0  0  0  0  0  0  0  0  0
    7.8345   -6.6687    0.0000 O   0  0  0  0  0  0  0  0  0  0  0  0
    9.2634   -6.6687    0.0000 C   0  0  0  0  0  0  0  0  0  0  0  0
    9.2634   -5.8437    0.0000 C   0  0  0  0  0  0  0  0  0  0  0  0
    9.9779   -7.0812    0.0000 C   0  0  0  0  0  0  0  0  0  0  0  0
   10.6924   -6.6687    0.0000 C   0  0  0  0  0  0  0  0  0  0  0  0
   10.6924   -5.8437    0.0000 C   0  0  0  0  0  0  0  0  0  0  0  0
    9.9779   -5.4313    0.0000 C   0  0  0  0  0  0  0  0  0  0  0  0
    4.2621   -5.4313    0.0000 O   0  0  0  0  0  0  0  0  0  0  0  0
    4.9766   -5.8438    0.0000 C   0  0  0  0  0  0  0  0  0  0  0  0
    7.1200   -2.1313    0.0000 O   0  3  0  0  0  0  0  0  0  0  0  0
    9.9779   -7.9062    0.0000 O   0  0  0  0  0  0  0  0  0  0  0  0
   11.4069   -7.0812    0.0000 O   0  0  0  0  0  0  0  0  0  0  0  0
    4.9766   -6.6688    0.0000 O   0  0  0  0  0  0  0  0  0  0  0  0
    7.4175   -7.3806    0.0000 C   0  0  2  0  0  0  0  0  0  0  0  0
    6.5925   -7.3754    0.0000 O   0  0  0  0  0  0  0  0  0  0  0  0
    6.1755   -8.0873    0.0000 C   0  0  1  0  0  0  0  0  0  0  0  0
    6.5835   -8.8043    0.0000 C   0  0  2  0  0  0  0  0  0  0  0  0
    7.4085   -8.8095    0.0000 C   0  0  0  0  0  0  0  0  0  0  0  0
    7.8255   -8.0977    0.0000 C   0  0  0  0  0  0  0  0  0  0  0  0
    5.3505   -8.0821    0.0000 C   0  0  0  0  0  0  0  0  0  0  0  0
    7.8165   -9.5266    0.0000 O   0  0  0  0  0  0  0  0  0  0  0  0
    8.6505   -8.1029    0.0000 O   0  0  0  0  0  0  0  0  0  0  0  0
    4.9335   -8.7939    0.0000 O   0  0  0  0  0  0  0  0  0  0  0  0
    4.1086   -8.7887    0.0000 C   0  0  0  0  0  0  0  0  0  0  0  0
    3.6916   -9.5006    0.0000 C   0  0  0  0  0  0  0  0  0  0  0  0
    3.7006   -8.0716    0.0000 O   0  0  0  0  0  0  0  0  0  0  0  0
    2.8666   -9.5006    0.0000 C   0  0  0  0  0  0  0  0  0  0  0  0
    2.4541  -10.2150    0.0000 O   0  0  0  0  0  0  0  0  0  0  0  0
    2.4541   -8.7861    0.0000 O   0  0  0  0  0  0  0  0  0  0  0  0
    6.1665   -9.5162    0.0000 O   0  0  0  0  0  0  0  0  0  0  0  0
  1  2  2  0  0  0  0
  2  3  1  0  0  0  0
  3  4  1  0  0  0  0
  4  5  2  0  0  0  0
  5  6  1  0  0  0  0
  6  1  1  0  0  0  0
  2  7  1  0  0  0  0
  7  8  1  0  0  0  0
  8  9  2  0  0  0  0
  9 10  1  0  0  0  0
 10  3  2  0  0  0  0
 10 11  1  0  0  0  0
 11 12  2  0  0  0  0
 12 13  1  0  0  0  0
 13  4  1  0  0  0  0
 11 14  1  0  0  0  0
 15 16  2  0  0  0  0
 16 12  1  0  0  0  0
 15 17  1  0  0  0  0
 17 18  2  0  0  0  0
 18 19  1  0  0  0  0
 19 20  2  0  0  0  0
 20 16  1  0  0  0  0
 21 22  1  0  0  0  0
 22  8  1  0  0  0  0
  6 23  2  0  0  0  0
 17 24  1  0  0  0  0
 18 25  1  0  0  0  0
 22 26  2  0  0  0  0
 27 14  1  1  0  0  0
 27 28  1  0  0  0  0
 28 29  1  0  0  0  0
 29 30  1  0  0  0  0
 30 31  1  0  0  0  0
 31 32  1  0  0  0  0
 32 27  1  0  0  0  0
 29 33  1  1  0  0  0
 31 34  1  0  0  0  0
 32 35  1  0  0  0  0
 33 36  1  0  0  0  0
 36 37  1  0  0  0  0
 37 38  1  0  0  0  0
 37 39  2  0  0  0  0
 38 40  1  0  0  0  0
 40 41  1  0  0  0  0
 40 42  2  0  0  0  0
 30 43  1  6  0  0  0
M  CHG  1  23   1
M  END
>  <cdx:fragmentId>
5

$$$$
