92218.cdx
  Mrv1902 05222410192D          

 30 32  0  0  0  0            999 V2000
    4.3431   -6.7100    0.0000 C   0  0  0  0  0  0  0  0  0  0  0  0
    4.3431   -7.5350    0.0000 C   0  0  0  0  0  0  0  0  0  0  0  0
    5.0575   -7.9475    0.0000 C   0  0  0  0  0  0  0  0  0  0  0  0
    5.7720   -7.5350    0.0000 C   0  0  0  0  0  0  0  0  0  0  0  0
    5.7720   -6.7100    0.0000 C   0  0  0  0  0  0  0  0  0  0  0  0
    5.0575   -6.2975    0.0000 C   0  0  0  0  0  0  0  0  0  0  0  0
    6.4865   -7.9475    0.0000 C   0  0  0  0  0  0  0  0  0  0  0  0
    7.2009   -7.5350    0.0000 C   0  0  0  0  0  0  0  0  0  0  0  0
    7.2009   -6.7100    0.0000 C   0  0  0  0  0  0  0  0  0  0  0  0
    6.4865   -6.2975    0.0000 O   0  0  0  0  0  0  0  0  0  0  0  0
    8.6299   -6.7100    0.0000 C   0  0  0  0  0  0  0  0  0  0  0  0
    7.9154   -6.2975    0.0000 C   0  0  0  0  0  0  0  0  0  0  0  0
    9.3444   -6.2975    0.0000 C   0  0  0  0  0  0  0  0  0  0  0  0
    9.3444   -5.4725    0.0000 C   0  0  0  0  0  0  0  0  0  0  0  0
    8.6299   -5.0600    0.0000 C   0  0  0  0  0  0  0  0  0  0  0  0
    7.9154   -5.4725    0.0000 C   0  0  0  0  0  0  0  0  0  0  0  0
    6.4865   -8.7725    0.0000 O   0  0  0  0  0  0  0  0  0  0  0  0
    5.0575   -8.7725    0.0000 O   0  0  0  0  0  0  0  0  0  0  0  0
    7.9154   -7.9475    0.0000 O   0  0  0  0  0  0  0  0  0  0  0  0
    7.9154   -8.7725    0.0000 C   0  0  0  0  0  0  0  0  0  0  0  0
    3.6286   -7.9475    0.0000 O   0  0  0  0  0  0  0  0  0  0  0  0
    3.6286   -8.7725    0.0000 C   0  0  0  0  0  0  0  0  0  0  0  0
    3.6286   -6.2975    0.0000 O   0  0  0  0  0  0  0  0  0  0  0  0
    2.9141   -6.7100    0.0000 C   0  0  0  0  0  0  0  0  0  0  0  0
    5.0575   -5.4725    0.0000 O   0  0  0  0  0  0  0  0  0  0  0  0
    4.3431   -5.0600    0.0000 C   0  0  0  0  0  0  0  0  0  0  0  0
    8.6299   -4.2350    0.0000 O   0  0  0  0  0  0  0  0  0  0  0  0
    7.9154   -3.8225    0.0000 C   0  0  0  0  0  0  0  0  0  0  0  0
   10.0588   -5.0600    0.0000 O   0  0  0  0  0  0  0  0  0  0  0  0
   10.7733   -5.4725    0.0000 C   0  0  0  0  0  0  0  0  0  0  0  0
  1  2  2  0  0  0  0
  2  3  1  0  0  0  0
  3  4  2  0  0  0  0
  4  5  1  0  0  0  0
  5  6  2  0  0  0  0
  6  1  1  0  0  0  0
  4  7  1  0  0  0  0
  7  8  1  0  0  0  0
  8  9  2  0  0  0  0
  9 10  1  0  0  0  0
 10  5  1  0  0  0  0
 11 12  2  0  0  0  0
 12  9  1  0  0  0  0
 11 13  1  0  0  0  0
 13 14  2  0  0  0  0
 14 15  1  0  0  0  0
 15 16  2  0  0  0  0
 16 12  1  0  0  0  0
  7 17  2  0  0  0  0
  3 18  1  0  0  0  0
  8 19  1  0  0  0  0
 19 20  1  0  0  0  0
  2 21  1  0  0  0  0
 21 22  1  0  0  0  0
  1 23  1  0  0  0  0
 23 24  1  0  0  0  0
  6 25  1  0  0  0  0
 25 26  1  0  0  0  0
 15 27  1  0  0  0  0
 27 28  1  0  0  0  0
 14 29  1  0  0  0  0
 29 30  1  0  0  0  0
M  END
>  <cdx:fragmentId>
5

$$$$
