92217.cdx
  Mrv1902 05222410282D          

  9  9  0  0  0  0            999 V2000
    5.6768   -5.7888    0.0000 C   0  0  0  0  0  0  0  0  0  0  0  0
    5.6768   -6.6137    0.0000 C   0  0  0  0  0  0  0  0  0  0  0  0
    6.3913   -7.0263    0.0000 C   0  0  0  0  0  0  0  0  0  0  0  0
    7.1057   -6.6137    0.0000 C   0  0  0  0  0  0  0  0  0  0  0  0
    7.1057   -5.7888    0.0000 C   0  0  0  0  0  0  0  0  0  0  0  0
    6.3913   -5.3763    0.0000 N   0  0  0  0  0  0  0  0  0  0  0  0
    4.9623   -7.0263    0.0000 O   0  0  0  0  0  0  0  0  0  0  0  0
    7.8202   -5.3762    0.0000 C   0  0  0  0  0  0  0  0  0  0  0  0
    8.5347   -5.7887    0.0000 O   0  0  0  0  0  0  0  0  0  0  0  0
  1  2  2  0  0  0  0
  2  3  1  0  0  0  0
  3  4  2  0  0  0  0
  4  5  1  0  0  0  0
  5  6  2  0  0  0  0
  6  1  1  0  0  0  0
  2  7  1  0  0  0  0
  5  8  1  0  0  0  0
  8  9  1  0  0  0  0
M  END
>  <cdx:fragmentId>
5

$$$$
