92212.cdx
  Mrv1902 05222410262D          

 23 25  0  0  0  0            999 V2000
    5.8540  -10.3537    0.0000 O   0  0  0  0  0  0  0  0  0  0  0  0
    4.4250   -7.0537    0.0000 O   0  0  0  0  0  0  0  0  0  0  0  0
    4.4250  -10.3537    0.0000 O   0  0  0  0  0  0  0  0  0  0  0  0
   11.5697   -7.0537    0.0000 C   0  0  0  0  0  0  0  0  0  0  0  0
   10.8553   -6.6413    0.0000 O   0  0  0  0  0  0  0  0  0  0  0  0
    9.4263   -8.2912    0.0000 C   0  0  0  0  0  0  0  0  0  0  0  0
   10.1408   -7.8788    0.0000 C   0  0  0  0  0  0  0  0  0  0  0  0
   10.1408   -7.0537    0.0000 C   0  0  0  0  0  0  0  0  0  0  0  0
    9.4263   -6.6413    0.0000 C   0  0  0  0  0  0  0  0  0  0  0  0
    8.7119   -7.8788    0.0000 C   0  0  0  0  0  0  0  0  0  0  0  0
    8.7119   -7.0537    0.0000 C   0  0  0  0  0  0  0  0  0  0  0  0
    7.9974   -8.2912    0.0000 C   0  0  0  0  0  0  0  0  0  0  0  0
    7.2829   -7.8788    0.0000 C   0  0  0  0  0  0  0  0  0  0  0  0
    5.8540   -9.5287    0.0000 C   0  0  0  0  0  0  0  0  0  0  0  0
    6.5684   -9.1162    0.0000 C   0  0  0  0  0  0  0  0  0  0  0  0
    6.5684   -8.2912    0.0000 C   0  0  0  0  0  0  0  0  0  0  0  0
    5.8540   -7.8788    0.0000 O   0  0  0  0  0  0  0  0  0  0  0  0
    4.4250   -9.5287    0.0000 C   0  0  0  0  0  0  0  0  0  0  0  0
    5.1395   -9.1162    0.0000 C   0  0  0  0  0  0  0  0  0  0  0  0
    5.1395   -8.2912    0.0000 C   0  0  0  0  0  0  0  0  0  0  0  0
    4.4250   -7.8788    0.0000 C   0  0  0  0  0  0  0  0  0  0  0  0
    3.7106   -8.2912    0.0000 C   0  0  0  0  0  0  0  0  0  0  0  0
    3.7106   -9.1162    0.0000 C   0  0  0  0  0  0  0  0  0  0  0  0
 14  1  2  0  0  0  0
 21  2  1  0  0  0  0
 18  3  1  0  0  0  0
  5  4  1  0  0  0  0
  8  5  1  0  0  0  0
  6 10  1  0  0  0  0
  7  6  2  0  0  0  0
  8  7  1  0  0  0  0
  9  8  2  0  0  0  0
 11  9  1  0  0  0  0
 10 12  1  0  0  0  0
 11 10  2  0  0  0  0
 13 12  1  0  0  0  0
 16 13  1  0  0  0  0
 14 19  1  0  0  0  0
 15 14  1  0  0  0  0
 16 15  2  0  0  0  0
 17 16  1  0  0  0  0
 20 17  1  0  0  0  0
 18 23  1  0  0  0  0
 19 18  2  0  0  0  0
 20 19  1  0  0  0  0
 21 20  2  0  0  0  0
 22 21  1  0  0  0  0
 23 22  2  0  0  0  0
M  END
>  <cdx:fragmentId>
5

$$$$
