92213.cdx
  Mrv1902 05222410262D          

 31 33  0  0  0  0            999 V2000
    2.4456   -7.3700    0.0000 C   0  0  0  0  0  0  0  0  0  0  0  0
    2.4456   -8.1950    0.0000 C   0  0  0  0  0  0  0  0  0  0  0  0
    3.1600   -8.6075    0.0000 C   0  0  0  0  0  0  0  0  0  0  0  0
    3.8745   -8.1950    0.0000 C   0  0  0  0  0  0  0  0  0  0  0  0
    3.8745   -7.3700    0.0000 C   0  0  0  0  0  0  0  0  0  0  0  0
    3.1600   -6.9575    0.0000 C   0  0  0  0  0  0  0  0  0  0  0  0
    3.1600   -9.4325    0.0000 O   0  0  0  0  0  0  0  0  0  0  0  0
    4.5890   -9.4325    0.0000 O   0  0  0  0  0  0  0  0  0  0  0  0
    4.5890   -8.6075    0.0000 C   0  0  0  0  0  0  0  0  0  0  0  0
    5.3034   -8.1950    0.0000 C   0  0  0  0  0  0  0  0  0  0  0  0
    5.3034   -7.3700    0.0000 C   0  0  0  0  0  0  0  0  0  0  0  0
    4.5890   -6.9575    0.0000 O   0  0  0  0  0  0  0  0  0  0  0  0
    6.0179   -6.9575    0.0000 C   0  0  0  0  0  0  0  0  0  0  0  0
    6.0179   -6.1325    0.0000 C   0  0  0  0  0  0  0  0  0  0  0  0
    5.3034   -5.7200    0.0000 O   0  0  0  0  0  0  0  0  0  0  0  0
    6.7324   -7.3700    0.0000 C   0  0  0  0  0  0  0  0  0  0  0  0
    7.4469   -6.9575    0.0000 C   0  0  0  0  0  0  0  0  0  0  0  0
    7.4469   -6.1325    0.0000 C   0  0  0  0  0  0  0  0  0  0  0  0
    6.7324   -5.7200    0.0000 C   0  0  0  0  0  0  0  0  0  0  0  0
    8.1613   -7.3700    0.0000 C   0  0  0  0  0  0  0  0  0  0  0  0
    8.8758   -6.9575    0.0000 C   0  0  0  0  0  0  0  0  0  0  0  0
    8.1613   -5.7200    0.0000 O   0  0  0  0  0  0  0  0  0  0  0  0
    9.5903   -7.3700    0.0000 C   0  0  0  0  0  0  0  0  0  0  0  0
   11.0192   -7.3700    0.0000 C   0  0  0  0  0  0  0  0  0  0  0  0
   10.3047   -6.9575    0.0000 C   0  0  0  0  0  0  0  0  0  0  0  0
   12.4481   -8.1950    0.0000 C   0  0  0  0  0  0  0  0  0  0  0  0
   12.4481   -7.3700    0.0000 C   0  0  0  0  0  0  0  0  0  0  0  0
   11.7337   -6.9575    0.0000 C   0  0  0  0  0  0  0  0  0  0  0  0
   13.1626   -6.9575    0.0000 C   0  0  0  0  0  0  0  0  0  0  0  0
    1.7311   -6.9575    0.0000 O   0  0  0  0  0  0  0  0  0  0  0  0
    9.5903   -8.1950    0.0000 C   0  0  0  0  0  0  0  0  0  0  0  0
  1  2  2  0  0  0  0
  2  3  1  0  0  0  0
  3  4  2  0  0  0  0
  4  5  1  0  0  0  0
  5  6  2  0  0  0  0
  6  1  1  0  0  0  0
  3  7  1  0  0  0  0
  8  9  2  0  0  0  0
  9  4  1  0  0  0  0
  9 10  1  0  0  0  0
 10 11  2  0  0  0  0
 11 12  1  0  0  0  0
 12  5  1  0  0  0  0
 11 13  1  0  0  0  0
 13 14  2  0  0  0  0
 14 15  1  0  0  0  0
 13 16  1  0  0  0  0
 16 17  2  0  0  0  0
 17 18  1  0  0  0  0
 18 19  2  0  0  0  0
 19 14  1  0  0  0  0
 17 20  1  0  0  0  0
 20 21  1  0  0  0  0
 22 18  1  0  0  0  0
 23 21  2  0  0  0  0
 24 25  1  0  0  0  0
 25 23  1  0  0  0  0
 26 27  1  0  0  0  0
 27 28  2  0  0  0  0
 28 24  1  0  0  0  0
 29 27  1  0  0  0  0
  1 30  1  0  0  0  0
 23 31  1  0  0  0  0
M  END
>  <cdx:fragmentId>
5

$$$$
