92211.cdx
  Mrv1902 05222410262D          

 26 28  0  0  0  0            999 V2000
    4.3706   -6.4487    0.0000 C   0  0  0  0  0  0  0  0  0  0  0  0
    4.3706   -7.2738    0.0000 C   0  0  0  0  0  0  0  0  0  0  0  0
    5.0850   -7.6863    0.0000 C   0  0  0  0  0  0  0  0  0  0  0  0
    5.7995   -7.2738    0.0000 C   0  0  0  0  0  0  0  0  0  0  0  0
    5.7995   -6.4487    0.0000 C   0  0  0  0  0  0  0  0  0  0  0  0
    5.0850   -6.0362    0.0000 C   0  0  0  0  0  0  0  0  0  0  0  0
    6.5140   -7.6863    0.0000 C   0  0  0  0  0  0  0  0  0  0  0  0
    7.2284   -7.2738    0.0000 C   0  0  0  0  0  0  0  0  0  0  0  0
    7.2284   -6.4487    0.0000 C   0  0  0  0  0  0  0  0  0  0  0  0
    6.5140   -6.0362    0.0000 O   0  0  0  0  0  0  0  0  0  0  0  0
    7.9429   -6.0362    0.0000 C   0  0  0  0  0  0  0  0  0  0  0  0
    8.6574   -6.4487    0.0000 C   0  0  0  0  0  0  0  0  0  0  0  0
    9.3719   -6.0362    0.0000 C   0  0  0  0  0  0  0  0  0  0  0  0
    9.3719   -5.2112    0.0000 C   0  0  0  0  0  0  0  0  0  0  0  0
    8.6574   -4.7988    0.0000 C   0  0  0  0  0  0  0  0  0  0  0  0
    7.9429   -5.2112    0.0000 C   0  0  0  0  0  0  0  0  0  0  0  0
    6.5140   -8.5113    0.0000 O   0  0  0  0  0  0  0  0  0  0  0  0
    5.0850   -8.5113    0.0000 O   0  0  0  0  0  0  0  0  0  0  0  0
    5.0850   -5.2113    0.0000 O   0  0  0  0  0  0  0  0  0  0  0  0
   10.0863   -4.7987    0.0000 O   0  0  0  0  0  0  0  0  0  0  0  0
    3.6561   -7.6863    0.0000 O   0  0  0  0  0  0  0  0  0  0  0  0
    2.9416   -7.2738    0.0000 C   0  0  0  0  0  0  0  0  0  0  0  0
    3.6561   -6.0362    0.0000 O   0  0  0  0  0  0  0  0  0  0  0  0
    3.6561   -5.2113    0.0000 C   0  0  0  0  0  0  0  0  0  0  0  0
    8.6574   -3.9738    0.0000 O   0  0  0  0  0  0  0  0  0  0  0  0
    7.9429   -3.5612    0.0000 C   0  0  0  0  0  0  0  0  0  0  0  0
  1  2  2  0  0  0  0
  2  3  1  0  0  0  0
  3  4  2  0  0  0  0
  4  5  1  0  0  0  0
  5  6  2  0  0  0  0
  6  1  1  0  0  0  0
  4  7  1  0  0  0  0
  7  8  1  0  0  0  0
  8  9  2  0  0  0  0
  9 10  1  0  0  0  0
 10  5  1  0  0  0  0
  9 11  1  0  0  0  0
 11 12  2  0  0  0  0
 12 13  1  0  0  0  0
 13 14  2  0  0  0  0
 14 15  1  0  0  0  0
 15 16  2  0  0  0  0
 16 11  1  0  0  0  0
  7 17  2  0  0  0  0
  3 18  1  0  0  0  0
  6 19  1  0  0  0  0
 14 20  1  0  0  0  0
  2 21  1  0  0  0  0
 21 22  1  0  0  0  0
  1 23  1  0  0  0  0
 23 24  1  0  0  0  0
 15 25  1  0  0  0  0
 25 26  1  0  0  0  0
M  END
>  <cdx:fragmentId>
9

$$$$
