92224.cdx
  Mrv1902 05222410192D          

 26 28  0  0  0  0            999 V2000
    5.1681   -4.6888    0.0000 C   0  0  0  0  0  0  0  0  0  0  0  0
    5.1681   -5.5137    0.0000 C   0  0  0  0  0  0  0  0  0  0  0  0
    5.8825   -5.9262    0.0000 C   0  0  0  0  0  0  0  0  0  0  0  0
    6.5970   -5.5137    0.0000 C   0  0  0  0  0  0  0  0  0  0  0  0
    6.5970   -4.6888    0.0000 C   0  0  0  0  0  0  0  0  0  0  0  0
    5.8825   -4.2763    0.0000 C   0  0  0  0  0  0  0  0  0  0  0  0
    7.3115   -5.9262    0.0000 C   0  0  0  0  0  0  0  0  0  0  0  0
    8.0259   -5.5137    0.0000 C   0  0  0  0  0  0  0  0  0  0  0  0
    8.0259   -4.6888    0.0000 C   0  0  0  0  0  0  0  0  0  0  0  0
    7.3115   -4.2763    0.0000 O   0  0  0  0  0  0  0  0  0  0  0  0
    9.4549   -4.6888    0.0000 C   0  0  0  0  0  0  0  0  0  0  0  0
    8.7404   -4.2763    0.0000 C   0  0  0  0  0  0  0  0  0  0  0  0
   10.1694   -4.2763    0.0000 C   0  0  0  0  0  0  0  0  0  0  0  0
   10.1694   -3.4513    0.0000 C   0  0  0  0  0  0  0  0  0  0  0  0
    9.4549   -3.0387    0.0000 C   0  0  0  0  0  0  0  0  0  0  0  0
    8.7404   -3.4513    0.0000 C   0  0  0  0  0  0  0  0  0  0  0  0
    7.3115   -6.7512    0.0000 O   0  0  0  0  0  0  0  0  0  0  0  0
    5.8825   -6.7512    0.0000 O   0  0  0  0  0  0  0  0  0  0  0  0
    4.4536   -4.2763    0.0000 O   0  0  0  0  0  0  0  0  0  0  0  0
    3.7391   -4.6888    0.0000 C   0  0  0  0  0  0  0  0  0  0  0  0
    5.8825   -3.4513    0.0000 O   0  0  0  0  0  0  0  0  0  0  0  0
    5.1681   -3.0387    0.0000 C   0  0  0  0  0  0  0  0  0  0  0  0
    9.4549   -2.2138    0.0000 O   0  0  0  0  0  0  0  0  0  0  0  0
    8.7404   -1.8013    0.0000 C   0  0  0  0  0  0  0  0  0  0  0  0
   10.8838   -3.0387    0.0000 O   0  0  0  0  0  0  0  0  0  0  0  0
   11.5983   -3.4513    0.0000 C   0  0  0  0  0  0  0  0  0  0  0  0
  1  2  2  0  0  0  0
  2  3  1  0  0  0  0
  3  4  2  0  0  0  0
  4  5  1  0  0  0  0
  5  6  2  0  0  0  0
  6  1  1  0  0  0  0
  4  7  1  0  0  0  0
  7  8  1  0  0  0  0
  8  9  2  0  0  0  0
  9 10  1  0  0  0  0
 10  5  1  0  0  0  0
 11 12  2  0  0  0  0
 12  9  1  0  0  0  0
 11 13  1  0  0  0  0
 13 14  2  0  0  0  0
 14 15  1  0  0  0  0
 15 16  2  0  0  0  0
 16 12  1  0  0  0  0
  7 17  2  0  0  0  0
  3 18  1  0  0  0  0
  1 19  1  0  0  0  0
 19 20  1  0  0  0  0
  6 21  1  0  0  0  0
 21 22  1  0  0  0  0
 15 23  1  0  0  0  0
 23 24  1  0  0  0  0
 14 25  1  0  0  0  0
 25 26  1  0  0  0  0
M  END
>  <cdx:fragmentId>
5

$$$$
