92228.cdx
  Mrv1902 05222410272D          

 28 31  0  0  0  0            999 V2000
    7.9775   -9.4843    0.0000 C   0  0  0  0  0  0  0  0  0  0  0  0
    7.9821   -8.6593    0.0000 C   0  0  0  0  0  0  0  0  0  0  0  0
    7.2699   -8.2429    0.0000 C   0  0  0  0  0  0  0  0  0  0  0  0
    6.5532   -8.6514    0.0000 C   0  0  0  0  0  0  0  0  0  0  0  0
    6.5486   -9.4764    0.0000 C   0  0  0  0  0  0  0  0  0  0  0  0
    7.2608   -9.8928    0.0000 C   0  0  0  0  0  0  0  0  0  0  0  0
    5.8410   -8.2349    0.0000 O   0  0  0  0  0  0  0  0  0  0  0  0
    5.1242   -8.6435    0.0000 C   0  0  0  0  0  0  0  0  0  0  0  0
    5.1197   -9.4684    0.0000 C   0  0  0  0  0  0  0  0  0  0  0  0
    5.8318   -9.8849    0.0000 C   0  0  0  0  0  0  0  0  0  0  0  0
    8.7607   -9.7436    0.0000 C   0  0  0  0  0  0  0  0  0  0  0  0
    9.2493   -9.0789    0.0000 C   0  0  0  0  0  0  0  0  0  0  0  0
    8.7681   -8.4087    0.0000 O   0  0  0  0  0  0  0  0  0  0  0  0
    4.4121   -8.2270    0.0000 O   0  0  0  0  0  0  0  0  0  0  0  0
    7.2562  -10.7178    0.0000 O   0  0  0  0  0  0  0  0  0  0  0  0
    7.9683  -11.1343    0.0000 C   0  0  0  0  0  0  0  0  0  0  0  0
    7.2745   -7.4179    0.0000 O   0  0  0  0  0  0  0  0  0  0  0  0
    7.9912   -7.0093    0.0000 C   0  0  2  0  0  0  0  0  0  0  0  0
    8.7034   -7.4258    0.0000 O   0  0  0  0  0  0  0  0  0  0  0  0
    9.4202   -7.0173    0.0000 C   0  0  1  0  0  0  0  0  0  0  0  0
    9.4247   -6.1923    0.0000 C   0  0  2  0  0  0  0  0  0  0  0  0
    8.7126   -5.7758    0.0000 C   0  0  1  0  0  0  0  0  0  0  0  0
    7.9958   -6.1844    0.0000 C   0  0  1  0  0  0  0  0  0  0  0  0
   10.1323   -7.4337    0.0000 C   0  0  0  0  0  0  0  0  0  0  0  0
    8.7171   -4.9508    0.0000 O   0  0  0  0  0  0  0  0  0  0  0  0
   10.1415   -5.7838    0.0000 O   0  0  0  0  0  0  0  0  0  0  0  0
    7.2836   -5.7679    0.0000 O   0  0  0  0  0  0  0  0  0  0  0  0
   10.8491   -7.0252    0.0000 O   0  0  0  0  0  0  0  0  0  0  0  0
  1  2  2  0  0  0  0
  2  3  1  0  0  0  0
  3  4  2  0  0  0  0
  4  5  1  0  0  0  0
  5  6  2  0  0  0  0
  6  1  1  0  0  0  0
  4  7  1  0  0  0  0
  7  8  1  0  0  0  0
  8  9  1  0  0  0  0
  9 10  2  0  0  0  0
 10  5  1  0  0  0  0
  1 11  1  0  0  0  0
 11 12  2  0  0  0  0
 12 13  1  0  0  0  0
 13  2  1  0  0  0  0
  8 14  2  0  0  0  0
  6 15  1  0  0  0  0
 15 16  1  0  0  0  0
  3 17  1  0  0  0  0
 18 17  1  1  0  0  0
 18 19  1  0  0  0  0
 19 20  1  0  0  0  0
 20 21  1  0  0  0  0
 21 22  1  0  0  0  0
 22 23  1  0  0  0  0
 23 18  1  0  0  0  0
 20 24  1  1  0  0  0
 22 25  1  1  0  0  0
 21 26  1  6  0  0  0
 23 27  1  6  0  0  0
 24 28  1  0  0  0  0
M  END
>  <cdx:fragmentId>
5

$$$$
