92223.cdx
  Mrv1902 05222410202D          

 24 26  0  0  0  0            999 V2000
    4.0664   -5.8163    0.0000 C   0  0  0  0  0  0  0  0  0  0  0  0
    4.0664   -6.6413    0.0000 C   0  0  0  0  0  0  0  0  0  0  0  0
    4.7809   -7.0537    0.0000 C   0  0  0  0  0  0  0  0  0  0  0  0
    5.4953   -6.6413    0.0000 C   0  0  0  0  0  0  0  0  0  0  0  0
    5.4953   -5.8163    0.0000 C   0  0  0  0  0  0  0  0  0  0  0  0
    4.7809   -5.4037    0.0000 C   0  0  0  0  0  0  0  0  0  0  0  0
    6.2098   -7.0537    0.0000 C   0  0  0  0  0  0  0  0  0  0  0  0
    6.9243   -6.6413    0.0000 C   0  0  0  0  0  0  0  0  0  0  0  0
    6.9243   -5.8163    0.0000 C   0  0  0  0  0  0  0  0  0  0  0  0
    6.2098   -5.4037    0.0000 O   0  0  0  0  0  0  0  0  0  0  0  0
    7.6388   -7.0537    0.0000 C   0  0  0  0  0  0  0  0  0  0  0  0
    8.3532   -6.6413    0.0000 C   0  0  0  0  0  0  0  0  0  0  0  0
    8.3532   -5.8163    0.0000 C   0  0  0  0  0  0  0  0  0  0  0  0
    9.0677   -7.0537    0.0000 C   0  0  0  0  0  0  0  0  0  0  0  0
    9.7822   -6.6413    0.0000 C   0  0  0  0  0  0  0  0  0  0  0  0
    9.7822   -5.8163    0.0000 C   0  0  0  0  0  0  0  0  0  0  0  0
    9.0677   -5.4037    0.0000 C   0  0  0  0  0  0  0  0  0  0  0  0
   10.4966   -5.4037    0.0000 O   0  0  0  0  0  0  0  0  0  0  0  0
    6.2098   -7.8788    0.0000 O   0  0  0  0  0  0  0  0  0  0  0  0
    4.7809   -4.5788    0.0000 C   0  0  0  0  0  0  0  0  0  0  0  0
    3.3519   -5.4037    0.0000 O   0  0  0  0  0  0  0  0  0  0  0  0
    4.7809   -7.8788    0.0000 O   0  0  0  0  0  0  0  0  0  0  0  0
   11.2111   -5.8162    0.0000 C   0  0  0  0  0  0  0  0  0  0  0  0
    2.6375   -5.8162    0.0000 C   0  0  0  0  0  0  0  0  0  0  0  0
  1  2  2  0  0  0  0
  2  3  1  0  0  0  0
  3  4  2  0  0  0  0
  4  5  1  0  0  0  0
  5  6  2  0  0  0  0
  6  1  1  0  0  0  0
  4  7  1  0  0  0  0
  7  8  1  0  0  0  0
  8  9  2  0  0  0  0
  9 10  1  0  0  0  0
 10  5  1  0  0  0  0
  8 11  1  0  0  0  0
 11 12  1  0  0  0  0
 12 13  1  0  0  0  0
 12 14  2  0  0  0  0
 14 15  1  0  0  0  0
 15 16  2  0  0  0  0
 16 17  1  0  0  0  0
 17 13  2  0  0  0  0
 16 18  1  0  0  0  0
  7 19  2  0  0  0  0
  6 20  1  0  0  0  0
  1 21  1  0  0  0  0
  3 22  1  0  0  0  0
 18 23  1  0  0  0  0
 21 24  1  0  0  0  0
M  END
>  <cdx:fragmentId>
5

$$$$
