92229.cdx
  Mrv1902 05222410272D          

 13 14  0  0  0  0            999 V2000
    5.6218   -6.0912    0.0000 C   0  0  0  0  0  0  0  0  0  0  0  0
    5.6218   -6.9162    0.0000 C   0  0  0  0  0  0  0  0  0  0  0  0
    6.3363   -7.3287    0.0000 C   0  0  0  0  0  0  0  0  0  0  0  0
    7.0507   -6.9162    0.0000 C   0  0  0  0  0  0  0  0  0  0  0  0
    7.0507   -6.0912    0.0000 C   0  0  0  0  0  0  0  0  0  0  0  0
    6.3363   -5.6788    0.0000 C   0  0  0  0  0  0  0  0  0  0  0  0
    7.7652   -7.3287    0.0000 O   0  0  0  0  0  0  0  0  0  0  0  0
    8.4797   -6.9162    0.0000 C   0  0  0  0  0  0  0  0  0  0  0  0
    8.4797   -6.0912    0.0000 C   0  0  0  0  0  0  0  0  0  0  0  0
    7.7652   -5.6788    0.0000 C   0  0  0  0  0  0  0  0  0  0  0  0
    9.1942   -7.3287    0.0000 O   0  0  0  0  0  0  0  0  0  0  0  0
    6.3363   -4.8538    0.0000 O   0  0  0  0  0  0  0  0  0  0  0  0
    5.6218   -4.4412    0.0000 C   0  0  0  0  0  0  0  0  0  0  0  0
  1  2  2  0  0  0  0
  2  3  1  0  0  0  0
  3  4  2  0  0  0  0
  4  5  1  0  0  0  0
  5  6  2  0  0  0  0
  6  1  1  0  0  0  0
  4  7  1  0  0  0  0
  7  8  1  0  0  0  0
  8  9  1  0  0  0  0
  9 10  2  0  0  0  0
 10  5  1  0  0  0  0
  8 11  2  0  0  0  0
  6 12  1  0  0  0  0
 12 13  1  0  0  0  0
M  END
>  <cdx:fragmentId>
5

$$$$
