92222.cdx
  Mrv1902 05222410202D          

 22 24  0  0  0  0            999 V2000
    5.7498  -10.2379    0.0000 O   0  0  0  0  0  0  0  0  0  0  0  0
    3.6064   -9.0004    0.0000 C   0  0  0  0  0  0  0  0  0  0  0  0
    4.3208   -9.4129    0.0000 O   0  0  0  0  0  0  0  0  0  0  0  0
   10.0366   -6.9379    0.0000 C   0  0  0  0  0  0  0  0  0  0  0  0
   10.7511   -6.5254    0.0000 C   0  0  0  0  0  0  0  0  0  0  0  0
   11.4656   -6.9379    0.0000 C   0  0  0  0  0  0  0  0  0  0  0  0
   11.4656   -7.7629    0.0000 C   0  0  0  0  0  0  0  0  0  0  0  0
   10.7511   -8.1754    0.0000 C   0  0  0  0  0  0  0  0  0  0  0  0
   10.0366   -7.7629    0.0000 C   0  0  0  0  0  0  0  0  0  0  0  0
    9.3221   -8.1754    0.0000 C   0  0  0  0  0  0  0  0  0  0  0  0
    8.6077   -7.7629    0.0000 C   0  0  0  0  0  0  0  0  0  0  0  0
    7.1787   -7.7629    0.0000 O   0  0  0  0  0  0  0  0  0  0  0  0
    6.4643   -8.1754    0.0000 C   0  0  0  0  0  0  0  0  0  0  0  0
    5.7498   -7.7629    0.0000 C   0  0  0  0  0  0  0  0  0  0  0  0
    5.0353   -8.1754    0.0000 C   0  0  0  0  0  0  0  0  0  0  0  0
    5.0353   -9.0004    0.0000 C   0  0  0  0  0  0  0  0  0  0  0  0
    5.7498   -9.4129    0.0000 C   0  0  0  0  0  0  0  0  0  0  0  0
    6.4643   -9.0004    0.0000 C   0  0  0  0  0  0  0  0  0  0  0  0
    7.1787  -10.2379    0.0000 O   0  0  0  0  0  0  0  0  0  0  0  0
    7.1787   -9.4129    0.0000 C   0  0  0  0  0  0  0  0  0  0  0  0
    7.8932   -9.0004    0.0000 C   0  0  0  0  0  0  0  0  0  0  0  0
    7.8932   -8.1754    0.0000 C   0  0  0  0  0  0  0  0  0  0  0  0
 17  1  1  0  0  0  0
 16  3  1  0  0  0  0
  3  2  1  0  0  0  0
 22 11  1  0  0  0  0
 10  9  1  0  0  0  0
  9  4  2  0  0  0  0
  5  4  1  0  0  0  0
  6  5  2  0  0  0  0
  7  6  1  0  0  0  0
  8  7  2  0  0  0  0
  9  8  1  0  0  0  0
 11 10  1  0  0  0  0
 22 12  1  0  0  0  0
 13 12  1  0  0  0  0
 18 13  2  0  0  0  0
 14 13  1  0  0  0  0
 15 14  2  0  0  0  0
 16 15  1  0  0  0  0
 17 16  2  0  0  0  0
 18 17  1  0  0  0  0
 20 18  1  0  0  0  0
 20 19  2  0  0  0  0
 21 20  1  0  0  0  0
 22 21  2  0  0  0  0
M  END
>  <cdx:fragmentId>
5

$$$$
