92225.cdx
  Mrv1902 05222410192D          

 32 34  0  0  0  0            999 V2000
    8.2644   -5.2096    0.0000 C   0  0  0  0  0  0  0  0  0  0  0  0
    9.6934   -5.2096    0.0000 C   0  0  0  0  0  0  0  0  0  0  0  0
    8.9789   -5.6221    0.0000 C   0  0  0  0  0  0  0  0  0  0  0  0
    8.2644  -11.8096    0.0000 C   0  0  0  0  0  0  0  0  0  0  0  0
    8.2644  -12.6346    0.0000 C   0  0  0  0  0  0  0  0  0  0  0  0
    8.9789  -13.0471    0.0000 C   0  0  0  0  0  0  0  0  0  0  0  0
    8.9789  -13.8721    0.0000 C   0  0  0  0  0  0  0  0  0  0  0  0
    8.9789  -11.3971    0.0000 O   0  0  0  0  0  0  0  0  0  0  0  0
    6.0509  -10.4145    0.0000 C   0  0  2  0  0  0  0  0  0  0  0  0
    6.2224  -11.2215    0.0000 O   0  0  0  0  0  0  0  0  0  0  0  0
    5.4378  -10.9665    0.0000 C   0  0  0  0  0  0  0  0  0  0  0  0
    6.8355  -10.9846    0.0000 H   0  0  0  0  0  0  0  0  0  0  0  0
    8.9789   -6.4471    0.0000 C   0  0  0  0  0  0  0  0  0  0  0  0
    7.5500   -6.4471    0.0000 O   0  0  0  0  0  0  0  0  0  0  0  0
    8.2644   -6.8596    0.0000 C   0  0  0  0  0  0  0  0  0  0  0  0
    8.2644   -7.6846    0.0000 O   0  0  0  0  0  0  0  0  0  0  0  0
    7.5500   -8.0971    0.0000 C   0  0  0  0  0  0  0  0  0  0  0  0
    9.6934  -12.6346    0.0000 C   0  0  0  0  0  0  0  0  0  0  0  0
    7.5500  -11.3971    0.0000 O   0  0  0  0  0  0  0  0  0  0  0  0
    5.5659   -9.7471    0.0000 C   0  0  2  0  0  0  0  0  0  0  0  0
    6.0509   -9.0796    0.0000 C   0  0  0  0  0  0  0  0  0  0  0  0
    8.2644  -10.1596    0.0000 O   0  0  0  0  0  0  0  0  0  0  0  0
    8.2644   -9.3346    0.0000 C   0  0  0  0  0  0  0  0  0  0  0  0
    7.5500   -8.9221    0.0000 C   0  0  0  0  0  0  0  0  0  0  0  0
    6.8355   -9.3346    0.0000 C   0  0  2  0  0  0  0  0  0  0  0  0
    6.8355  -10.1596    0.0000 C   0  0  2  0  0  0  0  0  0  0  0  0
    7.5500  -10.5721    0.0000 C   0  0  2  0  0  0  0  0  0  0  0  0
    4.7409   -9.7471    0.0000 O   0  0  0  0  0  0  0  0  0  0  0  0
    6.8355   -8.5096    0.0000 O   0  0  0  0  0  0  0  0  0  0  0  0
    4.0187   -9.3483    0.0000 C   0  0  0  0  0  0  0  0  0  0  0  0
    4.0029   -8.5235    0.0000 O   0  0  0  0  0  0  0  0  0  0  0  0
    3.3123   -9.7744    0.0000 C   0  0  0  0  0  0  0  0  0  0  0  0
  3  1  1  0  0  0  0
  3  2  1  0  0  0  0
 13  3  1  0  0  0  0
 26 12  1  1  0  0  0
 20 28  1  1  0  0  0
 24 17  1  0  0  0  0
 17 16  1  0  0  0  0
 16 15  1  0  0  0  0
 15 13  1  0  0  0  0
 15 14  2  0  0  0  0
 27 19  1  1  0  0  0
 19  4  1  0  0  0  0
 25 21  1  0  0  0  0
 26  9  1  0  0  0  0
 20  9  1  0  0  0  0
 21 20  1  0  0  0  0
 27 22  1  0  0  0  0
 23 22  1  0  0  0  0
 24 23  2  0  0  0  0
 25 24  1  0  0  0  0
 26 25  1  0  0  0  0
 27 26  1  0  0  0  0
  4  5  1  0  0  0  0
  5  6  1  0  0  0  0
  6  7  1  0  0  0  0
  4  8  2  0  0  0  0
  6 18  1  0  0  0  0
 10 11  1  0  0  0  0
  9 10  1  6  0  0  0
  9 11  1  0  0  0  0
 25 29  1  1  0  0  0
 28 30  1  0  0  0  0
 30 31  2  0  0  0  0
 30 32  1  0  0  0  0
M  END
>  <cdx:fragmentId>
11516

$$$$
