92236.cdx
  Mrv1902 05222410202D          

  8  7  0  0  0  0            999 V2000
    4.9195   -6.3662    0.0000 C   0  0  0  0  0  0  0  0  0  0  0  0
    5.6340   -6.7788    0.0000 C   0  0  0  0  0  0  0  0  0  0  0  0
    6.3484   -6.3662    0.0000 C   0  0  0  0  0  0  0  0  0  0  0  0
    7.0629   -6.7788    0.0000 C   0  0  0  0  0  0  0  0  0  0  0  0
    7.7774   -6.3662    0.0000 C   0  0  0  0  0  0  0  0  0  0  0  0
    8.4919   -6.7788    0.0000 C   0  0  0  0  0  0  0  0  0  0  0  0
    5.6340   -7.6037    0.0000 C   0  0  0  0  0  0  0  0  0  0  0  0
    7.7774   -5.5413    0.0000 O   0  0  0  0  0  0  0  0  0  0  0  0
  1  2  1  0  0  0  0
  2  3  1  0  0  0  0
  3  4  1  0  0  0  0
  4  5  1  0  0  0  0
  5  6  1  0  0  0  0
  2  7  1  0  0  0  0
  5  8  2  0  0  0  0
M  END
>  <cdx:fragmentId>
3

$$$$
