92233.cdx
  Mrv1902 05222410182D          

 18 19  0  0  0  0            999 V2000
    5.7868   -5.1287    0.0000 C   0  0  0  0  0  0  0  0  0  0  0  0
    5.7868   -5.9538    0.0000 C   0  0  0  0  0  0  0  0  0  0  0  0
    6.5013   -6.3662    0.0000 N   0  0  0  0  0  0  0  0  0  0  0  0
    7.2157   -5.9538    0.0000 C   0  0  0  0  0  0  0  0  0  0  0  0
    7.2157   -5.1287    0.0000 N   0  0  0  0  0  0  0  0  0  0  0  0
    6.5013   -4.7162    0.0000 C   0  0  0  0  0  0  0  0  0  0  0  0
    6.5013   -3.8912    0.0000 O   0  0  0  0  0  0  0  0  0  0  0  0
    5.0723   -4.7162    0.0000 C   0  0  0  0  0  0  0  0  0  0  0  0
    7.9302   -6.3662    0.0000 O   0  0  0  0  0  0  0  0  0  0  0  0
    6.5013   -7.1913    0.0000 C   0  0  1  0  0  0  0  0  0  0  0  0
    5.8338   -7.6762    0.0000 C   0  0  1  0  0  0  0  0  0  0  0  0
    6.0888   -8.4608    0.0000 C   0  0  1  0  0  0  0  0  0  0  0  0
    6.9138   -8.4608    0.0000 C   0  0  2  0  0  0  0  0  0  0  0  0
    7.1687   -7.6762    0.0000 O   0  0  0  0  0  0  0  0  0  0  0  0
    7.3987   -9.1282    0.0000 C   0  0  0  0  0  0  0  0  0  0  0  0
    8.2237   -9.1282    0.0000 O   0  0  0  0  0  0  0  0  0  0  0  0
    5.0492   -7.4212    0.0000 O   0  0  0  0  0  0  0  0  0  0  0  0
    5.6039   -9.1282    0.0000 O   0  0  0  0  0  0  0  0  0  0  0  0
  1  2  2  0  0  0  0
  2  3  1  0  0  0  0
  3  4  1  0  0  0  0
  4  5  1  0  0  0  0
  5  6  1  0  0  0  0
  6  1  1  0  0  0  0
  6  7  2  0  0  0  0
  1  8  1  0  0  0  0
  4  9  2  0  0  0  0
 10  3  1  6  0  0  0
 10 11  1  0  0  0  0
 11 12  1  0  0  0  0
 12 13  1  0  0  0  0
 13 14  1  0  0  0  0
 14 10  1  0  0  0  0
 13 15  1  6  0  0  0
 15 16  1  0  0  0  0
 11 17  1  1  0  0  0
 12 18  1  1  0  0  0
M  END
>  <cdx:fragmentId>
5

$$$$
