92239.cdx
  Mrv1902 05222410272D          

 11 10  0  0  0  0            999 V2000
    8.6766   -5.1689    0.0000 C   0  0  0  0  0  0  0  0  0  0  0  0
    7.9621   -5.5814    0.0000 C   0  0  0  0  0  0  0  0  0  0  0  0
    7.2477   -5.1689    0.0000 C   0  0  0  0  0  0  0  0  0  0  0  0
    6.5332   -5.5814    0.0000 C   0  0  0  0  0  0  0  0  0  0  0  0
    5.8187   -5.1689    0.0000 C   0  0  0  0  0  0  0  0  0  0  0  0
    5.1043   -5.5814    0.0000 C   0  0  0  0  0  0  0  0  0  0  0  0
    4.3898   -5.1689    0.0000 C   0  0  0  0  0  0  0  0  0  0  0  0
    3.6753   -5.5814    0.0000 C   0  0  0  0  0  0  0  0  0  0  0  0
    2.9609   -5.1689    0.0000 C   0  0  0  0  0  0  0  0  0  0  0  0
    2.2464   -5.5814    0.0000 C   0  0  0  0  0  0  0  0  0  0  0  0
    7.2477   -4.3439    0.0000 C   0  0  0  0  0  0  0  0  0  0  0  0
  1  2  1  0  0  0  0
  2  3  1  0  0  0  0
  3  4  1  0  0  0  0
  4  5  1  0  0  0  0
  5  6  1  0  0  0  0
  6  7  1  0  0  0  0
  7  8  1  0  0  0  0
  8  9  1  0  0  0  0
  9 10  1  0  0  0  0
  3 11  1  0  0  0  0
M  END
>  <cdx:groupId>
34

>  <cdx:fragmentId>
5

$$$$
