92232.cdx
  Mrv1902 05222410182D          

 36 40  0  0  0  0            999 V2000
    2.3631   -7.6037    0.0000 C   0  0  0  0  0  0  0  0  0  0  0  0
    2.3631   -8.4288    0.0000 C   0  0  0  0  0  0  0  0  0  0  0  0
    3.0775   -8.8413    0.0000 C   0  0  0  0  0  0  0  0  0  0  0  0
    3.7920   -8.4288    0.0000 C   0  0  0  0  0  0  0  0  0  0  0  0
    3.7920   -7.6037    0.0000 C   0  0  0  0  0  0  0  0  0  0  0  0
    3.0775   -7.1913    0.0000 C   0  0  0  0  0  0  0  0  0  0  0  0
    4.5065   -8.8413    0.0000 C   0  0  0  0  0  0  0  0  0  0  0  0
    5.2209   -8.4288    0.0000 C   0  0  0  0  0  0  0  0  0  0  0  0
    5.2209   -7.6037    0.0000 C   0  0  0  0  0  0  0  0  0  0  0  0
    4.5065   -7.1913    0.0000 O   0  0  0  0  0  0  0  0  0  0  0  0
    3.0775   -9.6662    0.0000 O   0  0  0  0  0  0  0  0  0  0  0  0
    4.5065   -9.6662    0.0000 O   0  0  0  0  0  0  0  0  0  0  0  0
    5.9354   -7.1913    0.0000 C   0  0  0  0  0  0  0  0  0  0  0  0
    5.9354   -6.3662    0.0000 C   0  0  0  0  0  0  0  0  0  0  0  0
    6.6499   -7.6037    0.0000 C   0  0  0  0  0  0  0  0  0  0  0  0
    7.3644   -7.1913    0.0000 C   0  0  0  0  0  0  0  0  0  0  0  0
    7.3644   -6.3662    0.0000 C   0  0  0  0  0  0  0  0  0  0  0  0
    6.6499   -5.9538    0.0000 C   0  0  0  0  0  0  0  0  0  0  0  0
    8.0788   -7.6037    0.0000 O   0  0  0  0  0  0  0  0  0  0  0  0
    8.7933   -7.1913    0.0000 C   0  0  1  0  0  0  0  0  0  0  0  0
    8.7933   -6.3662    0.0000 C   0  0  2  0  0  0  0  0  0  0  0  0
    8.0788   -5.9538    0.0000 O   0  0  0  0  0  0  0  0  0  0  0  0
    6.6499   -5.1287    0.0000 O   0  0  0  0  0  0  0  0  0  0  0  0
    9.5078   -8.4287    0.0000 C   0  0  0  0  0  0  0  0  0  0  0  0
    9.5078   -7.6037    0.0000 C   0  0  0  0  0  0  0  0  0  0  0  0
   10.2222   -8.8412    0.0000 C   0  0  0  0  0  0  0  0  0  0  0  0
   10.9367   -7.6037    0.0000 C   0  0  0  0  0  0  0  0  0  0  0  0
   10.2222   -7.1913    0.0000 C   0  0  0  0  0  0  0  0  0  0  0  0
    1.6486   -7.1913    0.0000 O   0  0  0  0  0  0  0  0  0  0  0  0
    7.3644   -4.7162    0.0000 C   0  0  0  0  0  0  0  0  0  0  0  0
    9.5078   -5.9538    0.0000 C   0  0  0  0  0  0  0  0  0  0  0  0
   10.2222   -6.3662    0.0000 O   0  0  0  0  0  0  0  0  0  0  0  0
   10.9367   -8.4288    0.0000 C   0  0  0  0  0  0  0  0  0  0  0  0
   11.6512   -8.8413    0.0000 O   0  0  0  0  0  0  0  0  0  0  0  0
   11.6512   -7.1913    0.0000 O   0  0  0  0  0  0  0  0  0  0  0  0
   12.3656   -7.6037    0.0000 C   0  0  0  0  0  0  0  0  0  0  0  0
  1  2  2  0  0  0  0
  2  3  1  0  0  0  0
  3  4  2  0  0  0  0
  4  5  1  0  0  0  0
  5  6  2  0  0  0  0
  6  1  1  0  0  0  0
  4  7  1  0  0  0  0
  7  8  1  0  0  0  0
  8  9  2  0  0  0  0
  9 10  1  0  0  0  0
 10  5  1  0  0  0  0
  3 11  1  0  0  0  0
 12  7  2  0  0  0  0
  9 13  1  0  0  0  0
 13 14  1  0  0  0  0
 13 15  2  0  0  0  0
 15 16  1  0  0  0  0
 16 17  2  0  0  0  0
 17 18  1  0  0  0  0
 18 14  2  0  0  0  0
 16 19  1  0  0  0  0
 19 20  1  0  0  0  0
 20 21  1  0  0  0  0
 21 22  1  0  0  0  0
 22 17  1  0  0  0  0
 18 23  1  0  0  0  0
 24 25  2  0  0  0  0
 20 25  1  1  0  0  0
 24 26  1  0  0  0  0
 27 28  2  0  0  0  0
 28 25  1  0  0  0  0
  1 29  1  0  0  0  0
 23 30  1  0  0  0  0
 21 31  1  6  0  0  0
 31 32  1  0  0  0  0
 27 33  1  0  0  0  0
 26 33  2  0  0  0  0
 33 34  1  0  0  0  0
 27 35  1  0  0  0  0
 35 36  1  0  0  0  0
M  END
>  <cdx:fragmentId>
5

$$$$
