92230.cdx
  Mrv1902 05222410192D          

 40 45  0  0  0  0            999 V2000
    4.7693   -8.4700    0.0000 C   0  0  0  0  0  0  0  0  0  0  0  0
    4.7693   -9.2950    0.0000 C   0  0  0  0  0  0  0  0  0  0  0  0
    5.4838   -9.7075    0.0000 C   0  0  0  0  0  0  0  0  0  0  0  0
    6.1982   -9.2950    0.0000 C   0  0  0  0  0  0  0  0  0  0  0  0
    6.1982   -8.4700    0.0000 C   0  0  0  0  0  0  0  0  0  0  0  0
    5.4838   -8.0575    0.0000 C   0  0  0  0  0  0  0  0  0  0  0  0
    4.0548   -9.7075    0.0000 O   0  0  0  0  0  0  0  0  0  0  0  0
    6.9127   -8.0575    0.0000 C   0  0  1  0  0  0  0  0  0  0  0  0
    7.6664   -8.3931    0.0000 O   0  0  0  0  0  0  0  0  0  0  0  0
    8.2184   -7.7800    0.0000 C   0  0  0  0  0  0  0  0  0  0  0  0
    7.8059   -7.0655    0.0000 C   0  0  1  0  0  0  0  0  0  0  0  0
    6.9990   -7.2370    0.0000 C   0  0  2  0  0  0  0  0  0  0  0  0
    7.8922   -6.2450    0.0000 C   0  0  2  0  0  0  0  0  0  0  0  0
    7.1385   -5.9095    0.0000 O   0  0  0  0  0  0  0  0  0  0  0  0
    6.5865   -6.5225    0.0000 C   0  0  0  0  0  0  0  0  0  0  0  0
    8.6066   -5.8325    0.0000 C   0  0  0  0  0  0  0  0  0  0  0  0
    9.3211   -6.2450    0.0000 C   0  0  0  0  0  0  0  0  0  0  0  0
   10.0356   -5.8325    0.0000 C   0  0  0  0  0  0  0  0  0  0  0  0
   10.0356   -5.0075    0.0000 C   0  0  0  0  0  0  0  0  0  0  0  0
    9.3211   -4.5950    0.0000 C   0  0  0  0  0  0  0  0  0  0  0  0
    8.6066   -5.0075    0.0000 C   0  0  0  0  0  0  0  0  0  0  0  0
   10.8202   -6.0875    0.0000 O   0  0  0  0  0  0  0  0  0  0  0  0
   11.3051   -5.4200    0.0000 C   0  0  0  0  0  0  0  0  0  0  0  0
   10.8202   -4.7526    0.0000 O   0  0  0  0  0  0  0  0  0  0  0  0
    6.1920   -7.4085    0.0000 H   0  0  0  0  0  0  0  0  0  0  0  0
    8.6129   -6.8940    0.0000 H   0  0  0  0  0  0  0  0  0  0  0  0
    4.0548  -10.5325    0.0000 C   0  0  2  0  0  0  0  0  0  0  0  0
    3.3404  -10.9450    0.0000 O   0  0  0  0  0  0  0  0  0  0  0  0
    3.3404  -11.7700    0.0000 C   0  0  1  0  0  0  0  0  0  0  0  0
    4.0548  -12.1825    0.0000 C   0  0  2  0  0  0  0  0  0  0  0  0
    4.7693  -11.7700    0.0000 C   0  0  1  0  0  0  0  0  0  0  0  0
    4.7693  -10.9450    0.0000 C   0  0  1  0  0  0  0  0  0  0  0  0
    2.6259  -12.1825    0.0000 C   0  0  0  0  0  0  0  0  0  0  0  0
    5.4838  -12.1825    0.0000 O   0  0  0  0  0  0  0  0  0  0  0  0
    5.4838  -10.5325    0.0000 O   0  0  0  0  0  0  0  0  0  0  0  0
    4.0548  -13.0075    0.0000 O   0  0  0  0  0  0  0  0  0  0  0  0
    2.6259  -13.0075    0.0000 O   0  0  0  0  0  0  0  0  0  0  0  0
    4.0548   -8.0575    0.0000 O   0  0  0  0  0  0  0  0  0  0  0  0
    9.3211   -3.7700    0.0000 O   0  0  0  0  0  0  0  0  0  0  0  0
    8.6066   -3.3575    0.0000 C   0  0  0  0  0  0  0  0  0  0  0  0
  1  2  2  0  0  0  0
  2  3  1  0  0  0  0
  3  4  2  0  0  0  0
  4  5  1  0  0  0  0
  5  6  2  0  0  0  0
  6  1  1  0  0  0  0
  2  7  1  0  0  0  0
  8  5  1  6  0  0  0
  8  9  1  0  0  0  0
  9 10  1  0  0  0  0
 10 11  1  0  0  0  0
 11 12  1  0  0  0  0
 12  8  1  0  0  0  0
 11 13  1  0  0  0  0
 13 14  1  0  0  0  0
 14 15  1  0  0  0  0
 15 12  1  0  0  0  0
 13 16  1  6  0  0  0
 16 17  2  0  0  0  0
 17 18  1  0  0  0  0
 18 19  2  0  0  0  0
 19 20  1  0  0  0  0
 20 21  2  0  0  0  0
 21 16  1  0  0  0  0
 18 22  1  0  0  0  0
 22 23  1  0  0  0  0
 23 24  1  0  0  0  0
 24 19  1  0  0  0  0
 12 25  1  6  0  0  0
 11 26  1  6  0  0  0
 27  7  1  1  0  0  0
 27 28  1  0  0  0  0
 28 29  1  0  0  0  0
 29 30  1  0  0  0  0
 30 31  1  0  0  0  0
 31 32  1  0  0  0  0
 32 27  1  0  0  0  0
 29 33  1  1  0  0  0
 31 34  1  1  0  0  0
 32 35  1  6  0  0  0
 30 36  1  6  0  0  0
 33 37  1  0  0  0  0
  1 38  1  0  0  0  0
 20 39  1  0  0  0  0
 39 40  1  0  0  0  0
M  END
>  <cdx:fragmentId>
5

$$$$
