92234.cdx
  Mrv1902 05222410192D          

  7  7  0  0  0  0            999 V2000
    6.8731   -6.0775    0.0000 C   0  0  0  0  0  0  0  0  0  0  0  0
    6.8731   -6.9025    0.0000 C   0  0  0  0  0  0  0  0  0  0  0  0
    7.5875   -7.3150    0.0000 S   0  0  0  0  0  0  0  0  0  0  0  0
    8.3020   -6.9025    0.0000 S   0  0  0  0  0  0  0  0  0  0  0  0
    8.3020   -6.0775    0.0000 S   0  0  0  0  0  0  0  0  0  0  0  0
    7.5875   -5.6650    0.0000 S   0  0  0  0  0  0  0  0  0  0  0  0
    6.1586   -7.3150    0.0000 C   0  0  0  0  0  0  0  0  0  0  0  0
  1  2  1  0  0  0  0
  2  3  1  0  0  0  0
  3  4  1  0  0  0  0
  4  5  1  0  0  0  0
  5  6  1  0  0  0  0
  6  1  1  0  0  0  0
  2  7  1  0  0  0  0
M  END
>  <cdx:fragmentId>
5

$$$$
