9224.cdx
  Mrv1902 05222410192D          

 39 43  0  0  0  0            999 V2000
   10.0907  -10.7112    0.0000 O   0  0  0  0  0  0  0  0  0  0  0  0
    8.6618  -11.5362    0.0000 O   0  0  0  0  0  0  0  0  0  0  0  0
   10.8914   -8.6442    0.0000 H   0  0  0  0  0  0  0  0  0  0  0  0
   10.8914   -6.1783    0.0000 H   0  0  0  0  0  0  0  0  0  0  0  0
   11.8448   -5.9592    0.0000 O   0  0  0  0  0  0  0  0  0  0  0  0
    1.5171  -10.7112    0.0000 O   0  0  0  0  0  0  0  0  0  0  0  0
   12.3043   -9.3162    0.0000 O   0  0  0  0  0  0  0  0  0  0  0  0
   11.5898   -8.9037    0.0000 C   0  0  0  0  0  0  0  0  0  0  0  0
   12.4873   -8.1257    0.0000 O   0  0  0  0  0  0  0  0  0  0  0  0
   11.5898   -8.0787    0.0000 C   0  0  2  0  0  0  0  0  0  0  0  0
   12.0748   -7.4112    0.0000 C   0  0  2  0  0  0  0  0  0  0  0  0
   11.5898   -6.7438    0.0000 C   0  0  2  0  0  0  0  0  0  0  0  0
    2.9460   -9.0613    0.0000 C   0  0  0  0  0  0  0  0  0  0  0  0
    2.2316   -9.4738    0.0000 C   0  0  0  0  0  0  0  0  0  0  0  0
    2.2316  -10.2987    0.0000 C   0  0  0  0  0  0  0  0  0  0  0  0
    2.9460  -10.7112    0.0000 C   0  0  0  0  0  0  0  0  0  0  0  0
    3.6605   -9.4738    0.0000 C   0  0  0  0  0  0  0  0  0  0  0  0
    3.6605  -10.2987    0.0000 C   0  0  0  0  0  0  0  0  0  0  0  0
    4.3750   -9.0613    0.0000 C   0  0  0  0  0  0  0  0  0  0  0  0
    5.0894   -9.4738    0.0000 C   0  0  0  0  0  0  0  0  0  0  0  0
    5.8039   -8.2363    0.0000 O   0  0  0  0  0  0  0  0  0  0  0  0
    5.8039   -9.0613    0.0000 C   0  0  0  0  0  0  0  0  0  0  0  0
    7.2329   -9.0613    0.0000 C   0  0  0  0  0  0  0  0  0  0  0  0
    6.5184   -9.4738    0.0000 O   0  0  0  0  0  0  0  0  0  0  0  0
    7.2329  -10.7112    0.0000 O   0  0  0  0  0  0  0  0  0  0  0  0
    7.9473   -9.4738    0.0000 C   0  0  2  0  0  0  0  0  0  0  0  0
    7.9473  -10.2988    0.0000 C   0  0  2  0  0  0  0  0  0  0  0  0
    8.6618  -10.7112    0.0000 C   0  0  1  0  0  0  0  0  0  0  0  0
    9.3763  -10.2988    0.0000 C   0  0  2  0  0  0  0  0  0  0  0  0
    8.6618   -9.0613    0.0000 O   0  0  0  0  0  0  0  0  0  0  0  0
    9.3763   -9.4738    0.0000 C   0  0  1  0  0  0  0  0  0  0  0  0
   10.0907   -9.0613    0.0000 O   0  0  0  0  0  0  0  0  0  0  0  0
   10.0907   -6.5863    0.0000 C   0  0  0  0  0  0  0  0  0  0  0  0
    9.3763   -6.9988    0.0000 C   0  0  0  0  0  0  0  0  0  0  0  0
    9.3763   -7.8237    0.0000 O   0  0  0  0  0  0  0  0  0  0  0  0
   10.0907   -8.2363    0.0000 C   0  0  2  0  0  0  0  0  0  0  0  0
   10.8052   -7.8237    0.0000 C   0  0  1  0  0  0  0  0  0  0  0  0
   10.8052   -6.9988    0.0000 C   0  0  2  0  0  0  0  0  0  0  0  0
   12.6581   -6.8279    0.0000 H   0  0  0  0  0  0  0  0  0  0  0  0
 29  1  1  6  0  0  0
 28  2  1  1  0  0  0
 37  3  1  6  0  0  0
 38  4  1  6  0  0  0
 12  5  1  6  0  0  0
 15  6  1  0  0  0  0
  8  7  1  0  0  0  0
 10  8  1  1  0  0  0
 10  9  1  0  0  0  0
 11  9  1  0  0  0  0
 10 37  1  0  0  0  0
 11 10  1  0  0  0  0
 12 11  1  0  0  0  0
 38 12  1  0  0  0  0
 13 17  1  0  0  0  0
 14 13  2  0  0  0  0
 15 14  1  0  0  0  0
 16 15  2  0  0  0  0
 18 16  1  0  0  0  0
 17 19  1  0  0  0  0
 18 17  2  0  0  0  0
 20 19  2  0  0  0  0
 22 20  1  0  0  0  0
 22 21  2  0  0  0  0
 24 22  1  0  0  0  0
 26 23  1  1  0  0  0
 24 23  1  0  0  0  0
 27 25  1  6  0  0  0
 26 30  1  0  0  0  0
 27 26  1  0  0  0  0
 28 27  1  0  0  0  0
 29 28  1  0  0  0  0
 31 29  1  0  0  0  0
 31 30  1  0  0  0  0
 31 32  1  1  0  0  0
 36 32  1  6  0  0  0
 33 38  1  0  0  0  0
 34 33  2  0  0  0  0
 35 34  1  0  0  0  0
 36 35  1  0  0  0  0
 37 36  1  0  0  0  0
 38 37  1  0  0  0  0
 11 39  1  1  0  0  0
M  END
>  <cdx:fragmentId>
5

$$$$
