92240.cdx
  Mrv1902 05222410232D          

 11 11  0  0  0  0            999 V2000
    5.7868   -9.9688    0.0000 C   0  0  0  0  0  0  0  0  0  0  0  0
    5.7868  -10.7937    0.0000 C   0  0  0  0  0  0  0  0  0  0  0  0
    6.5013  -11.2062    0.0000 C   0  0  0  0  0  0  0  0  0  0  0  0
    7.2157  -10.7937    0.0000 C   0  0  0  0  0  0  0  0  0  0  0  0
    7.2157   -9.9688    0.0000 C   0  0  0  0  0  0  0  0  0  0  0  0
    6.5013   -9.5563    0.0000 C   0  0  0  0  0  0  0  0  0  0  0  0
    6.5013   -8.7313    0.0000 C   0  0  0  0  0  0  0  0  0  0  0  0
    7.2157   -8.3187    0.0000 C   0  0  0  0  0  0  0  0  0  0  0  0
    7.2157   -7.4937    0.0000 C   0  0  0  0  0  0  0  0  0  0  0  0
    7.9302   -7.0812    0.0000 C   0  0  0  0  0  0  0  0  0  0  0  0
    7.9302   -6.2563    0.0000 C   0  0  0  0  0  0  0  0  0  0  0  0
  1  2  1  0  0  0  0
  2  3  2  0  0  0  0
  3  4  1  0  0  0  0
  4  5  2  0  0  0  0
  5  6  1  0  0  0  0
  6  1  1  0  0  0  0
  6  7  1  0  0  0  0
  7  8  1  0  0  0  0
  8  9  1  0  0  0  0
  9 10  1  0  0  0  0
 10 11  1  0  0  0  0
M  END
>  <cdx:fragmentId>
5

$$$$
