92244.cdx
  Mrv1902 05222410202D          

 42 46  0  0  0  0            999 V2000
    2.6243   -7.0125    0.0000 C   0  0  0  0  0  0  0  0  0  0  0  0
    2.6243   -7.8375    0.0000 C   0  0  0  0  0  0  0  0  0  0  0  0
    3.3388   -8.2500    0.0000 C   0  0  0  0  0  0  0  0  0  0  0  0
    4.0532   -7.8375    0.0000 C   0  0  0  0  0  0  0  0  0  0  0  0
    4.0532   -7.0125    0.0000 C   0  0  0  0  0  0  0  0  0  0  0  0
    3.3388   -6.6000    0.0000 C   0  0  0  0  0  0  0  0  0  0  0  0
    4.7677   -8.2500    0.0000 C   0  0  0  0  0  0  0  0  0  0  0  0
    5.4822   -7.8375    0.0000 C   0  0  0  0  0  0  0  0  0  0  0  0
    5.4822   -7.0125    0.0000 C   0  0  0  0  0  0  0  0  0  0  0  0
    4.7677   -6.6000    0.0000 O   0  0  0  0  0  0  0  0  0  0  0  0
    6.9111   -7.0125    0.0000 C   0  0  0  0  0  0  0  0  0  0  0  0
    6.1967   -6.6000    0.0000 C   0  0  0  0  0  0  0  0  0  0  0  0
    7.6256   -6.6000    0.0000 C   0  0  0  0  0  0  0  0  0  0  0  0
    7.6256   -5.7750    0.0000 C   0  0  0  0  0  0  0  0  0  0  0  0
    6.9111   -5.3625    0.0000 C   0  0  0  0  0  0  0  0  0  0  0  0
    6.1967   -5.7750    0.0000 C   0  0  0  0  0  0  0  0  0  0  0  0
    9.0545   -5.7750    0.0000 C   0  0  2  0  0  0  0  0  0  0  0  0
    8.3401   -5.3625    0.0000 O   0  0  0  0  0  0  0  0  0  0  0  0
    1.9098   -6.6000    0.0000 O   0  0  0  0  0  0  0  0  0  0  0  0
    4.7677   -9.0750    0.0000 O   0  0  0  0  0  0  0  0  0  0  0  0
    9.0545   -6.6000    0.0000 C   0  0  2  0  0  0  0  0  0  0  0  0
    9.7690   -7.0125    0.0000 C   0  0  1  0  0  0  0  0  0  0  0  0
   10.4835   -6.6000    0.0000 C   0  0  2  0  0  0  0  0  0  0  0  0
   10.4835   -5.7750    0.0000 C   0  0  1  0  0  0  0  0  0  0  0  0
    9.7690   -5.3625    0.0000 O   0  0  0  0  0  0  0  0  0  0  0  0
   11.1980   -5.3625    0.0000 C   0  0  0  0  0  0  0  0  0  0  0  0
    9.7690   -7.8375    0.0000 O   0  0  0  0  0  0  0  0  0  0  0  0
    8.3401   -7.0125    0.0000 O   0  0  0  0  0  0  0  0  0  0  0  0
   11.1980   -7.0125    0.0000 O   0  0  0  0  0  0  0  0  0  0  0  0
   11.9124   -5.7750    0.0000 O   0  0  0  0  0  0  0  0  0  0  0  0
   12.6269   -5.3625    0.0000 C   0  0  0  0  0  0  0  0  0  0  0  0
   13.3414   -5.7750    0.0000 C   0  0  0  0  0  0  0  0  0  0  0  0
   12.6269   -4.5375    0.0000 O   0  0  0  0  0  0  0  0  0  0  0  0
    8.3401   -7.8375    0.0000 C   0  0  1  0  0  0  0  0  0  0  0  0
    7.6726   -8.3224    0.0000 C   0  0  2  0  0  0  0  0  0  0  0  0
    7.9276   -9.1070    0.0000 C   0  0  0  0  0  0  0  0  0  0  0  0
    8.7526   -9.1070    0.0000 C   0  0  0  0  0  0  0  0  0  0  0  0
    9.0075   -8.3224    0.0000 O   0  0  0  0  0  0  0  0  0  0  0  0
    6.8880   -8.0675    0.0000 O   0  0  0  0  0  0  0  0  0  0  0  0
    7.7140   -9.9039    0.0000 O   0  0  0  0  0  0  0  0  0  0  0  0
    7.1307   -9.3206    0.0000 C   0  0  0  0  0  0  0  0  0  0  0  0
    6.9172  -10.1175    0.0000 O   0  0  0  0  0  0  0  0  0  0  0  0
  1  2  2  0  0  0  0
  2  3  1  0  0  0  0
  3  4  2  0  0  0  0
  4  5  1  0  0  0  0
  5  6  2  0  0  0  0
  6  1  1  0  0  0  0
  4  7  1  0  0  0  0
  7  8  1  0  0  0  0
  8  9  1  0  0  0  0
  9 10  1  0  0  0  0
 10  5  1  0  0  0  0
 11 12  2  0  0  0  0
 12  9  1  0  0  0  0
 11 13  1  0  0  0  0
 13 14  2  0  0  0  0
 14 15  1  0  0  0  0
 15 16  2  0  0  0  0
 16 12  1  0  0  0  0
 17 18  1  1  0  0  0
 18 14  1  0  0  0  0
  1 19  1  0  0  0  0
  7 20  2  0  0  0  0
 17 21  1  0  0  0  0
 21 22  1  0  0  0  0
 22 23  1  0  0  0  0
 23 24  1  0  0  0  0
 24 25  1  0  0  0  0
 25 17  1  0  0  0  0
 24 26  1  1  0  0  0
 22 27  1  1  0  0  0
 21 28  1  6  0  0  0
 23 29  1  6  0  0  0
 26 30  1  0  0  0  0
 30 31  1  0  0  0  0
 31 32  1  0  0  0  0
 31 33  2  0  0  0  0
 34 28  1  6  0  0  0
 34 35  1  0  0  0  0
 35 36  1  0  0  0  0
 36 37  1  0  0  0  0
 37 38  1  0  0  0  0
 38 34  1  0  0  0  0
 35 39  1  6  0  0  0
 36 40  1  0  0  0  0
 36 41  1  0  0  0  0
 41 42  1  0  0  0  0
M  END
>  <cdx:fragmentId>
5

$$$$
