92248.cdx
  Mrv1902 05222410252D          

 41 44  0  0  0  0            999 V2000
    8.7400   -5.8507    0.0000 C   0  0  0  0  0  0  0  0  0  0  0  0
    7.9723   -6.1522    0.0000 C   0  0  0  0  0  0  0  0  0  0  0  0
    8.3248   -5.4063    0.0000 C   0  0  0  0  0  0  0  0  0  0  0  0
    9.0809   -5.0771    0.0000 C   0  0  0  0  0  0  0  0  0  0  0  0
    8.7400   -4.2220    0.0000 N   0  0  0  0  0  0  0  0  0  0  0  0
    9.8384   -5.4034    0.0000 C   0  0  0  0  0  0  0  0  0  0  0  0
    9.5106   -6.1449    0.0000 C   0  0  0  0  0  0  0  0  0  0  0  0
   10.2827   -6.7524    0.0000 C   0  0  0  0  0  0  0  0  0  0  0  0
    7.3696   -6.7156    0.0000 O   0  0  0  0  0  0  0  0  0  0  0  0
    6.6603   -7.1370    0.0000 C   0  0  0  0  0  0  0  0  0  0  0  0
    5.9408   -6.7333    0.0000 C   0  0  0  0  0  0  0  0  0  0  0  0
    6.6705   -7.9619    0.0000 O   0  0  0  0  0  0  0  0  0  0  0  0
   10.2827   -7.5774    0.0000 O   0  0  0  0  0  0  0  0  0  0  0  0
   10.9972   -7.9899    0.0000 C   0  0  0  0  0  0  0  0  0  0  0  0
   10.9972   -8.8149    0.0000 O   0  0  0  0  0  0  0  0  0  0  0  0
   11.7117   -7.5774    0.0000 C   0  0  0  0  0  0  0  0  0  0  0  0
   12.4261   -7.9899    0.0000 C   0  0  0  0  0  0  0  0  0  0  0  0
   11.7117   -6.7524    0.0000 C   0  0  0  0  0  0  0  0  0  0  0  0
   12.4261   -6.3399    0.0000 C   0  0  0  0  0  0  0  0  0  0  0  0
   12.4261   -5.5149    0.0000 C   0  0  0  0  0  0  0  0  0  0  0  0
   11.7117   -5.1024    0.0000 C   0  0  0  0  0  0  0  0  0  0  0  0
   10.9972   -5.5149    0.0000 C   0  0  0  0  0  0  0  0  0  0  0  0
   10.9972   -6.3399    0.0000 C   0  0  0  0  0  0  0  0  0  0  0  0
    8.9535   -3.4251    0.0000 C   0  0  0  0  0  0  0  0  0  0  0  0
    5.2315   -7.1547    0.0000 C   0  0  0  0  0  0  0  0  0  0  0  0
    5.2315   -7.9797    0.0000 C   0  0  0  0  0  0  0  0  0  0  0  0
    4.5170   -8.3922    0.0000 C   0  0  0  0  0  0  0  0  0  0  0  0
    4.5170   -9.2172    0.0000 C   0  0  0  0  0  0  0  0  0  0  0  0
    5.2315   -9.6297    0.0000 C   0  0  0  0  0  0  0  0  0  0  0  0
    5.9459   -9.2172    0.0000 C   0  0  0  0  0  0  0  0  0  0  0  0
    5.9459   -8.3922    0.0000 C   0  0  0  0  0  0  0  0  0  0  0  0
    6.6604   -9.6297    0.0000 O   0  0  0  0  0  0  0  0  0  0  0  0
    6.6604  -10.4547    0.0000 C   0  0  0  0  0  0  0  0  0  0  0  0
    5.2315  -10.4547    0.0000 O   0  0  0  0  0  0  0  0  0  0  0  0
    4.5170  -10.8672    0.0000 C   0  0  0  0  0  0  0  0  0  0  0  0
    3.8025   -9.6297    0.0000 O   0  0  0  0  0  0  0  0  0  0  0  0
    3.0881   -9.2172    0.0000 O   0  0  0  0  0  0  0  0  0  0  0  0
   13.1406   -7.5774    0.0000 O   0  0  0  0  0  0  0  0  0  0  0  0
    2.3736   -9.6297    0.0000 C   0  0  0  0  0  0  0  0  0  0  0  0
    1.6591   -9.2172    0.0000 C   0  0  0  0  0  0  0  0  0  0  0  0
    2.3736  -10.4547    0.0000 O   0  0  0  0  0  0  0  0  0  0  0  0
  1  2  1  0  0  0  0
  2  3  1  0  0  0  0
  3  4  1  0  0  0  0
  1  5  1  0  0  0  0
  4  5  1  0  0  0  0
  4  6  1  0  0  0  0
  1  7  1  0  0  0  0
  6  8  1  0  0  0  0
  7  8  1  0  0  0  0
  2  9  1  0  0  0  0
  9 10  1  0  0  0  0
 10 11  1  0  0  0  0
 10 12  2  0  0  0  0
  8 13  1  0  0  0  0
 13 14  1  0  0  0  0
 14 15  2  0  0  0  0
 14 16  1  0  0  0  0
 16 17  1  0  0  0  0
 16 18  1  0  0  0  0
 18 19  2  0  0  0  0
 19 20  1  0  0  0  0
 20 21  2  0  0  0  0
 21 22  1  0  0  0  0
 22 23  2  0  0  0  0
 23 18  1  0  0  0  0
  5 24  1  0  0  0  0
 11 25  2  0  0  0  0
 25 26  1  0  0  0  0
 26 27  2  0  0  0  0
 27 28  1  0  0  0  0
 28 29  2  0  0  0  0
 29 30  1  0  0  0  0
 30 31  2  0  0  0  0
 31 26  1  0  0  0  0
 30 32  1  0  0  0  0
 32 33  1  0  0  0  0
 29 34  1  0  0  0  0
 34 35  1  0  0  0  0
 28 36  1  0  0  0  0
 36 37  1  0  0  0  0
 17 38  1  0  0  0  0
 37 39  1  0  0  0  0
 39 40  1  0  0  0  0
 39 41  2  0  0  0  0
M  END
>  <cdx:groupId>
816

>  <cdx:fragmentId>
817

$$$$
