10922465.cdx
  Mrv1902 05222410192D          

 19 20  0  0  0  0            999 V2000
    8.5230  -12.8480    0.0000 C   0  0  0  0  0  0  0  0  0  0  0  0
    7.8085  -12.4355    0.0000 C   0  0  0  0  0  0  0  0  0  0  0  0
    7.0940  -12.8480    0.0000 C   0  0  0  0  0  0  0  0  0  0  0  0
    8.5230  -13.6730    0.0000 O   0  0  0  0  0  0  0  0  0  0  0  0
    9.2374  -12.4355    0.0000 O   0  0  0  0  0  0  0  0  0  0  0  0
    7.8085  -11.6105    0.0000 C   0  0  2  0  0  0  0  0  0  0  0  0
    8.5230  -11.1980    0.0000 C   0  0  0  0  0  0  0  0  0  0  0  0
    8.5230  -10.3730    0.0000 C   0  0  0  0  0  0  0  0  0  0  0  0
    7.8085   -9.9605    0.0000 C   0  0  2  0  0  0  0  0  0  0  0  0
    7.0940  -10.3730    0.0000 C   0  0  2  0  0  0  0  0  0  0  0  0
    6.3795   -9.9605    0.0000 C   0  0  0  0  0  0  0  0  0  0  0  0
    5.6651  -10.3730    0.0000 C   0  0  0  0  0  0  0  0  0  0  0  0
    5.6651  -11.1980    0.0000 C   0  0  0  0  0  0  0  0  0  0  0  0
    6.3795  -11.6105    0.0000 C   0  0  0  0  0  0  0  0  0  0  0  0
    7.0940  -11.1980    0.0000 C   0  0  2  0  0  0  0  0  0  0  0  0
    4.9506  -11.6105    0.0000 C   0  0  0  0  0  0  0  0  0  0  0  0
    7.8085   -9.1355    0.0000 C   0  0  0  0  0  0  0  0  0  0  0  0
    7.0940   -9.5480    0.0000 H   0  0  0  0  0  0  0  0  0  0  0  0
    7.0940  -12.0230    0.0000 H   0  0  0  0  0  0  0  0  0  0  0  0
  1  2  1  0  0  0  0
  2  3  2  0  0  0  0
  1  4  2  0  0  0  0
  1  5  1  0  0  0  0
  6  7  1  0  0  0  0
  7  8  1  0  0  0  0
  8  9  1  0  0  0  0
  9 10  1  0  0  0  0
 10 11  1  0  0  0  0
 11 12  1  0  0  0  0
 12 13  1  0  0  0  0
 13 14  2  0  0  0  0
 14 15  1  0  0  0  0
  6 15  1  0  0  0  0
 10 15  1  0  0  0  0
 13 16  1  0  0  0  0
  9 17  1  6  0  0  0
  6  2  1  1  0  0  0
 10 18  1  6  0  0  0
 15 19  1  6  0  0  0
M  END
>  <cdx:groupId>
63367

>  <cdx:fragmentId>
63322

$$$$
