92246.cdx
  Mrv1902 05222410212D          

 42 45  0  0  0  0            999 V2000
    5.7837   -5.7407    0.0000 C   0  0  0  0  0  0  0  0  0  0  0  0
    5.0160   -6.0422    0.0000 C   0  0  0  0  0  0  0  0  0  0  0  0
    5.3685   -5.2963    0.0000 C   0  0  0  0  0  0  0  0  0  0  0  0
    6.1246   -4.9671    0.0000 C   0  0  0  0  0  0  0  0  0  0  0  0
    5.7837   -4.1120    0.0000 N   0  0  0  0  0  0  0  0  0  0  0  0
    6.8822   -5.2934    0.0000 C   0  0  0  0  0  0  0  0  0  0  0  0
    6.5544   -6.0349    0.0000 C   0  0  0  0  0  0  0  0  0  0  0  0
    7.3265   -6.6424    0.0000 C   0  0  0  0  0  0  0  0  0  0  0  0
    4.6541   -4.8838    0.0000 O   0  0  0  0  0  0  0  0  0  0  0  0
    4.4406   -4.0870    0.0000 C   0  0  0  0  0  0  0  0  0  0  0  0
    4.4134   -6.6056    0.0000 O   0  0  0  0  0  0  0  0  0  0  0  0
    4.0009   -7.3201    0.0000 C   0  0  0  0  0  0  0  0  0  0  0  0
    3.1759   -7.3201    0.0000 C   0  0  0  0  0  0  0  0  0  0  0  0
    4.4134   -8.0346    0.0000 O   0  0  0  0  0  0  0  0  0  0  0  0
    2.7634   -6.6056    0.0000 C   0  0  0  0  0  0  0  0  0  0  0  0
    1.9384   -6.6056    0.0000 C   0  0  0  0  0  0  0  0  0  0  0  0
    1.5259   -7.3201    0.0000 C   0  0  0  0  0  0  0  0  0  0  0  0
    1.9384   -8.0346    0.0000 C   0  0  0  0  0  0  0  0  0  0  0  0
    2.7634   -8.0346    0.0000 C   0  0  0  0  0  0  0  0  0  0  0  0
    1.5259   -5.8912    0.0000 O   0  0  0  0  0  0  0  0  0  0  0  0
    0.7009   -7.3201    0.0000 O   0  0  0  0  0  0  0  0  0  0  0  0
    1.5259   -8.7491    0.0000 O   0  0  0  0  0  0  0  0  0  0  0  0
    7.3265   -7.4674    0.0000 O   0  0  0  0  0  0  0  0  0  0  0  0
    8.0410   -7.8799    0.0000 C   0  0  0  0  0  0  0  0  0  0  0  0
    8.0410   -8.7049    0.0000 O   0  0  0  0  0  0  0  0  0  0  0  0
    8.7554   -7.4674    0.0000 C   0  0  0  0  0  0  0  0  0  0  0  0
    9.4699   -7.8799    0.0000 C   0  0  0  0  0  0  0  0  0  0  0  0
    8.7554   -6.6424    0.0000 C   0  0  0  0  0  0  0  0  0  0  0  0
   10.1844   -7.4674    0.0000 O   0  0  0  0  0  0  0  0  0  0  0  0
   10.8988   -7.8799    0.0000 C   0  0  0  0  0  0  0  0  0  0  0  0
   11.6133   -7.4674    0.0000 C   0  0  0  0  0  0  0  0  0  0  0  0
   12.3278   -7.8799    0.0000 C   0  0  0  0  0  0  0  0  0  0  0  0
   13.0423   -7.4674    0.0000 C   0  0  0  0  0  0  0  0  0  0  0  0
   13.7567   -7.8799    0.0000 C   0  0  0  0  0  0  0  0  0  0  0  0
   12.3278   -8.7049    0.0000 C   0  0  0  0  0  0  0  0  0  0  0  0
    9.4699   -6.2299    0.0000 C   0  0  0  0  0  0  0  0  0  0  0  0
    9.4699   -5.4049    0.0000 C   0  0  0  0  0  0  0  0  0  0  0  0
    8.7554   -4.9924    0.0000 C   0  0  0  0  0  0  0  0  0  0  0  0
    8.0410   -5.4049    0.0000 C   0  0  0  0  0  0  0  0  0  0  0  0
    8.0410   -6.2299    0.0000 C   0  0  0  0  0  0  0  0  0  0  0  0
   10.8988   -8.7049    0.0000 O   0  0  0  0  0  0  0  0  0  0  0  0
    5.9973   -3.3151    0.0000 C   0  0  0  0  0  0  0  0  0  0  0  0
  1  2  1  0  0  0  0
  2  3  1  0  0  0  0
  3  4  1  0  0  0  0
  1  5  1  0  0  0  0
  4  5  1  0  0  0  0
  4  6  1  0  0  0  0
  1  7  1  0  0  0  0
  6  8  1  0  0  0  0
  7  8  1  0  0  0  0
  3  9  1  0  0  0  0
  9 10  1  0  0  0  0
  2 11  1  0  0  0  0
 11 12  1  0  0  0  0
 12 13  1  0  0  0  0
 12 14  2  0  0  0  0
 13 15  2  0  0  0  0
 15 16  1  0  0  0  0
 16 17  2  0  0  0  0
 17 18  1  0  0  0  0
 18 19  2  0  0  0  0
 19 13  1  0  0  0  0
 16 20  1  0  0  0  0
 17 21  1  0  0  0  0
 18 22  1  0  0  0  0
  8 23  1  0  0  0  0
 23 24  1  0  0  0  0
 24 25  2  0  0  0  0
 24 26  1  0  0  0  0
 26 27  1  0  0  0  0
 26 28  1  0  0  0  0
 27 29  1  0  0  0  0
 29 30  1  0  0  0  0
 30 31  1  0  0  0  0
 31 32  2  0  0  0  0
 32 33  1  0  0  0  0
 33 34  1  0  0  0  0
 32 35  1  0  0  0  0
 28 36  2  0  0  0  0
 36 37  1  0  0  0  0
 37 38  2  0  0  0  0
 38 39  1  0  0  0  0
 39 40  2  0  0  0  0
 40 28  1  0  0  0  0
 30 41  2  0  0  0  0
  5 42  1  0  0  0  0
M  END
>  <cdx:groupId>
816

>  <cdx:fragmentId>
817

$$$$
