92247.cdx
  Mrv1902 05222410212D          

 41 44  0  0  0  0            999 V2000
    7.0350   -5.8232    0.0000 C   0  0  0  0  0  0  0  0  0  0  0  0
    6.2673   -6.1247    0.0000 C   0  0  0  0  0  0  0  0  0  0  0  0
    6.6198   -5.3788    0.0000 C   0  0  0  0  0  0  0  0  0  0  0  0
    7.3759   -5.0496    0.0000 C   0  0  0  0  0  0  0  0  0  0  0  0
    7.0350   -4.1945    0.0000 N   0  0  0  0  0  0  0  0  0  0  0  0
    8.1334   -5.3759    0.0000 C   0  0  0  0  0  0  0  0  0  0  0  0
    7.8056   -6.1174    0.0000 C   0  0  0  0  0  0  0  0  0  0  0  0
    8.5777   -6.7249    0.0000 C   0  0  0  0  0  0  0  0  0  0  0  0
    5.9053   -4.9663    0.0000 O   0  0  0  0  0  0  0  0  0  0  0  0
    5.6646   -6.6881    0.0000 O   0  0  0  0  0  0  0  0  0  0  0  0
    4.9553   -7.1095    0.0000 C   0  0  0  0  0  0  0  0  0  0  0  0
    4.2358   -6.7058    0.0000 C   0  0  0  0  0  0  0  0  0  0  0  0
    4.9655   -7.9344    0.0000 O   0  0  0  0  0  0  0  0  0  0  0  0
    8.5777   -7.5499    0.0000 O   0  0  0  0  0  0  0  0  0  0  0  0
    9.2922   -7.9624    0.0000 C   0  0  0  0  0  0  0  0  0  0  0  0
    9.2922   -8.7874    0.0000 O   0  0  0  0  0  0  0  0  0  0  0  0
   10.0067   -7.5499    0.0000 C   0  0  0  0  0  0  0  0  0  0  0  0
   10.7211   -7.9624    0.0000 C   0  0  0  0  0  0  0  0  0  0  0  0
   10.0067   -6.7249    0.0000 C   0  0  0  0  0  0  0  0  0  0  0  0
   10.7211   -6.3124    0.0000 C   0  0  0  0  0  0  0  0  0  0  0  0
   10.7211   -5.4874    0.0000 C   0  0  0  0  0  0  0  0  0  0  0  0
   10.0067   -5.0749    0.0000 C   0  0  0  0  0  0  0  0  0  0  0  0
    9.2922   -5.4874    0.0000 C   0  0  0  0  0  0  0  0  0  0  0  0
    9.2922   -6.3124    0.0000 C   0  0  0  0  0  0  0  0  0  0  0  0
    7.2485   -3.3976    0.0000 C   0  0  0  0  0  0  0  0  0  0  0  0
    3.5265   -7.1272    0.0000 C   0  0  0  0  0  0  0  0  0  0  0  0
    3.5265   -7.9522    0.0000 C   0  0  0  0  0  0  0  0  0  0  0  0
    2.8120   -8.3647    0.0000 C   0  0  0  0  0  0  0  0  0  0  0  0
    2.8120   -9.1897    0.0000 C   0  0  0  0  0  0  0  0  0  0  0  0
    3.5265   -9.6022    0.0000 C   0  0  0  0  0  0  0  0  0  0  0  0
    4.2409   -9.1897    0.0000 C   0  0  0  0  0  0  0  0  0  0  0  0
    4.2409   -8.3647    0.0000 C   0  0  0  0  0  0  0  0  0  0  0  0
    4.9554   -9.6022    0.0000 O   0  0  0  0  0  0  0  0  0  0  0  0
    4.9554  -10.4272    0.0000 C   0  0  0  0  0  0  0  0  0  0  0  0
    3.5265  -10.4272    0.0000 O   0  0  0  0  0  0  0  0  0  0  0  0
    2.8120  -10.8397    0.0000 C   0  0  0  0  0  0  0  0  0  0  0  0
    2.0975   -9.6022    0.0000 O   0  0  0  0  0  0  0  0  0  0  0  0
    1.3831   -9.1897    0.0000 C   0  0  0  0  0  0  0  0  0  0  0  0
    5.1909   -5.3788    0.0000 C   0  0  0  0  0  0  0  0  0  0  0  0
    4.4764   -4.9663    0.0000 C   0  0  0  0  0  0  0  0  0  0  0  0
    5.1909   -6.2038    0.0000 O   0  0  0  0  0  0  0  0  0  0  0  0
  1  2  1  0  0  0  0
  2  3  1  0  0  0  0
  3  4  1  0  0  0  0
  1  5  1  0  0  0  0
  4  5  1  0  0  0  0
  4  6  1  0  0  0  0
  1  7  1  0  0  0  0
  6  8  1  0  0  0  0
  7  8  1  0  0  0  0
  3  9  1  0  0  0  0
  2 10  1  0  0  0  0
 10 11  1  0  0  0  0
 11 12  1  0  0  0  0
 11 13  2  0  0  0  0
  8 14  1  0  0  0  0
 14 15  1  0  0  0  0
 15 16  2  0  0  0  0
 15 17  1  0  0  0  0
 17 18  2  0  0  0  0
 17 19  1  0  0  0  0
 19 20  2  0  0  0  0
 20 21  1  0  0  0  0
 21 22  2  0  0  0  0
 22 23  1  0  0  0  0
 23 24  2  0  0  0  0
 24 19  1  0  0  0  0
  5 25  1  0  0  0  0
 12 26  2  0  0  0  0
 26 27  1  0  0  0  0
 27 28  2  0  0  0  0
 28 29  1  0  0  0  0
 29 30  2  0  0  0  0
 30 31  1  0  0  0  0
 31 32  2  0  0  0  0
 32 27  1  0  0  0  0
 31 33  1  0  0  0  0
 33 34  1  0  0  0  0
 30 35  1  0  0  0  0
 35 36  1  0  0  0  0
 29 37  1  0  0  0  0
 37 38  1  0  0  0  0
  9 39  1  0  0  0  0
 39 40  1  0  0  0  0
 39 41  2  0  0  0  0
M  END
>  <cdx:groupId>
816

>  <cdx:fragmentId>
817

$$$$
