92243.cdx
  Mrv1902 05222410222D          

 44 48  0  0  0  0            999 V2000
    5.2051   -6.4849    0.0000 C   0  0  0  0  0  0  0  0  0  0  0  0
    6.6410   -5.6546    0.0000 C   0  0  0  0  0  0  0  0  0  0  0  0
    5.9201   -5.2404    0.0000 C   0  0  0  0  0  0  0  0  0  0  0  0
    5.2051   -5.6599    0.0000 C   0  0  0  0  0  0  0  0  0  0  0  0
    5.9259   -6.8991    0.0000 C   0  0  2  0  0  0  0  0  0  0  0  0
    5.9230   -7.7351    0.0000 C   0  0  0  0  0  0  0  0  0  0  0  0
    7.3693   -6.9042    0.0000 C   0  0  0  0  0  0  0  0  0  0  0  0
    6.6466   -6.4883    0.0000 N   0  0  0  0  0  0  0  0  0  0  0  0
    6.6407   -8.1602    0.0000 C   0  0  2  0  0  0  0  0  0  0  0  0
    6.6435   -9.0051    0.0000 C   0  0  0  0  0  0  0  0  0  0  0  0
    7.3720   -9.4296    0.0000 C   0  0  0  0  0  0  0  0  0  0  0  0
    8.1021   -9.0002    0.0000 O   0  0  0  0  0  0  0  0  0  0  0  0
    8.0993   -8.1555    0.0000 C   0  0  2  0  0  0  0  0  0  0  0  0
    7.3663   -7.7402    0.0000 C   0  0  2  0  0  0  0  0  0  0  0  0
    8.6738   -7.5729    0.0000 H   0  0  0  0  0  0  0  0  0  0  0  0
    5.9312   -8.5611    0.0000 H   0  0  0  0  0  0  0  0  0  0  0  0
    5.2150   -7.3009    0.0000 H   0  0  0  0  0  0  0  0  0  0  0  0
    8.0773   -6.4986    0.0000 C   0  0  0  0  0  0  0  0  0  0  0  0
    5.9367   -9.4127    0.0000 C   0  0  0  0  0  0  0  0  0  0  0  0
    5.2318   -9.0022    0.0000 O   0  0  0  0  0  0  0  0  0  0  0  0
    5.9392  -10.2288    0.0000 O   0  0  0  0  0  0  0  0  0  0  0  0
    4.5236   -9.4075    0.0000 C   0  0  0  0  0  0  0  0  0  0  0  0
    8.7478   -8.6553    0.0000 O   0  0  0  0  0  0  0  0  0  0  0  0
    9.7598   -7.2409    0.0000 O   0  0  0  0  0  0  0  0  0  0  0  0
   11.3964   -7.2456    0.0000 O   0  0  0  0  0  0  0  0  0  0  0  0
   12.2070   -8.6536    0.0000 O   0  0  0  0  0  0  0  0  0  0  0  0
   10.1728   -9.3649    0.0000 O   0  0  0  0  0  0  0  0  0  0  0  0
   12.2880  -10.0678    0.0000 O   0  0  0  0  0  0  0  0  0  0  0  0
    9.7597   -8.6563    0.0000 C   0  0  2  0  0  0  0  0  0  0  0  0
   10.1668   -7.9512    0.0000 C   0  0  1  0  0  0  0  0  0  0  0  0
   10.9894   -7.9506    0.0000 C   0  0  2  0  0  0  0  0  0  0  0  0
   11.3962   -8.6610    0.0000 C   0  0  1  0  0  0  0  0  0  0  0  0
   10.9892   -9.3660    0.0000 C   0  0  1  0  0  0  0  0  0  0  0  0
   11.3905  -10.0678    0.0000 C   0  0  0  0  0  0  0  0  0  0  0  0
    4.4205   -5.4050    0.0000 C   0  0  0  0  0  0  0  0  0  0  0  0
    3.9356   -6.0724    0.0000 C   0  0  0  0  0  0  0  0  0  0  0  0
    4.4205   -6.7398    0.0000 N   0  0  0  0  0  0  0  0  0  0  0  0
    4.0849   -4.6513    0.0000 C   0  0  0  0  0  0  0  0  0  0  0  0
    3.2644   -4.5651    0.0000 C   0  0  0  0  0  0  0  0  0  0  0  0
    2.7795   -5.2325    0.0000 C   0  0  0  0  0  0  0  0  0  0  0  0
    3.1151   -5.9862    0.0000 C   0  0  0  0  0  0  0  0  0  0  0  0
    7.3536   -5.2389    0.0000 C   0  0  0  0  0  0  0  0  0  0  0  0
    8.0699   -5.6483    0.0000 O   0  0  0  0  0  0  0  0  0  0  0  0
    7.3499   -4.4140    0.0000 O   0  0  0  0  0  0  0  0  0  0  0  0
  1  4  2  0  0  0  0
  1  5  1  0  0  0  0
  8  2  1  0  0  0  0
  2  3  1  0  0  0  0
  3  4  1  0  0  0  0
  5  8  1  0  0  0  0
  5  6  1  0  0  0  0
  6  9  1  0  0  0  0
 14  7  1  1  0  0  0
  9 14  1  0  0  0  0
  9 10  1  0  0  0  0
 10 11  2  0  0  0  0
 11 12  1  0  0  0  0
 12 13  1  0  0  0  0
 13 14  1  0  0  0  0
 13 15  1  1  0  0  0
 13 23  1  6  0  0  0
  9 16  1  6  0  0  0
  5 17  1  6  0  0  0
  7 18  2  0  0  0  0
 19 20  1  0  0  0  0
 19 21  2  0  0  0  0
 10 19  1  0  0  0  0
 20 22  1  0  0  0  0
 28 34  1  0  0  0  0
 33 27  1  0  0  0  0
 27 29  1  0  0  0  0
 29 30  1  0  0  0  0
 30 31  1  0  0  0  0
 31 32  1  0  0  0  0
 32 33  1  0  0  0  0
 33 34  1  1  0  0  0
 29 23  1  1  0  0  0
 30 24  1  6  0  0  0
 31 25  1  1  0  0  0
 32 26  1  6  0  0  0
  4 35  1  0  0  0  0
 35 36  2  0  0  0  0
 36 37  1  0  0  0  0
 37  1  1  0  0  0  0
 35 38  1  0  0  0  0
 38 39  2  0  0  0  0
 39 40  1  0  0  0  0
 40 41  2  0  0  0  0
 41 36  1  0  0  0  0
  2 42  1  0  0  0  0
 42 43  1  0  0  0  0
 42 44  2  0  0  0  0
M  END
>  <cdx:fragmentId>
6807

$$$$
