92242.cdx
  Mrv1902 05222410222D          

 11 10  0  0  0  0            999 V2000
    6.9275   -7.1362    0.0000 C   0  0  0  0  0  0  0  0  0  0  0  0
    7.6420   -6.7237    0.0000 C   0  0  0  0  0  0  0  0  0  0  0  0
    8.3565   -7.1362    0.0000 C   0  0  0  0  0  0  0  0  0  0  0  0
    9.0709   -6.7237    0.0000 C   0  0  0  0  0  0  0  0  0  0  0  0
    9.7854   -7.1362    0.0000 C   0  0  0  0  0  0  0  0  0  0  0  0
   10.4999   -6.7237    0.0000 C   0  0  0  0  0  0  0  0  0  0  0  0
    6.2131   -7.5488    0.0000 C   0  0  0  0  0  0  0  0  0  0  0  0
    5.4986   -7.9612    0.0000 C   0  0  0  0  0  0  0  0  0  0  0  0
    4.7841   -7.5488    0.0000 C   0  0  0  0  0  0  0  0  0  0  0  0
    4.0696   -7.9612    0.0000 C   0  0  0  0  0  0  0  0  0  0  0  0
    3.3552   -7.5488    0.0000 C   0  0  0  0  0  0  0  0  0  0  0  0
  1  2  1  0  0  0  0
  2  3  1  0  0  0  0
  3  4  1  0  0  0  0
  4  5  1  0  0  0  0
  5  6  1  0  0  0  0
  1  7  3  0  0  0  0
  7  8  1  0  0  0  0
  8  9  1  0  0  0  0
  9 10  1  0  0  0  0
 10 11  1  0  0  0  0
M  END
>  <cdx:fragmentId>
3

$$$$
