92251.cdx
  Mrv1902 05222410212D          

 25 27  0  0  0  0            999 V2000
    6.5431   -6.3250    0.0000 C   0  0  0  0  0  0  0  0  0  0  0  0
    6.5431   -7.1500    0.0000 C   0  0  0  0  0  0  0  0  0  0  0  0
    7.2575   -7.5625    0.0000 C   0  0  0  0  0  0  0  0  0  0  0  0
    7.9720   -7.1500    0.0000 C   0  0  1  0  0  0  0  0  0  0  0  0
    7.9720   -6.3250    0.0000 C   0  0  2  0  0  0  0  0  0  0  0  0
    7.2575   -5.9125    0.0000 C   0  0  0  0  0  0  0  0  0  0  0  0
    8.6865   -7.5625    0.0000 C   0  0  0  0  0  0  0  0  0  0  0  0
    9.4009   -7.1500    0.0000 C   0  0  0  0  0  0  0  0  0  0  0  0
    9.4009   -6.3250    0.0000 C   0  0  0  0  0  0  0  0  0  0  0  0
    8.6865   -5.9125    0.0000 C   0  0  0  0  0  0  0  0  0  0  0  0
   10.1856   -7.4049    0.0000 C   0  0  0  0  0  0  0  0  0  0  0  0
   10.6705   -6.7375    0.0000 C   0  0  0  0  0  0  0  0  0  0  0  0
   10.1856   -6.0701    0.0000 O   0  0  0  0  0  0  0  0  0  0  0  0
   10.4405   -8.1896    0.0000 C   0  0  0  0  0  0  0  0  0  0  0  0
   11.4955   -6.7375    0.0000 O   0  0  0  0  0  0  0  0  0  0  0  0
    9.4872   -5.5045    0.0000 O   0  0  0  0  0  0  0  0  0  0  0  0
    7.2575   -8.3875    0.0000 C   0  0  0  0  0  0  0  0  0  0  0  0
    5.8286   -7.5625    0.0000 O   0  0  0  0  0  0  0  0  0  0  0  0
    7.9720   -5.5000    0.0000 C   0  0  0  0  0  0  0  0  0  0  0  0
    7.9720   -7.9750    0.0000 H   0  0  0  0  0  0  0  0  0  0  0  0
    5.1141   -7.1500    0.0000 C   0  0  0  0  0  0  0  0  0  0  0  0
    4.3996   -7.5625    0.0000 C   0  0  0  0  0  0  0  0  0  0  0  0
    5.1141   -6.3250    0.0000 O   0  0  0  0  0  0  0  0  0  0  0  0
    3.6852   -7.1500    0.0000 C   0  0  0  0  0  0  0  0  0  0  0  0
    2.9707   -7.5625    0.0000 O   0  0  0  0  0  0  0  0  0  0  0  0
  1  2  1  0  0  0  0
  2  3  1  0  0  0  0
  3  4  1  0  0  0  0
  4  5  1  0  0  0  0
  5  6  1  0  0  0  0
  6  1  1  0  0  0  0
  4  7  1  0  0  0  0
  7  8  1  0  0  0  0
  8  9  1  0  0  0  0
  9 10  1  0  0  0  0
 10  5  1  0  0  0  0
  8 11  2  0  0  0  0
 11 12  1  0  0  0  0
 12 13  1  0  0  0  0
 13  9  1  0  0  0  0
 11 14  1  0  0  0  0
 12 15  2  0  0  0  0
  9 16  1  0  0  0  0
  3 17  2  0  0  0  0
  2 18  1  0  0  0  0
  5 19  1  1  0  0  0
  4 20  1  6  0  0  0
 18 21  1  0  0  0  0
 21 22  1  0  0  0  0
 21 23  2  0  0  0  0
 22 24  1  0  0  0  0
 24 25  1  0  0  0  0
M  END
>  <cdx:fragmentId>
5

$$$$
