92257.cdx
  Mrv1902 05222410222D          

 46 50  0  0  0  0            999 V2000
   12.4492   -7.1352    0.0000 C   0  0  0  0  0  0  0  0  0  0  0  0
    9.5913   -9.6102    0.0000 O   0  0  0  0  0  0  0  0  0  0  0  0
    8.1624   -4.6601    0.0000 O   0  0  0  0  0  0  0  0  0  0  0  0
    8.1624   -5.4851    0.0000 C   0  0  0  0  0  0  0  0  0  0  0  0
    5.3045   -5.4851    0.0000 O   0  0  0  0  0  0  0  0  0  0  0  0
    4.5900  -11.6726    0.0000 O   0  0  0  0  0  0  0  0  0  0  0  0
    6.7334   -4.6601    0.0000 O   0  0  0  0  0  0  0  0  0  0  0  0
    7.4479   -7.5476    0.0000 H   0  0  0  0  0  0  0  0  0  0  0  0
    5.3045   -8.7851    0.0000 H   0  0  0  0  0  0  0  0  0  0  0  0
    3.1611  -10.8476    0.0000 O   0  0  0  0  0  0  0  0  0  0  0  0
   11.7347   -6.7226    0.0000 O   0  0  0  0  0  0  0  0  0  0  0  0
    2.4466   -9.6101    0.0000 O   0  0  0  0  0  0  0  0  0  0  0  0
    3.1611   -9.1976    0.0000 C   0  0  0  0  0  0  0  0  0  0  0  0
   10.3058   -8.3726    0.0000 C   0  0  0  0  0  0  0  0  0  0  0  0
   11.0203   -7.9601    0.0000 C   0  0  0  0  0  0  0  0  0  0  0  0
   11.0203   -7.1351    0.0000 C   0  0  0  0  0  0  0  0  0  0  0  0
   10.3058   -6.7226    0.0000 C   0  0  0  0  0  0  0  0  0  0  0  0
    9.5913   -7.9601    0.0000 C   0  0  0  0  0  0  0  0  0  0  0  0
    9.5913   -7.1351    0.0000 C   0  0  0  0  0  0  0  0  0  0  0  0
    7.4479   -6.7226    0.0000 O   0  0  0  0  0  0  0  0  0  0  0  0
    7.4479   -5.8976    0.0000 C   0  0  1  0  0  0  0  0  0  0  0  0
    6.7334   -5.4851    0.0000 C   0  0  2  0  0  0  0  0  0  0  0  0
    6.0190   -5.8976    0.0000 C   0  0  1  0  0  0  0  0  0  0  0  0
    6.7334   -7.1351    0.0000 C   0  0  2  0  0  0  0  0  0  0  0  0
    6.0190   -6.7226    0.0000 C   0  0  2  0  0  0  0  0  0  0  0  0
    5.3045   -7.1351    0.0000 O   0  0  0  0  0  0  0  0  0  0  0  0
    5.3045   -7.9601    0.0000 O   0  0  0  0  0  0  0  0  0  0  0  0
    8.8769   -9.1976    0.0000 C   0  0  0  0  0  0  0  0  0  0  0  0
    8.8769   -8.3726    0.0000 C   0  0  0  0  0  0  0  0  0  0  0  0
    8.1624   -7.9601    0.0000 O   0  0  0  0  0  0  0  0  0  0  0  0
    7.4479   -8.3726    0.0000 C   0  0  0  0  0  0  0  0  0  0  0  0
    6.7334   -7.9601    0.0000 C   0  0  0  0  0  0  0  0  0  0  0  0
    6.0190   -8.3726    0.0000 C   0  0  0  0  0  0  0  0  0  0  0  0
    8.1624  -10.4351    0.0000 O   0  0  0  0  0  0  0  0  0  0  0  0
    8.1624   -9.6101    0.0000 C   0  0  0  0  0  0  0  0  0  0  0  0
    7.4479   -9.1976    0.0000 C   0  0  0  0  0  0  0  0  0  0  0  0
    6.0190  -10.8476    0.0000 O   0  0  0  0  0  0  0  0  0  0  0  0
    6.7334  -10.4351    0.0000 O   0  0  0  0  0  0  0  0  0  0  0  0
    6.7334   -9.6101    0.0000 C   0  0  0  0  0  0  0  0  0  0  0  0
    6.0190   -9.1976    0.0000 C   0  0  0  0  0  0  0  0  0  0  0  0
    4.5900  -10.8476    0.0000 C   0  0  2  0  0  0  0  0  0  0  0  0
    5.3045  -10.4351    0.0000 C   0  0  2  0  0  0  0  0  0  0  0  0
    5.3045   -9.6101    0.0000 C   0  0  1  0  0  0  0  0  0  0  0  0
    4.5900   -9.1976    0.0000 O   0  0  0  0  0  0  0  0  0  0  0  0
    3.8756   -9.6101    0.0000 C   0  0  1  0  0  0  0  0  0  0  0  0
    3.8756  -10.4351    0.0000 C   0  0  1  0  0  0  0  0  0  0  0  0
 11  1  1  0  0  0  0
 28  2  1  0  0  0  0
  4  3  1  0  0  0  0
 21  4  1  1  0  0  0
 23  5  1  1  0  0  0
 41  6  1  1  0  0  0
 22  7  1  6  0  0  0
 24  8  1  6  0  0  0
 43  9  1  6  0  0  0
 46 10  1  6  0  0  0
 16 11  1  0  0  0  0
 13 12  1  0  0  0  0
 45 13  1  1  0  0  0
 14 18  2  0  0  0  0
 15 14  1  0  0  0  0
 16 15  2  0  0  0  0
 17 16  1  0  0  0  0
 19 17  2  0  0  0  0
 18 29  1  0  0  0  0
 19 18  1  0  0  0  0
 20 24  1  0  0  0  0
 21 20  1  0  0  0  0
 22 21  1  0  0  0  0
 23 22  1  0  0  0  0
 25 23  1  0  0  0  0
 24 32  1  0  0  0  0
 25 24  1  0  0  0  0
 25 26  1  6  0  0  0
 33 27  1  0  0  0  0
 28 35  1  0  0  0  0
 29 28  2  0  0  0  0
 30 29  1  0  0  0  0
 31 30  1  0  0  0  0
 31 36  1  0  0  0  0
 32 31  2  0  0  0  0
 33 32  1  0  0  0  0
 40 33  2  0  0  0  0
 35 34  2  0  0  0  0
 36 35  1  0  0  0  0
 39 36  2  0  0  0  0
 42 37  1  6  0  0  0
 39 38  1  0  0  0  0
 40 39  1  0  0  0  0
 43 40  1  0  0  0  0
 41 46  1  0  0  0  0
 42 41  1  0  0  0  0
 43 42  1  0  0  0  0
 44 43  1  0  0  0  0
 45 44  1  0  0  0  0
 46 45  1  0  0  0  0
M  END
>  <cdx:fragmentId>
5

$$$$
