92252.cdx
  Mrv1902 05222410212D          

 11 12  0  0  0  0            999 V2000
    5.1162   -7.2689    0.0000 C   0  0  0  0  0  0  0  0  0  0  0  0
    5.9129   -7.0548    0.0000 C   0  0  0  0  0  0  0  0  0  0  0  0
    6.7096   -7.2689    0.0000 C   0  0  0  0  0  0  0  0  0  0  0  0
    7.1233   -6.5552    0.0000 C   0  0  0  0  0  0  0  0  0  0  0  0
    5.5298   -6.5552    0.0000 C   0  0  0  0  0  0  0  0  0  0  0  0
    6.3266   -6.3411    0.0000 C   0  0  0  0  0  0  0  0  0  0  0  0
    5.9144   -5.6274    0.0000 C   0  0  0  0  0  0  0  0  0  0  0  0
    7.8859   -6.2404    0.0000 C   0  0  0  0  0  0  0  0  0  0  0  0
    7.0244   -8.0315    0.0000 O   0  0  0  0  0  0  0  0  0  0  0  0
    5.3163   -5.7584    0.0000 C   0  0  0  0  0  0  0  0  0  0  0  0
    4.7330   -6.3417    0.0000 C   0  0  0  0  0  0  0  0  0  0  0  0
  1  2  1  0  0  0  0
  2  3  1  0  0  0  0
  3  4  1  0  0  0  0
  1  5  1  0  0  0  0
  5  6  1  0  0  0  0
  4  6  1  0  0  0  0
  6  7  1  0  0  0  0
  2  7  1  0  0  0  0
  4  8  2  0  0  0  0
  3  9  2  0  0  0  0
  5 10  1  0  0  0  0
  5 11  1  0  0  0  0
M  END
>  <cdx:fragmentId>
800

$$$$
