92258.cdx
  Mrv1902 05222410232D          

 21 23  0  0  0  0            999 V2000
    5.2093   -8.0437    0.0000 C   0  0  0  0  0  0  0  0  0  0  0  0
    5.2093   -8.8688    0.0000 C   0  0  0  0  0  0  0  0  0  0  0  0
    5.9238   -9.2813    0.0000 C   0  0  0  0  0  0  0  0  0  0  0  0
    6.6382   -8.8688    0.0000 C   0  0  1  0  0  0  0  0  0  0  0  0
    6.6382   -8.0437    0.0000 C   0  0  2  0  0  0  0  0  0  0  0  0
    5.9238   -7.6313    0.0000 C   0  0  0  0  0  0  0  0  0  0  0  0
    7.3527   -9.2813    0.0000 C   0  0  0  0  0  0  0  0  0  0  0  0
    8.0672   -8.8688    0.0000 C   0  0  0  0  0  0  0  0  0  0  0  0
    8.0672   -8.0437    0.0000 C   0  0  0  0  0  0  0  0  0  0  0  0
    7.3527   -7.6313    0.0000 C   0  0  0  0  0  0  0  0  0  0  0  0
    8.8518   -9.1237    0.0000 C   0  0  0  0  0  0  0  0  0  0  0  0
    9.3367   -8.4563    0.0000 C   0  0  0  0  0  0  0  0  0  0  0  0
    8.8518   -7.7888    0.0000 O   0  0  0  0  0  0  0  0  0  0  0  0
    4.4948   -9.2813    0.0000 O   0  0  0  0  0  0  0  0  0  0  0  0
    5.9238  -10.1063    0.0000 C   0  0  0  0  0  0  0  0  0  0  0  0
    7.3527   -6.8062    0.0000 O   0  0  0  0  0  0  0  0  0  0  0  0
    8.1534   -7.2233    0.0000 O   0  0  0  0  0  0  0  0  0  0  0  0
   10.1617   -8.4563    0.0000 O   0  0  0  0  0  0  0  0  0  0  0  0
    9.1067   -9.9083    0.0000 C   0  0  0  0  0  0  0  0  0  0  0  0
    6.6382   -7.2188    0.0000 C   0  0  0  0  0  0  0  0  0  0  0  0
    6.6382   -9.6937    0.0000 H   0  0  0  0  0  0  0  0  0  0  0  0
  1  2  1  0  0  0  0
  2  3  1  0  0  0  0
  3  4  1  0  0  0  0
  4  5  1  0  0  0  0
  5  6  1  0  0  0  0
  6  1  1  0  0  0  0
  4  7  1  0  0  0  0
  7  8  1  0  0  0  0
  8  9  1  0  0  0  0
  9 10  1  0  0  0  0
 10  5  1  0  0  0  0
  8 11  1  0  0  0  0
 11 12  1  0  0  0  0
 12 13  1  0  0  0  0
 13  9  1  0  0  0  0
  2 14  1  0  0  0  0
  3 15  2  0  0  0  0
 10 16  1  0  0  0  0
  9 17  1  0  0  0  0
 12 18  2  0  0  0  0
 11 19  1  0  0  0  0
  5 20  1  1  0  0  0
  4 21  1  6  0  0  0
M  END
>  <cdx:fragmentId>
5

$$$$
