3009225.cdx
  Mrv1902 05222410182D          

 21 23  0  0  0  0            999 V2000
    5.2209   -4.1959    0.0000 C   0  0  0  0  0  0  0  0  0  0  0  0
    5.2209   -5.0209    0.0000 C   0  0  0  0  0  0  0  0  0  0  0  0
    5.9354   -5.4334    0.0000 C   0  0  0  0  0  0  0  0  0  0  0  0
    6.6498   -5.0209    0.0000 C   0  0  0  0  0  0  0  0  0  0  0  0
    7.3643   -5.4334    0.0000 C   0  0  0  0  0  0  0  0  0  0  0  0
    8.0788   -5.0209    0.0000 C   0  0  0  0  0  0  0  0  0  0  0  0
    8.0788   -4.1959    0.0000 C   0  0  0  0  0  0  0  0  0  0  0  0
    7.3643   -3.7834    0.0000 C   0  0  0  0  0  0  0  0  0  0  0  0
    6.6498   -4.1959    0.0000 C   0  0  0  0  0  0  0  0  0  0  0  0
    5.9354   -3.7834    0.0000 O   0  0  0  0  0  0  0  0  0  0  0  0
    8.8634   -3.9410    0.0000 O   0  0  0  0  0  0  0  0  0  0  0  0
    8.8634   -5.2759    0.0000 C   0  0  0  0  0  0  0  0  0  0  0  0
    9.3483   -4.6084    0.0000 C   0  0  0  0  0  0  0  0  0  0  0  0
    4.5064   -3.7834    0.0000 O   0  0  0  0  0  0  0  0  0  0  0  0
    7.3643   -6.2584    0.0000 O   0  0  0  0  0  0  0  0  0  0  0  0
    8.0788   -6.6709    0.0000 C   0  0  0  0  0  0  0  0  0  0  0  0
    8.0788   -7.4959    0.0000 C   0  0  1  0  0  0  0  0  0  0  0  0
    8.7933   -7.9084    0.0000 C   0  0  0  0  0  0  0  0  0  0  0  0
    8.7933   -8.7334    0.0000 C   0  0  0  0  0  0  0  0  0  0  0  0
    9.5077   -7.4959    0.0000 C   0  0  0  0  0  0  0  0  0  0  0  0
    7.3643   -7.9084    0.0000 O   0  0  0  0  0  0  0  0  0  0  0  0
  1  2  1  0  0  0  0
  2  3  2  0  0  0  0
  3  4  1  0  0  0  0
  4  5  2  0  0  0  0
  5  6  1  0  0  0  0
  6  7  2  0  0  0  0
  7  8  1  0  0  0  0
  8  9  2  0  0  0  0
  4  9  1  0  0  0  0
  9 10  1  0  0  0  0
  1 10  1  0  0  0  0
 12 13  2  0  0  0  0
 11 13  1  0  0  0  0
 12  6  1  0  0  0  0
 11  7  1  0  0  0  0
  1 14  2  0  0  0  0
 16 17  1  0  0  0  0
 17 18  1  0  0  0  0
 18 19  2  0  0  0  0
 15 16  1  0  0  0  0
 18 20  1  0  0  0  0
 17 21  1  1  0  0  0
  5 15  1  0  0  0  0
M  END
>  <cdx:fragmentId>
153080

$$$$
