92250.cdx
  Mrv1902 05222410202D          

 41 44  0  0  0  0            999 V2000
    7.1037   -5.2319    0.0000 C   0  0  0  0  0  0  0  0  0  0  0  0
    6.3360   -5.5335    0.0000 C   0  0  0  0  0  0  0  0  0  0  0  0
    6.6885   -4.7876    0.0000 C   0  0  0  0  0  0  0  0  0  0  0  0
    7.4446   -4.4584    0.0000 C   0  0  0  0  0  0  0  0  0  0  0  0
    7.1037   -3.6032    0.0000 N   0  0  0  0  0  0  0  0  0  0  0  0
    8.2022   -4.7847    0.0000 C   0  0  0  0  0  0  0  0  0  0  0  0
    7.8744   -5.3474    0.0000 C   0  0  0  0  0  0  0  0  0  0  0  0
    8.6465   -6.1337    0.0000 C   0  0  0  0  0  0  0  0  0  0  0  0
    5.9741   -4.3751    0.0000 O   0  0  0  0  0  0  0  0  0  0  0  0
    5.7606   -3.5782    0.0000 C   0  0  0  0  0  0  0  0  0  0  0  0
    5.7334   -6.0969    0.0000 O   0  0  0  0  0  0  0  0  0  0  0  0
    5.0205   -6.5122    0.0000 C   0  0  0  0  0  0  0  0  0  0  0  0
    4.3044   -6.1024    0.0000 C   0  0  0  0  0  0  0  0  0  0  0  0
    5.0237   -7.3371    0.0000 O   0  0  0  0  0  0  0  0  0  0  0  0
    8.6465   -6.9587    0.0000 O   0  0  0  0  0  0  0  0  0  0  0  0
    9.3610   -7.3712    0.0000 C   0  0  0  0  0  0  0  0  0  0  0  0
    9.3610   -8.1962    0.0000 O   0  0  0  0  0  0  0  0  0  0  0  0
   10.0754   -6.9587    0.0000 C   0  0  0  0  0  0  0  0  0  0  0  0
   10.7899   -7.3712    0.0000 C   0  0  0  0  0  0  0  0  0  0  0  0
   10.0754   -6.1337    0.0000 C   0  0  0  0  0  0  0  0  0  0  0  0
   11.5044   -6.9587    0.0000 O   0  0  0  0  0  0  0  0  0  0  0  0
   12.2188   -7.3712    0.0000 C   0  0  0  0  0  0  0  0  0  0  0  0
   10.7899   -5.7212    0.0000 C   0  0  0  0  0  0  0  0  0  0  0  0
   10.7899   -4.8962    0.0000 C   0  0  0  0  0  0  0  0  0  0  0  0
   10.0754   -4.4837    0.0000 C   0  0  0  0  0  0  0  0  0  0  0  0
    9.3610   -4.8962    0.0000 C   0  0  0  0  0  0  0  0  0  0  0  0
    9.3610   -5.7212    0.0000 C   0  0  0  0  0  0  0  0  0  0  0  0
    7.3173   -2.8063    0.0000 C   0  0  0  0  0  0  0  0  0  0  0  0
    4.9637   -3.3647    0.0000 C   0  0  0  0  0  0  0  0  0  0  0  0
    6.3439   -2.9948    0.0000 O   0  0  0  0  0  0  0  0  0  0  0  0
    3.5916   -6.5177    0.0000 C   0  0  0  0  0  0  0  0  0  0  0  0
    3.5947   -7.3427    0.0000 C   0  0  0  0  0  0  0  0  0  0  0  0
    2.8819   -7.7579    0.0000 C   0  0  0  0  0  0  0  0  0  0  0  0
    2.8851   -8.5829    0.0000 C   0  0  0  0  0  0  0  0  0  0  0  0
    3.6011   -8.9927    0.0000 C   0  0  0  0  0  0  0  0  0  0  0  0
    4.3140   -8.5774    0.0000 C   0  0  0  0  0  0  0  0  0  0  0  0
    4.3108   -7.7524    0.0000 C   0  0  0  0  0  0  0  0  0  0  0  0
    2.1722   -8.9982    0.0000 O   0  0  0  0  0  0  0  0  0  0  0  0
    2.1754   -9.8232    0.0000 C   0  0  0  0  0  0  0  0  0  0  0  0
    3.6043   -9.8177    0.0000 O   0  0  0  0  0  0  0  0  0  0  0  0
    2.8915  -10.2329    0.0000 C   0  0  0  0  0  0  0  0  0  0  0  0
  1  2  1  0  0  0  0
  2  3  1  0  0  0  0
  3  4  1  0  0  0  0
  1  5  1  0  0  0  0
  4  5  1  0  0  0  0
  4  6  1  0  0  0  0
  1  7  1  0  0  0  0
  6  8  1  0  0  0  0
  7  8  1  0  0  0  0
  3  9  1  0  0  0  0
  9 10  1  0  0  0  0
  2 11  1  0  0  0  0
 11 12  1  0  0  0  0
 12 13  1  0  0  0  0
 12 14  2  0  0  0  0
  8 15  1  0  0  0  0
 15 16  1  0  0  0  0
 16 17  2  0  0  0  0
 16 18  1  0  0  0  0
 18 19  1  0  0  0  0
 18 20  1  0  0  0  0
 19 21  1  0  0  0  0
 21 22  1  0  0  0  0
 20 23  2  0  0  0  0
 23 24  1  0  0  0  0
 24 25  2  0  0  0  0
 25 26  1  0  0  0  0
 26 27  2  0  0  0  0
 27 20  1  0  0  0  0
  5 28  1  0  0  0  0
 10 29  1  0  0  0  0
 10 30  2  0  0  0  0
 13 31  2  0  0  0  0
 31 32  1  0  0  0  0
 32 33  2  0  0  0  0
 33 34  1  0  0  0  0
 34 35  2  0  0  0  0
 35 36  1  0  0  0  0
 36 37  2  0  0  0  0
 37 32  1  0  0  0  0
 34 38  1  0  0  0  0
 38 39  1  0  0  0  0
 35 40  1  0  0  0  0
 40 41  1  0  0  0  0
M  END
>  <cdx:groupId>
816

>  <cdx:fragmentId>
817

$$$$
