92259.cdx
  Mrv1902 05222410232D          

 15 16  0  0  0  0            999 V2000
    5.5347   -7.2188    0.0000 C   0  0  0  0  0  0  0  0  0  0  0  0
    5.5347   -8.0437    0.0000 C   0  0  0  0  0  0  0  0  0  0  0  0
    6.1797   -8.5581    0.0000 C   0  0  0  0  0  0  0  0  0  0  0  0
    6.9840   -8.3745    0.0000 C   0  0  0  0  0  0  0  0  0  0  0  0
    7.3420   -7.6313    0.0000 C   0  0  0  0  0  0  0  0  0  0  0  0
    6.9840   -6.8880    0.0000 C   0  0  0  0  0  0  0  0  0  0  0  0
    6.1797   -6.7044    0.0000 C   0  0  0  0  0  0  0  0  0  0  0  0
    5.9961   -5.9001    0.0000 C   0  0  0  0  0  0  0  0  0  0  0  0
    6.6009   -5.3389    0.0000 C   0  0  0  0  0  0  0  0  0  0  0  0
    5.2078   -5.6569    0.0000 C   0  0  0  0  0  0  0  0  0  0  0  0
    5.9961   -9.3624    0.0000 C   0  0  0  0  0  0  0  0  0  0  0  0
    7.5803   -8.9447    0.0000 C   0  0  0  0  0  0  0  0  0  0  0  0
    8.3068   -8.5537    0.0000 C   0  0  0  0  0  0  0  0  0  0  0  0
    8.1595   -7.7420    0.0000 C   0  0  0  0  0  0  0  0  0  0  0  0
    8.7297   -7.1457    0.0000 C   0  0  0  0  0  0  0  0  0  0  0  0
  1  2  1  0  0  0  0
  2  3  1  0  0  0  0
  3  4  1  0  0  0  0
  4  5  2  0  0  0  0
  5  6  1  0  0  0  0
  6  7  1  0  0  0  0
  7  1  2  0  0  0  0
  7  8  1  0  0  0  0
  8  9  1  0  0  0  0
  8 10  1  0  0  0  0
  3 11  1  0  0  0  0
  4 12  1  0  0  0  0
 12 13  1  0  0  0  0
 13 14  1  0  0  0  0
 14  5  1  0  0  0  0
 14 15  1  0  0  0  0
M  END
>  <cdx:fragmentId>
5

$$$$
