92255.cdx
  Mrv1902 05222410222D          

 12 13  0  0  0  0            999 V2000
    5.8968   -6.8750    0.0000 C   0  0  0  0  0  0  0  0  0  0  0  0
    5.8968   -7.7000    0.0000 C   0  0  0  0  0  0  0  0  0  0  0  0
    6.6113   -8.1125    0.0000 C   0  0  0  0  0  0  0  0  0  0  0  0
    7.3257   -7.7000    0.0000 C   0  0  0  0  0  0  0  0  0  0  0  0
    7.3257   -6.8750    0.0000 C   0  0  0  0  0  0  0  0  0  0  0  0
    6.6113   -6.4625    0.0000 C   0  0  0  0  0  0  0  0  0  0  0  0
    8.0402   -8.1125    0.0000 C   0  0  0  0  0  0  0  0  0  0  0  0
    8.7547   -7.7000    0.0000 N   0  0  0  0  0  0  0  0  0  0  0  0
    8.7547   -6.8750    0.0000 C   0  0  0  0  0  0  0  0  0  0  0  0
    8.0402   -6.4625    0.0000 C   0  0  0  0  0  0  0  0  0  0  0  0
    5.1823   -6.4625    0.0000 O   0  0  0  0  0  0  0  0  0  0  0  0
    5.1823   -8.1125    0.0000 O   0  0  0  0  0  0  0  0  0  0  0  0
  1  2  2  0  0  0  0
  2  3  1  0  0  0  0
  3  4  2  0  0  0  0
  4  5  1  0  0  0  0
  5  6  2  0  0  0  0
  6  1  1  0  0  0  0
  4  7  1  0  0  0  0
  7  8  2  0  0  0  0
  8  9  1  0  0  0  0
  9 10  1  0  0  0  0
 10  5  1  0  0  0  0
  1 11  1  0  0  0  0
  2 12  1  0  0  0  0
M  END
>  <cdx:fragmentId>
5

$$$$
