92260.cdx
  Mrv1902 05222410252D          

 24 25  0  0  0  0            999 V2000
    3.6831   -6.7375    0.0000 C   0  0  0  0  0  0  0  0  0  0  0  0
    3.6831   -7.5625    0.0000 C   0  0  0  0  0  0  0  0  0  0  0  0
    4.3975   -7.9750    0.0000 C   0  0  0  0  0  0  0  0  0  0  0  0
    5.1120   -7.5625    0.0000 C   0  0  0  0  0  0  0  0  0  0  0  0
    5.1120   -6.7375    0.0000 C   0  0  0  0  0  0  0  0  0  0  0  0
    4.3975   -6.3250    0.0000 C   0  0  0  0  0  0  0  0  0  0  0  0
    2.9686   -7.9750    0.0000 O   0  0  0  0  0  0  0  0  0  0  0  0
    2.9686   -6.3250    0.0000 O   0  0  0  0  0  0  0  0  0  0  0  0
    2.2541   -6.7375    0.0000 C   0  0  0  0  0  0  0  0  0  0  0  0
    5.8265   -6.3250    0.0000 C   0  0  0  0  0  0  0  0  0  0  0  0
    6.5409   -6.7375    0.0000 C   0  0  0  0  0  0  0  0  0  0  0  0
    7.2554   -6.3250    0.0000 C   0  0  0  0  0  0  0  0  0  0  0  0
    7.9699   -6.7375    0.0000 O   0  0  0  0  0  0  0  0  0  0  0  0
    7.2554   -5.5000    0.0000 O   0  0  0  0  0  0  0  0  0  0  0  0
    8.6844   -6.3250    0.0000 C   0  0  0  0  0  0  0  0  0  0  0  0
    9.3988   -6.7375    0.0000 C   0  0  0  0  0  0  0  0  0  0  0  0
   10.1133   -6.3250    0.0000 C   0  0  0  0  0  0  0  0  0  0  0  0
    9.3988   -7.5625    0.0000 O   0  0  0  0  0  0  0  0  0  0  0  0
   10.8278   -6.7375    0.0000 C   0  0  0  0  0  0  0  0  0  0  0  0
   11.5422   -6.3250    0.0000 C   0  0  0  0  0  0  0  0  0  0  0  0
   11.5422   -5.5000    0.0000 C   0  0  0  0  0  0  0  0  0  0  0  0
   10.8278   -5.0875    0.0000 C   0  0  0  0  0  0  0  0  0  0  0  0
   10.1133   -5.5000    0.0000 C   0  0  0  0  0  0  0  0  0  0  0  0
   12.2567   -5.0875    0.0000 O   0  0  0  0  0  0  0  0  0  0  0  0
  1  2  2  0  0  0  0
  2  3  1  0  0  0  0
  3  4  2  0  0  0  0
  4  5  1  0  0  0  0
  5  6  2  0  0  0  0
  6  1  1  0  0  0  0
  2  7  1  0  0  0  0
  1  8  1  0  0  0  0
  8  9  1  0  0  0  0
  5 10  1  0  0  0  0
 10 11  2  0  0  0  0
 11 12  1  0  0  0  0
 12 13  1  0  0  0  0
 12 14  2  0  0  0  0
 13 15  1  0  0  0  0
 15 16  1  0  0  0  0
 16 17  1  0  0  0  0
 16 18  1  0  0  0  0
 17 19  2  0  0  0  0
 19 20  1  0  0  0  0
 20 21  2  0  0  0  0
 21 22  1  0  0  0  0
 22 23  2  0  0  0  0
 23 17  1  0  0  0  0
 21 24  1  0  0  0  0
M  END
>  <cdx:fragmentId>
5

$$$$
