92261.cdx
  Mrv1902 05222410252D          

 35 38  0  0  0  0            999 V2000
    5.3881   -7.7825    0.0000 O   0  0  0  0  0  0  0  0  0  0  0  0
    6.1025   -9.0200    0.0000 O   0  0  0  0  0  0  0  0  0  0  0  0
    6.8170   -8.6075    0.0000 C   0  0  2  0  0  0  0  0  0  0  0  0
    6.8170   -7.7825    0.0000 C   0  0  1  0  0  0  0  0  0  0  0  0
    6.1025   -7.3700    0.0000 C   0  0  0  0  0  0  0  0  0  0  0  0
    7.5315   -9.0200    0.0000 C   0  0  1  0  0  0  0  0  0  0  0  0
    8.2459   -8.6075    0.0000 C   0  0  2  0  0  0  0  0  0  0  0  0
    8.2459   -7.7825    0.0000 C   0  0  1  0  0  0  0  0  0  0  0  0
    7.5315   -7.3700    0.0000 O   0  0  0  0  0  0  0  0  0  0  0  0
    8.9604   -7.3700    0.0000 O   0  0  0  0  0  0  0  0  0  0  0  0
    8.9604   -6.5450    0.0000 C   0  0  2  0  0  0  0  0  0  0  0  0
    8.2459   -6.1325    0.0000 O   0  0  0  0  0  0  0  0  0  0  0  0
    9.6749   -6.1325    0.0000 C   0  0  1  0  0  0  0  0  0  0  0  0
    9.6749   -5.3075    0.0000 C   0  0  1  0  0  0  0  0  0  0  0  0
    8.9604   -4.8950    0.0000 C   0  0  0  0  0  0  0  0  0  0  0  0
    8.2459   -5.3075    0.0000 C   0  0  0  0  0  0  0  0  0  0  0  0
   10.3894   -4.8950    0.0000 C   0  0  0  0  0  0  0  0  0  0  0  0
   10.3894   -4.0700    0.0000 C   0  0  0  0  0  0  0  0  0  0  0  0
    9.6749   -3.6575    0.0000 O   0  0  0  0  0  0  0  0  0  0  0  0
    8.9604   -4.0700    0.0000 C   0  0  0  0  0  0  0  0  0  0  0  0
    4.6736   -7.3700    0.0000 C   0  0  2  0  0  0  0  0  0  0  0  0
    8.2459   -3.6575    0.0000 O   0  0  0  0  0  0  0  0  0  0  0  0
   10.3894   -6.5450    0.0000 C   0  0  0  0  0  0  0  0  0  0  0  0
   11.1038   -6.1325    0.0000 C   0  0  0  0  0  0  0  0  0  0  0  0
    4.5873   -6.5495    0.0000 O   0  0  0  0  0  0  0  0  0  0  0  0
    3.7804   -6.3780    0.0000 C   0  0  0  0  0  0  0  0  0  0  0  0
    3.3679   -7.0925    0.0000 C   0  0  1  0  0  0  0  0  0  0  0  0
    3.9199   -7.7056    0.0000 C   0  0  1  0  0  0  0  0  0  0  0  0
    2.5710   -6.8789    0.0000 C   0  0  0  0  0  0  0  0  0  0  0  0
    2.3575   -6.0820    0.0000 O   0  0  0  0  0  0  0  0  0  0  0  0
    2.9554   -7.8069    0.0000 O   0  0  0  0  0  0  0  0  0  0  0  0
    3.7484   -8.5125    0.0000 O   0  0  0  0  0  0  0  0  0  0  0  0
    8.9604   -9.0200    0.0000 O   0  0  0  0  0  0  0  0  0  0  0  0
   10.3894   -5.7200    0.0000 H   0  0  0  0  0  0  0  0  0  0  0  0
    7.5315   -9.8450    0.0000 O   0  0  0  0  0  0  0  0  0  0  0  0
  3  2  1  6  0  0  0
  3  4  1  0  0  0  0
  4  5  1  1  0  0  0
  5  1  1  0  0  0  0
  3  6  1  0  0  0  0
  6  7  1  0  0  0  0
  7  8  1  0  0  0  0
  8  9  1  0  0  0  0
  9  4  1  0  0  0  0
  8 10  1  1  0  0  0
 11 10  1  6  0  0  0
 11 12  1  0  0  0  0
 11 13  1  0  0  0  0
 13 14  1  0  0  0  0
 14 15  1  0  0  0  0
 15 16  2  0  0  0  0
 16 12  1  0  0  0  0
 14 17  1  0  0  0  0
 17 18  1  0  0  0  0
 18 19  1  0  0  0  0
 19 20  1  0  0  0  0
 20 15  1  0  0  0  0
 21  1  1  1  0  0  0
 20 22  2  0  0  0  0
 13 23  1  1  0  0  0
 23 24  2  0  0  0  0
 21 25  1  0  0  0  0
 25 26  1  0  0  0  0
 26 27  1  0  0  0  0
 27 28  1  0  0  0  0
 28 21  1  0  0  0  0
 27 29  1  0  0  0  0
 29 30  1  0  0  0  0
 27 31  1  6  0  0  0
 28 32  1  6  0  0  0
  7 33  1  6  0  0  0
 14 34  1  6  0  0  0
  6 35  1  1  0  0  0
M  END
>  <cdx:fragmentId>
5

$$$$
