92264.cdx
  Mrv1902 05222410232D          

 42 46  0  0  0  0            999 V2000
    5.4362   -5.0299    0.0000 O   0  0  0  0  0  0  0  0  0  0  0  0
    4.1902  -11.5044    0.0000 O   0  0  0  0  0  0  0  0  0  0  0  0
    4.8816   -6.7369    0.0000 O   0  0  0  0  0  0  0  0  0  0  0  0
    6.8955   -4.2763    0.0000 O   0  0  0  0  0  0  0  0  0  0  0  0
    7.2311   -5.0299    0.0000 C   0  0  0  0  0  0  0  0  0  0  0  0
    7.0011   -6.4820    0.0000 O   0  0  0  0  0  0  0  0  0  0  0  0
    6.7461   -5.6974    0.0000 C   0  0  1  0  0  0  0  0  0  0  0  0
    5.9211   -5.6974    0.0000 C   0  0  2  0  0  0  0  0  0  0  0  0
    5.6662   -6.4820    0.0000 C   0  0  1  0  0  0  0  0  0  0  0  0
    6.3336   -6.9669    0.0000 C   0  0  2  0  0  0  0  0  0  0  0  0
   11.3349   -6.5544    0.0000 O   0  0  0  0  0  0  0  0  0  0  0  0
    4.9047   -7.7919    0.0000 O   0  0  0  0  0  0  0  0  0  0  0  0
   10.6205   -7.7919    0.0000 C   0  0  0  0  0  0  0  0  0  0  0  0
   10.6205   -6.9669    0.0000 C   0  0  0  0  0  0  0  0  0  0  0  0
    9.9060   -6.5544    0.0000 C   0  0  0  0  0  0  0  0  0  0  0  0
    9.1915   -6.9669    0.0000 C   0  0  0  0  0  0  0  0  0  0  0  0
    9.9060   -8.2044    0.0000 C   0  0  0  0  0  0  0  0  0  0  0  0
    9.1915   -7.7919    0.0000 C   0  0  0  0  0  0  0  0  0  0  0  0
    8.4770   -9.0294    0.0000 C   0  0  0  0  0  0  0  0  0  0  0  0
    8.4770   -8.2044    0.0000 C   0  0  0  0  0  0  0  0  0  0  0  0
    7.7626   -7.7919    0.0000 O   0  0  0  0  0  0  0  0  0  0  0  0
    7.0481   -8.2044    0.0000 C   0  0  0  0  0  0  0  0  0  0  0  0
    6.3336   -7.7919    0.0000 C   0  0  0  0  0  0  0  0  0  0  0  0
    5.6192   -8.2044    0.0000 C   0  0  0  0  0  0  0  0  0  0  0  0
    7.7626  -10.2669    0.0000 O   0  0  0  0  0  0  0  0  0  0  0  0
    7.7626   -9.4419    0.0000 C   0  0  0  0  0  0  0  0  0  0  0  0
    7.0481   -9.0294    0.0000 C   0  0  0  0  0  0  0  0  0  0  0  0
    5.6192  -10.6794    0.0000 O   0  0  0  0  0  0  0  0  0  0  0  0
    6.3336  -10.2669    0.0000 O   0  0  0  0  0  0  0  0  0  0  0  0
    6.3336   -9.4419    0.0000 C   0  0  0  0  0  0  0  0  0  0  0  0
    5.6192   -9.0294    0.0000 C   0  0  0  0  0  0  0  0  0  0  0  0
    4.1902  -10.6794    0.0000 C   0  0  2  0  0  0  0  0  0  0  0  0
    4.9047  -10.2669    0.0000 C   0  0  2  0  0  0  0  0  0  0  0  0
    4.9047   -9.4419    0.0000 C   0  0  1  0  0  0  0  0  0  0  0  0
    4.1902   -9.0294    0.0000 O   0  0  0  0  0  0  0  0  0  0  0  0
    2.7613  -10.6794    0.0000 O   0  0  0  0  0  0  0  0  0  0  0  0
    3.4757  -10.2669    0.0000 C   0  0  2  0  0  0  0  0  0  0  0  0
    3.4757   -9.4419    0.0000 C   0  0  1  0  0  0  0  0  0  0  0  0
    2.7613   -9.0294    0.0000 C   0  0  0  0  0  0  0  0  0  0  0  0
    2.0468   -9.4419    0.0000 O   0  0  0  0  0  0  0  0  0  0  0  0
    4.9047   -8.6169    0.0000 H   0  0  0  0  0  0  0  0  0  0  0  0
    7.0481   -7.3794    0.0000 H   0  0  0  0  0  0  0  0  0  0  0  0
  8  1  1  6  0  0  0
 32  2  1  1  0  0  0
  9  3  1  1  0  0  0
  5  4  1  0  0  0  0
  7  5  1  1  0  0  0
  6 10  1  0  0  0  0
  7  6  1  0  0  0  0
  8  7  1  0  0  0  0
  9  8  1  0  0  0  0
 10  9  1  0  0  0  0
 23 10  1  0  0  0  0
 14 11  1  0  0  0  0
 24 12  1  0  0  0  0
 13 17  1  0  0  0  0
 14 13  2  0  0  0  0
 15 14  1  0  0  0  0
 16 15  2  0  0  0  0
 18 16  1  0  0  0  0
 18 17  2  0  0  0  0
 20 18  1  0  0  0  0
 19 26  1  0  0  0  0
 20 19  2  0  0  0  0
 21 20  1  0  0  0  0
 22 21  1  0  0  0  0
 22 27  1  0  0  0  0
 23 22  2  0  0  0  0
 24 23  1  0  0  0  0
 31 24  2  0  0  0  0
 26 25  2  0  0  0  0
 27 26  1  0  0  0  0
 30 27  2  0  0  0  0
 33 28  1  6  0  0  0
 30 29  1  0  0  0  0
 31 30  1  0  0  0  0
 34 31  1  0  0  0  0
 32 37  1  0  0  0  0
 33 32  1  0  0  0  0
 34 33  1  0  0  0  0
 35 34  1  0  0  0  0
 38 35  1  0  0  0  0
 37 36  1  6  0  0  0
 38 37  1  0  0  0  0
 38 39  1  1  0  0  0
 40 39  1  0  0  0  0
 34 41  1  6  0  0  0
 10 42  1  6  0  0  0
M  END
>  <cdx:fragmentId>
5

$$$$
