92269.cdx
  Mrv1902 05222410222D          

 22 24  0  0  0  0            999 V2000
    5.0522  -10.1942    0.0000 O   0  0  0  0  0  0  0  0  0  0  0  0
    3.6233   -7.7192    0.0000 O   0  0  0  0  0  0  0  0  0  0  0  0
   10.7680   -9.3692    0.0000 O   0  0  0  0  0  0  0  0  0  0  0  0
    9.3391   -7.7192    0.0000 C   0  0  0  0  0  0  0  0  0  0  0  0
   10.0535   -8.1317    0.0000 C   0  0  0  0  0  0  0  0  0  0  0  0
   10.0535   -8.9567    0.0000 C   0  0  0  0  0  0  0  0  0  0  0  0
    9.3391   -9.3692    0.0000 C   0  0  0  0  0  0  0  0  0  0  0  0
    8.6246   -8.9567    0.0000 C   0  0  0  0  0  0  0  0  0  0  0  0
    8.6246   -8.1317    0.0000 C   0  0  0  0  0  0  0  0  0  0  0  0
    7.9101   -7.7192    0.0000 O   0  0  0  0  0  0  0  0  0  0  0  0
    6.4812  -10.1942    0.0000 O   0  0  0  0  0  0  0  0  0  0  0  0
    6.4812   -7.7192    0.0000 O   0  0  0  0  0  0  0  0  0  0  0  0
    5.7667   -8.1317    0.0000 C   0  0  0  0  0  0  0  0  0  0  0  0
    5.0522   -7.7192    0.0000 C   0  0  0  0  0  0  0  0  0  0  0  0
    4.3378   -8.1317    0.0000 C   0  0  0  0  0  0  0  0  0  0  0  0
    4.3378   -8.9567    0.0000 C   0  0  0  0  0  0  0  0  0  0  0  0
    5.0522   -9.3692    0.0000 C   0  0  0  0  0  0  0  0  0  0  0  0
    5.7667   -8.9567    0.0000 C   0  0  0  0  0  0  0  0  0  0  0  0
    6.4812   -9.3692    0.0000 C   0  0  0  0  0  0  0  0  0  0  0  0
    7.1956   -8.9567    0.0000 C   0  0  0  0  0  0  0  0  0  0  0  0
    7.1956   -8.1317    0.0000 C   0  0  0  0  0  0  0  0  0  0  0  0
    3.6233   -9.3692    0.0000 O   0  0  0  0  0  0  0  0  0  0  0  0
 17  1  1  0  0  0  0
 15  2  1  0  0  0  0
 21 10  1  0  0  0  0
  6  3  1  0  0  0  0
 10  9  1  0  0  0  0
  9  4  2  0  0  0  0
  5  4  1  0  0  0  0
  6  5  2  0  0  0  0
  7  6  1  0  0  0  0
  8  7  2  0  0  0  0
  9  8  1  0  0  0  0
 19 11  2  0  0  0  0
 21 12  1  0  0  0  0
 13 12  1  0  0  0  0
 18 13  2  0  0  0  0
 14 13  1  0  0  0  0
 15 14  2  0  0  0  0
 16 15  1  0  0  0  0
 17 16  2  0  0  0  0
 18 17  1  0  0  0  0
 19 18  1  0  0  0  0
 20 19  1  0  0  0  0
 21 20  2  0  0  0  0
 16 22  1  0  0  0  0
M  END
>  <cdx:fragmentId>
5

$$$$
