92265.cdx
  Mrv1902 05222410232D          

 41 45  0  0  0  0            999 V2000
    6.5124   -4.3037    0.0000 O   0  0  0  0  0  0  0  0  0  0  0  0
    7.9413   -5.1287    0.0000 C   0  0  0  0  0  0  0  0  0  0  0  0
    5.0834   -5.1287    0.0000 O   0  0  0  0  0  0  0  0  0  0  0  0
    5.0834   -6.7788    0.0000 O   0  0  0  0  0  0  0  0  0  0  0  0
    7.2269   -6.3662    0.0000 O   0  0  0  0  0  0  0  0  0  0  0  0
    7.2269   -5.5413    0.0000 C   0  0  2  0  0  0  0  0  0  0  0  0
    6.5124   -5.1287    0.0000 C   0  0  1  0  0  0  0  0  0  0  0  0
    5.7979   -5.5413    0.0000 C   0  0  2  0  0  0  0  0  0  0  0  0
    5.7979   -6.3662    0.0000 C   0  0  2  0  0  0  0  0  0  0  0  0
    4.3690  -11.3163    0.0000 O   0  0  0  0  0  0  0  0  0  0  0  0
    6.5124   -6.7788    0.0000 C   0  0  2  0  0  0  0  0  0  0  0  0
   11.5137   -6.3662    0.0000 O   0  0  0  0  0  0  0  0  0  0  0  0
    5.0834   -7.6037    0.0000 O   0  0  0  0  0  0  0  0  0  0  0  0
   10.7992   -7.6037    0.0000 C   0  0  0  0  0  0  0  0  0  0  0  0
   10.7992   -6.7788    0.0000 C   0  0  0  0  0  0  0  0  0  0  0  0
   10.0847   -6.3663    0.0000 C   0  0  0  0  0  0  0  0  0  0  0  0
    9.3703   -6.7788    0.0000 C   0  0  0  0  0  0  0  0  0  0  0  0
   10.0847   -8.0162    0.0000 C   0  0  0  0  0  0  0  0  0  0  0  0
    9.3703   -7.6037    0.0000 C   0  0  0  0  0  0  0  0  0  0  0  0
    8.6558   -8.8413    0.0000 C   0  0  0  0  0  0  0  0  0  0  0  0
    8.6558   -8.0162    0.0000 C   0  0  0  0  0  0  0  0  0  0  0  0
    7.9413   -7.6038    0.0000 O   0  0  0  0  0  0  0  0  0  0  0  0
    7.2269   -8.0162    0.0000 C   0  0  0  0  0  0  0  0  0  0  0  0
    6.5124   -7.6037    0.0000 C   0  0  0  0  0  0  0  0  0  0  0  0
    5.7979   -8.0162    0.0000 C   0  0  0  0  0  0  0  0  0  0  0  0
    7.9413  -10.0787    0.0000 O   0  0  0  0  0  0  0  0  0  0  0  0
    7.9413   -9.2538    0.0000 C   0  0  0  0  0  0  0  0  0  0  0  0
    7.2269   -8.8413    0.0000 C   0  0  0  0  0  0  0  0  0  0  0  0
    5.7979  -10.4912    0.0000 O   0  0  0  0  0  0  0  0  0  0  0  0
    6.5124  -10.0787    0.0000 O   0  0  0  0  0  0  0  0  0  0  0  0
    6.5124   -9.2538    0.0000 C   0  0  0  0  0  0  0  0  0  0  0  0
    5.7979   -8.8413    0.0000 C   0  0  0  0  0  0  0  0  0  0  0  0
    4.3690  -10.4912    0.0000 C   0  0  2  0  0  0  0  0  0  0  0  0
    5.0834  -10.0787    0.0000 C   0  0  2  0  0  0  0  0  0  0  0  0
    5.0834   -9.2538    0.0000 C   0  0  1  0  0  0  0  0  0  0  0  0
    4.3690   -8.8413    0.0000 O   0  0  0  0  0  0  0  0  0  0  0  0
    2.9400  -10.4912    0.0000 O   0  0  0  0  0  0  0  0  0  0  0  0
    3.6545  -10.0787    0.0000 C   0  0  2  0  0  0  0  0  0  0  0  0
    3.6545   -9.2538    0.0000 C   0  0  1  0  0  0  0  0  0  0  0  0
    2.9400   -8.8413    0.0000 C   0  0  0  0  0  0  0  0  0  0  0  0
    2.2256   -9.2538    0.0000 O   0  0  0  0  0  0  0  0  0  0  0  0
  7  1  1  1  0  0  0
  6  2  1  6  0  0  0
  8  3  1  6  0  0  0
  9  4  1  6  0  0  0
  5 11  1  0  0  0  0
  6  5  1  0  0  0  0
  7  6  1  0  0  0  0
  8  7  1  0  0  0  0
  9  8  1  0  0  0  0
 11  9  1  0  0  0  0
 33 10  1  1  0  0  0
 11 24  1  1  0  0  0
 15 12  1  0  0  0  0
 25 13  1  0  0  0  0
 14 18  1  0  0  0  0
 15 14  2  0  0  0  0
 16 15  1  0  0  0  0
 17 16  2  0  0  0  0
 19 17  1  0  0  0  0
 19 18  2  0  0  0  0
 21 19  1  0  0  0  0
 20 27  1  0  0  0  0
 21 20  2  0  0  0  0
 22 21  1  0  0  0  0
 23 22  1  0  0  0  0
 23 28  1  0  0  0  0
 24 23  2  0  0  0  0
 25 24  1  0  0  0  0
 32 25  2  0  0  0  0
 27 26  2  0  0  0  0
 28 27  1  0  0  0  0
 31 28  2  0  0  0  0
 34 29  1  6  0  0  0
 31 30  1  0  0  0  0
 32 31  1  0  0  0  0
 35 32  1  1  0  0  0
 33 38  1  0  0  0  0
 34 33  1  0  0  0  0
 35 34  1  0  0  0  0
 36 35  1  0  0  0  0
 39 36  1  0  0  0  0
 38 37  1  6  0  0  0
 39 38  1  0  0  0  0
 39 40  1  1  0  0  0
 41 40  1  0  0  0  0
M  END
>  <cdx:fragmentId>
5

$$$$
