92268.cdx
  Mrv1902 05222410232D          

 54 59  0  0  0  0            999 V2000
    6.7254  -11.2835    0.0000 O   0  0  0  0  0  0  0  0  0  0  0  0
   11.7267   -9.2210    0.0000 O   0  0  0  0  0  0  0  0  0  0  0  0
   12.4412   -7.9835    0.0000 C   0  0  0  0  0  0  0  0  0  0  0  0
   11.7267   -7.5710    0.0000 O   0  0  0  0  0  0  0  0  0  0  0  0
    9.5833   -7.9835    0.0000 C   0  0  0  0  0  0  0  0  0  0  0  0
   10.2978   -7.5710    0.0000 C   0  0  0  0  0  0  0  0  0  0  0  0
   11.0123   -7.9835    0.0000 C   0  0  0  0  0  0  0  0  0  0  0  0
   11.0123   -8.8085    0.0000 C   0  0  0  0  0  0  0  0  0  0  0  0
   10.2978   -9.2210    0.0000 C   0  0  0  0  0  0  0  0  0  0  0  0
    9.5833   -8.8085    0.0000 C   0  0  0  0  0  0  0  0  0  0  0  0
    3.8712   -7.9773    0.0000 O   0  0  0  0  0  0  0  0  0  0  0  0
    3.8784   -6.3273    0.0000 O   0  0  0  0  0  0  0  0  0  0  0  0
    5.3109   -5.5085    0.0000 O   0  0  0  0  0  0  0  0  0  0  0  0
    8.1651   -6.3460    0.0000 O   0  0  0  0  0  0  0  0  0  0  0  0
    9.5977   -5.5272    0.0000 O   0  0  0  0  0  0  0  0  0  0  0  0
    9.6049   -3.8772    0.0000 O   0  0  0  0  0  0  0  0  0  0  0  0
    8.1795   -3.0460    0.0000 C   0  0  0  0  0  0  0  0  0  0  0  0
    8.1759   -3.8710    0.0000 C   0  0  1  0  0  0  0  0  0  0  0  0
    8.8886   -4.2866    0.0000 C   0  0  1  0  0  0  0  0  0  0  0  0
    8.8850   -5.1116    0.0000 C   0  0  2  0  0  0  0  0  0  0  0  0
    8.1687   -5.5210    0.0000 C   0  0  2  0  0  0  0  0  0  0  0  0
    7.4561   -5.1054    0.0000 C   0  0  1  0  0  0  0  0  0  0  0  0
    7.4597   -4.2804    0.0000 O   0  0  0  0  0  0  0  0  0  0  0  0
    6.7398   -5.5147    0.0000 O   0  0  0  0  0  0  0  0  0  0  0  0
    6.7362   -6.3397    0.0000 C   0  0  0  0  0  0  0  0  0  0  0  0
    6.0200   -6.7491    0.0000 C   0  0  2  0  0  0  0  0  0  0  0  0
    5.3073   -6.3335    0.0000 C   0  0  2  0  0  0  0  0  0  0  0  0
    4.5910   -6.7429    0.0000 C   0  0  1  0  0  0  0  0  0  0  0  0
    4.5874   -7.5679    0.0000 C   0  0  2  0  0  0  0  0  0  0  0  0
    5.3001   -7.9835    0.0000 C   0  0  1  0  0  0  0  0  0  0  0  0
    6.0164   -7.5741    0.0000 O   0  0  0  0  0  0  0  0  0  0  0  0
    5.2965   -8.8085    0.0000 O   0  0  0  0  0  0  0  0  0  0  0  0
    8.1544  -11.2835    0.0000 O   0  0  0  0  0  0  0  0  0  0  0  0
    8.1544   -8.8085    0.0000 O   0  0  0  0  0  0  0  0  0  0  0  0
    7.4399   -9.2210    0.0000 C   0  0  0  0  0  0  0  0  0  0  0  0
    6.7254   -8.8085    0.0000 C   0  0  0  0  0  0  0  0  0  0  0  0
    6.0110   -9.2210    0.0000 C   0  0  0  0  0  0  0  0  0  0  0  0
    6.0110  -10.0460    0.0000 C   0  0  0  0  0  0  0  0  0  0  0  0
    6.7254  -10.4585    0.0000 C   0  0  0  0  0  0  0  0  0  0  0  0
    7.4399  -10.0460    0.0000 C   0  0  0  0  0  0  0  0  0  0  0  0
    8.1544  -10.4585    0.0000 C   0  0  0  0  0  0  0  0  0  0  0  0
    8.8689  -10.0460    0.0000 C   0  0  0  0  0  0  0  0  0  0  0  0
    8.8689   -9.2210    0.0000 C   0  0  0  0  0  0  0  0  0  0  0  0
    6.0467  -11.6911    0.0000 O   0  0  0  0  0  0  0  0  0  0  0  0
    4.6087  -12.5003    0.0000 O   0  0  0  0  0  0  0  0  0  0  0  0
    3.1890  -11.6596    0.0000 O   0  0  0  0  0  0  0  0  0  0  0  0
    2.4882  -10.4143    0.0000 O   0  0  0  0  0  0  0  0  0  0  0  0
    3.2072  -10.0097    0.0000 C   0  0  0  0  0  0  0  0  0  0  0  0
    3.9171  -10.4300    0.0000 C   0  0  2  0  0  0  0  0  0  0  0  0
    3.9079  -11.2550    0.0000 C   0  0  2  0  0  0  0  0  0  0  0  0
    4.6178  -11.6754    0.0000 C   0  0  1  0  0  0  0  0  0  0  0  0
    5.3368  -11.2708    0.0000 C   0  0  2  0  0  0  0  0  0  0  0  0
    5.3459  -10.4458    0.0000 C   0  0  1  0  0  0  0  0  0  0  0  0
    4.6360  -10.0255    0.0000 O   0  0  0  0  0  0  0  0  0  0  0  0
 39  1  1  0  0  0  0
 43 10  1  0  0  0  0
  8  2  1  0  0  0  0
  7  4  1  0  0  0  0
  4  3  1  0  0  0  0
 10  5  2  0  0  0  0
  6  5  1  0  0  0  0
  7  6  2  0  0  0  0
  8  7  1  0  0  0  0
  9  8  2  0  0  0  0
 10  9  1  0  0  0  0
 37 32  1  0  0  0  0
 30 32  1  1  0  0  0
 29 11  1  6  0  0  0
 28 12  1  1  0  0  0
 27 13  1  6  0  0  0
 26 25  1  1  0  0  0
 25 24  1  0  0  0  0
 22 24  1  6  0  0  0
 21 14  1  1  0  0  0
 20 15  1  1  0  0  0
 19 16  1  6  0  0  0
 18 17  1  1  0  0  0
 23 18  1  0  0  0  0
 19 18  1  0  0  0  0
 20 19  1  0  0  0  0
 21 20  1  0  0  0  0
 22 21  1  0  0  0  0
 23 22  1  0  0  0  0
 31 26  1  0  0  0  0
 27 26  1  0  0  0  0
 28 27  1  0  0  0  0
 29 28  1  0  0  0  0
 30 29  1  0  0  0  0
 31 30  1  0  0  0  0
 41 33  2  0  0  0  0
 43 34  1  0  0  0  0
 35 34  1  0  0  0  0
 40 35  2  0  0  0  0
 36 35  1  0  0  0  0
 37 36  2  0  0  0  0
 38 37  1  0  0  0  0
 39 38  2  0  0  0  0
 40 39  1  0  0  0  0
 41 40  1  0  0  0  0
 42 41  1  0  0  0  0
 43 42  2  0  0  0  0
 52 44  1  6  0  0  0
 51 45  1  1  0  0  0
 50 46  1  6  0  0  0
 49 48  1  1  0  0  0
 48 47  1  0  0  0  0
 54 49  1  0  0  0  0
 50 49  1  0  0  0  0
 51 50  1  0  0  0  0
 52 51  1  0  0  0  0
 53 52  1  0  0  0  0
 54 53  1  0  0  0  0
 53 38  1  1  0  0  0
M  END
>  <cdx:fragmentId>
45

$$$$
