92271.cdx
  Mrv1902 05222410232D          

 29 33  0  0  0  0            999 V2000
    3.7096   -6.0500    0.0000 C   0  0  0  0  0  0  0  0  0  0  0  0
    7.9965   -8.5250    0.0000 C   0  0  0  0  0  0  0  0  0  0  0  0
    7.9965   -7.7000    0.0000 C   0  0  0  0  0  0  0  0  0  0  0  0
    8.7109   -6.4625    0.0000 C   0  0  0  0  0  0  0  0  0  0  0  0
    4.4241   -6.4625    0.0000 O   0  0  0  0  0  0  0  0  0  0  0  0
    5.1386   -7.7000    0.0000 C   0  0  0  0  0  0  0  0  0  0  0  0
    5.8531   -7.2875    0.0000 O   0  0  0  0  0  0  0  0  0  0  0  0
    7.2820   -7.2875    0.0000 O   0  0  0  0  0  0  0  0  0  0  0  0
   10.9245   -5.0674    0.0000 O   0  0  0  0  0  0  0  0  0  0  0  0
   11.4094   -4.4000    0.0000 C   0  0  0  0  0  0  0  0  0  0  0  0
   10.9245   -3.7326    0.0000 O   0  0  0  0  0  0  0  0  0  0  0  0
    5.8531   -4.8125    0.0000 C   0  0  0  0  0  0  0  0  0  0  0  0
    5.1386   -5.2250    0.0000 C   0  0  0  0  0  0  0  0  0  0  0  0
    5.1386   -6.0500    0.0000 C   0  0  0  0  0  0  0  0  0  0  0  0
    5.8531   -6.4625    0.0000 C   0  0  0  0  0  0  0  0  0  0  0  0
    6.5675   -5.2250    0.0000 C   0  0  0  0  0  0  0  0  0  0  0  0
    6.5675   -6.0500    0.0000 C   0  0  0  0  0  0  0  0  0  0  0  0
    7.2820   -6.4625    0.0000 C   0  0  0  0  0  0  0  0  0  0  0  0
    7.9965   -6.0500    0.0000 N   0  0  0  0  0  0  0  0  0  0  0  0
    7.9965   -3.5750    0.0000 C   0  0  0  0  0  0  0  0  0  0  0  0
    7.2820   -3.9875    0.0000 C   0  0  0  0  0  0  0  0  0  0  0  0
    7.2820   -4.8125    0.0000 C   0  0  0  0  0  0  0  0  0  0  0  0
    7.9965   -5.2250    0.0000 C   0  0  0  0  0  0  0  0  0  0  0  0
    9.4254   -3.5750    0.0000 C   0  0  0  0  0  0  0  0  0  0  0  0
    8.7109   -3.9875    0.0000 C   0  0  0  0  0  0  0  0  0  0  0  0
    8.7109   -4.8125    0.0000 C   0  0  0  0  0  0  0  0  0  0  0  0
    9.4254   -5.2250    0.0000 C   0  0  0  0  0  0  0  0  0  0  0  0
   10.1399   -4.8125    0.0000 C   0  0  0  0  0  0  0  0  0  0  0  0
   10.1399   -3.9875    0.0000 C   0  0  0  0  0  0  0  0  0  0  0  0
  5  1  1  0  0  0  0
  3  2  1  0  0  0  0
  3  8  1  0  0  0  0
 19  4  1  0  0  0  0
  5 14  1  0  0  0  0
  7  6  1  0  0  0  0
  7 15  1  0  0  0  0
 18  8  1  0  0  0  0
  9 28  1  0  0  0  0
 10  9  1  0  0  0  0
 11 10  1  0  0  0  0
 29 11  1  0  0  0  0
 12 16  1  0  0  0  0
 13 12  2  0  0  0  0
 14 13  1  0  0  0  0
 15 14  2  0  0  0  0
 17 15  1  0  0  0  0
 16 22  1  0  0  0  0
 17 16  2  0  0  0  0
 18 17  1  0  0  0  0
 19 18  1  0  0  0  0
 23 19  1  0  0  0  0
 20 25  1  0  0  0  0
 21 20  2  0  0  0  0
 22 21  1  0  0  0  0
 23 22  2  0  0  0  0
 26 23  1  0  0  0  0
 24 29  1  0  0  0  0
 25 24  2  0  0  0  0
 26 25  1  0  0  0  0
 27 26  2  0  0  0  0
 28 27  1  0  0  0  0
 29 28  2  0  0  0  0
M  END
>  <cdx:fragmentId>
5

$$$$
