92270.cdx
  Mrv1902 05222410232D          

 19 20  0  0  0  0            999 V2000
    5.4981   -7.6037    0.0000 C   0  0  0  0  0  0  0  0  0  0  0  0
    5.4981   -8.4288    0.0000 C   0  0  0  0  0  0  0  0  0  0  0  0
    6.2125   -8.8413    0.0000 C   0  0  0  0  0  0  0  0  0  0  0  0
    6.9270   -8.4288    0.0000 C   0  0  0  0  0  0  0  0  0  0  0  0
    6.9270   -7.6037    0.0000 C   0  0  0  0  0  0  0  0  0  0  0  0
    6.2125   -7.1913    0.0000 C   0  0  0  0  0  0  0  0  0  0  0  0
    7.7116   -8.6837    0.0000 O   0  0  0  0  0  0  0  0  0  0  0  0
    8.1965   -8.0162    0.0000 C   0  0  0  0  0  0  0  0  0  0  0  0
    7.7116   -7.3488    0.0000 C   0  0  0  0  0  0  0  0  0  0  0  0
    7.9666   -6.5642    0.0000 C   0  0  0  0  0  0  0  0  0  0  0  0
    4.6731   -8.4288    0.0000 C   0  0  0  0  0  0  0  0  0  0  0  0
    5.0856   -9.1432    0.0000 C   0  0  0  0  0  0  0  0  0  0  0  0
    4.2606   -9.1432    0.0000 C   0  0  0  0  0  0  0  0  0  0  0  0
    4.7836   -7.1913    0.0000 C   0  0  0  0  0  0  0  0  0  0  0  0
    4.0691   -7.6037    0.0000 C   0  0  0  0  0  0  0  0  0  0  0  0
    4.7836   -6.3662    0.0000 C   0  0  0  0  0  0  0  0  0  0  0  0
    4.0691   -5.9538    0.0000 O   0  0  0  0  0  0  0  0  0  0  0  0
    5.4981   -5.9538    0.0000 O   0  0  0  0  0  0  0  0  0  0  0  0
    4.0691   -5.1287    0.0000 C   0  0  0  0  0  0  0  0  0  0  0  0
  1  2  1  0  0  0  0
  2  3  1  0  0  0  0
  3  4  1  0  0  0  0
  4  5  2  0  0  0  0
  5  6  1  0  0  0  0
  6  1  1  0  0  0  0
  4  7  1  0  0  0  0
  7  8  1  0  0  0  0
  8  9  2  0  0  0  0
  9  5  1  0  0  0  0
  9 10  1  0  0  0  0
  2 11  1  0  0  0  0
  2 12  1  0  0  0  0
 11 13  2  0  0  0  0
  1 14  1  0  0  0  0
 14 15  2  0  0  0  0
 14 16  1  0  0  0  0
 16 17  1  0  0  0  0
 16 18  2  0  0  0  0
 17 19  1  0  0  0  0
M  END
>  <cdx:fragmentId>
5

$$$$
