92272.cdx
  Mrv1902 05222410242D          

 13 12  0  0  0  0            999 V2000
    3.9850   -6.9438    0.0000 C   0  0  0  0  0  0  0  0  0  0  0  0
    4.6995   -6.5313    0.0000 C   0  0  0  0  0  0  0  0  0  0  0  0
    5.4140   -6.9438    0.0000 C   0  0  0  0  0  0  0  0  0  0  0  0
    6.1284   -6.5313    0.0000 C   0  0  0  0  0  0  0  0  0  0  0  0
    6.8429   -6.9438    0.0000 C   0  0  0  0  0  0  0  0  0  0  0  0
    7.5574   -6.5313    0.0000 C   0  0  0  0  0  0  0  0  0  0  0  0
    8.2719   -6.9438    0.0000 C   0  0  0  0  0  0  0  0  0  0  0  0
    8.9863   -6.5313    0.0000 C   0  0  0  0  0  0  0  0  0  0  0  0
    9.7008   -6.9438    0.0000 C   0  0  0  0  0  0  0  0  0  0  0  0
   10.4153   -6.5313    0.0000 C   0  0  0  0  0  0  0  0  0  0  0  0
    6.8429   -7.7687    0.0000 C   0  0  0  0  0  0  0  0  0  0  0  0
    6.1284   -8.1813    0.0000 C   0  0  0  0  0  0  0  0  0  0  0  0
    9.7008   -7.7687    0.0000 C   0  0  0  0  0  0  0  0  0  0  0  0
  1  2  1  0  0  0  0
  2  3  1  0  0  0  0
  3  4  1  0  0  0  0
  4  5  1  0  0  0  0
  5  6  1  0  0  0  0
  6  7  1  0  0  0  0
  7  8  1  0  0  0  0
  8  9  1  0  0  0  0
  9 10  1  0  0  0  0
  5 11  1  0  0  0  0
 11 12  1  0  0  0  0
  9 13  1  0  0  0  0
M  END
>  <cdx:fragmentId>
3

$$$$
