92276.cdx
  Mrv1902 05222410252D          

 22 24  0  0  0  0            999 V2000
    7.3802  -10.0861    0.0000 O   0  0  0  0  0  0  0  0  0  0  0  0
    3.8079   -8.0236    0.0000 C   0  0  0  0  0  0  0  0  0  0  0  0
    4.5223   -7.6111    0.0000 O   0  0  0  0  0  0  0  0  0  0  0  0
    4.5223   -9.2611    0.0000 O   0  0  0  0  0  0  0  0  0  0  0  0
   10.9526   -8.0236    0.0000 C   0  0  0  0  0  0  0  0  0  0  0  0
   11.6670   -7.6111    0.0000 C   0  0  0  0  0  0  0  0  0  0  0  0
   11.6670   -6.7861    0.0000 C   0  0  0  0  0  0  0  0  0  0  0  0
   10.9526   -6.3736    0.0000 C   0  0  0  0  0  0  0  0  0  0  0  0
   10.2381   -7.6111    0.0000 C   0  0  0  0  0  0  0  0  0  0  0  0
   10.2381   -6.7861    0.0000 C   0  0  0  0  0  0  0  0  0  0  0  0
    9.5236   -8.0236    0.0000 C   0  0  0  0  0  0  0  0  0  0  0  0
    8.8092   -7.6111    0.0000 C   0  0  0  0  0  0  0  0  0  0  0  0
    7.3802   -9.2611    0.0000 C   0  0  0  0  0  0  0  0  0  0  0  0
    8.0947   -8.8486    0.0000 C   0  0  0  0  0  0  0  0  0  0  0  0
    8.0947   -8.0236    0.0000 C   0  0  0  0  0  0  0  0  0  0  0  0
    7.3802   -7.6111    0.0000 O   0  0  0  0  0  0  0  0  0  0  0  0
    5.9513   -9.2611    0.0000 C   0  0  0  0  0  0  0  0  0  0  0  0
    6.6657   -8.8486    0.0000 C   0  0  0  0  0  0  0  0  0  0  0  0
    6.6657   -8.0236    0.0000 C   0  0  0  0  0  0  0  0  0  0  0  0
    5.9513   -7.6111    0.0000 C   0  0  0  0  0  0  0  0  0  0  0  0
    5.2368   -8.0236    0.0000 C   0  0  0  0  0  0  0  0  0  0  0  0
    5.2368   -8.8486    0.0000 C   0  0  0  0  0  0  0  0  0  0  0  0
 13  1  2  0  0  0  0
  3  2  1  0  0  0  0
 21  3  1  0  0  0  0
 22  4  1  0  0  0  0
  5  9  1  0  0  0  0
  6  5  2  0  0  0  0
  7  6  1  0  0  0  0
  8  7  2  0  0  0  0
 10  8  1  0  0  0  0
  9 11  1  0  0  0  0
 10  9  2  0  0  0  0
 12 11  1  0  0  0  0
 15 12  1  0  0  0  0
 13 18  1  0  0  0  0
 14 13  1  0  0  0  0
 15 14  2  0  0  0  0
 16 15  1  0  0  0  0
 19 16  1  0  0  0  0
 17 22  1  0  0  0  0
 18 17  2  0  0  0  0
 19 18  1  0  0  0  0
 20 19  2  0  0  0  0
 21 20  1  0  0  0  0
 22 21  2  0  0  0  0
M  END
>  <cdx:fragmentId>
5

$$$$
