92277.cdx
  Mrv1902 05222410252D          

 44 48  0  0  0  0            999 V2000
    6.3339   -6.7205    0.0000 O   0  0  0  0  0  0  0  0  0  0  0  0
    6.3362   -5.8955    0.0000 C   0  0  1  0  0  0  0  0  0  0  0  0
    5.6229   -5.4810    0.0000 C   0  0  2  0  0  0  0  0  0  0  0  0
    4.9073   -5.8915    0.0000 C   0  0  1  0  0  0  0  0  0  0  0  0
    5.6160   -9.6060    0.0000 O   0  0  0  0  0  0  0  0  0  0  0  0
    4.3794   -8.8898    0.0000 O   0  0  0  0  0  0  0  0  0  0  0  0
    4.7910   -9.6049    0.0000 C   0  0  2  0  0  0  0  0  0  0  0  0
    4.3775  -10.3188    0.0000 C   0  0  1  0  0  0  0  0  0  0  0  0
    3.5525  -10.3177    0.0000 C   0  0  2  0  0  0  0  0  0  0  0  0
    3.1410   -9.6027    0.0000 C   0  0  1  0  0  0  0  0  0  0  0  0
    3.5544   -8.8887    0.0000 C   0  0  1  0  0  0  0  0  0  0  0  0
    3.1429   -8.1737    0.0000 C   0  0  0  0  0  0  0  0  0  0  0  0
    2.3160   -9.6016    0.0000 O   0  0  0  0  0  0  0  0  0  0  0  0
    3.1391  -11.0316    0.0000 O   0  0  0  0  0  0  0  0  0  0  0  0
    4.7891  -11.0338    0.0000 O   0  0  0  0  0  0  0  0  0  0  0  0
    4.9050   -6.7165    0.0000 C   0  0  2  0  0  0  0  0  0  0  0  0
    5.6183   -7.1310    0.0000 C   0  0  2  0  0  0  0  0  0  0  0  0
    7.0518   -5.4850    0.0000 C   0  0  0  0  0  0  0  0  0  0  0  0
    7.0541   -4.6600    0.0000 O   0  0  0  0  0  0  0  0  0  0  0  0
    7.7651   -5.8994    0.0000 O   0  0  0  0  0  0  0  0  0  0  0  0
    5.6160   -7.9560    0.0000 O   0  0  0  0  0  0  0  0  0  0  0  0
    4.1893   -7.1270    0.0000 O   0  0  0  0  0  0  0  0  0  0  0  0
    4.1939   -5.4770    0.0000 O   0  0  0  0  0  0  0  0  0  0  0  0
    5.6252   -4.6560    0.0000 O   0  0  0  0  0  0  0  0  0  0  0  0
    7.0449  -10.4310    0.0000 O   0  0  0  0  0  0  0  0  0  0  0  0
   12.0462   -6.7185    0.0000 O   0  0  0  0  0  0  0  0  0  0  0  0
    9.9028   -7.1310    0.0000 C   0  0  0  0  0  0  0  0  0  0  0  0
   10.6173   -6.7185    0.0000 C   0  0  0  0  0  0  0  0  0  0  0  0
   11.3318   -7.1310    0.0000 C   0  0  0  0  0  0  0  0  0  0  0  0
   11.3318   -7.9560    0.0000 C   0  0  0  0  0  0  0  0  0  0  0  0
   10.6173   -8.3685    0.0000 C   0  0  0  0  0  0  0  0  0  0  0  0
    9.9028   -7.9560    0.0000 C   0  0  0  0  0  0  0  0  0  0  0  0
    8.4739  -10.4310    0.0000 O   0  0  0  0  0  0  0  0  0  0  0  0
    8.4739   -7.9560    0.0000 O   0  0  0  0  0  0  0  0  0  0  0  0
    7.7594   -8.3685    0.0000 C   0  0  0  0  0  0  0  0  0  0  0  0
    7.0449   -7.9560    0.0000 C   0  0  0  0  0  0  0  0  0  0  0  0
    6.3305   -8.3685    0.0000 C   0  0  0  0  0  0  0  0  0  0  0  0
    6.3305   -9.1935    0.0000 C   0  0  0  0  0  0  0  0  0  0  0  0
    7.0449   -9.6060    0.0000 C   0  0  0  0  0  0  0  0  0  0  0  0
    7.7594   -9.1935    0.0000 C   0  0  0  0  0  0  0  0  0  0  0  0
    8.4739   -9.6060    0.0000 C   0  0  0  0  0  0  0  0  0  0  0  0
    9.1883   -9.1935    0.0000 C   0  0  0  0  0  0  0  0  0  0  0  0
    9.1883   -8.3685    0.0000 C   0  0  0  0  0  0  0  0  0  0  0  0
    2.3179   -8.1737    0.0000 O   0  0  0  0  0  0  0  0  0  0  0  0
 21 37  1  0  0  0  0
 39 25  1  0  0  0  0
 43 32  1  0  0  0  0
 29 26  1  0  0  0  0
 32 27  2  0  0  0  0
 28 27  1  0  0  0  0
 29 28  2  0  0  0  0
 30 29  1  0  0  0  0
 31 30  2  0  0  0  0
 32 31  1  0  0  0  0
 41 33  2  0  0  0  0
 38  5  1  0  0  0  0
 43 34  1  0  0  0  0
 35 34  1  0  0  0  0
 40 35  2  0  0  0  0
 36 35  1  0  0  0  0
 37 36  2  0  0  0  0
 38 37  1  0  0  0  0
 39 38  2  0  0  0  0
 40 39  1  0  0  0  0
 41 40  1  0  0  0  0
 42 41  1  0  0  0  0
 43 42  2  0  0  0  0
  1  2  1  0  0  0  0
  2  3  1  0  0  0  0
  3  4  1  0  0  0  0
  6  7  1  0  0  0  0
  7  8  1  0  0  0  0
  8  9  1  0  0  0  0
  9 10  1  0  0  0  0
 10 11  1  0  0  0  0
  6 11  1  0  0  0  0
 11 12  1  1  0  0  0
 10 13  1  6  0  0  0
  9 14  1  1  0  0  0
  8 15  1  6  0  0  0
  7  5  1  1  0  0  0
  4 16  1  0  0  0  0
 16 17  1  0  0  0  0
  1 17  1  0  0  0  0
 18 19  2  0  0  0  0
 18 20  1  0  0  0  0
  2 18  1  1  0  0  0
 17 21  1  1  0  0  0
 16 22  1  6  0  0  0
  4 23  1  1  0  0  0
  3 24  1  6  0  0  0
 12 44  1  0  0  0  0
M  END
>  <cdx:fragmentId>
47

$$$$
