92274.cdx
  Mrv1902 05222410252D          

 26 29  0  0  0  0            999 V2000
    5.3386   -7.6718    0.0000 C   0  0  0  0  0  0  0  0  0  0  0  0
    6.0507   -7.2552    0.0000 C   0  0  0  0  0  0  0  0  0  0  0  0
    6.0460   -6.4303    0.0000 C   0  0  0  0  0  0  0  0  0  0  0  0
    5.3292   -6.0219    0.0000 C   0  0  0  0  0  0  0  0  0  0  0  0
    4.6171   -6.4384    0.0000 C   0  0  0  0  0  0  0  0  0  0  0  0
    4.6218   -7.2634    0.0000 C   0  0  0  0  0  0  0  0  0  0  0  0
    6.7675   -7.6637    0.0000 C   0  0  0  0  0  0  0  0  0  0  0  0
    7.4796   -7.2471    0.0000 N   0  0  0  0  0  0  0  0  0  0  0  0
    7.4749   -6.4221    0.0000 C   0  0  0  0  0  0  0  0  0  0  0  0
    6.7581   -6.0137    0.0000 C   0  0  0  0  0  0  0  0  0  0  0  0
    8.1964   -7.6555    0.0000 C   0  0  0  0  0  0  0  0  0  0  0  0
    8.9085   -7.2389    0.0000 C   0  0  0  0  0  0  0  0  0  0  0  0
    8.9038   -6.4139    0.0000 C   0  0  0  0  0  0  0  0  0  0  0  0
    8.1870   -6.0055    0.0000 C   0  0  0  0  0  0  0  0  0  0  0  0
    9.6159   -5.9973    0.0000 C   0  0  0  0  0  0  0  0  0  0  0  0
    9.6112   -5.1723    0.0000 C   0  0  0  0  0  0  0  0  0  0  0  0
    8.8944   -4.7639    0.0000 C   0  0  0  0  0  0  0  0  0  0  0  0
    8.1823   -5.1805    0.0000 C   0  0  0  0  0  0  0  0  0  0  0  0
    3.9097   -7.6800    0.0000 O   0  0  0  0  0  0  0  0  0  0  0  0
    3.9144   -8.5050    0.0000 C   0  0  0  0  0  0  0  0  0  0  0  0
    3.9002   -6.0300    0.0000 O   0  0  0  0  0  0  0  0  0  0  0  0
    3.8955   -5.2051    0.0000 C   0  0  0  0  0  0  0  0  0  0  0  0
   10.3233   -4.7557    0.0000 O   0  0  0  0  0  0  0  0  0  0  0  0
   11.0401   -5.1641    0.0000 C   0  0  0  0  0  0  0  0  0  0  0  0
    8.8896   -3.9389    0.0000 O   0  0  0  0  0  0  0  0  0  0  0  0
    9.6017   -3.5224    0.0000 C   0  0  0  0  0  0  0  0  0  0  0  0
  1  2  2  0  0  0  0
  2  3  1  0  0  0  0
  3  4  2  0  0  0  0
  4  5  1  0  0  0  0
  5  6  2  0  0  0  0
  6  1  1  0  0  0  0
  2  7  1  0  0  0  0
  7  8  1  0  0  0  0
  8  9  1  0  0  0  0
  9 10  1  0  0  0  0
 10  3  1  0  0  0  0
  8 11  1  0  0  0  0
 11 12  1  0  0  0  0
 12 13  1  0  0  0  0
 13 14  1  0  0  0  0
 14  9  1  0  0  0  0
 13 15  2  0  0  0  0
 15 16  1  0  0  0  0
 16 17  2  0  0  0  0
 17 18  1  0  0  0  0
 18 14  2  0  0  0  0
  6 19  1  0  0  0  0
 19 20  1  0  0  0  0
  5 21  1  0  0  0  0
 21 22  1  0  0  0  0
 16 23  1  0  0  0  0
 23 24  1  0  0  0  0
 17 25  1  0  0  0  0
 25 26  1  0  0  0  0
M  END
>  <cdx:fragmentId>
5

$$$$
