92279.cdx
  Mrv1902 05222410212D          

 34 37  0  0  0  0            999 V2000
    2.9956  -10.2850    0.0000 O   0  0  0  0  0  0  0  0  0  0  0  0
    3.7100  -11.5225    0.0000 O   0  0  0  0  0  0  0  0  0  0  0  0
    4.4245  -11.1100    0.0000 C   0  0  2  0  0  0  0  0  0  0  0  0
    4.4245  -10.2850    0.0000 C   0  0  0  0  0  0  0  0  0  0  0  0
    3.7100   -9.8725    0.0000 C   0  0  0  0  0  0  0  0  0  0  0  0
    5.1390  -11.5225    0.0000 C   0  0  1  0  0  0  0  0  0  0  0  0
    5.8534  -11.1100    0.0000 C   0  0  0  0  0  0  0  0  0  0  0  0
    5.8534  -10.2850    0.0000 C   0  0  1  0  0  0  0  0  0  0  0  0
    5.1390   -9.8725    0.0000 O   0  0  0  0  0  0  0  0  0  0  0  0
    6.5679   -9.8725    0.0000 O   0  0  0  0  0  0  0  0  0  0  0  0
    6.5679   -9.0475    0.0000 C   0  0  0  0  0  0  0  0  0  0  0  0
    5.8534   -8.6350    0.0000 C   0  0  0  0  0  0  0  0  0  0  0  0
    5.1390   -9.0475    0.0000 O   0  0  0  0  0  0  0  0  0  0  0  0
    7.2824   -8.6350    0.0000 C   0  0  0  0  0  0  0  0  0  0  0  0
    7.2824   -7.8100    0.0000 C   0  0  0  0  0  0  0  0  0  0  0  0
    6.5679   -7.3975    0.0000 C   0  0  0  0  0  0  0  0  0  0  0  0
    5.8534   -7.8100    0.0000 C   0  0  0  0  0  0  0  0  0  0  0  0
    7.9969   -7.3975    0.0000 O   0  0  0  0  0  0  0  0  0  0  0  0
    7.9969   -6.5725    0.0000 C   0  0  0  0  0  0  0  0  0  0  0  0
    7.2824   -6.1600    0.0000 C   0  0  0  0  0  0  0  0  0  0  0  0
    6.5679   -6.5725    0.0000 C   0  0  0  0  0  0  0  0  0  0  0  0
    8.7113   -6.1600    0.0000 C   0  0  0  0  0  0  0  0  0  0  0  0
    8.7113   -5.3350    0.0000 C   0  0  0  0  0  0  0  0  0  0  0  0
    7.2824   -5.3350    0.0000 O   0  0  0  0  0  0  0  0  0  0  0  0
    9.4258   -6.5725    0.0000 C   0  0  0  0  0  0  0  0  0  0  0  0
   10.1403   -6.1600    0.0000 C   0  0  0  0  0  0  0  0  0  0  0  0
   10.1403   -5.3350    0.0000 C   0  0  0  0  0  0  0  0  0  0  0  0
    9.4258   -4.9225    0.0000 C   0  0  0  0  0  0  0  0  0  0  0  0
   10.8547   -4.9225    0.0000 O   0  0  0  0  0  0  0  0  0  0  0  0
    6.5679   -4.9225    0.0000 C   0  0  0  0  0  0  0  0  0  0  0  0
    5.8534   -6.1600    0.0000 O   0  0  0  0  0  0  0  0  0  0  0  0
    5.1390   -7.3975    0.0000 O   0  0  0  0  0  0  0  0  0  0  0  0
    6.5679  -11.5225    0.0000 O   0  0  0  0  0  0  0  0  0  0  0  0
    5.1390  -12.3475    0.0000 O   0  0  0  0  0  0  0  0  0  0  0  0
  3  2  1  6  0  0  0
  3  4  1  0  0  0  0
  4  5  1  0  0  0  0
  5  1  1  0  0  0  0
  3  6  1  0  0  0  0
  6  7  1  0  0  0  0
  7  8  1  0  0  0  0
  8  9  1  0  0  0  0
  9  4  1  0  0  0  0
  8 10  1  1  0  0  0
 10 11  1  0  0  0  0
 11 12  2  0  0  0  0
 12 13  1  0  0  0  0
 11 14  1  0  0  0  0
 14 15  2  0  0  0  0
 15 16  1  0  0  0  0
 16 17  2  0  0  0  0
 17 12  1  0  0  0  0
 15 18  1  0  0  0  0
 18 19  1  0  0  0  0
 19 20  2  0  0  0  0
 20 21  1  0  0  0  0
 21 16  1  0  0  0  0
 19 22  1  0  0  0  0
 22 23  2  0  0  0  0
 24 20  1  0  0  0  0
 22 25  1  0  0  0  0
 25 26  2  0  0  0  0
 26 27  1  0  0  0  0
 27 28  2  0  0  0  0
 28 23  1  0  0  0  0
 27 29  1  0  0  0  0
 24 30  1  0  0  0  0
 21 31  2  0  0  0  0
 17 32  1  0  0  0  0
  7 33  1  0  0  0  0
  6 34  1  1  0  0  0
M  END
>  <cdx:fragmentId>
5

$$$$
