92282.cdx
  Mrv1902 05222410222D          

 23 25  0  0  0  0            999 V2000
   10.4301   -5.5137    0.0000 O   0  0  0  0  0  0  0  0  0  0  0  0
    9.7156   -6.7512    0.0000 C   0  0  0  0  0  0  0  0  0  0  0  0
    9.7156   -5.9262    0.0000 C   0  0  0  0  0  0  0  0  0  0  0  0
    9.0011   -5.5137    0.0000 C   0  0  0  0  0  0  0  0  0  0  0  0
    8.2867   -5.9262    0.0000 C   0  0  0  0  0  0  0  0  0  0  0  0
    8.2867   -8.4012    0.0000 O   0  0  0  0  0  0  0  0  0  0  0  0
    9.0011   -7.1638    0.0000 C   0  0  0  0  0  0  0  0  0  0  0  0
    8.2867   -6.7512    0.0000 C   0  0  0  0  0  0  0  0  0  0  0  0
    7.5722   -7.9887    0.0000 C   0  0  0  0  0  0  0  0  0  0  0  0
    7.5722   -7.1638    0.0000 C   0  0  0  0  0  0  0  0  0  0  0  0
    6.8577   -6.7512    0.0000 O   0  0  0  0  0  0  0  0  0  0  0  0
    5.4288   -9.2262    0.0000 O   0  0  0  0  0  0  0  0  0  0  0  0
    6.8577   -9.2262    0.0000 O   0  0  0  0  0  0  0  0  0  0  0  0
    6.8577   -8.4012    0.0000 C   0  0  0  0  0  0  0  0  0  0  0  0
    3.9998   -6.7512    0.0000 O   0  0  0  0  0  0  0  0  0  0  0  0
    3.2854   -7.9887    0.0000 C   0  0  0  0  0  0  0  0  0  0  0  0
    3.9998   -8.4012    0.0000 O   0  0  0  0  0  0  0  0  0  0  0  0
    5.4288   -8.4012    0.0000 C   0  0  0  0  0  0  0  0  0  0  0  0
    6.1432   -7.9887    0.0000 C   0  0  0  0  0  0  0  0  0  0  0  0
    6.1432   -7.1637    0.0000 C   0  0  0  0  0  0  0  0  0  0  0  0
    5.4288   -6.7512    0.0000 C   0  0  0  0  0  0  0  0  0  0  0  0
    4.7143   -7.1637    0.0000 C   0  0  0  0  0  0  0  0  0  0  0  0
    4.7143   -7.9887    0.0000 C   0  0  0  0  0  0  0  0  0  0  0  0
  3  1  1  0  0  0  0
  2  7  1  0  0  0  0
  3  2  2  0  0  0  0
  4  3  1  0  0  0  0
  5  4  2  0  0  0  0
  8  5  1  0  0  0  0
  6  9  1  0  0  0  0
  8  7  2  0  0  0  0
 10  8  1  0  0  0  0
  9 14  1  0  0  0  0
 10  9  2  0  0  0  0
 11 10  1  0  0  0  0
 20 11  1  0  0  0  0
 12 18  1  0  0  0  0
 14 13  2  0  0  0  0
 19 14  1  0  0  0  0
 15 22  1  0  0  0  0
 17 16  1  0  0  0  0
 23 17  1  0  0  0  0
 18 23  1  0  0  0  0
 19 18  2  0  0  0  0
 20 19  1  0  0  0  0
 21 20  2  0  0  0  0
 22 21  1  0  0  0  0
 23 22  2  0  0  0  0
M  END
>  <cdx:fragmentId>
5

$$$$
