92285.cdx
  Mrv1902 05222410212D          

 38 41  0  0  0  0            999 V2000
    2.2943   -9.9962    0.0000 O   0  0  0  0  0  0  0  0  0  0  0  0
    2.2943  -10.8212    0.0000 C   0  0  0  0  0  0  0  0  0  0  0  0
    3.0088  -11.2338    0.0000 O   0  0  0  0  0  0  0  0  0  0  0  0
    3.7232  -10.8212    0.0000 C   0  0  1  0  0  0  0  0  0  0  0  0
    3.7232   -9.9962    0.0000 C   0  0  0  0  0  0  0  0  0  0  0  0
    4.4377  -11.2338    0.0000 C   0  0  0  0  0  0  0  0  0  0  0  0
    5.1522  -10.8212    0.0000 C   0  0  0  0  0  0  0  0  0  0  0  0
    5.1522   -9.9962    0.0000 C   0  0  2  0  0  0  0  0  0  0  0  0
    4.4377   -9.5838    0.0000 C   0  0  0  0  0  0  0  0  0  0  0  0
    5.8667  -11.2338    0.0000 C   0  0  0  0  0  0  0  0  0  0  0  0
    6.5811  -10.8212    0.0000 C   0  0  0  0  0  0  0  0  0  0  0  0
    6.5811   -9.9962    0.0000 C   0  0  2  0  0  0  0  0  0  0  0  0
    5.8667   -9.5838    0.0000 C   0  0  2  0  0  0  0  0  0  0  0  0
    7.2956   -9.5838    0.0000 C   0  0  1  0  0  0  0  0  0  0  0  0
    7.2956   -8.7588    0.0000 C   0  0  2  0  0  0  0  0  0  0  0  0
    6.5811   -8.3462    0.0000 C   0  0  0  0  0  0  0  0  0  0  0  0
    5.8667   -8.7588    0.0000 C   0  0  0  0  0  0  0  0  0  0  0  0
    8.0802   -9.8387    0.0000 C   0  0  0  0  0  0  0  0  0  0  0  0
    8.5651   -9.1713    0.0000 C   0  0  0  0  0  0  0  0  0  0  0  0
    8.0802   -8.5038    0.0000 C   0  0  2  0  0  0  0  0  0  0  0  0
    8.3352   -7.7192    0.0000 C   0  0  1  0  0  0  0  0  0  0  0  0
    9.1320   -7.5057    0.0000 C   0  0  0  0  0  0  0  0  0  0  0  0
    9.3456   -6.7088    0.0000 C   0  0  0  0  0  0  0  0  0  0  0  0
   10.1425   -6.4952    0.0000 C   0  0  0  0  0  0  0  0  0  0  0  0
   10.3560   -5.6984    0.0000 C   0  0  0  0  0  0  0  0  0  0  0  0
   11.1529   -5.4848    0.0000 C   0  0  0  0  0  0  0  0  0  0  0  0
    9.7726   -5.1150    0.0000 C   0  0  0  0  0  0  0  0  0  0  0  0
    5.8667  -12.0587    0.0000 N   0  3  0  0  0  0  0  0  0  0  0  0
    1.5798  -11.2338    0.0000 C   0  0  0  0  0  0  0  0  0  0  0  0
    7.3818   -7.9383    0.0000 C   0  0  0  0  0  0  0  0  0  0  0  0
    6.9936  -10.7107    0.0000 H   0  0  0  0  0  0  0  0  0  0  0  0
    5.1522   -9.1713    0.0000 C   0  0  0  0  0  0  0  0  0  0  0  0
    7.7673   -7.1208    0.0000 C   0  0  0  0  0  0  0  0  0  0  0  0
    8.8951   -8.3748    0.0000 H   0  0  0  0  0  0  0  0  0  0  0  0
    7.7081  -10.2982    0.0000 H   0  0  0  0  0  0  0  0  0  0  0  0
    6.5811   -9.1713    0.0000 H   0  0  0  0  0  0  0  0  0  0  0  0
    6.5811  -12.4712    0.0000 O   0  5  0  0  0  0  0  0  0  0  0  0
    5.1522  -12.4712    0.0000 O   0  0  0  0  0  0  0  0  0  0  0  0
  1  2  2  0  0  0  0
  2  3  1  0  0  0  0
  4  3  1  1  0  0  0
  4  5  1  0  0  0  0
  4  6  1  0  0  0  0
  6  7  1  0  0  0  0
  7  8  1  0  0  0  0
  8  9  1  0  0  0  0
  9  5  1  0  0  0  0
  7 10  2  0  0  0  0
 10 11  1  0  0  0  0
 11 12  1  0  0  0  0
 12 13  1  0  0  0  0
 13  8  1  0  0  0  0
 12 14  1  0  0  0  0
 14 15  1  0  0  0  0
 15 16  1  0  0  0  0
 16 17  1  0  0  0  0
 17 13  1  0  0  0  0
 14 18  1  0  0  0  0
 18 19  1  0  0  0  0
 19 20  1  0  0  0  0
 20 15  1  0  0  0  0
 20 21  1  0  0  0  0
 21 22  1  0  0  0  0
 22 23  1  0  0  0  0
 23 24  1  0  0  0  0
 24 25  1  0  0  0  0
 25 26  1  0  0  0  0
 25 27  1  0  0  0  0
 10 28  1  0  0  0  0
  2 29  1  0  0  0  0
 15 30  1  1  0  0  0
 12 31  1  1  0  0  0
  8 32  1  1  0  0  0
 21 33  1  6  0  0  0
 20 34  1  6  0  0  0
 14 35  1  6  0  0  0
 13 36  1  6  0  0  0
 28 37  1  0  0  0  0
 28 38  2  0  0  0  0
M  CHG  2  28   1  37  -1
M  END
>  <cdx:fragmentId>
5

$$$$
