92288.cdx
  Mrv1902 05222410242D          

 16 16  0  0  0  0            999 V2000
    5.4431   -8.1263    0.0000 C   0  0  1  0  0  0  0  0  0  0  0  0
    5.4431   -8.9513    0.0000 C   0  0  0  0  0  0  0  0  0  0  0  0
    6.1575   -9.3637    0.0000 C   0  0  2  0  0  0  0  0  0  0  0  0
    6.8720   -8.9513    0.0000 C   0  0  0  0  0  0  0  0  0  0  0  0
    6.8720   -8.1263    0.0000 C   0  0  0  0  0  0  0  0  0  0  0  0
    6.1575   -7.7138    0.0000 C   0  0  0  0  0  0  0  0  0  0  0  0
    5.0306   -7.4118    0.0000 C   0  0  0  0  0  0  0  0  0  0  0  0
    4.6462   -8.3398    0.0000 O   0  0  0  0  0  0  0  0  0  0  0  0
    7.2845   -7.4118    0.0000 C   0  0  0  0  0  0  0  0  0  0  0  0
    7.6689   -8.3398    0.0000 C   0  0  0  0  0  0  0  0  0  0  0  0
    6.1575   -6.8888    0.0000 C   0  0  0  0  0  0  0  0  0  0  0  0
    6.1575   -6.0638    0.0000 C   0  0  0  0  0  0  0  0  0  0  0  0
    6.8720   -5.6512    0.0000 C   0  0  0  0  0  0  0  0  0  0  0  0
    6.8720   -4.8263    0.0000 C   0  0  0  0  0  0  0  0  0  0  0  0
    7.5865   -6.0638    0.0000 O   0  0  0  0  0  0  0  0  0  0  0  0
    6.1575  -10.1888    0.0000 O   0  0  0  0  0  0  0  0  0  0  0  0
  1  2  1  0  0  0  0
  2  3  1  0  0  0  0
  3  4  1  0  0  0  0
  4  5  1  0  0  0  0
  5  6  1  0  0  0  0
  6  1  1  0  0  0  0
  1  7  1  0  0  0  0
  1  8  1  1  0  0  0
  5  9  1  0  0  0  0
  5 10  1  0  0  0  0
  6 11  2  0  0  0  0
 11 12  2  0  0  0  0
 12 13  1  0  0  0  0
 13 14  1  0  0  0  0
 13 15  2  0  0  0  0
  3 16  1  6  0  0  0
M  END
>  <cdx:fragmentId>
5

$$$$
