92287.cdx
  Mrv1902 05222410202D          

 28 30  0  0  0  0            999 V2000
    2.5556   -8.0987    0.0000 C   0  0  0  0  0  0  0  0  0  0  0  0
    3.2700   -8.5113    0.0000 C   0  0  0  0  0  0  0  0  0  0  0  0
    3.9845   -8.0987    0.0000 C   0  0  0  0  0  0  0  0  0  0  0  0
    4.6990   -8.5113    0.0000 C   0  0  0  0  0  0  0  0  0  0  0  0
    5.4134   -8.0987    0.0000 C   0  0  0  0  0  0  0  0  0  0  0  0
    5.4134   -7.2738    0.0000 C   0  0  0  0  0  0  0  0  0  0  0  0
    4.6990   -6.8613    0.0000 O   0  0  0  0  0  0  0  0  0  0  0  0
    6.1279   -8.5113    0.0000 C   0  0  0  0  0  0  0  0  0  0  0  0
    6.8424   -8.0987    0.0000 C   0  0  0  0  0  0  0  0  0  0  0  0
    6.8424   -7.2738    0.0000 C   0  0  0  0  0  0  0  0  0  0  0  0
    6.1279   -6.8613    0.0000 C   0  0  0  0  0  0  0  0  0  0  0  0
    7.5569   -8.5113    0.0000 C   0  0  0  0  0  0  0  0  0  0  0  0
    8.2713   -8.0987    0.0000 C   0  0  0  0  0  0  0  0  0  0  0  0
    8.2713   -7.2738    0.0000 C   0  0  0  0  0  0  0  0  0  0  0  0
    7.5569   -6.8613    0.0000 O   0  0  0  0  0  0  0  0  0  0  0  0
    8.9858   -8.5113    0.0000 O   0  0  0  0  0  0  0  0  0  0  0  0
    9.7003   -8.0987    0.0000 C   0  0  0  0  0  0  0  0  0  0  0  0
    9.7003   -7.2738    0.0000 C   0  0  0  0  0  0  0  0  0  0  0  0
    8.9858   -6.8613    0.0000 C   0  0  0  0  0  0  0  0  0  0  0  0
   10.4147   -6.8613    0.0000 C   0  0  0  0  0  0  0  0  0  0  0  0
   10.4147   -6.0362    0.0000 C   0  0  0  0  0  0  0  0  0  0  0  0
    9.7003   -5.6238    0.0000 C   0  0  0  0  0  0  0  0  0  0  0  0
    8.9858   -6.0362    0.0000 C   0  0  0  0  0  0  0  0  0  0  0  0
    6.1279   -9.3362    0.0000 O   0  0  0  0  0  0  0  0  0  0  0  0
    7.5569   -9.3362    0.0000 O   0  0  0  0  0  0  0  0  0  0  0  0
    9.7003   -4.7988    0.0000 O   0  0  0  0  0  0  0  0  0  0  0  0
   11.1292   -5.6238    0.0000 O   0  0  0  0  0  0  0  0  0  0  0  0
    3.2700   -9.3362    0.0000 C   0  0  0  0  0  0  0  0  0  0  0  0
  1  2  1  0  0  0  0
  2  3  2  0  0  0  0
  3  4  1  0  0  0  0
  4  5  1  0  0  0  0
  5  6  1  0  0  0  0
  6  7  1  0  0  0  0
  5  8  2  0  0  0  0
  8  9  1  0  0  0  0
  9 10  2  0  0  0  0
 10 11  1  0  0  0  0
 11  6  2  0  0  0  0
  9 12  1  0  0  0  0
 12 13  1  0  0  0  0
 13 14  2  0  0  0  0
 14 15  1  0  0  0  0
 15 10  1  0  0  0  0
 13 16  1  0  0  0  0
 16 17  1  0  0  0  0
 18 19  2  0  0  0  0
 19 14  1  0  0  0  0
 18 20  1  0  0  0  0
 20 21  2  0  0  0  0
 21 22  1  0  0  0  0
 22 23  2  0  0  0  0
 23 19  1  0  0  0  0
  8 24  1  0  0  0  0
 25 12  2  0  0  0  0
 22 26  1  0  0  0  0
 21 27  1  0  0  0  0
  2 28  1  0  0  0  0
M  END
>  <cdx:fragmentId>
5

$$$$
