92295.cdx
  Mrv1902 05222410222D          

 16 18  0  0  0  0            999 V2000
    5.1106   -6.6875    0.0000 C   0  0  0  0  0  0  0  0  0  0  0  0
    5.3778   -7.4681    0.0000 C   0  0  0  0  0  0  0  0  0  0  0  0
    6.1873   -7.6270    0.0000 C   0  0  0  0  0  0  0  0  0  0  0  0
    6.7297   -7.0053    0.0000 C   0  0  0  0  0  0  0  0  0  0  0  0
    6.4626   -6.2248    0.0000 C   0  0  0  0  0  0  0  0  0  0  0  0
    5.6530   -6.0659    0.0000 C   0  0  0  0  0  0  0  0  0  0  0  0
    7.5546   -6.9924    0.0000 C   0  0  0  0  0  0  0  0  0  0  0  0
    7.7973   -6.2039    0.0000 C   0  0  0  0  0  0  0  0  0  0  0  0
    7.1223   -5.7295    0.0000 N   0  0  0  0  0  0  0  0  0  0  0  0
    8.1162   -7.5968    0.0000 C   0  0  0  0  0  0  0  0  0  0  0  0
    8.9204   -7.4127    0.0000 C   0  0  0  0  0  0  0  0  0  0  0  0
    9.1630   -6.6242    0.0000 N   0  0  0  0  0  0  0  0  0  0  0  0
    8.6015   -6.0198    0.0000 C   0  0  0  0  0  0  0  0  0  0  0  0
    8.8441   -5.2313    0.0000 C   0  0  0  0  0  0  0  0  0  0  0  0
    4.3011   -6.5287    0.0000 O   0  0  0  0  0  0  0  0  0  0  0  0
    3.7587   -7.1503    0.0000 C   0  0  0  0  0  0  0  0  0  0  0  0
  1  2  2  0  0  0  0
  2  3  1  0  0  0  0
  3  4  2  0  0  0  0
  4  5  1  0  0  0  0
  5  6  2  0  0  0  0
  6  1  1  0  0  0  0
  4  7  1  0  0  0  0
  7  8  2  0  0  0  0
  8  9  1  0  0  0  0
  9  5  1  0  0  0  0
  7 10  1  0  0  0  0
 10 11  2  0  0  0  0
 11 12  1  0  0  0  0
 12 13  2  0  0  0  0
 13  8  1  0  0  0  0
 13 14  1  0  0  0  0
  1 15  1  0  0  0  0
 15 16  1  0  0  0  0
M  END
>  <cdx:fragmentId>
5

$$$$
