92294.cdx
  Mrv1902 05222410222D          

 23 24  0  0  0  0            999 V2000
    5.1268   -4.6475    0.0000 C   0  0  0  0  0  0  0  0  0  0  0  0
    5.1268   -5.4725    0.0000 C   0  0  0  0  0  0  0  0  0  0  0  0
    5.8413   -5.8850    0.0000 C   0  0  0  0  0  0  0  0  0  0  0  0
    6.5557   -5.4725    0.0000 C   0  0  0  0  0  0  0  0  0  0  0  0
    6.5557   -4.6475    0.0000 C   0  0  0  0  0  0  0  0  0  0  0  0
    5.8413   -4.2350    0.0000 C   0  0  0  0  0  0  0  0  0  0  0  0
    7.2702   -5.8850    0.0000 O   0  0  0  0  0  0  0  0  0  0  0  0
    7.9847   -5.4725    0.0000 C   0  0  0  0  0  0  0  0  0  0  0  0
    7.9847   -4.6475    0.0000 C   0  0  0  0  0  0  0  0  0  0  0  0
    7.2702   -4.2350    0.0000 C   0  0  0  0  0  0  0  0  0  0  0  0
    4.4123   -5.8850    0.0000 O   0  0  0  0  0  0  0  0  0  0  0  0
    4.4123   -6.7100    0.0000 O   0  0  0  0  0  0  0  0  0  0  0  0
    5.1268   -7.1225    0.0000 C   0  0  0  0  0  0  0  0  0  0  0  0
    5.8413   -6.7100    0.0000 C   0  0  0  0  0  0  0  0  0  0  0  0
    5.1268   -7.9475    0.0000 C   0  0  0  0  0  0  0  0  0  0  0  0
    5.8413   -8.3600    0.0000 C   0  0  0  0  0  0  0  0  0  0  0  0
    6.5557   -7.1225    0.0000 O   0  0  0  0  0  0  0  0  0  0  0  0
    8.6992   -5.8850    0.0000 O   0  0  0  0  0  0  0  0  0  0  0  0
    3.6979   -5.4725    0.0000 C   0  0  0  0  0  0  0  0  0  0  0  0
    4.4123   -8.3600    0.0000 C   0  0  0  0  0  0  0  0  0  0  0  0
    7.3807   -7.1225    0.0000 C   0  0  0  0  0  0  0  0  0  0  0  0
    7.7932   -7.8370    0.0000 C   0  0  0  0  0  0  0  0  0  0  0  0
    7.7932   -6.4080    0.0000 O   0  0  0  0  0  0  0  0  0  0  0  0
  1  2  2  0  0  0  0
  2  3  1  0  0  0  0
  3  4  2  0  0  0  0
  4  5  1  0  0  0  0
  5  6  2  0  0  0  0
  6  1  1  0  0  0  0
  4  7  1  0  0  0  0
  7  8  1  0  0  0  0
  8  9  1  0  0  0  0
  9 10  2  0  0  0  0
 10  5  1  0  0  0  0
  2 11  1  0  0  0  0
 12 13  2  0  0  0  0
 13 14  1  0  0  0  0
 14  3  1  0  0  0  0
 13 15  1  0  0  0  0
 15 16  1  0  0  0  0
 17 14  1  0  0  0  0
  8 18  2  0  0  0  0
 11 19  1  0  0  0  0
 15 20  1  0  0  0  0
 17 21  1  0  0  0  0
 21 22  1  0  0  0  0
 21 23  2  0  0  0  0
M  END
>  <cdx:fragmentId>
5

$$$$
