92296.cdx
  Mrv1902 05222410222D          

 45 51  0  0  0  0            999 V2000
    5.4156   -3.4238    0.0000 C   0  0  0  0  0  0  0  0  0  0  0  0
    5.4156   -4.2488    0.0000 C   0  0  0  0  0  0  0  0  0  0  0  0
    6.1300   -4.6612    0.0000 C   0  0  0  0  0  0  0  0  0  0  0  0
    6.8445   -4.2488    0.0000 C   0  0  0  0  0  0  0  0  0  0  0  0
    6.8445   -3.4238    0.0000 C   0  0  0  0  0  0  0  0  0  0  0  0
    6.1300   -3.0112    0.0000 C   0  0  0  0  0  0  0  0  0  0  0  0
    7.5590   -4.6612    0.0000 C   0  0  0  0  0  0  0  0  0  0  0  0
    8.2734   -4.2488    0.0000 N   0  0  0  0  0  0  0  0  0  0  0  0
    8.2734   -3.4238    0.0000 C   0  0  0  0  0  0  0  0  0  0  0  0
    7.5590   -3.0112    0.0000 C   0  0  0  0  0  0  0  0  0  0  0  0
    4.7011   -3.0112    0.0000 O   0  0  0  0  0  0  0  0  0  0  0  0
    4.7011   -4.6612    0.0000 O   0  0  0  0  0  0  0  0  0  0  0  0
    5.4156   -5.8988    0.0000 C   0  0  0  0  0  0  0  0  0  0  0  0
    6.1300   -5.4863    0.0000 O   0  0  0  0  0  0  0  0  0  0  0  0
    7.5590   -5.4862    0.0000 C   0  0  0  0  0  0  0  0  0  0  0  0
    8.2734   -5.8987    0.0000 C   0  0  0  0  0  0  0  0  0  0  0  0
    8.9879   -4.6612    0.0000 C   0  0  0  0  0  0  0  0  0  0  0  0
    4.7011   -2.1863    0.0000 C   0  0  0  0  0  0  0  0  0  0  0  0
    4.5906   -5.8988    0.0000 C   0  0  0  0  0  0  0  0  0  0  0  0
    9.0984   -5.8987    0.0000 C   0  0  0  0  0  0  0  0  0  0  0  0
    4.1781   -6.6132    0.0000 C   0  0  0  0  0  0  0  0  0  0  0  0
    4.5906   -7.3277    0.0000 C   0  0  0  0  0  0  0  0  0  0  0  0
    5.4156   -7.3277    0.0000 C   0  0  0  0  0  0  0  0  0  0  0  0
    5.8281   -6.6132    0.0000 C   0  0  0  0  0  0  0  0  0  0  0  0
    7.8609   -6.6132    0.0000 C   0  0  0  0  0  0  0  0  0  0  0  0
    8.2734   -7.3277    0.0000 C   0  0  0  0  0  0  0  0  0  0  0  0
    9.0984   -7.3277    0.0000 C   0  0  0  0  0  0  0  0  0  0  0  0
    9.5109   -6.6132    0.0000 C   0  0  0  0  0  0  0  0  0  0  0  0
    4.1781   -8.0422    0.0000 C   0  0  0  0  0  0  0  0  0  0  0  0
    4.8518   -9.2104    0.0000 C   0  0  0  0  0  0  0  0  0  0  0  0
    4.4393   -9.9249    0.0000 N   0  0  0  0  0  0  0  0  0  0  0  0
    4.8518  -10.6393    0.0000 C   0  0  0  0  0  0  0  0  0  0  0  0
    5.6768  -10.6393    0.0000 C   0  0  0  0  0  0  0  0  0  0  0  0
    6.0893   -9.9249    0.0000 C   0  0  0  0  0  0  0  0  0  0  0  0
    5.6768   -9.2104    0.0000 C   0  0  0  0  0  0  0  0  0  0  0  0
    6.9143   -9.9249    0.0000 C   0  0  0  0  0  0  0  0  0  0  0  0
    7.3268   -9.2104    0.0000 C   0  0  0  0  0  0  0  0  0  0  0  0
    6.9143   -8.4959    0.0000 C   0  0  0  0  0  0  0  0  0  0  0  0
    6.0893   -8.4959    0.0000 C   0  0  0  0  0  0  0  0  0  0  0  0
    3.6143   -9.9249    0.0000 C   0  0  0  0  0  0  0  0  0  0  0  0
    8.1518   -9.2104    0.0000 O   0  0  0  0  0  0  0  0  0  0  0  0
    8.5643   -9.9249    0.0000 C   0  0  0  0  0  0  0  0  0  0  0  0
    7.8609   -8.0422    0.0000 O   0  0  0  0  0  0  0  0  0  0  0  0
    9.5109   -8.0422    0.0000 O   0  0  0  0  0  0  0  0  0  0  0  0
   10.3359   -8.0422    0.0000 C   0  0  0  0  0  0  0  0  0  0  0  0
  1  2  2  0  0  0  0
  2  3  1  0  0  0  0
  3  4  2  0  0  0  0
  4  5  1  0  0  0  0
  5  6  2  0  0  0  0
  6  1  1  0  0  0  0
  4  7  1  0  0  0  0
  7  8  1  0  0  0  0
  8  9  1  0  0  0  0
  9 10  1  0  0  0  0
 10  5  1  0  0  0  0
  1 11  1  0  0  0  0
 12  2  1  0  0  0  0
 13 14  1  0  0  0  0
 14  3  1  0  0  0  0
  7 15  1  0  0  0  0
 15 16  1  0  0  0  0
 17  8  1  0  0  0  0
 11 18  1  0  0  0  0
 13 19  2  0  0  0  0
 16 20  2  0  0  0  0
 19 21  1  0  0  0  0
 21 22  2  0  0  0  0
 22 23  1  0  0  0  0
 23 24  2  0  0  0  0
 24 13  1  0  0  0  0
 16 25  1  0  0  0  0
 25 26  2  0  0  0  0
 26 27  1  0  0  0  0
 27 28  2  0  0  0  0
 28 20  1  0  0  0  0
 22 29  1  0  0  0  0
 29 30  1  0  0  0  0
 30 31  1  0  0  0  0
 31 32  1  0  0  0  0
 32 33  1  0  0  0  0
 33 34  1  0  0  0  0
 34 35  2  0  0  0  0
 35 30  1  0  0  0  0
 34 36  1  0  0  0  0
 36 37  2  0  0  0  0
 37 38  1  0  0  0  0
 38 39  2  0  0  0  0
 39 35  1  0  0  0  0
 31 40  1  0  0  0  0
 37 41  1  0  0  0  0
 41 42  1  0  0  0  0
 26 43  1  0  0  0  0
 27 44  1  0  0  0  0
 44 45  1  0  0  0  0
 38 43  1  0  0  0  0
M  END
>  <cdx:fragmentId>
5

$$$$
