92293.cdx
  Mrv1902 05222410202D          

 36 41  0  0  0  0            999 V2000
    8.2674   -9.9085    0.0000 C   0  0  0  0  0  0  0  0  0  0  0  0
    7.5529   -9.4960    0.0000 C   0  0  0  0  0  0  0  0  0  0  0  0
    7.5529   -8.6710    0.0000 C   0  0  0  0  0  0  0  0  0  0  0  0
    8.2674   -8.2585    0.0000 C   0  0  0  0  0  0  0  0  0  0  0  0
    8.9818   -8.6710    0.0000 C   0  0  0  0  0  0  0  0  0  0  0  0
    9.6963   -8.2585    0.0000 C   0  0  0  0  0  0  0  0  0  0  0  0
    9.6963   -7.4335    0.0000 C   0  0  0  0  0  0  0  0  0  0  0  0
   10.4108   -7.0210    0.0000 C   0  0  0  0  0  0  0  0  0  0  0  0
   11.1252   -7.4335    0.0000 C   0  0  0  0  0  0  0  0  0  0  0  0
   11.1252   -8.2585    0.0000 C   0  0  0  0  0  0  0  0  0  0  0  0
   10.4108   -8.6710    0.0000 C   0  0  0  0  0  0  0  0  0  0  0  0
   10.4108   -9.4960    0.0000 C   0  0  0  0  0  0  0  0  0  0  0  0
    9.6963   -9.9085    0.0000 C   0  0  0  0  0  0  0  0  0  0  0  0
    8.9818   -9.4960    0.0000 C   0  0  0  0  0  0  0  0  0  0  0  0
    6.8384   -9.9085    0.0000 O   0  0  0  0  0  0  0  0  0  0  0  0
   11.8397   -7.0210    0.0000 O   0  0  0  0  0  0  0  0  0  0  0  0
    8.9818   -7.0210    0.0000 O   0  0  0  0  0  0  0  0  0  0  0  0
    8.2674   -7.4335    0.0000 C   0  0  0  0  0  0  0  0  0  0  0  0
    6.8384   -8.2585    0.0000 C   0  0  0  0  0  0  0  0  0  0  0  0
    6.8384   -7.4335    0.0000 C   0  0  0  0  0  0  0  0  0  0  0  0
    6.1239   -7.0210    0.0000 C   0  0  0  0  0  0  0  0  0  0  0  0
    5.4095   -7.4335    0.0000 C   0  0  0  0  0  0  0  0  0  0  0  0
    5.4095   -8.2585    0.0000 C   0  0  0  0  0  0  0  0  0  0  0  0
    4.6950   -8.6710    0.0000 C   0  0  0  0  0  0  0  0  0  0  0  0
    3.9805   -8.2585    0.0000 C   0  0  0  0  0  0  0  0  0  0  0  0
    3.2661   -8.6710    0.0000 C   0  0  0  0  0  0  0  0  0  0  0  0
    3.2661   -9.4960    0.0000 C   0  0  0  0  0  0  0  0  0  0  0  0
    3.9805   -9.9085    0.0000 C   0  0  0  0  0  0  0  0  0  0  0  0
    4.6950   -9.4960    0.0000 C   0  0  0  0  0  0  0  0  0  0  0  0
    5.4095   -9.9085    0.0000 C   0  0  0  0  0  0  0  0  0  0  0  0
    6.1239   -9.4960    0.0000 C   0  0  0  0  0  0  0  0  0  0  0  0
    6.1239   -8.6710    0.0000 C   0  0  0  0  0  0  0  0  0  0  0  0
    4.6950   -7.0210    0.0000 O   0  0  0  0  0  0  0  0  0  0  0  0
    3.9805   -7.4335    0.0000 C   0  0  0  0  0  0  0  0  0  0  0  0
    2.5516   -9.9085    0.0000 O   0  0  0  0  0  0  0  0  0  0  0  0
    7.5529   -7.0210    0.0000 O   0  0  0  0  0  0  0  0  0  0  0  0
  1  2  1  0  0  0  0
  2  3  2  0  0  0  0
  3  4  1  0  0  0  0
  4  5  2  0  0  0  0
  5  6  1  0  0  0  0
  6  7  1  0  0  0  0
  7  8  2  0  0  0  0
  8  9  1  0  0  0  0
  9 10  2  0  0  0  0
 10 11  1  0  0  0  0
  6 11  2  0  0  0  0
 11 12  1  0  0  0  0
 12 13  1  0  0  0  0
 13 14  1  0  0  0  0
  1 14  2  0  0  0  0
  5 14  1  0  0  0  0
  2 15  1  0  0  0  0
  9 16  1  0  0  0  0
 17 18  1  0  0  0  0
  7 17  1  0  0  0  0
 19 20  1  0  0  0  0
 20 21  2  0  0  0  0
 21 22  1  0  0  0  0
 22 23  2  0  0  0  0
 23 24  1  0  0  0  0
 24 25  1  0  0  0  0
 25 26  2  0  0  0  0
 26 27  1  0  0  0  0
 27 28  2  0  0  0  0
 28 29  1  0  0  0  0
 24 29  2  0  0  0  0
 29 30  1  0  0  0  0
 30 31  1  0  0  0  0
 31 32  1  0  0  0  0
 19 32  2  0  0  0  0
 23 32  1  0  0  0  0
 33 34  1  0  0  0  0
 22 33  1  0  0  0  0
 27 35  1  0  0  0  0
 20 36  1  0  0  0  0
  3 19  1  0  0  0  0
M  END
>  <cdx:fragmentId>
41

$$$$
