92292.cdx
  Mrv1902 05222410212D          

 28 32  0  0  0  0            999 V2000
    4.5081   -7.5350    0.0000 C   0  0  0  0  0  0  0  0  0  0  0  0
    4.5081   -8.3600    0.0000 C   0  0  0  0  0  0  0  0  0  0  0  0
    5.2225   -8.7725    0.0000 C   0  0  2  0  0  0  0  0  0  0  0  0
    5.9370   -8.3600    0.0000 C   0  0  2  0  0  0  0  0  0  0  0  0
    5.9370   -7.5350    0.0000 C   0  0  1  0  0  0  0  0  0  0  0  0
    5.2225   -7.1225    0.0000 C   0  0  0  0  0  0  0  0  0  0  0  0
    6.6515   -8.7725    0.0000 C   0  0  0  0  0  0  0  0  0  0  0  0
    7.3659   -8.3600    0.0000 C   0  0  0  0  0  0  0  0  0  0  0  0
    7.3659   -7.5350    0.0000 C   0  0  2  0  0  0  0  0  0  0  0  0
    6.6515   -7.1225    0.0000 C   0  0  1  0  0  0  0  0  0  0  0  0
    8.0804   -7.1225    0.0000 C   0  0  0  0  0  0  0  0  0  0  0  0
    8.0804   -6.2975    0.0000 C   0  0  0  0  0  0  0  0  0  0  0  0
    7.3659   -5.8850    0.0000 C   0  0  1  0  0  0  0  0  0  0  0  0
    6.6515   -6.2975    0.0000 C   0  0  0  0  0  0  0  0  0  0  0  0
    6.9825   -6.3525    0.0000 C   0  0  0  0  0  0  0  0  0  0  0  0
    6.9528   -7.0055    0.0000 C   0  0  2  0  0  0  0  0  0  0  0  0
    6.5700   -5.6380    0.0000 C   0  0  0  0  0  0  0  0  0  0  0  0
    6.5403   -7.7200    0.0000 O   0  0  0  0  0  0  0  0  0  0  0  0
    6.9054   -8.0496    0.0000 C   0  0  0  0  0  0  0  0  0  0  0  0
    7.0125   -9.1850    0.0000 N   0  3  0  0  0  0  0  0  0  0  0  0
    5.6350   -9.4870    0.0000 C   0  0  0  0  0  0  0  0  0  0  0  0
    7.9399   -9.5537    0.0000 C   0  0  0  0  0  0  0  0  0  0  0  0
    7.9399  -10.3787    0.0000 C   0  0  0  0  0  0  0  0  0  0  0  0
    8.6543  -10.7912    0.0000 O   0  0  0  0  0  0  0  0  0  0  0  0
    4.8100   -9.4870    0.0000 C   0  0  0  0  0  0  0  0  0  0  0  0
    5.9370   -9.1850    0.0000 H   0  0  0  0  0  0  0  0  0  0  0  0
    7.3659   -5.0600    0.0000 H   0  0  0  0  0  0  0  0  0  0  0  0
    5.9370   -6.7100    0.0000 H   0  0  0  0  0  0  0  0  0  0  0  0
  1  2  1  0  0  0  0
  2  3  1  0  0  0  0
  3  4  1  0  0  0  0
  4  5  1  0  0  0  0
  5  6  1  6  0  0  0
  6  1  1  0  0  0  0
  4  7  1  0  0  0  0
  7  8  1  0  0  0  0
  9  8  1  1  0  0  0
  9 10  1  0  0  0  0
 10  5  1  0  0  0  0
  9 11  1  0  0  0  0
 11 12  1  0  0  0  0
 12 13  1  0  0  0  0
 13 14  1  0  0  0  0
 14 10  1  0  0  0  0
 13 15  1  0  0  0  0
 15 16  1  0  0  0  0
 16  9  1  0  0  0  0
 15 17  2  0  0  0  0
 16 18  1  1  0  0  0
  5 19  1  0  0  0  0
 19 20  2  0  0  0  0
  3 21  1  0  0  0  0
 21 20  1  0  0  0  0
 20 22  1  0  0  0  0
 22 23  1  0  0  0  0
 23 24  1  0  0  0  0
  3 25  1  1  0  0  0
  4 26  1  1  0  0  0
 13 27  1  1  0  0  0
 10 28  1  1  0  0  0
M  CHG  1  20   1
M  END
>  <cdx:fragmentId>
5

$$$$
