92299.cdx
  Mrv1902 05222410242D          

 22 24  0  0  0  0            999 V2000
    5.0624   -6.4086    0.0000 C   0  0  1  0  0  0  0  0  0  0  0  0
    5.3159   -7.1937    0.0000 C   0  0  1  0  0  0  0  0  0  0  0  0
    6.0878   -7.4849    0.0000 C   0  0  2  0  0  0  0  0  0  0  0  0
    6.7968   -7.0631    0.0000 C   0  0  2  0  0  0  0  0  0  0  0  0
    6.9090   -6.2458    0.0000 C   0  0  1  0  0  0  0  0  0  0  0  0
    6.3399   -5.6484    0.0000 C   0  0  1  0  0  0  0  0  0  0  0  0
    5.5181   -5.7209    0.0000 C   0  0  0  0  0  0  0  0  0  0  0  0
    7.6529   -5.8891    0.0000 C   0  0  0  0  0  0  0  0  0  0  0  0
    7.5437   -5.0714    0.0000 C   0  0  0  0  0  0  0  0  0  0  0  0
    6.7322   -4.9226    0.0000 O   0  0  0  0  0  0  0  0  0  0  0  0
    4.8004   -7.8377    0.0000 C   0  0  0  0  0  0  0  0  0  0  0  0
    5.2536   -8.5271    0.0000 C   0  0  0  0  0  0  0  0  0  0  0  0
    6.0493   -8.3090    0.0000 C   0  0  0  0  0  0  0  0  0  0  0  0
    8.1410   -4.5024    0.0000 O   0  0  0  0  0  0  0  0  0  0  0  0
    8.3787   -6.2814    0.0000 C   0  0  0  0  0  0  0  0  0  0  0  0
    6.6933   -8.8246    0.0000 O   0  0  0  0  0  0  0  0  0  0  0  0
    4.2450   -6.2964    0.0000 C   0  0  0  0  0  0  0  0  0  0  0  0
    4.5190   -6.9801    0.0000 H   0  0  0  0  0  0  0  0  0  0  0  0
    7.4844   -7.5188    0.0000 O   0  0  0  0  0  0  0  0  0  0  0  0
    5.9274   -4.9339    0.0000 H   0  0  0  0  0  0  0  0  0  0  0  0
    7.6234   -6.6583    0.0000 H   0  0  0  0  0  0  0  0  0  0  0  0
    6.8022   -7.8974    0.0000 C   0  0  0  0  0  0  0  0  0  0  0  0
  1  2  1  0  0  0  0
  2  3  1  0  0  0  0
  3  4  1  0  0  0  0
  4  5  1  0  0  0  0
  5  6  1  0  0  0  0
  6  7  1  0  0  0  0
  7  1  1  0  0  0  0
  5  8  1  0  0  0  0
  8  9  1  0  0  0  0
  9 10  1  0  0  0  0
 10  6  1  0  0  0  0
  2 11  1  0  0  0  0
 11 12  2  0  0  0  0
 12 13  1  0  0  0  0
 13  3  1  0  0  0  0
  9 14  2  0  0  0  0
  8 15  2  0  0  0  0
 13 16  2  0  0  0  0
  1 17  1  6  0  0  0
  2 18  1  6  0  0  0
  4 19  1  6  0  0  0
  6 20  1  6  0  0  0
  5 21  1  6  0  0  0
  3 22  1  1  0  0  0
M  END
>  <cdx:fragmentId>
5

$$$$
