92302.cdx
  Mrv1902 05222410252D          

 24 23  0  0  0  0            999 V2000
    0.9738   -6.4900    0.0000 C   0  0  0  0  0  0  0  0  0  0  0  0
    1.5454   -6.1600    0.0000 O   0  0  0  0  0  0  0  0  0  0  0  0
    2.1169   -6.4900    0.0000 C   0  0  0  0  0  0  0  0  0  0  0  0
    2.6885   -6.1600    0.0000 C   0  0  0  0  0  0  0  0  0  0  0  0
    3.2601   -6.4900    0.0000 C   0  0  0  0  0  0  0  0  0  0  0  0
    3.8317   -6.1600    0.0000 C   0  0  0  0  0  0  0  0  0  0  0  0
    4.4032   -6.4900    0.0000 C   0  0  0  0  0  0  0  0  0  0  0  0
    4.9748   -6.1600    0.0000 C   0  0  0  0  0  0  0  0  0  0  0  0
    5.5464   -6.4900    0.0000 C   0  0  0  0  0  0  0  0  0  0  0  0
    6.1180   -6.1600    0.0000 C   0  0  0  0  0  0  0  0  0  0  0  0
    6.6895   -6.4900    0.0000 C   0  0  0  0  0  0  0  0  0  0  0  0
    7.2611   -6.1600    0.0000 C   0  0  0  0  0  0  0  0  0  0  0  0
    7.8327   -6.4900    0.0000 C   0  0  0  0  0  0  0  0  0  0  0  0
    8.4043   -6.1600    0.0000 C   0  0  0  0  0  0  0  0  0  0  0  0
    8.9758   -6.4900    0.0000 C   0  0  0  0  0  0  0  0  0  0  0  0
    9.5474   -6.1600    0.0000 C   0  0  0  0  0  0  0  0  0  0  0  0
   10.1190   -6.4900    0.0000 C   0  0  0  0  0  0  0  0  0  0  0  0
   10.6906   -6.1600    0.0000 C   0  0  0  0  0  0  0  0  0  0  0  0
   11.2622   -6.4900    0.0000 C   0  0  0  0  0  0  0  0  0  0  0  0
   11.8337   -6.1600    0.0000 C   0  0  0  0  0  0  0  0  0  0  0  0
   12.4053   -6.4900    0.0000 C   0  0  0  0  0  0  0  0  0  0  0  0
   12.9769   -6.1600    0.0000 C   0  0  0  0  0  0  0  0  0  0  0  0
   13.5485   -6.4900    0.0000 C   0  0  0  0  0  0  0  0  0  0  0  0
    2.1169   -7.1500    0.0000 O   0  0  0  0  0  0  0  0  0  0  0  0
  1  2  1  0  0  0  0
  2  3  1  0  0  0  0
  3  4  1  0  0  0  0
  4  5  1  0  0  0  0
  5  6  1  0  0  0  0
  6  7  1  0  0  0  0
  7  8  1  0  0  0  0
  8  9  1  0  0  0  0
  9 10  1  0  0  0  0
 10 11  1  0  0  0  0
 11 12  1  0  0  0  0
 12 13  1  0  0  0  0
 13 14  1  0  0  0  0
 14 15  1  0  0  0  0
 15 16  1  0  0  0  0
 16 17  1  0  0  0  0
 17 18  1  0  0  0  0
 18 19  1  0  0  0  0
 19 20  1  0  0  0  0
 20 21  1  0  0  0  0
 21 22  1  0  0  0  0
 22 23  1  0  0  0  0
  3 24  2  0  0  0  0
M  END
>  <cdx:fragmentId>
3

$$$$
