92300.cdx
  Mrv1902 05222410252D          

 22 26  0  0  0  0            999 V2000
    4.5100   -8.8000    0.0000 C   0  0  0  0  0  0  0  0  0  0  0  0
    4.5100   -9.6250    0.0000 C   0  0  0  0  0  0  0  0  0  0  0  0
    5.2245  -10.0375    0.0000 C   0  0  0  0  0  0  0  0  0  0  0  0
    5.9389   -9.6250    0.0000 C   0  0  0  0  0  0  0  0  0  0  0  0
    5.9389   -8.8000    0.0000 C   0  0  0  0  0  0  0  0  0  0  0  0
    5.2245   -8.3875    0.0000 C   0  0  0  0  0  0  0  0  0  0  0  0
    6.6534  -10.0375    0.0000 C   0  0  0  0  0  0  0  0  0  0  0  0
    7.3679   -9.6250    0.0000 C   0  0  0  0  0  0  0  0  0  0  0  0
    7.3679   -8.8000    0.0000 C   0  0  0  0  0  0  0  0  0  0  0  0
    6.6534   -8.3875    0.0000 C   0  0  0  0  0  0  0  0  0  0  0  0
    8.0824   -8.3875    0.0000 C   0  0  0  0  0  0  0  0  0  0  0  0
    8.0824   -7.5625    0.0000 C   0  0  0  0  0  0  0  0  0  0  0  0
    7.3679   -7.1500    0.0000 C   0  0  0  0  0  0  0  0  0  0  0  0
    6.6534   -7.5625    0.0000 C   0  0  0  0  0  0  0  0  0  0  0  0
    7.1964   -6.3430    0.0000 O   0  0  0  0  0  0  0  0  0  0  0  0
    6.3759   -6.2568    0.0000 C   0  0  0  0  0  0  0  0  0  0  0  0
    6.0403   -7.0105    0.0000 N   0  0  0  0  0  0  0  0  0  0  0  0
    8.8670   -8.6424    0.0000 O   0  0  0  0  0  0  0  0  0  0  0  0
    9.3519   -7.9750    0.0000 C   0  0  0  0  0  0  0  0  0  0  0  0
    8.8670   -7.3076    0.0000 C   0  0  2  0  0  0  0  0  0  0  0  0
    5.2245  -10.8625    0.0000 C   0  0  0  0  0  0  0  0  0  0  0  0
    9.1219   -6.5229    0.0000 C   0  0  0  0  0  0  0  0  0  0  0  0
  1  2  2  0  0  0  0
  2  3  1  0  0  0  0
  3  4  2  0  0  0  0
  4  5  1  0  0  0  0
  5  6  2  0  0  0  0
  6  1  1  0  0  0  0
  4  7  1  0  0  0  0
  7  8  2  0  0  0  0
  8  9  1  0  0  0  0
  9 10  2  0  0  0  0
 10  5  1  0  0  0  0
  9 11  1  0  0  0  0
 11 12  2  0  0  0  0
 12 13  1  0  0  0  0
 13 14  2  0  0  0  0
 14 10  1  0  0  0  0
 13 15  1  0  0  0  0
 15 16  1  0  0  0  0
 16 17  2  0  0  0  0
 17 14  1  0  0  0  0
 11 18  1  0  0  0  0
 18 19  1  0  0  0  0
 19 20  1  0  0  0  0
 20 12  1  0  0  0  0
  3 21  1  0  0  0  0
 20 22  1  1  0  0  0
M  END
>  <cdx:fragmentId>
111

$$$$
