92308.cdx
  Mrv1902 05222410232D          

 72 78  0  0  0  0            999 V2000
    2.1293  -10.9588    0.0000 C   0  0  0  0  0  0  0  0  0  0  0  0
    2.1293  -11.7837    0.0000 C   0  0  0  0  0  0  0  0  0  0  0  0
    2.8438  -12.1963    0.0000 C   0  0  0  0  0  0  0  0  0  0  0  0
    3.5582  -11.7837    0.0000 C   0  0  0  0  0  0  0  0  0  0  0  0
    3.5582  -10.9588    0.0000 O   0  0  0  0  0  0  0  0  0  0  0  0
    2.8438  -10.5463    0.0000 C   0  0  0  0  0  0  0  0  0  0  0  0
    4.2727  -12.1963    0.0000 O   0  0  0  0  0  0  0  0  0  0  0  0
    4.9872  -11.7837    0.0000 C   0  0  0  0  0  0  0  0  0  0  0  0
    5.7017  -12.1963    0.0000 C   0  0  0  0  0  0  0  0  0  0  0  0
    6.4161  -11.7837    0.0000 O   0  0  0  0  0  0  0  0  0  0  0  0
    6.4161  -10.9588    0.0000 O   0  0  0  0  0  0  0  0  0  0  0  0
    5.7017  -13.0213    0.0000 C   0  0  0  0  0  0  0  0  0  0  0  0
    6.4161  -13.4337    0.0000 C   0  0  0  0  0  0  0  0  0  0  0  0
    7.1306  -13.0213    0.0000 C   0  0  0  0  0  0  0  0  0  0  0  0
    7.1306  -12.1963    0.0000 C   0  0  0  0  0  0  0  0  0  0  0  0
    7.8451  -11.7837    0.0000 O   0  0  0  0  0  0  0  0  0  0  0  0
    7.8451  -10.9588    0.0000 C   0  0  0  0  0  0  0  0  0  0  0  0
    7.1306  -10.5463    0.0000 C   0  0  0  0  0  0  0  0  0  0  0  0
    8.5595  -10.5463    0.0000 C   0  0  0  0  0  0  0  0  0  0  0  0
    8.5595   -9.7212    0.0000 O   0  0  0  0  0  0  0  0  0  0  0  0
    7.8451   -9.3087    0.0000 C   0  0  0  0  0  0  0  0  0  0  0  0
    7.1306   -9.7212    0.0000 C   0  0  0  0  0  0  0  0  0  0  0  0
    9.2740  -11.7837    0.0000 O   0  0  0  0  0  0  0  0  0  0  0  0
    9.2740  -10.9588    0.0000 C   0  0  0  0  0  0  0  0  0  0  0  0
    9.9885  -12.1963    0.0000 C   0  0  0  0  0  0  0  0  0  0  0  0
   10.7030  -11.7837    0.0000 C   0  0  0  0  0  0  0  0  0  0  0  0
   10.7030  -10.9588    0.0000 O   0  0  0  0  0  0  0  0  0  0  0  0
    9.9885  -13.0213    0.0000 O   0  0  0  0  0  0  0  0  0  0  0  0
   10.7030  -13.4337    0.0000 C   0  0  0  0  0  0  0  0  0  0  0  0
   11.4174  -13.0213    0.0000 C   0  0  0  0  0  0  0  0  0  0  0  0
   11.4174  -12.1963    0.0000 C   0  0  0  0  0  0  0  0  0  0  0  0
    9.2740   -9.3087    0.0000 O   0  0  0  0  0  0  0  0  0  0  0  0
    9.2740   -8.4838    0.0000 C   0  0  0  0  0  0  0  0  0  0  0  0
    8.5595   -8.0713    0.0000 C   0  0  0  0  0  0  0  0  0  0  0  0
    7.8451   -8.4838    0.0000 O   0  0  0  0  0  0  0  0  0  0  0  0
    9.9885   -8.0713    0.0000 C   0  0  0  0  0  0  0  0  0  0  0  0
    9.9885   -7.2462    0.0000 C   0  0  0  0  0  0  0  0  0  0  0  0
    9.2740   -6.8338    0.0000 O   0  0  0  0  0  0  0  0  0  0  0  0
    8.5595   -7.2462    0.0000 C   0  0  0  0  0  0  0  0  0  0  0  0
    9.2740   -6.0088    0.0000 C   0  0  0  0  0  0  0  0  0  0  0  0
    8.5595   -5.5962    0.0000 O   0  0  0  0  0  0  0  0  0  0  0  0
    7.8451   -6.0088    0.0000 O   0  0  0  0  0  0  0  0  0  0  0  0
    7.8451   -6.8338    0.0000 C   0  0  0  0  0  0  0  0  0  0  0  0
   10.7030   -6.8338    0.0000 O   0  0  0  0  0  0  0  0  0  0  0  0
   10.7030   -6.0088    0.0000 C   0  0  0  0  0  0  0  0  0  0  0  0
    9.9885   -5.5962    0.0000 C   0  0  0  0  0  0  0  0  0  0  0  0
   11.4174   -5.5962    0.0000 C   0  0  0  0  0  0  0  0  0  0  0  0
   11.4174   -4.7713    0.0000 C   0  0  0  0  0  0  0  0  0  0  0  0
   10.7030   -4.3587    0.0000 C   0  0  0  0  0  0  0  0  0  0  0  0
    9.9885   -4.7713    0.0000 O   0  0  0  0  0  0  0  0  0  0  0  0
    7.8451   -4.3587    0.0000 O   0  0  0  0  0  0  0  0  0  0  0  0
    7.1306   -4.7713    0.0000 C   0  0  0  0  0  0  0  0  0  0  0  0
    7.1306   -5.5962    0.0000 C   0  0  0  0  0  0  0  0  0  0  0  0
    6.4161   -4.3587    0.0000 C   0  0  0  0  0  0  0  0  0  0  0  0
    5.7017   -4.7713    0.0000 C   0  0  0  0  0  0  0  0  0  0  0  0
    5.7017   -5.5962    0.0000 C   0  0  0  0  0  0  0  0  0  0  0  0
    6.4161   -6.0088    0.0000 O   0  0  0  0  0  0  0  0  0  0  0  0
    4.9872   -4.3587    0.0000 O   0  0  0  0  0  0  0  0  0  0  0  0
    6.4161   -3.5337    0.0000 O   0  0  0  0  0  0  0  0  0  0  0  0
   10.7030   -3.5337    0.0000 O   0  0  0  0  0  0  0  0  0  0  0  0
   12.1319   -4.3587    0.0000 O   0  0  0  0  0  0  0  0  0  0  0  0
   12.1319   -6.0088    0.0000 O   0  0  0  0  0  0  0  0  0  0  0  0
   10.7030   -8.4838    0.0000 O   0  0  0  0  0  0  0  0  0  0  0  0
    6.4161   -9.3087    0.0000 O   0  0  0  0  0  0  0  0  0  0  0  0
   12.1319  -11.7837    0.0000 O   0  0  0  0  0  0  0  0  0  0  0  0
   12.1319  -13.4337    0.0000 O   0  0  0  0  0  0  0  0  0  0  0  0
    7.8451  -13.4337    0.0000 O   0  0  0  0  0  0  0  0  0  0  0  0
    6.4161  -14.2587    0.0000 O   0  0  0  0  0  0  0  0  0  0  0  0
    4.9872  -13.4337    0.0000 O   0  0  0  0  0  0  0  0  0  0  0  0
    2.8438  -13.0213    0.0000 O   0  0  0  0  0  0  0  0  0  0  0  0
    1.4148  -12.1963    0.0000 O   0  0  0  0  0  0  0  0  0  0  0  0
    1.4148  -10.5463    0.0000 O   0  0  0  0  0  0  0  0  0  0  0  0
  1  2  1  0  0  0  0
  2  3  1  0  0  0  0
  3  4  1  0  0  0  0
  4  5  1  0  0  0  0
  5  6  1  0  0  0  0
  6  1  1  0  0  0  0
  4  7  1  0  0  0  0
  7  8  1  0  0  0  0
  8  9  1  0  0  0  0
  9 10  1  0  0  0  0
  9 12  1  0  0  0  0
 12 13  1  0  0  0  0
 13 14  1  0  0  0  0
 14 15  1  0  0  0  0
 15 10  1  0  0  0  0
 15 16  1  0  0  0  0
 16 17  1  0  0  0  0
 17 18  1  0  0  0  0
 18 11  1  0  0  0  0
 17 19  1  0  0  0  0
 19 20  1  0  0  0  0
 20 21  1  0  0  0  0
 21 22  1  0  0  0  0
 22 18  1  0  0  0  0
 23 24  1  0  0  0  0
 24 19  1  0  0  0  0
 23 25  1  0  0  0  0
 25 26  1  0  0  0  0
 26 27  1  0  0  0  0
 25 28  1  0  0  0  0
 28 29  1  0  0  0  0
 29 30  1  0  0  0  0
 30 31  1  0  0  0  0
 31 26  1  0  0  0  0
 32 33  1  0  0  0  0
 33 34  1  0  0  0  0
 34 35  1  0  0  0  0
 35 21  1  0  0  0  0
 33 36  1  0  0  0  0
 36 37  1  0  0  0  0
 37 38  1  0  0  0  0
 38 39  1  0  0  0  0
 39 34  1  0  0  0  0
 40 41  1  0  0  0  0
 42 43  1  0  0  0  0
 43 39  1  0  0  0  0
 37 44  1  0  0  0  0
 44 45  1  0  0  0  0
 45 46  1  0  0  0  0
 46 40  1  0  0  0  0
 45 47  1  0  0  0  0
 47 48  1  0  0  0  0
 48 49  1  0  0  0  0
 49 50  1  0  0  0  0
 50 46  1  0  0  0  0
 51 52  1  0  0  0  0
 52 53  1  0  0  0  0
 53 42  1  0  0  0  0
 52 54  1  0  0  0  0
 54 55  1  0  0  0  0
 55 56  1  0  0  0  0
 56 57  1  0  0  0  0
 57 53  1  0  0  0  0
 55 58  1  0  0  0  0
 54 59  1  0  0  0  0
 49 60  1  0  0  0  0
 48 61  1  0  0  0  0
 47 62  1  0  0  0  0
 36 63  1  0  0  0  0
 22 64  1  0  0  0  0
 31 65  1  0  0  0  0
 30 66  1  0  0  0  0
 14 67  1  0  0  0  0
 13 68  1  0  0  0  0
 12 69  1  0  0  0  0
  3 70  1  0  0  0  0
  2 71  1  0  0  0  0
  1 72  1  0  0  0  0
M  END
>  <cdx:fragmentId>
5

$$$$
