92311.cdx
  Mrv1902 05222410232D          

 44 48  0  0  0  0            999 V2000
    4.5356   -6.5587    0.0000 C   0  0  0  0  0  0  0  0  0  0  0  0
    4.5356   -7.3838    0.0000 C   0  0  0  0  0  0  0  0  0  0  0  0
    5.2500   -7.7963    0.0000 C   0  0  0  0  0  0  0  0  0  0  0  0
    5.9645   -7.3838    0.0000 C   0  0  0  0  0  0  0  0  0  0  0  0
    5.9645   -6.5587    0.0000 C   0  0  0  0  0  0  0  0  0  0  0  0
    5.2500   -6.1463    0.0000 C   0  0  0  0  0  0  0  0  0  0  0  0
    6.6790   -7.7963    0.0000 C   0  0  0  0  0  0  0  0  0  0  0  0
    7.3934   -7.3838    0.0000 C   0  0  0  0  0  0  0  0  0  0  0  0
    7.3934   -6.5587    0.0000 C   0  0  0  0  0  0  0  0  0  0  0  0
    6.6790   -6.1463    0.0000 O   0  0  0  0  0  0  0  0  0  0  0  0
    8.1079   -7.7963    0.0000 O   0  0  0  0  0  0  0  0  0  0  0  0
    8.8224   -6.5587    0.0000 C   0  0  0  0  0  0  0  0  0  0  0  0
    8.1079   -6.1463    0.0000 C   0  0  0  0  0  0  0  0  0  0  0  0
    5.2500   -8.6212    0.0000 O   0  0  0  0  0  0  0  0  0  0  0  0
    6.6790   -8.6212    0.0000 O   0  0  0  0  0  0  0  0  0  0  0  0
    5.2500   -5.3213    0.0000 O   0  0  0  0  0  0  0  0  0  0  0  0
    3.8211   -6.1463    0.0000 O   0  0  0  0  0  0  0  0  0  0  0  0
    9.5369   -6.1463    0.0000 C   0  0  0  0  0  0  0  0  0  0  0  0
    9.5369   -5.3213    0.0000 C   0  0  0  0  0  0  0  0  0  0  0  0
    8.8224   -4.9088    0.0000 C   0  0  0  0  0  0  0  0  0  0  0  0
    8.1079   -5.3213    0.0000 C   0  0  0  0  0  0  0  0  0  0  0  0
   10.2513   -4.9088    0.0000 O   0  0  0  0  0  0  0  0  0  0  0  0
    5.2500   -4.4962    0.0000 C   0  0  2  0  0  0  0  0  0  0  0  0
    5.9645   -4.0838    0.0000 O   0  0  0  0  0  0  0  0  0  0  0  0
    5.9645   -3.2588    0.0000 C   0  0  1  0  0  0  0  0  0  0  0  0
    5.2500   -2.8463    0.0000 C   0  0  2  0  0  0  0  0  0  0  0  0
    4.5356   -3.2588    0.0000 C   0  0  1  0  0  0  0  0  0  0  0  0
    4.5356   -4.0838    0.0000 C   0  0  1  0  0  0  0  0  0  0  0  0
    3.8211   -2.8463    0.0000 O   0  0  0  0  0  0  0  0  0  0  0  0
    6.6790   -2.8463    0.0000 C   0  0  0  0  0  0  0  0  0  0  0  0
    3.8211   -4.4962    0.0000 O   0  0  0  0  0  0  0  0  0  0  0  0
    5.2500   -2.0213    0.0000 O   0  0  0  0  0  0  0  0  0  0  0  0
    6.6790   -2.0213    0.0000 O   0  0  0  0  0  0  0  0  0  0  0  0
    8.1100   -8.6128    0.0000 C   0  0  2  0  0  0  0  0  0  0  0  0
    7.3956   -9.0253    0.0000 O   0  0  0  0  0  0  0  0  0  0  0  0
    7.3956   -9.8503    0.0000 C   0  0  1  0  0  0  0  0  0  0  0  0
    8.1100  -10.2628    0.0000 C   0  0  2  0  0  0  0  0  0  0  0  0
    8.8245   -9.8503    0.0000 C   0  0  1  0  0  0  0  0  0  0  0  0
    8.8245   -9.0253    0.0000 C   0  0  1  0  0  0  0  0  0  0  0  0
    9.5390  -10.2628    0.0000 O   0  0  0  0  0  0  0  0  0  0  0  0
    6.6811  -10.2628    0.0000 C   0  0  0  0  0  0  0  0  0  0  0  0
    9.5390   -8.6128    0.0000 O   0  0  0  0  0  0  0  0  0  0  0  0
    8.1100  -11.0878    0.0000 O   0  0  0  0  0  0  0  0  0  0  0  0
    6.6811  -11.0878    0.0000 O   0  0  0  0  0  0  0  0  0  0  0  0
  1  2  2  0  0  0  0
  2  3  1  0  0  0  0
  3  4  2  0  0  0  0
  4  5  1  0  0  0  0
  5  6  2  0  0  0  0
  6  1  1  0  0  0  0
  4  7  1  0  0  0  0
  7  8  1  0  0  0  0
  8  9  1  0  0  0  0
  9 10  1  0  0  0  0
 10  5  1  0  0  0  0
  8 11  1  0  0  0  0
 12 13  2  0  0  0  0
 13  9  1  0  0  0  0
  3 14  1  0  0  0  0
 15  7  2  0  0  0  0
  6 16  1  0  0  0  0
 17  1  1  0  0  0  0
 12 18  1  0  0  0  0
 18 19  2  0  0  0  0
 19 20  1  0  0  0  0
 20 21  2  0  0  0  0
 21 13  1  0  0  0  0
 19 22  1  0  0  0  0
 23 16  1  1  0  0  0
 23 24  1  0  0  0  0
 24 25  1  0  0  0  0
 25 26  1  0  0  0  0
 26 27  1  0  0  0  0
 27 28  1  0  0  0  0
 28 23  1  0  0  0  0
 27 29  1  1  0  0  0
 25 30  1  1  0  0  0
 28 31  1  6  0  0  0
 26 32  1  6  0  0  0
 30 33  1  0  0  0  0
 34 35  1  0  0  0  0
 35 36  1  0  0  0  0
 36 37  1  0  0  0  0
 37 38  1  0  0  0  0
 38 39  1  0  0  0  0
 39 34  1  0  0  0  0
 38 40  1  1  0  0  0
 36 41  1  1  0  0  0
 39 42  1  6  0  0  0
 37 43  1  6  0  0  0
 41 44  1  0  0  0  0
 34 11  1  1  0  0  0
M  END
>  <cdx:fragmentId>
5

$$$$
