92314.cdx
  Mrv1902 05222410252D          

 43 47  0  0  0  0            999 V2000
    1.2215   -9.2578    0.0000 C   0  0  1  0  0  0  0  0  0  0  0  0
    1.9365   -9.6694    0.0000 C   0  0  2  0  0  0  0  0  0  0  0  0
    2.6505   -9.2560    0.0000 C   0  0  1  0  0  0  0  0  0  0  0  0
    2.6495   -8.4310    0.0000 O   0  0  0  0  0  0  0  0  0  0  0  0
    1.9345   -8.0194    0.0000 C   0  0  2  0  0  0  0  0  0  0  0  0
    1.2205   -8.4328    0.0000 C   0  0  2  0  0  0  0  0  0  0  0  0
    4.0829   -9.2603    0.0000 C   0  0  0  0  0  0  0  0  0  0  0  0
    1.9375  -10.4944    0.0000 O   0  0  0  0  0  0  0  0  0  0  0  0
    3.3655   -9.6676    0.0000 O   0  0  0  0  0  0  0  0  0  0  0  0
    4.7944   -9.6781    0.0000 C   0  0  1  0  0  0  0  0  0  0  0  0
    5.5118   -9.2708    0.0000 O   0  0  0  0  0  0  0  0  0  0  0  0
    4.7883  -10.5030    0.0000 C   0  0  2  0  0  0  0  0  0  0  0  0
    5.4998  -10.9207    0.0000 C   0  0  1  0  0  0  0  0  0  0  0  0
    6.2172  -10.5135    0.0000 C   0  0  2  0  0  0  0  0  0  0  0  0
    6.2233   -9.6885    0.0000 C   0  0  2  0  0  0  0  0  0  0  0  0
    6.9407   -9.2812    0.0000 O   0  0  0  0  0  0  0  0  0  0  0  0
    7.6552   -9.6937    0.0000 C   0  0  0  0  0  0  0  0  0  0  0  0
    7.6552  -10.5187    0.0000 C   0  0  0  0  0  0  0  0  0  0  0  0
    8.3697  -10.9313    0.0000 C   0  0  0  0  0  0  0  0  0  0  0  0
    9.0842  -10.5187    0.0000 C   0  0  0  0  0  0  0  0  0  0  0  0
    9.0842   -9.6937    0.0000 C   0  0  0  0  0  0  0  0  0  0  0  0
    8.3697   -9.2812    0.0000 C   0  0  0  0  0  0  0  0  0  0  0  0
    9.7986  -10.9312    0.0000 C   0  0  0  0  0  0  0  0  0  0  0  0
   10.5131  -10.5187    0.0000 C   0  0  0  0  0  0  0  0  0  0  0  0
   10.5131   -9.6937    0.0000 C   0  0  2  0  0  0  0  0  0  0  0  0
    9.7986   -9.2813    0.0000 O   0  0  0  0  0  0  0  0  0  0  0  0
    8.3697  -11.7562    0.0000 O   0  0  0  0  0  0  0  0  0  0  0  0
    9.7986  -11.7562    0.0000 O   0  0  0  0  0  0  0  0  0  0  0  0
   11.9420   -9.6937    0.0000 C   0  0  0  0  0  0  0  0  0  0  0  0
   11.2276   -9.2813    0.0000 C   0  0  0  0  0  0  0  0  0  0  0  0
   12.6565   -9.2813    0.0000 C   0  0  0  0  0  0  0  0  0  0  0  0
   12.6565   -8.4563    0.0000 C   0  0  0  0  0  0  0  0  0  0  0  0
   11.9420   -8.0437    0.0000 C   0  0  0  0  0  0  0  0  0  0  0  0
   11.2276   -8.4563    0.0000 C   0  0  0  0  0  0  0  0  0  0  0  0
   11.9420   -7.2188    0.0000 O   0  0  0  0  0  0  0  0  0  0  0  0
   13.3710   -8.0437    0.0000 O   0  0  0  0  0  0  0  0  0  0  0  0
   14.0855   -8.4563    0.0000 C   0  0  0  0  0  0  0  0  0  0  0  0
    0.5055   -8.0211    0.0000 O   0  0  0  0  0  0  0  0  0  0  0  0
    5.4937  -11.7457    0.0000 O   0  0  0  0  0  0  0  0  0  0  0  0
    0.5076   -9.6711    0.0000 C   0  0  0  0  0  0  0  0  0  0  0  0
    1.9335   -7.1944    0.0000 C   0  0  0  0  0  0  0  0  0  0  0  0
    4.0709  -10.9103    0.0000 O   0  0  0  0  0  0  0  0  0  0  0  0
    6.9287  -10.9312    0.0000 O   0  0  0  0  0  0  0  0  0  0  0  0
  1  2  1  0  0  0  0
  7  9  1  0  0  0  0
  2  3  1  0  0  0  0
  3  4  1  0  0  0  0
  4  5  1  0  0  0  0
  5  6  1  0  0  0  0
  6  1  1  0  0  0  0
  2  8  1  6  0  0  0
  3  9  1  1  0  0  0
 10  7  1  1  0  0  0
 10 11  1  0  0  0  0
 10 12  1  0  0  0  0
 12 13  1  0  0  0  0
 13 14  1  0  0  0  0
 14 15  1  0  0  0  0
 15 11  1  0  0  0  0
 15 16  1  1  0  0  0
 16 17  1  0  0  0  0
 17 18  1  0  0  0  0
 18 19  2  0  0  0  0
 19 20  1  0  0  0  0
 20 21  2  0  0  0  0
 21 22  1  0  0  0  0
 22 17  2  0  0  0  0
 20 23  1  0  0  0  0
 23 24  1  0  0  0  0
 24 25  1  0  0  0  0
 25 26  1  0  0  0  0
 26 21  1  0  0  0  0
 19 27  1  0  0  0  0
 28 23  2  0  0  0  0
 29 30  2  0  0  0  0
 25 30  1  6  0  0  0
 29 31  1  0  0  0  0
 31 32  2  0  0  0  0
 32 33  1  0  0  0  0
 33 34  2  0  0  0  0
 34 30  1  0  0  0  0
 33 35  1  0  0  0  0
 32 36  1  0  0  0  0
 36 37  1  0  0  0  0
  6 38  1  1  0  0  0
 13 39  1  1  0  0  0
  1 40  1  6  0  0  0
  5 41  1  6  0  0  0
 12 42  1  6  0  0  0
 14 43  1  6  0  0  0
M  END
>  <cdx:fragmentId>
5

$$$$
