92315.cdx
  Mrv1902 05222410252D          

 35 39  0  0  0  0            999 V2000
    5.7765   -7.5391    0.0000 C   0  0  0  0  0  0  0  0  0  0  0  0
    6.1896   -8.2532    0.0000 C   0  0  0  0  0  0  0  0  0  0  0  0
    6.9867   -8.4661    0.0000 C   0  0  2  0  0  0  0  0  0  0  0  0
    7.7008   -8.0529    0.0000 C   0  0  0  0  0  0  0  0  0  0  0  0
    7.9136   -7.2559    0.0000 C   0  0  0  0  0  0  0  0  0  0  0  0
    7.5005   -6.5418    0.0000 C   0  0  2  0  0  0  0  0  0  0  0  0
    6.7034   -6.3289    0.0000 C   0  0  2  0  0  0  0  0  0  0  0  0
    5.9893   -6.7421    0.0000 C   0  0  1  0  0  0  0  0  0  0  0  0
    5.3343   -6.2404    0.0000 O   0  0  0  0  0  0  0  0  0  0  0  0
    5.3343   -5.4154    0.0000 C   0  0  0  0  0  0  0  0  0  0  0  0
    4.6198   -5.0029    0.0000 C   0  0  0  0  0  0  0  0  0  0  0  0
    6.0488   -5.0029    0.0000 O   0  0  0  0  0  0  0  0  0  0  0  0
    3.9054   -5.4154    0.0000 C   0  0  0  0  0  0  0  0  0  0  0  0
    4.6198   -4.1779    0.0000 C   0  0  0  0  0  0  0  0  0  0  0  0
    5.3343   -3.7654    0.0000 C   0  0  0  0  0  0  0  0  0  0  0  0
    4.9515   -7.5391    0.0000 C   0  0  0  0  0  0  0  0  0  0  0  0
    4.5396   -8.2532    0.0000 C   0  0  0  0  0  0  0  0  0  0  0  0
    4.9515   -8.9674    0.0000 C   0  0  0  0  0  0  0  0  0  0  0  0
    5.7765   -8.9674    0.0000 C   0  0  0  0  0  0  0  0  0  0  0  0
    3.7332   -8.4243    0.0000 O   0  0  0  0  0  0  0  0  0  0  0  0
    3.6466   -9.2441    0.0000 C   0  0  0  0  0  0  0  0  0  0  0  0
    4.3996   -9.5797    0.0000 O   0  0  0  0  0  0  0  0  0  0  0  0
    6.5742   -9.1805    0.0000 C   0  0  0  0  0  0  0  0  0  0  0  0
    5.8597   -9.5930    0.0000 O   0  0  0  0  0  0  0  0  0  0  0  0
    7.1575   -9.7639    0.0000 C   0  0  0  0  0  0  0  0  0  0  0  0
    7.9544   -9.5504    0.0000 C   0  0  0  0  0  0  0  0  0  0  0  0
    8.2841   -8.6363    0.0000 C   0  0  0  0  0  0  0  0  0  0  0  0
    8.5127  -10.1578    0.0000 O   0  0  0  0  0  0  0  0  0  0  0  0
    9.3377  -10.1578    0.0000 C   0  0  0  0  0  0  0  0  0  0  0  0
    6.9440  -10.5608    0.0000 O   0  0  0  0  0  0  0  0  0  0  0  0
    7.5274  -11.1442    0.0000 C   0  0  0  0  0  0  0  0  0  0  0  0
    6.9867   -9.2911    0.0000 C   0  0  0  0  0  0  0  0  0  0  0  0
    6.2722   -9.7036    0.0000 O   0  0  0  0  0  0  0  0  0  0  0  0
    6.5950   -5.5111    0.0000 C   0  0  0  0  0  0  0  0  0  0  0  0
    8.0021   -5.8868    0.0000 C   0  0  0  0  0  0  0  0  0  0  0  0
  1  2  1  0  0  0  0
  2  3  1  0  0  0  0
  3  4  1  0  0  0  0
  4  5  1  0  0  0  0
  5  6  1  0  0  0  0
  6  7  1  0  0  0  0
  7  8  1  0  0  0  0
  8  1  1  0  0  0  0
  8  9  1  6  0  0  0
  9 10  1  0  0  0  0
 10 11  1  0  0  0  0
 10 12  2  0  0  0  0
 11 13  1  0  0  0  0
 11 14  2  0  0  0  0
 14 15  1  0  0  0  0
  1 16  2  0  0  0  0
 16 17  1  0  0  0  0
 17 18  2  0  0  0  0
 18 19  1  0  0  0  0
 19  2  2  0  0  0  0
 17 20  1  0  0  0  0
 20 21  1  0  0  0  0
 21 22  1  0  0  0  0
 22 18  1  0  0  0  0
  3 23  1  6  0  0  0
 23 24  2  0  0  0  0
 23 25  1  0  0  0  0
 25 26  2  0  0  0  0
  4 27  2  0  0  0  0
 27 26  1  0  0  0  0
 26 28  1  0  0  0  0
 28 29  1  0  0  0  0
 25 30  1  0  0  0  0
 30 31  1  0  0  0  0
  3 32  1  0  0  0  0
 32 33  1  0  0  0  0
 19 33  1  0  0  0  0
  7 34  1  6  0  0  0
  6 35  1  6  0  0  0
M  END
>  <cdx:fragmentId>
5

$$$$
