9231.cdx
  Mrv1902 05222410182D          

 10 11  0  0  0  0            999 V2000
    5.1941   -3.8907    0.0000 C   0  0  0  0  0  0  0  0  0  0  0  0
    5.6790   -4.5581    0.0000 C   0  0  0  0  0  0  0  0  0  0  0  0
    5.1941   -5.2256    0.0000 C   0  0  0  0  0  0  0  0  0  0  0  0
    4.4095   -4.9706    0.0000 C   0  0  0  0  0  0  0  0  0  0  0  0
    3.7645   -5.4850    0.0000 C   0  0  0  0  0  0  0  0  0  0  0  0
    2.9602   -5.3014    0.0000 C   0  0  0  0  0  0  0  0  0  0  0  0
    2.6022   -4.5581    0.0000 C   0  0  0  0  0  0  0  0  0  0  0  0
    2.9602   -3.8148    0.0000 C   0  0  0  0  0  0  0  0  0  0  0  0
    3.7645   -3.6312    0.0000 C   0  0  0  0  0  0  0  0  0  0  0  0
    4.4095   -4.1456    0.0000 C   0  0  0  0  0  0  0  0  0  0  0  0
  1  2  1  0  0  0  0
  2  3  2  0  0  0  0
  3  4  1  0  0  0  0
  4  5  2  0  0  0  0
  5  6  1  0  0  0  0
  6  7  2  0  0  0  0
  7  8  1  0  0  0  0
  8  9  2  0  0  0  0
  9 10  1  0  0  0  0
  1 10  2  0  0  0  0
  4 10  1  0  0  0  0
M  END
>  <cdx:groupId>
33

>  <cdx:fragmentId>
5

$$$$
