92312.cdx
  Mrv1902 05222410242D          

 33 36  0  0  0  0            999 V2000
    1.6343   -6.8062    0.0000 O   0  0  0  0  0  0  0  0  0  0  0  0
    2.3488   -8.0437    0.0000 O   0  0  0  0  0  0  0  0  0  0  0  0
    3.0632   -7.6313    0.0000 C   0  0  2  0  0  0  0  0  0  0  0  0
    3.0632   -6.8062    0.0000 C   0  0  1  0  0  0  0  0  0  0  0  0
    2.3488   -6.3937    0.0000 C   0  0  0  0  0  0  0  0  0  0  0  0
    3.7777   -8.0437    0.0000 C   0  0  1  0  0  0  0  0  0  0  0  0
    4.4922   -7.6313    0.0000 C   0  0  2  0  0  0  0  0  0  0  0  0
    4.4922   -6.8062    0.0000 C   0  0  1  0  0  0  0  0  0  0  0  0
    3.7777   -6.3937    0.0000 O   0  0  0  0  0  0  0  0  0  0  0  0
    5.2067   -8.0437    0.0000 O   0  0  0  0  0  0  0  0  0  0  0  0
    5.9211   -7.6313    0.0000 C   0  0  0  0  0  0  0  0  0  0  0  0
    5.9211   -6.8062    0.0000 C   0  0  0  0  0  0  0  0  0  0  0  0
    5.2067   -6.3937    0.0000 O   0  0  0  0  0  0  0  0  0  0  0  0
    6.6356   -8.0437    0.0000 C   0  0  0  0  0  0  0  0  0  0  0  0
    7.3501   -7.6313    0.0000 C   0  0  0  0  0  0  0  0  0  0  0  0
    7.3501   -6.8062    0.0000 C   0  0  0  0  0  0  0  0  0  0  0  0
    6.6356   -6.3937    0.0000 C   0  0  0  0  0  0  0  0  0  0  0  0
    8.0645   -8.0437    0.0000 C   0  0  0  0  0  0  0  0  0  0  0  0
    8.7790   -7.6313    0.0000 C   0  0  0  0  0  0  0  0  0  0  0  0
    8.7790   -6.8062    0.0000 C   0  0  2  0  0  0  0  0  0  0  0  0
    8.0645   -6.3937    0.0000 O   0  0  0  0  0  0  0  0  0  0  0  0
    9.4935   -6.3937    0.0000 C   0  0  0  0  0  0  0  0  0  0  0  0
   10.2080   -6.8062    0.0000 C   0  0  0  0  0  0  0  0  0  0  0  0
   10.9224   -6.3937    0.0000 C   0  0  0  0  0  0  0  0  0  0  0  0
   10.9224   -5.5687    0.0000 C   0  0  0  0  0  0  0  0  0  0  0  0
   10.2080   -5.1563    0.0000 C   0  0  0  0  0  0  0  0  0  0  0  0
    9.4935   -5.5687    0.0000 C   0  0  0  0  0  0  0  0  0  0  0  0
   11.6369   -6.8062    0.0000 O   0  0  0  0  0  0  0  0  0  0  0  0
   12.3514   -5.5687    0.0000 C   0  0  0  0  0  0  0  0  0  0  0  0
   11.6369   -5.1563    0.0000 O   0  0  0  0  0  0  0  0  0  0  0  0
    6.6356   -8.8688    0.0000 O   0  0  0  0  0  0  0  0  0  0  0  0
    8.0645   -8.8688    0.0000 O   0  0  0  0  0  0  0  0  0  0  0  0
    3.7777   -8.8688    0.0000 O   0  0  0  0  0  0  0  0  0  0  0  0
  3  2  1  6  0  0  0
  3  4  1  0  0  0  0
  4  5  1  1  0  0  0
  5  1  1  0  0  0  0
  3  6  1  0  0  0  0
  6  7  1  0  0  0  0
  7  8  1  0  0  0  0
  8  9  1  0  0  0  0
  9  4  1  0  0  0  0
  7 10  1  6  0  0  0
 11 12  2  0  0  0  0
 12 13  1  0  0  0  0
  8 13  1  1  0  0  0
 11 14  1  0  0  0  0
 14 15  2  0  0  0  0
 15 16  1  0  0  0  0
 16 17  2  0  0  0  0
 17 12  1  0  0  0  0
 15 18  1  0  0  0  0
 18 19  1  0  0  0  0
 19 20  1  0  0  0  0
 20 21  1  0  0  0  0
 21 16  1  0  0  0  0
 20 22  1  6  0  0  0
 22 23  2  0  0  0  0
 23 24  1  0  0  0  0
 24 25  2  0  0  0  0
 25 26  1  0  0  0  0
 26 27  2  0  0  0  0
 27 22  1  0  0  0  0
 24 28  1  0  0  0  0
 29 30  1  0  0  0  0
 30 25  1  0  0  0  0
 14 31  1  0  0  0  0
 18 32  2  0  0  0  0
  6 33  1  1  0  0  0
M  END
>  <cdx:fragmentId>
5

$$$$
