92316.cdx
  Mrv1902 05222410252D          

 28 34  0  0  0  0            999 V2000
    4.9253   -8.9335    0.0000 C   0  0  1  0  0  0  0  0  0  0  0  0
    4.9229   -8.1085    0.0000 C   0  0  1  0  0  0  0  0  0  0  0  0
    4.2121   -9.3480    0.0000 C   0  0  2  0  0  0  0  0  0  0  0  0
    3.4964   -8.9376    0.0000 C   0  0  0  0  0  0  0  0  0  0  0  0
    3.4940   -8.1126    0.0000 C   0  0  1  0  0  0  0  0  0  0  0  0
    4.2072   -7.6980    0.0000 C   0  0  0  0  0  0  0  0  0  0  0  0
    4.2145  -10.1730    0.0000 C   0  0  0  0  0  0  0  0  0  0  0  0
    4.3725   -8.2775    0.0000 N   0  0  0  0  0  0  0  0  0  0  0  0
    3.5475   -9.8725    0.0000 C   0  0  0  0  0  0  0  0  0  0  0  0
    4.9187   -9.7584    0.0000 H   0  0  0  0  0  0  0  0  0  0  0  0
    2.7783   -7.7022    0.0000 O   0  0  0  0  0  0  0  0  0  0  0  0
    5.6410   -9.3439    0.0000 C   0  0  1  0  0  0  0  0  0  0  0  0
    6.3543   -8.9335    0.0000 C   0  0  0  0  0  0  0  0  0  0  0  0
    6.3543   -8.1085    0.0000 C   0  0  1  0  0  0  0  0  0  0  0  0
    5.6410   -7.6980    0.0000 C   0  0  1  0  0  0  0  0  0  0  0  0
    7.0663   -7.6980    0.0000 C   0  0  0  0  0  0  0  0  0  0  0  0
    7.0663   -6.8751    0.0000 C   0  0  0  0  0  0  0  0  0  0  0  0
    6.3543   -6.4647    0.0000 C   0  0  2  0  0  0  0  0  0  0  0  0
    5.6410   -6.8751    0.0000 C   0  0  1  0  0  0  0  0  0  0  0  0
    5.9400   -7.2600    0.0000 C   0  0  0  0  0  0  0  0  0  0  0  0
    5.6416  -10.1689    0.0000 H   0  0  0  0  0  0  0  0  0  0  0  0
    5.6410   -8.5210    0.0000 H   0  0  0  0  0  0  0  0  0  0  0  0
    6.7668   -5.7502    0.0000 H   0  0  0  0  0  0  0  0  0  0  0  0
    7.7806   -6.4624    0.0000 C   0  0  0  0  0  0  0  0  0  0  0  0
    4.9205   -7.2835    0.0000 C   0  0  0  0  0  0  0  0  0  0  0  0
    6.0775   -5.7750    0.0000 C   0  0  1  0  0  0  0  0  0  0  0  0
    5.5298   -5.0355    0.0000 O   0  0  0  0  0  0  0  0  0  0  0  0
    4.9268   -6.4621    0.0000 O   0  0  0  0  0  0  0  0  0  0  0  0
  1  2  1  0  0  0  0
  1  3  1  0  0  0  0
  3  4  1  0  0  0  0
  4  5  1  0  0  0  0
  5  6  1  0  0  0  0
  6  2  1  0  0  0  0
  3  7  1  1  0  0  0
  8  9  1  0  0  0  0
  3  9  1  0  0  0  0
  1 10  1  1  0  0  0
  5 11  1  6  0  0  0
  1 12  1  0  0  0  0
 12 13  1  0  0  0  0
 13 14  1  0  0  0  0
 14 15  1  0  0  0  0
 15  2  1  0  0  0  0
 14 16  1  0  0  0  0
 16 17  1  0  0  0  0
 17 18  1  0  0  0  0
 18 19  1  0  0  0  0
 19 15  1  0  0  0  0
 14 20  1  6  0  0  0
 12 21  1  6  0  0  0
 15 22  1  1  0  0  0
 18 23  1  1  0  0  0
 17 24  2  0  0  0  0
  8 12  1  0  0  0  0
  2 25  1  6  0  0  0
 25 20  1  0  0  0  0
 25  8  1  0  0  0  0
 18 26  1  0  0  0  0
 26 20  1  0  0  0  0
 26 27  1  1  0  0  0
 19 28  1  6  0  0  0
M  END
>  <cdx:fragmentId>
491

$$$$
