92313.cdx
  Mrv1902 05222410242D          

 17 18  0  0  0  0            999 V2000
    7.2860   -4.8340    0.0000 C   0  0  1  0  0  0  0  0  0  0  0  0
    8.0005   -4.4215    0.0000 C   0  0  0  0  0  0  0  0  0  0  0  0
    8.0005   -3.5965    0.0000 C   0  0  0  0  0  0  0  0  0  0  0  0
    7.2860   -3.1840    0.0000 C   0  0  0  0  0  0  0  0  0  0  0  0
    6.5715   -3.5965    0.0000 C   0  0  1  0  0  0  0  0  0  0  0  0
    5.8571   -3.1840    0.0000 C   0  0  0  0  0  0  0  0  0  0  0  0
    5.1426   -3.5965    0.0000 C   0  0  0  0  0  0  0  0  0  0  0  0
    5.1426   -4.4215    0.0000 C   0  0  0  0  0  0  0  0  0  0  0  0
    5.8571   -4.8340    0.0000 C   0  0  0  0  0  0  0  0  0  0  0  0
    6.5715   -4.4215    0.0000 C   0  0  2  0  0  0  0  0  0  0  0  0
    6.5715   -6.0715    0.0000 C   0  0  0  0  0  0  0  0  0  0  0  0
    7.2860   -5.6590    0.0000 C   0  0  0  0  0  0  0  0  0  0  0  0
    8.0005   -6.0715    0.0000 C   0  0  0  0  0  0  0  0  0  0  0  0
    7.2860   -2.3590    0.0000 C   0  0  0  0  0  0  0  0  0  0  0  0
    4.4281   -4.8340    0.0000 C   0  0  0  0  0  0  0  0  0  0  0  0
    6.5715   -2.7715    0.0000 H   0  0  0  0  0  0  0  0  0  0  0  0
    6.5715   -5.2465    0.0000 H   0  0  0  0  0  0  0  0  0  0  0  0
  1  2  1  0  0  0  0
  2  3  1  0  0  0  0
  3  4  1  0  0  0  0
  4  5  1  0  0  0  0
  5  6  1  0  0  0  0
  6  7  1  0  0  0  0
  7  8  1  0  0  0  0
  8  9  2  0  0  0  0
  9 10  1  0  0  0  0
  1 10  1  0  0  0  0
  5 10  1  0  0  0  0
 11 12  1  0  0  0  0
 12 13  1  0  0  0  0
  1 12  1  6  0  0  0
  4 14  2  0  0  0  0
  8 15  1  0  0  0  0
  5 16  1  1  0  0  0
 10 17  1  6  0  0  0
M  END
>  <cdx:fragmentId>
5

$$$$
