92317.cdx
  Mrv1902 05222410242D          

 43 48  0  0  0  0            999 V2000
    2.8443   -4.5925    0.0000 C   0  0  0  0  0  0  0  0  0  0  0  0
    3.5588   -5.0050    0.0000 O   0  0  0  0  0  0  0  0  0  0  0  0
    4.2732   -4.5925    0.0000 C   0  0  0  0  0  0  0  0  0  0  0  0
    4.2732   -3.7675    0.0000 C   0  0  0  0  0  0  0  0  0  0  0  0
    4.9877   -5.0050    0.0000 C   0  0  0  0  0  0  0  0  0  0  0  0
    5.7022   -4.5925    0.0000 C   0  0  0  0  0  0  0  0  0  0  0  0
    5.7022   -3.7675    0.0000 C   0  0  0  0  0  0  0  0  0  0  0  0
    4.9877   -3.3550    0.0000 C   0  0  0  0  0  0  0  0  0  0  0  0
    6.4167   -5.0050    0.0000 O   0  0  0  0  0  0  0  0  0  0  0  0
    7.1311   -4.5925    0.0000 C   0  0  0  0  0  0  0  0  0  0  0  0
    7.1311   -3.7675    0.0000 C   0  0  0  0  0  0  0  0  0  0  0  0
    6.4167   -3.3550    0.0000 C   0  0  0  0  0  0  0  0  0  0  0  0
    6.4167   -2.5300    0.0000 O   0  0  0  0  0  0  0  0  0  0  0  0
    4.9877   -2.5300    0.0000 O   0  0  0  0  0  0  0  0  0  0  0  0
    3.5588   -5.8300    0.0000 O   0  0  0  0  0  0  0  0  0  0  0  0
    4.2732   -6.2425    0.0000 C   0  0  0  0  0  0  0  0  0  0  0  0
    4.9877   -5.8300    0.0000 C   0  0  0  0  0  0  0  0  0  0  0  0
    4.2732   -7.0675    0.0000 C   0  0  0  0  0  0  0  0  0  0  0  0
    4.9877   -7.4800    0.0000 C   0  0  0  0  0  0  0  0  0  0  0  0
    5.7022   -7.0675    0.0000 C   0  0  0  0  0  0  0  0  0  0  0  0
    5.7022   -6.2425    0.0000 C   0  0  0  0  0  0  0  0  0  0  0  0
    6.4167   -7.4800    0.0000 C   0  0  0  0  0  0  0  0  0  0  0  0
    7.1311   -7.0675    0.0000 C   0  0  0  0  0  0  0  0  0  0  0  0
    6.4167   -8.3050    0.0000 O   0  0  0  0  0  0  0  0  0  0  0  0
    7.1311   -8.7175    0.0000 C   0  0  0  0  0  0  0  0  0  0  0  0
    7.8456   -8.3050    0.0000 C   0  0  0  0  0  0  0  0  0  0  0  0
    7.8456   -7.4800    0.0000 C   0  0  0  0  0  0  0  0  0  0  0  0
    7.1311   -9.5425    0.0000 C   0  0  0  0  0  0  0  0  0  0  0  0
    7.8456   -9.9550    0.0000 C   0  0  0  0  0  0  0  0  0  0  0  0
    8.5601   -9.5425    0.0000 C   0  0  0  0  0  0  0  0  0  0  0  0
    8.5601   -8.7175    0.0000 C   0  0  0  0  0  0  0  0  0  0  0  0
    9.2745   -8.3050    0.0000 O   0  0  0  0  0  0  0  0  0  0  0  0
    8.5601   -7.0675    0.0000 O   0  0  0  0  0  0  0  0  0  0  0  0
    7.8456  -10.7800    0.0000 O   0  0  0  0  0  0  0  0  0  0  0  0
    8.5601  -11.1925    0.0000 C   0  0  0  0  0  0  0  0  0  0  0  0
    7.8456   -5.0050    0.0000 C   0  0  0  0  0  0  0  0  0  0  0  0
    8.5601   -4.5925    0.0000 C   0  0  0  0  0  0  0  0  0  0  0  0
    7.8456   -5.8300    0.0000 C   0  0  0  0  0  0  0  0  0  0  0  0
    8.5601   -6.2425    0.0000 C   0  0  0  0  0  0  0  0  0  0  0  0
    9.2745   -5.8300    0.0000 C   0  0  0  0  0  0  0  0  0  0  0  0
    9.2745   -5.0050    0.0000 C   0  0  0  0  0  0  0  0  0  0  0  0
    9.9890   -6.2425    0.0000 O   0  0  0  0  0  0  0  0  0  0  0  0
   10.7035   -5.8300    0.0000 C   0  0  0  0  0  0  0  0  0  0  0  0
  1  2  1  0  0  0  0
  2  3  1  0  0  0  0
  3  4  1  0  0  0  0
  3  5  2  0  0  0  0
  5  6  1  0  0  0  0
  6  7  2  0  0  0  0
  7  8  1  0  0  0  0
  8  4  2  0  0  0  0
  6  9  1  0  0  0  0
  9 10  1  0  0  0  0
 10 11  2  0  0  0  0
 11 12  1  0  0  0  0
 12  7  1  0  0  0  0
 12 13  2  0  0  0  0
 14  8  1  0  0  0  0
 15 16  1  0  0  0  0
 16 17  2  0  0  0  0
 17  5  1  0  0  0  0
 16 18  1  0  0  0  0
 18 19  2  0  0  0  0
 19 20  1  0  0  0  0
 20 21  2  0  0  0  0
 21 17  1  0  0  0  0
 20 22  1  0  0  0  0
 22 23  2  0  0  0  0
 22 24  1  0  0  0  0
 24 25  1  0  0  0  0
 25 26  1  0  0  0  0
 26 27  1  0  0  0  0
 27 23  1  0  0  0  0
 25 28  2  0  0  0  0
 28 29  1  0  0  0  0
 29 30  2  0  0  0  0
 30 31  1  0  0  0  0
 31 26  2  0  0  0  0
 31 32  1  0  0  0  0
 33 27  2  0  0  0  0
 29 34  1  0  0  0  0
 34 35  1  0  0  0  0
 10 36  1  0  0  0  0
 36 37  2  0  0  0  0
 36 38  1  0  0  0  0
 38 39  2  0  0  0  0
 39 40  1  0  0  0  0
 40 41  2  0  0  0  0
 41 37  1  0  0  0  0
 40 42  1  0  0  0  0
 42 43  1  0  0  0  0
M  END
>  <cdx:fragmentId>
5

$$$$
