92310.cdx
  Mrv1902 05222410232D          

 23 25  0  0  0  0            999 V2000
    5.1543   -9.3775    0.0000 C   0  0  0  0  0  0  0  0  0  0  0  0
    5.1543  -10.2025    0.0000 C   0  0  0  0  0  0  0  0  0  0  0  0
    5.8688  -10.6150    0.0000 C   0  0  0  0  0  0  0  0  0  0  0  0
    6.5832  -10.2025    0.0000 C   0  0  0  0  0  0  0  0  0  0  0  0
    6.5832   -9.3775    0.0000 C   0  0  0  0  0  0  0  0  0  0  0  0
    5.8688   -8.9650    0.0000 O   0  0  0  0  0  0  0  0  0  0  0  0
    7.2977  -10.6150    0.0000 C   0  0  0  0  0  0  0  0  0  0  0  0
    8.0122  -10.2025    0.0000 C   0  0  0  0  0  0  0  0  0  0  0  0
    8.0122   -9.3775    0.0000 C   0  0  0  0  0  0  0  0  0  0  0  0
    7.2977   -8.9650    0.0000 C   0  0  0  0  0  0  0  0  0  0  0  0
    8.7968  -10.4574    0.0000 C   0  0  0  0  0  0  0  0  0  0  0  0
    9.2817   -9.7900    0.0000 C   0  0  0  0  0  0  0  0  0  0  0  0
    8.7968   -9.1226    0.0000 O   0  0  0  0  0  0  0  0  0  0  0  0
    4.4398   -8.9650    0.0000 O   0  0  0  0  0  0  0  0  0  0  0  0
    7.2977  -11.4400    0.0000 O   0  0  0  0  0  0  0  0  0  0  0  0
    8.0122  -11.8525    0.0000 C   0  0  0  0  0  0  0  0  0  0  0  0
    7.2977   -8.1400    0.0000 O   0  0  0  0  0  0  0  0  0  0  0  0
    8.0122   -7.7275    0.0000 C   0  0  0  0  0  0  0  0  0  0  0  0
    8.0122   -6.9025    0.0000 C   0  0  0  0  0  0  0  0  0  0  0  0
    8.7267   -6.4900    0.0000 C   0  0  0  0  0  0  0  0  0  0  0  0
    7.2977   -6.4900    0.0000 O   0  0  0  0  0  0  0  0  0  0  0  0
    9.4411   -6.9025    0.0000 C   0  0  0  0  0  0  0  0  0  0  0  0
    8.7267   -5.6650    0.0000 C   0  0  0  0  0  0  0  0  0  0  0  0
  1  2  1  0  0  0  0
  2  3  2  0  0  0  0
  3  4  1  0  0  0  0
  4  5  2  0  0  0  0
  5  6  1  0  0  0  0
  6  1  1  0  0  0  0
  4  7  1  0  0  0  0
  7  8  2  0  0  0  0
  8  9  1  0  0  0  0
  9 10  2  0  0  0  0
 10  5  1  0  0  0  0
  8 11  1  0  0  0  0
 11 12  2  0  0  0  0
 12 13  1  0  0  0  0
 13  9  1  0  0  0  0
  1 14  2  0  0  0  0
  7 15  1  0  0  0  0
 15 16  1  0  0  0  0
 10 17  1  0  0  0  0
 17 18  1  0  0  0  0
 18 19  1  0  0  0  0
 19 20  1  0  0  0  0
 19 21  1  0  0  0  0
 20 22  1  0  0  0  0
 20 23  1  0  0  0  0
M  END
>  <cdx:fragmentId>
5

$$$$
