92327.cdx
  Mrv1902 05222410212D          

  8  7  0  0  0  0            999 V2000
    8.8906   -6.7512    0.0000 C   0  0  0  0  0  0  0  0  0  0  0  0
    8.1761   -7.1638    0.0000 C   0  0  0  0  0  0  0  0  0  0  0  0
    7.4617   -6.7512    0.0000 C   0  0  0  0  0  0  0  0  0  0  0  0
    6.7472   -7.1638    0.0000 C   0  0  0  0  0  0  0  0  0  0  0  0
    6.0327   -6.7512    0.0000 C   0  0  0  0  0  0  0  0  0  0  0  0
    5.3182   -7.1638    0.0000 C   0  0  0  0  0  0  0  0  0  0  0  0
    4.6038   -6.7512    0.0000 O   0  0  0  0  0  0  0  0  0  0  0  0
    5.3182   -7.9888    0.0000 O   0  0  0  0  0  0  0  0  0  0  0  0
  2  1  1  0  0  0  0
  3  2  1  0  0  0  0
  4  3  2  0  0  0  0
  5  4  1  0  0  0  0
  6  5  1  0  0  0  0
  7  6  1  0  0  0  0
  6  8  2  0  0  0  0
M  END
>  <cdx:fragmentId>
3

$$$$
