92329.cdx
  Mrv1902 05222410252D          

 18 19  0  0  0  0            999 V2000
    4.4476   -6.1889    0.0000 C   0  0  0  0  0  0  0  0  0  0  0  0
    4.0842   -6.9295    0.0000 C   0  0  0  0  0  0  0  0  0  0  0  0
    4.4368   -7.6754    0.0000 C   0  0  0  0  0  0  0  0  0  0  0  0
    5.2397   -7.8648    0.0000 C   0  0  0  0  0  0  0  0  0  0  0  0
    5.8885   -7.3551    0.0000 C   0  0  2  0  0  0  0  0  0  0  0  0
    5.8944   -6.5302    0.0000 C   0  0  2  0  0  0  0  0  0  0  0  0
    5.2532   -6.0111    0.0000 C   0  0  1  0  0  0  0  0  0  0  0  0
    6.5999   -7.7728    0.0000 C   0  0  0  0  0  0  0  0  0  0  0  0
    7.3174   -7.3551    0.0000 C   0  0  0  0  0  0  0  0  0  0  0  0
    7.3174   -6.5302    0.0000 C   0  0  0  0  0  0  0  0  0  0  0  0
    6.5999   -6.1125    0.0000 C   0  0  0  0  0  0  0  0  0  0  0  0
    8.0326   -7.7664    0.0000 C   0  0  0  0  0  0  0  0  0  0  0  0
    5.2397   -8.6898    0.0000 C   0  0  0  0  0  0  0  0  0  0  0  0
    5.9542   -8.2773    0.0000 C   0  0  0  0  0  0  0  0  0  0  0  0
    5.8366   -5.4278    0.0000 C   0  0  0  0  0  0  0  0  0  0  0  0
    5.0397   -5.2142    0.0000 O   0  0  0  0  0  0  0  0  0  0  0  0
    6.1080   -5.7333    0.0000 H   0  0  0  0  0  0  0  0  0  0  0  0
    6.1020   -8.1520    0.0000 H   0  0  0  0  0  0  0  0  0  0  0  0
  1  2  1  0  0  0  0
  2  3  1  0  0  0  0
  3  4  1  0  0  0  0
  4  5  1  0  0  0  0
  5  6  1  0  0  0  0
  6  7  1  0  0  0  0
  7  1  1  0  0  0  0
  5  8  1  0  0  0  0
  8  9  2  0  0  0  0
  9 10  1  0  0  0  0
 10 11  1  0  0  0  0
 11  6  1  0  0  0  0
  9 12  1  0  0  0  0
  4 13  1  0  0  0  0
  4 14  1  0  0  0  0
  7 15  1  0  0  0  0
  7 16  1  1  0  0  0
  6 17  1  1  0  0  0
  5 18  1  1  0  0  0
M  END
>  <cdx:fragmentId>
5

$$$$
