92325.cdx
  Mrv1902 05222410212D          

  6  5  0  0  0  0            999 V2000
    5.0713   -7.5762    0.0000 C   0  0  0  0  0  0  0  0  0  0  0  0
    5.7857   -7.1638    0.0000 C   0  0  0  0  0  0  0  0  0  0  0  0
    6.5002   -7.5762    0.0000 C   0  0  0  0  0  0  0  0  0  0  0  0
    7.2147   -7.1638    0.0000 C   0  0  0  0  0  0  0  0  0  0  0  0
    7.9292   -7.5762    0.0000 C   0  0  0  0  0  0  0  0  0  0  0  0
    8.6436   -7.1638    0.0000 C   0  0  0  0  0  0  0  0  0  0  0  0
  1  2  1  0  0  0  0
  2  3  1  0  0  0  0
  3  4  1  0  0  0  0
  4  5  1  0  0  0  0
  5  6  1  0  0  0  0
M  END
>  <cdx:fragmentId>
3

$$$$
