92321.cdx
  Mrv1902 05222410222D          

 20 19  0  0  0  0            999 V2000
    0.9600   -6.5725    0.0000 C   0  0  0  0  0  0  0  0  0  0  0  0
    1.6745   -6.1600    0.0000 C   0  0  0  0  0  0  0  0  0  0  0  0
    2.3890   -6.5725    0.0000 C   0  0  0  0  0  0  0  0  0  0  0  0
    3.1034   -6.1600    0.0000 C   0  0  0  0  0  0  0  0  0  0  0  0
    3.8179   -6.5725    0.0000 C   0  0  0  0  0  0  0  0  0  0  0  0
    4.5324   -6.1600    0.0000 C   0  0  0  0  0  0  0  0  0  0  0  0
    5.2469   -6.5725    0.0000 C   0  0  0  0  0  0  0  0  0  0  0  0
    5.9613   -6.1600    0.0000 C   0  0  0  0  0  0  0  0  0  0  0  0
    6.6758   -6.5725    0.0000 C   0  0  0  0  0  0  0  0  0  0  0  0
    7.3903   -6.1600    0.0000 C   0  0  0  0  0  0  0  0  0  0  0  0
    8.1047   -6.5725    0.0000 C   0  0  0  0  0  0  0  0  0  0  0  0
    8.8192   -6.1600    0.0000 C   0  0  0  0  0  0  0  0  0  0  0  0
    9.5337   -6.5725    0.0000 C   0  0  0  0  0  0  0  0  0  0  0  0
   10.2481   -6.1600    0.0000 C   0  0  0  0  0  0  0  0  0  0  0  0
   10.9626   -6.5725    0.0000 C   0  0  0  0  0  0  0  0  0  0  0  0
   11.6771   -6.1600    0.0000 C   0  0  0  0  0  0  0  0  0  0  0  0
   12.3916   -6.5725    0.0000 O   0  0  0  0  0  0  0  0  0  0  0  0
   13.1060   -6.1600    0.0000 C   0  0  0  0  0  0  0  0  0  0  0  0
    2.3890   -7.3975    0.0000 C   0  0  0  0  0  0  0  0  0  0  0  0
   11.6771   -5.3350    0.0000 O   0  0  0  0  0  0  0  0  0  0  0  0
  1  2  1  0  0  0  0
  2  3  1  0  0  0  0
  3  4  1  0  0  0  0
  4  5  1  0  0  0  0
  5  6  1  0  0  0  0
  6  7  1  0  0  0  0
  7  8  1  0  0  0  0
  8  9  1  0  0  0  0
  9 10  1  0  0  0  0
 10 11  1  0  0  0  0
 11 12  1  0  0  0  0
 12 13  1  0  0  0  0
 13 14  1  0  0  0  0
 14 15  1  0  0  0  0
 15 16  1  0  0  0  0
 16 17  1  0  0  0  0
 17 18  1  0  0  0  0
  3 19  1  0  0  0  0
 16 20  2  0  0  0  0
M  END
>  <cdx:fragmentId>
3

$$$$
