92338.cdx
  Mrv1902 05222410232D          

 25 29  0  0  0  0            999 V2000
    5.4568   -4.6063    0.0000 C   0  0  0  0  0  0  0  0  0  0  0  0
    5.4568   -5.4313    0.0000 C   0  0  0  0  0  0  0  0  0  0  0  0
    6.1713   -5.8438    0.0000 C   0  0  0  0  0  0  0  0  0  0  0  0
    6.8857   -5.4313    0.0000 C   0  0  0  0  0  0  0  0  0  0  0  0
    6.8857   -4.6063    0.0000 C   0  0  0  0  0  0  0  0  0  0  0  0
    6.1713   -4.1937    0.0000 C   0  0  0  0  0  0  0  0  0  0  0  0
    6.1713   -6.6688    0.0000 C   0  0  2  0  0  0  0  0  0  0  0  0
    6.8857   -7.0812    0.0000 C   0  0  2  0  0  0  0  0  0  0  0  0
    7.6002   -6.6688    0.0000 C   0  0  1  0  0  0  0  0  0  0  0  0
    7.6002   -5.8438    0.0000 C   0  0  0  0  0  0  0  0  0  0  0  0
    5.4568   -7.0812    0.0000 C   0  0  2  0  0  0  0  0  0  0  0  0
    5.4568   -7.9062    0.0000 C   0  0  0  0  0  0  0  0  0  0  0  0
    6.1713   -8.3187    0.0000 C   0  0  0  0  0  0  0  0  0  0  0  0
    6.8857   -7.9062    0.0000 C   0  0  0  0  0  0  0  0  0  0  0  0
    4.7423   -3.3687    0.0000 C   0  0  0  0  0  0  0  0  0  0  0  0
    4.7423   -4.1937    0.0000 O   0  0  0  0  0  0  0  0  0  0  0  0
    4.7423   -8.3187    0.0000 O   0  0  0  0  0  0  0  0  0  0  0  0
    4.7698   -6.2425    0.0000 O   0  0  0  0  0  0  0  0  0  0  0  0
    4.6799   -7.3588    0.0000 H   0  0  0  0  0  0  0  0  0  0  0  0
    6.7271   -6.1816    0.0000 C   0  0  0  0  0  0  0  0  0  0  0  0
    7.2982   -7.7957    0.0000 H   0  0  0  0  0  0  0  0  0  0  0  0
    8.3147   -7.0812    0.0000 N   0  0  0  0  0  0  0  0  0  0  0  0
    7.9912   -6.1606    0.0000 C   0  0  0  0  0  0  0  0  0  0  0  0
    8.8415   -7.7162    0.0000 C   0  0  0  0  0  0  0  0  0  0  0  0
    8.0127   -7.3832    0.0000 H   0  0  0  0  0  0  0  0  0  0  0  0
  1  2  2  0  0  0  0
  2  3  1  0  0  0  0
  3  4  2  0  0  0  0
  4  5  1  0  0  0  0
  5  6  2  0  0  0  0
  6  1  1  0  0  0  0
  3  7  1  0  0  0  0
  7  8  1  0  0  0  0
  8  9  1  0  0  0  0
  9 10  1  0  0  0  0
 10  4  1  0  0  0  0
  7 11  1  0  0  0  0
 11 12  1  0  0  0  0
 12 13  1  0  0  0  0
 13 14  1  0  0  0  0
 14  8  1  0  0  0  0
 15 16  1  0  0  0  0
 16  1  1  0  0  0  0
 12 17  2  0  0  0  0
  2 18  1  0  0  0  0
 18 11  1  0  0  0  0
 11 19  1  1  0  0  0
  7 20  1  1  0  0  0
  8 21  1  1  0  0  0
  9 22  1  0  0  0  0
 22 23  1  0  0  0  0
 20 23  1  0  0  0  0
 22 24  1  0  0  0  0
  9 25  1  6  0  0  0
M  END
>  <cdx:fragmentId>
5

$$$$
