92331.cdx
  Mrv1902 05222410212D          

 36 38  0  0  0  0            999 V2000
    9.8298  -12.8546    0.0000 C   0  0  0  0  0  0  0  0  0  0  0  0
    9.8298  -13.6796    0.0000 C   0  0  0  0  0  0  0  0  0  0  0  0
   10.5443  -14.0921    0.0000 C   0  0  0  0  0  0  0  0  0  0  0  0
   10.5443  -12.4421    0.0000 O   0  0  0  0  0  0  0  0  0  0  0  0
    7.6163  -11.4595    0.0000 C   0  0  2  0  0  0  0  0  0  0  0  0
    7.7878  -12.2665    0.0000 O   0  0  0  0  0  0  0  0  0  0  0  0
    7.0032  -12.0115    0.0000 C   0  0  0  0  0  0  0  0  0  0  0  0
    8.4009  -12.0296    0.0000 H   0  0  0  0  0  0  0  0  0  0  0  0
   10.5443   -7.4921    0.0000 C   0  0  0  0  0  0  0  0  0  0  0  0
    9.1154   -7.4921    0.0000 O   0  0  0  0  0  0  0  0  0  0  0  0
    9.8298   -7.9046    0.0000 C   0  0  0  0  0  0  0  0  0  0  0  0
    9.8298   -8.7296    0.0000 O   0  0  0  0  0  0  0  0  0  0  0  0
    9.1154   -9.1421    0.0000 C   0  0  0  0  0  0  0  0  0  0  0  0
    9.1154  -12.4421    0.0000 O   0  0  0  0  0  0  0  0  0  0  0  0
    7.1313  -10.7921    0.0000 C   0  0  2  0  0  0  0  0  0  0  0  0
    7.6163  -10.1246    0.0000 C   0  0  0  0  0  0  0  0  0  0  0  0
    9.8298  -11.2046    0.0000 O   0  0  0  0  0  0  0  0  0  0  0  0
    9.8298  -10.3796    0.0000 C   0  0  0  0  0  0  0  0  0  0  0  0
    9.1154   -9.9671    0.0000 C   0  0  0  0  0  0  0  0  0  0  0  0
    8.4009  -10.3796    0.0000 C   0  0  0  0  0  0  0  0  0  0  0  0
    8.4009  -11.2046    0.0000 C   0  0  2  0  0  0  0  0  0  0  0  0
    9.1154  -11.6171    0.0000 C   0  0  2  0  0  0  0  0  0  0  0  0
    6.3063  -10.7921    0.0000 O   0  0  0  0  0  0  0  0  0  0  0  0
    5.5958   -9.5523    0.0000 O   0  0  0  0  0  0  0  0  0  0  0  0
    4.1643  -10.3727    0.0000 C   0  0  0  0  0  0  0  0  0  0  0  0
    4.8774  -10.7875    0.0000 C   0  0  0  0  0  0  0  0  0  0  0  0
    5.5932  -10.3773    0.0000 C   0  0  0  0  0  0  0  0  0  0  0  0
   10.5443  -14.9171    0.0000 C   0  0  0  0  0  0  0  0  0  0  0  0
   11.2588  -13.6796    0.0000 C   0  0  0  0  0  0  0  0  0  0  0  0
   11.2588  -15.3296    0.0000 C   0  0  0  0  0  0  0  0  0  0  0  0
    3.4498   -9.9602    0.0000 O   0  0  0  0  0  0  0  0  0  0  0  0
    4.5768   -9.6582    0.0000 C   0  0  0  0  0  0  0  0  0  0  0  0
    3.7518  -11.0872    0.0000 C   0  0  0  0  0  0  0  0  0  0  0  0
    2.7353  -10.3727    0.0000 C   0  0  0  0  0  0  0  0  0  0  0  0
    2.0208   -9.9602    0.0000 C   0  0  0  0  0  0  0  0  0  0  0  0
    2.7353  -11.1977    0.0000 O   0  0  0  0  0  0  0  0  0  0  0  0
 21  8  1  1  0  0  0
 15 23  1  1  0  0  0
 19 13  1  0  0  0  0
 13 12  1  0  0  0  0
 12 11  1  0  0  0  0
 11  9  1  0  0  0  0
 11 10  2  0  0  0  0
 22 14  1  1  0  0  0
 14  1  1  0  0  0  0
 20 16  2  0  0  0  0
 21  5  1  0  0  0  0
 15  5  1  0  0  0  0
 16 15  1  0  0  0  0
 22 17  1  0  0  0  0
 18 17  1  0  0  0  0
 19 18  2  0  0  0  0
 20 19  1  0  0  0  0
 21 20  1  0  0  0  0
 22 21  1  0  0  0  0
 27 23  1  0  0  0  0
 27 24  2  0  0  0  0
 26 25  1  0  0  0  0
 27 26  1  0  0  0  0
  1  2  1  0  0  0  0
  2  3  1  0  0  0  0
  1  4  2  0  0  0  0
  6  7  1  0  0  0  0
  5  6  1  6  0  0  0
  5  7  1  0  0  0  0
  3 28  1  0  0  0  0
  3 29  1  0  0  0  0
 28 30  1  0  0  0  0
 25 31  1  0  0  0  0
 25 32  1  0  0  0  0
 25 33  1  0  0  0  0
 31 34  1  0  0  0  0
 34 35  1  0  0  0  0
 34 36  2  0  0  0  0
M  END
>  <cdx:fragmentId>
11516

$$$$
