92339.cdx
  Mrv1902 05222410232D          

 19 21  0  0  0  0            999 V2000
    3.8068   -4.8812    0.0000 C   0  0  0  0  0  0  0  0  0  0  0  0
    3.8068   -5.7062    0.0000 C   0  0  0  0  0  0  0  0  0  0  0  0
    4.5213   -6.1188    0.0000 C   0  0  0  0  0  0  0  0  0  0  0  0
    5.2357   -5.7062    0.0000 C   0  0  1  0  0  0  0  0  0  0  0  0
    5.2357   -4.8812    0.0000 C   0  0  2  0  0  0  0  0  0  0  0  0
    4.5213   -4.4688    0.0000 C   0  0  0  0  0  0  0  0  0  0  0  0
    5.9502   -6.1188    0.0000 C   0  0  0  0  0  0  0  0  0  0  0  0
    6.6647   -5.7062    0.0000 C   0  0  0  0  0  0  0  0  0  0  0  0
    6.6647   -4.8812    0.0000 C   0  0  2  0  0  0  0  0  0  0  0  0
    5.9502   -4.4688    0.0000 C   0  0  0  0  0  0  0  0  0  0  0  0
    7.4493   -5.9612    0.0000 C   0  0  0  0  0  0  0  0  0  0  0  0
    7.9342   -5.2937    0.0000 C   0  0  0  0  0  0  0  0  0  0  0  0
    7.4493   -4.6263    0.0000 O   0  0  0  0  0  0  0  0  0  0  0  0
    4.5213   -6.9438    0.0000 C   0  0  0  0  0  0  0  0  0  0  0  0
    7.7042   -6.7458    0.0000 C   0  0  0  0  0  0  0  0  0  0  0  0
    8.7592   -5.2937    0.0000 O   0  0  0  0  0  0  0  0  0  0  0  0
    5.2357   -4.0563    0.0000 C   0  0  0  0  0  0  0  0  0  0  0  0
    6.6647   -4.0563    0.0000 O   0  0  0  0  0  0  0  0  0  0  0  0
    5.2357   -6.5313    0.0000 H   0  0  0  0  0  0  0  0  0  0  0  0
  1  2  1  0  0  0  0
  2  3  1  0  0  0  0
  3  4  1  0  0  0  0
  4  5  1  0  0  0  0
  5  6  1  0  0  0  0
  6  1  2  0  0  0  0
  4  7  1  0  0  0  0
  7  8  1  0  0  0  0
  8  9  1  0  0  0  0
  9 10  1  0  0  0  0
 10  5  1  0  0  0  0
  8 11  2  0  0  0  0
 11 12  1  0  0  0  0
 12 13  1  0  0  0  0
 13  9  1  0  0  0  0
  3 14  2  0  0  0  0
 11 15  1  0  0  0  0
 12 16  2  0  0  0  0
  5 17  1  1  0  0  0
  9 18  1  1  0  0  0
  4 19  1  6  0  0  0
M  END
>  <cdx:fragmentId>
5

$$$$
