92335.cdx
  Mrv1902 05222410222D          

 16 16  0  0  0  0            999 V2000
    8.7365   -5.6130    0.0000 O   0  0  0  0  0  0  0  0  0  0  0  0
    6.5946   -5.7072    0.0000 C   0  0  0  0  0  0  0  0  0  0  0  0
    7.4194   -5.7072    0.0000 C   0  0  0  0  0  0  0  0  0  0  0  0
    8.1132   -6.1532    0.0000 C   0  0  0  0  0  0  0  0  0  0  0  0
    6.5946   -4.8822    0.0000 C   0  0  0  0  0  0  0  0  0  0  0  0
    5.8802   -5.2947    0.0000 C   0  0  0  0  0  0  0  0  0  0  0  0
    5.9008   -6.1532    0.0000 C   0  0  0  0  0  0  0  0  0  0  0  0
    8.4558   -6.9034    0.0000 C   0  0  0  0  0  0  0  0  0  0  0  0
    8.3384   -7.7197    0.0000 C   0  0  0  0  0  0  0  0  0  0  0  0
    5.5582   -6.9034    0.0000 C   0  0  0  0  0  0  0  0  0  0  0  0
    7.7984   -8.3430    0.0000 C   0  0  0  0  0  0  0  0  0  0  0  0
    5.6755   -7.7197    0.0000 C   0  0  0  0  0  0  0  0  0  0  0  0
    6.2157   -8.3430    0.0000 C   0  0  0  0  0  0  0  0  0  0  0  0
    7.0070   -8.5754    0.0000 C   0  0  0  0  0  0  0  0  0  0  0  0
    9.2721   -6.7860    0.0000 C   0  0  0  0  0  0  0  0  0  0  0  0
    5.7697   -9.0368    0.0000 C   0  0  0  0  0  0  0  0  0  0  0  0
  4  1  1  0  0  0  0
  2  3  1  0  0  0  0
  2  5  1  0  0  0  0
  2  6  1  0  0  0  0
  2  7  1  0  0  0  0
  3  4  1  0  0  0  0
  4  8  1  0  0  0  0
  7 10  2  0  0  0  0
  8  9  1  0  0  0  0
  8 15  2  0  0  0  0
  9 11  1  0  0  0  0
 10 12  1  0  0  0  0
 11 14  1  0  0  0  0
 12 13  1  0  0  0  0
 13 14  2  0  0  0  0
 13 16  1  0  0  0  0
M  END
>  <cdx:fragmentId>
1

$$$$
