92332.cdx
  Mrv1902 05222410212D          

 14 13  0  0  0  0            999 V2000
    5.5319   -7.3287    0.0000 O   0  0  0  0  0  0  0  0  0  0  0  0
    6.2464   -6.9162    0.0000 C   0  0  0  0  0  0  0  0  0  0  0  0
    6.9608   -7.3287    0.0000 C   0  0  0  0  0  0  0  0  0  0  0  0
    7.6753   -6.9162    0.0000 C   0  0  0  0  0  0  0  0  0  0  0  0
    6.2464   -6.0912    0.0000 O   0  0  0  0  0  0  0  0  0  0  0  0
    8.3898   -6.5038    0.0000 C   0  0  0  0  0  0  0  0  0  0  0  0
    9.1043   -6.9162    0.0000 O   0  0  0  0  0  0  0  0  0  0  0  0
    8.3898   -5.6788    0.0000 O   0  0  0  0  0  0  0  0  0  0  0  0
    7.2628   -6.2018    0.0000 C   0  0  0  0  0  0  0  0  0  0  0  0
    8.0878   -7.6307    0.0000 O   0  0  0  0  0  0  0  0  0  0  0  0
    7.6753   -5.4873    0.0000 C   0  0  0  0  0  0  0  0  0  0  0  0
    7.2628   -4.7728    0.0000 C   0  0  0  0  0  0  0  0  0  0  0  0
    7.6753   -4.0584    0.0000 O   0  0  0  0  0  0  0  0  0  0  0  0
    6.4378   -4.7728    0.0000 O   0  0  0  0  0  0  0  0  0  0  0  0
  1  2  1  0  0  0  0
  2  3  1  0  0  0  0
  3  4  1  0  0  0  0
  2  5  2  0  0  0  0
  4  6  1  0  0  0  0
  6  7  1  0  0  0  0
  6  8  2  0  0  0  0
  4  9  1  0  0  0  0
  4 10  1  0  0  0  0
  9 11  1  0  0  0  0
 11 12  1  0  0  0  0
 12 13  1  0  0  0  0
 12 14  2  0  0  0  0
M  END
>  <cdx:fragmentId>
3

$$$$
