92330.cdx
  Mrv1902 05222410202D          

 23 25  0  0  0  0            999 V2000
    4.0956   -7.9475    0.0000 C   0  0  0  0  0  0  0  0  0  0  0  0
    4.0956   -8.7725    0.0000 C   0  0  1  0  0  0  0  0  0  0  0  0
    4.8100   -9.1850    0.0000 C   0  0  0  0  0  0  0  0  0  0  0  0
    5.5245   -8.7725    0.0000 C   0  0  1  0  0  0  0  0  0  0  0  0
    5.5245   -7.9475    0.0000 C   0  0  2  0  0  0  0  0  0  0  0  0
    4.8100   -7.5350    0.0000 C   0  0  0  0  0  0  0  0  0  0  0  0
    6.2390   -9.1850    0.0000 C   0  0  0  0  0  0  0  0  0  0  0  0
    6.9534   -8.7725    0.0000 C   0  0  0  0  0  0  0  0  0  0  0  0
    6.9534   -7.9475    0.0000 C   0  0  0  0  0  0  0  0  0  0  0  0
    6.2390   -7.5350    0.0000 C   0  0  0  0  0  0  0  0  0  0  0  0
    7.6679   -7.5350    0.0000 C   0  0  0  0  0  0  0  0  0  0  0  0
    7.6679   -6.7100    0.0000 C   0  0  0  0  0  0  0  0  0  0  0  0
    6.9534   -6.2975    0.0000 C   0  0  0  0  0  0  0  0  0  0  0  0
    6.2390   -6.7100    0.0000 C   0  0  0  0  0  0  0  0  0  0  0  0
    8.3824   -6.2975    0.0000 C   0  0  0  0  0  0  0  0  0  0  0  0
    8.3824   -5.4725    0.0000 C   0  0  0  0  0  0  0  0  0  0  0  0
    6.9534   -5.4725    0.0000 O   0  0  0  0  0  0  0  0  0  0  0  0
    9.0969   -6.7100    0.0000 C   0  0  0  0  0  0  0  0  0  0  0  0
    4.3975   -9.8995    0.0000 C   0  0  0  0  0  0  0  0  0  0  0  0
    5.2225   -9.8995    0.0000 C   0  0  0  0  0  0  0  0  0  0  0  0
    3.3811   -9.1850    0.0000 O   0  0  0  0  0  0  0  0  0  0  0  0
    5.5245   -7.1225    0.0000 C   0  0  0  0  0  0  0  0  0  0  0  0
    5.5245   -9.5975    0.0000 H   0  0  0  0  0  0  0  0  0  0  0  0
  1  2  1  0  0  0  0
  2  3  1  0  0  0  0
  3  4  1  0  0  0  0
  4  5  1  0  0  0  0
  5  6  1  0  0  0  0
  6  1  1  0  0  0  0
  4  7  1  0  0  0  0
  7  8  1  0  0  0  0
  8  9  1  0  0  0  0
  9 10  1  0  0  0  0
 10  5  1  0  0  0  0
  9 11  2  0  0  0  0
 11 12  1  0  0  0  0
 12 13  2  0  0  0  0
 13 14  1  0  0  0  0
 14 10  2  0  0  0  0
 12 15  1  0  0  0  0
 15 16  1  0  0  0  0
 17 13  1  0  0  0  0
 18 15  1  0  0  0  0
  3 19  1  0  0  0  0
  3 20  1  0  0  0  0
  2 21  1  1  0  0  0
  5 22  1  1  0  0  0
  4 23  1  6  0  0  0
M  END
>  <cdx:fragmentId>
5

$$$$
