92336.cdx
  Mrv1902 05222410222D          

  5  4  0  0  0  0            999 V2000
    7.9847   -7.8237    0.0000 N   0  0  0  0  0  0  0  0  0  0  0  0
    7.2702   -7.4112    0.0000 N   0  0  0  0  0  0  0  0  0  0  0  0
    6.5557   -7.8237    0.0000 C   0  0  0  0  0  0  0  0  0  0  0  0
    5.8413   -7.4112    0.0000 N   0  0  0  0  0  0  0  0  0  0  0  0
    6.5557   -8.6487    0.0000 S   0  0  0  0  0  0  0  0  0  0  0  0
  2  1  1  0  0  0  0
  3  2  1  0  0  0  0
  4  3  1  0  0  0  0
  3  5  2  0  0  0  0
M  END
>  <cdx:fragmentId>
3

$$$$
