92334.cdx
  Mrv1902 05222410232D          

 11 10  0  0  0  0            999 V2000
    6.0750   -7.3425    0.0000 C   0  0  0  0  0  0  0  0  0  0  0  0
    6.7895   -6.9300    0.0000 C   0  0  0  0  0  0  0  0  0  0  0  0
    7.5040   -7.3425    0.0000 C   0  0  0  0  0  0  0  0  0  0  0  0
    8.2184   -6.9300    0.0000 C   0  0  0  0  0  0  0  0  0  0  0  0
    8.9329   -7.3425    0.0000 C   0  0  0  0  0  0  0  0  0  0  0  0
    9.6474   -6.9300    0.0000 C   0  0  0  0  0  0  0  0  0  0  0  0
    8.9329   -8.1675    0.0000 C   0  0  0  0  0  0  0  0  0  0  0  0
    5.3606   -7.7550    0.0000 O   0  0  0  0  0  0  0  0  0  0  0  0
    5.6625   -6.6280    0.0000 C   0  0  0  0  0  0  0  0  0  0  0  0
    6.4875   -8.0570    0.0000 C   0  0  0  0  0  0  0  0  0  0  0  0
    6.0750   -5.9136    0.0000 C   0  0  0  0  0  0  0  0  0  0  0  0
  1  2  1  0  0  0  0
  2  3  1  0  0  0  0
  3  4  2  0  0  0  0
  4  5  1  0  0  0  0
  5  6  1  0  0  0  0
  5  7  2  0  0  0  0
  1  8  1  0  0  0  0
  1  9  1  0  0  0  0
  1 10  1  0  0  0  0
  9 11  2  0  0  0  0
M  END
>  <cdx:fragmentId>
3

$$$$
