92333.cdx
  Mrv1902 05222410212D          

 20 22  0  0  0  0            999 V2000
    9.7534   -7.6397    0.0000 C   0  0  0  0  0  0  0  0  0  0  0  0
    9.7534   -8.4647    0.0000 C   0  0  0  0  0  0  0  0  0  0  0  0
    9.0389   -8.8772    0.0000 C   0  0  0  0  0  0  0  0  0  0  0  0
    8.3244   -8.4647    0.0000 C   0  0  0  0  0  0  0  0  0  0  0  0
    7.6099   -8.8772    0.0000 C   0  0  0  0  0  0  0  0  0  0  0  0
    6.8955   -8.4647    0.0000 C   0  0  0  0  0  0  0  0  0  0  0  0
    6.8955   -7.6397    0.0000 C   0  0  0  0  0  0  0  0  0  0  0  0
    7.6099   -7.2272    0.0000 C   0  0  0  0  0  0  0  0  0  0  0  0
    8.3244   -7.6397    0.0000 C   0  0  0  0  0  0  0  0  0  0  0  0
    9.0389   -7.2272    0.0000 O   0  0  0  0  0  0  0  0  0  0  0  0
   10.4678   -7.2272    0.0000 O   0  0  0  0  0  0  0  0  0  0  0  0
    6.1810   -7.2272    0.0000 O   0  0  0  0  0  0  0  0  0  0  0  0
    5.4665   -7.6397    0.0000 C   0  0  0  0  0  0  0  0  0  0  0  0
    6.1810   -8.8772    0.0000 C   0  0  0  0  0  0  0  0  0  0  0  0
    6.1810   -9.7022    0.0000 O   0  0  0  0  0  0  0  0  0  0  0  0
    5.0540   -7.7503    0.0000 O   0  0  0  0  0  0  0  0  0  0  0  0
    5.4665   -8.4647    0.0000 C   0  0  0  0  0  0  0  0  0  0  0  0
    4.6415   -8.4647    0.0000 C   0  0  0  0  0  0  0  0  0  0  0  0
    4.2290   -9.1792    0.0000 C   0  0  0  0  0  0  0  0  0  0  0  0
    3.8165   -8.4647    0.0000 C   0  0  0  0  0  0  0  0  0  0  0  0
  1  2  1  0  0  0  0
  2  3  2  0  0  0  0
  3  4  1  0  0  0  0
  4  5  1  0  0  0  0
  5  6  2  0  0  0  0
  6  7  1  0  0  0  0
  7  8  2  0  0  0  0
  8  9  1  0  0  0  0
  4  9  2  0  0  0  0
  9 10  1  0  0  0  0
  1 10  1  0  0  0  0
  1 11  2  0  0  0  0
 12 13  1  0  0  0  0
  7 12  1  0  0  0  0
 14 15  2  0  0  0  0
 16 17  1  0  0  0  0
 17 18  1  0  0  0  0
 16 18  1  0  0  0  0
 14 17  1  0  0  0  0
 18 19  1  0  0  0  0
 18 20  1  0  0  0  0
  6 14  1  0  0  0  0
M  END
>  <cdx:fragmentId>
5

$$$$
