92346.cdx
  Mrv1902 05222410182D          

 15 16  0  0  0  0            999 V2000
    4.9618   -7.1225    0.0000 C   0  0  0  0  0  0  0  0  0  0  0  0
    4.9618   -7.9475    0.0000 C   0  0  0  0  0  0  0  0  0  0  0  0
    5.6763   -8.3600    0.0000 C   0  0  0  0  0  0  0  0  0  0  0  0
    6.3907   -7.9475    0.0000 C   0  0  0  0  0  0  0  0  0  0  0  0
    6.3907   -7.1225    0.0000 C   0  0  0  0  0  0  0  0  0  0  0  0
    5.6763   -6.7100    0.0000 C   0  0  0  0  0  0  0  0  0  0  0  0
    7.1754   -8.2024    0.0000 N   0  0  0  0  0  0  0  0  0  0  0  0
    7.6603   -7.5350    0.0000 C   0  0  0  0  0  0  0  0  0  0  0  0
    7.1754   -6.8676    0.0000 C   0  0  0  0  0  0  0  0  0  0  0  0
    7.4303   -6.0829    0.0000 C   0  0  0  0  0  0  0  0  0  0  0  0
    8.2272   -5.8694    0.0000 C   0  0  0  0  0  0  0  0  0  0  0  0
    8.4407   -5.0725    0.0000 C   0  0  0  0  0  0  0  0  0  0  0  0
    9.2376   -4.8590    0.0000 C   0  0  0  0  0  0  0  0  0  0  0  0
    9.4511   -4.0621    0.0000 O   0  0  0  0  0  0  0  0  0  0  0  0
    9.8210   -5.4424    0.0000 O   0  0  0  0  0  0  0  0  0  0  0  0
  1  2  2  0  0  0  0
  2  3  1  0  0  0  0
  3  4  2  0  0  0  0
  4  5  1  0  0  0  0
  5  6  2  0  0  0  0
  6  1  1  0  0  0  0
  4  7  1  0  0  0  0
  7  8  1  0  0  0  0
  8  9  2  0  0  0  0
  9  5  1  0  0  0  0
  9 10  1  0  0  0  0
 10 11  1  0  0  0  0
 11 12  1  0  0  0  0
 12 13  1  0  0  0  0
 13 14  1  0  0  0  0
 13 15  2  0  0  0  0
M  END
>  <cdx:fragmentId>
5

$$$$
