92344.cdx
  Mrv1902 05222410182D          

 20 23  0  0  0  0            999 V2000
    3.9306   -6.2700    0.0000 C   0  0  0  0  0  0  0  0  0  0  0  0
    3.9306   -7.0950    0.0000 C   0  0  0  0  0  0  0  0  0  0  0  0
    4.6450   -7.5075    0.0000 C   0  0  0  0  0  0  0  0  0  0  0  0
    5.3595   -7.0950    0.0000 C   0  0  0  0  0  0  0  0  0  0  0  0
    5.3595   -6.2700    0.0000 C   0  0  0  0  0  0  0  0  0  0  0  0
    4.6450   -5.8575    0.0000 C   0  0  0  0  0  0  0  0  0  0  0  0
    6.1441   -7.3499    0.0000 N   0  0  0  0  0  0  0  0  0  0  0  0
    6.6290   -6.6825    0.0000 C   0  0  0  0  0  0  0  0  0  0  0  0
    6.1441   -6.0151    0.0000 C   0  0  0  0  0  0  0  0  0  0  0  0
    7.4540   -6.6825    0.0000 C   0  0  0  0  0  0  0  0  0  0  0  0
    6.3991   -5.2304    0.0000 O   0  0  0  0  0  0  0  0  0  0  0  0
    7.9390   -7.3499    0.0000 N   0  0  0  0  0  0  0  0  0  0  0  0
    8.7236   -7.0950    0.0000 C   0  0  0  0  0  0  0  0  0  0  0  0
    8.7236   -6.2700    0.0000 C   0  0  0  0  0  0  0  0  0  0  0  0
    7.9390   -6.0151    0.0000 C   0  0  0  0  0  0  0  0  0  0  0  0
    7.6840   -5.2304    0.0000 O   0  0  0  0  0  0  0  0  0  0  0  0
    9.4381   -7.5075    0.0000 C   0  0  0  0  0  0  0  0  0  0  0  0
   10.1525   -7.0950    0.0000 C   0  0  0  0  0  0  0  0  0  0  0  0
   10.1525   -6.2700    0.0000 C   0  0  0  0  0  0  0  0  0  0  0  0
    9.4381   -5.8575    0.0000 C   0  0  0  0  0  0  0  0  0  0  0  0
  1  2  2  0  0  0  0
  2  3  1  0  0  0  0
  3  4  2  0  0  0  0
  4  5  1  0  0  0  0
  5  6  2  0  0  0  0
  6  1  1  0  0  0  0
  4  7  1  0  0  0  0
  7  8  1  0  0  0  0
  8  9  2  0  0  0  0
  9  5  1  0  0  0  0
  8 10  1  0  0  0  0
  9 11  1  0  0  0  0
 10 12  2  0  0  0  0
 12 13  1  0  0  0  0
 13 14  2  0  0  0  0
 14 15  1  0  0  0  0
 15 10  1  0  0  0  0
 15 16  2  0  0  0  0
 13 17  1  0  0  0  0
 17 18  2  0  0  0  0
 18 19  1  0  0  0  0
 19 20  2  0  0  0  0
 20 14  1  0  0  0  0
M  END
>  <cdx:fragmentId>
5

$$$$
