92341.cdx
  Mrv1902 05222410192D          

 19 20  0  0  0  0            999 V2000
    4.4118   -6.9025    0.0000 O   0  0  0  0  0  0  0  0  0  0  0  0
    4.4118   -7.7275    0.0000 C   0  0  0  0  0  0  0  0  0  0  0  0
    5.1263   -8.1400    0.0000 C   0  0  0  0  0  0  0  0  0  0  0  0
    5.8407   -7.7275    0.0000 C   0  0  2  0  0  0  0  0  0  0  0  0
    5.8407   -6.9025    0.0000 C   0  0  0  0  0  0  0  0  0  0  0  0
    6.5552   -8.1400    0.0000 C   0  0  0  0  0  0  0  0  0  0  0  0
    7.2697   -7.7275    0.0000 C   0  0  2  0  0  0  0  0  0  0  0  0
    7.2697   -6.9025    0.0000 C   0  0  1  0  0  0  0  0  0  0  0  0
    6.5552   -6.4900    0.0000 C   0  0  0  0  0  0  0  0  0  0  0  0
    7.9842   -8.1400    0.0000 C   0  0  2  0  0  0  0  0  0  0  0  0
    8.6986   -7.7275    0.0000 C   0  0  0  0  0  0  0  0  0  0  0  0
    8.6986   -6.9025    0.0000 C   0  0  0  0  0  0  0  0  0  0  0  0
    7.9842   -6.4900    0.0000 C   0  0  0  0  0  0  0  0  0  0  0  0
    3.6973   -8.1400    0.0000 O   0  0  0  0  0  0  0  0  0  0  0  0
    5.1263   -8.9650    0.0000 C   0  0  0  0  0  0  0  0  0  0  0  0
    7.5717   -8.8545    0.0000 C   0  0  0  0  0  0  0  0  0  0  0  0
    7.2697   -6.0775    0.0000 C   0  0  0  0  0  0  0  0  0  0  0  0
    7.2697   -8.5525    0.0000 H   0  0  0  0  0  0  0  0  0  0  0  0
    8.3967   -8.8545    0.0000 O   0  0  0  0  0  0  0  0  0  0  0  0
  1  2  2  0  0  0  0
  2  3  1  0  0  0  0
  4  3  1  6  0  0  0
  4  5  1  0  0  0  0
  4  6  1  0  0  0  0
  6  7  1  0  0  0  0
  7  8  1  0  0  0  0
  8  9  1  0  0  0  0
  9  5  1  0  0  0  0
  7 10  1  0  0  0  0
 10 11  1  0  0  0  0
 11 12  1  0  0  0  0
 12 13  1  0  0  0  0
 13  8  1  0  0  0  0
  2 14  1  0  0  0  0
  3 15  2  0  0  0  0
 10 16  1  0  0  0  0
  8 17  1  6  0  0  0
  7 18  1  1  0  0  0
 10 19  1  1  0  0  0
M  END
>  <cdx:fragmentId>
5

$$$$
