92349.cdx
  Mrv1902 05222410272D          

 17 18  0  0  0  0            999 V2000
    4.9068   -4.7300    0.0000 C   0  0  0  0  0  0  0  0  0  0  0  0
    4.9068   -5.5550    0.0000 C   0  0  0  0  0  0  0  0  0  0  0  0
    5.6213   -5.9675    0.0000 C   0  0  2  0  0  0  0  0  0  0  0  0
    6.3357   -5.5550    0.0000 C   0  0  2  0  0  0  0  0  0  0  0  0
    6.3357   -4.7300    0.0000 C   0  0  1  0  0  0  0  0  0  0  0  0
    5.6213   -4.3175    0.0000 C   0  0  0  0  0  0  0  0  0  0  0  0
    7.0502   -5.9675    0.0000 C   0  0  0  0  0  0  0  0  0  0  0  0
    7.7647   -5.5550    0.0000 C   0  0  1  0  0  0  0  0  0  0  0  0
    7.7647   -4.7300    0.0000 C   0  0  0  0  0  0  0  0  0  0  0  0
    7.0502   -4.3175    0.0000 C   0  0  0  0  0  0  0  0  0  0  0  0
    6.0338   -6.6820    0.0000 C   0  0  0  0  0  0  0  0  0  0  0  0
    8.4792   -5.9675    0.0000 C   0  0  0  0  0  0  0  0  0  0  0  0
    9.1936   -5.5550    0.0000 C   0  0  0  0  0  0  0  0  0  0  0  0
    8.4792   -6.7925    0.0000 C   0  0  0  0  0  0  0  0  0  0  0  0
    6.3357   -6.3800    0.0000 H   0  0  0  0  0  0  0  0  0  0  0  0
    5.2088   -6.6820    0.0000 O   0  0  0  0  0  0  0  0  0  0  0  0
    6.3357   -3.9050    0.0000 C   0  0  0  0  0  0  0  0  0  0  0  0
  1  2  1  0  0  0  0
  2  3  1  0  0  0  0
  3  4  1  0  0  0  0
  4  5  1  0  0  0  0
  5  6  1  0  0  0  0
  6  1  1  0  0  0  0
  4  7  1  0  0  0  0
  7  8  1  0  0  0  0
  8  9  1  0  0  0  0
  9 10  1  0  0  0  0
 10  5  1  0  0  0  0
  3 11  1  0  0  0  0
  8 12  1  1  0  0  0
 12 13  1  0  0  0  0
 12 14  2  0  0  0  0
  4 15  1  1  0  0  0
  3 16  1  1  0  0  0
  5 17  1  6  0  0  0
M  END
>  <cdx:fragmentId>
5

$$$$
