92355.cdx
  Mrv1902 05222410192D          

 40 43  0  0  0  0            999 V2000
    7.6774   -8.9513    0.0000 C   0  0  0  0  0  0  0  0  0  0  0  0
    7.6774   -9.7763    0.0000 C   0  0  0  0  0  0  0  0  0  0  0  0
    8.3919  -10.1888    0.0000 C   0  0  0  0  0  0  0  0  0  0  0  0
    9.1064   -9.7763    0.0000 C   0  0  0  0  0  0  0  0  0  0  0  0
    9.1064   -8.9513    0.0000 C   0  0  0  0  0  0  0  0  0  0  0  0
    8.3919   -8.5388    0.0000 C   0  0  0  0  0  0  0  0  0  0  0  0
    9.8208  -10.1888    0.0000 C   0  0  0  0  0  0  0  0  0  0  0  0
   10.5353   -9.7763    0.0000 C   0  0  0  0  0  0  0  0  0  0  0  0
   10.5353   -8.9513    0.0000 C   0  0  0  0  0  0  0  0  0  0  0  0
    9.8208   -8.5388    0.0000 O   0  0  0  0  0  0  0  0  0  0  0  0
    8.3919  -11.0137    0.0000 C   0  0  0  0  0  0  0  0  0  0  0  0
    6.9630   -8.5388    0.0000 O   0  0  0  0  0  0  0  0  0  0  0  0
    6.2485   -8.9513    0.0000 C   0  0  0  0  0  0  0  0  0  0  0  0
    9.8208  -11.0137    0.0000 O   0  0  0  0  0  0  0  0  0  0  0  0
   11.2498   -8.5388    0.0000 C   0  0  0  0  0  0  0  0  0  0  0  0
   11.9643   -8.9513    0.0000 C   0  0  2  0  0  0  0  0  0  0  0  0
   12.6787   -8.5388    0.0000 C   0  0  0  0  0  0  0  0  0  0  0  0
   11.9643   -9.7763    0.0000 O   0  0  0  0  0  0  0  0  0  0  0  0
    9.1128   -6.5128    0.0000 C   0  0  2  0  0  0  0  0  0  0  0  0
    8.3989   -6.0994    0.0000 C   0  0  2  0  0  0  0  0  0  0  0  0
    7.6838   -6.5109    0.0000 C   0  0  1  0  0  0  0  0  0  0  0  0
    7.6827   -7.3359    0.0000 C   0  0  2  0  0  0  0  0  0  0  0  0
    8.3966   -7.7494    0.0000 C   0  0  1  0  0  0  0  0  0  0  0  0
    9.1117   -7.3378    0.0000 O   0  0  0  0  0  0  0  0  0  0  0  0
    9.8278   -6.1013    0.0000 C   0  0  0  0  0  0  0  0  0  0  0  0
    6.9699   -6.0975    0.0000 O   0  0  0  0  0  0  0  0  0  0  0  0
    8.4000   -5.2744    0.0000 O   0  0  0  0  0  0  0  0  0  0  0  0
    6.9677   -7.7475    0.0000 O   0  0  0  0  0  0  0  0  0  0  0  0
    9.8289   -5.2763    0.0000 O   0  0  0  0  0  0  0  0  0  0  0  0
    1.9755   -8.9872    0.0000 O   0  0  0  0  0  0  0  0  0  0  0  0
    3.4045   -7.3372    0.0000 C   0  0  0  0  0  0  0  0  0  0  0  0
    2.6900   -7.7497    0.0000 C   0  0  0  0  0  0  0  0  0  0  0  0
    2.6900   -8.5747    0.0000 C   0  0  0  0  0  0  0  0  0  0  0  0
    3.4045   -8.9872    0.0000 C   0  0  0  0  0  0  0  0  0  0  0  0
    4.1190   -8.5747    0.0000 C   0  0  0  0  0  0  0  0  0  0  0  0
    4.1190   -7.7497    0.0000 C   0  0  0  0  0  0  0  0  0  0  0  0
    6.2624   -6.5122    0.0000 O   0  0  0  0  0  0  0  0  0  0  0  0
    4.8334   -7.3372    0.0000 C   0  0  0  0  0  0  0  0  0  0  0  0
    5.5479   -7.7497    0.0000 C   0  0  0  0  0  0  0  0  0  0  0  0
    6.2624   -7.3372    0.0000 C   0  0  0  0  0  0  0  0  0  0  0  0
  1  2  2  0  0  0  0
  2  3  1  0  0  0  0
  3  4  2  0  0  0  0
  4  5  1  0  0  0  0
  5  6  2  0  0  0  0
  6  1  1  0  0  0  0
  4  7  1  0  0  0  0
  7  8  1  0  0  0  0
  8  9  2  0  0  0  0
  9 10  1  0  0  0  0
 10  5  1  0  0  0  0
  3 11  1  0  0  0  0
  1 12  1  0  0  0  0
 12 13  1  0  0  0  0
  7 14  2  0  0  0  0
  9 15  1  0  0  0  0
 15 16  1  0  0  0  0
 16 17  1  0  0  0  0
 16 18  1  6  0  0  0
 19 20  1  0  0  0  0
 20 21  1  0  0  0  0
 21 22  1  0  0  0  0
 22 23  1  0  0  0  0
 23 24  1  0  0  0  0
 24 19  1  0  0  0  0
 19 25  1  1  0  0  0
 21 26  1  1  0  0  0
 20 27  1  6  0  0  0
 22 28  1  6  0  0  0
 25 29  1  0  0  0  0
 23  6  1  1  0  0  0
 38 36  1  0  0  0  0
 33 30  1  0  0  0  0
 36 31  2  0  0  0  0
 32 31  1  0  0  0  0
 33 32  2  0  0  0  0
 34 33  1  0  0  0  0
 35 34  2  0  0  0  0
 36 35  1  0  0  0  0
 40 37  2  0  0  0  0
 39 38  2  0  0  0  0
 40 39  1  0  0  0  0
 40 28  1  0  0  0  0
M  END
>  <cdx:fragmentId>
5

$$$$
