92353.cdx
  Mrv1902 05222410182D          

 13 14  0  0  0  0            999 V2000
    5.8556   -6.5038    0.0000 C   0  0  0  0  0  0  0  0  0  0  0  0
    5.8556   -7.3287    0.0000 C   0  0  0  0  0  0  0  0  0  0  0  0
    6.5700   -7.7413    0.0000 C   0  0  0  0  0  0  0  0  0  0  0  0
    7.2845   -7.3287    0.0000 C   0  0  0  0  0  0  0  0  0  0  0  0
    7.2845   -6.5038    0.0000 C   0  0  0  0  0  0  0  0  0  0  0  0
    6.5700   -6.0912    0.0000 C   0  0  0  0  0  0  0  0  0  0  0  0
    7.9990   -7.7413    0.0000 C   0  0  0  0  0  0  0  0  0  0  0  0
    8.7134   -7.3287    0.0000 N   0  0  0  0  0  0  0  0  0  0  0  0
    8.7134   -6.5038    0.0000 C   0  0  0  0  0  0  0  0  0  0  0  0
    7.9990   -6.0912    0.0000 C   0  0  0  0  0  0  0  0  0  0  0  0
    5.1411   -6.0912    0.0000 O   0  0  0  0  0  0  0  0  0  0  0  0
    5.1411   -7.7413    0.0000 O   0  0  0  0  0  0  0  0  0  0  0  0
    7.9990   -8.5663    0.0000 O   0  0  0  0  0  0  0  0  0  0  0  0
  1  2  1  0  0  0  0
  2  3  2  0  0  0  0
  3  4  1  0  0  0  0
  4  5  2  0  0  0  0
  5  6  1  0  0  0  0
  6  1  2  0  0  0  0
  4  7  1  0  0  0  0
  7  8  1  0  0  0  0
  8  9  1  0  0  0  0
  9 10  1  0  0  0  0
 10  5  1  0  0  0  0
  1 11  1  0  0  0  0
  2 12  1  0  0  0  0
  7 13  2  0  0  0  0
M  END
>  <cdx:fragmentId>
5

$$$$
