92358.cdx
  Mrv1902 05222410272D          

 18 20  0  0  0  0            999 V2000
    4.5974   -8.2225    0.0000 C   0  0  0  0  0  0  0  0  0  0  0  0
    4.5974   -9.0475    0.0000 C   0  0  0  0  0  0  0  0  0  0  0  0
    5.3119   -9.4600    0.0000 C   0  0  0  0  0  0  0  0  0  0  0  0
    6.0264   -9.0475    0.0000 C   0  0  1  0  0  0  0  0  0  0  0  0
    6.0264   -8.2225    0.0000 C   0  0  2  0  0  0  0  0  0  0  0  0
    5.3119   -7.8100    0.0000 C   0  0  0  0  0  0  0  0  0  0  0  0
    6.7408   -9.4600    0.0000 C   0  0  0  0  0  0  0  0  0  0  0  0
    7.4553   -9.0475    0.0000 C   0  0  0  0  0  0  0  0  0  0  0  0
    7.4553   -8.2225    0.0000 C   0  0  0  0  0  0  0  0  0  0  0  0
    6.7408   -7.8100    0.0000 C   0  0  0  0  0  0  0  0  0  0  0  0
    8.2399   -9.3024    0.0000 C   0  0  0  0  0  0  0  0  0  0  0  0
    8.7249   -8.6350    0.0000 C   0  0  0  0  0  0  0  0  0  0  0  0
    8.2399   -7.9676    0.0000 O   0  0  0  0  0  0  0  0  0  0  0  0
    5.3119  -10.2850    0.0000 C   0  0  0  0  0  0  0  0  0  0  0  0
    8.4949  -10.0871    0.0000 C   0  0  0  0  0  0  0  0  0  0  0  0
    9.5499   -8.6350    0.0000 O   0  0  0  0  0  0  0  0  0  0  0  0
    6.0264   -7.3975    0.0000 C   0  0  0  0  0  0  0  0  0  0  0  0
    6.0264   -9.8725    0.0000 H   0  0  0  0  0  0  0  0  0  0  0  0
  1  2  1  0  0  0  0
  2  3  1  0  0  0  0
  3  4  1  0  0  0  0
  4  5  1  0  0  0  0
  5  6  1  0  0  0  0
  6  1  1  0  0  0  0
  4  7  1  0  0  0  0
  7  8  1  0  0  0  0
  8  9  2  0  0  0  0
  9 10  1  0  0  0  0
 10  5  1  0  0  0  0
  8 11  1  0  0  0  0
 11 12  2  0  0  0  0
 12 13  1  0  0  0  0
 13  9  1  0  0  0  0
  3 14  2  0  0  0  0
 11 15  1  0  0  0  0
 12 16  1  0  0  0  0
  5 17  1  1  0  0  0
  4 18  1  6  0  0  0
M  END
>  <cdx:fragmentId>
5

$$$$
