92351.cdx
  Mrv1902 05222410192D          

 30 32  0  0  0  0            999 V2000
    5.2003   -7.6472    0.0000 H   0  0  0  0  0  0  0  0  0  0  0  0
    5.9057   -9.7128    0.0000 O   0  0  0  0  0  0  0  0  0  0  0  0
    5.1930   -9.2972    0.0000 C   0  0  1  0  0  0  0  0  0  0  0  0
    5.1967   -8.4722    0.0000 C   0  0  1  0  0  0  0  0  0  0  0  0
    4.4840   -8.0565    0.0000 O   0  0  0  0  0  0  0  0  0  0  0  0
    4.4731  -10.5315    0.0000 O   0  0  0  0  0  0  0  0  0  0  0  0
    4.4768   -9.7065    0.0000 C   0  0  1  0  0  0  0  0  0  0  0  0
    3.0478   -9.7002    0.0000 O   0  0  0  0  0  0  0  0  0  0  0  0
    5.9130   -8.0628    0.0000 C   0  0  0  0  0  0  0  0  0  0  0  0
    5.9166   -7.2378    0.0000 C   0  0  0  0  0  0  0  0  0  0  0  0
    5.2039   -6.8222    0.0000 O   0  0  0  0  0  0  0  0  0  0  0  0
    3.7641   -9.2909    0.0000 C   0  0  2  0  0  0  0  0  0  0  0  0
    3.7678   -8.4659    0.0000 C   0  0  1  0  0  0  0  0  0  0  0  0
    6.6256   -8.4785    0.0000 C   0  0  0  0  0  0  0  0  0  0  0  0
    7.3419   -8.0691    0.0000 C   0  0  0  0  0  0  0  0  0  0  0  0
    7.3455   -7.2441    0.0000 C   0  0  0  0  0  0  0  0  0  0  0  0
    6.6329   -6.8285    0.0000 C   0  0  0  0  0  0  0  0  0  0  0  0
    6.6220   -9.3035    0.0000 O   0  0  0  0  0  0  0  0  0  0  0  0
    8.0509   -9.3097    0.0000 O   0  0  0  0  0  0  0  0  0  0  0  0
    8.0545   -8.4847    0.0000 C   0  0  0  0  0  0  0  0  0  0  0  0
    8.7708   -8.0754    0.0000 C   0  0  0  0  0  0  0  0  0  0  0  0
    8.7744   -7.2504    0.0000 C   0  0  0  0  0  0  0  0  0  0  0  0
    8.0618   -6.8348    0.0000 O   0  0  0  0  0  0  0  0  0  0  0  0
    9.4835   -8.4910    0.0000 C   0  0  0  0  0  0  0  0  0  0  0  0
   10.1997   -8.0817    0.0000 C   0  0  0  0  0  0  0  0  0  0  0  0
   10.2034   -7.2567    0.0000 C   0  0  0  0  0  0  0  0  0  0  0  0
    9.4907   -6.8411    0.0000 C   0  0  0  0  0  0  0  0  0  0  0  0
    3.0551   -8.0502    0.0000 C   0  0  0  0  0  0  0  0  0  0  0  0
    2.3388   -8.4596    0.0000 O   0  0  0  0  0  0  0  0  0  0  0  0
   10.9197   -6.8473    0.0000 O   0  0  0  0  0  0  0  0  0  0  0  0
  4  1  1  6  0  0  0
  3  2  1  6  0  0  0
  3  7  1  0  0  0  0
  4  3  1  0  0  0  0
  5  4  1  0  0  0  0
 13  5  1  0  0  0  0
  7  6  1  1  0  0  0
 12  7  1  0  0  0  0
 12  8  1  6  0  0  0
 13 12  1  0  0  0  0
 13 28  1  1  0  0  0
 29 28  1  0  0  0  0
  4  9  1  0  0  0  0
  9 10  1  0  0  0  0
 10 11  1  0  0  0  0
  9 14  2  0  0  0  0
 14 15  1  0  0  0  0
 15 16  2  0  0  0  0
 16 17  1  0  0  0  0
 17 10  2  0  0  0  0
 14 18  1  0  0  0  0
 19 20  2  0  0  0  0
 20 15  1  0  0  0  0
 20 21  1  0  0  0  0
 21 22  2  0  0  0  0
 23 16  1  0  0  0  0
 21 24  1  0  0  0  0
 24 25  2  0  0  0  0
 25 26  1  0  0  0  0
 26 27  2  0  0  0  0
 27 22  1  0  0  0  0
 26 30  1  0  0  0  0
M  END
>  <cdx:fragmentId>
5

$$$$
