92352.cdx
  Mrv1902 05222410182D          

 29 31  0  0  0  0            999 V2000
    6.6544   -8.7955    0.0000 O   0  0  0  0  0  0  0  0  0  0  0  0
    5.9397   -9.2076    0.0000 C   0  0  2  0  0  0  0  0  0  0  0  0
    5.2254   -8.7948    0.0000 O   0  0  0  0  0  0  0  0  0  0  0  0
    4.5108   -9.2069    0.0000 C   0  0  1  0  0  0  0  0  0  0  0  0
    4.5104  -10.0319    0.0000 C   0  0  2  0  0  0  0  0  0  0  0  0
    5.2247  -10.4448    0.0000 C   0  0  1  0  0  0  0  0  0  0  0  0
    5.9393  -10.0326    0.0000 C   0  0  1  0  0  0  0  0  0  0  0  0
    3.7965   -8.7941    0.0000 C   0  0  0  0  0  0  0  0  0  0  0  0
    5.2243  -11.2698    0.0000 O   0  0  0  0  0  0  0  0  0  0  0  0
    6.6536  -10.4455    0.0000 O   0  0  0  0  0  0  0  0  0  0  0  0
    3.7957  -10.4441    0.0000 O   0  0  0  0  0  0  0  0  0  0  0  0
    3.0818   -9.2062    0.0000 O   0  0  0  0  0  0  0  0  0  0  0  0
   10.9445   -6.3262    0.0000 O   0  0  0  0  0  0  0  0  0  0  0  0
    5.2288   -6.3185    0.0000 O   0  0  0  0  0  0  0  0  0  0  0  0
    8.0833   -8.7974    0.0000 O   0  0  0  0  0  0  0  0  0  0  0  0
    9.5134   -7.9743    0.0000 C   0  0  0  0  0  0  0  0  0  0  0  0
   10.2284   -7.5628    0.0000 C   0  0  0  0  0  0  0  0  0  0  0  0
   10.2295   -6.7378    0.0000 C   0  0  0  0  0  0  0  0  0  0  0  0
    9.5156   -6.3243    0.0000 C   0  0  0  0  0  0  0  0  0  0  0  0
    8.0844   -7.9724    0.0000 C   0  0  0  0  0  0  0  0  0  0  0  0
    8.7995   -7.5608    0.0000 C   0  0  0  0  0  0  0  0  0  0  0  0
    8.8006   -6.7358    0.0000 C   0  0  0  0  0  0  0  0  0  0  0  0
    8.0867   -6.3224    0.0000 O   0  0  0  0  0  0  0  0  0  0  0  0
    7.3705   -7.5589    0.0000 C   0  0  0  0  0  0  0  0  0  0  0  0
    7.3716   -6.7339    0.0000 C   0  0  0  0  0  0  0  0  0  0  0  0
    6.6577   -6.3205    0.0000 C   0  0  0  0  0  0  0  0  0  0  0  0
    5.9427   -6.7320    0.0000 C   0  0  0  0  0  0  0  0  0  0  0  0
    5.9416   -7.5570    0.0000 C   0  0  0  0  0  0  0  0  0  0  0  0
    6.6555   -7.9705    0.0000 C   0  0  0  0  0  0  0  0  0  0  0  0
  2  1  1  1  0  0  0
  2  3  1  0  0  0  0
  3  4  1  0  0  0  0
  4  5  1  0  0  0  0
  5  6  1  0  0  0  0
  6  7  1  0  0  0  0
  7  2  1  0  0  0  0
  4  8  1  1  0  0  0
  6  9  1  1  0  0  0
  7 10  1  6  0  0  0
  5 11  1  6  0  0  0
 18 13  1  0  0  0  0
 27 14  1  0  0  0  0
 29  1  1  0  0  0  0
  8 12  1  0  0  0  0
 20 15  2  0  0  0  0
 16 21  1  0  0  0  0
 17 16  2  0  0  0  0
 18 17  1  0  0  0  0
 19 18  2  0  0  0  0
 22 19  1  0  0  0  0
 20 24  1  0  0  0  0
 21 20  1  0  0  0  0
 22 21  2  0  0  0  0
 25 23  1  0  0  0  0
 24 29  1  0  0  0  0
 25 24  2  0  0  0  0
 26 25  1  0  0  0  0
 27 26  2  0  0  0  0
 28 27  1  0  0  0  0
 29 28  2  0  0  0  0
M  END
>  <cdx:fragmentId>
5

$$$$
