92350.cdx
  Mrv1902 05222410182D          

 14 15  0  0  0  0            999 V2000
    4.7006   -6.1325    0.0000 C   0  0  0  0  0  0  0  0  0  0  0  0
    4.7006   -6.9575    0.0000 O   0  0  0  0  0  0  0  0  0  0  0  0
    5.4150   -7.3700    0.0000 C   0  0  0  0  0  0  0  0  0  0  0  0
    6.1295   -6.9575    0.0000 C   0  0  2  0  0  0  0  0  0  0  0  0
    6.1295   -6.1325    0.0000 C   0  0  2  0  0  0  0  0  0  0  0  0
    5.4150   -5.7200    0.0000 C   0  0  2  0  0  0  0  0  0  0  0  0
    6.9141   -7.2124    0.0000 C   0  0  1  0  0  0  0  0  0  0  0  0
    7.3990   -6.5450    0.0000 C   0  0  0  0  0  0  0  0  0  0  0  0
    6.9141   -5.8776    0.0000 C   0  0  0  0  0  0  0  0  0  0  0  0
    5.4150   -4.8950    0.0000 C   0  0  0  0  0  0  0  0  0  0  0  0
    6.2157   -5.3120    0.0000 H   0  0  0  0  0  0  0  0  0  0  0  0
    6.2157   -7.7780    0.0000 H   0  0  0  0  0  0  0  0  0  0  0  0
    7.1691   -7.9971    0.0000 C   0  0  0  0  0  0  0  0  0  0  0  0
    3.9861   -5.7200    0.0000 O   0  0  0  0  0  0  0  0  0  0  0  0
  1  2  1  0  0  0  0
  2  3  1  0  0  0  0
  3  4  1  0  0  0  0
  4  5  1  0  0  0  0
  5  6  1  0  0  0  0
  6  1  1  0  0  0  0
  4  7  1  0  0  0  0
  7  8  1  0  0  0  0
  8  9  1  0  0  0  0
  9  5  1  0  0  0  0
  6 10  1  1  0  0  0
  5 11  1  1  0  0  0
  4 12  1  1  0  0  0
  7 13  1  1  0  0  0
  1 14  2  0  0  0  0
M  END
>  <cdx:fragmentId>
5

$$$$
