92365.cdx
  Mrv1902 05222410262D          

  4  3  0  0  0  0            999 V2000
    6.7213   -7.1913    0.0000 C   0  0  0  0  0  0  0  0  0  0  0  0
    7.4357   -6.7788    0.0000 C   0  0  0  0  0  0  0  0  0  0  0  0
    6.0068   -6.7788    0.0000 C   0  0  0  0  0  0  0  0  0  0  0  0
    6.7213   -8.0162    0.0000 C   0  0  0  0  0  0  0  0  0  0  0  0
  1  2  1  0  0  0  0
  1  3  1  0  0  0  0
  1  4  2  0  0  0  0
M  END
>  <cdx:fragmentId>
3

$$$$
