92364.cdx
  Mrv1902 05222410272D          

 27 27  0  0  0  0            999 V2000
   11.0531   -8.2225    0.0000 C   0  0  0  0  0  0  0  0  0  0  0  0
   11.0531   -9.0475    0.0000 C   0  0  0  0  0  0  0  0  0  0  0  0
   11.7675   -9.4600    0.0000 C   0  0  0  0  0  0  0  0  0  0  0  0
   12.4820   -9.0475    0.0000 C   0  0  0  0  0  0  0  0  0  0  0  0
   12.4820   -8.2225    0.0000 C   0  0  0  0  0  0  0  0  0  0  0  0
   11.7675   -7.8100    0.0000 C   0  0  0  0  0  0  0  0  0  0  0  0
   11.7675   -6.9850    0.0000 C   0  0  0  0  0  0  0  0  0  0  0  0
   11.0531   -6.5725    0.0000 O   0  0  0  0  0  0  0  0  0  0  0  0
   12.4820   -6.5725    0.0000 O   0  0  0  0  0  0  0  0  0  0  0  0
   10.3386   -7.8100    0.0000 C   0  0  0  0  0  0  0  0  0  0  0  0
    9.6241   -8.2225    0.0000 O   0  0  0  0  0  0  0  0  0  0  0  0
   10.3386   -6.9850    0.0000 O   0  0  0  0  0  0  0  0  0  0  0  0
    8.9096   -7.8100    0.0000 C   0  0  0  0  0  0  0  0  0  0  0  0
    8.1952   -8.2225    0.0000 C   0  0  0  0  0  0  0  0  0  0  0  0
    7.4807   -7.8100    0.0000 C   0  0  0  0  0  0  0  0  0  0  0  0
    6.7662   -8.2225    0.0000 C   0  0  0  0  0  0  0  0  0  0  0  0
    6.0518   -7.8100    0.0000 C   0  0  0  0  0  0  0  0  0  0  0  0
    5.3373   -8.2225    0.0000 C   0  0  0  0  0  0  0  0  0  0  0  0
    4.6228   -7.8100    0.0000 C   0  0  0  0  0  0  0  0  0  0  0  0
    3.9083   -8.2225    0.0000 C   0  0  0  0  0  0  0  0  0  0  0  0
   12.4820   -5.7475    0.0000 C   0  0  0  0  0  0  0  0  0  0  0  0
   13.1965   -5.3350    0.0000 C   0  0  0  0  0  0  0  0  0  0  0  0
   13.1965   -4.5100    0.0000 C   0  0  0  0  0  0  0  0  0  0  0  0
   13.9109   -5.7475    0.0000 C   0  0  0  0  0  0  0  0  0  0  0  0
    3.1939   -7.8100    0.0000 C   0  0  0  0  0  0  0  0  0  0  0  0
    2.4794   -8.2225    0.0000 C   0  0  0  0  0  0  0  0  0  0  0  0
    1.7649   -7.8100    0.0000 C   0  0  0  0  0  0  0  0  0  0  0  0
  1  2  2  0  0  0  0
  2  3  1  0  0  0  0
  3  4  2  0  0  0  0
  4  5  1  0  0  0  0
  5  6  2  0  0  0  0
  6  1  1  0  0  0  0
  6  7  1  0  0  0  0
  7  8  2  0  0  0  0
  7  9  1  0  0  0  0
  1 10  1  0  0  0  0
 10 11  1  0  0  0  0
 10 12  2  0  0  0  0
 11 13  1  0  0  0  0
 13 14  1  0  0  0  0
 14 15  1  0  0  0  0
 15 16  1  0  0  0  0
 16 17  1  0  0  0  0
 17 18  1  0  0  0  0
 18 19  1  0  0  0  0
 19 20  1  0  0  0  0
  9 21  1  0  0  0  0
 21 22  1  0  0  0  0
 22 23  1  0  0  0  0
 22 24  1  0  0  0  0
 20 25  1  0  0  0  0
 25 26  1  0  0  0  0
 26 27  1  0  0  0  0
M  END
>  <cdx:fragmentId>
5

$$$$
