92363.cdx
  Mrv1902 05222410282D          

 18 17  0  0  0  0            999 V2000
    5.0692   -8.2363    0.0000 O   0  0  0  0  0  0  0  0  0  0  0  0
    2.9257   -6.1737    0.0000 C   0  0  0  0  0  0  0  0  0  0  0  0
   12.9283   -6.9988    0.0000 C   0  0  0  0  0  0  0  0  0  0  0  0
   12.2139   -7.4112    0.0000 C   0  0  0  0  0  0  0  0  0  0  0  0
   11.4994   -6.9988    0.0000 C   0  0  0  0  0  0  0  0  0  0  0  0
   10.7849   -7.4112    0.0000 C   0  0  0  0  0  0  0  0  0  0  0  0
   10.0705   -6.9988    0.0000 C   0  0  0  0  0  0  0  0  0  0  0  0
    9.3560   -7.4112    0.0000 C   0  0  0  0  0  0  0  0  0  0  0  0
    8.6415   -6.9988    0.0000 C   0  0  0  0  0  0  0  0  0  0  0  0
    7.9270   -7.4112    0.0000 C   0  0  0  0  0  0  0  0  0  0  0  0
    7.2126   -6.9988    0.0000 C   0  0  0  0  0  0  0  0  0  0  0  0
    6.4981   -7.4112    0.0000 C   0  0  0  0  0  0  0  0  0  0  0  0
    5.7836   -6.9988    0.0000 C   0  0  0  0  0  0  0  0  0  0  0  0
    5.0692   -7.4112    0.0000 C   0  0  0  0  0  0  0  0  0  0  0  0
    4.3547   -6.9988    0.0000 O   0  0  0  0  0  0  0  0  0  0  0  0
    3.6402   -7.4112    0.0000 C   0  0  0  0  0  0  0  0  0  0  0  0
    2.9257   -6.9988    0.0000 C   0  0  0  0  0  0  0  0  0  0  0  0
    2.2113   -7.4112    0.0000 C   0  0  0  0  0  0  0  0  0  0  0  0
 14  1  2  0  0  0  0
 17  2  1  0  0  0  0
  3  4  1  0  0  0  0
  4  5  1  0  0  0  0
  5  6  1  0  0  0  0
  6  7  1  0  0  0  0
  7  8  1  0  0  0  0
  8  9  1  0  0  0  0
  9 10  1  0  0  0  0
 10 11  1  0  0  0  0
 11 12  1  0  0  0  0
 12 13  1  0  0  0  0
 13 14  1  0  0  0  0
 14 15  1  0  0  0  0
 15 16  1  0  0  0  0
 16 17  1  0  0  0  0
 17 18  1  0  0  0  0
M  END
>  <cdx:fragmentId>
3

$$$$
