92360.cdx
  Mrv1902 05222410272D          

 18 19  0  0  0  0            999 V2000
    4.5906   -8.9650    0.0000 C   0  0  0  0  0  0  0  0  0  0  0  0
    4.5906   -9.7900    0.0000 C   0  0  0  0  0  0  0  0  0  0  0  0
    5.3050  -10.2025    0.0000 C   0  0  0  0  0  0  0  0  0  0  0  0
    6.0195   -9.7900    0.0000 C   0  0  1  0  0  0  0  0  0  0  0  0
    6.0195   -8.9650    0.0000 C   0  0  1  0  0  0  0  0  0  0  0  0
    5.3050   -8.5525    0.0000 C   0  0  0  0  0  0  0  0  0  0  0  0
    6.7340   -8.5525    0.0000 C   0  0  0  0  0  0  0  0  0  0  0  0
    6.7340   -7.7275    0.0000 C   0  0  0  0  0  0  0  0  0  0  0  0
    6.0195   -7.3150    0.0000 C   0  0  0  0  0  0  0  0  0  0  0  0
    5.3050   -7.7275    0.0000 C   0  0  0  0  0  0  0  0  0  0  0  0
    8.1629   -7.7275    0.0000 O   0  0  0  0  0  0  0  0  0  0  0  0
    7.4484   -7.3150    0.0000 C   0  0  0  0  0  0  0  0  0  0  0  0
    3.8761   -8.5525    0.0000 C   0  0  0  0  0  0  0  0  0  0  0  0
    6.7340   -9.3775    0.0000 C   0  0  0  0  0  0  0  0  0  0  0  0
    7.4484   -8.9650    0.0000 C   0  0  0  0  0  0  0  0  0  0  0  0
    7.4484   -9.7900    0.0000 C   0  0  0  0  0  0  0  0  0  0  0  0
    6.0195   -8.1400    0.0000 H   0  0  0  0  0  0  0  0  0  0  0  0
    6.4320  -10.5045    0.0000 H   0  0  0  0  0  0  0  0  0  0  0  0
  1  2  1  0  0  0  0
  2  3  1  0  0  0  0
  3  4  1  0  0  0  0
  4  5  1  0  0  0  0
  6  1  2  0  0  0  0
  5  7  1  0  0  0  0
  7  8  2  0  0  0  0
  8  9  1  0  0  0  0
  9 10  1  0  0  0  0
 10  6  1  0  0  0  0
 11 12  2  0  0  0  0
 12  8  1  0  0  0  0
 13  1  1  0  0  0  0
  4 14  1  0  0  0  0
 14  5  1  0  0  0  0
 14 15  1  0  0  0  0
 14 16  1  0  0  0  0
  5 17  1  6  0  0  0
  4 18  1  6  0  0  0
M  END
>  <cdx:fragmentId>
5

$$$$
