92361.cdx
  Mrv1902 05222410272D          

 25 27  0  0  0  0            999 V2000
    7.9696   -6.1756    0.0000 O   0  0  0  0  0  0  0  0  0  0  0  0
    7.9580   -7.0006    0.0000 C   0  0  0  0  0  0  0  0  0  0  0  0
    6.5408   -6.1555    0.0000 O   0  0  0  0  0  0  0  0  0  0  0  0
    9.3520   -9.4954    0.0000 C   0  0  0  0  0  0  0  0  0  0  0  0
    6.4596  -11.9300    0.0000 O   0  0  0  0  0  0  0  0  0  0  0  0
    7.8884  -11.9501    0.0000 O   0  0  0  0  0  0  0  0  0  0  0  0
    7.9000  -11.1252    0.0000 C   0  0  0  0  0  0  0  0  0  0  0  0
    8.6202  -10.7227    0.0000 C   0  0  0  0  0  0  0  0  0  0  0  0
    8.6318   -9.8978    0.0000 C   0  0  0  0  0  0  0  0  0  0  0  0
    7.9232   -9.4753    0.0000 O   0  0  0  0  0  0  0  0  0  0  0  0
    6.4712  -11.1050    0.0000 C   0  0  0  0  0  0  0  0  0  0  0  0
    7.1914  -10.7026    0.0000 C   0  0  0  0  0  0  0  0  0  0  0  0
    7.2030   -9.8777    0.0000 C   0  0  0  0  0  0  0  0  0  0  0  0
    5.1004   -6.9603    0.0000 O   0  0  0  0  0  0  0  0  0  0  0  0
    7.2262   -8.2279    0.0000 O   0  0  0  0  0  0  0  0  0  0  0  0
    7.2378   -7.4030    0.0000 C   0  0  1  0  0  0  0  0  0  0  0  0
    6.5292   -6.9805    0.0000 C   0  0  2  0  0  0  0  0  0  0  0  0
    5.8090   -7.3829    0.0000 C   0  0  1  0  0  0  0  0  0  0  0  0
    6.4944   -9.4552    0.0000 C   0  0  0  0  0  0  0  0  0  0  0  0
    6.5060   -8.6303    0.0000 C   0  0  1  0  0  0  0  0  0  0  0  0
    5.7974   -8.2078    0.0000 C   0  0  2  0  0  0  0  0  0  0  0  0
    5.0772   -8.6102    0.0000 O   0  0  0  0  0  0  0  0  0  0  0  0
    5.7626  -10.6825    0.0000 C   0  0  0  0  0  0  0  0  0  0  0  0
    5.7742   -9.8576    0.0000 C   0  0  0  0  0  0  0  0  0  0  0  0
    5.0656   -9.4351    0.0000 O   0  0  0  0  0  0  0  0  0  0  0  0
  2  1  1  0  0  0  0
 16  2  1  1  0  0  0
 17  3  1  6  0  0  0
  9  4  1  0  0  0  0
  5 11  1  0  0  0  0
  7  6  2  0  0  0  0
  7 12  1  0  0  0  0
  8  7  1  0  0  0  0
  9  8  2  0  0  0  0
 10  9  1  0  0  0  0
 13 10  1  0  0  0  0
 11 23  2  0  0  0  0
 12 11  1  0  0  0  0
 13 12  2  0  0  0  0
 19 13  1  0  0  0  0
 18 14  1  1  0  0  0
 15 20  1  0  0  0  0
 16 15  1  0  0  0  0
 17 16  1  0  0  0  0
 18 17  1  0  0  0  0
 21 18  1  0  0  0  0
 19 24  2  0  0  0  0
 20 19  1  1  0  0  0
 21 20  1  0  0  0  0
 21 22  1  6  0  0  0
 24 23  1  0  0  0  0
 25 24  1  0  0  0  0
M  END
>  <cdx:fragmentId>
5

$$$$
