92369.cdx
  Mrv1902 05222410192D          

 46 52  0  0  0  0            999 V2000
    4.4393   -4.1250    0.0000 C   0  0  0  0  0  0  0  0  0  0  0  0
    4.4393   -4.9500    0.0000 C   0  0  0  0  0  0  0  0  0  0  0  0
    5.1538   -5.3625    0.0000 C   0  0  0  0  0  0  0  0  0  0  0  0
    5.8682   -4.9500    0.0000 C   0  0  0  0  0  0  0  0  0  0  0  0
    5.8682   -4.1250    0.0000 C   0  0  0  0  0  0  0  0  0  0  0  0
    5.1538   -3.7125    0.0000 C   0  0  0  0  0  0  0  0  0  0  0  0
    6.5827   -5.3625    0.0000 C   0  0  2  0  0  0  0  0  0  0  0  0
    7.2972   -4.9500    0.0000 N   0  0  0  0  0  0  0  0  0  0  0  0
    7.2972   -4.1250    0.0000 C   0  0  0  0  0  0  0  0  0  0  0  0
    6.5827   -3.7125    0.0000 C   0  0  0  0  0  0  0  0  0  0  0  0
    3.7248   -2.8875    0.0000 C   0  0  0  0  0  0  0  0  0  0  0  0
    3.7248   -3.7125    0.0000 O   0  0  0  0  0  0  0  0  0  0  0  0
    8.0117   -5.3625    0.0000 C   0  0  0  0  0  0  0  0  0  0  0  0
    3.7248   -5.3625    0.0000 O   0  0  0  0  0  0  0  0  0  0  0  0
    4.4393   -5.7750    0.0000 O   0  0  0  0  0  0  0  0  0  0  0  0
    4.4393   -6.6000    0.0000 C   0  0  0  0  0  0  0  0  0  0  0  0
    7.2972   -5.7750    0.0000 C   0  0  0  0  0  0  0  0  0  0  0  0
    7.2972   -6.6000    0.0000 C   0  0  0  0  0  0  0  0  0  0  0  0
    3.7248   -7.0125    0.0000 C   0  0  0  0  0  0  0  0  0  0  0  0
    3.7248   -7.8375    0.0000 C   0  0  0  0  0  0  0  0  0  0  0  0
    4.4393   -8.2500    0.0000 C   0  0  0  0  0  0  0  0  0  0  0  0
    5.1538   -7.8375    0.0000 C   0  0  0  0  0  0  0  0  0  0  0  0
    5.1538   -7.0125    0.0000 C   0  0  0  0  0  0  0  0  0  0  0  0
    6.5827   -7.0125    0.0000 C   0  0  0  0  0  0  0  0  0  0  0  0
    6.5827   -7.8375    0.0000 C   0  0  0  0  0  0  0  0  0  0  0  0
    7.2972   -8.2500    0.0000 C   0  0  0  0  0  0  0  0  0  0  0  0
    8.0117   -7.8375    0.0000 C   0  0  0  0  0  0  0  0  0  0  0  0
    8.0117   -7.0125    0.0000 C   0  0  0  0  0  0  0  0  0  0  0  0
    4.4393   -9.0750    0.0000 C   0  0  0  0  0  0  0  0  0  0  0  0
    5.1538   -9.4875    0.0000 C   0  0  2  0  0  0  0  0  0  0  0  0
    5.8682   -9.9000    0.0000 C   0  0  0  0  0  0  0  0  0  0  0  0
    7.2972   -9.0750    0.0000 O   0  0  0  0  0  0  0  0  0  0  0  0
    6.5827   -9.4875    0.0000 C   0  0  0  0  0  0  0  0  0  0  0  0
    4.4393   -9.9000    0.0000 N   0  0  0  0  0  0  0  0  0  0  0  0
    4.4393  -10.7250    0.0000 C   0  0  0  0  0  0  0  0  0  0  0  0
    5.1538  -11.1375    0.0000 C   0  0  0  0  0  0  0  0  0  0  0  0
    5.8682  -10.7250    0.0000 C   0  0  0  0  0  0  0  0  0  0  0  0
    6.5827  -11.1375    0.0000 C   0  0  0  0  0  0  0  0  0  0  0  0
    7.2972  -10.7250    0.0000 C   0  0  0  0  0  0  0  0  0  0  0  0
    7.2972   -9.9000    0.0000 C   0  0  0  0  0  0  0  0  0  0  0  0
    3.7248   -9.4875    0.0000 C   0  0  0  0  0  0  0  0  0  0  0  0
    8.0117   -9.4875    0.0000 O   0  0  0  0  0  0  0  0  0  0  0  0
    8.0117  -11.1375    0.0000 O   0  0  0  0  0  0  0  0  0  0  0  0
    8.0117  -11.9625    0.0000 C   0  0  0  0  0  0  0  0  0  0  0  0
    5.5663   -8.7730    0.0000 H   0  0  0  0  0  0  0  0  0  0  0  0
    6.1702   -6.0770    0.0000 H   0  0  0  0  0  0  0  0  0  0  0  0
  1  2  2  0  0  0  0
  2  3  1  0  0  0  0
  3  4  2  0  0  0  0
  4  5  1  0  0  0  0
  5  6  2  0  0  0  0
  6  1  1  0  0  0  0
  4  7  1  0  0  0  0
  7  8  1  0  0  0  0
  8  9  1  0  0  0  0
  9 10  1  0  0  0  0
 10  5  1  0  0  0  0
 11 12  1  0  0  0  0
 12  1  1  0  0  0  0
  8 13  1  0  0  0  0
  2 14  1  0  0  0  0
  3 15  1  0  0  0  0
 15 16  1  0  0  0  0
  7 17  1  0  0  0  0
 17 18  1  0  0  0  0
 16 19  2  0  0  0  0
 19 20  1  0  0  0  0
 20 21  2  0  0  0  0
 21 22  1  0  0  0  0
 22 23  2  0  0  0  0
 23 16  1  0  0  0  0
 18 24  2  0  0  0  0
 24 25  1  0  0  0  0
 25 26  2  0  0  0  0
 26 27  1  0  0  0  0
 27 28  2  0  0  0  0
 28 18  1  0  0  0  0
 21 29  1  0  0  0  0
 29 30  1  0  0  0  0
 30 31  1  0  0  0  0
 26 32  1  0  0  0  0
 32 33  1  0  0  0  0
 30 34  1  0  0  0  0
 34 35  1  0  0  0  0
 35 36  1  0  0  0  0
 36 37  1  0  0  0  0
 37 31  1  0  0  0  0
 37 38  2  0  0  0  0
 38 39  1  0  0  0  0
 39 40  2  0  0  0  0
 40 33  1  0  0  0  0
 33 31  2  0  0  0  0
 34 41  1  0  0  0  0
 40 42  1  0  0  0  0
 39 43  1  0  0  0  0
 43 44  1  0  0  0  0
 30 45  1  1  0  0  0
  7 46  1  1  0  0  0
M  END
>  <cdx:fragmentId>
5

$$$$
