92375.cdx
  Mrv1902 05222410272D          

 17 18  0  0  0  0            999 V2000
    5.2368   -7.1775    0.0000 C   0  0  1  0  0  0  0  0  0  0  0  0
    5.2368   -8.0025    0.0000 C   0  0  1  0  0  0  0  0  0  0  0  0
    5.9513   -8.4150    0.0000 C   0  0  0  0  0  0  0  0  0  0  0  0
    6.6657   -8.0025    0.0000 C   0  0  0  0  0  0  0  0  0  0  0  0
    6.6657   -7.1775    0.0000 C   0  0  0  0  0  0  0  0  0  0  0  0
    5.9513   -6.7650    0.0000 C   0  0  0  0  0  0  0  0  0  0  0  0
    7.4504   -8.2574    0.0000 O   0  0  0  0  0  0  0  0  0  0  0  0
    7.9353   -7.5900    0.0000 C   0  0  0  0  0  0  0  0  0  0  0  0
    7.4504   -6.9226    0.0000 C   0  0  0  0  0  0  0  0  0  0  0  0
    4.5223   -6.7650    0.0000 C   0  0  0  0  0  0  0  0  0  0  0  0
    3.8079   -7.1775    0.0000 C   0  0  0  0  0  0  0  0  0  0  0  0
    4.5223   -5.9400    0.0000 C   0  0  0  0  0  0  0  0  0  0  0  0
    7.7053   -6.1379    0.0000 C   0  0  0  0  0  0  0  0  0  0  0  0
    8.7603   -7.5900    0.0000 O   0  0  0  0  0  0  0  0  0  0  0  0
    4.4118   -8.0025    0.0000 C   0  0  0  0  0  0  0  0  0  0  0  0
    3.9993   -8.7170    0.0000 C   0  0  0  0  0  0  0  0  0  0  0  0
    5.0233   -8.7994    0.0000 C   0  0  0  0  0  0  0  0  0  0  0  0
  1  2  1  0  0  0  0
  2  3  1  0  0  0  0
  3  4  1  0  0  0  0
  4  5  1  0  0  0  0
  5  6  1  0  0  0  0
  6  1  1  0  0  0  0
  4  7  1  0  0  0  0
  7  8  1  0  0  0  0
  8  9  1  0  0  0  0
  9  5  2  0  0  0  0
  1 10  1  6  0  0  0
 10 11  2  0  0  0  0
 10 12  1  0  0  0  0
  9 13  1  0  0  0  0
  8 14  2  0  0  0  0
  2 15  1  0  0  0  0
 15 16  2  0  0  0  0
  2 17  1  6  0  0  0
M  END
>  <cdx:fragmentId>
5

$$$$
