92377.cdx
  Mrv1902 05222410282D          

 16 17  0  0  0  0            999 V2000
    5.3193   -9.7487    0.0000 C   0  0  0  0  0  0  0  0  0  0  0  0
    5.3193  -10.5737    0.0000 C   0  0  2  0  0  0  0  0  0  0  0  0
    6.0338  -10.9863    0.0000 C   0  0  0  0  0  0  0  0  0  0  0  0
    6.7482  -10.5737    0.0000 N   0  0  0  0  0  0  0  0  0  0  0  0
    6.7482   -9.7487    0.0000 C   0  0  0  0  0  0  0  0  0  0  0  0
    6.0338   -9.3362    0.0000 C   0  0  2  0  0  0  0  0  0  0  0  0
    4.6048  -10.9863    0.0000 C   0  0  0  0  0  0  0  0  0  0  0  0
    4.6048  -11.8113    0.0000 O   0  0  0  0  0  0  0  0  0  0  0  0
    6.7482   -8.0987    0.0000 N   0  0  0  0  0  0  0  0  0  0  0  0
    6.0338   -8.5113    0.0000 C   0  0  0  0  0  0  0  0  0  0  0  0
    6.7482   -7.2738    0.0000 C   0  0  0  0  0  0  0  0  0  0  0  0
    6.0338   -6.8613    0.0000 C   0  0  0  0  0  0  0  0  0  0  0  0
    5.3193   -7.2738    0.0000 C   0  0  0  0  0  0  0  0  0  0  0  0
    5.3193   -8.0987    0.0000 C   0  0  0  0  0  0  0  0  0  0  0  0
    7.4627   -6.8613    0.0000 O   0  0  0  0  0  0  0  0  0  0  0  0
    7.4627  -10.9863    0.0000 C   0  0  0  0  0  0  0  0  0  0  0  0
  1  2  1  0  0  0  0
  2  3  1  0  0  0  0
  3  4  1  0  0  0  0
  4  5  1  0  0  0  0
  5  6  1  0  0  0  0
  6  1  1  0  0  0  0
  2  7  1  6  0  0  0
  7  8  1  0  0  0  0
  9 10  1  0  0  0  0
  6 10  1  1  0  0  0
  9 11  1  0  0  0  0
 11 12  1  0  0  0  0
 12 13  2  0  0  0  0
 13 14  1  0  0  0  0
 14 10  2  0  0  0  0
 11 15  2  0  0  0  0
  4 16  1  0  0  0  0
M  END
>  <cdx:fragmentId>
5

$$$$
