92378.cdx
  Mrv1902 05222410182D          

 40 43  0  0  0  0            999 V2000
    5.8135  -11.6678    0.0000 O   0  0  0  0  0  0  0  0  0  0  0  0
    5.5492  -10.8862    0.0000 C   0  0  0  0  0  0  0  0  0  0  0  0
    6.2108  -10.3934    0.0000 C   0  0  1  0  0  0  0  0  0  0  0  0
    6.8840  -10.8704    0.0000 C   0  0  2  0  0  0  0  0  0  0  0  0
    6.6384  -11.6580    0.0000 C   0  0  0  0  0  0  0  0  0  0  0  0
    4.7616  -10.6406    0.0000 O   0  0  0  0  0  0  0  0  0  0  0  0
    7.6655  -10.6061    0.0000 C   0  0  0  0  0  0  0  0  0  0  0  0
    8.2851  -11.1508    0.0000 C   0  0  0  0  0  0  0  0  0  0  0  0
    9.0667  -10.8866    0.0000 C   0  0  0  0  0  0  0  0  0  0  0  0
    9.6863  -11.4313    0.0000 C   0  0  0  0  0  0  0  0  0  0  0  0
    9.5244  -12.2402    0.0000 C   0  0  0  0  0  0  0  0  0  0  0  0
    8.7428  -12.5045    0.0000 C   0  0  0  0  0  0  0  0  0  0  0  0
    8.1232  -11.9598    0.0000 C   0  0  0  0  0  0  0  0  0  0  0  0
   10.4678  -11.1670    0.0000 O   0  0  0  0  0  0  0  0  0  0  0  0
   11.0874  -11.7117    0.0000 C   0  0  0  0  0  0  0  0  0  0  0  0
   10.1440  -12.7849    0.0000 O   0  0  0  0  0  0  0  0  0  0  0  0
    6.2010   -9.5685    0.0000 C   0  0  0  0  0  0  0  0  0  0  0  0
    6.9105   -9.1475    0.0000 C   0  0  0  0  0  0  0  0  0  0  0  0
    6.9007   -8.3226    0.0000 C   0  0  0  0  0  0  0  0  0  0  0  0
    7.6103   -7.9016    0.0000 C   0  0  0  0  0  0  0  0  0  0  0  0
    8.3296   -8.3056    0.0000 C   0  0  0  0  0  0  0  0  0  0  0  0
    8.3394   -9.1305    0.0000 C   0  0  0  0  0  0  0  0  0  0  0  0
    7.6299   -9.5515    0.0000 C   0  0  0  0  0  0  0  0  0  0  0  0
    9.0587   -9.5345    0.0000 O   0  0  0  0  0  0  0  0  0  0  0  0
    9.7682   -9.1135    0.0000 C   0  0  0  0  0  0  0  0  0  0  0  0
    9.0391   -7.8846    0.0000 O   0  0  0  0  0  0  0  0  0  0  0  0
    6.8811   -6.6727    0.0000 C   0  0  0  0  0  0  0  0  0  0  0  0
    7.6005   -7.0766    0.0000 C   0  0  0  0  0  0  0  0  0  0  0  0
    8.3100   -6.6557    0.0000 C   0  0  0  0  0  0  0  0  0  0  0  0
    6.1716   -7.0936    0.0000 C   0  0  0  0  0  0  0  0  0  0  0  0
    5.4523   -6.6897    0.0000 C   0  0  0  0  0  0  0  0  0  0  0  0
    4.7428   -7.1106    0.0000 C   0  0  0  0  0  0  0  0  0  0  0  0
    4.7526   -7.9356    0.0000 C   0  0  0  0  0  0  0  0  0  0  0  0
    5.4719   -8.3395    0.0000 C   0  0  0  0  0  0  0  0  0  0  0  0
    6.1814   -7.9186    0.0000 C   0  0  0  0  0  0  0  0  0  0  0  0
    4.0234   -6.7066    0.0000 O   0  0  0  0  0  0  0  0  0  0  0  0
    3.3139   -7.1276    0.0000 C   0  0  0  0  0  0  0  0  0  0  0  0
    4.0431   -8.3565    0.0000 O   0  0  0  0  0  0  0  0  0  0  0  0
    9.0293   -7.0597    0.0000 O   0  0  0  0  0  0  0  0  0  0  0  0
    6.8713   -5.8477    0.0000 O   0  0  0  0  0  0  0  0  0  0  0  0
  1  2  1  0  0  0  0
  2  3  1  0  0  0  0
  3  4  1  0  0  0  0
  4  5  1  0  0  0  0
  1  5  1  0  0  0  0
  2  6  2  0  0  0  0
  8  9  1  0  0  0  0
  9 10  2  0  0  0  0
 10 11  1  0  0  0  0
 11 12  2  0  0  0  0
 12 13  1  0  0  0  0
  8 13  2  0  0  0  0
 14 15  1  0  0  0  0
 10 14  1  0  0  0  0
 11 16  1  0  0  0  0
  7  8  1  0  0  0  0
  4  7  1  1  0  0  0
 18 19  1  0  0  0  0
 19 20  2  0  0  0  0
 20 21  1  0  0  0  0
 21 22  2  0  0  0  0
 22 23  1  0  0  0  0
 18 23  2  0  0  0  0
 24 25  1  0  0  0  0
 22 24  1  0  0  0  0
 21 26  1  0  0  0  0
 27 28  1  0  0  0  0
 28 29  1  0  0  0  0
 30 31  1  0  0  0  0
 31 32  2  0  0  0  0
 32 33  1  0  0  0  0
 33 34  2  0  0  0  0
 34 35  1  0  0  0  0
 30 35  2  0  0  0  0
 36 37  1  0  0  0  0
 32 36  1  0  0  0  0
 33 38  1  0  0  0  0
 27 30  1  0  0  0  0
 29 39  1  0  0  0  0
 27 40  1  0  0  0  0
 20 28  1  0  0  0  0
 17 18  1  0  0  0  0
  3 17  1  6  0  0  0
M  END
>  <cdx:fragmentId>
63

$$$$
