92379.cdx
  Mrv1902 05222410192D          

 16 18  0  0  0  0            999 V2000
    4.8243   -6.3525    0.0000 C   0  0  0  0  0  0  0  0  0  0  0  0
    4.8243   -7.1775    0.0000 C   0  0  0  0  0  0  0  0  0  0  0  0
    5.5388   -7.5900    0.0000 C   0  0  0  0  0  0  0  0  0  0  0  0
    6.2532   -7.1775    0.0000 C   0  0  0  0  0  0  0  0  0  0  0  0
    6.2532   -6.3525    0.0000 C   0  0  0  0  0  0  0  0  0  0  0  0
    5.5388   -5.9400    0.0000 C   0  0  0  0  0  0  0  0  0  0  0  0
    5.5388   -8.4150    0.0000 C   0  0  0  0  0  0  0  0  0  0  0  0
    6.2532   -8.8275    0.0000 C   0  0  0  0  0  0  0  0  0  0  0  0
    6.9677   -8.4150    0.0000 C   0  0  0  0  0  0  0  0  0  0  0  0
    6.9677   -7.5900    0.0000 C   0  0  0  0  0  0  0  0  0  0  0  0
    7.3802   -6.8755    0.0000 C   0  0  0  0  0  0  0  0  0  0  0  0
    7.7646   -7.8035    0.0000 C   0  0  0  0  0  0  0  0  0  0  0  0
    4.8243   -8.8275    0.0000 O   0  0  0  0  0  0  0  0  0  0  0  0
    3.9993   -7.1775    0.0000 C   0  0  0  0  0  0  0  0  0  0  0  0
    4.6108   -7.9744    0.0000 C   0  0  0  0  0  0  0  0  0  0  0  0
    5.2368   -7.0670    0.0000 C   0  0  0  0  0  0  0  0  0  0  0  0
  1  2  1  0  0  0  0
  2  3  1  0  0  0  0
  3  4  1  0  0  0  0
  4  5  1  0  0  0  0
  5  6  1  0  0  0  0
  6  1  1  0  0  0  0
  3  7  1  0  0  0  0
  7  8  1  0  0  0  0
  8  9  1  0  0  0  0
  9 10  1  0  0  0  0
 10  4  1  0  0  0  0
 10 11  1  0  0  0  0
 10 12  1  0  0  0  0
  7 13  1  0  0  0  0
  2 14  1  0  0  0  0
  2 15  1  0  0  0  0
  1 16  1  0  0  0  0
 16  4  1  0  0  0  0
M  END
>  <cdx:fragmentId>
5

$$$$
