92371.cdx
  Mrv1902 05222410262D          

 26 29  0  0  0  0            999 V2000
    3.7513   -8.8413    0.0000 O   0  0  0  0  0  0  0  0  0  0  0  0
    4.4657   -8.4288    0.0000 C   0  0  0  0  0  0  0  0  0  0  0  0
    4.4657   -7.6037    0.0000 C   0  0  0  0  0  0  0  0  0  0  0  0
    3.7513   -7.1913    0.0000 O   0  0  0  0  0  0  0  0  0  0  0  0
    5.1802   -8.8413    0.0000 C   0  0  0  0  0  0  0  0  0  0  0  0
    5.8947   -8.4288    0.0000 C   0  0  0  0  0  0  0  0  0  0  0  0
    5.8947   -7.6037    0.0000 C   0  0  0  0  0  0  0  0  0  0  0  0
    5.1802   -7.1913    0.0000 C   0  0  0  0  0  0  0  0  0  0  0  0
    6.6092   -8.8413    0.0000 O   0  0  0  0  0  0  0  0  0  0  0  0
    7.3236   -8.4288    0.0000 C   0  0  0  0  0  0  0  0  0  0  0  0
    7.3236   -7.6037    0.0000 C   0  0  0  0  0  0  0  0  0  0  0  0
    6.6092   -7.1913    0.0000 C   0  0  0  0  0  0  0  0  0  0  0  0
    8.0381   -6.3662    0.0000 C   0  0  0  0  0  0  0  0  0  0  0  0
    7.3236   -5.9538    0.0000 C   0  0  0  0  0  0  0  0  0  0  0  0
    6.6092   -6.3662    0.0000 O   0  0  0  0  0  0  0  0  0  0  0  0
    8.7526   -5.9538    0.0000 C   0  0  0  0  0  0  0  0  0  0  0  0
    8.7526   -5.1287    0.0000 C   0  0  0  0  0  0  0  0  0  0  0  0
    8.0381   -4.7162    0.0000 C   0  0  0  0  0  0  0  0  0  0  0  0
    7.3236   -5.1287    0.0000 C   0  0  0  0  0  0  0  0  0  0  0  0
    9.4670   -6.3662    0.0000 O   0  0  0  0  0  0  0  0  0  0  0  0
   10.1815   -5.9538    0.0000 C   0  0  0  0  0  0  0  0  0  0  0  0
   10.1815   -5.1287    0.0000 C   0  0  0  0  0  0  0  0  0  0  0  0
    9.4670   -4.7162    0.0000 C   0  0  0  0  0  0  0  0  0  0  0  0
    8.0381   -8.8413    0.0000 O   0  0  0  0  0  0  0  0  0  0  0  0
    3.0368   -7.6037    0.0000 C   0  0  0  0  0  0  0  0  0  0  0  0
   10.8960   -6.3662    0.0000 O   0  0  0  0  0  0  0  0  0  0  0  0
  1  2  1  0  0  0  0
  2  3  2  0  0  0  0
  3  4  1  0  0  0  0
  2  5  1  0  0  0  0
  5  6  2  0  0  0  0
  6  7  1  0  0  0  0
  7  8  2  0  0  0  0
  8  3  1  0  0  0  0
  6  9  1  0  0  0  0
  9 10  1  0  0  0  0
 10 11  1  0  0  0  0
 11 12  2  0  0  0  0
 12  7  1  0  0  0  0
 13 14  1  0  0  0  0
 14 15  1  0  0  0  0
 15 12  1  0  0  0  0
 13 16  2  0  0  0  0
 16 17  1  0  0  0  0
 17 18  2  0  0  0  0
 18 19  1  0  0  0  0
 19 14  2  0  0  0  0
 16 20  1  0  0  0  0
 20 21  1  0  0  0  0
 21 22  1  0  0  0  0
 22 23  2  0  0  0  0
 23 17  1  0  0  0  0
 10 24  2  0  0  0  0
  4 25  1  0  0  0  0
 21 26  2  0  0  0  0
M  END
>  <cdx:fragmentId>
5

$$$$
