92376.cdx
  Mrv1902 05222410282D          

  9  9  0  0  0  0            999 V2000
    5.6218   -7.8100    0.0000 C   0  0  0  0  0  0  0  0  0  0  0  0
    5.6218   -8.6350    0.0000 C   0  0  0  0  0  0  0  0  0  0  0  0
    6.3363   -9.0475    0.0000 N   0  0  0  0  0  0  0  0  0  0  0  0
    7.0507   -8.6350    0.0000 C   0  0  0  0  0  0  0  0  0  0  0  0
    7.0507   -7.8100    0.0000 C   0  0  0  0  0  0  0  0  0  0  0  0
    6.3363   -7.3975    0.0000 C   0  0  0  0  0  0  0  0  0  0  0  0
    6.3363   -6.5725    0.0000 C   0  0  0  0  0  0  0  0  0  0  0  0
    5.6218   -6.1600    0.0000 O   0  0  0  0  0  0  0  0  0  0  0  0
    7.0507   -6.1600    0.0000 O   0  0  0  0  0  0  0  0  0  0  0  0
  1  2  1  0  0  0  0
  2  3  1  0  0  0  0
  3  4  1  0  0  0  0
  4  5  1  0  0  0  0
  5  6  2  0  0  0  0
  6  1  1  0  0  0  0
  6  7  1  0  0  0  0
  7  8  2  0  0  0  0
  7  9  1  0  0  0  0
M  END
>  <cdx:fragmentId>
5

$$$$
