92373.cdx
  Mrv1902 05222410262D          

 24 27  0  0  0  0            999 V2000
    3.8343   -8.6212    0.0000 C   0  0  0  0  0  0  0  0  0  0  0  0
    3.8343   -9.4462    0.0000 C   0  0  0  0  0  0  0  0  0  0  0  0
    4.5488   -9.8588    0.0000 C   0  0  0  0  0  0  0  0  0  0  0  0
    5.2632   -9.4462    0.0000 C   0  0  0  0  0  0  0  0  0  0  0  0
    5.2632   -8.6212    0.0000 C   0  0  0  0  0  0  0  0  0  0  0  0
    4.5488   -8.2088    0.0000 C   0  0  0  0  0  0  0  0  0  0  0  0
    5.9777   -9.8588    0.0000 C   0  0  0  0  0  0  0  0  0  0  0  0
    6.6922   -9.4462    0.0000 N   0  0  0  0  0  0  0  0  0  0  0  0
    6.6922   -8.6212    0.0000 C   0  0  0  0  0  0  0  0  0  0  0  0
    5.9777   -8.2088    0.0000 N   0  0  0  0  0  0  0  0  0  0  0  0
    5.9777  -10.6837    0.0000 O   0  0  0  0  0  0  0  0  0  0  0  0
    7.4067   -9.8588    0.0000 C   0  0  0  0  0  0  0  0  0  0  0  0
    8.1211   -9.4462    0.0000 C   0  0  0  0  0  0  0  0  0  0  0  0
    8.8748   -9.7818    0.0000 O   0  0  0  0  0  0  0  0  0  0  0  0
    9.4268   -9.1687    0.0000 C   0  0  2  0  0  0  0  0  0  0  0  0
    9.0143   -8.4542    0.0000 C   0  0  2  0  0  0  0  0  0  0  0  0
    8.2074   -8.6258    0.0000 C   0  0  0  0  0  0  0  0  0  0  0  0
    8.1211  -10.2713    0.0000 O   0  0  0  0  0  0  0  0  0  0  0  0
   10.2518   -9.1687    0.0000 C   0  0  0  0  0  0  0  0  0  0  0  0
   10.6643   -8.4542    0.0000 C   0  0  0  0  0  0  0  0  0  0  0  0
   10.2518   -7.7398    0.0000 C   0  0  0  0  0  0  0  0  0  0  0  0
    9.4268   -7.7398    0.0000 N   0  0  0  0  0  0  0  0  0  0  0  0
    8.5294   -7.7868    0.0000 H   0  0  0  0  0  0  0  0  0  0  0  0
    9.7624   -9.9224    0.0000 H   0  0  0  0  0  0  0  0  0  0  0  0
  1  2  2  0  0  0  0
  2  3  1  0  0  0  0
  3  4  2  0  0  0  0
  4  5  1  0  0  0  0
  5  6  2  0  0  0  0
  6  1  1  0  0  0  0
  4  7  1  0  0  0  0
  7  8  1  0  0  0  0
  8  9  1  0  0  0  0
  9 10  2  0  0  0  0
 10  5  1  0  0  0  0
  7 11  2  0  0  0  0
  8 12  1  0  0  0  0
 12 13  1  0  0  0  0
 13 14  1  0  0  0  0
 14 15  1  0  0  0  0
 15 16  1  0  0  0  0
 16 17  1  0  0  0  0
 17 13  1  0  0  0  0
 13 18  1  0  0  0  0
 15 19  1  0  0  0  0
 19 20  1  0  0  0  0
 20 21  1  0  0  0  0
 21 22  1  0  0  0  0
 22 16  1  0  0  0  0
 16 23  1  1  0  0  0
 15 24  1  1  0  0  0
M  END
>  <cdx:fragmentId>
5

$$$$
