92372.cdx
  Mrv1902 05222410262D          

 20 22  0  0  0  0            999 V2000
    5.4455   -7.6725    0.0000 C   0  0  0  0  0  0  0  0  0  0  0  0
    5.4455   -8.4975    0.0000 C   0  0  0  0  0  0  0  0  0  0  0  0
    6.1600   -8.9100    0.0000 C   0  0  0  0  0  0  0  0  0  0  0  0
    6.8745   -8.4975    0.0000 C   0  0  1  0  0  0  0  0  0  0  0  0
    6.8745   -7.6725    0.0000 C   0  0  2  0  0  0  0  0  0  0  0  0
    6.1600   -7.2600    0.0000 C   0  0  2  0  0  0  0  0  0  0  0  0
    7.5889   -8.9100    0.0000 C   0  0  0  0  0  0  0  0  0  0  0  0
    8.3034   -8.4975    0.0000 C   0  0  0  0  0  0  0  0  0  0  0  0
    8.3034   -7.6725    0.0000 C   0  0  2  0  0  0  0  0  0  0  0  0
    7.5889   -7.2600    0.0000 C   0  0  0  0  0  0  0  0  0  0  0  0
    9.0880   -8.7524    0.0000 C   0  0  0  0  0  0  0  0  0  0  0  0
    9.5730   -8.0850    0.0000 C   0  0  0  0  0  0  0  0  0  0  0  0
    9.0880   -7.4176    0.0000 O   0  0  0  0  0  0  0  0  0  0  0  0
   10.3980   -8.0850    0.0000 O   0  0  0  0  0  0  0  0  0  0  0  0
    9.3430   -9.5371    0.0000 C   0  0  0  0  0  0  0  0  0  0  0  0
    8.3034   -6.8475    0.0000 O   0  0  0  0  0  0  0  0  0  0  0  0
    6.8745   -6.8475    0.0000 C   0  0  0  0  0  0  0  0  0  0  0  0
    6.1600   -6.4350    0.0000 O   0  0  0  0  0  0  0  0  0  0  0  0
    6.1600   -9.7350    0.0000 C   0  0  0  0  0  0  0  0  0  0  0  0
    6.8745   -9.3225    0.0000 H   0  0  0  0  0  0  0  0  0  0  0  0
  1  2  1  0  0  0  0
  2  3  1  0  0  0  0
  3  4  1  0  0  0  0
  4  5  1  0  0  0  0
  5  6  1  0  0  0  0
  6  1  1  0  0  0  0
  4  7  1  0  0  0  0
  7  8  1  0  0  0  0
  8  9  1  0  0  0  0
  9 10  1  0  0  0  0
 10  5  1  0  0  0  0
  8 11  2  0  0  0  0
 11 12  1  0  0  0  0
 12 13  1  0  0  0  0
 13  9  1  0  0  0  0
 12 14  2  0  0  0  0
 11 15  1  0  0  0  0
  9 16  1  1  0  0  0
  5 17  1  1  0  0  0
  6 18  1  1  0  0  0
  3 19  2  0  0  0  0
  4 20  1  6  0  0  0
M  END
>  <cdx:fragmentId>
78

$$$$
