92370.cdx
  Mrv1902 05222410272D          

 15 16  0  0  0  0            999 V2000
    4.9893   -7.2188    0.0000 C   0  0  0  0  0  0  0  0  0  0  0  0
    4.9893   -8.0437    0.0000 C   0  0  0  0  0  0  0  0  0  0  0  0
    5.7038   -8.4563    0.0000 C   0  0  0  0  0  0  0  0  0  0  0  0
    6.4182   -8.0437    0.0000 C   0  0  0  0  0  0  0  0  0  0  0  0
    6.4182   -7.2188    0.0000 C   0  0  2  0  0  0  0  0  0  0  0  0
    5.7038   -6.8062    0.0000 C   0  0  0  0  0  0  0  0  0  0  0  0
    7.2029   -8.2987    0.0000 C   0  0  0  0  0  0  0  0  0  0  0  0
    7.6878   -7.6313    0.0000 O   0  0  0  0  0  0  0  0  0  0  0  0
    7.2029   -6.9638    0.0000 C   0  0  1  0  0  0  0  0  0  0  0  0
    7.4578   -9.0833    0.0000 O   0  0  0  0  0  0  0  0  0  0  0  0
    7.4578   -6.1792    0.0000 C   0  0  0  0  0  0  0  0  0  0  0  0
    8.2547   -5.9657    0.0000 C   0  0  0  0  0  0  0  0  0  0  0  0
    8.4682   -5.1688    0.0000 C   0  0  0  0  0  0  0  0  0  0  0  0
    9.2651   -4.9552    0.0000 C   0  0  0  0  0  0  0  0  0  0  0  0
    6.4182   -6.3937    0.0000 H   0  0  0  0  0  0  0  0  0  0  0  0
  1  2  1  0  0  0  0
  2  3  1  0  0  0  0
  3  4  2  0  0  0  0
  4  5  1  0  0  0  0
  5  6  1  0  0  0  0
  6  1  1  0  0  0  0
  4  7  1  0  0  0  0
  7  8  1  0  0  0  0
  8  9  1  0  0  0  0
  9  5  1  0  0  0  0
  7 10  2  0  0  0  0
  9 11  1  6  0  0  0
 11 12  1  0  0  0  0
 12 13  1  0  0  0  0
 13 14  1  0  0  0  0
  5 15  1  1  0  0  0
M  END
>  <cdx:fragmentId>
5

$$$$
