92185.cdx
  Mrv1902 05222410282D          

 13 12  0  0  0  0            999 V2000
   11.8453   -7.5350    0.0000 C   0  0  0  0  0  0  0  0  0  0  0  0
   11.1308   -7.1225    0.0000 C   0  0  0  0  0  0  0  0  0  0  0  0
   10.4163   -7.5350    0.0000 C   0  0  0  0  0  0  0  0  0  0  0  0
    9.7019   -7.1225    0.0000 C   0  0  0  0  0  0  0  0  0  0  0  0
    8.9874   -7.5350    0.0000 C   0  0  0  0  0  0  0  0  0  0  0  0
    8.2729   -7.1225    0.0000 C   0  0  0  0  0  0  0  0  0  0  0  0
    7.5584   -7.5350    0.0000 C   0  0  0  0  0  0  0  0  0  0  0  0
    6.8440   -7.1225    0.0000 C   0  0  0  0  0  0  0  0  0  0  0  0
    6.1295   -7.5350    0.0000 C   0  0  0  0  0  0  0  0  0  0  0  0
    5.4150   -7.1225    0.0000 C   0  0  0  0  0  0  0  0  0  0  0  0
    5.4150   -6.2975    0.0000 C   0  0  0  0  0  0  0  0  0  0  0  0
    4.7006   -5.8850    0.0000 C   0  0  0  0  0  0  0  0  0  0  0  0
    4.7006   -5.0600    0.0000 C   0  0  0  0  0  0  0  0  0  0  0  0
  2  1  1  0  0  0  0
  3  2  1  0  0  0  0
  4  3  1  0  0  0  0
  5  4  1  0  0  0  0
  6  5  1  0  0  0  0
  7  6  1  0  0  0  0
  8  7  1  0  0  0  0
  9  8  1  0  0  0  0
 10  9  2  0  0  0  0
 10 11  1  0  0  0  0
 11 12  1  0  0  0  0
 12 13  1  0  0  0  0
M  END
>  <cdx:fragmentId>
3

$$$$
