92387.cdx
  Mrv1902 05222410182D          

 21 23  0  0  0  0            999 V2000
    4.2193   -7.2188    0.0000 C   0  0  0  0  0  0  0  0  0  0  0  0
    4.2193   -8.0437    0.0000 C   0  0  0  0  0  0  0  0  0  0  0  0
    4.9338   -8.4563    0.0000 C   0  0  0  0  0  0  0  0  0  0  0  0
    5.6482   -8.0437    0.0000 C   0  0  1  0  0  0  0  0  0  0  0  0
    5.6482   -7.2188    0.0000 C   0  0  2  0  0  0  0  0  0  0  0  0
    4.9338   -6.8062    0.0000 C   0  0  0  0  0  0  0  0  0  0  0  0
    6.3627   -8.4563    0.0000 C   0  0  0  0  0  0  0  0  0  0  0  0
    7.0772   -8.0437    0.0000 C   0  0  0  0  0  0  0  0  0  0  0  0
    7.0772   -7.2188    0.0000 C   0  0  0  0  0  0  0  0  0  0  0  0
    6.3627   -6.8062    0.0000 C   0  0  0  0  0  0  0  0  0  0  0  0
    3.5048   -8.4563    0.0000 O   0  0  0  0  0  0  0  0  0  0  0  0
    4.9338   -9.2813    0.0000 C   0  0  0  0  0  0  0  0  0  0  0  0
    6.3627   -9.2813    0.0000 O   0  0  0  0  0  0  0  0  0  0  0  0
    7.0772   -6.3937    0.0000 O   0  0  0  0  0  0  0  0  0  0  0  0
    5.6482   -6.3937    0.0000 C   0  0  0  0  0  0  0  0  0  0  0  0
    5.6482   -8.8688    0.0000 H   0  0  0  0  0  0  0  0  0  0  0  0
    7.8618   -8.2987    0.0000 C   0  0  0  0  0  0  0  0  0  0  0  0
    8.3467   -7.6313    0.0000 C   0  0  0  0  0  0  0  0  0  0  0  0
    7.8618   -6.9638    0.0000 O   0  0  0  0  0  0  0  0  0  0  0  0
    9.1717   -7.6313    0.0000 O   0  0  0  0  0  0  0  0  0  0  0  0
    8.1167   -9.0833    0.0000 O   0  0  0  0  0  0  0  0  0  0  0  0
  1  2  1  0  0  0  0
  2  3  1  0  0  0  0
  3  4  1  0  0  0  0
  4  5  1  0  0  0  0
  5  6  1  0  0  0  0
  6  1  1  0  0  0  0
  4  7  1  0  0  0  0
  7  8  1  0  0  0  0
  8  9  1  0  0  0  0
  9 10  1  0  0  0  0
 10  5  1  0  0  0  0
  2 11  1  0  0  0  0
  3 12  2  0  0  0  0
  7 13  1  0  0  0  0
  9 14  1  0  0  0  0
  5 15  1  1  0  0  0
  4 16  1  6  0  0  0
  8 17  1  0  0  0  0
 17 18  1  0  0  0  0
 18 19  1  0  0  0  0
 19  9  1  0  0  0  0
 18 20  2  0  0  0  0
 17 21  2  0  0  0  0
M  END
>  <cdx:fragmentId>
5

$$$$
