92139.cdx
  Mrv1902 05222410282D          

 13 12  0  0  0  0            999 V2000
    2.9263   -7.4800    0.0000 C   0  0  0  0  0  0  0  0  0  0  0  0
    3.6407   -7.0675    0.0000 C   0  0  0  0  0  0  0  0  0  0  0  0
    4.3552   -7.4800    0.0000 C   0  0  0  0  0  0  0  0  0  0  0  0
    5.0697   -7.0675    0.0000 C   0  0  0  0  0  0  0  0  0  0  0  0
    5.7842   -7.4800    0.0000 C   0  0  0  0  0  0  0  0  0  0  0  0
    6.4986   -7.0675    0.0000 C   0  0  0  0  0  0  0  0  0  0  0  0
    7.2131   -7.4800    0.0000 C   0  0  0  0  0  0  0  0  0  0  0  0
    7.9276   -7.0675    0.0000 C   0  0  0  0  0  0  0  0  0  0  0  0
    8.6420   -7.4800    0.0000 C   0  0  0  0  0  0  0  0  0  0  0  0
    9.3565   -7.0675    0.0000 C   0  0  0  0  0  0  0  0  0  0  0  0
   10.0710   -7.4800    0.0000 C   0  0  0  0  0  0  0  0  0  0  0  0
    5.7842   -8.3050    0.0000 C   0  0  0  0  0  0  0  0  0  0  0  0
    7.9276   -6.2425    0.0000 C   0  0  0  0  0  0  0  0  0  0  0  0
  1  2  1  0  0  0  0
  2  3  1  0  0  0  0
  3  4  1  0  0  0  0
  4  5  1  0  0  0  0
  5  6  1  0  0  0  0
  6  7  1  0  0  0  0
  7  8  1  0  0  0  0
  8  9  1  0  0  0  0
  9 10  1  0  0  0  0
 10 11  1  0  0  0  0
  5 12  1  0  0  0  0
  8 13  1  0  0  0  0
M  END
>  <cdx:fragmentId>
3

$$$$
