92380.cdx
  Mrv1902 05222410202D          

 45 48  0  0  0  0            999 V2000
    2.1431   -6.4763    0.0000 C   0  0  1  0  0  0  0  0  0  0  0  0
    2.1431   -7.3012    0.0000 C   0  0  1  0  0  0  0  0  0  0  0  0
    2.8575   -7.7138    0.0000 C   0  0  2  0  0  0  0  0  0  0  0  0
    3.5720   -7.3012    0.0000 C   0  0  2  0  0  0  0  0  0  0  0  0
    3.5720   -6.4763    0.0000 O   0  0  0  0  0  0  0  0  0  0  0  0
    2.8575   -6.0638    0.0000 C   0  0  2  0  0  0  0  0  0  0  0  0
    3.5720   -4.8263    0.0000 O   0  0  0  0  0  0  0  0  0  0  0  0
    2.8575   -5.2387    0.0000 C   0  0  0  0  0  0  0  0  0  0  0  0
    2.8575   -8.5388    0.0000 O   0  0  0  0  0  0  0  0  0  0  0  0
    4.2865   -8.5388    0.0000 C   0  0  0  0  0  0  0  0  0  0  0  0
    4.2865   -7.7138    0.0000 O   0  0  0  0  0  0  0  0  0  0  0  0
    5.0009   -8.9513    0.0000 C   0  0  1  0  0  0  0  0  0  0  0  0
    5.7154   -8.5388    0.0000 O   0  0  0  0  0  0  0  0  0  0  0  0
    5.0009   -9.7763    0.0000 C   0  0  2  0  0  0  0  0  0  0  0  0
    5.7154  -10.1888    0.0000 C   0  0  1  0  0  0  0  0  0  0  0  0
    6.4299   -9.7763    0.0000 C   0  0  2  0  0  0  0  0  0  0  0  0
    6.4299   -8.9513    0.0000 C   0  0  1  0  0  0  0  0  0  0  0  0
    7.1444   -8.5388    0.0000 O   0  0  0  0  0  0  0  0  0  0  0  0
    7.1444   -7.7138    0.0000 C   0  0  0  0  0  0  0  0  0  0  0  0
    7.8588   -7.3012    0.0000 C   0  0  2  0  0  0  0  0  0  0  0  0
    7.8588   -6.4763    0.0000 C   0  0  1  0  0  0  0  0  0  0  0  0
    7.1444   -6.0638    0.0000 O   0  0  0  0  0  0  0  0  0  0  0  0
    8.5733   -7.7138    0.0000 O   0  0  0  0  0  0  0  0  0  0  0  0
    9.2878   -7.3012    0.0000 C   0  0  1  0  0  0  0  0  0  0  0  0
    9.2878   -6.4763    0.0000 C   0  0  1  0  0  0  0  0  0  0  0  0
    8.5733   -6.0638    0.0000 C   0  0  1  0  0  0  0  0  0  0  0  0
   10.0022   -7.7138    0.0000 O   0  0  0  0  0  0  0  0  0  0  0  0
   10.0022   -6.0638    0.0000 O   0  0  0  0  0  0  0  0  0  0  0  0
   10.0022   -8.5387    0.0000 C   0  0  0  0  0  0  0  0  0  0  0  0
   10.7167   -8.9512    0.0000 C   0  0  1  0  0  0  0  0  0  0  0  0
   11.4312   -8.5387    0.0000 O   0  0  0  0  0  0  0  0  0  0  0  0
   10.7167   -9.7762    0.0000 C   0  0  2  0  0  0  0  0  0  0  0  0
   11.4312  -10.1887    0.0000 C   0  0  1  0  0  0  0  0  0  0  0  0
   12.1456   -9.7762    0.0000 C   0  0  2  0  0  0  0  0  0  0  0  0
   12.1456   -8.9512    0.0000 C   0  0  0  0  0  0  0  0  0  0  0  0
    1.4286   -7.7138    0.0000 O   0  0  0  0  0  0  0  0  0  0  0  0
    5.7154  -11.0137    0.0000 O   0  0  0  0  0  0  0  0  0  0  0  0
   11.4312  -11.0137    0.0000 O   0  0  0  0  0  0  0  0  0  0  0  0
    1.4286   -6.0638    0.0000 O   0  0  0  0  0  0  0  0  0  0  0  0
    4.2865  -10.1888    0.0000 O   0  0  0  0  0  0  0  0  0  0  0  0
    7.1444  -10.1888    0.0000 O   0  0  0  0  0  0  0  0  0  0  0  0
    8.5733   -5.2387    0.0000 O   0  0  0  0  0  0  0  0  0  0  0  0
   10.0022  -10.1887    0.0000 O   0  0  0  0  0  0  0  0  0  0  0  0
   12.8601  -10.1887    0.0000 O   0  0  0  0  0  0  0  0  0  0  0  0
   12.8601   -8.5387    0.0000 O   0  0  0  0  0  0  0  0  0  0  0  0
  1  2  1  0  0  0  0
  2  3  1  0  0  0  0
  3  4  1  0  0  0  0
  4  5  1  0  0  0  0
  5  6  1  0  0  0  0
  6  1  1  0  0  0  0
  7  8  1  0  0  0  0
  6  8  1  1  0  0  0
  3  9  1  6  0  0  0
 10 11  1  0  0  0  0
  4 11  1  6  0  0  0
 12 10  1  1  0  0  0
 12 13  1  0  0  0  0
 12 14  1  0  0  0  0
 14 15  1  0  0  0  0
 15 16  1  0  0  0  0
 16 17  1  0  0  0  0
 17 13  1  0  0  0  0
 17 18  1  6  0  0  0
 18 19  1  0  0  0  0
 20 19  1  6  0  0  0
 20 21  1  0  0  0  0
 21 22  1  1  0  0  0
 20 23  1  0  0  0  0
 23 24  1  0  0  0  0
 24 25  1  0  0  0  0
 25 26  1  0  0  0  0
 26 21  1  0  0  0  0
 24 27  1  1  0  0  0
 25 28  1  1  0  0  0
 27 29  1  0  0  0  0
 30 29  1  1  0  0  0
 30 31  1  0  0  0  0
 30 32  1  0  0  0  0
 32 33  1  0  0  0  0
 33 34  1  0  0  0  0
 34 35  1  0  0  0  0
 35 31  1  0  0  0  0
  2 36  1  1  0  0  0
 15 37  1  1  0  0  0
 33 38  1  1  0  0  0
  1 39  1  6  0  0  0
 14 40  1  6  0  0  0
 16 41  1  6  0  0  0
 26 42  1  6  0  0  0
 32 43  1  6  0  0  0
 34 44  1  6  0  0  0
 35 45  1  0  0  0  0
M  END
>  <cdx:fragmentId>
5

$$$$
