92097.cdx
  Mrv1902 05222410182D          

 42 46  0  0  0  0            999 V2000
    3.9998   -4.2900    0.0000 O   0  0  0  0  0  0  0  0  0  0  0  0
   10.4301   -3.0525    0.0000 O   0  0  0  0  0  0  0  0  0  0  0  0
    9.7156   -4.2900    0.0000 C   0  0  0  0  0  0  0  0  0  0  0  0
    9.7156   -3.4650    0.0000 C   0  0  0  0  0  0  0  0  0  0  0  0
    9.0011   -3.0525    0.0000 C   0  0  0  0  0  0  0  0  0  0  0  0
    8.2867   -3.4650    0.0000 C   0  0  0  0  0  0  0  0  0  0  0  0
    9.0011   -4.7025    0.0000 C   0  0  0  0  0  0  0  0  0  0  0  0
    8.2867   -4.2900    0.0000 C   0  0  0  0  0  0  0  0  0  0  0  0
    8.2867   -5.9400    0.0000 O   0  0  0  0  0  0  0  0  0  0  0  0
    5.4288   -6.7650    0.0000 O   0  0  0  0  0  0  0  0  0  0  0  0
    6.8577   -6.7650    0.0000 O   0  0  0  0  0  0  0  0  0  0  0  0
    6.8577   -5.9400    0.0000 C   0  0  0  0  0  0  0  0  0  0  0  0
    7.5722   -5.5275    0.0000 C   0  0  0  0  0  0  0  0  0  0  0  0
    7.5722   -4.7025    0.0000 C   0  0  0  0  0  0  0  0  0  0  0  0
    6.8577   -4.2900    0.0000 O   0  0  0  0  0  0  0  0  0  0  0  0
    5.4288   -5.9400    0.0000 C   0  0  0  0  0  0  0  0  0  0  0  0
    6.1432   -5.5275    0.0000 C   0  0  0  0  0  0  0  0  0  0  0  0
    6.1432   -4.7025    0.0000 C   0  0  0  0  0  0  0  0  0  0  0  0
    5.4288   -4.2900    0.0000 C   0  0  0  0  0  0  0  0  0  0  0  0
    4.7143   -4.7025    0.0000 C   0  0  0  0  0  0  0  0  0  0  0  0
    4.7143   -5.5275    0.0000 C   0  0  0  0  0  0  0  0  0  0  0  0
    8.2867   -6.7650    0.0000 C   0  0  2  0  0  0  0  0  0  0  0  0
    7.5722   -7.1775    0.0000 O   0  0  0  0  0  0  0  0  0  0  0  0
    7.5722   -8.0025    0.0000 C   0  0  1  0  0  0  0  0  0  0  0  0
    8.2867   -8.4150    0.0000 C   0  0  2  0  0  0  0  0  0  0  0  0
    9.0011   -8.0025    0.0000 C   0  0  1  0  0  0  0  0  0  0  0  0
    9.0011   -7.1775    0.0000 C   0  0  1  0  0  0  0  0  0  0  0  0
    6.8577   -8.4150    0.0000 C   0  0  0  0  0  0  0  0  0  0  0  0
    9.7156   -8.4150    0.0000 O   0  0  0  0  0  0  0  0  0  0  0  0
    9.7156   -6.7650    0.0000 O   0  0  0  0  0  0  0  0  0  0  0  0
    8.2867   -9.2400    0.0000 O   0  0  0  0  0  0  0  0  0  0  0  0
    6.8577   -9.2400    0.0000 O   0  0  0  0  0  0  0  0  0  0  0  0
    6.1432   -9.6525    0.0000 C   0  0  2  0  0  0  0  0  0  0  0  0
    5.4288   -9.2400    0.0000 O   0  0  0  0  0  0  0  0  0  0  0  0
    4.7143   -9.6525    0.0000 C   0  0  2  0  0  0  0  0  0  0  0  0
    4.7143  -10.4775    0.0000 C   0  0  1  0  0  0  0  0  0  0  0  0
    5.4288  -10.8900    0.0000 C   0  0  2  0  0  0  0  0  0  0  0  0
    6.1432  -10.4775    0.0000 C   0  0  1  0  0  0  0  0  0  0  0  0
    3.9998  -10.8900    0.0000 O   0  0  0  0  0  0  0  0  0  0  0  0
    3.9998   -9.2400    0.0000 C   0  0  0  0  0  0  0  0  0  0  0  0
    5.4288  -11.7150    0.0000 O   0  0  0  0  0  0  0  0  0  0  0  0
    6.8577  -10.8900    0.0000 O   0  0  0  0  0  0  0  0  0  0  0  0
 20  1  1  0  0  0  0
  2  4  1  0  0  0  0
  3  7  1  0  0  0  0
  4  3  2  0  0  0  0
  5  4  1  0  0  0  0
  6  5  2  0  0  0  0
  8  6  1  0  0  0  0
  8  7  2  0  0  0  0
 14  8  1  0  0  0  0
 13  9  1  0  0  0  0
 10 16  1  0  0  0  0
 12 11  2  0  0  0  0
 12 17  1  0  0  0  0
 13 12  1  0  0  0  0
 14 13  2  0  0  0  0
 15 14  1  0  0  0  0
 18 15  1  0  0  0  0
 16 21  1  0  0  0  0
 17 16  2  0  0  0  0
 18 17  1  0  0  0  0
 19 18  2  0  0  0  0
 20 19  1  0  0  0  0
 21 20  2  0  0  0  0
 22  9  1  1  0  0  0
 22 23  1  0  0  0  0
 23 24  1  0  0  0  0
 24 25  1  0  0  0  0
 25 26  1  0  0  0  0
 26 27  1  0  0  0  0
 27 22  1  0  0  0  0
 24 28  1  1  0  0  0
 26 29  1  1  0  0  0
 27 30  1  6  0  0  0
 25 31  1  6  0  0  0
 28 32  1  0  0  0  0
 33 32  1  1  0  0  0
 33 34  1  0  0  0  0
 34 35  1  0  0  0  0
 35 36  1  0  0  0  0
 36 37  1  0  0  0  0
 37 38  1  0  0  0  0
 38 33  1  0  0  0  0
 36 39  1  1  0  0  0
 35 40  1  6  0  0  0
 37 41  1  6  0  0  0
 38 42  1  6  0  0  0
M  END
>  <cdx:fragmentId>
5

$$$$
