92381.cdx
  Mrv1902 05222410202D          

 12 12  0  0  0  0            999 V2000
    5.5339   -5.8803    0.0000 O   0  0  0  0  0  0  0  0  0  0  0  0
    6.2483   -5.4678    0.0000 C   0  0  0  0  0  0  0  0  0  0  0  0
    7.6705   -4.6311    0.0000 C   0  0  0  0  0  0  0  0  0  0  0  0
    9.1196   -7.0943    0.0000 O   0  0  0  0  0  0  0  0  0  0  0  0
    7.6975   -7.9310    0.0000 O   0  0  0  0  0  0  0  0  0  0  0  0
    6.2618   -7.1177    0.0000 O   0  0  0  0  0  0  0  0  0  0  0  0
    8.3950   -5.8627    0.0000 C   0  0  0  0  0  0  0  0  0  0  0  0
    8.4018   -6.6877    0.0000 C   0  0  1  0  0  0  0  0  0  0  0  0
    7.6907   -7.1060    0.0000 C   0  0  2  0  0  0  0  0  0  0  0  0
    6.9729   -6.6994    0.0000 C   0  0  1  0  0  0  0  0  0  0  0  0
    6.9661   -5.8744    0.0000 C   0  0  2  0  0  0  0  0  0  0  0  0
    7.6772   -5.4561    0.0000 N   0  0  0  0  0  0  0  0  0  0  0  0
 11  2  1  1  0  0  0
  2  1  1  0  0  0  0
 12  3  1  0  0  0  0
  8  4  1  6  0  0  0
  9  5  1  1  0  0  0
 10  6  1  6  0  0  0
 12  7  1  0  0  0  0
  8  7  1  0  0  0  0
  9  8  1  0  0  0  0
 10  9  1  0  0  0  0
 11 10  1  0  0  0  0
 12 11  1  0  0  0  0
M  END
>  <cdx:fragmentId>
5

$$$$
