92383.cdx
  Mrv1902 05222410192D          

 10  9  0  0  0  0            999 V2000
    9.8388   -5.6512    0.0000 C   0  0  0  0  0  0  0  0  0  0  0  0
    9.1244   -5.2387    0.0000 C   0  0  0  0  0  0  0  0  0  0  0  0
    8.4099   -5.6512    0.0000 C   0  0  0  0  0  0  0  0  0  0  0  0
    7.6954   -5.2387    0.0000 C   0  0  0  0  0  0  0  0  0  0  0  0
    6.9809   -5.6512    0.0000 C   0  0  0  0  0  0  0  0  0  0  0  0
    6.2665   -5.2387    0.0000 C   0  0  0  0  0  0  0  0  0  0  0  0
    5.5520   -5.6512    0.0000 C   0  0  0  0  0  0  0  0  0  0  0  0
    4.8375   -5.2387    0.0000 O   0  0  0  0  0  0  0  0  0  0  0  0
    5.5520   -6.4763    0.0000 C   0  0  0  0  0  0  0  0  0  0  0  0
    4.8375   -6.8888    0.0000 C   0  0  0  0  0  0  0  0  0  0  0  0
  2  1  1  0  0  0  0
  3  2  1  0  0  0  0
  4  3  1  0  0  0  0
  5  4  1  0  0  0  0
  6  5  1  0  0  0  0
  7  6  1  0  0  0  0
  8  7  1  0  0  0  0
  7  9  1  0  0  0  0
  9 10  1  0  0  0  0
M  END
>  <cdx:fragmentId>
3

$$$$
