92386.cdx
  Mrv1902 05222410192D          

 13 13  0  0  0  0            999 V2000
    5.7731   -8.6487    0.0000 C   0  0  0  0  0  0  0  0  0  0  0  0
    5.7731   -9.4738    0.0000 C   0  0  0  0  0  0  0  0  0  0  0  0
    6.4875   -9.8863    0.0000 C   0  0  0  0  0  0  0  0  0  0  0  0
    7.2020   -9.4738    0.0000 C   0  0  0  0  0  0  0  0  0  0  0  0
    7.2020   -8.6487    0.0000 C   0  0  0  0  0  0  0  0  0  0  0  0
    6.4875   -8.2363    0.0000 C   0  0  0  0  0  0  0  0  0  0  0  0
    6.4875  -10.7112    0.0000 O   0  0  0  0  0  0  0  0  0  0  0  0
    5.0586   -9.8863    0.0000 O   0  0  0  0  0  0  0  0  0  0  0  0
    4.3441   -9.4738    0.0000 C   0  0  0  0  0  0  0  0  0  0  0  0
    6.4875   -7.4112    0.0000 C   0  0  0  0  0  0  0  0  0  0  0  0
    7.2020   -6.9988    0.0000 C   0  0  0  0  0  0  0  0  0  0  0  0
    7.2020   -6.1737    0.0000 C   0  0  0  0  0  0  0  0  0  0  0  0
    7.9165   -5.7612    0.0000 O   0  0  0  0  0  0  0  0  0  0  0  0
  1  2  2  0  0  0  0
  2  3  1  0  0  0  0
  3  4  2  0  0  0  0
  4  5  1  0  0  0  0
  5  6  2  0  0  0  0
  6  1  1  0  0  0  0
  3  7  1  0  0  0  0
  2  8  1  0  0  0  0
  8  9  1  0  0  0  0
  6 10  1  0  0  0  0
 10 11  2  0  0  0  0
 11 12  1  0  0  0  0
 12 13  1  0  0  0  0
M  END
>  <cdx:fragmentId>
5

$$$$
