92094.cdx
  Mrv1902 05222410192D          

  6  6  0  0  0  0            999 V2000
    7.5374   -7.6581    0.0000 C   0  0  0  0  0  0  0  0  0  0  0  0
    7.2784   -6.8748    0.0000 C   0  0  0  0  0  0  0  0  0  0  0  0
    6.4534   -6.8791    0.0000 C   0  0  0  0  0  0  0  0  0  0  0  0
    6.2025   -7.6650    0.0000 C   0  0  0  0  0  0  0  0  0  0  0  0
    6.8725   -8.1465    0.0000 S   0  0  0  0  0  0  0  0  0  0  0  0
    7.7598   -6.2048    0.0000 C   0  0  0  0  0  0  0  0  0  0  0  0
  1  2  2  0  0  0  0
  2  3  1  0  0  0  0
  3  4  2  0  0  0  0
  4  5  1  0  0  0  0
  5  1  1  0  0  0  0
  2  6  1  0  0  0  0
M  END
>  <cdx:fragmentId>
5

$$$$
