92394.cdx
  Mrv1902 05222410202D          

 54 59  0  0  0  0            999 V2000
    9.4078  -10.6235    0.0000 O   0  0  0  0  0  0  0  0  0  0  0  0
   14.4091   -8.5610    0.0000 O   0  0  0  0  0  0  0  0  0  0  0  0
   15.1236   -7.3235    0.0000 C   0  0  0  0  0  0  0  0  0  0  0  0
   14.4091   -6.9110    0.0000 O   0  0  0  0  0  0  0  0  0  0  0  0
   12.2657   -7.3235    0.0000 C   0  0  0  0  0  0  0  0  0  0  0  0
   12.9802   -6.9110    0.0000 C   0  0  0  0  0  0  0  0  0  0  0  0
   13.6946   -7.3235    0.0000 C   0  0  0  0  0  0  0  0  0  0  0  0
   13.6946   -8.1485    0.0000 C   0  0  0  0  0  0  0  0  0  0  0  0
   12.9802   -8.5610    0.0000 C   0  0  0  0  0  0  0  0  0  0  0  0
   12.2657   -8.1485    0.0000 C   0  0  0  0  0  0  0  0  0  0  0  0
   10.8368  -10.6235    0.0000 O   0  0  0  0  0  0  0  0  0  0  0  0
   10.8368   -8.1485    0.0000 O   0  0  0  0  0  0  0  0  0  0  0  0
   10.1223   -8.5610    0.0000 C   0  0  0  0  0  0  0  0  0  0  0  0
    9.4078   -8.1485    0.0000 C   0  0  0  0  0  0  0  0  0  0  0  0
    8.6933   -8.5610    0.0000 C   0  0  0  0  0  0  0  0  0  0  0  0
    8.6933   -9.3860    0.0000 C   0  0  0  0  0  0  0  0  0  0  0  0
    9.4078   -9.7985    0.0000 C   0  0  0  0  0  0  0  0  0  0  0  0
   10.1223   -9.3860    0.0000 C   0  0  0  0  0  0  0  0  0  0  0  0
   10.8368   -9.7985    0.0000 C   0  0  0  0  0  0  0  0  0  0  0  0
   11.5512   -9.3860    0.0000 C   0  0  0  0  0  0  0  0  0  0  0  0
   11.5512   -8.5610    0.0000 C   0  0  1  0  0  0  0  0  0  0  0  0
    7.9789   -8.1485    0.0000 O   0  0  0  0  0  0  0  0  0  0  0  0
   14.4091   -9.3860    0.0000 C   0  0  2  0  0  0  0  0  0  0  0  0
   13.6946   -9.7985    0.0000 O   0  0  0  0  0  0  0  0  0  0  0  0
   13.6946  -10.6235    0.0000 C   0  0  1  0  0  0  0  0  0  0  0  0
   14.4091  -11.0360    0.0000 C   0  0  2  0  0  0  0  0  0  0  0  0
   15.1236  -10.6235    0.0000 C   0  0  1  0  0  0  0  0  0  0  0  0
   15.1236   -9.7985    0.0000 C   0  0  1  0  0  0  0  0  0  0  0  0
   12.9802  -11.0360    0.0000 C   0  0  0  0  0  0  0  0  0  0  0  0
   15.8381  -11.0360    0.0000 O   0  0  0  0  0  0  0  0  0  0  0  0
   12.9802  -11.8610    0.0000 O   0  0  0  0  0  0  0  0  0  0  0  0
   14.4091  -11.8610    0.0000 O   0  0  0  0  0  0  0  0  0  0  0  0
   15.8381   -9.3860    0.0000 O   0  0  0  0  0  0  0  0  0  0  0  0
    7.2644   -8.5610    0.0000 C   0  0  2  0  0  0  0  0  0  0  0  0
    6.5499   -8.1485    0.0000 O   0  0  0  0  0  0  0  0  0  0  0  0
    5.8355   -8.5610    0.0000 C   0  0  1  0  0  0  0  0  0  0  0  0
    5.8355   -9.3860    0.0000 C   0  0  2  0  0  0  0  0  0  0  0  0
    6.5499   -9.7985    0.0000 C   0  0  1  0  0  0  0  0  0  0  0  0
    7.2644   -9.3860    0.0000 C   0  0  1  0  0  0  0  0  0  0  0  0
    5.1210   -8.1485    0.0000 C   0  0  0  0  0  0  0  0  0  0  0  0
    6.5499  -10.6235    0.0000 O   0  0  0  0  0  0  0  0  0  0  0  0
    5.1210   -9.7985    0.0000 O   0  0  0  0  0  0  0  0  0  0  0  0
    7.9789   -9.7985    0.0000 O   0  0  0  0  0  0  0  0  0  0  0  0
    4.4065   -8.5610    0.0000 O   0  0  0  0  0  0  0  0  0  0  0  0
    3.6920   -8.1485    0.0000 C   0  0  2  0  0  0  0  0  0  0  0  0
    3.6920   -7.3235    0.0000 O   0  0  0  0  0  0  0  0  0  0  0  0
    2.9776   -6.9110    0.0000 C   0  0  2  0  0  0  0  0  0  0  0  0
    2.2631   -7.3235    0.0000 C   0  0  1  0  0  0  0  0  0  0  0  0
    2.2631   -8.1485    0.0000 C   0  0  2  0  0  0  0  0  0  0  0  0
    2.9776   -8.5610    0.0000 C   0  0  1  0  0  0  0  0  0  0  0  0
    1.5486   -6.9110    0.0000 O   0  0  0  0  0  0  0  0  0  0  0  0
    2.9776   -6.0860    0.0000 C   0  0  0  0  0  0  0  0  0  0  0  0
    1.5486   -8.5610    0.0000 O   0  0  0  0  0  0  0  0  0  0  0  0
    2.9776   -9.3860    0.0000 O   0  0  0  0  0  0  0  0  0  0  0  0
 22 15  1  0  0  0  0
 17  1  1  0  0  0  0
 21 10  1  6  0  0  0
  8  2  1  0  0  0  0
  7  4  1  0  0  0  0
  4  3  1  0  0  0  0
 10  5  2  0  0  0  0
  6  5  1  0  0  0  0
  7  6  2  0  0  0  0
  8  7  1  0  0  0  0
  9  8  2  0  0  0  0
 10  9  1  0  0  0  0
 19 11  2  0  0  0  0
 21 12  1  0  0  0  0
 13 12  1  0  0  0  0
 18 13  2  0  0  0  0
 14 13  1  0  0  0  0
 15 14  2  0  0  0  0
 16 15  1  0  0  0  0
 17 16  2  0  0  0  0
 18 17  1  0  0  0  0
 19 18  1  0  0  0  0
 20 19  1  0  0  0  0
 21 20  1  0  0  0  0
 23  2  1  1  0  0  0
 23 24  1  0  0  0  0
 24 25  1  0  0  0  0
 25 26  1  0  0  0  0
 26 27  1  0  0  0  0
 27 28  1  0  0  0  0
 28 23  1  0  0  0  0
 25 29  1  1  0  0  0
 27 30  1  1  0  0  0
 29 31  1  0  0  0  0
 26 32  1  6  0  0  0
 28 33  1  6  0  0  0
 34 22  1  1  0  0  0
 34 35  1  0  0  0  0
 35 36  1  0  0  0  0
 36 37  1  0  0  0  0
 37 38  1  0  0  0  0
 38 39  1  0  0  0  0
 39 34  1  0  0  0  0
 36 40  1  1  0  0  0
 38 41  1  1  0  0  0
 37 42  1  6  0  0  0
 39 43  1  6  0  0  0
 40 44  1  0  0  0  0
 45 44  1  1  0  0  0
 45 46  1  0  0  0  0
 46 47  1  0  0  0  0
 47 48  1  0  0  0  0
 48 49  1  0  0  0  0
 49 50  1  0  0  0  0
 50 45  1  0  0  0  0
 48 51  1  1  0  0  0
 47 52  1  6  0  0  0
 49 53  1  6  0  0  0
 50 54  1  6  0  0  0
M  END
>  <cdx:fragmentId>
33

$$$$
