92231.cdx
  Mrv1902 05222410182D          

 17 17  0  0  0  0            999 V2000
    5.9656   -7.4800    0.0000 C   0  0  0  0  0  0  0  0  0  0  0  0
    5.9656   -8.3050    0.0000 C   0  0  0  0  0  0  0  0  0  0  0  0
    6.6800   -8.7175    0.0000 C   0  0  0  0  0  0  0  0  0  0  0  0
    7.3945   -8.3050    0.0000 C   0  0  0  0  0  0  0  0  0  0  0  0
    7.3945   -7.4800    0.0000 C   0  0  0  0  0  0  0  0  0  0  0  0
    6.6800   -7.0675    0.0000 C   0  0  0  0  0  0  0  0  0  0  0  0
    6.6800   -9.5425    0.0000 O   0  0  0  0  0  0  0  0  0  0  0  0
    5.2511   -8.7175    0.0000 O   0  0  0  0  0  0  0  0  0  0  0  0
    4.5366   -8.3050    0.0000 C   0  0  0  0  0  0  0  0  0  0  0  0
    6.6800   -6.2425    0.0000 C   0  0  0  0  0  0  0  0  0  0  0  0
    5.9656   -5.8300    0.0000 O   0  0  0  0  0  0  0  0  0  0  0  0
    7.3945   -5.8300    0.0000 C   0  0  0  0  0  0  0  0  0  0  0  0
    8.1090   -6.2425    0.0000 O   0  0  0  0  0  0  0  0  0  0  0  0
    7.3945   -5.0050    0.0000 C   0  0  0  0  0  0  0  0  0  0  0  0
    8.1090   -4.5925    0.0000 O   0  0  0  0  0  0  0  0  0  0  0  0
    8.1090   -8.7175    0.0000 O   0  0  0  0  0  0  0  0  0  0  0  0
    8.8234   -8.3050    0.0000 C   0  0  0  0  0  0  0  0  0  0  0  0
  1  2  2  0  0  0  0
  2  3  1  0  0  0  0
  3  4  2  0  0  0  0
  4  5  1  0  0  0  0
  5  6  2  0  0  0  0
  6  1  1  0  0  0  0
  3  7  1  0  0  0  0
  2  8  1  0  0  0  0
  8  9  1  0  0  0  0
  6 10  1  0  0  0  0
 10 11  1  0  0  0  0
 10 12  1  0  0  0  0
 12 13  1  0  0  0  0
 12 14  1  0  0  0  0
 14 15  1  0  0  0  0
  4 16  1  0  0  0  0
 16 17  1  0  0  0  0
M  END
>  <cdx:fragmentId>
5

$$$$
