8140.cdx
  Mrv1902 05222410222D          

  9 10  0  0  0  0            999 V2000
    6.1305   -4.8663    0.0000 C   0  0  0  0  0  0  0  0  0  0  0  0
    5.3262   -4.6827    0.0000 C   0  0  0  0  0  0  0  0  0  0  0  0
    4.9682   -3.9394    0.0000 N   0  0  0  0  0  0  0  0  0  0  0  0
    5.3262   -3.1961    0.0000 C   0  0  0  0  0  0  0  0  0  0  0  0
    6.1305   -3.0125    0.0000 C   0  0  0  0  0  0  0  0  0  0  0  0
    5.6372   -3.5675    0.0000 C   0  0  0  0  0  0  0  0  0  0  0  0
    5.6372   -4.3100    0.0000 C   0  0  0  0  0  0  0  0  0  0  0  0
    6.7755   -4.3519    0.0000 C   0  0  0  0  0  0  0  0  0  0  0  0
    6.7755   -3.5269    0.0000 C   0  0  0  0  0  0  0  0  0  0  0  0
  1  2  1  0  0  0  0
  2  3  1  0  0  0  0
  3  4  1  0  0  0  0
  4  5  1  0  0  0  0
  5  6  1  0  0  0  0
  6  7  1  0  0  0  0
  8  9  1  0  0  0  0
  1  7  1  0  0  0  0
  1  8  1  0  0  0  0
  9  5  1  0  0  0  0
M  END
>  <cdx:groupId>
30

>  <cdx:fragmentId>
5

$$$$
