92411.cdx
  Mrv1902 05222410282D          

 25 27  0  0  0  0            999 V2000
    6.6927   -8.9724    0.0000 O   0  0  0  0  0  0  0  0  0  0  0  0
    9.5506   -6.4974    0.0000 C   0  0  0  0  0  0  0  0  0  0  0  0
    9.5506   -5.6724    0.0000 C   0  0  0  0  0  0  0  0  0  0  0  0
    8.8361   -5.2599    0.0000 C   0  0  0  0  0  0  0  0  0  0  0  0
    8.1217   -5.6724    0.0000 C   0  0  0  0  0  0  0  0  0  0  0  0
    8.8361   -6.9099    0.0000 C   0  0  0  0  0  0  0  0  0  0  0  0
    8.1217   -6.4974    0.0000 C   0  0  0  0  0  0  0  0  0  0  0  0
    6.6927   -8.1474    0.0000 C   0  0  0  0  0  0  0  0  0  0  0  0
    7.4072   -7.7349    0.0000 C   0  0  0  0  0  0  0  0  0  0  0  0
    7.4072   -6.9099    0.0000 C   0  0  0  0  0  0  0  0  0  0  0  0
    6.6927   -6.4974    0.0000 O   0  0  0  0  0  0  0  0  0  0  0  0
    5.2638   -8.1474    0.0000 C   0  0  0  0  0  0  0  0  0  0  0  0
    5.9782   -7.7349    0.0000 C   0  0  0  0  0  0  0  0  0  0  0  0
    5.9782   -6.9099    0.0000 C   0  0  0  0  0  0  0  0  0  0  0  0
    5.2638   -6.4974    0.0000 C   0  0  0  0  0  0  0  0  0  0  0  0
    4.5493   -6.9099    0.0000 C   0  0  0  0  0  0  0  0  0  0  0  0
    4.5493   -7.7349    0.0000 C   0  0  0  0  0  0  0  0  0  0  0  0
    3.8348   -6.4974    0.0000 O   0  0  0  0  0  0  0  0  0  0  0  0
    3.1204   -6.9099    0.0000 C   0  0  0  0  0  0  0  0  0  0  0  0
    5.2638   -5.6724    0.0000 O   0  0  0  0  0  0  0  0  0  0  0  0
    4.5493   -5.2599    0.0000 C   0  0  0  0  0  0  0  0  0  0  0  0
    8.8361   -4.4349    0.0000 O   0  0  0  0  0  0  0  0  0  0  0  0
    8.1217   -4.0224    0.0000 C   0  0  0  0  0  0  0  0  0  0  0  0
   10.2651   -5.2599    0.0000 O   0  0  0  0  0  0  0  0  0  0  0  0
   10.9795   -5.6724    0.0000 C   0  0  0  0  0  0  0  0  0  0  0  0
  8  1  2  0  0  0  0
  2  6  1  0  0  0  0
  3  2  2  0  0  0  0
  4  3  1  0  0  0  0
  5  4  2  0  0  0  0
  7  5  1  0  0  0  0
  7  6  2  0  0  0  0
 10  7  1  0  0  0  0
  8 13  1  0  0  0  0
  9  8  1  0  0  0  0
 10  9  2  0  0  0  0
 11 10  1  0  0  0  0
 14 11  1  0  0  0  0
 12 17  1  0  0  0  0
 13 12  2  0  0  0  0
 14 13  1  0  0  0  0
 15 14  2  0  0  0  0
 16 15  1  0  0  0  0
 17 16  2  0  0  0  0
 16 18  1  0  0  0  0
 18 19  1  0  0  0  0
 15 20  1  0  0  0  0
 20 21  1  0  0  0  0
  4 22  1  0  0  0  0
 22 23  1  0  0  0  0
  3 24  1  0  0  0  0
 24 25  1  0  0  0  0
M  END
>  <cdx:fragmentId>
5

$$$$
