92416.cdx
  Mrv1902 05222410272D          

 34 37  0  0  0  0            999 V2000
    5.1268   -6.5587    0.0000 C   0  0  0  0  0  0  0  0  0  0  0  0
    5.1268   -7.3838    0.0000 C   0  0  0  0  0  0  0  0  0  0  0  0
    5.8413   -7.7963    0.0000 C   0  0  0  0  0  0  0  0  0  0  0  0
    6.5557   -7.3838    0.0000 C   0  0  0  0  0  0  0  0  0  0  0  0
    6.5557   -6.5587    0.0000 C   0  0  0  0  0  0  0  0  0  0  0  0
    5.8413   -6.1463    0.0000 C   0  0  0  0  0  0  0  0  0  0  0  0
    5.8413   -5.3213    0.0000 O   0  0  0  0  0  0  0  0  0  0  0  0
    5.1268   -4.9088    0.0000 C   0  0  0  0  0  0  0  0  0  0  0  0
    4.4123   -6.1463    0.0000 O   0  0  0  0  0  0  0  0  0  0  0  0
    7.2702   -7.7963    0.0000 C   0  0  0  0  0  0  0  0  0  0  0  0
    7.9847   -7.3838    0.0000 C   0  0  0  0  0  0  0  0  0  0  0  0
    7.9847   -6.5587    0.0000 C   0  0  0  0  0  0  0  0  0  0  0  0
    7.2702   -6.1463    0.0000 O   0  0  0  0  0  0  0  0  0  0  0  0
    5.8413   -8.6212    0.0000 O   0  0  0  0  0  0  0  0  0  0  0  0
    7.2702   -8.6212    0.0000 O   0  0  0  0  0  0  0  0  0  0  0  0
    9.4136   -6.5587    0.0000 C   0  0  0  0  0  0  0  0  0  0  0  0
    8.6992   -6.1463    0.0000 C   0  0  0  0  0  0  0  0  0  0  0  0
   10.1281   -6.1463    0.0000 C   0  0  0  0  0  0  0  0  0  0  0  0
   10.1281   -5.3213    0.0000 C   0  0  0  0  0  0  0  0  0  0  0  0
    9.4136   -4.9088    0.0000 C   0  0  0  0  0  0  0  0  0  0  0  0
    8.6992   -5.3213    0.0000 C   0  0  0  0  0  0  0  0  0  0  0  0
    7.9847   -4.9088    0.0000 O   0  0  0  0  0  0  0  0  0  0  0  0
    3.6979   -6.5587    0.0000 C   0  0  0  0  0  0  0  0  0  0  0  0
    5.1268   -9.0337    0.0000 C   0  0  2  0  0  0  0  0  0  0  0  0
    4.4123   -8.6212    0.0000 O   0  0  0  0  0  0  0  0  0  0  0  0
    3.6979   -9.0337    0.0000 C   0  0  1  0  0  0  0  0  0  0  0  0
    3.6979   -9.8588    0.0000 C   0  0  2  0  0  0  0  0  0  0  0  0
    4.4123  -10.2712    0.0000 C   0  0  1  0  0  0  0  0  0  0  0  0
    5.1268   -9.8588    0.0000 C   0  0  1  0  0  0  0  0  0  0  0  0
    2.9834   -8.6212    0.0000 C   0  0  0  0  0  0  0  0  0  0  0  0
    4.4123  -11.0962    0.0000 O   0  0  0  0  0  0  0  0  0  0  0  0
    5.8413  -10.2713    0.0000 O   0  0  0  0  0  0  0  0  0  0  0  0
    2.9834  -10.2713    0.0000 O   0  0  0  0  0  0  0  0  0  0  0  0
    2.2689   -9.0337    0.0000 O   0  0  0  0  0  0  0  0  0  0  0  0
  1  2  2  0  0  0  0
  2  3  1  0  0  0  0
  3  4  2  0  0  0  0
  4  5  1  0  0  0  0
  5  6  2  0  0  0  0
  6  1  1  0  0  0  0
  6  7  1  0  0  0  0
  7  8  1  0  0  0  0
  9  1  1  0  0  0  0
  4 10  1  0  0  0  0
 10 11  1  0  0  0  0
 11 12  2  0  0  0  0
 12 13  1  0  0  0  0
 13  5  1  0  0  0  0
  3 14  1  0  0  0  0
 15 10  2  0  0  0  0
 16 17  2  0  0  0  0
 17 12  1  0  0  0  0
 16 18  1  0  0  0  0
 18 19  2  0  0  0  0
 19 20  1  0  0  0  0
 20 21  2  0  0  0  0
 21 17  1  0  0  0  0
 21 22  1  0  0  0  0
  9 23  1  0  0  0  0
 24 14  1  1  0  0  0
 24 25  1  0  0  0  0
 25 26  1  0  0  0  0
 26 27  1  0  0  0  0
 27 28  1  0  0  0  0
 28 29  1  0  0  0  0
 29 24  1  0  0  0  0
 26 30  1  1  0  0  0
 28 31  1  1  0  0  0
 29 32  1  6  0  0  0
 27 33  1  6  0  0  0
 30 34  1  0  0  0  0
M  END
>  <cdx:fragmentId>
5

$$$$
