92419.cdx
  Mrv1902 05222410202D          

 17 16  0  0  0  0            999 V2000
    1.9775   -7.2050    0.0000 O   0  0  0  0  0  0  0  0  0  0  0  0
    2.6920   -6.7925    0.0000 C   0  0  0  0  0  0  0  0  0  0  0  0
    3.4065   -7.2050    0.0000 C   0  0  0  0  0  0  0  0  0  0  0  0
    4.1209   -6.7925    0.0000 C   0  0  0  0  0  0  0  0  0  0  0  0
    4.8354   -7.2050    0.0000 C   0  0  0  0  0  0  0  0  0  0  0  0
    5.5499   -6.7925    0.0000 C   0  0  0  0  0  0  0  0  0  0  0  0
    6.2644   -7.2050    0.0000 C   0  0  0  0  0  0  0  0  0  0  0  0
    6.9788   -6.7925    0.0000 C   0  0  0  0  0  0  0  0  0  0  0  0
    7.6933   -7.2050    0.0000 C   0  0  0  0  0  0  0  0  0  0  0  0
    8.4078   -6.7925    0.0000 C   0  0  0  0  0  0  0  0  0  0  0  0
    9.1222   -7.2050    0.0000 C   0  0  0  0  0  0  0  0  0  0  0  0
    9.8367   -6.7925    0.0000 C   0  0  0  0  0  0  0  0  0  0  0  0
   10.5512   -7.2050    0.0000 C   0  0  0  0  0  0  0  0  0  0  0  0
   11.2656   -6.7925    0.0000 C   0  0  0  0  0  0  0  0  0  0  0  0
   11.9801   -7.2050    0.0000 C   0  0  0  0  0  0  0  0  0  0  0  0
   12.6946   -6.7925    0.0000 C   0  0  0  0  0  0  0  0  0  0  0  0
   13.4091   -7.2050    0.0000 C   0  0  0  0  0  0  0  0  0  0  0  0
  1  2  2  0  0  0  0
  2  3  1  0  0  0  0
  3  4  1  0  0  0  0
  4  5  1  0  0  0  0
  5  6  1  0  0  0  0
  6  7  1  0  0  0  0
  7  8  1  0  0  0  0
  8  9  2  0  0  0  0
  9 10  1  0  0  0  0
 10 11  1  0  0  0  0
 11 12  1  0  0  0  0
 12 13  1  0  0  0  0
 13 14  1  0  0  0  0
 14 15  1  0  0  0  0
 15 16  1  0  0  0  0
 16 17  1  0  0  0  0
M  END
>  <cdx:fragmentId>
3

$$$$
