92417.cdx
  Mrv1902 05222410262D          

 12 13  0  0  0  0            999 V2000
    5.6768   -6.9162    0.0000 C   0  0  0  0  0  0  0  0  0  0  0  0
    5.6768   -7.7413    0.0000 C   0  0  0  0  0  0  0  0  0  0  0  0
    6.3913   -8.1538    0.0000 C   0  0  0  0  0  0  0  0  0  0  0  0
    7.1057   -7.7413    0.0000 C   0  0  0  0  0  0  0  0  0  0  0  0
    7.1057   -6.9162    0.0000 C   0  0  0  0  0  0  0  0  0  0  0  0
    6.3913   -6.5038    0.0000 C   0  0  0  0  0  0  0  0  0  0  0  0
    7.8904   -7.9962    0.0000 O   0  0  0  0  0  0  0  0  0  0  0  0
    8.3753   -7.3287    0.0000 C   0  0  0  0  0  0  0  0  0  0  0  0
    7.8904   -6.6613    0.0000 C   0  0  0  0  0  0  0  0  0  0  0  0
    8.1453   -5.8767    0.0000 C   0  0  0  0  0  0  0  0  0  0  0  0
    9.2003   -7.3287    0.0000 O   0  0  0  0  0  0  0  0  0  0  0  0
    7.1920   -8.5617    0.0000 C   0  0  0  0  0  0  0  0  0  0  0  0
  1  2  1  0  0  0  0
  2  3  1  0  0  0  0
  3  4  1  0  0  0  0
  4  5  1  0  0  0  0
  5  6  1  0  0  0  0
  6  1  1  0  0  0  0
  4  7  1  0  0  0  0
  7  8  1  0  0  0  0
  8  9  1  0  0  0  0
  9  5  1  0  0  0  0
  9 10  2  0  0  0  0
  8 11  2  0  0  0  0
  4 12  1  0  0  0  0
M  END
>  <cdx:fragmentId>
5

$$$$
