92418.cdx
  Mrv1902 05222410202D          

 22 23  0  0  0  0            999 V2000
    1.2350   -7.6863    0.0000 C   0  0  0  0  0  0  0  0  0  0  0  0
    1.9495   -7.2738    0.0000 C   0  0  0  0  0  0  0  0  0  0  0  0
    2.6640   -7.6863    0.0000 C   0  0  0  0  0  0  0  0  0  0  0  0
    3.3784   -7.2738    0.0000 C   0  0  0  0  0  0  0  0  0  0  0  0
    4.0929   -7.6863    0.0000 C   0  0  0  0  0  0  0  0  0  0  0  0
    4.8074   -7.2738    0.0000 C   0  0  0  0  0  0  0  0  0  0  0  0
    5.5219   -7.6863    0.0000 C   0  0  0  0  0  0  0  0  0  0  0  0
    6.2363   -7.2738    0.0000 C   0  0  0  0  0  0  0  0  0  0  0  0
    6.9508   -7.6863    0.0000 O   0  0  0  0  0  0  0  0  0  0  0  0
    7.6653   -7.2738    0.0000 C   0  0  0  0  0  0  0  0  0  0  0  0
    1.9495   -6.4487    0.0000 C   0  0  0  0  0  0  0  0  0  0  0  0
    4.8074   -6.4487    0.0000 C   0  0  0  0  0  0  0  0  0  0  0  0
    8.3797   -7.6863    0.0000 C   0  0  0  0  0  0  0  0  0  0  0  0
    9.0942   -7.2738    0.0000 C   0  0  0  0  0  0  0  0  0  0  0  0
    9.0942   -6.4487    0.0000 C   0  0  0  0  0  0  0  0  0  0  0  0
    8.3797   -6.0362    0.0000 C   0  0  0  0  0  0  0  0  0  0  0  0
    7.6653   -6.4487    0.0000 C   0  0  0  0  0  0  0  0  0  0  0  0
    9.8087   -7.6863    0.0000 O   0  0  0  0  0  0  0  0  0  0  0  0
   10.5231   -7.2738    0.0000 C   0  0  0  0  0  0  0  0  0  0  0  0
   10.5231   -6.4487    0.0000 C   0  0  0  0  0  0  0  0  0  0  0  0
    9.8087   -6.0362    0.0000 C   0  0  0  0  0  0  0  0  0  0  0  0
   11.2376   -7.6863    0.0000 O   0  0  0  0  0  0  0  0  0  0  0  0
  1  2  1  0  0  0  0
  2  3  2  0  0  0  0
  3  4  1  0  0  0  0
  4  5  1  0  0  0  0
  5  6  1  0  0  0  0
  6  7  2  0  0  0  0
  7  8  1  0  0  0  0
  8  9  1  0  0  0  0
  9 10  1  0  0  0  0
  2 11  1  0  0  0  0
  6 12  1  0  0  0  0
 10 13  2  0  0  0  0
 13 14  1  0  0  0  0
 14 15  2  0  0  0  0
 15 16  1  0  0  0  0
 16 17  2  0  0  0  0
 17 10  1  0  0  0  0
 14 18  1  0  0  0  0
 18 19  1  0  0  0  0
 19 20  1  0  0  0  0
 20 21  2  0  0  0  0
 21 15  1  0  0  0  0
 19 22  2  0  0  0  0
M  END
>  <cdx:fragmentId>
3

$$$$
