92422.cdx
  Mrv1902 05222410182D          

 24 26  0  0  0  0            999 V2000
    4.6456   -6.2700    0.0000 C   0  0  0  0  0  0  0  0  0  0  0  0
    4.6456   -7.0950    0.0000 C   0  0  0  0  0  0  0  0  0  0  0  0
    5.3600   -7.5075    0.0000 C   0  0  0  0  0  0  0  0  0  0  0  0
    6.0745   -7.0950    0.0000 C   0  0  0  0  0  0  0  0  0  0  0  0
    6.0745   -6.2700    0.0000 C   0  0  0  0  0  0  0  0  0  0  0  0
    5.3600   -5.8575    0.0000 C   0  0  0  0  0  0  0  0  0  0  0  0
    6.7890   -7.5075    0.0000 C   0  0  0  0  0  0  0  0  0  0  0  0
    7.5034   -7.0950    0.0000 C   0  0  0  0  0  0  0  0  0  0  0  0
    7.5034   -6.2700    0.0000 C   0  0  0  0  0  0  0  0  0  0  0  0
    6.7890   -5.8575    0.0000 O   0  0  0  0  0  0  0  0  0  0  0  0
    8.9324   -6.2700    0.0000 C   0  0  0  0  0  0  0  0  0  0  0  0
    8.2179   -5.8575    0.0000 C   0  0  0  0  0  0  0  0  0  0  0  0
    9.6469   -5.8575    0.0000 C   0  0  0  0  0  0  0  0  0  0  0  0
    9.6469   -5.0325    0.0000 C   0  0  0  0  0  0  0  0  0  0  0  0
    8.9324   -4.6200    0.0000 C   0  0  0  0  0  0  0  0  0  0  0  0
    8.2179   -5.0325    0.0000 C   0  0  0  0  0  0  0  0  0  0  0  0
    6.7890   -8.3325    0.0000 O   0  0  0  0  0  0  0  0  0  0  0  0
    3.9311   -5.8575    0.0000 O   0  0  0  0  0  0  0  0  0  0  0  0
    5.3600   -8.3325    0.0000 O   0  0  0  0  0  0  0  0  0  0  0  0
    4.6456   -8.7450    0.0000 C   0  0  0  0  0  0  0  0  0  0  0  0
    8.9324   -3.7950    0.0000 O   0  0  0  0  0  0  0  0  0  0  0  0
    8.2179   -3.3825    0.0000 C   0  0  0  0  0  0  0  0  0  0  0  0
   10.3613   -4.6200    0.0000 O   0  0  0  0  0  0  0  0  0  0  0  0
   11.0758   -5.0325    0.0000 C   0  0  0  0  0  0  0  0  0  0  0  0
  1  2  2  0  0  0  0
  2  3  1  0  0  0  0
  3  4  2  0  0  0  0
  4  5  1  0  0  0  0
  5  6  2  0  0  0  0
  6  1  1  0  0  0  0
  4  7  1  0  0  0  0
  7  8  1  0  0  0  0
  8  9  2  0  0  0  0
  9 10  1  0  0  0  0
 10  5  1  0  0  0  0
 11 12  2  0  0  0  0
 12  9  1  0  0  0  0
 11 13  1  0  0  0  0
 13 14  2  0  0  0  0
 14 15  1  0  0  0  0
 15 16  2  0  0  0  0
 16 12  1  0  0  0  0
  7 17  2  0  0  0  0
  1 18  1  0  0  0  0
  3 19  1  0  0  0  0
 19 20  1  0  0  0  0
 15 21  1  0  0  0  0
 21 22  1  0  0  0  0
 14 23  1  0  0  0  0
 23 24  1  0  0  0  0
M  END
>  <cdx:fragmentId>
5

$$$$
