92429.cdx
  Mrv1902 05222410262D          

 29 31  0  0  0  0            999 V2000
    5.1406   -4.5650    0.0000 C   0  0  2  0  0  0  0  0  0  0  0  0
    5.1406   -5.3900    0.0000 C   0  0  0  0  0  0  0  0  0  0  0  0
    5.8550   -5.8025    0.0000 C   0  0  0  0  0  0  0  0  0  0  0  0
    6.5695   -5.3900    0.0000 C   0  0  0  0  0  0  0  0  0  0  0  0
    6.5695   -4.5650    0.0000 C   0  0  2  0  0  0  0  0  0  0  0  0
    5.8550   -4.1525    0.0000 C   0  0  0  0  0  0  0  0  0  0  0  0
    7.2840   -5.8025    0.0000 C   0  0  0  0  0  0  0  0  0  0  0  0
    7.9984   -5.3900    0.0000 C   0  0  1  0  0  0  0  0  0  0  0  0
    7.9984   -4.5650    0.0000 C   0  0  0  0  0  0  0  0  0  0  0  0
    7.2840   -4.1525    0.0000 C   0  0  0  0  0  0  0  0  0  0  0  0
    4.4261   -5.8025    0.0000 O   0  0  0  0  0  0  0  0  0  0  0  0
    5.8550   -6.6275    0.0000 C   0  0  0  0  0  0  0  0  0  0  0  0
    8.7129   -5.8025    0.0000 C   0  0  0  0  0  0  0  0  0  0  0  0
    9.4274   -5.3900    0.0000 C   0  0  0  0  0  0  0  0  0  0  0  0
    8.7129   -6.6275    0.0000 C   0  0  0  0  0  0  0  0  0  0  0  0
    9.4274   -7.0400    0.0000 O   0  0  0  0  0  0  0  0  0  0  0  0
    9.4274   -7.8650    0.0000 C   0  0  2  0  0  0  0  0  0  0  0  0
    8.7129   -8.2775    0.0000 O   0  0  0  0  0  0  0  0  0  0  0  0
    8.7129   -9.1025    0.0000 C   0  0  1  0  0  0  0  0  0  0  0  0
    9.4274   -9.5150    0.0000 C   0  0  2  0  0  0  0  0  0  0  0  0
   10.1419   -9.1025    0.0000 C   0  0  1  0  0  0  0  0  0  0  0  0
   10.1419   -8.2775    0.0000 C   0  0  1  0  0  0  0  0  0  0  0  0
    7.9984   -9.5150    0.0000 C   0  0  0  0  0  0  0  0  0  0  0  0
   10.8563   -9.5150    0.0000 O   0  0  0  0  0  0  0  0  0  0  0  0
   10.8563   -7.8650    0.0000 O   0  0  0  0  0  0  0  0  0  0  0  0
    9.4274  -10.3400    0.0000 O   0  0  0  0  0  0  0  0  0  0  0  0
    7.9984  -10.3400    0.0000 O   0  0  0  0  0  0  0  0  0  0  0  0
    4.4261   -4.1525    0.0000 O   0  0  0  0  0  0  0  0  0  0  0  0
    6.5695   -3.7400    0.0000 C   0  0  0  0  0  0  0  0  0  0  0  0
  1  2  1  0  0  0  0
  2  3  1  0  0  0  0
  3  4  2  0  0  0  0
  4  5  1  0  0  0  0
  5  6  1  0  0  0  0
  6  1  1  0  0  0  0
  4  7  1  0  0  0  0
  7  8  1  0  0  0  0
  8  9  1  0  0  0  0
  9 10  1  0  0  0  0
 10  5  1  0  0  0  0
  2 11  2  0  0  0  0
  3 12  1  0  0  0  0
  8 13  1  1  0  0  0
 13 14  2  0  0  0  0
 13 15  1  0  0  0  0
 15 16  1  0  0  0  0
 17 16  1  1  0  0  0
 17 18  1  0  0  0  0
 18 19  1  0  0  0  0
 19 20  1  0  0  0  0
 20 21  1  0  0  0  0
 21 22  1  0  0  0  0
 22 17  1  0  0  0  0
 19 23  1  1  0  0  0
 21 24  1  1  0  0  0
 22 25  1  6  0  0  0
 20 26  1  6  0  0  0
 23 27  1  0  0  0  0
  1 28  1  1  0  0  0
  5 29  1  1  0  0  0
M  END
>  <cdx:fragmentId>
5

$$$$
