92425.cdx
  Mrv1902 05222410202D          

 32 35  0  0  0  0            999 V2000
    3.7931   -6.7100    0.0000 C   0  0  0  0  0  0  0  0  0  0  0  0
    3.7931   -7.5350    0.0000 C   0  0  0  0  0  0  0  0  0  0  0  0
    4.5075   -7.9475    0.0000 C   0  0  0  0  0  0  0  0  0  0  0  0
    5.2220   -7.5350    0.0000 C   0  0  0  0  0  0  0  0  0  0  0  0
    5.2220   -6.7100    0.0000 C   0  0  0  0  0  0  0  0  0  0  0  0
    4.5075   -6.2975    0.0000 C   0  0  0  0  0  0  0  0  0  0  0  0
    5.9365   -7.9475    0.0000 C   0  0  0  0  0  0  0  0  0  0  0  0
    6.6509   -7.5350    0.0000 C   0  0  0  0  0  0  0  0  0  0  0  0
    6.6509   -6.7100    0.0000 C   0  0  0  0  0  0  0  0  0  0  0  0
    5.9365   -6.2975    0.0000 C   0  0  0  0  0  0  0  0  0  0  0  0
    7.3654   -7.9475    0.0000 C   0  0  0  0  0  0  0  0  0  0  0  0
    8.0799   -7.5350    0.0000 C   0  0  0  0  0  0  0  0  0  0  0  0
    8.0799   -6.7100    0.0000 C   0  0  0  0  0  0  0  0  0  0  0  0
    7.3654   -6.2975    0.0000 C   0  0  0  0  0  0  0  0  0  0  0  0
    3.0786   -7.9475    0.0000 C   0  0  0  0  0  0  0  0  0  0  0  0
    4.5075   -5.4725    0.0000 O   0  0  0  0  0  0  0  0  0  0  0  0
    5.9365   -5.4725    0.0000 O   0  0  0  0  0  0  0  0  0  0  0  0
    5.9365   -8.7725    0.0000 O   0  0  0  0  0  0  0  0  0  0  0  0
    7.3654   -5.4725    0.0000 O   0  0  0  0  0  0  0  0  0  0  0  0
    8.7944   -7.9475    0.0000 O   0  0  0  0  0  0  0  0  0  0  0  0
    3.7931   -5.0600    0.0000 C   0  0  2  0  0  0  0  0  0  0  0  0
    3.7931   -4.2350    0.0000 O   0  0  0  0  0  0  0  0  0  0  0  0
    3.0786   -3.8225    0.0000 C   0  0  1  0  0  0  0  0  0  0  0  0
    2.3641   -4.2350    0.0000 C   0  0  2  0  0  0  0  0  0  0  0  0
    2.3641   -5.0600    0.0000 C   0  0  1  0  0  0  0  0  0  0  0  0
    3.0786   -5.4725    0.0000 C   0  0  1  0  0  0  0  0  0  0  0  0
    3.0786   -2.9975    0.0000 C   0  0  0  0  0  0  0  0  0  0  0  0
    1.6496   -5.4725    0.0000 O   0  0  0  0  0  0  0  0  0  0  0  0
    1.6496   -3.8225    0.0000 O   0  0  0  0  0  0  0  0  0  0  0  0
    3.0786   -6.2975    0.0000 O   0  0  0  0  0  0  0  0  0  0  0  0
    2.3641   -2.5850    0.0000 O   0  0  0  0  0  0  0  0  0  0  0  0
    8.7944   -6.2975    0.0000 O   0  0  0  0  0  0  0  0  0  0  0  0
  1  2  2  0  0  0  0
  2  3  1  0  0  0  0
  3  4  2  0  0  0  0
  4  5  1  0  0  0  0
  5  6  2  0  0  0  0
  6  1  1  0  0  0  0
  4  7  1  0  0  0  0
  7  8  1  0  0  0  0
  8  9  2  0  0  0  0
  9 10  1  0  0  0  0
 10  5  1  0  0  0  0
  8 11  1  0  0  0  0
 11 12  2  0  0  0  0
 12 13  1  0  0  0  0
 13 14  2  0  0  0  0
 14  9  1  0  0  0  0
  2 15  1  0  0  0  0
  6 16  1  0  0  0  0
 10 17  2  0  0  0  0
  7 18  2  0  0  0  0
 14 19  1  0  0  0  0
 12 20  1  0  0  0  0
 21 16  1  1  0  0  0
 21 22  1  0  0  0  0
 22 23  1  0  0  0  0
 23 24  1  0  0  0  0
 24 25  1  0  0  0  0
 25 26  1  0  0  0  0
 26 21  1  0  0  0  0
 23 27  1  1  0  0  0
 25 28  1  1  0  0  0
 24 29  1  6  0  0  0
 26 30  1  6  0  0  0
 27 31  1  0  0  0  0
 13 32  1  0  0  0  0
M  END
>  <cdx:fragmentId>
5

$$$$
