92426.cdx
  Mrv1902 05222410192D          

 18 20  0  0  0  0            999 V2000
    4.6868   -5.2525    0.0000 C   0  0  0  0  0  0  0  0  0  0  0  0
    4.6868   -6.0775    0.0000 C   0  0  0  0  0  0  0  0  0  0  0  0
    5.4013   -6.4900    0.0000 C   0  0  0  0  0  0  0  0  0  0  0  0
    6.1157   -6.0775    0.0000 C   0  0  0  0  0  0  0  0  0  0  0  0
    6.1157   -5.2525    0.0000 C   0  0  0  0  0  0  0  0  0  0  0  0
    5.4013   -4.8400    0.0000 C   0  0  0  0  0  0  0  0  0  0  0  0
    6.8302   -6.4900    0.0000 O   0  0  0  0  0  0  0  0  0  0  0  0
    7.5447   -6.0775    0.0000 C   0  0  0  0  0  0  0  0  0  0  0  0
    7.5447   -5.2525    0.0000 C   0  0  0  0  0  0  0  0  0  0  0  0
    6.8302   -4.8400    0.0000 C   0  0  0  0  0  0  0  0  0  0  0  0
    8.2592   -6.4900    0.0000 C   0  0  0  0  0  0  0  0  0  0  0  0
    8.9736   -6.0775    0.0000 C   0  0  0  0  0  0  0  0  0  0  0  0
    8.2592   -7.3150    0.0000 C   0  0  0  0  0  0  0  0  0  0  0  0
    8.9736   -7.7275    0.0000 C   0  0  0  0  0  0  0  0  0  0  0  0
    9.6881   -7.3150    0.0000 C   0  0  0  0  0  0  0  0  0  0  0  0
    9.6881   -6.4900    0.0000 C   0  0  0  0  0  0  0  0  0  0  0  0
    3.9723   -6.4900    0.0000 O   0  0  0  0  0  0  0  0  0  0  0  0
    6.8302   -4.0150    0.0000 O   0  0  0  0  0  0  0  0  0  0  0  0
  1  2  2  0  0  0  0
  2  3  1  0  0  0  0
  3  4  2  0  0  0  0
  4  5  1  0  0  0  0
  5  6  2  0  0  0  0
  6  1  1  0  0  0  0
  4  7  1  0  0  0  0
  7  8  1  0  0  0  0
  8  9  1  0  0  0  0
  9 10  1  0  0  0  0
 10  5  1  0  0  0  0
  8 11  1  0  0  0  0
 11 12  2  0  0  0  0
 11 13  1  0  0  0  0
 13 14  2  0  0  0  0
 14 15  1  0  0  0  0
 15 16  2  0  0  0  0
 16 12  1  0  0  0  0
  2 17  1  0  0  0  0
 10 18  2  0  0  0  0
M  END
>  <cdx:fragmentId>
5

$$$$
