92420.cdx
  Mrv1902 05222410182D          

 17 16  0  0  0  0            999 V2000
   12.3815   -9.2538    0.0000 C   0  0  0  0  0  0  0  0  0  0  0  0
   11.6670   -8.8413    0.0000 C   0  0  0  0  0  0  0  0  0  0  0  0
   10.9526   -9.2538    0.0000 C   0  0  0  0  0  0  0  0  0  0  0  0
   10.2381   -8.8413    0.0000 C   0  0  0  0  0  0  0  0  0  0  0  0
    9.5236   -9.2538    0.0000 C   0  0  0  0  0  0  0  0  0  0  0  0
    8.8092   -8.8413    0.0000 C   0  0  0  0  0  0  0  0  0  0  0  0
    8.0947   -9.2538    0.0000 C   0  0  0  0  0  0  0  0  0  0  0  0
    7.3802   -8.8413    0.0000 C   0  0  0  0  0  0  0  0  0  0  0  0
    6.6657   -9.2538    0.0000 C   0  0  0  0  0  0  0  0  0  0  0  0
    5.9513   -8.8413    0.0000 C   0  0  0  0  0  0  0  0  0  0  0  0
    5.9513   -8.0162    0.0000 C   0  0  0  0  0  0  0  0  0  0  0  0
    5.2368   -7.6037    0.0000 C   0  0  0  0  0  0  0  0  0  0  0  0
    5.2368   -6.7788    0.0000 C   0  0  0  0  0  0  0  0  0  0  0  0
    4.5223   -6.3662    0.0000 C   0  0  0  0  0  0  0  0  0  0  0  0
    4.5223   -5.5413    0.0000 C   0  0  0  0  0  0  0  0  0  0  0  0
    3.8079   -5.1287    0.0000 C   0  0  0  0  0  0  0  0  0  0  0  0
    3.8079   -4.3037    0.0000 O   0  0  0  0  0  0  0  0  0  0  0  0
  2  1  1  0  0  0  0
  3  2  1  0  0  0  0
  4  3  1  0  0  0  0
  5  4  1  0  0  0  0
  6  5  1  0  0  0  0
  7  6  1  0  0  0  0
  8  7  1  0  0  0  0
  9  8  1  0  0  0  0
 10  9  2  0  0  0  0
 10 11  1  0  0  0  0
 11 12  1  0  0  0  0
 12 13  1  0  0  0  0
 13 14  1  0  0  0  0
 14 15  1  0  0  0  0
 15 16  1  0  0  0  0
 16 17  2  0  0  0  0
M  END
>  <cdx:fragmentId>
3

$$$$
