92428.cdx
  Mrv1902 05222410262D          

 33 36  0  0  0  0            999 V2000
    2.9406  -11.2062    0.0000 O   0  0  0  0  0  0  0  0  0  0  0  0
    3.6550  -12.4438    0.0000 O   0  0  0  0  0  0  0  0  0  0  0  0
    4.3695  -12.0313    0.0000 C   0  0  2  0  0  0  0  0  0  0  0  0
    4.3695  -11.2062    0.0000 C   0  0  1  0  0  0  0  0  0  0  0  0
    3.6550  -10.7937    0.0000 C   0  0  0  0  0  0  0  0  0  0  0  0
    5.0840  -12.4438    0.0000 C   0  0  1  0  0  0  0  0  0  0  0  0
    5.7984  -12.0313    0.0000 C   0  0  2  0  0  0  0  0  0  0  0  0
    5.7984  -11.2062    0.0000 C   0  0  1  0  0  0  0  0  0  0  0  0
    5.0840  -10.7937    0.0000 O   0  0  0  0  0  0  0  0  0  0  0  0
    6.5129  -10.7937    0.0000 O   0  0  0  0  0  0  0  0  0  0  0  0
    6.5129   -9.9688    0.0000 C   0  0  0  0  0  0  0  0  0  0  0  0
    5.7984   -9.5563    0.0000 C   0  0  0  0  0  0  0  0  0  0  0  0
    5.0840   -9.9688    0.0000 O   0  0  0  0  0  0  0  0  0  0  0  0
    7.2274   -9.5563    0.0000 C   0  0  0  0  0  0  0  0  0  0  0  0
    7.2274   -8.7313    0.0000 C   0  0  0  0  0  0  0  0  0  0  0  0
    6.5129   -8.3187    0.0000 C   0  0  0  0  0  0  0  0  0  0  0  0
    5.7984   -8.7313    0.0000 C   0  0  0  0  0  0  0  0  0  0  0  0
    7.9419   -8.3187    0.0000 O   0  0  0  0  0  0  0  0  0  0  0  0
    7.9419   -7.4937    0.0000 C   0  0  0  0  0  0  0  0  0  0  0  0
    7.2274   -7.0812    0.0000 C   0  0  0  0  0  0  0  0  0  0  0  0
    6.5129   -7.4937    0.0000 C   0  0  0  0  0  0  0  0  0  0  0  0
    9.3708   -7.4937    0.0000 C   0  0  0  0  0  0  0  0  0  0  0  0
    8.6563   -7.0812    0.0000 C   0  0  0  0  0  0  0  0  0  0  0  0
   10.0853   -7.0812    0.0000 C   0  0  0  0  0  0  0  0  0  0  0  0
   10.0853   -6.2563    0.0000 C   0  0  0  0  0  0  0  0  0  0  0  0
    9.3708   -5.8438    0.0000 C   0  0  0  0  0  0  0  0  0  0  0  0
    8.6563   -6.2563    0.0000 C   0  0  0  0  0  0  0  0  0  0  0  0
    5.7984   -7.0812    0.0000 O   0  0  0  0  0  0  0  0  0  0  0  0
    5.0840   -8.3187    0.0000 O   0  0  0  0  0  0  0  0  0  0  0  0
    4.3695   -9.5563    0.0000 C   0  0  0  0  0  0  0  0  0  0  0  0
   10.7997   -5.8438    0.0000 O   0  0  0  0  0  0  0  0  0  0  0  0
    5.0840  -13.2688    0.0000 O   0  0  0  0  0  0  0  0  0  0  0  0
    6.5129  -12.4438    0.0000 O   0  0  0  0  0  0  0  0  0  0  0  0
  3  2  1  6  0  0  0
  3  4  1  0  0  0  0
  4  5  1  1  0  0  0
  5  1  1  0  0  0  0
  3  6  1  0  0  0  0
  6  7  1  0  0  0  0
  7  8  1  0  0  0  0
  8  9  1  0  0  0  0
  9  4  1  0  0  0  0
  8 10  1  1  0  0  0
 10 11  1  0  0  0  0
 11 12  2  0  0  0  0
 12 13  1  0  0  0  0
 11 14  1  0  0  0  0
 14 15  2  0  0  0  0
 15 16  1  0  0  0  0
 16 17  2  0  0  0  0
 17 12  1  0  0  0  0
 15 18  1  0  0  0  0
 18 19  1  0  0  0  0
 19 20  2  0  0  0  0
 20 21  1  0  0  0  0
 21 16  1  0  0  0  0
 22 23  1  0  0  0  0
 23 19  1  0  0  0  0
 22 24  2  0  0  0  0
 24 25  1  0  0  0  0
 25 26  2  0  0  0  0
 26 27  1  0  0  0  0
 27 23  2  0  0  0  0
 21 28  2  0  0  0  0
 29 17  1  0  0  0  0
 30 13  1  0  0  0  0
 25 31  1  0  0  0  0
  6 32  1  1  0  0  0
  7 33  1  6  0  0  0
M  END
>  <cdx:fragmentId>
5

$$$$
