92432.cdx
  Mrv1902 05222410192D          

 33 36  0  0  0  0            999 V2000
    5.0168   -8.0025    0.0000 C   0  0  0  0  0  0  0  0  0  0  0  0
    5.0168   -8.8275    0.0000 C   0  0  0  0  0  0  0  0  0  0  0  0
    5.7313   -9.2400    0.0000 C   0  0  0  0  0  0  0  0  0  0  0  0
    6.4457   -8.8275    0.0000 C   0  0  0  0  0  0  0  0  0  0  0  0
    6.4457   -8.0025    0.0000 C   0  0  0  0  0  0  0  0  0  0  0  0
    5.7313   -7.5900    0.0000 C   0  0  0  0  0  0  0  0  0  0  0  0
    7.1602   -9.2400    0.0000 C   0  0  0  0  0  0  0  0  0  0  0  0
    7.8747   -8.8275    0.0000 C   0  0  0  0  0  0  0  0  0  0  0  0
    7.8747   -8.0025    0.0000 C   0  0  0  0  0  0  0  0  0  0  0  0
    7.1602   -7.5900    0.0000 O   0  0  0  0  0  0  0  0  0  0  0  0
    5.7313  -10.0650    0.0000 O   0  0  0  0  0  0  0  0  0  0  0  0
    7.1602  -10.0650    0.0000 O   0  0  0  0  0  0  0  0  0  0  0  0
    8.5892  -10.0650    0.0000 C   0  0  0  0  0  0  0  0  0  0  0  0
    8.5892   -9.2400    0.0000 C   0  0  0  0  0  0  0  0  0  0  0  0
    9.3036  -10.4775    0.0000 C   0  0  0  0  0  0  0  0  0  0  0  0
   10.0181  -10.0650    0.0000 C   0  0  0  0  0  0  0  0  0  0  0  0
   10.0181   -9.2400    0.0000 C   0  0  0  0  0  0  0  0  0  0  0  0
    9.3036   -8.8275    0.0000 C   0  0  0  0  0  0  0  0  0  0  0  0
    4.3023   -7.5900    0.0000 O   0  0  0  0  0  0  0  0  0  0  0  0
    3.5879   -8.0025    0.0000 C   0  0  0  0  0  0  0  0  0  0  0  0
   10.7326  -10.4775    0.0000 O   0  0  0  0  0  0  0  0  0  0  0  0
    5.7313   -6.7650    0.0000 C   0  0  2  0  0  0  0  0  0  0  0  0
    6.4457   -6.3525    0.0000 O   0  0  0  0  0  0  0  0  0  0  0  0
    6.4457   -5.5275    0.0000 C   0  0  1  0  0  0  0  0  0  0  0  0
    5.7313   -5.1150    0.0000 C   0  0  2  0  0  0  0  0  0  0  0  0
    5.0168   -5.5275    0.0000 C   0  0  1  0  0  0  0  0  0  0  0  0
    5.0168   -6.3525    0.0000 C   0  0  1  0  0  0  0  0  0  0  0  0
    4.3023   -5.1150    0.0000 O   0  0  0  0  0  0  0  0  0  0  0  0
    7.1602   -5.1150    0.0000 C   0  0  0  0  0  0  0  0  0  0  0  0
    4.3023   -6.7650    0.0000 O   0  0  0  0  0  0  0  0  0  0  0  0
    5.7313   -4.2900    0.0000 O   0  0  0  0  0  0  0  0  0  0  0  0
    7.1602   -4.2900    0.0000 O   0  0  0  0  0  0  0  0  0  0  0  0
    6.4457   -7.1775    0.0000 H   0  0  0  0  0  0  0  0  0  0  0  0
  1  2  2  0  0  0  0
  2  3  1  0  0  0  0
  3  4  2  0  0  0  0
  4  5  1  0  0  0  0
  5  6  2  0  0  0  0
  6  1  1  0  0  0  0
  4  7  1  0  0  0  0
  7  8  1  0  0  0  0
  8  9  2  0  0  0  0
  9 10  1  0  0  0  0
 10  5  1  0  0  0  0
  3 11  1  0  0  0  0
 12  7  2  0  0  0  0
 13 14  2  0  0  0  0
 14  8  1  0  0  0  0
 13 15  1  0  0  0  0
 15 16  2  0  0  0  0
 16 17  1  0  0  0  0
 17 18  2  0  0  0  0
 18 14  1  0  0  0  0
  1 19  1  0  0  0  0
 19 20  1  0  0  0  0
 16 21  1  0  0  0  0
  6 22  1  0  0  0  0
 22 23  1  0  0  0  0
 23 24  1  0  0  0  0
 24 25  1  0  0  0  0
 25 26  1  0  0  0  0
 26 27  1  0  0  0  0
 27 22  1  0  0  0  0
 26 28  1  1  0  0  0
 24 29  1  1  0  0  0
 27 30  1  6  0  0  0
 25 31  1  6  0  0  0
 29 32  1  0  0  0  0
 22 33  1  6  0  0  0
M  END
>  <cdx:fragmentId>
5

$$$$
