92430.cdx
  Mrv1902 05222410202D          

 19 21  0  0  0  0            999 V2000
    4.8793   -9.8725    0.0000 C   0  0  0  0  0  0  0  0  0  0  0  0
    4.8793  -10.6975    0.0000 C   0  0  0  0  0  0  0  0  0  0  0  0
    5.5938  -11.1100    0.0000 C   0  0  0  0  0  0  0  0  0  0  0  0
    6.3082  -10.6975    0.0000 C   0  0  0  0  0  0  0  0  0  0  0  0
    6.3082   -9.8725    0.0000 C   0  0  0  0  0  0  0  0  0  0  0  0
    5.5938   -9.4600    0.0000 C   0  0  0  0  0  0  0  0  0  0  0  0
    6.3082   -8.2225    0.0000 O   0  0  0  0  0  0  0  0  0  0  0  0
    5.5938   -8.6350    0.0000 C   0  0  0  0  0  0  0  0  0  0  0  0
    6.3082   -7.3975    0.0000 C   0  0  0  0  0  0  0  0  0  0  0  0
    5.5938   -6.9850    0.0000 C   0  0  0  0  0  0  0  0  0  0  0  0
    7.0227   -6.9850    0.0000 C   0  0  0  0  0  0  0  0  0  0  0  0
    7.0227   -6.1600    0.0000 C   0  0  0  0  0  0  0  0  0  0  0  0
    6.3082   -5.7475    0.0000 C   0  0  0  0  0  0  0  0  0  0  0  0
    5.5938   -6.1600    0.0000 C   0  0  0  0  0  0  0  0  0  0  0  0
    7.7372   -7.3975    0.0000 C   0  0  0  0  0  0  0  0  0  0  0  0
    8.4517   -6.9850    0.0000 C   0  0  0  0  0  0  0  0  0  0  0  0
    8.4517   -6.1600    0.0000 C   0  0  0  0  0  0  0  0  0  0  0  0
    7.7372   -5.7475    0.0000 C   0  0  0  0  0  0  0  0  0  0  0  0
    7.7372   -8.2225    0.0000 O   0  0  0  0  0  0  0  0  0  0  0  0
  1  2  2  0  0  0  0
  2  3  1  0  0  0  0
  3  4  2  0  0  0  0
  4  5  1  0  0  0  0
  5  6  2  0  0  0  0
  6  1  1  0  0  0  0
  7  8  1  0  0  0  0
  8  6  1  0  0  0  0
  7  9  1  0  0  0  0
  9 10  2  0  0  0  0
  9 11  1  0  0  0  0
 11 12  2  0  0  0  0
 12 13  1  0  0  0  0
 13 14  2  0  0  0  0
 14 10  1  0  0  0  0
 11 15  1  0  0  0  0
 15 16  2  0  0  0  0
 16 17  1  0  0  0  0
 17 18  2  0  0  0  0
 18 12  1  0  0  0  0
 15 19  1  0  0  0  0
M  END
>  <cdx:fragmentId>
5

$$$$
