92434.cdx
  Mrv1902 05222410182D          

 30 32  0  0  0  0            999 V2000
    3.9612   -8.7796    0.0000 O   0  0  0  0  0  0  0  0  0  0  0  0
    7.5353   -7.5349    0.0000 C   0  0  2  0  0  0  0  0  0  0  0  0
    6.8221   -7.1201    0.0000 O   0  0  0  0  0  0  0  0  0  0  0  0
    8.2511   -7.1246    0.0000 C   0  0  1  0  0  0  0  0  0  0  0  0
    4.6781  -10.0156    0.0000 O   0  0  0  0  0  0  0  0  0  0  0  0
    5.3918   -9.6017    0.0000 C   0  0  2  0  0  0  0  0  0  0  0  0
    5.3901   -8.7767    0.0000 C   0  0  1  0  0  0  0  0  0  0  0  0
    4.6748   -8.3656    0.0000 C   0  0  0  0  0  0  0  0  0  0  0  0
    8.2537   -6.2997    0.0000 C   0  0  1  0  0  0  0  0  0  0  0  0
    7.5405   -5.8849    0.0000 C   0  0  0  0  0  0  0  0  0  0  0  0
    6.8248   -6.2951    0.0000 C   0  0  0  0  0  0  0  0  0  0  0  0
    8.9642   -7.5394    0.0000 C   0  0  2  0  0  0  0  0  0  0  0  0
    9.6800   -7.1292    0.0000 O   0  0  0  0  0  0  0  0  0  0  0  0
    9.6826   -6.3042    0.0000 C   0  0  0  0  0  0  0  0  0  0  0  0
    8.9695   -5.8894    0.0000 C   0  0  0  0  0  0  0  0  0  0  0  0
    8.2589   -4.6497    0.0000 O   0  0  0  0  0  0  0  0  0  0  0  0
    7.5432   -5.0599    0.0000 C   0  0  0  0  0  0  0  0  0  0  0  0
    6.8300   -3.8201    0.0000 C   0  0  0  0  0  0  0  0  0  0  0  0
    6.8300   -4.6451    0.0000 O   0  0  0  0  0  0  0  0  0  0  0  0
   10.3984   -5.8940    0.0000 O   0  0  0  0  0  0  0  0  0  0  0  0
    8.2563   -5.4747    0.0000 H   0  0  0  0  0  0  0  0  0  0  0  0
    8.2511   -7.9496    0.0000 H   0  0  0  0  0  0  0  0  0  0  0  0
    8.9616   -8.3644    0.0000 C   0  0  0  0  0  0  0  0  0  0  0  0
    6.1071  -10.0127    0.0000 C   0  0  1  0  0  0  0  0  0  0  0  0
    6.8207   -9.5988    0.0000 C   0  0  2  0  0  0  0  0  0  0  0  0
    6.8190   -8.7738    0.0000 C   0  0  1  0  0  0  0  0  0  0  0  0
    6.1037   -8.3628    0.0000 O   0  0  0  0  0  0  0  0  0  0  0  0
    6.1087  -10.8377    0.0000 O   0  0  0  0  0  0  0  0  0  0  0  0
    7.5360  -10.0099    0.0000 O   0  0  0  0  0  0  0  0  0  0  0  0
    7.5327   -8.3599    0.0000 O   0  0  0  0  0  0  0  0  0  0  0  0
  2 30  1  6  0  0  0
  2  3  1  0  0  0  0
  2  4  1  0  0  0  0
  4  9  1  0  0  0  0
  9 10  1  0  0  0  0
 10 11  2  0  0  0  0
 11  3  1  0  0  0  0
  4 12  1  0  0  0  0
 12 13  1  0  0  0  0
 13 14  1  0  0  0  0
 14 15  1  0  0  0  0
 15  9  1  0  0  0  0
 16 17  2  0  0  0  0
 17 10  1  0  0  0  0
 18 19  1  0  0  0  0
 19 17  1  0  0  0  0
 14 20  2  0  0  0  0
  9 21  1  6  0  0  0
  6  5  1  6  0  0  0
  4 22  1  6  0  0  0
 12 23  1  6  0  0  0
  6  7  1  0  0  0  0
  7  8  1  1  0  0  0
  8  1  1  0  0  0  0
  6 24  1  0  0  0  0
 24 25  1  0  0  0  0
 25 26  1  0  0  0  0
 26 27  1  0  0  0  0
 27  7  1  0  0  0  0
 26 30  1  1  0  0  0
 24 28  1  1  0  0  0
 25 29  1  6  0  0  0
M  END
>  <cdx:fragmentId>
5

$$$$
