92437.cdx
  Mrv1902 05222410192D          

 28 31  0  0  0  0            999 V2000
    6.8025   -8.6725    0.0000 H   0  0  0  0  0  0  0  0  0  0  0  0
    6.8055   -6.1975    0.0000 O   0  0  0  0  0  0  0  0  0  0  0  0
    6.3534  -11.6820    0.0000 C   0  0  0  0  0  0  0  0  0  0  0  0
    6.6093  -10.8977    0.0000 O   0  0  0  0  0  0  0  0  0  0  0  0
    4.9950  -11.2387    0.0000 O   0  0  0  0  0  0  0  0  0  0  0  0
    4.9555   -9.0564    0.0000 C   0  0  0  0  0  0  0  0  0  0  0  0
    4.6996   -9.8407    0.0000 C   0  0  0  0  0  0  0  0  0  0  0  0
    5.2509  -10.4544    0.0000 C   0  0  0  0  0  0  0  0  0  0  0  0
    6.0580  -10.2839    0.0000 C   0  0  0  0  0  0  0  0  0  0  0  0
    6.3139   -9.4996    0.0000 C   0  0  0  0  0  0  0  0  0  0  0  0
    5.7627   -8.8858    0.0000 C   0  0  0  0  0  0  0  0  0  0  0  0
   10.2669   -5.4726    0.0000 C   0  0  0  0  0  0  0  0  0  0  0  0
    9.7156   -4.8589    0.0000 O   0  0  0  0  0  0  0  0  0  0  0  0
    8.6130   -3.6313    0.0000 O   0  0  0  0  0  0  0  0  0  0  0  0
    8.6525   -5.8137    0.0000 C   0  0  0  0  0  0  0  0  0  0  0  0
    8.9084   -5.0294    0.0000 C   0  0  0  0  0  0  0  0  0  0  0  0
    8.3571   -4.4156    0.0000 C   0  0  0  0  0  0  0  0  0  0  0  0
    7.5500   -4.5862    0.0000 C   0  0  0  0  0  0  0  0  0  0  0  0
    7.2941   -5.3705    0.0000 C   0  0  0  0  0  0  0  0  0  0  0  0
    7.8453   -5.9842    0.0000 C   0  0  0  0  0  0  0  0  0  0  0  0
    6.0202   -6.7666    0.0000 C   0  0  0  0  0  0  0  0  0  0  0  0
    5.5345   -7.4335    0.0000 O   0  0  0  0  0  0  0  0  0  0  0  0
    6.0186   -8.1015    0.0000 C   0  0  1  0  0  0  0  0  0  0  0  0
    6.8045   -7.0225    0.0000 C   0  0  2  0  0  0  0  0  0  0  0  0
    6.8035   -7.8475    0.0000 C   0  0  2  0  0  0  0  0  0  0  0  0
    7.5878   -8.1034    0.0000 C   0  0  0  0  0  0  0  0  0  0  0  0
    8.0735   -7.4366    0.0000 O   0  0  0  0  0  0  0  0  0  0  0  0
    7.5894   -6.7686    0.0000 C   0  0  2  0  0  0  0  0  0  0  0  0
 25  1  1  1  0  0  0
 24  2  1  1  0  0  0
  4  3  1  0  0  0  0
  9  4  1  0  0  0  0
  8  5  1  0  0  0  0
  6 11  1  0  0  0  0
  7  6  2  0  0  0  0
  8  7  1  0  0  0  0
  9  8  2  0  0  0  0
 10  9  1  0  0  0  0
 11 10  2  0  0  0  0
 23 11  1  1  0  0  0
 13 12  1  0  0  0  0
 16 13  1  0  0  0  0
 17 14  1  0  0  0  0
 15 20  1  0  0  0  0
 16 15  2  0  0  0  0
 17 16  1  0  0  0  0
 18 17  2  0  0  0  0
 19 18  1  0  0  0  0
 20 19  2  0  0  0  0
 28 20  1  1  0  0  0
 21 24  1  0  0  0  0
 22 21  1  0  0  0  0
 23 22  1  0  0  0  0
 25 23  1  0  0  0  0
 24 28  1  0  0  0  0
 25 24  1  0  0  0  0
 26 25  1  0  0  0  0
 27 26  1  0  0  0  0
 28 27  1  0  0  0  0
M  END
>  <cdx:fragmentId>
5

$$$$
