92439.cdx
  Mrv1902 05222410282D          

 50 55  0  0  0  0            999 V2000
    6.0102  -12.0637    0.0000 O   0  0  0  0  0  0  0  0  0  0  0  0
    5.2907  -12.4675    0.0000 C   0  0  2  0  0  0  0  0  0  0  0  0
    4.5813  -12.0463    0.0000 O   0  0  0  0  0  0  0  0  0  0  0  0
    3.8619  -12.4500    0.0000 C   0  0  1  0  0  0  0  0  0  0  0  0
    3.8518  -13.2750    0.0000 C   0  0  2  0  0  0  0  0  0  0  0  0
    4.5612  -13.6962    0.0000 C   0  0  1  0  0  0  0  0  0  0  0  0
    5.2806  -13.2924    0.0000 C   0  0  1  0  0  0  0  0  0  0  0  0
    3.1525  -12.0288    0.0000 C   0  0  0  0  0  0  0  0  0  0  0  0
    4.5511  -14.5211    0.0000 O   0  0  0  0  0  0  0  0  0  0  0  0
    5.9900  -13.7136    0.0000 O   0  0  0  0  0  0  0  0  0  0  0  0
    3.1324  -13.6787    0.0000 O   0  0  0  0  0  0  0  0  0  0  0  0
    2.4330  -12.4326    0.0000 O   0  0  0  0  0  0  0  0  0  0  0  0
    9.6282   -4.4563    0.0000 O   0  0  0  0  0  0  0  0  0  0  0  0
    9.2120   -3.7440    0.0000 C   0  0  2  0  0  0  0  0  0  0  0  0
    9.6207   -3.0274    0.0000 O   0  0  0  0  0  0  0  0  0  0  0  0
    9.2044   -2.3151    0.0000 C   0  0  1  0  0  0  0  0  0  0  0  0
    8.3794   -2.3195    0.0000 C   0  0  2  0  0  0  0  0  0  0  0  0
    7.9707   -3.0361    0.0000 C   0  0  1  0  0  0  0  0  0  0  0  0
    8.3870   -3.7484    0.0000 C   0  0  1  0  0  0  0  0  0  0  0  0
    7.1457   -3.0405    0.0000 O   0  0  0  0  0  0  0  0  0  0  0  0
    9.6131   -1.5985    0.0000 C   0  0  0  0  0  0  0  0  0  0  0  0
    7.9632   -1.6072    0.0000 O   0  0  0  0  0  0  0  0  0  0  0  0
    7.9783   -4.4650    0.0000 O   0  0  0  0  0  0  0  0  0  0  0  0
    9.2852   -0.8414    0.0000 O   0  0  0  0  0  0  0  0  0  0  0  0
    7.8177   -9.4975    0.0000 H   0  0  0  0  0  0  0  0  0  0  0  0
    7.8207   -7.0225    0.0000 O   0  0  0  0  0  0  0  0  0  0  0  0
    7.3686  -12.5070    0.0000 C   0  0  0  0  0  0  0  0  0  0  0  0
    7.6245  -11.7227    0.0000 O   0  0  0  0  0  0  0  0  0  0  0  0
    5.9707   -9.8814    0.0000 C   0  0  0  0  0  0  0  0  0  0  0  0
    5.7148  -10.6657    0.0000 C   0  0  0  0  0  0  0  0  0  0  0  0
    6.2661  -11.2794    0.0000 C   0  0  0  0  0  0  0  0  0  0  0  0
    7.0733  -11.1089    0.0000 C   0  0  0  0  0  0  0  0  0  0  0  0
    7.3292  -10.3246    0.0000 C   0  0  0  0  0  0  0  0  0  0  0  0
    6.7779   -9.7108    0.0000 C   0  0  0  0  0  0  0  0  0  0  0  0
   11.2821   -6.2976    0.0000 C   0  0  0  0  0  0  0  0  0  0  0  0
   10.7308   -5.6839    0.0000 O   0  0  0  0  0  0  0  0  0  0  0  0
    9.6677   -6.6387    0.0000 C   0  0  0  0  0  0  0  0  0  0  0  0
    9.9236   -5.8544    0.0000 C   0  0  0  0  0  0  0  0  0  0  0  0
    9.3723   -5.2406    0.0000 C   0  0  0  0  0  0  0  0  0  0  0  0
    8.5652   -5.4112    0.0000 C   0  0  0  0  0  0  0  0  0  0  0  0
    8.3093   -6.1955    0.0000 C   0  0  0  0  0  0  0  0  0  0  0  0
    8.8605   -6.8092    0.0000 C   0  0  0  0  0  0  0  0  0  0  0  0
    7.0354   -7.5916    0.0000 C   0  0  0  0  0  0  0  0  0  0  0  0
    6.5497   -8.2585    0.0000 O   0  0  0  0  0  0  0  0  0  0  0  0
    7.0338   -8.9265    0.0000 C   0  0  1  0  0  0  0  0  0  0  0  0
    7.8197   -7.8475    0.0000 C   0  0  2  0  0  0  0  0  0  0  0  0
    7.8187   -8.6725    0.0000 C   0  0  2  0  0  0  0  0  0  0  0  0
    8.6030   -8.9284    0.0000 C   0  0  0  0  0  0  0  0  0  0  0  0
    9.0888   -8.2616    0.0000 O   0  0  0  0  0  0  0  0  0  0  0  0
    8.6047   -7.5936    0.0000 C   0  0  2  0  0  0  0  0  0  0  0  0
  2  1  1  1  0  0  0
  2  3  1  0  0  0  0
  3  4  1  0  0  0  0
  4  5  1  0  0  0  0
  5  6  1  0  0  0  0
  6  7  1  0  0  0  0
  7  2  1  0  0  0  0
  4  8  1  1  0  0  0
  6  9  1  1  0  0  0
  7 10  1  6  0  0  0
  5 11  1  6  0  0  0
 14 13  1  1  0  0  0
 14 15  1  0  0  0  0
 15 16  1  0  0  0  0
 16 17  1  0  0  0  0
 17 18  1  0  0  0  0
 18 19  1  0  0  0  0
 19 14  1  0  0  0  0
 18 20  1  1  0  0  0
 16 21  1  1  0  0  0
 17 22  1  6  0  0  0
 19 23  1  6  0  0  0
 47 25  1  1  0  0  0
 46 26  1  1  0  0  0
 28 27  1  0  0  0  0
 32 28  1  0  0  0  0
 31  1  1  0  0  0  0
  8 12  1  0  0  0  0
 29 34  1  0  0  0  0
 30 29  2  0  0  0  0
 31 30  1  0  0  0  0
 32 31  2  0  0  0  0
 33 32  1  0  0  0  0
 34 33  2  0  0  0  0
 45 34  1  1  0  0  0
 36 35  1  0  0  0  0
 38 36  1  0  0  0  0
 39 13  1  0  0  0  0
 21 24  1  0  0  0  0
 37 42  1  0  0  0  0
 38 37  2  0  0  0  0
 39 38  1  0  0  0  0
 40 39  2  0  0  0  0
 41 40  1  0  0  0  0
 42 41  2  0  0  0  0
 50 42  1  1  0  0  0
 43 46  1  0  0  0  0
 44 43  1  0  0  0  0
 45 44  1  0  0  0  0
 47 45  1  0  0  0  0
 46 50  1  0  0  0  0
 47 46  1  0  0  0  0
 48 47  1  0  0  0  0
 49 48  1  0  0  0  0
 50 49  1  0  0  0  0
M  END
>  <cdx:fragmentId>
5

$$$$
