92435.cdx
  Mrv1902 05222410182D          

 30 32  0  0  0  0            999 V2000
    4.4806   -6.2150    0.0000 C   0  0  0  0  0  0  0  0  0  0  0  0
    4.4806   -7.0400    0.0000 C   0  0  0  0  0  0  0  0  0  0  0  0
    5.1950   -7.4525    0.0000 C   0  0  0  0  0  0  0  0  0  0  0  0
    5.9095   -7.0400    0.0000 C   0  0  0  0  0  0  0  0  0  0  0  0
    5.9095   -6.2150    0.0000 C   0  0  0  0  0  0  0  0  0  0  0  0
    5.1950   -5.8025    0.0000 C   0  0  0  0  0  0  0  0  0  0  0  0
    6.6240   -7.4525    0.0000 C   0  0  0  0  0  0  0  0  0  0  0  0
    7.3384   -7.0400    0.0000 C   0  0  0  0  0  0  0  0  0  0  0  0
    7.3384   -6.2150    0.0000 C   0  0  0  0  0  0  0  0  0  0  0  0
    6.6240   -5.8025    0.0000 O   0  0  0  0  0  0  0  0  0  0  0  0
    8.7674   -6.2150    0.0000 C   0  0  0  0  0  0  0  0  0  0  0  0
    8.0529   -5.8025    0.0000 C   0  0  0  0  0  0  0  0  0  0  0  0
    9.4819   -5.8025    0.0000 C   0  0  0  0  0  0  0  0  0  0  0  0
    9.4819   -4.9775    0.0000 C   0  0  0  0  0  0  0  0  0  0  0  0
    8.7674   -4.5650    0.0000 C   0  0  0  0  0  0  0  0  0  0  0  0
    8.0529   -4.9775    0.0000 C   0  0  0  0  0  0  0  0  0  0  0  0
    6.6240   -8.2775    0.0000 O   0  0  0  0  0  0  0  0  0  0  0  0
    5.1950   -4.9775    0.0000 O   0  0  0  0  0  0  0  0  0  0  0  0
    5.1950   -8.2775    0.0000 O   0  0  0  0  0  0  0  0  0  0  0  0
    4.4806   -8.6900    0.0000 C   0  0  0  0  0  0  0  0  0  0  0  0
    3.7661   -7.4525    0.0000 O   0  0  0  0  0  0  0  0  0  0  0  0
    3.0516   -7.0400    0.0000 C   0  0  0  0  0  0  0  0  0  0  0  0
    3.7661   -5.8025    0.0000 O   0  0  0  0  0  0  0  0  0  0  0  0
    3.7661   -4.9775    0.0000 C   0  0  0  0  0  0  0  0  0  0  0  0
    8.7674   -3.7400    0.0000 O   0  0  0  0  0  0  0  0  0  0  0  0
    8.0529   -3.3275    0.0000 C   0  0  0  0  0  0  0  0  0  0  0  0
   10.1963   -4.5650    0.0000 O   0  0  0  0  0  0  0  0  0  0  0  0
   10.1963   -3.7400    0.0000 C   0  0  0  0  0  0  0  0  0  0  0  0
   10.1963   -6.2150    0.0000 O   0  0  0  0  0  0  0  0  0  0  0  0
   10.9108   -5.8025    0.0000 C   0  0  0  0  0  0  0  0  0  0  0  0
  1  2  2  0  0  0  0
  2  3  1  0  0  0  0
  3  4  2  0  0  0  0
  4  5  1  0  0  0  0
  5  6  2  0  0  0  0
  6  1  1  0  0  0  0
  4  7  1  0  0  0  0
  7  8  1  0  0  0  0
  8  9  2  0  0  0  0
  9 10  1  0  0  0  0
 10  5  1  0  0  0  0
 11 12  2  0  0  0  0
 12  9  1  0  0  0  0
 11 13  1  0  0  0  0
 13 14  2  0  0  0  0
 14 15  1  0  0  0  0
 15 16  2  0  0  0  0
 16 12  1  0  0  0  0
  7 17  2  0  0  0  0
  6 18  1  0  0  0  0
  3 19  1  0  0  0  0
 19 20  1  0  0  0  0
  2 21  1  0  0  0  0
 21 22  1  0  0  0  0
  1 23  1  0  0  0  0
 23 24  1  0  0  0  0
 15 25  1  0  0  0  0
 25 26  1  0  0  0  0
 14 27  1  0  0  0  0
 27 28  1  0  0  0  0
 13 29  1  0  0  0  0
 29 30  1  0  0  0  0
M  END
>  <cdx:fragmentId>
5

$$$$
