92431.cdx
  Mrv1902 05222410202D          

 21 20  0  0  0  0            999 V2000
    0.3000   -7.5900    0.0000 C   0  0  0  0  0  0  0  0  0  0  0  0
    1.0145   -7.1775    0.0000 O   0  0  0  0  0  0  0  0  0  0  0  0
    1.7290   -7.5900    0.0000 C   0  0  0  0  0  0  0  0  0  0  0  0
    2.4434   -7.1775    0.0000 C   0  0  0  0  0  0  0  0  0  0  0  0
    3.1579   -7.5900    0.0000 C   0  0  0  0  0  0  0  0  0  0  0  0
    3.8724   -7.1775    0.0000 C   0  0  0  0  0  0  0  0  0  0  0  0
    4.5869   -7.5900    0.0000 C   0  0  0  0  0  0  0  0  0  0  0  0
    5.3013   -7.1775    0.0000 C   0  0  0  0  0  0  0  0  0  0  0  0
    6.0158   -7.5900    0.0000 C   0  0  0  0  0  0  0  0  0  0  0  0
    6.7303   -7.1775    0.0000 C   0  0  0  0  0  0  0  0  0  0  0  0
    7.4447   -7.5900    0.0000 C   0  0  0  0  0  0  0  0  0  0  0  0
    8.1592   -7.1775    0.0000 C   0  0  0  0  0  0  0  0  0  0  0  0
    8.8737   -7.5900    0.0000 C   0  0  0  0  0  0  0  0  0  0  0  0
    9.5881   -7.1775    0.0000 C   0  0  0  0  0  0  0  0  0  0  0  0
   10.3026   -7.5900    0.0000 C   0  0  0  0  0  0  0  0  0  0  0  0
   11.0171   -7.1775    0.0000 C   0  0  0  0  0  0  0  0  0  0  0  0
   11.7316   -7.5900    0.0000 C   0  0  0  0  0  0  0  0  0  0  0  0
   12.4460   -7.1775    0.0000 C   0  0  0  0  0  0  0  0  0  0  0  0
    1.7290   -8.4150    0.0000 O   0  0  0  0  0  0  0  0  0  0  0  0
   13.1605   -7.5900    0.0000 C   0  0  0  0  0  0  0  0  0  0  0  0
   13.8750   -7.1775    0.0000 C   0  0  0  0  0  0  0  0  0  0  0  0
  1  2  1  0  0  0  0
  2  3  1  0  0  0  0
  3  4  1  0  0  0  0
  4  5  1  0  0  0  0
  5  6  1  0  0  0  0
  6  7  1  0  0  0  0
  7  8  1  0  0  0  0
  8  9  1  0  0  0  0
  9 10  1  0  0  0  0
 10 11  2  0  0  0  0
 11 12  1  0  0  0  0
 12 13  1  0  0  0  0
 13 14  2  0  0  0  0
 14 15  1  0  0  0  0
 15 16  1  0  0  0  0
 16 17  1  0  0  0  0
 17 18  1  0  0  0  0
  3 19  2  0  0  0  0
 18 20  1  0  0  0  0
 20 21  1  0  0  0  0
M  END
>  <cdx:fragmentId>
3

$$$$
