92446.cdx
  Mrv1902 05222410232D          

 37 40  0  0  0  0            999 V2000
    5.5531   -5.9813    0.0000 C   0  0  0  0  0  0  0  0  0  0  0  0
    5.5531   -6.8062    0.0000 O   0  0  0  0  0  0  0  0  0  0  0  0
    6.2675   -7.2188    0.0000 C   0  0  2  0  0  0  0  0  0  0  0  0
    6.9820   -6.8062    0.0000 C   0  0  1  0  0  0  0  0  0  0  0  0
    6.9820   -5.9813    0.0000 C   0  0  1  0  0  0  0  0  0  0  0  0
    6.2675   -5.5687    0.0000 C   0  0  0  0  0  0  0  0  0  0  0  0
    4.8386   -8.0437    0.0000 O   0  0  0  0  0  0  0  0  0  0  0  0
    5.5531   -8.4563    0.0000 C   0  0  1  0  0  0  0  0  0  0  0  0
    6.2675   -8.0437    0.0000 O   0  0  0  0  0  0  0  0  0  0  0  0
    4.1241   -8.4563    0.0000 C   0  0  1  0  0  0  0  0  0  0  0  0
    4.1241   -9.2813    0.0000 C   0  0  2  0  0  0  0  0  0  0  0  0
    4.8386   -9.6937    0.0000 C   0  0  1  0  0  0  0  0  0  0  0  0
    5.5531   -9.2813    0.0000 C   0  0  1  0  0  0  0  0  0  0  0  0
    3.4096   -8.0437    0.0000 C   0  0  0  0  0  0  0  0  0  0  0  0
    2.6952   -8.4563    0.0000 O   0  0  0  0  0  0  0  0  0  0  0  0
    3.4096   -9.6937    0.0000 O   0  0  0  0  0  0  0  0  0  0  0  0
    7.7666   -7.0612    0.0000 C   0  0  1  0  0  0  0  0  0  0  0  0
    8.2515   -6.3937    0.0000 C   0  0  0  0  0  0  0  0  0  0  0  0
    7.7666   -5.7263    0.0000 C   0  0  1  0  0  0  0  0  0  0  0  0
    7.7666   -7.8862    0.0000 C   0  0  0  0  0  0  0  0  0  0  0  0
    8.4811   -7.4737    0.0000 O   0  0  0  0  0  0  0  0  0  0  0  0
    9.1956   -7.0612    0.0000 C   0  0  0  0  0  0  0  0  0  0  0  0
    9.9100   -7.4737    0.0000 C   0  0  0  0  0  0  0  0  0  0  0  0
    9.1956   -6.2362    0.0000 O   0  0  0  0  0  0  0  0  0  0  0  0
   10.6245   -7.0612    0.0000 C   0  0  0  0  0  0  0  0  0  0  0  0
   11.3390   -7.4737    0.0000 C   0  0  0  0  0  0  0  0  0  0  0  0
   11.3390   -8.2987    0.0000 C   0  0  0  0  0  0  0  0  0  0  0  0
   12.0534   -8.7112    0.0000 C   0  0  0  0  0  0  0  0  0  0  0  0
   12.7679   -8.2987    0.0000 C   0  0  0  0  0  0  0  0  0  0  0  0
   12.7679   -7.4737    0.0000 C   0  0  0  0  0  0  0  0  0  0  0  0
   12.0534   -7.0612    0.0000 C   0  0  0  0  0  0  0  0  0  0  0  0
   13.4824   -8.7112    0.0000 O   0  0  0  0  0  0  0  0  0  0  0  0
    4.8386  -10.5188    0.0000 O   0  0  0  0  0  0  0  0  0  0  0  0
    6.2675   -9.6937    0.0000 O   0  0  0  0  0  0  0  0  0  0  0  0
    7.0682   -5.1608    0.0000 O   0  0  0  0  0  0  0  0  0  0  0  0
    8.0216   -4.9417    0.0000 O   0  0  0  0  0  0  0  0  0  0  0  0
    6.9820   -7.6313    0.0000 H   0  0  0  0  0  0  0  0  0  0  0  0
  1  2  1  0  0  0  0
  2  3  1  0  0  0  0
  3  4  1  0  0  0  0
  4  5  1  0  0  0  0
  5  6  1  0  0  0  0
  6  1  2  0  0  0  0
  7  8  1  0  0  0  0
  8  9  1  1  0  0  0
  3  9  1  6  0  0  0
  7 10  1  0  0  0  0
 10 11  1  0  0  0  0
 11 12  1  0  0  0  0
 12 13  1  0  0  0  0
 13  8  1  0  0  0  0
 10 14  1  1  0  0  0
 14 15  1  0  0  0  0
 11 16  1  6  0  0  0
  4 17  1  0  0  0  0
 17 18  1  0  0  0  0
 18 19  1  0  0  0  0
 19  5  1  0  0  0  0
 17 20  1  0  0  0  0
 17 21  1  6  0  0  0
 21 22  1  0  0  0  0
 22 23  1  0  0  0  0
 22 24  2  0  0  0  0
 23 25  2  0  0  0  0
 25 26  1  0  0  0  0
 26 27  2  0  0  0  0
 27 28  1  0  0  0  0
 28 29  2  0  0  0  0
 29 30  1  0  0  0  0
 30 31  2  0  0  0  0
 31 26  1  0  0  0  0
 29 32  1  0  0  0  0
 12 33  1  1  0  0  0
 13 34  1  6  0  0  0
  5 35  1  6  0  0  0
 19 36  1  6  0  0  0
  4 37  1  6  0  0  0
M  END
>  <cdx:fragmentId>
46

$$$$
