92443.cdx
  Mrv1902 05222410212D          

 40 43  0  0  0  0            999 V2000
    4.3568   -6.4487    0.0000 C   0  0  0  0  0  0  0  0  0  0  0  0
    4.3568   -7.2738    0.0000 C   0  0  0  0  0  0  0  0  0  0  0  0
    5.0713   -7.6863    0.0000 C   0  0  0  0  0  0  0  0  0  0  0  0
    5.7857   -7.2738    0.0000 C   0  0  0  0  0  0  0  0  0  0  0  0
    5.7857   -6.4487    0.0000 C   0  0  0  0  0  0  0  0  0  0  0  0
    5.0713   -6.0362    0.0000 C   0  0  0  0  0  0  0  0  0  0  0  0
    5.0713   -8.5113    0.0000 O   0  0  0  0  0  0  0  0  0  0  0  0
    6.5002   -8.5113    0.0000 O   0  0  0  0  0  0  0  0  0  0  0  0
    6.5002   -7.6863    0.0000 C   0  0  0  0  0  0  0  0  0  0  0  0
    7.2147   -7.2738    0.0000 C   0  0  0  0  0  0  0  0  0  0  0  0
    7.2147   -6.4487    0.0000 C   0  0  0  0  0  0  0  0  0  0  0  0
    6.5002   -6.0362    0.0000 O   0  0  0  0  0  0  0  0  0  0  0  0
    7.9292   -7.6863    0.0000 O   0  0  0  0  0  0  0  0  0  0  0  0
    8.6436   -6.4487    0.0000 C   0  0  0  0  0  0  0  0  0  0  0  0
    7.9292   -6.0362    0.0000 C   0  0  0  0  0  0  0  0  0  0  0  0
    9.3581   -6.0362    0.0000 C   0  0  0  0  0  0  0  0  0  0  0  0
    9.3581   -5.2113    0.0000 C   0  0  0  0  0  0  0  0  0  0  0  0
    8.6436   -4.7988    0.0000 C   0  0  0  0  0  0  0  0  0  0  0  0
    7.9292   -5.2113    0.0000 C   0  0  0  0  0  0  0  0  0  0  0  0
   10.0726   -4.7988    0.0000 O   0  0  0  0  0  0  0  0  0  0  0  0
    3.6423   -6.0362    0.0000 O   0  0  0  0  0  0  0  0  0  0  0  0
    5.0713   -5.2113    0.0000 O   0  0  0  0  0  0  0  0  0  0  0  0
    4.3568   -4.7988    0.0000 C   0  0  0  0  0  0  0  0  0  0  0  0
    7.9292   -8.5113    0.0000 C   0  0  2  0  0  0  0  0  0  0  0  0
    7.2147   -8.9238    0.0000 O   0  0  0  0  0  0  0  0  0  0  0  0
    7.2147   -9.7487    0.0000 C   0  0  1  0  0  0  0  0  0  0  0  0
    7.9292  -10.1612    0.0000 C   0  0  2  0  0  0  0  0  0  0  0  0
    8.6436   -9.7487    0.0000 C   0  0  1  0  0  0  0  0  0  0  0  0
    8.6436   -8.9238    0.0000 C   0  0  1  0  0  0  0  0  0  0  0  0
    6.5002  -10.1612    0.0000 C   0  0  0  0  0  0  0  0  0  0  0  0
    9.3581  -10.1612    0.0000 O   0  0  0  0  0  0  0  0  0  0  0  0
    9.3581   -8.5113    0.0000 O   0  0  0  0  0  0  0  0  0  0  0  0
    7.9292  -10.9863    0.0000 O   0  0  0  0  0  0  0  0  0  0  0  0
    6.5002  -10.9863    0.0000 O   0  0  0  0  0  0  0  0  0  0  0  0
    5.7857  -11.3988    0.0000 C   0  0  0  0  0  0  0  0  0  0  0  0
    5.7857  -12.2238    0.0000 C   0  0  0  0  0  0  0  0  0  0  0  0
    5.0713  -10.9862    0.0000 O   0  0  0  0  0  0  0  0  0  0  0  0
    5.0713  -12.6363    0.0000 C   0  0  0  0  0  0  0  0  0  0  0  0
    5.0713  -13.4612    0.0000 O   0  0  0  0  0  0  0  0  0  0  0  0
    4.3568  -12.2238    0.0000 O   0  0  0  0  0  0  0  0  0  0  0  0
  1  2  2  0  0  0  0
  2  3  1  0  0  0  0
  3  4  2  0  0  0  0
  4  5  1  0  0  0  0
  5  6  2  0  0  0  0
  6  1  1  0  0  0  0
  3  7  1  0  0  0  0
  8  9  2  0  0  0  0
  9  4  1  0  0  0  0
  9 10  1  0  0  0  0
 10 11  2  0  0  0  0
 11 12  1  0  0  0  0
 12  5  1  0  0  0  0
 10 13  1  0  0  0  0
 14 15  1  0  0  0  0
 15 11  1  0  0  0  0
 14 16  2  0  0  0  0
 16 17  1  0  0  0  0
 17 18  2  0  0  0  0
 18 19  1  0  0  0  0
 19 15  2  0  0  0  0
 17 20  1  0  0  0  0
  1 21  1  0  0  0  0
  6 22  1  0  0  0  0
 22 23  1  0  0  0  0
 24 13  1  1  0  0  0
 24 25  1  0  0  0  0
 25 26  1  0  0  0  0
 26 27  1  0  0  0  0
 27 28  1  0  0  0  0
 28 29  1  0  0  0  0
 29 24  1  0  0  0  0
 26 30  1  1  0  0  0
 28 31  1  1  0  0  0
 29 32  1  6  0  0  0
 27 33  1  6  0  0  0
 30 34  1  0  0  0  0
 34 35  1  0  0  0  0
 35 36  1  0  0  0  0
 35 37  2  0  0  0  0
 36 38  1  0  0  0  0
 38 39  1  0  0  0  0
 38 40  2  0  0  0  0
M  END
>  <cdx:fragmentId>
5

$$$$
