92447.cdx
  Mrv1902 05222410222D          

 23 22  0  0  0  0            999 V2000
    0.7400   -6.9300    0.0000 C   0  0  0  0  0  0  0  0  0  0  0  0
    1.4545   -6.5175    0.0000 C   0  0  0  0  0  0  0  0  0  0  0  0
    2.1690   -6.9300    0.0000 C   0  0  0  0  0  0  0  0  0  0  0  0
    2.8834   -6.5175    0.0000 C   0  0  0  0  0  0  0  0  0  0  0  0
    3.5979   -6.9300    0.0000 C   0  0  0  0  0  0  0  0  0  0  0  0
    4.3124   -6.5175    0.0000 C   0  0  0  0  0  0  0  0  0  0  0  0
    5.0269   -6.9300    0.0000 C   0  0  0  0  0  0  0  0  0  0  0  0
    5.7413   -6.5175    0.0000 C   0  0  0  0  0  0  0  0  0  0  0  0
    6.4558   -6.9300    0.0000 C   0  0  0  0  0  0  0  0  0  0  0  0
    7.1703   -6.5175    0.0000 C   0  0  0  0  0  0  0  0  0  0  0  0
    7.8847   -6.9300    0.0000 C   0  0  0  0  0  0  0  0  0  0  0  0
    8.5992   -6.5175    0.0000 C   0  0  0  0  0  0  0  0  0  0  0  0
    9.3137   -6.9300    0.0000 C   0  0  0  0  0  0  0  0  0  0  0  0
   10.0281   -6.5175    0.0000 C   0  0  0  0  0  0  0  0  0  0  0  0
   10.7426   -6.9300    0.0000 C   0  0  0  0  0  0  0  0  0  0  0  0
   11.4571   -6.5175    0.0000 C   0  0  0  0  0  0  0  0  0  0  0  0
   12.1716   -6.9300    0.0000 C   0  0  0  0  0  0  0  0  0  0  0  0
   12.8860   -6.5175    0.0000 C   0  0  0  0  0  0  0  0  0  0  0  0
   13.6005   -6.9300    0.0000 O   0  0  0  0  0  0  0  0  0  0  0  0
    4.3124   -5.6925    0.0000 O   0  0  0  0  0  0  0  0  0  0  0  0
    6.4558   -7.7550    0.0000 O   0  0  0  0  0  0  0  0  0  0  0  0
    7.1703   -5.6925    0.0000 O   0  0  0  0  0  0  0  0  0  0  0  0
   12.8860   -5.6925    0.0000 O   0  0  0  0  0  0  0  0  0  0  0  0
  1  2  1  0  0  0  0
  2  3  1  0  0  0  0
  3  4  1  0  0  0  0
  4  5  1  0  0  0  0
  5  6  1  0  0  0  0
  6  7  1  0  0  0  0
  7  8  2  0  0  0  0
  8  9  1  0  0  0  0
  9 10  1  0  0  0  0
 10 11  1  0  0  0  0
 11 12  1  0  0  0  0
 12 13  1  0  0  0  0
 13 14  1  0  0  0  0
 14 15  1  0  0  0  0
 15 16  1  0  0  0  0
 16 17  1  0  0  0  0
 17 18  1  0  0  0  0
 18 19  1  0  0  0  0
  6 20  1  0  0  0  0
  9 21  1  0  0  0  0
 10 22  1  0  0  0  0
 18 23  2  0  0  0  0
M  END
>  <cdx:fragmentId>
3

$$$$
