92448.cdx
  Mrv1902 05222410242D          

 22 21  0  0  0  0            999 V2000
   13.7243   -6.7100    0.0000 C   0  0  0  0  0  0  0  0  0  0  0  0
   13.0098   -7.1225    0.0000 C   0  0  0  0  0  0  0  0  0  0  0  0
   12.2953   -6.7100    0.0000 C   0  0  0  0  0  0  0  0  0  0  0  0
   11.5808   -7.1225    0.0000 C   0  0  0  0  0  0  0  0  0  0  0  0
   10.8664   -6.7100    0.0000 C   0  0  0  0  0  0  0  0  0  0  0  0
   10.1519   -7.1225    0.0000 C   0  0  0  0  0  0  0  0  0  0  0  0
    9.4374   -6.7100    0.0000 C   0  0  0  0  0  0  0  0  0  0  0  0
    8.7230   -7.1225    0.0000 C   0  0  0  0  0  0  0  0  0  0  0  0
    8.0085   -6.7100    0.0000 C   0  0  0  0  0  0  0  0  0  0  0  0
    7.2940   -7.1225    0.0000 C   0  0  0  0  0  0  0  0  0  0  0  0
    6.5795   -6.7100    0.0000 C   0  0  0  0  0  0  0  0  0  0  0  0
    5.8651   -7.1225    0.0000 C   0  0  0  0  0  0  0  0  0  0  0  0
    5.1506   -6.7100    0.0000 C   0  0  0  0  0  0  0  0  0  0  0  0
    4.4361   -7.1225    0.0000 C   0  0  0  0  0  0  0  0  0  0  0  0
    3.7217   -6.7100    0.0000 C   0  0  0  0  0  0  0  0  0  0  0  0
    3.0072   -7.1225    0.0000 C   0  0  0  0  0  0  0  0  0  0  0  0
    2.2927   -6.7100    0.0000 C   0  0  0  0  0  0  0  0  0  0  0  0
    1.5782   -7.1225    0.0000 C   0  0  0  0  0  0  0  0  0  0  0  0
    0.8638   -6.7100    0.0000 O   0  0  0  0  0  0  0  0  0  0  0  0
    1.5782   -7.9475    0.0000 O   0  0  0  0  0  0  0  0  0  0  0  0
    8.0085   -5.8850    0.0000 O   0  0  0  0  0  0  0  0  0  0  0  0
    7.2940   -7.9475    0.0000 O   0  0  0  0  0  0  0  0  0  0  0  0
  2  1  1  0  0  0  0
  3  2  1  0  0  0  0
  4  3  1  0  0  0  0
  5  4  1  0  0  0  0
  6  5  1  0  0  0  0
  7  6  2  0  0  0  0
  8  7  1  0  0  0  0
  9  8  1  0  0  0  0
 10  9  1  0  0  0  0
 11 10  1  0  0  0  0
 12 11  1  0  0  0  0
 13 12  1  0  0  0  0
 14 13  1  0  0  0  0
 15 14  1  0  0  0  0
 16 15  1  0  0  0  0
 17 16  1  0  0  0  0
 18 17  1  0  0  0  0
 19 18  1  0  0  0  0
 18 20  2  0  0  0  0
  9 21  1  0  0  0  0
 10 22  1  0  0  0  0
M  END
>  <cdx:fragmentId>
3

$$$$
