92441.cdx
  Mrv1902 05222410212D          

 25 28  0  0  0  0            999 V2000
    4.2331   -4.9500    0.0000 C   0  0  0  0  0  0  0  0  0  0  0  0
    4.2331   -5.7750    0.0000 C   0  0  0  0  0  0  0  0  0  0  0  0
    4.9475   -6.1875    0.0000 C   0  0  0  0  0  0  0  0  0  0  0  0
    5.6620   -5.7750    0.0000 C   0  0  0  0  0  0  0  0  0  0  0  0
    5.6620   -4.9500    0.0000 C   0  0  0  0  0  0  0  0  0  0  0  0
    4.9475   -4.5375    0.0000 C   0  0  0  0  0  0  0  0  0  0  0  0
    4.9475   -7.0125    0.0000 C   0  0  0  0  0  0  0  0  0  0  0  0
    5.6620   -7.4250    0.0000 C   0  0  0  0  0  0  0  0  0  0  0  0
    6.3765   -7.0125    0.0000 C   0  0  0  0  0  0  0  0  0  0  0  0
    6.3765   -6.1875    0.0000 C   0  0  0  0  0  0  0  0  0  0  0  0
    4.2331   -7.4250    0.0000 C   0  0  0  0  0  0  0  0  0  0  0  0
    4.2331   -8.2500    0.0000 C   0  0  0  0  0  0  0  0  0  0  0  0
    4.9475   -8.6625    0.0000 C   0  0  0  0  0  0  0  0  0  0  0  0
    5.6620   -8.2500    0.0000 C   0  0  0  0  0  0  0  0  0  0  0  0
    7.0909   -5.7750    0.0000 N   0  3  0  0  0  0  0  0  0  0  0  0
    7.8054   -6.1875    0.0000 O   0  0  0  0  0  0  0  0  0  0  0  0
    7.0909   -4.9500    0.0000 O   0  5  0  0  0  0  0  0  0  0  0  0
    7.0909   -4.9500    0.0000 O   0  0  0  0  0  0  0  0  0  0  0  0
    6.3765   -4.5375    0.0000 C   0  0  0  0  0  0  0  0  0  0  0  0
    3.4484   -4.6951    0.0000 O   0  0  0  0  0  0  0  0  0  0  0  0
    2.9635   -5.3625    0.0000 C   0  0  0  0  0  0  0  0  0  0  0  0
    3.4484   -6.0299    0.0000 O   0  0  0  0  0  0  0  0  0  0  0  0
    6.3765   -3.7125    0.0000 O   0  0  0  0  0  0  0  0  0  0  0  0
    6.3765   -8.6625    0.0000 O   0  0  0  0  0  0  0  0  0  0  0  0
    6.3765   -9.4875    0.0000 C   0  0  0  0  0  0  0  0  0  0  0  0
  1  2  1  0  0  0  0
  2  3  2  0  0  0  0
  3  4  1  0  0  0  0
  4  5  2  0  0  0  0
  5  6  1  0  0  0  0
  6  1  1  0  0  0  0
  3  7  1  0  0  0  0
  7  8  2  0  0  0  0
  8  9  1  0  0  0  0
  9 10  2  0  0  0  0
 10  4  1  0  0  0  0
  7 11  1  0  0  0  0
 11 12  2  0  0  0  0
 12 13  1  0  0  0  0
 13 14  2  0  0  0  0
 14  8  1  0  0  0  0
 10 15  1  0  0  0  0
 18 19  1  0  0  0  0
 19  5  1  0  0  0  0
  1 20  1  0  0  0  0
 20 21  1  0  0  0  0
 21 22  1  0  0  0  0
 22  2  1  0  0  0  0
 19 23  2  0  0  0  0
 14 24  1  0  0  0  0
 24 25  1  0  0  0  0
 15 16  2  0  0  0  0
 15 17  1  0  0  0  0
M  CHG  2  15   1  17  -1
M  STY  1   1 SUP
M  SAL   1  3  15  16  17
M  SBL   1  1  17
M  SMT   1 NO2
M  SAP   1  1  15  10  1
M  END
>  <cdx:fragmentId>
5

$$$$
