92442.cdx
  Mrv1902 05222410202D          

 17 19  0  0  0  0            999 V2000
    5.5531   -4.9500    0.0000 C   0  0  0  0  0  0  0  0  0  0  0  0
    5.5531   -5.7750    0.0000 C   0  0  0  0  0  0  0  0  0  0  0  0
    6.2675   -6.1875    0.0000 C   0  0  0  0  0  0  0  0  0  0  0  0
    6.9820   -5.7750    0.0000 C   0  0  0  0  0  0  0  0  0  0  0  0
    6.9820   -4.9500    0.0000 C   0  0  0  0  0  0  0  0  0  0  0  0
    6.2675   -4.5375    0.0000 O   0  0  0  0  0  0  0  0  0  0  0  0
    7.6965   -6.1875    0.0000 C   0  0  0  0  0  0  0  0  0  0  0  0
    8.4109   -5.7750    0.0000 C   0  0  0  0  0  0  0  0  0  0  0  0
    8.4109   -4.9500    0.0000 C   0  0  0  0  0  0  0  0  0  0  0  0
    7.6965   -4.5375    0.0000 C   0  0  0  0  0  0  0  0  0  0  0  0
    7.6965   -3.7125    0.0000 O   0  0  0  0  0  0  0  0  0  0  0  0
    6.9820   -3.3000    0.0000 C   0  0  0  0  0  0  0  0  0  0  0  0
    9.1956   -6.0299    0.0000 C   0  0  0  0  0  0  0  0  0  0  0  0
    9.6805   -5.3625    0.0000 C   0  0  0  0  0  0  0  0  0  0  0  0
    9.1956   -4.6951    0.0000 O   0  0  0  0  0  0  0  0  0  0  0  0
    4.8386   -4.5375    0.0000 O   0  0  0  0  0  0  0  0  0  0  0  0
    7.6965   -7.0125    0.0000 O   0  0  0  0  0  0  0  0  0  0  0  0
  1  2  1  0  0  0  0
  2  3  2  0  0  0  0
  3  4  1  0  0  0  0
  4  5  1  0  0  0  0
  5  6  1  0  0  0  0
  6  1  1  0  0  0  0
  4  7  2  0  0  0  0
  7  8  1  0  0  0  0
  8  9  2  0  0  0  0
  9 10  1  0  0  0  0
 10  5  2  0  0  0  0
 10 11  1  0  0  0  0
 11 12  1  0  0  0  0
  8 13  1  0  0  0  0
 13 14  2  0  0  0  0
 14 15  1  0  0  0  0
 15  9  1  0  0  0  0
  1 16  2  0  0  0  0
  7 17  1  0  0  0  0
M  END
>  <cdx:fragmentId>
5

$$$$
