92440.cdx
  Mrv1902 05222410212D          

 15 16  0  0  0  0            999 V2000
    4.6181   -6.6413    0.0000 C   0  0  0  0  0  0  0  0  0  0  0  0
    4.6181   -7.4663    0.0000 C   0  0  0  0  0  0  0  0  0  0  0  0
    5.3325   -7.8788    0.0000 C   0  0  0  0  0  0  0  0  0  0  0  0
    6.0470   -7.4663    0.0000 C   0  0  0  0  0  0  0  0  0  0  0  0
    6.0470   -6.6413    0.0000 C   0  0  0  0  0  0  0  0  0  0  0  0
    5.3325   -6.2287    0.0000 C   0  0  0  0  0  0  0  0  0  0  0  0
    6.7615   -7.8788    0.0000 C   0  0  0  0  0  0  0  0  0  0  0  0
    7.4759   -7.4663    0.0000 C   0  0  0  0  0  0  0  0  0  0  0  0
    7.4759   -6.6413    0.0000 C   0  0  0  0  0  0  0  0  0  0  0  0
    6.7615   -6.2287    0.0000 C   0  0  0  0  0  0  0  0  0  0  0  0
    5.3325   -5.4037    0.0000 O   0  0  0  0  0  0  0  0  0  0  0  0
    4.6181   -4.9913    0.0000 C   0  0  0  0  0  0  0  0  0  0  0  0
    8.1904   -6.2287    0.0000 O   0  0  0  0  0  0  0  0  0  0  0  0
    8.3009   -7.4663    0.0000 C   0  0  0  0  0  0  0  0  0  0  0  0
    7.6895   -8.2631    0.0000 C   0  0  0  0  0  0  0  0  0  0  0  0
  1  2  2  0  0  0  0
  2  3  1  0  0  0  0
  3  4  2  0  0  0  0
  4  5  1  0  0  0  0
  5  6  2  0  0  0  0
  6  1  1  0  0  0  0
  4  7  1  0  0  0  0
  7  8  1  0  0  0  0
  8  9  1  0  0  0  0
  9 10  1  0  0  0  0
 10  5  1  0  0  0  0
  6 11  1  0  0  0  0
 11 12  1  0  0  0  0
  9 13  2  0  0  0  0
  8 14  1  0  0  0  0
  8 15  1  0  0  0  0
M  END
>  <cdx:fragmentId>
5

$$$$
