92454.cdx
  Mrv1902 05222410212D          

 18 17  0  0  0  0            999 V2000
    1.8813   -6.8750    0.0000 C   0  0  0  0  0  0  0  0  0  0  0  0
    2.5957   -6.4625    0.0000 C   0  0  0  0  0  0  0  0  0  0  0  0
    3.3102   -6.8750    0.0000 C   0  0  0  0  0  0  0  0  0  0  0  0
    4.0247   -6.4625    0.0000 C   0  0  0  0  0  0  0  0  0  0  0  0
    4.7392   -6.8750    0.0000 C   0  0  0  0  0  0  0  0  0  0  0  0
    5.4536   -6.4625    0.0000 C   0  0  0  0  0  0  0  0  0  0  0  0
    6.1681   -6.8750    0.0000 C   0  0  0  0  0  0  0  0  0  0  0  0
    6.8826   -6.4625    0.0000 C   0  0  0  0  0  0  0  0  0  0  0  0
    7.5970   -6.8750    0.0000 C   0  0  0  0  0  0  0  0  0  0  0  0
    8.3115   -6.4625    0.0000 C   0  0  0  0  0  0  0  0  0  0  0  0
    9.0260   -6.8750    0.0000 C   0  0  0  0  0  0  0  0  0  0  0  0
    9.7405   -6.4625    0.0000 C   0  0  0  0  0  0  0  0  0  0  0  0
   10.4549   -6.8750    0.0000 C   0  0  0  0  0  0  0  0  0  0  0  0
   11.1694   -6.4625    0.0000 C   0  0  0  0  0  0  0  0  0  0  0  0
   11.8839   -6.8750    0.0000 C   0  0  0  0  0  0  0  0  0  0  0  0
   12.5983   -6.4625    0.0000 C   0  0  0  0  0  0  0  0  0  0  0  0
   13.3128   -6.8750    0.0000 C   0  0  0  0  0  0  0  0  0  0  0  0
    7.5970   -7.7000    0.0000 O   0  0  0  0  0  0  0  0  0  0  0  0
  1  2  1  0  0  0  0
  2  3  1  0  0  0  0
  3  4  1  0  0  0  0
  4  5  1  0  0  0  0
  5  6  1  0  0  0  0
  6  7  1  0  0  0  0
  7  8  1  0  0  0  0
  8  9  1  0  0  0  0
  9 10  1  0  0  0  0
 10 11  1  0  0  0  0
 11 12  1  0  0  0  0
 12 13  1  0  0  0  0
 13 14  1  0  0  0  0
 14 15  1  0  0  0  0
 15 16  1  0  0  0  0
 16 17  1  0  0  0  0
  9 18  2  0  0  0  0
M  END
>  <cdx:fragmentId>
3

$$$$
