92452.cdx
  Mrv1902 05222410232D          

 13 15  0  0  0  0            999 V2000
    6.7183   -5.1707    0.0000 C   0  0  0  0  0  0  0  0  0  0  0  0
    6.9763   -5.9543    0.0000 C   0  0  0  0  0  0  0  0  0  0  0  0
    7.8013   -5.9511    0.0000 C   0  0  0  0  0  0  0  0  0  0  0  0
    8.0532   -5.1655    0.0000 C   0  0  0  0  0  0  0  0  0  0  0  0
    7.3839   -4.6832    0.0000 N   0  0  0  0  0  0  0  0  0  0  0  0
    5.9107   -5.0023    0.0000 C   0  0  0  0  0  0  0  0  0  0  0  0
    5.3610   -5.6175    0.0000 C   0  0  0  0  0  0  0  0  0  0  0  0
    5.6190   -6.4011    0.0000 C   0  0  0  0  0  0  0  0  0  0  0  0
    6.4266   -6.5695    0.0000 C   0  0  0  0  0  0  0  0  0  0  0  0
    8.3557   -6.5621    0.0000 C   0  0  0  0  0  0  0  0  0  0  0  0
    9.1620   -6.3874    0.0000 C   0  0  0  0  0  0  0  0  0  0  0  0
    9.4139   -5.6018    0.0000 C   0  0  0  0  0  0  0  0  0  0  0  0
    8.8595   -4.9909    0.0000 C   0  0  0  0  0  0  0  0  0  0  0  0
  1  2  2  0  0  0  0
  2  3  1  0  0  0  0
  3  4  2  0  0  0  0
  4  5  1  0  0  0  0
  5  1  1  0  0  0  0
  1  6  1  0  0  0  0
  6  7  2  0  0  0  0
  7  8  1  0  0  0  0
  8  9  2  0  0  0  0
  9  2  1  0  0  0  0
  3 10  1  0  0  0  0
 10 11  2  0  0  0  0
 11 12  1  0  0  0  0
 12 13  2  0  0  0  0
 13  4  1  0  0  0  0
M  END
>  <cdx:fragmentId>
5

$$$$
