92455.cdx
  Mrv1902 05222410212D          

 21 20  0  0  0  0            999 V2000
   13.8205   -6.7100    0.0000 O   0  0  0  0  0  0  0  0  0  0  0  0
   13.1060   -7.1225    0.0000 C   0  0  0  0  0  0  0  0  0  0  0  0
   12.3916   -6.7100    0.0000 C   0  0  0  0  0  0  0  0  0  0  0  0
   11.6771   -7.1225    0.0000 C   0  0  0  0  0  0  0  0  0  0  0  0
   10.9626   -6.7100    0.0000 C   0  0  0  0  0  0  0  0  0  0  0  0
   10.2481   -7.1225    0.0000 C   0  0  0  0  0  0  0  0  0  0  0  0
    9.5337   -6.7100    0.0000 C   0  0  0  0  0  0  0  0  0  0  0  0
    8.8192   -7.1225    0.0000 C   0  0  0  0  0  0  0  0  0  0  0  0
    8.1047   -6.7100    0.0000 C   0  0  0  0  0  0  0  0  0  0  0  0
    7.3903   -7.1225    0.0000 C   0  0  0  0  0  0  0  0  0  0  0  0
    6.6758   -6.7100    0.0000 C   0  0  0  0  0  0  0  0  0  0  0  0
    5.9613   -7.1225    0.0000 C   0  0  0  0  0  0  0  0  0  0  0  0
    5.2469   -6.7100    0.0000 C   0  0  0  0  0  0  0  0  0  0  0  0
    4.5324   -7.1225    0.0000 C   0  0  0  0  0  0  0  0  0  0  0  0
    3.8179   -6.7100    0.0000 C   0  0  0  0  0  0  0  0  0  0  0  0
    3.1034   -7.1225    0.0000 C   0  0  0  0  0  0  0  0  0  0  0  0
    2.3890   -6.7100    0.0000 C   0  0  0  0  0  0  0  0  0  0  0  0
    1.6745   -7.1225    0.0000 C   0  0  0  0  0  0  0  0  0  0  0  0
    0.9600   -6.7100    0.0000 C   0  0  0  0  0  0  0  0  0  0  0  0
    7.3903   -7.9475    0.0000 O   0  0  0  0  0  0  0  0  0  0  0  0
   13.1060   -7.9475    0.0000 O   0  0  0  0  0  0  0  0  0  0  0  0
  2  1  1  0  0  0  0
  3  2  1  0  0  0  0
  4  3  1  0  0  0  0
  5  4  1  0  0  0  0
  6  5  1  0  0  0  0
  7  6  1  0  0  0  0
  8  7  1  0  0  0  0
  9  8  1  0  0  0  0
 10  9  1  0  0  0  0
 11 10  1  0  0  0  0
 12 11  2  0  0  0  0
 13 12  1  0  0  0  0
 14 13  2  0  0  0  0
 15 14  1  0  0  0  0
 16 15  1  0  0  0  0
 17 16  2  0  0  0  0
 18 17  1  0  0  0  0
 19 18  1  0  0  0  0
 10 20  1  0  0  0  0
  2 21  2  0  0  0  0
M  END
>  <cdx:fragmentId>
3

$$$$
