92382.cdx
  Mrv1902 05222410242D          

 33 36  0  0  0  0            999 V2000
    3.1606  -10.2988    0.0000 C   0  0  0  0  0  0  0  0  0  0  0  0
    3.1606  -11.1237    0.0000 C   0  0  1  0  0  0  0  0  0  0  0  0
    3.8750  -11.5362    0.0000 C   0  0  0  0  0  0  0  0  0  0  0  0
    4.5895  -11.1237    0.0000 C   0  0  1  0  0  0  0  0  0  0  0  0
    4.5895  -10.2988    0.0000 C   0  0  2  0  0  0  0  0  0  0  0  0
    3.8750   -9.8863    0.0000 C   0  0  0  0  0  0  0  0  0  0  0  0
    5.3040  -11.5362    0.0000 C   0  0  0  0  0  0  0  0  0  0  0  0
    6.0184  -11.1237    0.0000 C   0  0  0  0  0  0  0  0  0  0  0  0
    6.0184  -10.2988    0.0000 C   0  0  1  0  0  0  0  0  0  0  0  0
    5.3040   -9.8863    0.0000 C   0  0  2  0  0  0  0  0  0  0  0  0
    6.7329   -9.8863    0.0000 C   0  0  1  0  0  0  0  0  0  0  0  0
    6.7329   -9.0613    0.0000 C   0  0  2  0  0  0  0  0  0  0  0  0
    6.0184   -8.6487    0.0000 C   0  0  0  0  0  0  0  0  0  0  0  0
    5.3040   -9.0613    0.0000 C   0  0  0  0  0  0  0  0  0  0  0  0
    8.1619   -9.8863    0.0000 C   0  0  0  0  0  0  0  0  0  0  0  0
    8.1619   -9.0613    0.0000 C   0  0  0  0  0  0  0  0  0  0  0  0
    7.4474   -8.6487    0.0000 C   0  0  2  0  0  0  0  0  0  0  0  0
    7.4474   -7.8237    0.0000 C   0  0  2  0  0  0  0  0  0  0  0  0
    6.7329   -7.4112    0.0000 C   0  0  0  0  0  0  0  0  0  0  0  0
    8.1619   -7.4112    0.0000 C   0  0  0  0  0  0  0  0  0  0  0  0
    8.1619   -6.5863    0.0000 C   0  0  0  0  0  0  0  0  0  0  0  0
    8.8763   -6.1737    0.0000 C   0  0  0  0  0  0  0  0  0  0  0  0
    8.8763   -5.3487    0.0000 C   0  0  0  0  0  0  0  0  0  0  0  0
    9.5908   -4.9363    0.0000 C   0  0  0  0  0  0  0  0  0  0  0  0
    8.1619   -4.9363    0.0000 C   0  0  0  0  0  0  0  0  0  0  0  0
    2.4461  -11.5362    0.0000 O   0  0  0  0  0  0  0  0  0  0  0  0
    4.5895   -9.4738    0.0000 C   0  0  0  0  0  0  0  0  0  0  0  0
    6.7329   -8.2363    0.0000 C   0  0  0  0  0  0  0  0  0  0  0  0
    4.5895  -11.9488    0.0000 H   0  0  0  0  0  0  0  0  0  0  0  0
    6.0184   -9.4738    0.0000 H   0  0  0  0  0  0  0  0  0  0  0  0
    6.6018  -10.8821    0.0000 H   0  0  0  0  0  0  0  0  0  0  0  0
    6.9464  -10.6831    0.0000 H   0  0  0  0  0  0  0  0  0  0  0  0
    8.1619   -8.2363    0.0000 H   0  0  0  0  0  0  0  0  0  0  0  0
  1  2  1  0  0  0  0
  2  3  1  0  0  0  0
  3  4  1  0  0  0  0
  4  5  1  0  0  0  0
  5  6  1  0  0  0  0
  6  1  1  0  0  0  0
  4  7  1  0  0  0  0
  7  8  1  0  0  0  0
  8  9  1  0  0  0  0
  9 10  1  0  0  0  0
 10  5  1  0  0  0  0
  9 11  1  0  0  0  0
 11 12  1  0  0  0  0
 12 13  1  0  0  0  0
 13 14  1  0  0  0  0
 14 10  1  0  0  0  0
 15 16  1  0  0  0  0
 16 17  1  0  0  0  0
 17 12  1  0  0  0  0
 11 15  1  0  0  0  0
 17 18  1  0  0  0  0
 18 19  1  6  0  0  0
 18 20  1  0  0  0  0
 20 21  1  0  0  0  0
 21 22  1  0  0  0  0
 22 23  1  0  0  0  0
 23 24  1  0  0  0  0
 23 25  1  0  0  0  0
  2 26  1  1  0  0  0
  5 27  1  1  0  0  0
 12 28  1  1  0  0  0
  4 29  1  6  0  0  0
 10 30  1  6  0  0  0
  9 31  1  6  0  0  0
 11 32  1  6  0  0  0
 17 33  1  6  0  0  0
M  END
>  <cdx:fragmentId>
5

$$$$
