92450.cdx
  Mrv1902 05222410222D          

 19 18  0  0  0  0            999 V2000
    0.9125   -6.8837    0.0000 O   0  0  0  0  0  0  0  0  0  0  0  0
    1.6270   -6.4712    0.0000 C   0  0  0  0  0  0  0  0  0  0  0  0
    2.3415   -6.8837    0.0000 C   0  0  0  0  0  0  0  0  0  0  0  0
    3.0559   -6.4712    0.0000 C   0  0  0  0  0  0  0  0  0  0  0  0
    3.7704   -6.8837    0.0000 C   0  0  0  0  0  0  0  0  0  0  0  0
    4.4849   -6.4712    0.0000 C   0  0  0  0  0  0  0  0  0  0  0  0
    5.1994   -6.8837    0.0000 C   0  0  0  0  0  0  0  0  0  0  0  0
    5.9138   -6.4712    0.0000 C   0  0  0  0  0  0  0  0  0  0  0  0
    6.6283   -6.8837    0.0000 C   0  0  0  0  0  0  0  0  0  0  0  0
    7.3428   -6.4712    0.0000 C   0  0  0  0  0  0  0  0  0  0  0  0
    8.0572   -6.8837    0.0000 C   0  0  0  0  0  0  0  0  0  0  0  0
    8.7717   -6.4712    0.0000 C   0  0  0  0  0  0  0  0  0  0  0  0
    9.4862   -6.8837    0.0000 C   0  0  0  0  0  0  0  0  0  0  0  0
   10.2007   -6.4712    0.0000 C   0  0  0  0  0  0  0  0  0  0  0  0
   10.9151   -6.8837    0.0000 C   0  0  0  0  0  0  0  0  0  0  0  0
   11.6296   -6.4712    0.0000 C   0  0  0  0  0  0  0  0  0  0  0  0
   12.3441   -6.8837    0.0000 C   0  0  0  0  0  0  0  0  0  0  0  0
   13.0585   -6.4712    0.0000 C   0  0  0  0  0  0  0  0  0  0  0  0
   13.7730   -6.8837    0.0000 C   0  0  0  0  0  0  0  0  0  0  0  0
  2  1  2  0  0  0  0
  3  2  1  0  0  0  0
  4  3  1  0  0  0  0
  5  4  1  0  0  0  0
  6  5  1  0  0  0  0
  7  6  1  0  0  0  0
  8  7  1  0  0  0  0
  9  8  1  0  0  0  0
 10  9  1  0  0  0  0
 11 10  2  0  0  0  0
 12 11  1  0  0  0  0
 13 12  1  0  0  0  0
 14 13  2  0  0  0  0
 15 14  1  0  0  0  0
 16 15  1  0  0  0  0
 17 16  1  0  0  0  0
 18 17  1  0  0  0  0
 19 18  1  0  0  0  0
M  END
>  <cdx:fragmentId>
3

$$$$
