92451.cdx
  Mrv1902 05222410222D          

 16 18  0  0  0  0            999 V2000
    7.0897   -7.9288    0.0000 C   0  0  0  0  0  0  0  0  0  0  0  0
    7.7372   -7.4174    0.0000 C   0  0  0  0  0  0  0  0  0  0  0  0
    7.7411   -6.5925    0.0000 C   0  0  0  0  0  0  0  0  0  0  0  0
    7.0985   -6.0750    0.0000 C   0  0  0  0  0  0  0  0  0  0  0  0
    6.2933   -6.2548    0.0000 C   0  0  0  0  0  0  0  0  0  0  0  0
    5.9318   -6.9964    0.0000 C   0  0  0  0  0  0  0  0  0  0  0  0
    6.2863   -7.7414    0.0000 C   0  0  0  0  0  0  0  0  0  0  0  0
    5.1069   -6.9925    0.0000 C   0  0  0  0  0  0  0  0  0  0  0  0
    5.7820   -5.6074    0.0000 O   0  0  0  0  0  0  0  0  0  0  0  0
    6.7847   -8.6953    0.0000 C   0  0  0  0  0  0  0  0  0  0  0  0
    7.8563   -8.2338    0.0000 C   0  0  0  0  0  0  0  0  0  0  0  0
    8.5206   -7.6761    0.0000 C   0  0  0  0  0  0  0  0  0  0  0  0
    9.0086   -7.0109    0.0000 C   0  0  0  0  0  0  0  0  0  0  0  0
    8.5269   -6.3412    0.0000 C   0  0  0  0  0  0  0  0  0  0  0  0
    8.7855   -5.5578    0.0000 C   0  0  0  0  0  0  0  0  0  0  0  0
    6.7986   -6.7936    0.0000 C   0  0  0  0  0  0  0  0  0  0  0  0
  1  2  1  0  0  0  0
  2  3  1  0  0  0  0
  3  4  1  0  0  0  0
  4  5  1  0  0  0  0
  5  6  1  0  0  0  0
  6  7  1  0  0  0  0
  7  1  1  0  0  0  0
  6  8  1  0  0  0  0
  5  9  2  0  0  0  0
  1 10  1  0  0  0  0
  1 11  1  0  0  0  0
  2 12  1  0  0  0  0
 12 13  1  0  0  0  0
 13 14  1  0  0  0  0
 14  3  1  0  0  0  0
 14 15  1  0  0  0  0
  7 16  1  0  0  0  0
 16  3  1  0  0  0  0
M  END
>  <cdx:fragmentId>
5

$$$$
