92462.cdx
  Mrv1902 05222410232D          

 21 20  0  0  0  0            999 V2000
    1.8538   -9.3500    0.0000 O   0  0  0  0  0  0  0  0  0  0  0  0
    2.5682   -8.9375    0.0000 C   0  0  0  0  0  0  0  0  0  0  0  0
    3.2827   -9.3500    0.0000 C   0  0  0  0  0  0  0  0  0  0  0  0
    3.9972   -8.9375    0.0000 C   0  0  0  0  0  0  0  0  0  0  0  0
    4.7117   -9.3500    0.0000 C   0  0  0  0  0  0  0  0  0  0  0  0
    5.4261   -8.9375    0.0000 C   0  0  0  0  0  0  0  0  0  0  0  0
    6.1406   -9.3500    0.0000 C   0  0  0  0  0  0  0  0  0  0  0  0
    6.8551   -8.9375    0.0000 C   0  0  0  0  0  0  0  0  0  0  0  0
    7.5695   -9.3500    0.0000 C   0  0  0  0  0  0  0  0  0  0  0  0
    8.2840   -8.9375    0.0000 C   0  0  1  0  0  0  0  0  0  0  0  0
    8.9985   -9.3500    0.0000 C   0  0  0  0  0  0  0  0  0  0  0  0
    2.5682   -8.1125    0.0000 O   0  0  0  0  0  0  0  0  0  0  0  0
    9.7130   -8.9375    0.0000 C   0  0  0  0  0  0  0  0  0  0  0  0
   10.4274   -9.3500    0.0000 C   0  0  0  0  0  0  0  0  0  0  0  0
    8.2840   -8.1125    0.0000 O   0  0  0  0  0  0  0  0  0  0  0  0
   11.1419   -8.9375    0.0000 C   0  0  0  0  0  0  0  0  0  0  0  0
   11.1419   -8.1125    0.0000 C   0  0  0  0  0  0  0  0  0  0  0  0
   11.8564   -7.7000    0.0000 C   0  0  0  0  0  0  0  0  0  0  0  0
   11.8564   -6.8750    0.0000 C   0  0  0  0  0  0  0  0  0  0  0  0
   11.1419   -6.4625    0.0000 C   0  0  0  0  0  0  0  0  0  0  0  0
   11.1419   -5.6375    0.0000 C   0  0  0  0  0  0  0  0  0  0  0  0
  1  2  1  0  0  0  0
  2  3  1  0  0  0  0
  3  4  1  0  0  0  0
  4  5  1  0  0  0  0
  5  6  1  0  0  0  0
  6  7  1  0  0  0  0
  7  8  1  0  0  0  0
  8  9  1  0  0  0  0
  9 10  1  0  0  0  0
 10 11  1  0  0  0  0
  2 12  2  0  0  0  0
 11 13  2  0  0  0  0
 13 14  1  0  0  0  0
 10 15  1  6  0  0  0
 14 16  2  0  0  0  0
 16 17  1  0  0  0  0
 17 18  1  0  0  0  0
 18 19  2  0  0  0  0
 19 20  1  0  0  0  0
 20 21  1  0  0  0  0
M  END
>  <cdx:fragmentId>
3

$$$$
