92383.cdx
  Mrv1902 05222410242D          

 41 45  0  0  0  0            999 V2000
    5.0856   -8.4975    0.0000 C   0  0  0  0  0  0  0  0  0  0  0  0
    5.0856   -9.3225    0.0000 C   0  0  0  0  0  0  0  0  0  0  0  0
    5.8000   -9.7350    0.0000 C   0  0  0  0  0  0  0  0  0  0  0  0
    6.5145   -9.3225    0.0000 C   0  0  0  0  0  0  0  0  0  0  0  0
    6.5145   -8.4975    0.0000 C   0  0  0  0  0  0  0  0  0  0  0  0
    5.8000   -8.0850    0.0000 C   0  0  0  0  0  0  0  0  0  0  0  0
    7.2290   -9.7350    0.0000 C   0  0  0  0  0  0  0  0  0  0  0  0
    7.9434   -9.3225    0.0000 C   0  0  1  0  0  0  0  0  0  0  0  0
    7.9434   -8.4975    0.0000 C   0  0  2  0  0  0  0  0  0  0  0  0
    7.2290   -8.0850    0.0000 O   0  0  0  0  0  0  0  0  0  0  0  0
    8.6579   -9.7350    0.0000 O   0  0  0  0  0  0  0  0  0  0  0  0
    9.3724   -8.4975    0.0000 C   0  0  0  0  0  0  0  0  0  0  0  0
    8.6579   -8.0850    0.0000 C   0  0  0  0  0  0  0  0  0  0  0  0
   10.0869   -8.0850    0.0000 C   0  0  0  0  0  0  0  0  0  0  0  0
   10.0869   -7.2600    0.0000 C   0  0  0  0  0  0  0  0  0  0  0  0
    9.3724   -6.8475    0.0000 C   0  0  0  0  0  0  0  0  0  0  0  0
    8.6579   -7.2600    0.0000 C   0  0  0  0  0  0  0  0  0  0  0  0
    5.8000   -7.2600    0.0000 C   0  0  0  0  0  0  0  0  0  0  0  0
    5.0856   -6.8475    0.0000 N   0  0  0  0  0  0  0  0  0  0  0  0
    4.3711   -7.2600    0.0000 C   0  0  0  0  0  0  0  0  0  0  0  0
    4.3711   -8.0850    0.0000 O   0  0  0  0  0  0  0  0  0  0  0  0
    3.6566   -8.4975    0.0000 C   0  0  1  0  0  0  0  0  0  0  0  0
    3.6566   -9.3225    0.0000 C   0  0  1  0  0  0  0  0  0  0  0  0
    2.9421   -8.0850    0.0000 O   0  0  0  0  0  0  0  0  0  0  0  0
    2.2277   -8.4975    0.0000 C   0  0  1  0  0  0  0  0  0  0  0  0
    2.2277   -9.3225    0.0000 C   0  0  2  0  0  0  0  0  0  0  0  0
    2.9421   -9.7350    0.0000 C   0  0  2  0  0  0  0  0  0  0  0  0
    4.9140   -6.0405    0.0000 C   0  0  0  0  0  0  0  0  0  0  0  0
    4.0935   -5.9543    0.0000 C   0  0  0  0  0  0  0  0  0  0  0  0
    3.7580   -6.7080    0.0000 C   0  0  0  0  0  0  0  0  0  0  0  0
    5.4661   -5.4274    0.0000 C   0  0  0  0  0  0  0  0  0  0  0  0
    5.2111   -4.6428    0.0000 O   0  0  0  0  0  0  0  0  0  0  0  0
    6.2730   -5.5990    0.0000 O   0  0  0  0  0  0  0  0  0  0  0  0
   10.8013   -6.8475    0.0000 O   0  0  0  0  0  0  0  0  0  0  0  0
    9.3724   -6.0225    0.0000 O   0  0  0  0  0  0  0  0  0  0  0  0
    1.5132   -8.0850    0.0000 C   0  0  0  0  0  0  0  0  0  0  0  0
    0.7987   -8.4975    0.0000 O   0  0  0  0  0  0  0  0  0  0  0  0
    5.8000  -10.5600    0.0000 O   0  0  0  0  0  0  0  0  0  0  0  0
    2.9421  -10.5600    0.0000 O   0  0  0  0  0  0  0  0  0  0  0  0
    1.5132   -9.7350    0.0000 O   0  0  0  0  0  0  0  0  0  0  0  0
    4.3711   -9.7350    0.0000 O   0  0  0  0  0  0  0  0  0  0  0  0
  1  2  2  0  0  0  0
  2  3  1  0  0  0  0
  3  4  2  0  0  0  0
  4  5  1  0  0  0  0
  5  6  2  0  0  0  0
  6  1  1  0  0  0  0
  4  7  1  0  0  0  0
  7  8  1  0  0  0  0
  8  9  1  0  0  0  0
  9 10  1  0  0  0  0
 10  5  1  0  0  0  0
  8 11  1  1  0  0  0
 12 13  2  0  0  0  0
  9 13  1  6  0  0  0
 12 14  1  0  0  0  0
 14 15  2  0  0  0  0
 15 16  1  0  0  0  0
 16 17  2  0  0  0  0
 17 13  1  0  0  0  0
  6 18  1  0  0  0  0
 18 19  1  0  0  0  0
 19 20  1  0  0  0  0
 21  1  1  0  0  0  0
 22 21  1  1  0  0  0
 22 23  1  0  0  0  0
 22 24  1  0  0  0  0
 24 25  1  0  0  0  0
 25 26  1  0  0  0  0
 26 27  1  0  0  0  0
 27 23  1  0  0  0  0
 19 28  1  0  0  0  0
 28 29  1  0  0  0  0
 29 30  1  0  0  0  0
 30 20  1  0  0  0  0
 28 31  1  0  0  0  0
 31 32  2  0  0  0  0
 31 33  1  0  0  0  0
 15 34  1  0  0  0  0
 16 35  1  0  0  0  0
 25 36  1  1  0  0  0
 36 37  1  0  0  0  0
  3 38  1  0  0  0  0
 27 39  1  1  0  0  0
 26 40  1  6  0  0  0
 23 41  1  6  0  0  0
M  END
>  <cdx:fragmentId>
5

$$$$
