92463.cdx
  Mrv1902 05222410232D          

  6  6  0  0  0  0            999 V2000
    5.5030   -7.9280    0.0000 S   0  0  0  0  0  0  0  0  0  0  0  0
    6.2175   -8.3405    0.0000 C   0  0  0  0  0  0  0  0  0  0  0  0
    6.9319   -8.7530    0.0000 N   0  0  0  0  0  0  0  0  0  0  0  0
    8.0589   -7.6260    0.0000 C   0  0  0  0  0  0  0  0  0  0  0  0
    8.4714   -8.3405    0.0000 C   0  0  0  0  0  0  0  0  0  0  0  0
    7.6464   -8.3405    0.0000 C   0  0  0  0  0  0  0  0  0  0  0  0
  6  3  1  0  0  0  0
  2  1  2  0  0  0  0
  3  2  2  0  0  0  0
  6  4  1  0  0  0  0
  5  4  1  0  0  0  0
  6  5  1  0  0  0  0
M  END
>  <cdx:fragmentId>
5

$$$$
