92469.cdx
  Mrv1902 05222410212D          

 46 50  0  0  0  0            999 V2000
    9.3096   -8.3366    0.0000 C   0  0  0  0  0  0  0  0  0  0  0  0
    9.3096   -7.5116    0.0000 C   0  0  0  0  0  0  0  0  0  0  0  0
   10.0241   -7.0991    0.0000 C   0  0  0  0  0  0  0  0  0  0  0  0
   10.7386   -7.5116    0.0000 C   0  0  0  0  0  0  0  0  0  0  0  0
   10.7386   -8.3366    0.0000 C   0  0  0  0  0  0  0  0  0  0  0  0
   10.0241   -8.7491    0.0000 C   0  0  0  0  0  0  0  0  0  0  0  0
   10.0241   -6.2741    0.0000 O   0  0  0  0  0  0  0  0  0  0  0  0
   10.7386   -5.8616    0.0000 C   0  0  0  0  0  0  0  0  0  0  0  0
   11.4531   -7.0991    0.0000 O   0  0  0  0  0  0  0  0  0  0  0  0
    7.1662   -7.9241    0.0000 H   0  0  0  0  0  0  0  0  0  0  0  0
    7.1662   -7.0991    0.0000 O   0  0  0  0  0  0  0  0  0  0  0  0
    6.4518   -7.5116    0.0000 C   0  0  2  0  0  0  0  0  0  0  0  0
    5.7373   -7.0991    0.0000 C   0  0  1  0  0  0  0  0  0  0  0  0
    5.7373   -6.2741    0.0000 C   0  0  2  0  0  0  0  0  0  0  0  0
    6.4518   -5.8616    0.0000 C   0  0  1  0  0  0  0  0  0  0  0  0
    7.1662   -6.2741    0.0000 C   0  0  1  0  0  0  0  0  0  0  0  0
    7.8807   -5.8616    0.0000 C   0  0  0  0  0  0  0  0  0  0  0  0
    8.5952   -6.2741    0.0000 O   0  0  0  0  0  0  0  0  0  0  0  0
    6.4518   -5.0366    0.0000 O   0  0  0  0  0  0  0  0  0  0  0  0
    6.4518  -10.8116    0.0000 O   0  0  0  0  0  0  0  0  0  0  0  0
    5.0228   -8.3366    0.0000 O   0  0  0  0  0  0  0  0  0  0  0  0
    5.7373  -11.2241    0.0000 O   0  0  0  0  0  0  0  0  0  0  0  0
    4.3084  -12.0491    0.0000 O   0  0  0  0  0  0  0  0  0  0  0  0
    2.8794  -11.2241    0.0000 O   0  0  0  0  0  0  0  0  0  0  0  0
    2.1649   -9.9866    0.0000 O   0  0  0  0  0  0  0  0  0  0  0  0
    2.8794   -9.5741    0.0000 C   0  0  0  0  0  0  0  0  0  0  0  0
    3.5939   -9.9866    0.0000 C   0  0  2  0  0  0  0  0  0  0  0  0
    3.5939  -10.8116    0.0000 C   0  0  2  0  0  0  0  0  0  0  0  0
    4.3084  -11.2241    0.0000 C   0  0  1  0  0  0  0  0  0  0  0  0
    5.0228  -10.8116    0.0000 C   0  0  2  0  0  0  0  0  0  0  0  0
    5.0228   -9.9866    0.0000 C   0  0  1  0  0  0  0  0  0  0  0  0
    4.3084   -9.5741    0.0000 O   0  0  0  0  0  0  0  0  0  0  0  0
    5.0228   -5.8616    0.0000 O   0  0  0  0  0  0  0  0  0  0  0  0
    5.0228   -7.5116    0.0000 O   0  0  0  0  0  0  0  0  0  0  0  0
    7.8807  -10.8116    0.0000 O   0  0  0  0  0  0  0  0  0  0  0  0
    7.8807   -8.3366    0.0000 O   0  0  0  0  0  0  0  0  0  0  0  0
    7.1662   -8.7491    0.0000 C   0  0  0  0  0  0  0  0  0  0  0  0
    6.4518   -8.3366    0.0000 C   0  0  0  0  0  0  0  0  0  0  0  0
    5.7373   -8.7491    0.0000 C   0  0  0  0  0  0  0  0  0  0  0  0
    5.7373   -9.5741    0.0000 C   0  0  0  0  0  0  0  0  0  0  0  0
    6.4518   -9.9866    0.0000 C   0  0  0  0  0  0  0  0  0  0  0  0
    7.1662   -9.5741    0.0000 C   0  0  0  0  0  0  0  0  0  0  0  0
    7.8807   -9.9866    0.0000 C   0  0  0  0  0  0  0  0  0  0  0  0
    8.5952   -9.5741    0.0000 C   0  0  0  0  0  0  0  0  0  0  0  0
    8.5952   -8.7491    0.0000 C   0  0  0  0  0  0  0  0  0  0  0  0
    5.0228   -9.1616    0.0000 H   0  0  0  0  0  0  0  0  0  0  0  0
 41 20  1  0  0  0  0
 39 21  1  0  0  0  0
 45  1  1  0  0  0  0
 31 40  1  0  0  0  0
 30 22  1  6  0  0  0
 29 23  1  1  0  0  0
 28 24  1  6  0  0  0
 27 26  1  1  0  0  0
 26 25  1  0  0  0  0
 32 27  1  0  0  0  0
 28 27  1  0  0  0  0
 29 28  1  0  0  0  0
 30 29  1  0  0  0  0
 31 30  1  0  0  0  0
 32 31  1  0  0  0  0
 12 38  1  0  0  0  0
 12 10  1  6  0  0  0
 43 35  2  0  0  0  0
 45 36  1  0  0  0  0
 37 36  1  0  0  0  0
 42 37  2  0  0  0  0
 38 37  1  0  0  0  0
 39 38  2  0  0  0  0
 40 39  1  0  0  0  0
 41 40  2  0  0  0  0
 42 41  1  0  0  0  0
 43 42  1  0  0  0  0
 44 43  1  0  0  0  0
 45 44  2  0  0  0  0
  1  2  1  0  0  0  0
  2  3  2  0  0  0  0
  3  4  1  0  0  0  0
  4  5  2  0  0  0  0
  5  6  1  0  0  0  0
  1  6  2  0  0  0  0
  7  8  1  0  0  0  0
  3  7  1  0  0  0  0
  4  9  1  0  0  0  0
 11 12  1  0  0  0  0
 12 13  1  0  0  0  0
 13 14  1  0  0  0  0
 14 15  1  0  0  0  0
 15 16  1  0  0  0  0
 11 16  1  0  0  0  0
 17 18  1  0  0  0  0
 16 17  1  1  0  0  0
 15 19  1  6  0  0  0
 31 46  1  6  0  0  0
 14 33  1  1  0  0  0
 13 34  1  6  0  0  0
M  END
>  <cdx:fragmentId>
5

$$$$
