92384.cdx
  Mrv1902 05222410242D          

 41 45  0  0  0  0            999 V2000
    6.4468   -7.9063    0.0000 C   0  0  0  0  0  0  0  0  0  0  0  0
    6.4468   -8.7313    0.0000 C   0  0  0  0  0  0  0  0  0  0  0  0
    7.1613   -9.1438    0.0000 C   0  0  0  0  0  0  0  0  0  0  0  0
    7.8757   -8.7313    0.0000 C   0  0  0  0  0  0  0  0  0  0  0  0
    7.8757   -7.9063    0.0000 C   0  0  0  0  0  0  0  0  0  0  0  0
    7.1613   -7.4937    0.0000 C   0  0  0  0  0  0  0  0  0  0  0  0
    8.5902   -9.1438    0.0000 C   0  0  0  0  0  0  0  0  0  0  0  0
    9.3047   -8.7313    0.0000 C   0  0  1  0  0  0  0  0  0  0  0  0
    9.3047   -7.9063    0.0000 C   0  0  2  0  0  0  0  0  0  0  0  0
    8.5902   -7.4937    0.0000 O   0  0  0  0  0  0  0  0  0  0  0  0
   10.0192   -9.1438    0.0000 O   0  0  0  0  0  0  0  0  0  0  0  0
   10.7336   -7.9063    0.0000 C   0  0  0  0  0  0  0  0  0  0  0  0
   10.0192   -7.4937    0.0000 C   0  0  0  0  0  0  0  0  0  0  0  0
   11.4481   -7.4937    0.0000 C   0  0  0  0  0  0  0  0  0  0  0  0
   11.4481   -6.6688    0.0000 C   0  0  0  0  0  0  0  0  0  0  0  0
   10.7336   -6.2563    0.0000 C   0  0  0  0  0  0  0  0  0  0  0  0
   10.0192   -6.6688    0.0000 C   0  0  0  0  0  0  0  0  0  0  0  0
    5.7323   -7.4937    0.0000 O   0  0  0  0  0  0  0  0  0  0  0  0
    4.9077   -7.4687    0.0000 C   0  0  1  0  0  0  0  0  0  0  0  0
    4.4737   -8.1702    0.0000 C   0  0  1  0  0  0  0  0  0  0  0  0
    4.5171   -6.7420    0.0000 O   0  0  0  0  0  0  0  0  0  0  0  0
    3.6925   -6.7169    0.0000 C   0  0  1  0  0  0  0  0  0  0  0  0
    3.2585   -7.4185    0.0000 C   0  0  2  0  0  0  0  0  0  0  0  0
    3.6491   -8.1452    0.0000 C   0  0  2  0  0  0  0  0  0  0  0  0
   12.1626   -6.2563    0.0000 O   0  0  0  0  0  0  0  0  0  0  0  0
   10.7336   -5.4313    0.0000 O   0  0  0  0  0  0  0  0  0  0  0  0
    3.3019   -5.9902    0.0000 C   0  0  0  0  0  0  0  0  0  0  0  0
    2.4773   -5.9651    0.0000 O   0  0  0  0  0  0  0  0  0  0  0  0
    7.1613   -9.9688    0.0000 O   0  0  0  0  0  0  0  0  0  0  0  0
    3.2150   -8.8467    0.0000 O   0  0  0  0  0  0  0  0  0  0  0  0
    2.4339   -7.3934    0.0000 O   0  0  0  0  0  0  0  0  0  0  0  0
    4.8643   -8.8969    0.0000 O   0  0  0  0  0  0  0  0  0  0  0  0
    5.7323   -9.1438    0.0000 C   0  0  0  0  0  0  0  0  0  0  0  0
    5.7323   -9.9688    0.0000 N   0  0  0  0  0  0  0  0  0  0  0  0
    5.0649  -10.4537    0.0000 C   0  0  0  0  0  0  0  0  0  0  0  0
    5.3198  -11.2383    0.0000 C   0  0  0  0  0  0  0  0  0  0  0  0
    6.1448  -11.2383    0.0000 C   0  0  0  0  0  0  0  0  0  0  0  0
    6.3998  -10.4537    0.0000 C   0  0  0  0  0  0  0  0  0  0  0  0
    4.2803  -10.1987    0.0000 C   0  0  0  0  0  0  0  0  0  0  0  0
    3.6672  -10.7508    0.0000 O   0  0  0  0  0  0  0  0  0  0  0  0
    4.1087   -9.3918    0.0000 O   0  0  0  0  0  0  0  0  0  0  0  0
  1  2  2  0  0  0  0
  2  3  1  0  0  0  0
  3  4  2  0  0  0  0
  4  5  1  0  0  0  0
  5  6  2  0  0  0  0
  6  1  1  0  0  0  0
  4  7  1  0  0  0  0
  7  8  1  0  0  0  0
  8  9  1  0  0  0  0
  9 10  1  0  0  0  0
 10  5  1  0  0  0  0
  8 11  1  1  0  0  0
 12 13  2  0  0  0  0
  9 13  1  6  0  0  0
 12 14  1  0  0  0  0
 14 15  2  0  0  0  0
 15 16  1  0  0  0  0
 16 17  2  0  0  0  0
 17 13  1  0  0  0  0
 18  1  1  0  0  0  0
 19 18  1  1  0  0  0
 19 20  1  0  0  0  0
 19 21  1  0  0  0  0
 21 22  1  0  0  0  0
 22 23  1  0  0  0  0
 23 24  1  0  0  0  0
 24 20  1  0  0  0  0
 15 25  1  0  0  0  0
 16 26  1  0  0  0  0
 22 27  1  1  0  0  0
 27 28  1  0  0  0  0
  3 29  1  0  0  0  0
 24 30  1  1  0  0  0
 23 31  1  6  0  0  0
 20 32  1  6  0  0  0
  2 33  1  0  0  0  0
 33 34  1  0  0  0  0
 34 35  1  0  0  0  0
 35 36  1  0  0  0  0
 36 37  1  0  0  0  0
 37 38  1  0  0  0  0
 38 34  1  0  0  0  0
 35 39  1  0  0  0  0
 39 40  2  0  0  0  0
 39 41  1  0  0  0  0
M  END
>  <cdx:fragmentId>
5

$$$$
