92388.cdx
  Mrv1902 05222410242D          

 44 48  0  0  0  0            999 V2000
    4.9893   -6.9712    0.0000 C   0  0  0  0  0  0  0  0  0  0  0  0
    4.9893   -7.7963    0.0000 C   0  0  0  0  0  0  0  0  0  0  0  0
    5.7038   -8.2088    0.0000 C   0  0  0  0  0  0  0  0  0  0  0  0
    6.4182   -7.7963    0.0000 C   0  0  0  0  0  0  0  0  0  0  0  0
    6.4182   -6.9712    0.0000 C   0  0  0  0  0  0  0  0  0  0  0  0
    5.7038   -6.5587    0.0000 C   0  0  0  0  0  0  0  0  0  0  0  0
    7.1327   -8.2088    0.0000 C   0  0  0  0  0  0  0  0  0  0  0  0
    7.8472   -7.7963    0.0000 C   0  0  0  0  0  0  0  0  0  0  0  0
    7.8472   -6.9712    0.0000 C   0  0  0  0  0  0  0  0  0  0  0  0
    7.1327   -6.5587    0.0000 O   0  0  0  0  0  0  0  0  0  0  0  0
    5.7038   -9.0337    0.0000 O   0  0  0  0  0  0  0  0  0  0  0  0
    7.1327   -9.0337    0.0000 O   0  0  0  0  0  0  0  0  0  0  0  0
    9.2761   -6.9712    0.0000 C   0  0  0  0  0  0  0  0  0  0  0  0
    8.5617   -6.5587    0.0000 C   0  0  0  0  0  0  0  0  0  0  0  0
    9.9906   -6.5587    0.0000 C   0  0  0  0  0  0  0  0  0  0  0  0
    9.9906   -5.7338    0.0000 C   0  0  0  0  0  0  0  0  0  0  0  0
    9.2761   -5.3213    0.0000 C   0  0  0  0  0  0  0  0  0  0  0  0
    8.5617   -5.7338    0.0000 C   0  0  0  0  0  0  0  0  0  0  0  0
   10.7051   -5.3213    0.0000 O   0  0  0  0  0  0  0  0  0  0  0  0
    9.9906   -4.0838    0.0000 C   0  0  0  0  0  0  0  0  0  0  0  0
    9.2761   -4.4962    0.0000 O   0  0  0  0  0  0  0  0  0  0  0  0
    4.2748   -6.5587    0.0000 O   0  0  0  0  0  0  0  0  0  0  0  0
    3.5604   -6.9712    0.0000 C   0  0  2  0  0  0  0  0  0  0  0  0
    2.8459   -6.5587    0.0000 O   0  0  0  0  0  0  0  0  0  0  0  0
    2.1314   -6.9712    0.0000 C   0  0  1  0  0  0  0  0  0  0  0  0
    2.1314   -7.7963    0.0000 C   0  0  2  0  0  0  0  0  0  0  0  0
    2.8459   -8.2088    0.0000 C   0  0  1  0  0  0  0  0  0  0  0  0
    3.5604   -7.7963    0.0000 C   0  0  1  0  0  0  0  0  0  0  0  0
    1.4169   -6.5587    0.0000 C   0  0  0  0  0  0  0  0  0  0  0  0
    2.8459   -9.0337    0.0000 O   0  0  0  0  0  0  0  0  0  0  0  0
    1.4169   -8.2088    0.0000 O   0  0  0  0  0  0  0  0  0  0  0  0
    4.2748   -8.2088    0.0000 O   0  0  0  0  0  0  0  0  0  0  0  0
    0.7025   -6.9712    0.0000 O   0  0  0  0  0  0  0  0  0  0  0  0
   11.4125   -5.7229    0.0000 C   0  0  2  0  0  0  0  0  0  0  0  0
   11.4218   -6.5479    0.0000 O   0  0  0  0  0  0  0  0  0  0  0  0
   12.1409   -6.9523    0.0000 C   0  0  1  0  0  0  0  0  0  0  0  0
   12.8507   -6.5318    0.0000 C   0  0  2  0  0  0  0  0  0  0  0  0
   12.8414   -5.7068    0.0000 C   0  0  1  0  0  0  0  0  0  0  0  0
   12.1223   -5.3024    0.0000 C   0  0  1  0  0  0  0  0  0  0  0  0
   12.1502   -7.7772    0.0000 C   0  0  0  0  0  0  0  0  0  0  0  0
   13.5511   -5.2863    0.0000 O   0  0  0  0  0  0  0  0  0  0  0  0
   13.5697   -6.9362    0.0000 O   0  0  0  0  0  0  0  0  0  0  0  0
   12.1130   -4.4775    0.0000 O   0  0  0  0  0  0  0  0  0  0  0  0
   12.8693   -8.1817    0.0000 O   0  0  0  0  0  0  0  0  0  0  0  0
  1  2  2  0  0  0  0
  2  3  1  0  0  0  0
  3  4  2  0  0  0  0
  4  5  1  0  0  0  0
  5  6  2  0  0  0  0
  6  1  1  0  0  0  0
  4  7  1  0  0  0  0
  7  8  1  0  0  0  0
  8  9  2  0  0  0  0
  9 10  1  0  0  0  0
 10  5  1  0  0  0  0
  3 11  1  0  0  0  0
 12  7  2  0  0  0  0
 13 14  2  0  0  0  0
 14  9  1  0  0  0  0
 13 15  1  0  0  0  0
 15 16  2  0  0  0  0
 16 17  1  0  0  0  0
 17 18  2  0  0  0  0
 18 14  1  0  0  0  0
 16 19  1  0  0  0  0
 20 21  1  0  0  0  0
 21 17  1  0  0  0  0
  1 22  1  0  0  0  0
 23 22  1  1  0  0  0
 23 24  1  0  0  0  0
 24 25  1  0  0  0  0
 25 26  1  0  0  0  0
 26 27  1  0  0  0  0
 27 28  1  0  0  0  0
 28 23  1  0  0  0  0
 25 29  1  1  0  0  0
 27 30  1  1  0  0  0
 26 31  1  6  0  0  0
 28 32  1  6  0  0  0
 29 33  1  0  0  0  0
 34 35  1  0  0  0  0
 35 36  1  0  0  0  0
 36 37  1  0  0  0  0
 37 38  1  0  0  0  0
 38 39  1  0  0  0  0
 39 34  1  0  0  0  0
 36 40  1  1  0  0  0
 38 41  1  1  0  0  0
 37 42  1  6  0  0  0
 39 43  1  6  0  0  0
 40 44  1  0  0  0  0
 34 19  1  1  0  0  0
M  END
>  <cdx:fragmentId>
5

$$$$
