92468.cdx
  Mrv1902 05222410212D          

 27 29  0  0  0  0            999 V2000
    7.4072   -4.9278    0.0000 C   0  0  0  0  0  0  0  0  0  0  0  0
   10.2651   -5.7528    0.0000 O   0  0  0  0  0  0  0  0  0  0  0  0
    3.8348   -6.1653    0.0000 C   0  0  0  0  0  0  0  0  0  0  0  0
    8.1217   -9.4653    0.0000 C   0  0  0  0  0  0  0  0  0  0  0  0
    5.2638   -9.4653    0.0000 O   0  0  0  0  0  0  0  0  0  0  0  0
    6.6927   -9.4653    0.0000 O   0  0  0  0  0  0  0  0  0  0  0  0
    3.8348   -6.9903    0.0000 O   0  0  0  0  0  0  0  0  0  0  0  0
    3.1204   -8.2278    0.0000 C   0  0  0  0  0  0  0  0  0  0  0  0
    3.8348   -8.6403    0.0000 O   0  0  0  0  0  0  0  0  0  0  0  0
    7.4072   -5.7528    0.0000 O   0  0  0  0  0  0  0  0  0  0  0  0
    9.5506   -6.9903    0.0000 C   0  0  0  0  0  0  0  0  0  0  0  0
    9.5506   -6.1653    0.0000 C   0  0  0  0  0  0  0  0  0  0  0  0
    8.8361   -5.7528    0.0000 C   0  0  0  0  0  0  0  0  0  0  0  0
    8.1217   -6.1653    0.0000 C   0  0  0  0  0  0  0  0  0  0  0  0
    8.1217   -8.6403    0.0000 O   0  0  0  0  0  0  0  0  0  0  0  0
    8.8361   -7.4028    0.0000 C   0  0  0  0  0  0  0  0  0  0  0  0
    8.1217   -6.9903    0.0000 C   0  0  0  0  0  0  0  0  0  0  0  0
    6.6927   -8.6403    0.0000 C   0  0  0  0  0  0  0  0  0  0  0  0
    7.4072   -8.2278    0.0000 C   0  0  0  0  0  0  0  0  0  0  0  0
    7.4072   -7.4028    0.0000 C   0  0  0  0  0  0  0  0  0  0  0  0
    6.6927   -6.9903    0.0000 O   0  0  0  0  0  0  0  0  0  0  0  0
    5.2638   -8.6403    0.0000 C   0  0  0  0  0  0  0  0  0  0  0  0
    5.9782   -8.2278    0.0000 C   0  0  0  0  0  0  0  0  0  0  0  0
    5.9782   -7.4028    0.0000 C   0  0  0  0  0  0  0  0  0  0  0  0
    5.2638   -6.9903    0.0000 C   0  0  0  0  0  0  0  0  0  0  0  0
    4.5493   -7.4028    0.0000 C   0  0  0  0  0  0  0  0  0  0  0  0
    4.5493   -8.2278    0.0000 C   0  0  0  0  0  0  0  0  0  0  0  0
 10  1  1  0  0  0  0
 12  2  1  0  0  0  0
  7  3  1  0  0  0  0
 15  4  1  0  0  0  0
  5 22  1  0  0  0  0
 18  6  2  0  0  0  0
  7 26  1  0  0  0  0
  9  8  1  0  0  0  0
 27  9  1  0  0  0  0
 10 14  1  0  0  0  0
 11 16  2  0  0  0  0
 12 11  1  0  0  0  0
 13 12  2  0  0  0  0
 14 13  1  0  0  0  0
 17 14  2  0  0  0  0
 15 19  1  0  0  0  0
 17 16  1  0  0  0  0
 20 17  1  0  0  0  0
 18 23  1  0  0  0  0
 19 18  1  0  0  0  0
 20 19  2  0  0  0  0
 21 20  1  0  0  0  0
 24 21  1  0  0  0  0
 22 27  1  0  0  0  0
 23 22  2  0  0  0  0
 24 23  1  0  0  0  0
 25 24  2  0  0  0  0
 26 25  1  0  0  0  0
 27 26  2  0  0  0  0
M  END
>  <cdx:fragmentId>
5

$$$$
