92464.cdx
  Mrv1902 05222410252D          

 20 22  0  0  0  0            999 V2000
    3.7110   -6.7830    0.0000 O   0  0  0  0  0  0  0  0  0  0  0  0
    4.4255   -9.6705    0.0000 C   0  0  0  0  0  0  0  0  0  0  0  0
    9.4268   -6.7830    0.0000 C   0  0  0  0  0  0  0  0  0  0  0  0
    9.4268   -5.9580    0.0000 C   0  0  0  0  0  0  0  0  0  0  0  0
    8.7123   -5.5455    0.0000 C   0  0  0  0  0  0  0  0  0  0  0  0
    7.9978   -5.9580    0.0000 C   0  0  0  0  0  0  0  0  0  0  0  0
    8.7123   -7.1955    0.0000 C   0  0  0  0  0  0  0  0  0  0  0  0
    7.9978   -6.7830    0.0000 C   0  0  0  0  0  0  0  0  0  0  0  0
    5.1400   -9.2580    0.0000 O   0  0  0  0  0  0  0  0  0  0  0  0
    6.5689   -9.2580    0.0000 O   0  0  0  0  0  0  0  0  0  0  0  0
    6.5689   -8.4330    0.0000 C   0  0  0  0  0  0  0  0  0  0  0  0
    7.2834   -8.0205    0.0000 C   0  0  0  0  0  0  0  0  0  0  0  0
    7.2834   -7.1955    0.0000 C   0  0  0  0  0  0  0  0  0  0  0  0
    6.5689   -6.7830    0.0000 O   0  0  0  0  0  0  0  0  0  0  0  0
    5.1400   -8.4330    0.0000 C   0  0  0  0  0  0  0  0  0  0  0  0
    5.8544   -8.0205    0.0000 C   0  0  0  0  0  0  0  0  0  0  0  0
    5.8544   -7.1955    0.0000 C   0  0  0  0  0  0  0  0  0  0  0  0
    5.1400   -6.7830    0.0000 C   0  0  0  0  0  0  0  0  0  0  0  0
    4.4255   -7.1955    0.0000 C   0  0  0  0  0  0  0  0  0  0  0  0
    4.4255   -8.0205    0.0000 C   0  0  0  0  0  0  0  0  0  0  0  0
 19  1  1  0  0  0  0
  9  2  1  0  0  0  0
  3  7  1  0  0  0  0
  4  3  2  0  0  0  0
  5  4  1  0  0  0  0
  6  5  2  0  0  0  0
  8  6  1  0  0  0  0
  8  7  2  0  0  0  0
 13  8  1  0  0  0  0
  9 15  1  0  0  0  0
 11 10  2  0  0  0  0
 11 16  1  0  0  0  0
 12 11  1  0  0  0  0
 13 12  2  0  0  0  0
 14 13  1  0  0  0  0
 17 14  1  0  0  0  0
 15 20  1  0  0  0  0
 16 15  2  0  0  0  0
 17 16  1  0  0  0  0
 18 17  2  0  0  0  0
 19 18  1  0  0  0  0
 20 19  2  0  0  0  0
M  END
>  <cdx:fragmentId>
5

$$$$
