92471.cdx
  Mrv1902 05222410242D          

 49 56  0  0  0  0            999 V2000
    4.9962   -8.5388    0.0000 C   0  0  0  0  0  0  0  0  0  0  0  0
    4.9962   -9.3637    0.0000 C   0  0  1  0  0  0  0  0  0  0  0  0
    5.7106   -9.7763    0.0000 C   0  0  2  0  0  0  0  0  0  0  0  0
    6.4251   -9.3637    0.0000 C   0  0  1  0  0  0  0  0  0  0  0  0
    6.4251   -8.5388    0.0000 C   0  0  2  0  0  0  0  0  0  0  0  0
    5.7106   -8.1263    0.0000 C   0  0  0  0  0  0  0  0  0  0  0  0
    7.1396   -9.7763    0.0000 C   0  0  0  0  0  0  0  0  0  0  0  0
    7.8541   -9.3637    0.0000 C   0  0  0  0  0  0  0  0  0  0  0  0
    7.8541   -8.5388    0.0000 C   0  0  2  0  0  0  0  0  0  0  0  0
    7.1396   -8.1263    0.0000 C   0  0  1  0  0  0  0  0  0  0  0  0
    8.5685   -8.1263    0.0000 C   0  0  1  0  0  0  0  0  0  0  0  0
    8.5685   -7.3012    0.0000 C   0  0  2  0  0  0  0  0  0  0  0  0
    7.8541   -6.8888    0.0000 C   0  0  0  0  0  0  0  0  0  0  0  0
    7.1396   -7.3012    0.0000 C   0  0  0  0  0  0  0  0  0  0  0  0
    9.3532   -8.3812    0.0000 C   0  0  2  0  0  0  0  0  0  0  0  0
    9.8381   -7.7138    0.0000 C   0  0  1  0  0  0  0  0  0  0  0  0
    9.3532   -7.0463    0.0000 C   0  0  2  0  0  0  0  0  0  0  0  0
    6.1231  -10.4907    0.0000 C   0  0  0  0  0  0  0  0  0  0  0  0
    4.2817   -9.7763    0.0000 O   0  0  0  0  0  0  0  0  0  0  0  0
    5.2981  -10.4907    0.0000 C   0  0  0  0  0  0  0  0  0  0  0  0
    6.4251   -7.7138    0.0000 C   0  0  0  0  0  0  0  0  0  0  0  0
    8.5685   -6.4763    0.0000 C   0  0  0  0  0  0  0  0  0  0  0  0
    8.5685   -8.9513    0.0000 C   0  0  0  0  0  0  0  0  0  0  0  0
    2.8736   -8.1178    0.0000 C   0  0  0  0  0  0  0  0  0  0  0  0
    2.1579   -8.5281    0.0000 C   0  0  2  0  0  0  0  0  0  0  0  0
    2.1554   -9.3531    0.0000 C   0  0  1  0  0  0  0  0  0  0  0  0
    2.8687   -9.7678    0.0000 C   0  0  2  0  0  0  0  0  0  0  0  0
    3.5844   -9.3574    0.0000 C   0  0  1  0  0  0  0  0  0  0  0  0
    3.5869   -8.5324    0.0000 O   0  0  0  0  0  0  0  0  0  0  0  0
    1.4397   -9.7635    0.0000 O   0  0  0  0  0  0  0  0  0  0  0  0
    1.4447   -8.1135    0.0000 O   0  0  0  0  0  0  0  0  0  0  0  0
    2.8662  -10.5928    0.0000 O   0  0  0  0  0  0  0  0  0  0  0  0
    9.6081   -9.1658    0.0000 O   0  0  0  0  0  0  0  0  0  0  0  0
    8.9407   -6.3318    0.0000 H   0  0  0  0  0  0  0  0  0  0  0  0
    6.4251  -10.1888    0.0000 H   0  0  0  0  0  0  0  0  0  0  0  0
    7.8541   -7.7138    0.0000 H   0  0  0  0  0  0  0  0  0  0  0  0
   10.6586   -7.6275    0.0000 O   0  0  0  0  0  0  0  0  0  0  0  0
   10.9941   -6.8738    0.0000 C   0  0  1  0  0  0  0  0  0  0  0  0
   10.5092   -6.2064    0.0000 C   0  0  1  0  0  0  0  0  0  0  0  0
    9.6887   -6.2926    0.0000 C   0  0  1  0  0  0  0  0  0  0  0  0
   11.7787   -6.6189    0.0000 C   0  0  1  0  0  0  0  0  0  0  0  0
   11.7787   -5.7939    0.0000 C   0  0  1  0  0  0  0  0  0  0  0  0
   10.9941   -5.5390    0.0000 O   0  0  0  0  0  0  0  0  0  0  0  0
    9.2038   -5.6252    0.0000 C   0  0  0  0  0  0  0  0  0  0  0  0
   11.4066   -7.5883    0.0000 O   0  0  0  0  0  0  0  0  0  0  0  0
   12.4462   -7.1038    0.0000 O   0  0  0  0  0  0  0  0  0  0  0  0
   12.5756   -5.5804    0.0000 C   0  0  0  0  0  0  0  0  0  0  0  0
   12.1912   -5.0794    0.0000 C   0  0  0  0  0  0  0  0  0  0  0  0
   10.0967   -5.4919    0.0000 H   0  0  0  0  0  0  0  0  0  0  0  0
  1  2  1  0  0  0  0
  2  3  1  0  0  0  0
  3  4  1  0  0  0  0
  4  5  1  0  0  0  0
  5  6  1  0  0  0  0
  6  1  1  0  0  0  0
  4  7  1  0  0  0  0
  7  8  1  0  0  0  0
  8  9  1  0  0  0  0
  9 10  1  0  0  0  0
 10  5  1  0  0  0  0
  9 11  1  0  0  0  0
 11 12  1  0  0  0  0
 12 13  1  0  0  0  0
 13 14  1  0  0  0  0
 14 10  1  0  0  0  0
 11 15  1  0  0  0  0
 15 16  1  0  0  0  0
 16 17  1  0  0  0  0
 17 12  1  0  0  0  0
  3 18  1  0  0  0  0
  2 19  1  1  0  0  0
  3 20  1  1  0  0  0
  5 21  1  1  0  0  0
 10 21  1  1  0  0  0
 12 22  1  1  0  0  0
 11 23  1  6  0  0  0
 24 25  1  0  0  0  0
 25 26  1  0  0  0  0
 26 27  1  0  0  0  0
 27 28  1  0  0  0  0
 28 29  1  0  0  0  0
 29 24  1  0  0  0  0
 26 30  1  1  0  0  0
 25 31  1  6  0  0  0
 27 32  1  6  0  0  0
 28 19  1  1  0  0  0
 15 33  1  6  0  0  0
 17 34  1  6  0  0  0
  4 35  1  6  0  0  0
  9 36  1  1  0  0  0
 16 37  1  1  0  0  0
 37 38  1  0  0  0  0
 38 39  1  0  0  0  0
 39 40  1  0  0  0  0
 40 17  1  0  0  0  0
 38 41  1  0  0  0  0
 41 42  1  0  0  0  0
 42 43  1  0  0  0  0
 43 39  1  0  0  0  0
 40 44  1  6  0  0  0
 38 45  1  6  0  0  0
 41 46  1  1  0  0  0
 42 47  1  1  0  0  0
 42 48  1  0  0  0  0
 39 49  1  6  0  0  0
M  END
>  <cdx:fragmentId>
5

$$$$
