92393.cdx
  Mrv1902 05222410252D          

 34 37  0  0  0  0            999 V2000
    4.8931   -9.0475    0.0000 C   0  0  2  0  0  0  0  0  0  0  0  0
    4.8931   -9.8725    0.0000 C   0  0  2  0  0  0  0  0  0  0  0  0
    5.6075  -10.2850    0.0000 C   0  0  1  0  0  0  0  0  0  0  0  0
    6.3220   -9.8725    0.0000 C   0  0  2  0  0  0  0  0  0  0  0  0
    6.3220   -9.0475    0.0000 C   0  0  1  0  0  0  0  0  0  0  0  0
    5.6075   -8.6350    0.0000 O   0  0  0  0  0  0  0  0  0  0  0  0
    4.1786   -7.8100    0.0000 O   0  0  0  0  0  0  0  0  0  0  0  0
    4.1786   -8.6350    0.0000 C   0  0  0  0  0  0  0  0  0  0  0  0
    7.0365   -8.6350    0.0000 O   0  0  0  0  0  0  0  0  0  0  0  0
    7.0365   -7.8100    0.0000 C   0  0  0  0  0  0  0  0  0  0  0  0
    8.4654   -7.8100    0.0000 C   0  0  0  0  0  0  0  0  0  0  0  0
    7.7509   -7.3975    0.0000 C   0  0  0  0  0  0  0  0  0  0  0  0
    9.0785   -7.2580    0.0000 C   0  0  0  0  0  0  0  0  0  0  0  0
    8.7429   -6.5043    0.0000 C   0  0  0  0  0  0  0  0  0  0  0  0
    7.9225   -6.5905    0.0000 C   0  0  1  0  0  0  0  0  0  0  0  0
    9.1871   -5.8090    0.0000 C   0  0  0  0  0  0  0  0  0  0  0  0
    8.9204   -5.0283    0.0000 C   0  0  0  0  0  0  0  0  0  0  0  0
    8.1438   -4.7500    0.0000 C   0  0  1  0  0  0  0  0  0  0  0  0
    7.4420   -5.1837    0.0000 C   0  0  2  0  0  0  0  0  0  0  0  0
    7.3435   -6.0028    0.0000 C   0  0  2  0  0  0  0  0  0  0  0  0
    6.6934   -4.8369    0.0000 C   0  0  1  0  0  0  0  0  0  0  0  0
    6.1323   -5.4417    0.0000 C   0  0  0  0  0  0  0  0  0  0  0  0
    6.5340   -6.1623    0.0000 O   0  0  0  0  0  0  0  0  0  0  0  0
    5.3132   -5.3432    0.0000 O   0  0  0  0  0  0  0  0  0  0  0  0
   10.0062   -5.9075    0.0000 C   0  0  0  0  0  0  0  0  0  0  0  0
    9.8855   -7.4295    0.0000 O   0  0  0  0  0  0  0  0  0  0  0  0
    6.5340   -4.0275    0.0000 C   0  0  0  0  0  0  0  0  0  0  0  0
    8.0576   -3.9295    0.0000 O   0  0  0  0  0  0  0  0  0  0  0  0
    8.1372   -5.6279    0.0000 H   0  0  0  0  0  0  0  0  0  0  0  0
    7.2080   -7.0030    0.0000 H   0  0  0  0  0  0  0  0  0  0  0  0
    5.6075  -11.1100    0.0000 O   0  0  0  0  0  0  0  0  0  0  0  0
    4.1786  -10.2850    0.0000 O   0  0  0  0  0  0  0  0  0  0  0  0
    7.0365  -10.2850    0.0000 O   0  0  0  0  0  0  0  0  0  0  0  0
    6.9310   -6.7173    0.0000 H   0  0  0  0  0  0  0  0  0  0  0  0
  1  2  1  0  0  0  0
  2  3  1  0  0  0  0
  3  4  1  0  0  0  0
  4  5  1  0  0  0  0
  5  6  1  0  0  0  0
  6  1  1  0  0  0  0
  7  8  1  0  0  0  0
  1  8  1  1  0  0  0
  5  9  1  1  0  0  0
  9 10  1  0  0  0  0
 11 12  2  0  0  0  0
 12 10  1  0  0  0  0
 11 13  1  0  0  0  0
 13 14  1  0  0  0  0
 14 15  1  0  0  0  0
 15 12  1  0  0  0  0
 14 16  2  0  0  0  0
 16 17  1  0  0  0  0
 17 18  1  0  0  0  0
 18 19  1  0  0  0  0
 19 20  1  0  0  0  0
 20 15  1  0  0  0  0
 19 21  1  0  0  0  0
 21 22  1  0  0  0  0
 22 23  1  0  0  0  0
 23 20  1  0  0  0  0
 22 24  2  0  0  0  0
 16 25  1  0  0  0  0
 13 26  2  0  0  0  0
 21 27  1  1  0  0  0
 18 28  1  1  0  0  0
 19 29  1  1  0  0  0
 15 30  1  1  0  0  0
  3 31  1  1  0  0  0
  2 32  1  6  0  0  0
  4 33  1  6  0  0  0
 20 34  1  6  0  0  0
M  END
>  <cdx:fragmentId>
5

$$$$
