92478.cdx
  Mrv1902 05222410222D          

 18 18  0  0  0  0            999 V2000
    4.9144   -8.6578    0.0000 C   0  0  0  0  0  0  0  0  0  0  0  0
    4.1987   -9.0681    0.0000 C   0  0  0  0  0  0  0  0  0  0  0  0
    4.1961   -9.8931    0.0000 C   0  0  0  0  0  0  0  0  0  0  0  0
    4.9093  -10.3078    0.0000 C   0  0  0  0  0  0  0  0  0  0  0  0
    5.6251   -9.8975    0.0000 C   0  0  0  0  0  0  0  0  0  0  0  0
    5.6276   -9.0725    0.0000 C   0  0  0  0  0  0  0  0  0  0  0  0
    3.4804  -10.3034    0.0000 O   0  0  0  0  0  0  0  0  0  0  0  0
    2.7672   -9.8886    0.0000 C   0  0  0  0  0  0  0  0  0  0  0  0
    6.3434   -8.6622    0.0000 C   0  0  0  0  0  0  0  0  0  0  0  0
    7.0565   -9.0769    0.0000 C   0  0  0  0  0  0  0  0  0  0  0  0
    7.7723   -8.6666    0.0000 C   0  0  0  0  0  0  0  0  0  0  0  0
    8.4855   -9.0813    0.0000 O   0  0  0  0  0  0  0  0  0  0  0  0
    7.7748   -7.8416    0.0000 O   0  0  0  0  0  0  0  0  0  0  0  0
    9.2012   -8.6710    0.0000 C   0  0  0  0  0  0  0  0  0  0  0  0
    9.9144   -9.0857    0.0000 C   0  0  0  0  0  0  0  0  0  0  0  0
   10.6302   -8.6754    0.0000 O   0  0  0  0  0  0  0  0  0  0  0  0
   11.3434   -9.0901    0.0000 C   0  0  0  0  0  0  0  0  0  0  0  0
   12.0591   -8.6798    0.0000 C   0  0  0  0  0  0  0  0  0  0  0  0
  1  2  2  0  0  0  0
  2  3  1  0  0  0  0
  3  4  2  0  0  0  0
  4  5  1  0  0  0  0
  5  6  2  0  0  0  0
  6  1  1  0  0  0  0
  3  7  1  0  0  0  0
  7  8  1  0  0  0  0
  6  9  1  0  0  0  0
  9 10  2  0  0  0  0
 10 11  1  0  0  0  0
 11 12  1  0  0  0  0
 11 13  2  0  0  0  0
 12 14  1  0  0  0  0
 14 15  1  0  0  0  0
 15 16  1  0  0  0  0
 16 17  1  0  0  0  0
 17 18  1  0  0  0  0
M  END
>  <cdx:fragmentId>
5

$$$$
