92476.cdx
  Mrv1902 05222410232D          

 61 68  0  0  0  0            999 V2000
    5.2506   -7.1088    0.0000 C   0  0  0  0  0  0  0  0  0  0  0  0
    5.2506   -7.9337    0.0000 C   0  0  1  0  0  0  0  0  0  0  0  0
    5.9650   -8.3462    0.0000 C   0  0  1  0  0  0  0  0  0  0  0  0
    6.6795   -7.9337    0.0000 C   0  0  1  0  0  0  0  0  0  0  0  0
    6.6795   -7.1088    0.0000 C   0  0  2  0  0  0  0  0  0  0  0  0
    5.9650   -6.6962    0.0000 C   0  0  0  0  0  0  0  0  0  0  0  0
    7.3940   -8.3462    0.0000 C   0  0  0  0  0  0  0  0  0  0  0  0
    8.1084   -7.9337    0.0000 C   0  0  0  0  0  0  0  0  0  0  0  0
    8.1084   -7.1088    0.0000 C   0  0  0  0  0  0  0  0  0  0  0  0
    7.3940   -6.6962    0.0000 C   0  0  1  0  0  0  0  0  0  0  0  0
    8.8229   -6.6962    0.0000 C   0  0  2  0  0  0  0  0  0  0  0  0
    8.8229   -5.8712    0.0000 C   0  0  1  0  0  0  0  0  0  0  0  0
    8.1084   -5.4588    0.0000 C   0  0  0  0  0  0  0  0  0  0  0  0
    7.3940   -5.8712    0.0000 C   0  0  0  0  0  0  0  0  0  0  0  0
    4.5361   -8.3462    0.0000 O   0  0  0  0  0  0  0  0  0  0  0  0
    3.8250   -7.9280    0.0000 C   0  0  1  0  0  0  0  0  0  0  0  0
    3.1072   -8.3347    0.0000 C   0  0  1  0  0  0  0  0  0  0  0  0
    3.8316   -7.1030    0.0000 O   0  0  0  0  0  0  0  0  0  0  0  0
    3.1205   -6.6848    0.0000 C   0  0  0  0  0  0  0  0  0  0  0  0
    2.4027   -7.0915    0.0000 C   0  0  2  0  0  0  0  0  0  0  0  0
    2.3961   -7.9165    0.0000 C   0  0  2  0  0  0  0  0  0  0  0  0
    6.6795   -6.2837    0.0000 C   0  0  0  0  0  0  0  0  0  0  0  0
    5.5525   -9.0607    0.0000 C   0  0  0  0  0  0  0  0  0  0  0  0
    8.8229   -5.0462    0.0000 C   0  0  0  0  0  0  0  0  0  0  0  0
    1.6783   -8.3232    0.0000 O   0  0  0  0  0  0  0  0  0  0  0  0
    3.1005   -9.1597    0.0000 O   0  0  0  0  0  0  0  0  0  0  0  0
    1.6916   -6.6733    0.0000 O   0  0  0  0  0  0  0  0  0  0  0  0
    6.3775   -9.0607    0.0000 C   0  0  0  0  0  0  0  0  0  0  0  0
    8.8229   -7.5213    0.0000 C   0  0  0  0  0  0  0  0  0  0  0  0
    6.6795   -8.7588    0.0000 H   0  0  0  0  0  0  0  0  0  0  0  0
    9.6075   -6.9512    0.0000 C   0  0  2  0  0  0  0  0  0  0  0  0
   10.0925   -6.2837    0.0000 C   0  0  1  0  0  0  0  0  0  0  0  0
    9.6075   -5.6163    0.0000 C   0  0  0  0  0  0  0  0  0  0  0  0
   10.9129   -6.1975    0.0000 O   0  0  0  0  0  0  0  0  0  0  0  0
   11.2485   -5.4438    0.0000 C   0  0  2  0  0  0  0  0  0  0  0  0
   10.7636   -4.7764    0.0000 C   0  0  0  0  0  0  0  0  0  0  0  0
    9.9431   -4.8626    0.0000 C   0  0  1  0  0  0  0  0  0  0  0  0
   10.5050   -6.9982    0.0000 O   0  0  0  0  0  0  0  0  0  0  0  0
    9.4582   -4.1952    0.0000 C   0  0  0  0  0  0  0  0  0  0  0  0
   12.0690   -5.3576    0.0000 C   0  0  2  0  0  0  0  0  0  0  0  0
   12.5539   -6.0250    0.0000 C   0  0  0  0  0  0  0  0  0  0  0  0
   12.4045   -4.6039    0.0000 O   0  0  0  0  0  0  0  0  0  0  0  0
   11.9196   -3.9365    0.0000 C   0  0  0  0  0  0  0  0  0  0  0  0
   12.2552   -3.1828    0.0000 O   0  0  0  0  0  0  0  0  0  0  0  0
   11.0991   -4.0227    0.0000 C   0  0  0  0  0  0  0  0  0  0  0  0
   11.8394   -6.4375    0.0000 C   0  0  0  0  0  0  0  0  0  0  0  0
   13.2684   -5.6125    0.0000 C   0  0  0  0  0  0  0  0  0  0  0  0
   12.9664   -6.7395    0.0000 O   0  0  0  0  0  0  0  0  0  0  0  0
    9.8625   -7.7358    0.0000 O   0  0  0  0  0  0  0  0  0  0  0  0
    9.4454   -8.4476    0.0000 C   0  0  2  0  0  0  0  0  0  0  0  0
    8.6204   -8.4423    0.0000 O   0  0  0  0  0  0  0  0  0  0  0  0
    8.2034   -9.1542    0.0000 C   0  0  1  0  0  0  0  0  0  0  0  0
    8.6113   -9.8713    0.0000 C   0  0  2  0  0  0  0  0  0  0  0  0
    9.4363   -9.8765    0.0000 C   0  0  1  0  0  0  0  0  0  0  0  0
    9.8533   -9.1647    0.0000 C   0  0  1  0  0  0  0  0  0  0  0  0
    7.3784   -9.1489    0.0000 C   0  0  0  0  0  0  0  0  0  0  0  0
    9.8442  -10.5936    0.0000 O   0  0  0  0  0  0  0  0  0  0  0  0
    8.1942  -10.5831    0.0000 O   0  0  0  0  0  0  0  0  0  0  0  0
   10.6783   -9.1700    0.0000 O   0  0  0  0  0  0  0  0  0  0  0  0
    6.9613   -9.8607    0.0000 O   0  0  0  0  0  0  0  0  0  0  0  0
   11.4620   -4.6469    0.0000 H   0  0  0  0  0  0  0  0  0  0  0  0
  1  2  1  0  0  0  0
  2  3  1  0  0  0  0
  3  4  1  0  0  0  0
  4  5  1  0  0  0  0
  5  6  1  0  0  0  0
  6  1  1  0  0  0  0
  4  7  1  0  0  0  0
  7  8  1  0  0  0  0
  8  9  1  0  0  0  0
  9 10  1  0  0  0  0
 10  5  1  0  0  0  0
  9 11  1  0  0  0  0
 11 12  1  0  0  0  0
 12 13  1  0  0  0  0
 13 14  1  0  0  0  0
 14 10  1  0  0  0  0
  2 15  1  1  0  0  0
 16 15  1  1  0  0  0
 16 17  1  0  0  0  0
 16 18  1  0  0  0  0
 18 19  1  0  0  0  0
 19 20  1  0  0  0  0
 20 21  1  0  0  0  0
 21 17  1  0  0  0  0
  5 22  1  1  0  0  0
 10 22  1  1  0  0  0
  3 23  1  1  0  0  0
 12 24  1  1  0  0  0
 21 25  1  1  0  0  0
 17 26  1  6  0  0  0
 20 27  1  6  0  0  0
  3 28  1  6  0  0  0
 11 29  1  6  0  0  0
  4 30  1  6  0  0  0
 11 31  1  0  0  0  0
 31 32  1  0  0  0  0
 32 33  1  0  0  0  0
 33 12  1  0  0  0  0
 32 34  1  0  0  0  0
 34 35  1  0  0  0  0
 35 36  1  0  0  0  0
 36 37  1  0  0  0  0
 37 33  1  0  0  0  0
 32 38  1  6  0  0  0
 37 39  1  6  0  0  0
 35 40  1  0  0  0  0
 40 41  1  0  0  0  0
 40 42  1  1  0  0  0
 42 43  1  0  0  0  0
 43 44  2  0  0  0  0
 43 45  1  0  0  0  0
 41 46  1  0  0  0  0
 41 47  1  0  0  0  0
 41 48  1  0  0  0  0
 31 49  1  6  0  0  0
 50 49  1  1  0  0  0
 50 51  1  0  0  0  0
 51 52  1  0  0  0  0
 52 53  1  0  0  0  0
 53 54  1  0  0  0  0
 54 55  1  0  0  0  0
 55 50  1  0  0  0  0
 52 56  1  1  0  0  0
 54 57  1  1  0  0  0
 53 58  1  6  0  0  0
 55 59  1  6  0  0  0
 56 60  1  0  0  0  0
 35 61  1  1  0  0  0
M  END
>  <cdx:fragmentId>
5

$$$$
