92410.cdx
  Mrv1902 05222410232D          

 22 25  0  0  0  0            999 V2000
    4.6731   -9.3087    0.0000 C   0  0  0  0  0  0  0  0  0  0  0  0
    4.6731  -10.1338    0.0000 C   0  0  0  0  0  0  0  0  0  0  0  0
    5.3875  -10.5463    0.0000 C   0  0  0  0  0  0  0  0  0  0  0  0
    6.1020  -10.1338    0.0000 O   0  0  0  0  0  0  0  0  0  0  0  0
    6.1020   -9.3087    0.0000 C   0  0  0  0  0  0  0  0  0  0  0  0
    5.3875   -8.8963    0.0000 C   0  0  0  0  0  0  0  0  0  0  0  0
    6.8165   -8.8963    0.0000 C   0  0  0  0  0  0  0  0  0  0  0  0
    6.8165   -8.0713    0.0000 C   0  0  0  0  0  0  0  0  0  0  0  0
    6.1020   -7.6587    0.0000 C   0  0  0  0  0  0  0  0  0  0  0  0
    5.3875   -8.0713    0.0000 C   0  0  0  0  0  0  0  0  0  0  0  0
    7.5309   -7.6587    0.0000 O   0  0  0  0  0  0  0  0  0  0  0  0
    7.5309   -6.8338    0.0000 C   0  0  0  0  0  0  0  0  0  0  0  0
    8.9599   -6.8338    0.0000 C   0  0  0  0  0  0  0  0  0  0  0  0
    8.2454   -6.4213    0.0000 C   0  0  0  0  0  0  0  0  0  0  0  0
    9.6744   -6.4213    0.0000 C   0  0  0  0  0  0  0  0  0  0  0  0
    9.6744   -5.5962    0.0000 C   0  0  0  0  0  0  0  0  0  0  0  0
    8.9599   -5.1837    0.0000 C   0  0  0  0  0  0  0  0  0  0  0  0
    8.2454   -5.5962    0.0000 C   0  0  0  0  0  0  0  0  0  0  0  0
    3.8884   -9.0538    0.0000 C   0  0  0  0  0  0  0  0  0  0  0  0
    3.4035   -9.7212    0.0000 C   0  0  0  0  0  0  0  0  0  0  0  0
    3.8884  -10.3887    0.0000 C   0  0  0  0  0  0  0  0  0  0  0  0
    5.3875  -11.3712    0.0000 O   0  0  0  0  0  0  0  0  0  0  0  0
  1  2  2  0  0  0  0
  2  3  1  0  0  0  0
  3  4  1  0  0  0  0
  4  5  1  0  0  0  0
  5  6  2  0  0  0  0
  6  1  1  0  0  0  0
  5  7  1  0  0  0  0
  7  8  2  0  0  0  0
  8  9  1  0  0  0  0
  9 10  2  0  0  0  0
 10  6  1  0  0  0  0
  8 11  1  0  0  0  0
 11 12  1  0  0  0  0
 13 14  2  0  0  0  0
 14 12  1  0  0  0  0
 13 15  1  0  0  0  0
 15 16  2  0  0  0  0
 16 17  1  0  0  0  0
 17 18  2  0  0  0  0
 18 14  1  0  0  0  0
  1 19  1  0  0  0  0
 19 20  1  0  0  0  0
 20 21  1  0  0  0  0
 21  2  1  0  0  0  0
  3 22  2  0  0  0  0
M  END
>  <cdx:fragmentId>
5

$$$$
