92406.cdx
  Mrv1902 05222410212D          

 12 11  0  0  0  0            999 V2000
   10.5385   -5.4450    0.0000 C   0  0  0  0  0  0  0  0  0  0  0  0
    9.8240   -5.8575    0.0000 C   0  0  0  0  0  0  0  0  0  0  0  0
    9.1095   -5.4450    0.0000 C   0  0  0  0  0  0  0  0  0  0  0  0
    8.3951   -5.8575    0.0000 C   0  0  0  0  0  0  0  0  0  0  0  0
    7.6806   -5.4450    0.0000 C   0  0  0  0  0  0  0  0  0  0  0  0
    6.9661   -5.8575    0.0000 C   0  0  0  0  0  0  0  0  0  0  0  0
    6.2517   -5.4450    0.0000 C   0  0  0  0  0  0  0  0  0  0  0  0
    5.5372   -5.8575    0.0000 C   0  0  0  0  0  0  0  0  0  0  0  0
    4.8227   -5.4450    0.0000 C   0  0  0  0  0  0  0  0  0  0  0  0
    4.1082   -5.8575    0.0000 C   0  0  0  0  0  0  0  0  0  0  0  0
    3.3938   -5.4450    0.0000 C   0  0  0  0  0  0  0  0  0  0  0  0
    6.9661   -6.6825    0.0000 O   0  0  0  0  0  0  0  0  0  0  0  0
  2  1  1  0  0  0  0
  3  2  1  0  0  0  0
  4  3  1  0  0  0  0
  5  4  1  0  0  0  0
  6  5  1  0  0  0  0
  7  6  1  0  0  0  0
  8  7  1  0  0  0  0
  9  8  1  0  0  0  0
 10  9  1  0  0  0  0
 11 10  1  0  0  0  0
  6 12  1  0  0  0  0
M  END
>  <cdx:fragmentId>
3

$$$$
