92489.cdx
  Mrv1902 05222410232D          

 18 20  0  0  0  0            999 V2000
    7.0164   -6.6201    0.0000 O   0  0  0  0  0  0  0  0  0  0  0  0
    7.0164   -7.4451    0.0000 C   0  0  0  0  0  0  0  0  0  0  0  0
    6.3019   -7.8576    0.0000 C   0  0  0  0  0  0  0  0  0  0  0  0
    6.3019   -8.6826    0.0000 C   0  0  0  0  0  0  0  0  0  0  0  0
    7.0164   -9.0951    0.0000 C   0  0  0  0  0  0  0  0  0  0  0  0
    8.4453   -7.4451    0.0000 C   0  0  0  0  0  0  0  0  0  0  0  0
    7.7308   -7.8576    0.0000 C   0  0  0  0  0  0  0  0  0  0  0  0
    7.7308   -8.6826    0.0000 C   0  0  0  0  0  0  0  0  0  0  0  0
    8.4453   -9.0951    0.0000 C   0  0  0  0  0  0  0  0  0  0  0  0
    9.1598   -8.6826    0.0000 C   0  0  0  0  0  0  0  0  0  0  0  0
    9.1598   -7.8576    0.0000 C   0  0  0  0  0  0  0  0  0  0  0  0
    5.5874   -7.4451    0.0000 C   0  0  0  0  0  0  0  0  0  0  0  0
    4.8730   -7.8576    0.0000 C   0  0  0  0  0  0  0  0  0  0  0  0
    4.8730   -8.6826    0.0000 C   0  0  0  0  0  0  0  0  0  0  0  0
    5.5874   -9.0951    0.0000 C   0  0  0  0  0  0  0  0  0  0  0  0
    9.8743   -9.0951    0.0000 C   0  0  0  0  0  0  0  0  0  0  0  0
    8.4453   -6.6201    0.0000 O   0  0  0  0  0  0  0  0  0  0  0  0
    5.5874   -6.6201    0.0000 O   0  0  0  0  0  0  0  0  0  0  0  0
  2  1  2  0  0  0  0
  2  7  1  0  0  0  0
  3  2  1  0  0  0  0
  4  3  2  0  0  0  0
  5  4  1  0  0  0  0
  8  5  1  0  0  0  0
  6 11  1  0  0  0  0
  7  6  2  0  0  0  0
  8  7  1  0  0  0  0
  9  8  2  0  0  0  0
 10  9  1  0  0  0  0
 11 10  2  0  0  0  0
  3 12  1  0  0  0  0
 12 13  2  0  0  0  0
 13 14  1  0  0  0  0
 14 15  2  0  0  0  0
 15  4  1  0  0  0  0
 10 16  1  0  0  0  0
  6 17  1  0  0  0  0
 12 18  1  0  0  0  0
M  END
>  <cdx:fragmentId>
5

$$$$
