92487.cdx
  Mrv1902 05222410222D          

 16 17  0  0  0  0            999 V2000
    4.3574   -7.4866    0.0000 C   0  0  0  0  0  0  0  0  0  0  0  0
    4.3549   -6.6616    0.0000 C   0  0  0  0  0  0  0  0  0  0  0  0
    5.0681   -6.2469    0.0000 C   0  0  0  0  0  0  0  0  0  0  0  0
    5.7838   -6.6572    0.0000 C   0  0  2  0  0  0  0  0  0  0  0  0
    5.7864   -7.4822    0.0000 C   0  0  0  0  0  0  0  0  0  0  0  0
    5.0732   -7.8969    0.0000 C   0  0  1  0  0  0  0  0  0  0  0  0
    6.4970   -6.2425    0.0000 C   0  0  0  0  0  0  0  0  0  0  0  0
    7.2128   -6.6528    0.0000 C   0  0  0  0  0  0  0  0  0  0  0  0
    7.2153   -7.4778    0.0000 C   0  0  0  0  0  0  0  0  0  0  0  0
    6.5021   -7.8925    0.0000 C   0  0  0  0  0  0  0  0  0  0  0  0
    7.9311   -7.8881    0.0000 C   0  0  0  0  0  0  0  0  0  0  0  0
    7.9336   -8.7131    0.0000 C   0  0  0  0  0  0  0  0  0  0  0  0
    4.6629   -8.6126    0.0000 O   0  0  0  0  0  0  0  0  0  0  0  0
    8.6443   -7.4734    0.0000 C   0  0  0  0  0  0  0  0  0  0  0  0
    5.4879   -8.6101    0.0000 C   0  0  0  0  0  0  0  0  0  0  0  0
    5.7813   -5.8322    0.0000 C   0  0  0  0  0  0  0  0  0  0  0  0
  1  2  1  0  0  0  0
  2  3  1  0  0  0  0
  3  4  1  0  0  0  0
  4  5  1  0  0  0  0
  5  6  1  0  0  0  0
  6  1  1  0  0  0  0
  4  7  1  0  0  0  0
  7  8  1  0  0  0  0
  8  9  1  0  0  0  0
  9 10  1  0  0  0  0
 10  5  1  0  0  0  0
  9 11  2  0  0  0  0
 11 12  1  0  0  0  0
  6 13  1  0  0  0  0
 11 14  1  0  0  0  0
  6 15  1  6  0  0  0
  4 16  1  6  0  0  0
M  END
>  <cdx:fragmentId>
5

$$$$
