9248.cdx
  Mrv1902 05222410262D          

 70 73  0  0  0  0            999 V2000
    2.6488  -14.6373    0.0000 O   0  0  0  0  0  0  0  0  0  0  0  0
    6.2230  -13.4554    0.0000 O   0  0  0  0  0  0  0  0  0  0  0  0
    3.3657  -13.4127    0.0000 O   0  0  0  0  0  0  0  0  0  0  0  0
    4.7919  -12.6093    0.0000 O   0  0  0  0  0  0  0  0  0  0  0  0
    3.3583  -15.0583    0.0000 C   0  0  0  0  0  0  0  0  0  0  0  0
    5.5061  -13.8637    0.0000 C   0  0  2  0  0  0  0  0  0  0  0  0
    4.7820  -13.4342    0.0000 C   0  0  2  0  0  0  0  0  0  0  0  0
    4.0776  -13.8296    0.0000 C   0  0  1  0  0  0  0  0  0  0  0  0
    4.0776  -14.6543    0.0000 C   0  0  2  0  0  0  0  0  0  0  0  0
    4.7820  -15.0838    0.0000 O   0  0  0  0  0  0  0  0  0  0  0  0
    5.5061  -14.6884    0.0000 C   0  0  1  0  0  0  0  0  0  0  0  0
   15.9948   -5.1069    0.0000 C   0  0  1  0  0  0  0  0  0  0  0  0
   16.6400   -4.7395    0.0000 C   0  0  1  0  0  0  0  0  0  0  0  0
   16.6444   -3.9970    0.0000 C   0  0  0  0  0  0  0  0  0  0  0  0
   16.0036   -3.6219    0.0000 C   0  0  1  0  0  0  0  0  0  0  0  0
   15.3584   -3.9893    0.0000 C   0  0  0  0  0  0  0  0  0  0  0  0
   15.3540   -4.7318    0.0000 C   0  0  1  0  0  0  0  0  0  0  0  0
    8.2121  -16.1981    0.0000 C   0  0  1  0  0  0  0  0  0  0  0  0
    7.5713  -15.8231    0.0000 C   0  0  1  0  0  0  0  0  0  0  0  0
    7.5758  -15.0806    0.0000 C   0  0  2  0  0  0  0  0  0  0  0  0
    8.2210  -14.7132    0.0000 O   0  0  0  0  0  0  0  0  0  0  0  0
   14.7087   -5.0992    0.0000 O   0  0  0  0  0  0  0  0  0  0  0  0
   12.1190   -8.0538    0.0000 C   0  0  0  0  0  0  0  0  0  0  0  0
   13.4183   -5.8340    0.0000 C   0  0  0  0  0  0  0  0  0  0  0  0
    8.8707  -13.6033    0.0000 O   0  0  0  0  0  0  0  0  0  0  0  0
   14.0591   -6.2091    0.0000 C   0  0  0  0  0  0  0  0  0  0  0  0
   14.7043   -5.8417    0.0000 C   0  0  0  0  0  0  0  0  0  0  0  0
   15.3451   -6.2168    0.0000 O   0  0  0  0  0  0  0  0  0  0  0  0
   13.4094   -7.3190    0.0000 C   0  0  0  0  0  0  0  0  0  0  0  0
   14.0546   -6.9516    0.0000 C   0  0  0  0  0  0  0  0  0  0  0  0
   12.7598   -8.4289    0.0000 C   0  0  0  0  0  0  0  0  0  0  0  0
   13.4050   -8.0615    0.0000 C   0  0  0  0  0  0  0  0  0  0  0  0
   12.1101   -9.5388    0.0000 C   0  0  0  0  0  0  0  0  0  0  0  0
   12.7553   -9.1714    0.0000 C   0  0  0  0  0  0  0  0  0  0  0  0
   11.4604  -10.6487    0.0000 C   0  0  0  0  0  0  0  0  0  0  0  0
   12.1057  -10.2813    0.0000 C   0  0  0  0  0  0  0  0  0  0  0  0
   10.8108  -11.7586    0.0000 C   0  0  0  0  0  0  0  0  0  0  0  0
   11.4560  -11.3912    0.0000 C   0  0  0  0  0  0  0  0  0  0  0  0
   12.0968  -11.7663    0.0000 C   0  0  0  0  0  0  0  0  0  0  0  0
   10.1611  -12.8685    0.0000 C   0  0  0  0  0  0  0  0  0  0  0  0
   10.8063  -12.5011    0.0000 C   0  0  0  0  0  0  0  0  0  0  0  0
   10.1567  -13.6110    0.0000 C   0  0  0  0  0  0  0  0  0  0  0  0
   10.7975  -13.9860    0.0000 C   0  0  0  0  0  0  0  0  0  0  0  0
    9.5115  -13.9784    0.0000 C   0  0  0  0  0  0  0  0  0  0  0  0
    8.8618  -15.0883    0.0000 C   0  0  2  0  0  0  0  0  0  0  0  0
    8.8574  -15.8307    0.0000 C   0  0  2  0  0  0  0  0  0  0  0  0
    8.2077  -16.9406    0.0000 O   0  0  0  0  0  0  0  0  0  0  0  0
    9.5070  -14.7209    0.0000 O   0  0  0  0  0  0  0  0  0  0  0  0
    6.9350  -14.7055    0.0000 C   0  0  0  0  0  0  0  0  0  0  0  0
    6.9261  -16.1905    0.0000 O   0  0  0  0  0  0  0  0  0  0  0  0
    9.4982  -16.2058    0.0000 O   0  0  0  0  0  0  0  0  0  0  0  0
    6.2156  -15.1094    0.0000 O   0  0  0  0  0  0  0  0  0  0  0  0
   15.9898   -5.9319    0.0000 O   0  0  0  0  0  0  0  0  0  0  0  0
   17.3520   -5.1563    0.0000 O   0  0  0  0  0  0  0  0  0  0  0  0
   18.0689   -4.7480    0.0000 C   0  0  0  0  0  0  0  0  0  0  0  0
   18.7809   -5.1648    0.0000 C   0  0  0  0  0  0  0  0  0  0  0  0
   18.0738   -3.9230    0.0000 O   0  0  0  0  0  0  0  0  0  0  0  0
   19.4978   -4.7566    0.0000 C   0  0  0  0  0  0  0  0  0  0  0  0
   20.2098   -5.1733    0.0000 C   0  0  0  0  0  0  0  0  0  0  0  0
   20.2024   -5.9983    0.0000 C   0  0  0  0  0  0  0  0  0  0  0  0
   20.9132   -6.4171    0.0000 C   0  0  0  0  0  0  0  0  0  0  0  0
   21.6313   -5.9983    0.0000 C   0  0  0  0  0  0  0  0  0  0  0  0
   21.6313   -5.1733    0.0000 C   0  0  0  0  0  0  0  0  0  0  0  0
   20.9132   -4.7544    0.0000 C   0  0  0  0  0  0  0  0  0  0  0  0
   22.3467   -6.4092    0.0000 O   0  0  0  0  0  0  0  0  0  0  0  0
   22.3467   -4.7624    0.0000 O   0  0  0  0  0  0  0  0  0  0  0  0
   16.0085   -2.7969    0.0000 C   0  0  0  0  0  0  0  0  0  0  0  0
   15.2966   -2.3802    0.0000 O   0  0  0  0  0  0  0  0  0  0  0  0
   16.7255   -2.3887    0.0000 O   0  0  0  0  0  0  0  0  0  0  0  0
   16.7181   -3.2094    0.0000 O   0  0  0  0  0  0  0  0  0  0  0  0
  5  1  1  0  0  0  0
  6  2  1  1  0  0  0
  8  3  1  1  0  0  0
  7  4  1  6  0  0  0
  9  5  1  6  0  0  0
  6 11  1  0  0  0  0
  7  6  1  0  0  0  0
  8  7  1  0  0  0  0
  9  8  1  0  0  0  0
 10  9  1  0  0  0  0
 11 10  1  0  0  0  0
 11 52  1  6  0  0  0
 12 17  1  0  0  0  0
 13 12  1  0  0  0  0
 14 13  1  0  0  0  0
 15 14  1  0  0  0  0
 16 15  1  0  0  0  0
 17 16  1  0  0  0  0
 17 22  1  6  0  0  0
 27 22  1  0  0  0  0
 31 23  1  0  0  0  0
 26 24  1  0  0  0  0
 44 25  2  0  0  0  0
 26 30  2  0  0  0  0
 27 26  1  0  0  0  0
 28 27  2  0  0  0  0
 29 32  2  0  0  0  0
 30 29  1  0  0  0  0
 31 34  2  0  0  0  0
 32 31  1  0  0  0  0
 33 36  2  0  0  0  0
 34 33  1  0  0  0  0
 35 38  2  0  0  0  0
 36 35  1  0  0  0  0
 37 41  2  0  0  0  0
 38 37  1  0  0  0  0
 39 38  1  0  0  0  0
 40 42  2  0  0  0  0
 41 40  1  0  0  0  0
 42 44  1  0  0  0  0
 43 42  1  0  0  0  0
 48 44  1  0  0  0  0
 18 19  1  0  0  0  0
 19 20  1  0  0  0  0
 20 21  1  0  0  0  0
 21 45  1  0  0  0  0
 45 46  1  0  0  0  0
 46 18  1  0  0  0  0
 18 47  1  1  0  0  0
 45 48  1  1  0  0  0
 20 49  1  1  0  0  0
 19 50  1  6  0  0  0
 46 51  1  6  0  0  0
 49 52  1  0  0  0  0
 12 53  1  6  0  0  0
 13 54  1  1  0  0  0
 54 55  1  0  0  0  0
 55 56  1  0  0  0  0
 55 57  2  0  0  0  0
 56 58  2  0  0  0  0
 58 59  1  0  0  0  0
 59 60  2  0  0  0  0
 60 61  1  0  0  0  0
 61 62  2  0  0  0  0
 62 63  1  0  0  0  0
 63 64  2  0  0  0  0
 64 59  1  0  0  0  0
 62 65  1  0  0  0  0
 63 66  1  0  0  0  0
 15 67  1  0  0  0  0
 67 68  2  0  0  0  0
 67 69  1  0  0  0  0
 15 70  1  6  0  0  0
M  END
>  <cdx:fragmentId>
296

$$$$
