92486.cdx
  Mrv1902 05222410222D          

 29 32  0  0  0  0            999 V2000
    6.3088   -7.7029    0.0000 C   0  0  0  0  0  0  0  0  0  0  0  0
    6.3157  -10.1777    0.0000 H   0  0  0  0  0  0  0  0  0  0  0  0
    7.0064   -6.4585    0.0000 H   0  0  0  0  0  0  0  0  0  0  0  0
    6.2942   -6.8778    0.0000 O   0  0  0  0  0  0  0  0  0  0  0  0
    7.0197   -8.9344    0.0000 H   0  0  0  0  0  0  0  0  0  0  0  0
    5.1984  -10.4891    0.0000 C   0  0  0  0  0  0  0  0  0  0  0  0
    6.0233  -10.4822    0.0000 C   0  0  0  0  0  0  0  0  0  0  0  0
   10.4284   -6.3338    0.0000 O   0  0  0  0  0  0  0  0  0  0  0  0
    9.8500   -6.9220    0.0000 C   0  0  0  0  0  0  0  0  0  0  0  0
    9.1154   -5.2467    0.0000 O   0  0  0  0  0  0  0  0  0  0  0  0
    4.1760   -9.7832    0.0000 O   0  0  0  0  0  0  0  0  0  0  0  0
    5.5910   -8.1214    0.0000 C   0  0  0  0  0  0  0  0  0  0  0  0
    4.8801   -8.5399    0.0000 C   0  0  0  0  0  0  0  0  0  0  0  0
    4.8870   -9.3647    0.0000 C   0  0  0  0  0  0  0  0  0  0  0  0
    5.6048   -9.7712    0.0000 C   0  0  0  0  0  0  0  0  0  0  0  0
    6.3088   -8.5279    0.0000 C   0  0  1  0  0  0  0  0  0  0  0  0
    6.3157   -9.3527    0.0000 C   0  0  2  0  0  0  0  0  0  0  0  0
    7.0335   -9.7592    0.0000 C   0  0  0  0  0  0  0  0  0  0  0  0
    7.7444   -9.3407    0.0000 C   0  0  1  0  0  0  0  0  0  0  0  0
    9.0513   -6.7152    0.0000 C   0  0  0  0  0  0  0  0  0  0  0  0
    8.7089   -5.9646    0.0000 C   0  0  0  0  0  0  0  0  0  0  0  0
    7.8891   -6.0572    0.0000 O   0  0  0  0  0  0  0  0  0  0  0  0
    8.4490   -8.0978    0.0000 C   0  0  0  0  0  0  0  0  0  0  0  0
    8.4421   -7.2714    0.0000 C   0  0  0  0  0  0  0  0  0  0  0  0
    7.7243   -6.8650    0.0000 C   0  0  1  0  0  0  0  0  0  0  0  0
    7.0121   -7.2843    0.0000 C   0  0  2  0  0  0  0  0  0  0  0  0
    7.0197   -8.1094    0.0000 C   0  0  2  0  0  0  0  0  0  0  0  0
    7.7375   -8.5159    0.0000 C   0  0  0  0  0  0  0  0  0  0  0  0
    8.4623   -9.7472    0.0000 O   0  0  0  0  0  0  0  0  0  0  0  0
 16  1  1  6  0  0  0
 17  2  1  1  0  0  0
 25  3  1  6  0  0  0
 26  4  1  6  0  0  0
 27  5  1  1  0  0  0
 15  6  1  0  0  0  0
 15  7  1  0  0  0  0
  9  8  1  0  0  0  0
 20  9  1  0  0  0  0
 21 10  2  0  0  0  0
 14 11  2  0  0  0  0
 12 16  1  0  0  0  0
 13 12  1  0  0  0  0
 14 13  1  0  0  0  0
 15 14  1  0  0  0  0
 17 15  1  0  0  0  0
 16 27  1  0  0  0  0
 17 16  1  0  0  0  0
 18 17  1  0  0  0  0
 19 18  1  0  0  0  0
 28 19  1  0  0  0  0
 24 20  2  0  0  0  0
 21 20  1  0  0  0  0
 22 21  1  0  0  0  0
 25 22  1  0  0  0  0
 28 23  2  0  0  0  0
 24 23  1  0  0  0  0
 25 24  1  0  0  0  0
 26 25  1  0  0  0  0
 27 26  1  0  0  0  0
 28 27  1  0  0  0  0
 19 29  1  1  0  0  0
M  END
>  <cdx:groupId>
3158

>  <cdx:fragmentId>
3159

$$$$
