92403.cdx
  Mrv1902 05222410212D          

 36 41  0  0  0  0            999 V2000
    3.8618   -9.9550    0.0000 C   0  0  0  0  0  0  0  0  0  0  0  0
    3.8618  -10.7800    0.0000 C   0  0  0  0  0  0  0  0  0  0  0  0
    4.5763  -11.1925    0.0000 C   0  0  0  0  0  0  0  0  0  0  0  0
    5.2907  -10.7800    0.0000 C   0  0  0  0  0  0  0  0  0  0  0  0
    5.2907   -9.9550    0.0000 C   0  0  0  0  0  0  0  0  0  0  0  0
    4.5763   -9.5425    0.0000 C   0  0  0  0  0  0  0  0  0  0  0  0
    6.0052   -9.5425    0.0000 C   0  0  0  0  0  0  0  0  0  0  0  0
    6.0052   -8.7175    0.0000 C   0  0  0  0  0  0  0  0  0  0  0  0
    5.2907   -8.3050    0.0000 C   0  0  0  0  0  0  0  0  0  0  0  0
    4.5763   -8.7175    0.0000 C   0  0  0  0  0  0  0  0  0  0  0  0
    6.7197   -9.9550    0.0000 C   0  0  0  0  0  0  0  0  0  0  0  0
    7.4342   -9.5425    0.0000 C   0  0  0  0  0  0  0  0  0  0  0  0
    7.4342   -8.7175    0.0000 C   0  0  0  0  0  0  0  0  0  0  0  0
    6.7197   -8.3050    0.0000 C   0  0  0  0  0  0  0  0  0  0  0  0
    6.7197   -7.4800    0.0000 C   0  0  0  0  0  0  0  0  0  0  0  0
    6.0052   -7.0675    0.0000 C   0  0  0  0  0  0  0  0  0  0  0  0
    5.2907   -7.4800    0.0000 O   0  0  0  0  0  0  0  0  0  0  0  0
    7.4342   -7.0675    0.0000 C   0  0  0  0  0  0  0  0  0  0  0  0
    7.4342   -6.2425    0.0000 C   0  0  0  0  0  0  0  0  0  0  0  0
    6.7197   -5.8300    0.0000 C   0  0  0  0  0  0  0  0  0  0  0  0
    6.0052   -6.2425    0.0000 C   0  0  0  0  0  0  0  0  0  0  0  0
    8.1486   -7.4800    0.0000 C   0  0  0  0  0  0  0  0  0  0  0  0
    8.8631   -7.0675    0.0000 C   0  0  0  0  0  0  0  0  0  0  0  0
    8.8631   -6.2425    0.0000 C   0  0  0  0  0  0  0  0  0  0  0  0
    8.1486   -5.8300    0.0000 C   0  0  0  0  0  0  0  0  0  0  0  0
    9.5776   -5.8300    0.0000 C   0  0  0  0  0  0  0  0  0  0  0  0
    9.5776   -5.0050    0.0000 C   0  0  0  0  0  0  0  0  0  0  0  0
    8.8631   -4.5925    0.0000 C   0  0  0  0  0  0  0  0  0  0  0  0
    8.1486   -5.0050    0.0000 C   0  0  0  0  0  0  0  0  0  0  0  0
    6.7197   -5.0050    0.0000 O   0  0  0  0  0  0  0  0  0  0  0  0
    6.0052   -4.5925    0.0000 C   0  0  0  0  0  0  0  0  0  0  0  0
    3.1473  -11.1925    0.0000 O   0  0  0  0  0  0  0  0  0  0  0  0
    8.1486   -8.3050    0.0000 O   0  0  0  0  0  0  0  0  0  0  0  0
    6.7197  -10.7800    0.0000 O   0  0  0  0  0  0  0  0  0  0  0  0
    7.4342  -11.1925    0.0000 C   0  0  0  0  0  0  0  0  0  0  0  0
   10.2920   -4.5925    0.0000 O   0  0  0  0  0  0  0  0  0  0  0  0
  1  2  2  0  0  0  0
  2  3  1  0  0  0  0
  3  4  2  0  0  0  0
  4  5  1  0  0  0  0
  5  6  2  0  0  0  0
  6  1  1  0  0  0  0
  5  7  1  0  0  0  0
  7  8  1  0  0  0  0
  8  9  1  0  0  0  0
  9 10  2  0  0  0  0
 10  6  1  0  0  0  0
  7 11  2  0  0  0  0
 11 12  1  0  0  0  0
 12 13  2  0  0  0  0
 13 14  1  0  0  0  0
 14  8  2  0  0  0  0
 14 15  1  0  0  0  0
 15 16  1  0  0  0  0
 16 17  1  0  0  0  0
 15 18  2  0  0  0  0
 18 19  1  0  0  0  0
 19 20  2  0  0  0  0
 20 21  1  0  0  0  0
 21 16  2  0  0  0  0
 18 22  1  0  0  0  0
 22 23  1  0  0  0  0
 23 24  1  0  0  0  0
 24 25  2  0  0  0  0
 25 19  1  0  0  0  0
 24 26  1  0  0  0  0
 26 27  2  0  0  0  0
 27 28  1  0  0  0  0
 28 29  2  0  0  0  0
 29 25  1  0  0  0  0
 20 30  1  0  0  0  0
 30 31  1  0  0  0  0
  2 32  1  0  0  0  0
 13 33  1  0  0  0  0
 11 34  1  0  0  0  0
 34 35  1  0  0  0  0
 27 36  1  0  0  0  0
M  END
>  <cdx:fragmentId>
5

$$$$
