92496.cdx
  Mrv1902 05222410212D          

 30 32  0  0  0  0            999 V2000
    5.8492   -6.4075    0.0000 C   0  0  0  0  0  0  0  0  0  0  0  0
    5.8492   -7.2325    0.0000 C   0  0  0  0  0  0  0  0  0  0  0  0
    6.4325   -7.8159    0.0000 C   0  0  0  0  0  0  0  0  0  0  0  0
    7.2575   -7.8159    0.0000 C   0  0  1  0  0  0  0  0  0  0  0  0
    7.8409   -7.2325    0.0000 C   0  0  2  0  0  0  0  0  0  0  0  0
    7.8409   -6.4075    0.0000 C   0  0  2  0  0  0  0  0  0  0  0  0
    7.2575   -5.8241    0.0000 C   0  0  0  0  0  0  0  0  0  0  0  0
    6.4325   -5.8241    0.0000 C   0  0  0  0  0  0  0  0  0  0  0  0
    6.2190   -5.0272    0.0000 C   0  0  0  0  0  0  0  0  0  0  0  0
    5.4221   -4.8137    0.0000 C   0  0  0  0  0  0  0  0  0  0  0  0
    4.8387   -5.3971    0.0000 C   0  0  0  0  0  0  0  0  0  0  0  0
    5.0523   -6.1940    0.0000 C   0  0  0  0  0  0  0  0  0  0  0  0
    5.0523   -7.4460    0.0000 C   0  0  0  0  0  0  0  0  0  0  0  0
    4.8387   -8.2429    0.0000 C   0  0  0  0  0  0  0  0  0  0  0  0
    5.4221   -8.8263    0.0000 C   0  0  0  0  0  0  0  0  0  0  0  0
    6.2190   -8.6128    0.0000 C   0  0  0  0  0  0  0  0  0  0  0  0
    4.0419   -5.1836    0.0000 O   0  0  0  0  0  0  0  0  0  0  0  0
    3.4585   -5.7669    0.0000 C   0  0  0  0  0  0  0  0  0  0  0  0
    3.6720   -6.5638    0.0000 C   0  0  0  0  0  0  0  0  0  0  0  0
    4.4552   -6.6123    0.0000 O   0  0  0  0  0  0  0  0  0  0  0  0
    4.4002   -7.0139    0.0000 O   0  0  0  0  0  0  0  0  0  0  0  0
    3.6720   -7.0762    0.0000 C   0  0  0  0  0  0  0  0  0  0  0  0
    3.4585   -7.8731    0.0000 C   0  0  0  0  0  0  0  0  0  0  0  0
    4.0419   -8.4564    0.0000 O   0  0  0  0  0  0  0  0  0  0  0  0
    4.4117   -9.8367    0.0000 C   0  0  0  0  0  0  0  0  0  0  0  0
    5.2086   -9.6232    0.0000 O   0  0  0  0  0  0  0  0  0  0  0  0
    5.2086   -4.0168    0.0000 O   0  0  0  0  0  0  0  0  0  0  0  0
    8.6031   -6.0918    0.0000 C   0  0  0  0  0  0  0  0  0  0  0  0
    8.6031   -7.5482    0.0000 C   0  0  0  0  0  0  0  0  0  0  0  0
    7.5732   -8.5781    0.0000 O   0  0  0  0  0  0  0  0  0  0  0  0
  1  2  1  0  0  0  0
  2  3  2  0  0  0  0
  3  4  1  0  0  0  0
  4  5  1  0  0  0  0
  5  6  1  0  0  0  0
  6  7  1  0  0  0  0
  7  8  1  0  0  0  0
  8  1  2  0  0  0  0
  8  9  1  0  0  0  0
  9 10  2  0  0  0  0
 10 11  1  0  0  0  0
 11 12  2  0  0  0  0
 12  1  1  0  0  0  0
  2 13  1  0  0  0  0
 13 14  2  0  0  0  0
 14 15  1  0  0  0  0
 15 16  2  0  0  0  0
 16  3  1  0  0  0  0
 11 17  1  0  0  0  0
 17 18  1  0  0  0  0
 19 20  1  0  0  0  0
 20 12  1  0  0  0  0
 13 21  1  0  0  0  0
 21 22  1  0  0  0  0
 23 24  1  0  0  0  0
 24 14  1  0  0  0  0
 25 26  1  0  0  0  0
 26 15  1  0  0  0  0
 10 27  1  0  0  0  0
  6 28  1  6  0  0  0
  5 29  1  6  0  0  0
  4 30  1  1  0  0  0
M  END
>  <cdx:fragmentId>
5

$$$$
