92490.cdx
  Mrv1902 05222410222D          

 20 20  0  0  0  0            999 V2000
    4.4668   -5.9813    0.0000 C   0  0  0  0  0  0  0  0  0  0  0  0
    4.4668   -6.8062    0.0000 C   0  0  0  0  0  0  0  0  0  0  0  0
    5.1813   -7.2188    0.0000 C   0  0  0  0  0  0  0  0  0  0  0  0
    5.8957   -6.8062    0.0000 C   0  0  0  0  0  0  0  0  0  0  0  0
    5.8957   -5.9813    0.0000 C   0  0  2  0  0  0  0  0  0  0  0  0
    5.1813   -5.5687    0.0000 C   0  0  2  0  0  0  0  0  0  0  0  0
    6.6102   -7.2188    0.0000 C   0  0  0  0  0  0  0  0  0  0  0  0
    7.3247   -6.8062    0.0000 C   0  0  0  0  0  0  0  0  0  0  0  0
    7.3247   -5.9813    0.0000 C   0  0  0  0  0  0  0  0  0  0  0  0
    6.6102   -5.5687    0.0000 C   0  0  0  0  0  0  0  0  0  0  0  0
    4.4668   -8.4563    0.0000 C   0  0  0  0  0  0  0  0  0  0  0  0
    5.1813   -8.0437    0.0000 C   0  0  0  0  0  0  0  0  0  0  0  0
    5.8957   -8.4563    0.0000 C   0  0  0  0  0  0  0  0  0  0  0  0
    4.7688   -4.8543    0.0000 C   0  0  0  0  0  0  0  0  0  0  0  0
    3.7523   -5.5687    0.0000 O   0  0  0  0  0  0  0  0  0  0  0  0
    5.1813   -8.8688    0.0000 O   0  0  0  0  0  0  0  0  0  0  0  0
    6.6102   -4.7438    0.0000 O   0  0  0  0  0  0  0  0  0  0  0  0
    8.0392   -7.2188    0.0000 C   0  0  0  0  0  0  0  0  0  0  0  0
    5.5938   -4.8543    0.0000 H   0  0  0  0  0  0  0  0  0  0  0  0
    5.1813   -6.3937    0.0000 H   0  0  0  0  0  0  0  0  0  0  0  0
  1  2  1  0  0  0  0
  2  3  2  0  0  0  0
  4  5  1  0  0  0  0
  5  6  1  0  0  0  0
  6  1  1  0  0  0  0
  4  7  1  0  0  0  0
  7  8  1  0  0  0  0
  8  9  2  0  0  0  0
  9 10  1  0  0  0  0
 10  5  1  0  0  0  0
 11 12  1  0  0  0  0
 12  3  1  0  0  0  0
 13 12  1  0  0  0  0
  6 14  1  0  0  0  0
  1 15  2  0  0  0  0
 12 16  1  0  0  0  0
 10 17  2  0  0  0  0
  8 18  1  0  0  0  0
  6 19  1  6  0  0  0
  5 20  1  1  0  0  0
M  END
>  <cdx:fragmentId>
5

$$$$
