92497.cdx
  Mrv1902 05222410212D          

 46 53  0  0  0  0            999 V2000
    4.5906   -3.8638    0.0000 C   0  0  0  0  0  0  0  0  0  0  0  0
    4.5906   -4.6888    0.0000 C   0  0  0  0  0  0  0  0  0  0  0  0
    5.3050   -5.1013    0.0000 C   0  0  0  0  0  0  0  0  0  0  0  0
    6.0195   -4.6888    0.0000 C   0  0  0  0  0  0  0  0  0  0  0  0
    6.0195   -3.8638    0.0000 C   0  0  0  0  0  0  0  0  0  0  0  0
    5.3050   -3.4513    0.0000 C   0  0  0  0  0  0  0  0  0  0  0  0
    6.7340   -5.1013    0.0000 C   0  0  0  0  0  0  0  0  0  0  0  0
    7.4484   -4.6888    0.0000 C   0  0  0  0  0  0  0  0  0  0  0  0
    7.4484   -3.8638    0.0000 C   0  0  0  0  0  0  0  0  0  0  0  0
    6.7340   -3.4513    0.0000 O   0  0  0  0  0  0  0  0  0  0  0  0
    6.7340   -5.9262    0.0000 O   0  0  0  0  0  0  0  0  0  0  0  0
    8.1629   -5.9262    0.0000 C   0  0  0  0  0  0  0  0  0  0  0  0
    8.1629   -5.1013    0.0000 C   0  0  0  0  0  0  0  0  0  0  0  0
    8.8774   -6.3388    0.0000 C   0  0  0  0  0  0  0  0  0  0  0  0
    9.5919   -5.9262    0.0000 C   0  0  0  0  0  0  0  0  0  0  0  0
    9.5919   -5.1013    0.0000 C   0  0  0  0  0  0  0  0  0  0  0  0
    8.8774   -4.6888    0.0000 C   0  0  0  0  0  0  0  0  0  0  0  0
    8.8774   -7.1638    0.0000 C   0  0  0  0  0  0  0  0  0  0  0  0
    9.5919   -7.5762    0.0000 C   0  0  0  0  0  0  0  0  0  0  0  0
   10.3063   -7.1638    0.0000 O   0  0  0  0  0  0  0  0  0  0  0  0
   10.3063   -6.3388    0.0000 O   0  0  0  0  0  0  0  0  0  0  0  0
    8.1629   -7.5762    0.0000 C   0  0  0  0  0  0  0  0  0  0  0  0
    8.1629   -8.4012    0.0000 C   0  0  0  0  0  0  0  0  0  0  0  0
    8.8774   -8.8137    0.0000 C   0  0  0  0  0  0  0  0  0  0  0  0
    9.5919   -8.4012    0.0000 C   0  0  0  0  0  0  0  0  0  0  0  0
    6.7340   -7.5762    0.0000 O   0  0  0  0  0  0  0  0  0  0  0  0
    6.7340   -8.4012    0.0000 C   0  0  0  0  0  0  0  0  0  0  0  0
    7.4484   -8.8137    0.0000 C   0  0  0  0  0  0  0  0  0  0  0  0
    6.0195   -8.8137    0.0000 C   0  0  0  0  0  0  0  0  0  0  0  0
    6.0195   -9.6387    0.0000 C   0  0  0  0  0  0  0  0  0  0  0  0
    6.7340  -10.0512    0.0000 O   0  0  0  0  0  0  0  0  0  0  0  0
    7.4484   -9.6387    0.0000 C   0  0  0  0  0  0  0  0  0  0  0  0
    5.3050   -8.4012    0.0000 C   0  0  0  0  0  0  0  0  0  0  0  0
    4.5906   -8.8137    0.0000 C   0  0  0  0  0  0  0  0  0  0  0  0
    4.5906   -9.6387    0.0000 C   0  0  0  0  0  0  0  0  0  0  0  0
    5.3050  -10.0512    0.0000 C   0  0  0  0  0  0  0  0  0  0  0  0
    3.8761   -3.4513    0.0000 O   0  0  0  0  0  0  0  0  0  0  0  0
    3.1616   -3.8638    0.0000 C   0  0  0  0  0  0  0  0  0  0  0  0
    3.8761  -10.0512    0.0000 O   0  0  0  0  0  0  0  0  0  0  0  0
    5.3050   -5.9262    0.0000 O   0  0  0  0  0  0  0  0  0  0  0  0
    8.8774   -3.8638    0.0000 O   0  0  0  0  0  0  0  0  0  0  0  0
   11.0208   -5.9262    0.0000 C   0  0  0  0  0  0  0  0  0  0  0  0
   11.0208   -7.5762    0.0000 C   0  0  0  0  0  0  0  0  0  0  0  0
    5.3050   -7.5762    0.0000 O   0  0  0  0  0  0  0  0  0  0  0  0
    3.1616   -9.6387    0.0000 C   0  0  0  0  0  0  0  0  0  0  0  0
   10.3063   -8.8137    0.0000 O   0  0  0  0  0  0  0  0  0  0  0  0
  1  2  2  0  0  0  0
  2  3  1  0  0  0  0
  3  4  2  0  0  0  0
  4  5  1  0  0  0  0
  5  6  2  0  0  0  0
  6  1  1  0  0  0  0
  4  7  1  0  0  0  0
  7  8  2  0  0  0  0
  8  9  1  0  0  0  0
  9 10  1  0  0  0  0
 10  5  1  0  0  0  0
  7 11  1  0  0  0  0
 12 13  2  0  0  0  0
 13  8  1  0  0  0  0
 12 14  1  0  0  0  0
 14 15  2  0  0  0  0
 15 16  1  0  0  0  0
 16 17  2  0  0  0  0
 17 13  1  0  0  0  0
 14 18  1  0  0  0  0
 18 19  2  0  0  0  0
 19 20  1  0  0  0  0
 21 15  1  0  0  0  0
 18 22  1  0  0  0  0
 22 23  2  0  0  0  0
 23 24  1  0  0  0  0
 24 25  2  0  0  0  0
 25 19  1  0  0  0  0
 26 27  1  0  0  0  0
 27 28  2  0  0  0  0
 28 23  1  0  0  0  0
 27 29  1  0  0  0  0
 29 30  2  0  0  0  0
 30 31  1  0  0  0  0
 31 32  1  0  0  0  0
 32 28  1  0  0  0  0
 29 33  1  0  0  0  0
 33 34  2  0  0  0  0
 34 35  1  0  0  0  0
 35 36  2  0  0  0  0
 36 30  1  0  0  0  0
  1 37  1  0  0  0  0
 37 38  1  0  0  0  0
 39 35  1  0  0  0  0
  3 40  1  0  0  0  0
 11 12  1  0  0  0  0
 17 41  1  0  0  0  0
 21 42  1  0  0  0  0
 20 43  1  0  0  0  0
 26 22  1  0  0  0  0
 33 44  1  0  0  0  0
 39 45  1  0  0  0  0
 25 46  1  0  0  0  0
M  END
>  <cdx:fragmentId>
5

$$$$
