92495.cdx
  Mrv1902 05222410202D          

 26 28  0  0  0  0            999 V2000
    3.3943   -6.9025    0.0000 C   0  0  0  0  0  0  0  0  0  0  0  0
    3.3943   -7.7275    0.0000 C   0  0  0  0  0  0  0  0  0  0  0  0
    4.1088   -8.1400    0.0000 C   0  0  0  0  0  0  0  0  0  0  0  0
    4.8232   -7.7275    0.0000 C   0  0  0  0  0  0  0  0  0  0  0  0
    4.8232   -6.9025    0.0000 C   0  0  0  0  0  0  0  0  0  0  0  0
    4.1088   -6.4900    0.0000 C   0  0  0  0  0  0  0  0  0  0  0  0
    5.6079   -7.9824    0.0000 O   0  0  0  0  0  0  0  0  0  0  0  0
    6.0928   -7.3150    0.0000 C   0  0  0  0  0  0  0  0  0  0  0  0
    5.6079   -6.6476    0.0000 C   0  0  0  0  0  0  0  0  0  0  0  0
    2.6798   -8.1400    0.0000 O   0  0  0  0  0  0  0  0  0  0  0  0
    5.8628   -5.8629    0.0000 C   0  0  0  0  0  0  0  0  0  0  0  0
    6.9178   -7.3150    0.0000 C   0  0  0  0  0  0  0  0  0  0  0  0
    7.3303   -8.0295    0.0000 C   0  0  0  0  0  0  0  0  0  0  0  0
    8.1553   -8.0295    0.0000 C   0  0  0  0  0  0  0  0  0  0  0  0
    8.5678   -7.3150    0.0000 C   0  0  0  0  0  0  0  0  0  0  0  0
    8.1553   -6.6005    0.0000 C   0  0  0  0  0  0  0  0  0  0  0  0
    7.3303   -6.6005    0.0000 C   0  0  0  0  0  0  0  0  0  0  0  0
    6.9178   -5.8861    0.0000 O   0  0  0  0  0  0  0  0  0  0  0  0
    9.3928   -7.3150    0.0000 O   0  0  0  0  0  0  0  0  0  0  0  0
    6.9178   -8.7439    0.0000 O   0  0  0  0  0  0  0  0  0  0  0  0
    7.3303   -9.4584    0.0000 C   0  0  0  0  0  0  0  0  0  0  0  0
    8.5678   -8.7439    0.0000 C   0  0  0  0  0  0  0  0  0  0  0  0
    9.3928   -8.7439    0.0000 C   0  0  0  0  0  0  0  0  0  0  0  0
    9.8053   -9.4584    0.0000 C   0  0  0  0  0  0  0  0  0  0  0  0
   10.6303   -9.4584    0.0000 C   0  0  0  0  0  0  0  0  0  0  0  0
    9.3928  -10.1729    0.0000 C   0  0  0  0  0  0  0  0  0  0  0  0
  1  2  2  0  0  0  0
  2  3  1  0  0  0  0
  3  4  2  0  0  0  0
  4  5  1  0  0  0  0
  5  6  2  0  0  0  0
  6  1  1  0  0  0  0
  4  7  1  0  0  0  0
  7  8  1  0  0  0  0
  8  9  2  0  0  0  0
  9  5  1  0  0  0  0
  2 10  1  0  0  0  0
  9 11  1  0  0  0  0
  8 12  1  0  0  0  0
 12 13  2  0  0  0  0
 13 14  1  0  0  0  0
 14 15  2  0  0  0  0
 15 16  1  0  0  0  0
 16 17  2  0  0  0  0
 17 12  1  0  0  0  0
 17 18  1  0  0  0  0
 15 19  1  0  0  0  0
 13 20  1  0  0  0  0
 20 21  1  0  0  0  0
 14 22  1  0  0  0  0
 22 23  1  0  0  0  0
 23 24  2  0  0  0  0
 24 25  1  0  0  0  0
 24 26  1  0  0  0  0
M  END
>  <cdx:fragmentId>
5

$$$$
