92494.cdx
  Mrv1902 05222410212D          

 24 24  0  0  0  0            999 V2000
    5.0718   -9.0051    0.0000 C   0  0  2  0  0  0  0  0  0  0  0  0
    5.0718   -9.8301    0.0000 C   0  0  2  0  0  0  0  0  0  0  0  0
    5.7863  -10.2426    0.0000 C   0  0  1  0  0  0  0  0  0  0  0  0
    6.5007   -9.8301    0.0000 C   0  0  2  0  0  0  0  0  0  0  0  0
    6.5007   -9.0051    0.0000 C   0  0  1  0  0  0  0  0  0  0  0  0
    5.7863   -8.5926    0.0000 O   0  0  0  0  0  0  0  0  0  0  0  0
    3.6429   -9.0051    0.0000 O   0  0  0  0  0  0  0  0  0  0  0  0
    4.3573   -8.5926    0.0000 C   0  0  0  0  0  0  0  0  0  0  0  0
    7.2152   -8.5926    0.0000 S   0  0  0  0  0  0  0  0  0  0  0  0
    7.2152   -7.7676    0.0000 C   0  0  0  0  0  0  0  0  0  0  0  0
    6.5007   -7.3551    0.0000 C   0  0  0  0  0  0  0  0  0  0  0  0
    8.6442   -7.7676    0.0000 O   0  0  0  0  0  0  0  0  0  0  0  0
    7.9297   -7.3551    0.0000 N   0  0  0  0  0  0  0  0  0  0  0  0
    6.5007   -6.5301    0.0000 C   0  0  0  0  0  0  0  0  0  0  0  0
    5.7863   -5.2926    0.0000 S   0  0  0  0  0  0  0  0  0  0  0  0
    5.7863   -6.1176    0.0000 C   0  0  0  0  0  0  0  0  0  0  0  0
    5.0718   -4.8801    0.0000 C   0  0  0  0  0  0  0  0  0  0  0  0
    9.3586   -7.3551    0.0000 S   0  0  0  0  0  0  0  0  0  0  0  0
   10.0731   -6.9426    0.0000 O   0  0  0  0  0  0  0  0  0  0  0  0
    8.9461   -6.6407    0.0000 O   0  0  0  0  0  0  0  0  0  0  0  0
    9.7711   -8.0696    0.0000 O   0  0  0  0  0  0  0  0  0  0  0  0
    5.7863  -11.0676    0.0000 O   0  0  0  0  0  0  0  0  0  0  0  0
    4.3573  -10.2426    0.0000 O   0  0  0  0  0  0  0  0  0  0  0  0
    7.2152  -10.2426    0.0000 O   0  0  0  0  0  0  0  0  0  0  0  0
  1  2  1  0  0  0  0
  2  3  1  0  0  0  0
  3  4  1  0  0  0  0
  4  5  1  0  0  0  0
  5  6  1  0  0  0  0
  6  1  1  0  0  0  0
  7  8  1  0  0  0  0
  1  8  1  1  0  0  0
  5  9  1  1  0  0  0
  9 10  1  0  0  0  0
 10 11  1  0  0  0  0
 12 13  1  0  0  0  0
 13 10  2  0  0  0  0
 14 11  1  0  0  0  0
 15 16  1  0  0  0  0
 16 14  1  0  0  0  0
 17 15  1  0  0  0  0
 12 18  1  0  0  0  0
 18 19  1  0  0  0  0
 18 20  2  0  0  0  0
 18 21  2  0  0  0  0
  3 22  1  1  0  0  0
  2 23  1  6  0  0  0
  4 24  1  6  0  0  0
M  END
>  <cdx:fragmentId>
5

$$$$
