92506.cdx
  Mrv1902 05222410252D          

 19 20  0  0  0  0            999 V2000
    5.5729   -6.6555    0.0000 C   0  0  0  0  0  0  0  0  0  0  0  0
    6.3979   -8.0845    0.0000 C   0  0  0  0  0  0  0  0  0  0  0  0
    5.2709   -7.7825    0.0000 O   0  0  0  0  0  0  0  0  0  0  0  0
    5.9854   -7.3700    0.0000 C   0  0  0  0  0  0  0  0  0  0  0  0
    8.1288   -7.7825    0.0000 H   0  0  0  0  0  0  0  0  0  0  0  0
    9.2558   -8.0845    0.0000 O   0  0  0  0  0  0  0  0  0  0  0  0
    8.4308   -8.0845    0.0000 C   0  0  0  0  0  0  0  0  0  0  0  0
    8.1288   -5.3075    0.0000 C   0  0  0  0  0  0  0  0  0  0  0  0
    7.4143   -5.7200    0.0000 C   0  0  0  0  0  0  0  0  0  0  0  0
    6.6999   -6.1325    0.0000 C   0  0  0  0  0  0  0  0  0  0  0  0
    6.6999   -6.9575    0.0000 C   0  0  2  0  0  0  0  0  0  0  0  0
    7.4143   -7.3700    0.0000 C   0  0  0  0  0  0  0  0  0  0  0  0
    8.8433   -5.7200    0.0000 C   0  0  0  0  0  0  0  0  0  0  0  0
    8.1288   -6.1325    0.0000 C   0  0  1  0  0  0  0  0  0  0  0  0
    8.1288   -6.9575    0.0000 C   0  0  1  0  0  0  0  0  0  0  0  0
    8.8433   -7.3700    0.0000 C   0  0  2  0  0  0  0  0  0  0  0  0
    9.5577   -6.9575    0.0000 C   0  0  0  0  0  0  0  0  0  0  0  0
    9.5577   -6.1325    0.0000 C   0  0  0  0  0  0  0  0  0  0  0  0
    6.6999   -7.7825    0.0000 H   0  0  0  0  0  0  0  0  0  0  0  0
  4  1  1  0  0  0  0
  4  2  1  0  0  0  0
  4  3  1  0  0  0  0
 11  4  1  0  0  0  0
 15  5  1  6  0  0  0
 16  6  1  6  0  0  0
 16  7  1  0  0  0  0
 14  8  1  1  0  0  0
  9 14  1  0  0  0  0
 10  9  1  0  0  0  0
 11 10  1  0  0  0  0
 12 11  1  0  0  0  0
 15 12  1  0  0  0  0
 13 18  1  0  0  0  0
 14 13  1  0  0  0  0
 15 14  1  0  0  0  0
 16 15  1  0  0  0  0
 17 16  1  0  0  0  0
 18 17  1  0  0  0  0
 11 19  1  1  0  0  0
M  END
>  <cdx:fragmentId>
5

$$$$
