9250.cdx
  Mrv1902 05222410212D          

 70 73  0  0  0  0            999 V2000
    6.8434   -4.8389    0.0000 C   0  0  0  0  0  0  0  0  0  0  0  0
    6.8434   -4.0139    0.0000 C   0  0  2  0  0  0  0  0  0  0  0  0
    7.5579   -5.2514    0.0000 C   0  0  2  0  0  0  0  0  0  0  0  0
    8.2724   -4.8389    0.0000 C   0  0  2  0  0  0  0  0  0  0  0  0
    8.2724   -4.0139    0.0000 C   0  0  1  0  0  0  0  0  0  0  0  0
    7.5579   -3.6014    0.0000 C   0  0  0  0  0  0  0  0  0  0  0  0
    8.2724   -6.4889    0.0000 O   0  0  0  0  0  0  0  0  0  0  0  0
    8.9869   -6.0764    0.0000 C   0  0  0  0  0  0  0  0  0  0  0  0
    8.9869   -5.2514    0.0000 O   0  0  0  0  0  0  0  0  0  0  0  0
    9.7013   -6.4889    0.0000 C   0  0  0  0  0  0  0  0  0  0  0  0
   10.4158   -6.0764    0.0000 C   0  0  0  0  0  0  0  0  0  0  0  0
    9.7013   -7.3139    0.0000 C   0  0  0  0  0  0  0  0  0  0  0  0
   10.4158   -7.7264    0.0000 C   0  0  0  0  0  0  0  0  0  0  0  0
   10.4158   -8.5514    0.0000 C   0  0  0  0  0  0  0  0  0  0  0  0
   11.1303   -8.9639    0.0000 C   0  0  0  0  0  0  0  0  0  0  0  0
   11.1303   -9.7889    0.0000 C   0  0  0  0  0  0  0  0  0  0  0  0
   11.8447   -8.5514    0.0000 C   0  0  0  0  0  0  0  0  0  0  0  0
   10.4158  -10.2014    0.0000 C   0  0  0  0  0  0  0  0  0  0  0  0
   10.4158  -11.0264    0.0000 C   0  0  0  0  0  0  0  0  0  0  0  0
    9.7013  -11.4389    0.0000 C   0  0  0  0  0  0  0  0  0  0  0  0
    9.7013  -12.2639    0.0000 C   0  0  0  0  0  0  0  0  0  0  0  0
    8.9869  -12.6764    0.0000 C   0  0  0  0  0  0  0  0  0  0  0  0
   10.4158  -12.6764    0.0000 C   0  0  0  0  0  0  0  0  0  0  0  0
    8.9869  -13.5014    0.0000 C   0  0  0  0  0  0  0  0  0  0  0  0
    7.5574  -15.1651    0.0000 C   0  0  0  0  0  0  0  0  0  0  0  0
    7.5574  -15.9901    0.0000 O   0  0  0  0  0  0  0  0  0  0  0  0
    6.8429  -14.7526    0.0000 O   0  0  0  0  0  0  0  0  0  0  0  0
    6.8429  -16.4026    0.0000 C   0  0  2  0  0  0  0  0  0  0  0  0
    6.1284  -15.9901    0.0000 O   0  0  0  0  0  0  0  0  0  0  0  0
    5.4140  -16.4026    0.0000 C   0  0  1  0  0  0  0  0  0  0  0  0
    5.4140  -17.2276    0.0000 C   0  0  2  0  0  0  0  0  0  0  0  0
    6.1284  -17.6401    0.0000 C   0  0  1  0  0  0  0  0  0  0  0  0
    6.8429  -17.2276    0.0000 C   0  0  1  0  0  0  0  0  0  0  0  0
    4.6995  -15.9901    0.0000 C   0  0  0  0  0  0  0  0  0  0  0  0
    3.9850  -16.4026    0.0000 O   0  0  0  0  0  0  0  0  0  0  0  0
    4.6995  -17.6401    0.0000 O   0  0  0  0  0  0  0  0  0  0  0  0
    3.9850  -14.7526    0.0000 O   0  0  0  0  0  0  0  0  0  0  0  0
    3.2706  -15.1651    0.0000 C   0  0  1  0  0  0  0  0  0  0  0  0
    3.2706  -15.9901    0.0000 C   0  0  1  0  0  0  0  0  0  0  0  0
    2.5561  -14.7526    0.0000 C   0  0  2  0  0  0  0  0  0  0  0  0
    1.8416  -15.1651    0.0000 C   0  0  1  0  0  0  0  0  0  0  0  0
    1.8416  -15.9901    0.0000 C   0  0  2  0  0  0  0  0  0  0  0  0
    2.5561  -16.4026    0.0000 O   0  0  0  0  0  0  0  0  0  0  0  0
    8.2724  -13.9139    0.0000 C   0  0  0  0  0  0  0  0  0  0  0  0
    8.2724  -14.7389    0.0000 C   0  0  0  0  0  0  0  0  0  0  0  0
    8.9869  -15.1514    0.0000 C   0  0  0  0  0  0  0  0  0  0  0  0
    8.9869   -3.6014    0.0000 O   0  0  0  0  0  0  0  0  0  0  0  0
    6.1284  -18.4651    0.0000 O   0  0  0  0  0  0  0  0  0  0  0  0
    1.1271  -14.7526    0.0000 O   0  0  0  0  0  0  0  0  0  0  0  0
    1.1271  -16.4026    0.0000 C   0  0  0  0  0  0  0  0  0  0  0  0
    7.5574  -17.6401    0.0000 O   0  0  0  0  0  0  0  0  0  0  0  0
    0.4127  -15.9901    0.0000 O   0  0  0  0  0  0  0  0  0  0  0  0
    2.5561  -13.9276    0.0000 O   0  0  0  0  0  0  0  0  0  0  0  0
    7.5579   -6.0764    0.0000 O   0  0  0  0  0  0  0  0  0  0  0  0
    9.7013   -4.0139    0.0000 C   0  0  0  0  0  0  0  0  0  0  0  0
   10.4158   -3.6014    0.0000 C   0  0  0  0  0  0  0  0  0  0  0  0
    9.7013   -4.8389    0.0000 O   0  0  0  0  0  0  0  0  0  0  0  0
   11.1303   -4.0139    0.0000 C   0  0  0  0  0  0  0  0  0  0  0  0
   11.8447   -3.6014    0.0000 C   0  0  0  0  0  0  0  0  0  0  0  0
   12.5592   -4.0139    0.0000 C   0  0  0  0  0  0  0  0  0  0  0  0
   13.2737   -3.6014    0.0000 C   0  0  0  0  0  0  0  0  0  0  0  0
   13.2737   -2.7764    0.0000 C   0  0  0  0  0  0  0  0  0  0  0  0
   12.5592   -2.3639    0.0000 C   0  0  0  0  0  0  0  0  0  0  0  0
   11.8447   -2.7764    0.0000 C   0  0  0  0  0  0  0  0  0  0  0  0
   13.9881   -2.3639    0.0000 O   0  0  0  0  0  0  0  0  0  0  0  0
   13.9881   -4.0139    0.0000 O   0  0  0  0  0  0  0  0  0  0  0  0
    6.1290   -3.6014    0.0000 C   0  0  0  0  0  0  0  0  0  0  0  0
    5.4145   -4.0139    0.0000 O   0  0  0  0  0  0  0  0  0  0  0  0
    6.1290   -2.7764    0.0000 O   0  0  0  0  0  0  0  0  0  0  0  0
    6.8434   -3.1889    0.0000 O   0  0  0  0  0  0  0  0  0  0  0  0
  1  2  1  0  0  0  0
  1  3  1  0  0  0  0
  3  4  1  0  0  0  0
  4  5  1  0  0  0  0
  5  6  1  0  0  0  0
  6  2  1  0  0  0  0
  7  8  2  0  0  0  0
  8  9  1  0  0  0  0
  4  9  1  6  0  0  0
  8 10  1  0  0  0  0
 10 11  1  0  0  0  0
 10 12  2  0  0  0  0
 12 13  1  0  0  0  0
 13 14  2  0  0  0  0
 14 15  1  0  0  0  0
 15 16  2  0  0  0  0
 15 17  1  0  0  0  0
 16 18  1  0  0  0  0
 18 19  2  0  0  0  0
 19 20  1  0  0  0  0
 20 21  2  0  0  0  0
 21 22  1  0  0  0  0
 21 23  1  0  0  0  0
 22 24  2  0  0  0  0
 25 26  1  0  0  0  0
 25 27  2  0  0  0  0
 28 26  1  1  0  0  0
 28 29  1  0  0  0  0
 29 30  1  0  0  0  0
 30 31  1  0  0  0  0
 31 32  1  0  0  0  0
 32 33  1  0  0  0  0
 33 28  1  0  0  0  0
 30 34  1  1  0  0  0
 34 35  1  0  0  0  0
 31 36  1  6  0  0  0
 38 37  1  1  0  0  0
 38 39  1  0  0  0  0
 39 35  1  6  0  0  0
 38 40  1  0  0  0  0
 40 41  1  0  0  0  0
 41 42  1  0  0  0  0
 42 43  1  0  0  0  0
 43 39  1  0  0  0  0
 24 44  1  0  0  0  0
 44 45  2  0  0  0  0
 45 46  1  0  0  0  0
 45 25  1  0  0  0  0
  5 47  1  1  0  0  0
 32 48  1  1  0  0  0
 41 49  1  1  0  0  0
 42 50  1  6  0  0  0
 33 51  1  6  0  0  0
 50 52  1  0  0  0  0
 40 53  1  6  0  0  0
  3 54  1  6  0  0  0
 47 55  1  0  0  0  0
 55 56  1  0  0  0  0
 55 57  2  0  0  0  0
 56 58  1  0  0  0  0
 58 59  1  0  0  0  0
 59 60  2  0  0  0  0
 60 61  1  0  0  0  0
 61 62  2  0  0  0  0
 62 63  1  0  0  0  0
 63 64  2  0  0  0  0
 64 59  1  0  0  0  0
 62 65  1  0  0  0  0
 61 66  1  0  0  0  0
  2 67  1  0  0  0  0
 67 68  1  0  0  0  0
 67 69  2  0  0  0  0
  2 70  1  6  0  0  0
M  END
>  <cdx:fragmentId>
5

$$$$
