92505.cdx
  Mrv1902 05222410252D          

 32 34  0  0  0  0            999 V2000
    2.4731   -8.2283    0.0000 C   0  0  1  0  0  0  0  0  0  0  0  0
    2.4731   -9.0533    0.0000 C   0  0  1  0  0  0  0  0  0  0  0  0
    3.1875   -9.4658    0.0000 C   0  0  2  0  0  0  0  0  0  0  0  0
    3.9020   -9.0533    0.0000 O   0  0  0  0  0  0  0  0  0  0  0  0
    3.9020   -8.2283    0.0000 C   0  0  2  0  0  0  0  0  0  0  0  0
    3.1875   -7.8158    0.0000 C   0  0  2  0  0  0  0  0  0  0  0  0
    1.7586   -9.4658    0.0000 O   0  0  0  0  0  0  0  0  0  0  0  0
    2.4731  -10.7033    0.0000 O   0  0  0  0  0  0  0  0  0  0  0  0
    3.1875  -10.2908    0.0000 C   0  0  0  0  0  0  0  0  0  0  0  0
    4.6165   -9.4658    0.0000 O   0  0  0  0  0  0  0  0  0  0  0  0
    5.3309   -9.0533    0.0000 C   0  0  0  0  0  0  0  0  0  0  0  0
    5.3309   -8.2283    0.0000 C   0  0  0  0  0  0  0  0  0  0  0  0
    4.6165   -7.8158    0.0000 O   0  0  0  0  0  0  0  0  0  0  0  0
    6.0454   -9.4658    0.0000 C   0  0  0  0  0  0  0  0  0  0  0  0
    6.7599   -9.0533    0.0000 C   0  0  0  0  0  0  0  0  0  0  0  0
    6.7599   -8.2283    0.0000 C   0  0  0  0  0  0  0  0  0  0  0  0
    6.0454   -7.8158    0.0000 C   0  0  0  0  0  0  0  0  0  0  0  0
    7.4744   -9.4658    0.0000 C   0  0  0  0  0  0  0  0  0  0  0  0
    8.1888   -9.0533    0.0000 C   0  0  0  0  0  0  0  0  0  0  0  0
    8.9033   -9.4658    0.0000 C   0  0  0  0  0  0  0  0  0  0  0  0
    9.6178   -9.0533    0.0000 C   0  0  0  0  0  0  0  0  0  0  0  0
    9.6178   -8.2283    0.0000 C   0  0  0  0  0  0  0  0  0  0  0  0
   10.3322   -9.4658    0.0000 C   0  0  0  0  0  0  0  0  0  0  0  0
   11.0467   -9.0533    0.0000 C   0  0  0  0  0  0  0  0  0  0  0  0
   11.0467   -8.2283    0.0000 C   0  0  0  0  0  0  0  0  0  0  0  0
   10.3322   -7.8158    0.0000 C   0  0  0  0  0  0  0  0  0  0  0  0
    6.0454  -10.2908    0.0000 O   0  0  0  0  0  0  0  0  0  0  0  0
    7.4744  -10.2908    0.0000 O   0  0  0  0  0  0  0  0  0  0  0  0
    6.0454   -6.9908    0.0000 O   0  0  0  0  0  0  0  0  0  0  0  0
   11.7612   -7.8158    0.0000 O   0  0  0  0  0  0  0  0  0  0  0  0
    3.1875   -6.9908    0.0000 O   0  0  0  0  0  0  0  0  0  0  0  0
    1.7586   -7.8158    0.0000 O   0  0  0  0  0  0  0  0  0  0  0  0
  1  2  1  0  0  0  0
  2  3  1  0  0  0  0
  3  4  1  0  0  0  0
  4  5  1  0  0  0  0
  5  6  1  0  0  0  0
  6  1  1  0  0  0  0
  2  7  1  1  0  0  0
  8  9  1  0  0  0  0
  3  9  1  6  0  0  0
 10 11  1  0  0  0  0
 11 12  1  0  0  0  0
 12 13  1  0  0  0  0
  5 13  1  6  0  0  0
 11 14  2  0  0  0  0
 14 15  1  0  0  0  0
 15 16  2  0  0  0  0
 16 17  1  0  0  0  0
 17 12  2  0  0  0  0
 15 18  1  0  0  0  0
 18 19  1  0  0  0  0
 19 20  2  0  0  0  0
 20 21  1  0  0  0  0
 21 22  1  0  0  0  0
 21 23  2  0  0  0  0
 23 24  1  0  0  0  0
 24 25  2  0  0  0  0
 25 26  1  0  0  0  0
 26 22  2  0  0  0  0
 14 27  1  0  0  0  0
 28 18  2  0  0  0  0
 17 29  1  0  0  0  0
 25 30  1  0  0  0  0
  6 31  1  1  0  0  0
  1 32  1  6  0  0  0
M  END
>  <cdx:fragmentId>
5

$$$$
