92500.cdx
  Mrv1902 05222410242D          

 39 42  0  0  0  0            999 V2000
    4.5768   -9.1987    0.0000 O   0  0  0  0  0  0  0  0  0  0  0  0
    5.2913  -10.4363    0.0000 O   0  0  0  0  0  0  0  0  0  0  0  0
    6.0057  -10.0238    0.0000 C   0  0  2  0  0  0  0  0  0  0  0  0
    6.0057   -9.1987    0.0000 C   0  0  1  0  0  0  0  0  0  0  0  0
    5.2913   -8.7862    0.0000 C   0  0  0  0  0  0  0  0  0  0  0  0
    6.7202  -10.4363    0.0000 C   0  0  1  0  0  0  0  0  0  0  0  0
    7.4347  -10.0238    0.0000 C   0  0  2  0  0  0  0  0  0  0  0  0
    7.4347   -9.1987    0.0000 C   0  0  1  0  0  0  0  0  0  0  0  0
    6.7202   -8.7862    0.0000 O   0  0  0  0  0  0  0  0  0  0  0  0
    8.1492   -8.7862    0.0000 O   0  0  0  0  0  0  0  0  0  0  0  0
    8.1492   -7.9612    0.0000 C   0  0  0  0  0  0  0  0  0  0  0  0
    7.4347   -7.5488    0.0000 C   0  0  0  0  0  0  0  0  0  0  0  0
    6.7202   -7.9612    0.0000 O   0  0  0  0  0  0  0  0  0  0  0  0
    8.8636   -7.5488    0.0000 C   0  0  0  0  0  0  0  0  0  0  0  0
    8.8636   -6.7237    0.0000 C   0  0  0  0  0  0  0  0  0  0  0  0
    8.1492   -6.3113    0.0000 C   0  0  0  0  0  0  0  0  0  0  0  0
    7.4347   -6.7237    0.0000 C   0  0  0  0  0  0  0  0  0  0  0  0
    9.5781   -6.3113    0.0000 O   0  0  0  0  0  0  0  0  0  0  0  0
    9.5781   -5.4863    0.0000 C   0  0  0  0  0  0  0  0  0  0  0  0
    8.8636   -5.0737    0.0000 C   0  0  0  0  0  0  0  0  0  0  0  0
    8.1492   -5.4863    0.0000 C   0  0  0  0  0  0  0  0  0  0  0  0
   11.0070   -5.4863    0.0000 C   0  0  0  0  0  0  0  0  0  0  0  0
   10.2926   -5.0737    0.0000 C   0  0  0  0  0  0  0  0  0  0  0  0
   11.7215   -5.0737    0.0000 C   0  0  0  0  0  0  0  0  0  0  0  0
   11.7215   -4.2488    0.0000 C   0  0  0  0  0  0  0  0  0  0  0  0
   11.0070   -3.8363    0.0000 C   0  0  0  0  0  0  0  0  0  0  0  0
   10.2926   -4.2488    0.0000 C   0  0  0  0  0  0  0  0  0  0  0  0
    7.4347   -5.0737    0.0000 O   0  0  0  0  0  0  0  0  0  0  0  0
    6.7202   -6.3113    0.0000 O   0  0  0  0  0  0  0  0  0  0  0  0
    6.0057   -7.5488    0.0000 C   0  0  0  0  0  0  0  0  0  0  0  0
   12.4360   -3.8363    0.0000 O   0  0  0  0  0  0  0  0  0  0  0  0
    6.7202  -11.2613    0.0000 O   0  0  0  0  0  0  0  0  0  0  0  0
    8.1492  -10.4363    0.0000 O   0  0  0  0  0  0  0  0  0  0  0  0
    3.8623   -8.7862    0.0000 C   0  0  0  0  0  0  0  0  0  0  0  0
    3.1479   -9.1987    0.0000 C   0  0  0  0  0  0  0  0  0  0  0  0
    3.8623   -7.9612    0.0000 O   0  0  0  0  0  0  0  0  0  0  0  0
    2.4334   -8.7862    0.0000 C   0  0  0  0  0  0  0  0  0  0  0  0
    1.7189   -9.1987    0.0000 O   0  0  0  0  0  0  0  0  0  0  0  0
    2.4334   -7.9612    0.0000 O   0  0  0  0  0  0  0  0  0  0  0  0
  3  2  1  6  0  0  0
  3  4  1  0  0  0  0
  4  5  1  1  0  0  0
  5  1  1  0  0  0  0
  3  6  1  0  0  0  0
  6  7  1  0  0  0  0
  7  8  1  0  0  0  0
  8  9  1  0  0  0  0
  9  4  1  0  0  0  0
  8 10  1  1  0  0  0
 10 11  1  0  0  0  0
 11 12  2  0  0  0  0
 12 13  1  0  0  0  0
 11 14  1  0  0  0  0
 14 15  2  0  0  0  0
 15 16  1  0  0  0  0
 16 17  2  0  0  0  0
 17 12  1  0  0  0  0
 15 18  1  0  0  0  0
 18 19  1  0  0  0  0
 19 20  2  0  0  0  0
 20 21  1  0  0  0  0
 21 16  1  0  0  0  0
 22 23  1  0  0  0  0
 23 19  1  0  0  0  0
 22 24  2  0  0  0  0
 24 25  1  0  0  0  0
 25 26  2  0  0  0  0
 26 27  1  0  0  0  0
 27 23  2  0  0  0  0
 21 28  2  0  0  0  0
 29 17  1  0  0  0  0
 30 13  1  0  0  0  0
 25 31  1  0  0  0  0
  6 32  1  1  0  0  0
  7 33  1  6  0  0  0
  1 34  1  0  0  0  0
 34 35  1  0  0  0  0
 34 36  2  0  0  0  0
 35 37  1  0  0  0  0
 37 38  1  0  0  0  0
 37 39  2  0  0  0  0
M  END
>  <cdx:fragmentId>
5

$$$$
