92509.cdx
  Mrv1902 05222410212D          

 21 20  0  0  0  0            999 V2000
    3.0638   -7.1362    0.0000 C   0  0  0  0  0  0  0  0  0  0  0  0
    3.7782   -6.7237    0.0000 C   0  0  0  0  0  0  0  0  0  0  0  0
    4.4927   -7.1362    0.0000 C   0  0  0  0  0  0  0  0  0  0  0  0
    5.2072   -6.7237    0.0000 C   0  0  0  0  0  0  0  0  0  0  0  0
    5.9217   -7.1362    0.0000 C   0  0  0  0  0  0  0  0  0  0  0  0
    6.6361   -6.7237    0.0000 C   0  0  0  0  0  0  0  0  0  0  0  0
    7.3506   -7.1362    0.0000 C   0  0  0  0  0  0  0  0  0  0  0  0
    8.0651   -6.7237    0.0000 C   0  0  0  0  0  0  0  0  0  0  0  0
    8.7795   -7.1362    0.0000 C   0  0  0  0  0  0  0  0  0  0  0  0
    9.4940   -6.7237    0.0000 C   0  0  0  0  0  0  0  0  0  0  0  0
   10.2085   -7.1362    0.0000 C   0  0  0  0  0  0  0  0  0  0  0  0
   10.9230   -6.7237    0.0000 C   0  0  0  0  0  0  0  0  0  0  0  0
   11.6374   -7.1362    0.0000 C   0  0  0  0  0  0  0  0  0  0  0  0
   12.3519   -6.7237    0.0000 C   0  0  0  0  0  0  0  0  0  0  0  0
   11.6374   -7.9612    0.0000 C   0  0  0  0  0  0  0  0  0  0  0  0
    8.7795   -7.9612    0.0000 C   0  0  0  0  0  0  0  0  0  0  0  0
    5.9217   -7.9612    0.0000 C   0  0  0  0  0  0  0  0  0  0  0  0
    2.3493   -7.5488    0.0000 O   0  0  0  0  0  0  0  0  0  0  0  0
    2.6513   -6.4218    0.0000 C   0  0  0  0  0  0  0  0  0  0  0  0
    3.4763   -7.8507    0.0000 C   0  0  0  0  0  0  0  0  0  0  0  0
    3.0638   -5.7073    0.0000 C   0  0  0  0  0  0  0  0  0  0  0  0
  1  2  1  0  0  0  0
  2  3  1  0  0  0  0
  3  4  1  0  0  0  0
  4  5  1  0  0  0  0
  5  6  1  0  0  0  0
  6  7  1  0  0  0  0
  7  8  1  0  0  0  0
  8  9  1  0  0  0  0
  9 10  1  0  0  0  0
 10 11  1  0  0  0  0
 11 12  1  0  0  0  0
 12 13  1  0  0  0  0
 13 14  1  0  0  0  0
 13 15  1  0  0  0  0
  9 16  1  0  0  0  0
  5 17  1  0  0  0  0
  1 18  1  0  0  0  0
  1 19  1  0  0  0  0
  1 20  1  0  0  0  0
 19 21  2  0  0  0  0
M  END
>  <cdx:fragmentId>
3

$$$$
