92504.cdx
  Mrv1902 05222410252D          

 45 49  0  0  0  0            999 V2000
    3.7931   -5.9262    0.0000 C   0  0  0  0  0  0  0  0  0  0  0  0
    3.7931   -6.7512    0.0000 C   0  0  0  0  0  0  0  0  0  0  0  0
    4.5075   -7.1638    0.0000 C   0  0  0  0  0  0  0  0  0  0  0  0
    5.2220   -6.7512    0.0000 C   0  0  0  0  0  0  0  0  0  0  0  0
    5.2220   -5.9262    0.0000 C   0  0  0  0  0  0  0  0  0  0  0  0
    4.5075   -5.5137    0.0000 C   0  0  0  0  0  0  0  0  0  0  0  0
    5.9365   -7.1638    0.0000 C   0  0  0  0  0  0  0  0  0  0  0  0
    6.6509   -6.7512    0.0000 C   0  0  0  0  0  0  0  0  0  0  0  0
    6.6509   -5.9262    0.0000 C   0  0  0  0  0  0  0  0  0  0  0  0
    5.9365   -5.5137    0.0000 O   0  0  0  0  0  0  0  0  0  0  0  0
    4.5075   -4.6888    0.0000 C   0  0  0  0  0  0  0  0  0  0  0  0
    3.7931   -4.2763    0.0000 C   0  0  0  0  0  0  0  0  0  0  0  0
    3.0786   -5.5137    0.0000 O   0  0  0  0  0  0  0  0  0  0  0  0
    4.5075   -7.9888    0.0000 O   0  0  0  0  0  0  0  0  0  0  0  0
    5.9365   -7.9888    0.0000 O   0  0  0  0  0  0  0  0  0  0  0  0
    8.7890   -7.9980    0.0000 O   0  0  0  0  0  0  0  0  0  0  0  0
    8.0799   -5.9262    0.0000 C   0  0  0  0  0  0  0  0  0  0  0  0
    7.3654   -5.5137    0.0000 C   0  0  0  0  0  0  0  0  0  0  0  0
    8.7944   -5.5137    0.0000 C   0  0  0  0  0  0  0  0  0  0  0  0
    8.7944   -4.6888    0.0000 C   0  0  0  0  0  0  0  0  0  0  0  0
    8.0799   -4.2763    0.0000 C   0  0  0  0  0  0  0  0  0  0  0  0
    7.3654   -4.6888    0.0000 C   0  0  0  0  0  0  0  0  0  0  0  0
    9.5028   -8.4117    0.0000 C   0  0  2  0  0  0  0  0  0  0  0  0
    9.5014   -9.2367    0.0000 O   0  0  0  0  0  0  0  0  0  0  0  0
   10.2151   -9.6504    0.0000 C   0  0  0  0  0  0  0  0  0  0  0  0
   10.9303   -9.2391    0.0000 C   0  0  2  0  0  0  0  0  0  0  0  0
   10.9317   -8.4141    0.0000 C   0  0  1  0  0  0  0  0  0  0  0  0
   10.2179   -8.0004    0.0000 C   0  0  1  0  0  0  0  0  0  0  0  0
    9.5088   -4.2763    0.0000 O   0  0  0  0  0  0  0  0  0  0  0  0
   11.6441   -9.6528    0.0000 O   0  0  0  0  0  0  0  0  0  0  0  0
   11.6469   -8.0028    0.0000 O   0  0  0  0  0  0  0  0  0  0  0  0
    8.7783   -9.6479    0.0000 O   0  0  0  0  0  0  0  0  0  0  0  0
    5.9205   -9.6295    0.0000 C   0  0  0  0  0  0  0  0  0  0  0  0
    7.3441  -10.4637    0.0000 O   0  0  0  0  0  0  0  0  0  0  0  0
    6.6429   -8.3966    0.0000 O   0  0  0  0  0  0  0  0  0  0  0  0
    6.6376   -9.2216    0.0000 C   0  0  2  0  0  0  0  0  0  0  0  0
    7.3494   -9.6387    0.0000 C   0  0  1  0  0  0  0  0  0  0  0  0
    8.0665   -9.2308    0.0000 C   0  0  2  0  0  0  0  0  0  0  0  0
    8.0719   -8.4058    0.0000 C   0  0  2  0  0  0  0  0  0  0  0  0
    7.3601   -7.9887    0.0000 C   0  0  2  0  0  0  0  0  0  0  0  0
    7.3654   -7.1638    0.0000 O   0  0  0  0  0  0  0  0  0  0  0  0
    3.7931   -3.4513    0.0000 C   0  0  0  0  0  0  0  0  0  0  0  0
    3.0786   -3.0387    0.0000 C   0  0  0  0  0  0  0  0  0  0  0  0
    4.5075   -3.0387    0.0000 C   0  0  0  0  0  0  0  0  0  0  0  0
   10.2193   -7.1754    0.0000 O   0  0  0  0  0  0  0  0  0  0  0  0
  1  2  2  0  0  0  0
  2  3  1  0  0  0  0
  3  4  2  0  0  0  0
  4  5  1  0  0  0  0
  5  6  2  0  0  0  0
  6  1  1  0  0  0  0
  4  7  1  0  0  0  0
  7  8  1  0  0  0  0
  8  9  2  0  0  0  0
  9 10  1  0  0  0  0
 10  5  1  0  0  0  0
  6 11  1  0  0  0  0
 11 12  1  0  0  0  0
 13  1  1  0  0  0  0
  3 14  1  0  0  0  0
 15  7  2  0  0  0  0
  8 41  1  0  0  0  0
 17 18  1  0  0  0  0
 18  9  1  0  0  0  0
 17 19  2  0  0  0  0
 19 20  1  0  0  0  0
 20 21  2  0  0  0  0
 21 22  1  0  0  0  0
 22 18  2  0  0  0  0
 23 16  1  1  0  0  0
 23 24  1  0  0  0  0
 24 25  1  0  0  0  0
 25 26  1  0  0  0  0
 26 27  1  0  0  0  0
 20 29  1  0  0  0  0
 27 28  1  0  0  0  0
 28 23  1  0  0  0  0
 26 30  1  6  0  0  0
 38 32  1  6  0  0  0
 39 16  1  6  0  0  0
 27 31  1  1  0  0  0
 36 33  1  6  0  0  0
 37 34  1  1  0  0  0
 35 40  1  0  0  0  0
 36 35  1  0  0  0  0
 37 36  1  0  0  0  0
 38 37  1  0  0  0  0
 39 38  1  0  0  0  0
 40 39  1  0  0  0  0
 40 41  1  1  0  0  0
 12 42  2  0  0  0  0
 42 43  1  0  0  0  0
 42 44  1  0  0  0  0
 28 45  1  6  0  0  0
M  END
>  <cdx:fragmentId>
5

$$$$
