92502.cdx
  Mrv1902 05222410232D          

 30 34  0  0  0  0            999 V2000
    4.6475   -5.9798    0.0000 C   0  0  0  0  0  0  0  0  0  0  0  0
    4.3859   -6.7623    0.0000 C   0  0  0  0  0  0  0  0  0  0  0  0
    4.9327   -7.3800    0.0000 C   0  0  0  0  0  0  0  0  0  0  0  0
    5.7411   -7.2153    0.0000 C   0  0  0  0  0  0  0  0  0  0  0  0
    6.0027   -6.4329    0.0000 C   0  0  0  0  0  0  0  0  0  0  0  0
    5.4558   -5.8152    0.0000 C   0  0  0  0  0  0  0  0  0  0  0  0
    4.1006   -5.3621    0.0000 O   0  0  0  0  0  0  0  0  0  0  0  0
    3.2922   -5.5268    0.0000 C   0  0  0  0  0  0  0  0  0  0  0  0
    5.7174   -5.0327    0.0000 O   0  0  0  0  0  0  0  0  0  0  0  0
    5.1706   -4.4150    0.0000 C   0  0  0  0  0  0  0  0  0  0  0  0
    6.4044   -7.7059    0.0000 C   0  0  2  0  0  0  0  0  0  0  0  0
    7.0759   -7.2266    0.0000 O   0  0  0  0  0  0  0  0  0  0  0  0
    6.8276   -6.4399    0.0000 C   0  0  0  0  0  0  0  0  0  0  0  0
    6.3974   -8.5309    0.0000 C   0  0  2  0  0  0  0  0  0  0  0  0
    5.6795   -8.9373    0.0000 N   0  0  0  0  0  0  0  0  0  0  0  0
    5.6725   -9.7623    0.0000 C   0  0  0  0  0  0  0  0  0  0  0  0
    6.3835  -10.1808    0.0000 C   0  0  0  0  0  0  0  0  0  0  0  0
    7.1014   -9.7744    0.0000 C   0  0  0  0  0  0  0  0  0  0  0  0
    7.1084   -8.9494    0.0000 C   0  0  0  0  0  0  0  0  0  0  0  0
    7.8124  -10.1929    0.0000 C   0  0  0  0  0  0  0  0  0  0  0  0
    8.5303   -9.7864    0.0000 C   0  0  0  0  0  0  0  0  0  0  0  0
    8.5373   -8.9615    0.0000 C   0  0  0  0  0  0  0  0  0  0  0  0
    7.8263   -8.5429    0.0000 C   0  0  0  0  0  0  0  0  0  0  0  0
    9.3127  -10.0480    0.0000 O   0  0  0  0  0  0  0  0  0  0  0  0
    9.8033   -9.3847    0.0000 C   0  0  0  0  0  0  0  0  0  0  0  0
    9.3240   -8.7132    0.0000 O   0  0  0  0  0  0  0  0  0  0  0  0
    7.3182   -5.7766    0.0000 O   0  0  0  0  0  0  0  0  0  0  0  0
    4.9685   -8.5188    0.0000 C   0  0  0  0  0  0  0  0  0  0  0  0
    7.1363   -8.0866    0.0000 H   0  0  0  0  0  0  0  0  0  0  0  0
    5.6830   -8.1184    0.0000 H   0  0  0  0  0  0  0  0  0  0  0  0
  1  2  2  0  0  0  0
  2  3  1  0  0  0  0
  3  4  2  0  0  0  0
  4  5  1  0  0  0  0
  5  6  2  0  0  0  0
  6  1  1  0  0  0  0
  1  7  1  0  0  0  0
  7  8  1  0  0  0  0
  6  9  1  0  0  0  0
  9 10  1  0  0  0  0
  4 11  1  0  0  0  0
 11 12  1  0  0  0  0
 12 13  1  0  0  0  0
 13  5  1  0  0  0  0
 11 14  1  0  0  0  0
 14 15  1  0  0  0  0
 15 16  1  0  0  0  0
 16 17  1  0  0  0  0
 17 18  1  0  0  0  0
 18 19  2  0  0  0  0
 19 14  1  0  0  0  0
 18 20  1  0  0  0  0
 20 21  2  0  0  0  0
 21 22  1  0  0  0  0
 22 23  2  0  0  0  0
 23 19  1  0  0  0  0
 21 24  1  0  0  0  0
 24 25  1  0  0  0  0
 25 26  1  0  0  0  0
 26 22  1  0  0  0  0
 13 27  2  0  0  0  0
 15 28  1  0  0  0  0
 11 29  1  1  0  0  0
 14 30  1  6  0  0  0
M  END
>  <cdx:fragmentId>
5

$$$$
