92501.cdx
  Mrv1902 05222410242D          

 22 24  0  0  0  0            999 V2000
    6.0037   -7.4869    0.0000 C   0  0  2  0  0  0  0  0  0  0  0  0
    5.0298   -7.8160    0.0000 C   0  0  0  0  0  0  0  0  0  0  0  0
    4.8873   -7.0288    0.0000 C   0  0  0  0  0  0  0  0  0  0  0  0
    5.8221   -6.7271    0.0000 C   0  0  1  0  0  0  0  0  0  0  0  0
    6.4437   -5.8307    0.0000 N   0  0  0  0  0  0  0  0  0  0  0  0
    7.2122   -6.8472    0.0000 C   0  0  0  0  0  0  0  0  0  0  0  0
    6.9669   -7.9462    0.0000 C   0  0  0  0  0  0  0  0  0  0  0  0
    7.5327   -7.5087    0.0000 C   0  0  1  0  0  0  0  0  0  0  0  0
    6.7899   -5.0819    0.0000 C   0  0  0  0  0  0  0  0  0  0  0  0
    8.3359   -7.6973    0.0000 O   0  0  0  0  0  0  0  0  0  0  0  0
    8.5494   -8.4942    0.0000 C   0  0  0  0  0  0  0  0  0  0  0  0
    9.3463   -8.7077    0.0000 C   0  0  0  0  0  0  0  0  0  0  0  0
    7.9660   -9.0775    0.0000 O   0  0  0  0  0  0  0  0  0  0  0  0
    9.9297   -8.1243    0.0000 O   0  0  0  0  0  0  0  0  0  0  0  0
    9.5598   -9.5046    0.0000 C   0  0  0  0  0  0  0  0  0  0  0  0
    8.9765  -10.0880    0.0000 C   0  0  0  0  0  0  0  0  0  0  0  0
    9.1900  -10.8849    0.0000 C   0  0  0  0  0  0  0  0  0  0  0  0
    9.9869  -11.0984    0.0000 C   0  0  0  0  0  0  0  0  0  0  0  0
   10.5702  -10.5150    0.0000 C   0  0  0  0  0  0  0  0  0  0  0  0
   10.3567   -9.7181    0.0000 C   0  0  0  0  0  0  0  0  0  0  0  0
    5.9546   -8.3105    0.0000 H   0  0  0  0  0  0  0  0  0  0  0  0
    5.4096   -6.0126    0.0000 H   0  0  0  0  0  0  0  0  0  0  0  0
  1  2  1  0  0  0  0
  2  3  1  0  0  0  0
  3  4  1  0  0  0  0
  4  5  1  0  0  0  0
  4  6  1  0  0  0  0
  1  7  1  0  0  0  0
  6  8  1  0  0  0  0
  7  8  1  0  0  0  0
  5  1  1  0  0  0  0
  5  9  1  0  0  0  0
  8 10  1  6  0  0  0
 10 11  1  0  0  0  0
 11 12  1  0  0  0  0
 11 13  2  0  0  0  0
 12 14  1  0  0  0  0
 12 15  1  0  0  0  0
 15 16  2  0  0  0  0
 16 17  1  0  0  0  0
 17 18  2  0  0  0  0
 18 19  1  0  0  0  0
 19 20  2  0  0  0  0
 20 15  1  0  0  0  0
  1 21  1  1  0  0  0
  4 22  1  6  0  0  0
M  END
>  <cdx:groupId>
816

>  <cdx:fragmentId>
817

$$$$
