92507.cdx
  Mrv1902 05222410252D          

 23 24  0  0  0  0            999 V2000
    5.0306  -10.0100    0.0000 C   0  0  2  0  0  0  0  0  0  0  0  0
    5.0306  -10.8350    0.0000 C   0  0  1  0  0  0  0  0  0  0  0  0
    5.7450  -11.2475    0.0000 C   0  0  1  0  0  0  0  0  0  0  0  0
    6.4595  -10.8350    0.0000 C   0  0  2  0  0  0  0  0  0  0  0  0
    6.4595  -10.0100    0.0000 C   0  0  2  0  0  0  0  0  0  0  0  0
    5.7450   -9.5975    0.0000 O   0  0  0  0  0  0  0  0  0  0  0  0
    3.6016  -10.0100    0.0000 O   0  0  0  0  0  0  0  0  0  0  0  0
    4.3161   -9.5975    0.0000 C   0  0  0  0  0  0  0  0  0  0  0  0
    7.1740   -9.5975    0.0000 O   0  0  0  0  0  0  0  0  0  0  0  0
    7.1740   -8.7725    0.0000 C   0  0  0  0  0  0  0  0  0  0  0  0
    8.6029   -9.5975    0.0000 O   0  0  0  0  0  0  0  0  0  0  0  0
    8.6029   -8.7725    0.0000 C   0  0  2  0  0  0  0  0  0  0  0  0
    7.8884   -8.3600    0.0000 C   0  0  2  0  0  0  0  0  0  0  0  0
    9.3174   -8.3600    0.0000 C   0  0  1  0  0  0  0  0  0  0  0  0
    9.3174   -7.5350    0.0000 C   0  0  2  0  0  0  0  0  0  0  0  0
    8.6029   -7.1225    0.0000 C   0  0  1  0  0  0  0  0  0  0  0  0
    7.8884   -7.5350    0.0000 O   0  0  0  0  0  0  0  0  0  0  0  0
    8.6029   -6.2975    0.0000 O   0  0  0  0  0  0  0  0  0  0  0  0
    5.7450  -12.0725    0.0000 O   0  0  0  0  0  0  0  0  0  0  0  0
   10.0319   -8.7725    0.0000 O   0  0  0  0  0  0  0  0  0  0  0  0
    4.3161  -11.2475    0.0000 O   0  0  0  0  0  0  0  0  0  0  0  0
    7.1740  -11.2475    0.0000 O   0  0  0  0  0  0  0  0  0  0  0  0
   10.0319   -7.1225    0.0000 O   0  0  0  0  0  0  0  0  0  0  0  0
  1  2  1  0  0  0  0
  2  3  1  0  0  0  0
  3  4  1  0  0  0  0
  4  5  1  0  0  0  0
  5  6  1  0  0  0  0
  6  1  1  0  0  0  0
  7  8  1  0  0  0  0
  1  8  1  1  0  0  0
  5  9  1  6  0  0  0
  9 10  1  0  0  0  0
 12 11  1  6  0  0  0
 12 13  1  0  0  0  0
 13 10  1  1  0  0  0
 12 14  1  0  0  0  0
 14 15  1  0  0  0  0
 15 16  1  0  0  0  0
 16 17  1  0  0  0  0
 17 13  1  0  0  0  0
 16 18  1  1  0  0  0
  3 19  1  1  0  0  0
 14 20  1  1  0  0  0
  2 21  1  1  0  0  0
  4 22  1  6  0  0  0
 15 23  1  6  0  0  0
M  END
>  <cdx:fragmentId>
5

$$$$
