92510.cdx
  Mrv1902 05222410252D          

 29 32  0  0  0  0            999 V2000
    5.1167  -10.5580    0.0000 C   0  0  0  0  0  0  0  0  0  0  0  0
    5.8307  -10.9713    0.0000 C   0  0  0  0  0  0  0  0  0  0  0  0
    6.5456  -10.5596    0.0000 C   0  0  0  0  0  0  0  0  0  0  0  0
    6.5465   -9.7346    0.0000 C   0  0  0  0  0  0  0  0  0  0  0  0
    5.8325   -9.3213    0.0000 O   0  0  0  0  0  0  0  0  0  0  0  0
    5.1176   -9.7330    0.0000 C   0  0  0  0  0  0  0  0  0  0  0  0
    7.2597  -10.9729    0.0000 C   0  0  0  0  0  0  0  0  0  0  0  0
    7.9746  -10.5611    0.0000 C   0  0  0  0  0  0  0  0  0  0  0  0
    7.9755   -9.7361    0.0000 C   0  0  0  0  0  0  0  0  0  0  0  0
    7.2614   -9.3229    0.0000 C   0  0  0  0  0  0  0  0  0  0  0  0
    8.6904   -9.3244    0.0000 O   0  0  0  0  0  0  0  0  0  0  0  0
    8.6913   -8.4994    0.0000 C   0  0  0  0  0  0  0  0  0  0  0  0
    7.9773   -8.0861    0.0000 C   0  0  0  0  0  0  0  0  0  0  0  0
    7.2623   -8.4979    0.0000 C   0  0  0  0  0  0  0  0  0  0  0  0
    7.9782   -7.2611    0.0000 O   0  0  0  0  0  0  0  0  0  0  0  0
    7.2641   -6.8479    0.0000 C   0  0  1  0  0  0  0  0  0  0  0  0
    6.5492   -7.2596    0.0000 C   0  0  2  0  0  0  0  0  0  0  0  0
    6.5483   -8.0846    0.0000 O   0  0  0  0  0  0  0  0  0  0  0  0
    7.2650   -6.0229    0.0000 O   0  0  0  0  0  0  0  0  0  0  0  0
    6.5510   -5.6096    0.0000 C   0  0  1  0  0  0  0  0  0  0  0  0
    5.8361   -6.0213    0.0000 C   0  0  2  0  0  0  0  0  0  0  0  0
    5.8352   -6.8463    0.0000 C   0  0  2  0  0  0  0  0  0  0  0  0
    7.2668   -4.3729    0.0000 O   0  0  0  0  0  0  0  0  0  0  0  0
    6.5519   -4.7846    0.0000 C   0  0  0  0  0  0  0  0  0  0  0  0
    4.4036   -9.3198    0.0000 O   0  0  0  0  0  0  0  0  0  0  0  0
    9.5163   -8.5003    0.0000 C   0  0  0  0  0  0  0  0  0  0  0  0
    8.9057   -7.7028    0.0000 C   0  0  0  0  0  0  0  0  0  0  0  0
    5.1203   -7.2580    0.0000 O   0  0  0  0  0  0  0  0  0  0  0  0
    5.1221   -5.6080    0.0000 O   0  0  0  0  0  0  0  0  0  0  0  0
  1  2  2  0  0  0  0
  2  3  1  0  0  0  0
  3  4  2  0  0  0  0
  4  5  1  0  0  0  0
  5  6  1  0  0  0  0
  6  1  1  0  0  0  0
  3  7  1  0  0  0  0
  7  8  2  0  0  0  0
  8  9  1  0  0  0  0
  9 10  2  0  0  0  0
 10  4  1  0  0  0  0
  9 11  1  0  0  0  0
 11 12  1  0  0  0  0
 12 13  1  0  0  0  0
 13 14  1  0  0  0  0
 14 10  1  0  0  0  0
 13 15  1  0  0  0  0
 16 15  1  1  0  0  0
 16 17  1  0  0  0  0
 17 18  1  6  0  0  0
 16 19  1  0  0  0  0
 19 20  1  0  0  0  0
 20 21  1  0  0  0  0
 21 22  1  0  0  0  0
 22 17  1  0  0  0  0
 23 24  1  0  0  0  0
 20 24  1  1  0  0  0
  6 25  2  0  0  0  0
 12 26  1  0  0  0  0
 12 27  1  0  0  0  0
 22 28  1  1  0  0  0
 21 29  1  6  0  0  0
M  END
>  <cdx:fragmentId>
5

$$$$
