92511.cdx
  Mrv1902 05222410252D          

  5  4  0  0  0  0            999 V2000
    7.3384   -6.2975    0.0000 C   0  0  0  0  0  0  0  0  0  0  0  0
    6.6240   -5.8850    0.0000 C   0  0  0  0  0  0  0  0  0  0  0  0
    5.9095   -6.2975    0.0000 C   0  0  0  0  0  0  0  0  0  0  0  0
    5.1950   -5.8850    0.0000 C   0  0  0  0  0  0  0  0  0  0  0  0
    5.9095   -7.1225    0.0000 C   0  0  0  0  0  0  0  0  0  0  0  0
  2  1  2  0  0  0  0
  3  2  1  0  0  0  0
  4  3  1  0  0  0  0
  3  5  2  0  0  0  0
M  END
>  <cdx:fragmentId>
3

$$$$
