9249.cdx
  Mrv1902 05222410202D          

 58 60  0  0  0  0            999 V2000
    6.3338  -14.6098    0.0000 O   0  0  0  0  0  0  0  0  0  0  0  0
    9.9080  -13.4279    0.0000 O   0  0  0  0  0  0  0  0  0  0  0  0
    7.0507  -13.3852    0.0000 O   0  0  0  0  0  0  0  0  0  0  0  0
    8.4769  -12.5818    0.0000 O   0  0  0  0  0  0  0  0  0  0  0  0
    7.0433  -15.0308    0.0000 C   0  0  0  0  0  0  0  0  0  0  0  0
    9.1911  -13.8362    0.0000 C   0  0  2  0  0  0  0  0  0  0  0  0
    8.4670  -13.4067    0.0000 C   0  0  2  0  0  0  0  0  0  0  0  0
    7.7626  -13.8021    0.0000 C   0  0  1  0  0  0  0  0  0  0  0  0
    7.7626  -14.6268    0.0000 C   0  0  2  0  0  0  0  0  0  0  0  0
    8.4670  -15.0563    0.0000 O   0  0  0  0  0  0  0  0  0  0  0  0
    9.1911  -14.6609    0.0000 C   0  0  1  0  0  0  0  0  0  0  0  0
   11.8971  -16.1706    0.0000 C   0  0  1  0  0  0  0  0  0  0  0  0
   11.2563  -15.7956    0.0000 C   0  0  1  0  0  0  0  0  0  0  0  0
   11.2608  -15.0531    0.0000 C   0  0  2  0  0  0  0  0  0  0  0  0
   11.9060  -14.6857    0.0000 O   0  0  0  0  0  0  0  0  0  0  0  0
   18.3937   -5.0717    0.0000 O   0  0  0  0  0  0  0  0  0  0  0  0
   15.8040   -8.0263    0.0000 C   0  0  0  0  0  0  0  0  0  0  0  0
   17.1033   -5.8065    0.0000 C   0  0  0  0  0  0  0  0  0  0  0  0
   12.5557  -13.5758    0.0000 O   0  0  0  0  0  0  0  0  0  0  0  0
   17.7441   -6.1816    0.0000 C   0  0  0  0  0  0  0  0  0  0  0  0
   18.3893   -5.8142    0.0000 C   0  0  0  0  0  0  0  0  0  0  0  0
   19.0301   -6.1893    0.0000 O   0  0  0  0  0  0  0  0  0  0  0  0
   17.0944   -7.2915    0.0000 C   0  0  0  0  0  0  0  0  0  0  0  0
   17.7396   -6.9241    0.0000 C   0  0  0  0  0  0  0  0  0  0  0  0
   16.4448   -8.4014    0.0000 C   0  0  0  0  0  0  0  0  0  0  0  0
   17.0900   -8.0340    0.0000 C   0  0  0  0  0  0  0  0  0  0  0  0
   15.7951   -9.5113    0.0000 C   0  0  0  0  0  0  0  0  0  0  0  0
   16.4403   -9.1439    0.0000 C   0  0  0  0  0  0  0  0  0  0  0  0
   15.1454  -10.6212    0.0000 C   0  0  0  0  0  0  0  0  0  0  0  0
   15.7907  -10.2538    0.0000 C   0  0  0  0  0  0  0  0  0  0  0  0
   14.4958  -11.7311    0.0000 C   0  0  0  0  0  0  0  0  0  0  0  0
   15.1410  -11.3637    0.0000 C   0  0  0  0  0  0  0  0  0  0  0  0
   15.7818  -11.7388    0.0000 C   0  0  0  0  0  0  0  0  0  0  0  0
   13.8461  -12.8410    0.0000 C   0  0  0  0  0  0  0  0  0  0  0  0
   14.4913  -12.4736    0.0000 C   0  0  0  0  0  0  0  0  0  0  0  0
   13.8417  -13.5835    0.0000 C   0  0  0  0  0  0  0  0  0  0  0  0
   14.4825  -13.9585    0.0000 C   0  0  0  0  0  0  0  0  0  0  0  0
   13.1965  -13.9509    0.0000 C   0  0  0  0  0  0  0  0  0  0  0  0
   12.5468  -15.0608    0.0000 C   0  0  2  0  0  0  0  0  0  0  0  0
   12.5424  -15.8032    0.0000 C   0  0  2  0  0  0  0  0  0  0  0  0
   11.8927  -16.9131    0.0000 O   0  0  0  0  0  0  0  0  0  0  0  0
   13.1920  -14.6934    0.0000 O   0  0  0  0  0  0  0  0  0  0  0  0
   10.6200  -14.6780    0.0000 C   0  0  0  0  0  0  0  0  0  0  0  0
   10.6111  -16.1630    0.0000 O   0  0  0  0  0  0  0  0  0  0  0  0
   13.1832  -16.1783    0.0000 O   0  0  0  0  0  0  0  0  0  0  0  0
    9.9006  -15.0819    0.0000 O   0  0  0  0  0  0  0  0  0  0  0  0
    5.6144  -15.0137    0.0000 C   0  0  0  0  0  0  0  0  0  0  0  0
    4.9049  -14.5927    0.0000 C   0  0  0  0  0  0  0  0  0  0  0  0
    5.6046  -15.8386    0.0000 O   0  0  0  0  0  0  0  0  0  0  0  0
    4.1856  -14.9966    0.0000 C   0  0  0  0  0  0  0  0  0  0  0  0
    3.4761  -14.5756    0.0000 C   0  0  0  0  0  0  0  0  0  0  0  0
    3.4908  -13.7508    0.0000 C   0  0  0  0  0  0  0  0  0  0  0  0
    2.7838  -13.3256    0.0000 C   0  0  0  0  0  0  0  0  0  0  0  0
    2.0621  -13.7508    0.0000 C   0  0  0  0  0  0  0  0  0  0  0  0
    2.0621  -14.5756    0.0000 C   0  0  0  0  0  0  0  0  0  0  0  0
    2.7838  -15.0008    0.0000 C   0  0  0  0  0  0  0  0  0  0  0  0
    1.3458  -13.3414    0.0000 O   0  0  0  0  0  0  0  0  0  0  0  0
    1.3458  -14.9850    0.0000 O   0  0  0  0  0  0  0  0  0  0  0  0
  5  1  1  0  0  0  0
  6  2  1  1  0  0  0
  8  3  1  1  0  0  0
  7  4  1  6  0  0  0
  9  5  1  6  0  0  0
  6 11  1  0  0  0  0
  7  6  1  0  0  0  0
  8  7  1  0  0  0  0
  9  8  1  0  0  0  0
 10  9  1  0  0  0  0
 11 10  1  0  0  0  0
 11 46  1  6  0  0  0
 21 16  1  0  0  0  0
 25 17  1  0  0  0  0
 20 18  1  0  0  0  0
 38 19  2  0  0  0  0
 20 24  2  0  0  0  0
 21 20  1  0  0  0  0
 22 21  2  0  0  0  0
 23 26  2  0  0  0  0
 24 23  1  0  0  0  0
 25 28  2  0  0  0  0
 26 25  1  0  0  0  0
 27 30  2  0  0  0  0
 28 27  1  0  0  0  0
 29 32  2  0  0  0  0
 30 29  1  0  0  0  0
 31 35  2  0  0  0  0
 32 31  1  0  0  0  0
 33 32  1  0  0  0  0
 34 36  2  0  0  0  0
 35 34  1  0  0  0  0
 36 38  1  0  0  0  0
 37 36  1  0  0  0  0
 42 38  1  0  0  0  0
 12 13  1  0  0  0  0
 13 14  1  0  0  0  0
 14 15  1  0  0  0  0
 15 39  1  0  0  0  0
 39 40  1  0  0  0  0
 40 12  1  0  0  0  0
 12 41  1  1  0  0  0
 39 42  1  1  0  0  0
 14 43  1  1  0  0  0
 13 44  1  6  0  0  0
 40 45  1  6  0  0  0
 43 46  1  0  0  0  0
  1 47  1  0  0  0  0
 47 48  1  0  0  0  0
 47 49  2  0  0  0  0
 48 50  2  0  0  0  0
 50 51  1  0  0  0  0
 51 52  2  0  0  0  0
 52 53  1  0  0  0  0
 53 54  2  0  0  0  0
 54 55  1  0  0  0  0
 55 56  2  0  0  0  0
 56 51  1  0  0  0  0
 54 57  1  0  0  0  0
 55 58  1  0  0  0  0
M  END
>  <cdx:fragmentId>
296

$$$$
