92515.cdx
  Mrv1902 05222410242D          

 44 48  0  0  0  0            999 V2000
    6.5156   -9.1713    0.0000 C   0  0  0  0  0  0  0  0  0  0  0  0
    6.5156   -9.9962    0.0000 C   0  0  0  0  0  0  0  0  0  0  0  0
    7.2300  -10.4087    0.0000 C   0  0  0  0  0  0  0  0  0  0  0  0
    7.9445   -9.9962    0.0000 C   0  0  0  0  0  0  0  0  0  0  0  0
    7.9445   -9.1713    0.0000 C   0  0  0  0  0  0  0  0  0  0  0  0
    7.2300   -8.7588    0.0000 C   0  0  0  0  0  0  0  0  0  0  0  0
    8.6590  -10.4087    0.0000 C   0  0  0  0  0  0  0  0  0  0  0  0
    9.3734   -9.9962    0.0000 C   0  0  0  0  0  0  0  0  0  0  0  0
    9.3734   -9.1713    0.0000 C   0  0  0  0  0  0  0  0  0  0  0  0
    8.6590   -8.7588    0.0000 O   0  0  0  0  0  0  0  0  0  0  0  0
    7.2300  -11.2338    0.0000 O   0  0  0  0  0  0  0  0  0  0  0  0
    8.6590  -11.2338    0.0000 O   0  0  0  0  0  0  0  0  0  0  0  0
   10.0879  -10.4087    0.0000 O   0  0  0  0  0  0  0  0  0  0  0  0
   12.2313   -7.5212    0.0000 O   0  0  0  0  0  0  0  0  0  0  0  0
   12.2313   -9.1712    0.0000 O   0  0  0  0  0  0  0  0  0  0  0  0
   10.8024   -9.1712    0.0000 C   0  0  0  0  0  0  0  0  0  0  0  0
    5.8011   -8.7588    0.0000 O   0  0  0  0  0  0  0  0  0  0  0  0
   11.5169   -8.7587    0.0000 C   0  0  0  0  0  0  0  0  0  0  0  0
   11.5169   -7.9337    0.0000 C   0  0  0  0  0  0  0  0  0  0  0  0
   10.8024   -7.5212    0.0000 C   0  0  0  0  0  0  0  0  0  0  0  0
   10.0879   -8.7588    0.0000 C   0  0  0  0  0  0  0  0  0  0  0  0
   10.0879   -7.9337    0.0000 C   0  0  0  0  0  0  0  0  0  0  0  0
    5.7993   -7.9338    0.0000 C   0  0  2  0  0  0  0  0  0  0  0  0
    6.5128   -7.5197    0.0000 O   0  0  0  0  0  0  0  0  0  0  0  0
    6.5110   -6.6947    0.0000 C   0  0  1  0  0  0  0  0  0  0  0  0
    5.7957   -6.2838    0.0000 C   0  0  2  0  0  0  0  0  0  0  0  0
    5.0821   -6.6978    0.0000 C   0  0  1  0  0  0  0  0  0  0  0  0
    5.0839   -7.5228    0.0000 C   0  0  1  0  0  0  0  0  0  0  0  0
    7.2246   -6.2806    0.0000 C   0  0  0  0  0  0  0  0  0  0  0  0
    4.3667   -6.2869    0.0000 O   0  0  0  0  0  0  0  0  0  0  0  0
    5.7938   -5.4588    0.0000 O   0  0  0  0  0  0  0  0  0  0  0  0
    4.3703   -7.9369    0.0000 O   0  0  0  0  0  0  0  0  0  0  0  0
    7.2228   -5.4556    0.0000 O   0  0  0  0  0  0  0  0  0  0  0  0
    3.5682   -7.5283    0.0000 C   0  0  2  0  0  0  0  0  0  0  0  0
    3.5664   -6.7033    0.0000 O   0  0  0  0  0  0  0  0  0  0  0  0
    2.8511   -6.2923    0.0000 C   0  0  2  0  0  0  0  0  0  0  0  0
    2.1375   -6.7064    0.0000 C   0  0  1  0  0  0  0  0  0  0  0  0
    2.1393   -7.5314    0.0000 C   0  0  2  0  0  0  0  0  0  0  0  0
    2.8547   -7.9423    0.0000 C   0  0  1  0  0  0  0  0  0  0  0  0
    1.4221   -6.2955    0.0000 O   0  0  0  0  0  0  0  0  0  0  0  0
    2.8492   -5.4673    0.0000 C   0  0  0  0  0  0  0  0  0  0  0  0
    2.8565   -8.7673    0.0000 O   0  0  0  0  0  0  0  0  0  0  0  0
    1.4257   -7.9455    0.0000 O   0  0  0  0  0  0  0  0  0  0  0  0
   12.9458   -8.7587    0.0000 C   0  0  0  0  0  0  0  0  0  0  0  0
  1  2  2  0  0  0  0
  2  3  1  0  0  0  0
  3  4  2  0  0  0  0
  4  5  1  0  0  0  0
  5  6  2  0  0  0  0
  6  1  1  0  0  0  0
  4  7  1  0  0  0  0
  7  8  1  0  0  0  0
  8  9  2  0  0  0  0
  9 10  1  0  0  0  0
 10  5  1  0  0  0  0
  3 11  1  0  0  0  0
 12  7  2  0  0  0  0
  8 13  1  0  0  0  0
 19 14  1  0  0  0  0
 21  9  1  0  0  0  0
 18 15  1  0  0  0  0
 16 21  2  0  0  0  0
 18 16  1  0  0  0  0
 19 18  2  0  0  0  0
 20 19  1  0  0  0  0
 22 20  2  0  0  0  0
  1 17  1  0  0  0  0
 22 21  1  0  0  0  0
 23 17  1  1  0  0  0
 23 24  1  0  0  0  0
 24 25  1  0  0  0  0
 25 26  1  0  0  0  0
 26 27  1  0  0  0  0
 27 28  1  0  0  0  0
 28 23  1  0  0  0  0
 25 29  1  1  0  0  0
 27 30  1  1  0  0  0
 26 31  1  6  0  0  0
 28 32  1  6  0  0  0
 29 33  1  0  0  0  0
 34 32  1  1  0  0  0
 34 35  1  0  0  0  0
 35 36  1  0  0  0  0
 36 37  1  0  0  0  0
 37 38  1  0  0  0  0
 38 39  1  0  0  0  0
 39 34  1  0  0  0  0
 37 40  1  1  0  0  0
 36 41  1  6  0  0  0
 39 42  1  6  0  0  0
 38 43  1  6  0  0  0
 15 44  1  0  0  0  0
M  END
>  <cdx:fragmentId>
5

$$$$
