92514.cdx
  Mrv1902 05222410242D          

 11 11  0  0  0  0            999 V2000
    6.4056   -7.0400    0.0000 C   0  0  0  0  0  0  0  0  0  0  0  0
    6.4056   -7.8650    0.0000 C   0  0  0  0  0  0  0  0  0  0  0  0
    7.1200   -8.2775    0.0000 C   0  0  2  0  0  0  0  0  0  0  0  0
    7.8345   -7.8650    0.0000 C   0  0  0  0  0  0  0  0  0  0  0  0
    7.8345   -7.0400    0.0000 C   0  0  0  0  0  0  0  0  0  0  0  0
    7.1200   -6.6275    0.0000 C   0  0  2  0  0  0  0  0  0  0  0  0
    7.1200   -9.1025    0.0000 O   0  0  0  0  0  0  0  0  0  0  0  0
    6.7075   -5.9130    0.0000 O   0  0  0  0  0  0  0  0  0  0  0  0
    7.5325   -5.9130    0.0000 C   0  0  0  0  0  0  0  0  0  0  0  0
    8.3575   -5.9130    0.0000 C   0  0  0  0  0  0  0  0  0  0  0  0
    8.7700   -5.1986    0.0000 O   0  0  0  0  0  0  0  0  0  0  0  0
  1  2  1  0  0  0  0
  2  3  1  0  0  0  0
  3  4  1  0  0  0  0
  4  5  1  0  0  0  0
  5  6  1  0  0  0  0
  6  1  1  0  0  0  0
  3  7  1  6  0  0  0
  6  8  1  1  0  0  0
  6  9  1  0  0  0  0
  9 10  1  0  0  0  0
 10 11  1  0  0  0  0
M  END
>  <cdx:fragmentId>
5

$$$$
