92518.cdx
  Mrv1902 05222410222D          

 37 43  0  0  0  0            999 V2000
    8.4734   -7.6555    0.0000 C   0  0  1  0  0  0  0  0  0  0  0  0
    8.2106   -6.8735    0.0000 C   0  0  2  0  0  0  0  0  0  0  0  0
    7.4019   -6.7100    0.0000 C   0  0  0  0  0  0  0  0  0  0  0  0
    6.8561   -7.3286    0.0000 C   0  0  2  0  0  0  0  0  0  0  0  0
    7.1189   -8.1106    0.0000 C   0  0  1  0  0  0  0  0  0  0  0  0
    7.9275   -8.2741    0.0000 C   0  0  1  0  0  0  0  0  0  0  0  0
    9.2983   -7.6472    0.0000 O   0  0  0  0  0  0  0  0  0  0  0  0
    9.5454   -6.8601    0.0000 C   0  0  0  0  0  0  0  0  0  0  0  0
    8.8731   -6.3819    0.0000 O   0  0  0  0  0  0  0  0  0  0  0  0
    6.4869   -8.6410    0.0000 C   0  0  1  0  0  0  0  0  0  0  0  0
    6.5075   -9.4657    0.0000 C   0  0  2  0  0  0  0  0  0  0  0  0
    7.1651   -9.9638    0.0000 C   0  0  1  0  0  0  0  0  0  0  0  0
    7.9646   -9.7602    0.0000 C   0  0  2  0  0  0  0  0  0  0  0  0
    8.3039   -9.0082    0.0000 C   0  0  1  0  0  0  0  0  0  0  0  0
    5.6961   -8.4057    0.0000 C   0  0  0  0  0  0  0  0  0  0  0  0
    5.2280   -9.0850    0.0000 C   0  0  1  0  0  0  0  0  0  0  0  0
    5.7255   -9.7285    0.0000 C   0  0  2  0  0  0  0  0  0  0  0  0
    5.4863  -10.5180    0.0000 O   0  0  0  0  0  0  0  0  0  0  0  0
    4.4034   -9.1077    0.0000 C   0  0  0  0  0  0  0  0  0  0  0  0
    8.7855   -9.6780    0.0000 O   0  0  0  0  0  0  0  0  0  0  0  0
   10.3274   -6.5973    0.0000 C   0  0  0  0  0  0  0  0  0  0  0  0
    7.6536   -7.4668    0.0000 O   0  0  0  0  0  0  0  0  0  0  0  0
    6.0474   -7.1652    0.0000 C   0  0  0  0  0  0  0  0  0  0  0  0
    8.7362   -8.4375    0.0000 H   0  0  0  0  0  0  0  0  0  0  0  0
    8.1079  -10.5727    0.0000 C   0  0  0  0  0  0  0  0  0  0  0  0
    7.0017  -10.7725    0.0000 O   0  0  0  0  0  0  0  0  0  0  0  0
    6.3441  -10.2744    0.0000 O   0  0  0  0  0  0  0  0  0  0  0  0
    6.2241   -7.8589    0.0000 H   0  0  0  0  0  0  0  0  0  0  0  0
    8.8832  -10.8548    0.0000 O   0  0  0  0  0  0  0  0  0  0  0  0
   10.9460   -7.1432    0.0000 C   0  0  0  0  0  0  0  0  0  0  0  0
   11.7280   -6.8804    0.0000 C   0  0  0  0  0  0  0  0  0  0  0  0
   11.8915   -6.0717    0.0000 C   0  0  0  0  0  0  0  0  0  0  0  0
   11.2729   -5.5259    0.0000 C   0  0  0  0  0  0  0  0  0  0  0  0
   10.4909   -5.7887    0.0000 C   0  0  0  0  0  0  0  0  0  0  0  0
    8.2106   -6.0485    0.0000 C   0  0  0  0  0  0  0  0  0  0  0  0
    7.4961   -5.6360    0.0000 C   0  0  0  0  0  0  0  0  0  0  0  0
    8.9251   -5.6360    0.0000 C   0  0  0  0  0  0  0  0  0  0  0  0
  1  2  1  0  0  0  0
  2  3  1  0  0  0  0
  3  4  1  0  0  0  0
  4  5  1  0  0  0  0
  5  6  1  0  0  0  0
  7  8  1  0  0  0  0
  8  9  1  0  0  0  0
  2  9  1  6  0  0  0
  5 10  1  0  0  0  0
 10 11  1  0  0  0  0
 11 12  1  0  0  0  0
 12 13  1  0  0  0  0
 13 14  1  0  0  0  0
 14  6  1  0  0  0  0
 10 15  1  0  0  0  0
 15 16  1  0  0  0  0
 16 17  1  0  0  0  0
 17 11  1  0  0  0  0
 17 18  1  1  0  0  0
 16 19  1  1  0  0  0
 13 20  1  6  0  0  0
 14 20  1  6  0  0  0
  8 21  1  0  0  0  0
  8 22  1  0  0  0  0
  5 22  1  6  0  0  0
  1  7  1  6  0  0  0
  1  6  1  0  0  0  0
  4 23  1  6  0  0  0
  6 24  1  1  0  0  0
 13 25  1  0  0  0  0
 12 26  1  1  0  0  0
 11 27  1  1  0  0  0
 10 28  1  6  0  0  0
 25 29  1  0  0  0  0
 21 30  2  0  0  0  0
 30 31  1  0  0  0  0
 31 32  2  0  0  0  0
 32 33  1  0  0  0  0
 33 34  2  0  0  0  0
 34 21  1  0  0  0  0
  2 35  1  0  0  0  0
 35 36  1  0  0  0  0
 35 37  2  0  0  0  0
M  END
>  <cdx:fragmentId>
5

$$$$
