92513.cdx
  Mrv1902 05222410252D          

 10 11  0  0  0  0            999 V2000
    5.3468   -6.2975    0.0000 C   0  0  0  0  0  0  0  0  0  0  0  0
    5.3468   -7.1225    0.0000 C   0  0  0  0  0  0  0  0  0  0  0  0
    6.0613   -7.5350    0.0000 C   0  0  0  0  0  0  0  0  0  0  0  0
    6.7757   -7.1225    0.0000 C   0  0  0  0  0  0  0  0  0  0  0  0
    6.7757   -6.2975    0.0000 C   0  0  0  0  0  0  0  0  0  0  0  0
    6.0613   -5.8850    0.0000 C   0  0  0  0  0  0  0  0  0  0  0  0
    7.4902   -7.5350    0.0000 C   0  0  0  0  0  0  0  0  0  0  0  0
    8.2047   -7.1225    0.0000 N   0  0  0  0  0  0  0  0  0  0  0  0
    8.2047   -6.2975    0.0000 C   0  0  0  0  0  0  0  0  0  0  0  0
    7.4902   -5.8850    0.0000 C   0  0  0  0  0  0  0  0  0  0  0  0
  1  2  2  0  0  0  0
  2  3  1  0  0  0  0
  3  4  2  0  0  0  0
  4  5  1  0  0  0  0
  5  6  2  0  0  0  0
  6  1  1  0  0  0  0
  4  7  1  0  0  0  0
  7  8  2  0  0  0  0
  8  9  1  0  0  0  0
  9 10  2  0  0  0  0
 10  5  1  0  0  0  0
M  END
>  <cdx:fragmentId>
5

$$$$
