92519.cdx
  Mrv1902 05222410222D          

 44 49  0  0  0  0            999 V2000
    6.3336   -9.0344    0.0000 C   0  0  1  0  0  0  0  0  0  0  0  0
    6.0498   -8.2598    0.0000 C   0  0  2  0  0  0  0  0  0  0  0  0
    5.2370   -8.1182    0.0000 C   0  0  1  0  0  0  0  0  0  0  0  0
    4.7081   -8.7513    0.0000 C   0  0  2  0  0  0  0  0  0  0  0  0
    4.9919   -9.5260    0.0000 C   0  0  1  0  0  0  0  0  0  0  0  0
    5.8047   -9.6675    0.0000 C   0  0  1  0  0  0  0  0  0  0  0  0
    7.1580   -9.0038    0.0000 O   0  0  0  0  0  0  0  0  0  0  0  0
    7.3837   -8.2103    0.0000 C   0  0  0  0  0  0  0  0  0  0  0  0
    6.6988   -7.7504    0.0000 O   0  0  0  0  0  0  0  0  0  0  0  0
    4.3745  -10.0732    0.0000 C   0  0  1  0  0  0  0  0  0  0  0  0
    4.4174  -10.8971    0.0000 C   0  0  2  0  0  0  0  0  0  0  0  0
    5.0882  -11.3772    0.0000 C   0  0  1  0  0  0  0  0  0  0  0  0
    5.8819  -11.1521    0.0000 C   0  0  2  0  0  0  0  0  0  0  0  0
    6.2008  -10.3912    0.0000 C   0  0  1  0  0  0  0  0  0  0  0  0
    3.5777   -9.8594    0.0000 C   0  0  0  0  0  0  0  0  0  0  0  0
    3.1281  -10.5511    0.0000 C   0  0  0  0  0  0  0  0  0  0  0  0
    3.6428  -11.1809    0.0000 C   0  0  0  0  0  0  0  0  0  0  0  0
    3.4250  -11.9766    0.0000 O   0  0  0  0  0  0  0  0  0  0  0  0
    2.3043  -10.5960    0.0000 C   0  0  0  0  0  0  0  0  0  0  0  0
    6.7003  -11.0478    0.0000 O   0  0  0  0  0  0  0  0  0  0  0  0
   11.0409  -12.1968    0.0000 C   0  0  0  0  0  0  0  0  0  0  0  0
   11.1825  -11.3840    0.0000 C   0  0  0  0  0  0  0  0  0  0  0  0
   10.5493  -10.8551    0.0000 C   0  0  0  0  0  0  0  0  0  0  0  0
   10.6909  -10.0423    0.0000 C   0  0  0  0  0  0  0  0  0  0  0  0
   10.0577   -9.5133    0.0000 C   0  0  0  0  0  0  0  0  0  0  0  0
   10.1993   -8.7006    0.0000 C   0  0  0  0  0  0  0  0  0  0  0  0
    9.5661   -8.1716    0.0000 C   0  0  0  0  0  0  0  0  0  0  0  0
    8.7915   -8.4554    0.0000 C   0  0  0  0  0  0  0  0  0  0  0  0
    8.1584   -7.9265    0.0000 C   0  0  0  0  0  0  0  0  0  0  0  0
    4.9532   -7.3436    0.0000 O   0  0  0  0  0  0  0  0  0  0  0  0
    4.1404   -7.2021    0.0000 C   0  0  0  0  0  0  0  0  0  0  0  0
    3.8566   -6.4274    0.0000 C   0  0  0  0  0  0  0  0  0  0  0  0
    3.6115   -7.8352    0.0000 O   0  0  0  0  0  0  0  0  0  0  0  0
    5.5090   -8.8679    0.0000 O   0  0  0  0  0  0  0  0  0  0  0  0
    3.8953   -8.6098    0.0000 C   0  0  0  0  0  0  0  0  0  0  0  0
    6.6174   -9.8090    0.0000 H   0  0  0  0  0  0  0  0  0  0  0  0
    6.0471  -11.9604    0.0000 C   0  0  0  0  0  0  0  0  0  0  0  0
    4.9467  -12.1900    0.0000 O   0  0  0  0  0  0  0  0  0  0  0  0
    4.2758  -11.7099    0.0000 O   0  0  0  0  0  0  0  0  0  0  0  0
    4.0907   -9.2986    0.0000 H   0  0  0  0  0  0  0  0  0  0  0  0
    6.8297  -12.2215    0.0000 O   0  0  0  0  0  0  0  0  0  0  0  0
    6.0498   -7.4348    0.0000 C   0  0  0  0  0  0  0  0  0  0  0  0
    5.3353   -7.0223    0.0000 C   0  0  0  0  0  0  0  0  0  0  0  0
    6.7642   -7.0223    0.0000 C   0  0  0  0  0  0  0  0  0  0  0  0
  1  2  1  0  0  0  0
  2  3  1  0  0  0  0
  3  4  1  0  0  0  0
  4  5  1  0  0  0  0
  5  6  1  0  0  0  0
  7  8  1  0  0  0  0
  8  9  1  0  0  0  0
  2  9  1  6  0  0  0
  5 10  1  0  0  0  0
 10 11  1  0  0  0  0
 11 12  1  0  0  0  0
 12 13  1  0  0  0  0
 13 14  1  0  0  0  0
 14  6  1  0  0  0  0
 10 15  1  0  0  0  0
 15 16  2  0  0  0  0
 16 17  1  0  0  0  0
 17 11  1  0  0  0  0
 17 18  2  0  0  0  0
 16 19  1  0  0  0  0
 13 20  1  6  0  0  0
 14 20  1  6  0  0  0
 22 21  1  0  0  0  0
  8 29  1  0  0  0  0
 23 22  1  0  0  0  0
 24 23  1  0  0  0  0
 25 24  1  0  0  0  0
 26 25  1  0  0  0  0
 27 26  2  0  0  0  0
 28 27  1  0  0  0  0
 29 28  2  0  0  0  0
  3 30  1  1  0  0  0
 30 31  1  0  0  0  0
 31 32  1  0  0  0  0
 31 33  2  0  0  0  0
  8 34  1  0  0  0  0
  5 34  1  6  0  0  0
  1  7  1  6  0  0  0
  1  6  1  0  0  0  0
  4 35  1  6  0  0  0
  6 36  1  1  0  0  0
 13 37  1  0  0  0  0
 12 38  1  1  0  0  0
 11 39  1  1  0  0  0
 10 40  1  6  0  0  0
 37 41  1  0  0  0  0
  2 42  1  0  0  0  0
 42 43  1  0  0  0  0
 42 44  2  0  0  0  0
M  END
>  <cdx:fragmentId>
5

$$$$
