92520.cdx
  Mrv1902 05222410212D          

 50 55  0  0  0  0            999 V2000
    7.7118   -9.0337    0.0000 C   0  0  0  0  0  0  0  0  0  0  0  0
    7.7118   -9.8588    0.0000 C   0  0  0  0  0  0  0  0  0  0  0  0
    8.4263  -10.2713    0.0000 C   0  0  0  0  0  0  0  0  0  0  0  0
    9.1407   -9.8588    0.0000 C   0  0  0  0  0  0  0  0  0  0  0  0
    9.1407   -9.0337    0.0000 C   0  0  0  0  0  0  0  0  0  0  0  0
    8.4263   -8.6212    0.0000 C   0  0  0  0  0  0  0  0  0  0  0  0
    9.8552  -10.2713    0.0000 C   0  0  0  0  0  0  0  0  0  0  0  0
   10.5697   -9.8588    0.0000 C   0  0  0  0  0  0  0  0  0  0  0  0
   10.5697   -9.0337    0.0000 C   0  0  2  0  0  0  0  0  0  0  0  0
    9.8552   -8.6212    0.0000 O   0  0  0  0  0  0  0  0  0  0  0  0
    8.4263  -11.0962    0.0000 O   0  0  0  0  0  0  0  0  0  0  0  0
    9.8552  -11.0962    0.0000 O   0  0  0  0  0  0  0  0  0  0  0  0
   11.9986   -9.0337    0.0000 C   0  0  0  0  0  0  0  0  0  0  0  0
   11.2842   -8.6212    0.0000 C   0  0  0  0  0  0  0  0  0  0  0  0
   12.7131   -8.6212    0.0000 C   0  0  0  0  0  0  0  0  0  0  0  0
   12.7131   -7.7963    0.0000 C   0  0  0  0  0  0  0  0  0  0  0  0
   11.9986   -7.3838    0.0000 C   0  0  0  0  0  0  0  0  0  0  0  0
   11.2842   -7.7963    0.0000 C   0  0  0  0  0  0  0  0  0  0  0  0
    6.9973   -8.6212    0.0000 O   0  0  0  0  0  0  0  0  0  0  0  0
    7.0034   -7.7963    0.0000 C   0  0  1  0  0  0  0  0  0  0  0  0
    6.2920   -7.3785    0.0000 C   0  0  1  0  0  0  0  0  0  0  0  0
    7.7209   -7.3890    0.0000 O   0  0  0  0  0  0  0  0  0  0  0  0
    7.7269   -6.5640    0.0000 C   0  0  1  0  0  0  0  0  0  0  0  0
    7.0155   -6.1463    0.0000 C   0  0  2  0  0  0  0  0  0  0  0  0
    6.2980   -6.5536    0.0000 C   0  0  2  0  0  0  0  0  0  0  0  0
    8.4444   -6.1568    0.0000 C   0  0  0  0  0  0  0  0  0  0  0  0
    5.5866   -6.1358    0.0000 O   0  0  0  0  0  0  0  0  0  0  0  0
    5.5336   -7.7976    0.0000 O   0  0  0  0  0  0  0  0  0  0  0  0
    4.8222   -7.3799    0.0000 C   0  0  2  0  0  0  0  0  0  0  0  0
    4.8283   -6.5549    0.0000 O   0  0  0  0  0  0  0  0  0  0  0  0
    4.1168   -6.1372    0.0000 C   0  0  2  0  0  0  0  0  0  0  0  0
    3.3994   -6.5444    0.0000 C   0  0  1  0  0  0  0  0  0  0  0  0
    3.3933   -7.3694    0.0000 C   0  0  2  0  0  0  0  0  0  0  0  0
    4.1047   -7.7871    0.0000 C   0  0  1  0  0  0  0  0  0  0  0  0
    4.0987   -8.6121    0.0000 O   0  0  0  0  0  0  0  0  0  0  0  0
    2.6758   -7.7766    0.0000 O   0  0  0  0  0  0  0  0  0  0  0  0
    4.1229   -5.3122    0.0000 C   0  0  0  0  0  0  0  0  0  0  0  0
    2.6879   -6.1267    0.0000 O   0  0  0  0  0  0  0  0  0  0  0  0
    8.4305   -5.3257    0.0000 O   0  0  0  0  0  0  0  0  0  0  0  0
    9.1488   -4.9198    0.0000 C   0  0  1  0  0  0  0  0  0  0  0  0
    9.1565   -4.0949    0.0000 C   0  0  1  0  0  0  0  0  0  0  0  0
    9.8594   -5.3390    0.0000 O   0  0  0  0  0  0  0  0  0  0  0  0
   10.5777   -4.9331    0.0000 C   0  0  2  0  0  0  0  0  0  0  0  0
   10.5854   -4.1082    0.0000 C   0  0  1  0  0  0  0  0  0  0  0  0
    9.8748   -3.6890    0.0000 C   0  0  1  0  0  0  0  0  0  0  0  0
    8.4459   -3.6757    0.0000 O   0  0  0  0  0  0  0  0  0  0  0  0
    9.8825   -2.8641    0.0000 O   0  0  0  0  0  0  0  0  0  0  0  0
   11.2883   -5.3523    0.0000 C   0  0  0  0  0  0  0  0  0  0  0  0
   11.3037   -3.7024    0.0000 O   0  0  0  0  0  0  0  0  0  0  0  0
    7.0216   -5.3213    0.0000 O   0  0  0  0  0  0  0  0  0  0  0  0
  1  2  2  0  0  0  0
  2  3  1  0  0  0  0
  3  4  2  0  0  0  0
  4  5  1  0  0  0  0
  5  6  2  0  0  0  0
  6  1  1  0  0  0  0
  4  7  1  0  0  0  0
  7  8  1  0  0  0  0
  8  9  1  0  0  0  0
  9 10  1  0  0  0  0
 10  5  1  0  0  0  0
  3 11  1  0  0  0  0
 12  7  2  0  0  0  0
 13 14  2  0  0  0  0
  9 14  1  6  0  0  0
 13 15  1  0  0  0  0
 15 16  2  0  0  0  0
 16 17  1  0  0  0  0
 17 18  2  0  0  0  0
 18 14  1  0  0  0  0
  1 19  1  0  0  0  0
 20 19  1  1  0  0  0
 20 21  1  0  0  0  0
 20 22  1  0  0  0  0
 22 23  1  0  0  0  0
 23 24  1  0  0  0  0
 24 25  1  0  0  0  0
 25 21  1  0  0  0  0
 23 26  1  1  0  0  0
 25 27  1  1  0  0  0
 21 28  1  6  0  0  0
 29 28  1  1  0  0  0
 29 30  1  0  0  0  0
 30 31  1  0  0  0  0
 31 32  1  0  0  0  0
 32 33  1  0  0  0  0
 33 34  1  0  0  0  0
 34 29  1  0  0  0  0
 34 35  1  6  0  0  0
 33 36  1  6  0  0  0
 31 37  1  6  0  0  0
 32 38  1  1  0  0  0
 40 39  1  1  0  0  0
 40 41  1  0  0  0  0
 40 42  1  0  0  0  0
 42 43  1  0  0  0  0
 43 44  1  0  0  0  0
 44 45  1  0  0  0  0
 45 41  1  0  0  0  0
 41 46  1  6  0  0  0
 45 47  1  6  0  0  0
 43 48  1  6  0  0  0
 44 49  1  1  0  0  0
 24 50  1  6  0  0  0
 26 39  1  0  0  0  0
M  END
>  <cdx:fragmentId>
5

$$$$
