9252.cdx
  Mrv1902 05222410212D          

 80 84  0  0  0  0            999 V2000
    6.3338  -14.6098    0.0000 O   0  0  0  0  0  0  0  0  0  0  0  0
    9.9080  -13.4279    0.0000 O   0  0  0  0  0  0  0  0  0  0  0  0
    7.0507  -13.3852    0.0000 O   0  0  0  0  0  0  0  0  0  0  0  0
    8.4769  -12.5818    0.0000 O   0  0  0  0  0  0  0  0  0  0  0  0
    7.0433  -15.0308    0.0000 C   0  0  0  0  0  0  0  0  0  0  0  0
    9.1911  -13.8362    0.0000 C   0  0  2  0  0  0  0  0  0  0  0  0
    8.4670  -13.4067    0.0000 C   0  0  2  0  0  0  0  0  0  0  0  0
    7.7626  -13.8021    0.0000 C   0  0  1  0  0  0  0  0  0  0  0  0
    7.7626  -14.6268    0.0000 C   0  0  2  0  0  0  0  0  0  0  0  0
    8.4670  -15.0563    0.0000 O   0  0  0  0  0  0  0  0  0  0  0  0
    9.1911  -14.6609    0.0000 C   0  0  1  0  0  0  0  0  0  0  0  0
   24.9629   -5.1299    0.0000 O   0  0  0  0  0  0  0  0  0  0  0  0
   24.2484   -4.7174    0.0000 C   0  0  0  0  0  0  0  0  0  0  0  0
   22.9491   -6.9372    0.0000 O   0  0  0  0  0  0  0  0  0  0  0  0
   21.6675   -6.1870    0.0000 O   0  0  0  0  0  0  0  0  0  0  0  0
   24.2395   -6.2024    0.0000 O   0  0  0  0  0  0  0  0  0  0  0  0
   22.9624   -4.7097    0.0000 O   0  0  0  0  0  0  0  0  0  0  0  0
   23.6032   -5.0848    0.0000 C   0  0  1  0  0  0  0  0  0  0  0  0
   23.5987   -5.8273    0.0000 C   0  0  2  0  0  0  0  0  0  0  0  0
   22.9535   -6.1947    0.0000 C   0  0  1  0  0  0  0  0  0  0  0  0
   22.3127   -5.8196    0.0000 C   0  0  2  0  0  0  0  0  0  0  0  0
   22.3172   -5.0771    0.0000 C   0  0  2  0  0  0  0  0  0  0  0  0
   21.6764   -4.7021    0.0000 O   0  0  0  0  0  0  0  0  0  0  0  0
   18.4026   -3.5868    0.0000 O   0  0  0  0  0  0  0  0  0  0  0  0
   20.9747   -3.6021    0.0000 O   0  0  0  0  0  0  0  0  0  0  0  0
   19.6931   -2.8519    0.0000 O   0  0  0  0  0  0  0  0  0  0  0  0
   20.9658   -5.0871    0.0000 C   0  0  0  0  0  0  0  0  0  0  0  0
   19.6798   -5.0794    0.0000 O   0  0  0  0  0  0  0  0  0  0  0  0
   20.3250   -4.7120    0.0000 C   0  0  1  0  0  0  0  0  0  0  0  0
   20.3294   -3.9695    0.0000 C   0  0  2  0  0  0  0  0  0  0  0  0
   19.6886   -3.5944    0.0000 C   0  0  1  0  0  0  0  0  0  0  0  0
   19.0434   -3.9618    0.0000 C   0  0  2  0  0  0  0  0  0  0  0  0
   19.0390   -4.7043    0.0000 C   0  0  2  0  0  0  0  0  0  0  0  0
   11.8971  -16.1706    0.0000 C   0  0  1  0  0  0  0  0  0  0  0  0
   11.2563  -15.7956    0.0000 C   0  0  1  0  0  0  0  0  0  0  0  0
   11.2608  -15.0531    0.0000 C   0  0  2  0  0  0  0  0  0  0  0  0
   11.9060  -14.6857    0.0000 O   0  0  0  0  0  0  0  0  0  0  0  0
   18.3937   -5.0717    0.0000 O   0  0  0  0  0  0  0  0  0  0  0  0
   15.8040   -8.0263    0.0000 C   0  0  0  0  0  0  0  0  0  0  0  0
   17.1033   -5.8065    0.0000 C   0  0  0  0  0  0  0  0  0  0  0  0
   12.5557  -13.5758    0.0000 O   0  0  0  0  0  0  0  0  0  0  0  0
   17.7441   -6.1816    0.0000 C   0  0  0  0  0  0  0  0  0  0  0  0
   18.3893   -5.8142    0.0000 C   0  0  0  0  0  0  0  0  0  0  0  0
   19.0301   -6.1893    0.0000 O   0  0  0  0  0  0  0  0  0  0  0  0
   17.0944   -7.2915    0.0000 C   0  0  0  0  0  0  0  0  0  0  0  0
   17.7396   -6.9241    0.0000 C   0  0  0  0  0  0  0  0  0  0  0  0
   16.4448   -8.4014    0.0000 C   0  0  0  0  0  0  0  0  0  0  0  0
   17.0900   -8.0340    0.0000 C   0  0  0  0  0  0  0  0  0  0  0  0
   15.7951   -9.5113    0.0000 C   0  0  0  0  0  0  0  0  0  0  0  0
   16.4403   -9.1439    0.0000 C   0  0  0  0  0  0  0  0  0  0  0  0
   15.1454  -10.6212    0.0000 C   0  0  0  0  0  0  0  0  0  0  0  0
   15.7907  -10.2538    0.0000 C   0  0  0  0  0  0  0  0  0  0  0  0
   14.4958  -11.7311    0.0000 C   0  0  0  0  0  0  0  0  0  0  0  0
   15.1410  -11.3637    0.0000 C   0  0  0  0  0  0  0  0  0  0  0  0
   15.7818  -11.7388    0.0000 C   0  0  0  0  0  0  0  0  0  0  0  0
   13.8461  -12.8410    0.0000 C   0  0  0  0  0  0  0  0  0  0  0  0
   14.4913  -12.4736    0.0000 C   0  0  0  0  0  0  0  0  0  0  0  0
   13.8417  -13.5835    0.0000 C   0  0  0  0  0  0  0  0  0  0  0  0
   14.4825  -13.9585    0.0000 C   0  0  0  0  0  0  0  0  0  0  0  0
   13.1965  -13.9509    0.0000 C   0  0  0  0  0  0  0  0  0  0  0  0
   12.5468  -15.0608    0.0000 C   0  0  2  0  0  0  0  0  0  0  0  0
   12.5424  -15.8032    0.0000 C   0  0  2  0  0  0  0  0  0  0  0  0
   11.8927  -16.9131    0.0000 O   0  0  0  0  0  0  0  0  0  0  0  0
   13.1920  -14.6934    0.0000 O   0  0  0  0  0  0  0  0  0  0  0  0
   10.6200  -14.6780    0.0000 C   0  0  0  0  0  0  0  0  0  0  0  0
   10.6111  -16.1630    0.0000 O   0  0  0  0  0  0  0  0  0  0  0  0
   13.1832  -16.1783    0.0000 O   0  0  0  0  0  0  0  0  0  0  0  0
    9.9006  -15.0819    0.0000 O   0  0  0  0  0  0  0  0  0  0  0  0
    5.6144  -15.0137    0.0000 C   0  0  0  0  0  0  0  0  0  0  0  0
    4.9049  -14.5927    0.0000 C   0  0  0  0  0  0  0  0  0  0  0  0
    5.6046  -15.8386    0.0000 O   0  0  0  0  0  0  0  0  0  0  0  0
    4.1856  -14.9966    0.0000 C   0  0  0  0  0  0  0  0  0  0  0  0
    3.4761  -14.5756    0.0000 C   0  0  0  0  0  0  0  0  0  0  0  0
    3.4908  -13.7508    0.0000 C   0  0  0  0  0  0  0  0  0  0  0  0
    2.7838  -13.3256    0.0000 C   0  0  0  0  0  0  0  0  0  0  0  0
    2.0621  -13.7508    0.0000 C   0  0  0  0  0  0  0  0  0  0  0  0
    2.0621  -14.5756    0.0000 C   0  0  0  0  0  0  0  0  0  0  0  0
    2.7838  -15.0008    0.0000 C   0  0  0  0  0  0  0  0  0  0  0  0
    1.3458  -13.3414    0.0000 O   0  0  0  0  0  0  0  0  0  0  0  0
    1.3458  -14.9850    0.0000 O   0  0  0  0  0  0  0  0  0  0  0  0
 23 27  1  0  0  0  0
  5  1  1  0  0  0  0
  6  2  1  1  0  0  0
  8  3  1  1  0  0  0
  7  4  1  6  0  0  0
  9  5  1  6  0  0  0
  6 11  1  0  0  0  0
  7  6  1  0  0  0  0
  8  7  1  0  0  0  0
  9  8  1  0  0  0  0
 10  9  1  0  0  0  0
 11 10  1  0  0  0  0
 11 68  1  6  0  0  0
 13 12  1  0  0  0  0
 18 13  1  6  0  0  0
 20 14  1  6  0  0  0
 21 15  1  1  0  0  0
 19 16  1  1  0  0  0
 17 22  1  0  0  0  0
 18 17  1  0  0  0  0
 19 18  1  0  0  0  0
 20 19  1  0  0  0  0
 21 20  1  0  0  0  0
 22 21  1  0  0  0  0
 22 23  1  6  0  0  0
 32 24  1  6  0  0  0
 30 25  1  6  0  0  0
 31 26  1  1  0  0  0
 29 27  1  1  0  0  0
 28 33  1  0  0  0  0
 29 28  1  0  0  0  0
 30 29  1  0  0  0  0
 31 30  1  0  0  0  0
 32 31  1  0  0  0  0
 33 32  1  0  0  0  0
 33 38  1  1  0  0  0
 43 38  1  0  0  0  0
 47 39  1  0  0  0  0
 42 40  1  0  0  0  0
 60 41  2  0  0  0  0
 42 46  2  0  0  0  0
 43 42  1  0  0  0  0
 44 43  2  0  0  0  0
 45 48  2  0  0  0  0
 46 45  1  0  0  0  0
 47 50  2  0  0  0  0
 48 47  1  0  0  0  0
 49 52  2  0  0  0  0
 50 49  1  0  0  0  0
 51 54  2  0  0  0  0
 52 51  1  0  0  0  0
 53 57  2  0  0  0  0
 54 53  1  0  0  0  0
 55 54  1  0  0  0  0
 56 58  2  0  0  0  0
 57 56  1  0  0  0  0
 58 60  1  0  0  0  0
 59 58  1  0  0  0  0
 64 60  1  0  0  0  0
 34 35  1  0  0  0  0
 35 36  1  0  0  0  0
 36 37  1  0  0  0  0
 37 61  1  0  0  0  0
 61 62  1  0  0  0  0
 62 34  1  0  0  0  0
 34 63  1  1  0  0  0
 61 64  1  1  0  0  0
 36 65  1  1  0  0  0
 35 66  1  6  0  0  0
 62 67  1  6  0  0  0
 65 68  1  0  0  0  0
  1 69  1  0  0  0  0
 69 70  1  0  0  0  0
 69 71  2  0  0  0  0
 70 72  2  0  0  0  0
 72 73  1  0  0  0  0
 73 74  2  0  0  0  0
 74 75  1  0  0  0  0
 75 76  2  0  0  0  0
 76 77  1  0  0  0  0
 77 78  2  0  0  0  0
 78 73  1  0  0  0  0
 76 79  1  0  0  0  0
 77 80  1  0  0  0  0
M  END
>  <cdx:fragmentId>
296

$$$$
