92526.cdx
  Mrv1902 05222410232D          

 10 10  0  0  0  0            999 V2000
    5.6488   -6.7105    0.0000 C   0  0  0  0  0  0  0  0  0  0  0  0
    5.2363   -7.4250    0.0000 C   0  0  2  0  0  0  0  0  0  0  0  0
    5.6488   -8.1395    0.0000 C   0  0  0  0  0  0  0  0  0  0  0  0
    6.4738   -8.1395    0.0000 C   0  0  0  0  0  0  0  0  0  0  0  0
    6.8863   -7.4250    0.0000 C   0  0  0  0  0  0  0  0  0  0  0  0
    6.4738   -6.7105    0.0000 C   0  0  0  0  0  0  0  0  0  0  0  0
    4.4113   -7.4250    0.0000 C   0  0  0  0  0  0  0  0  0  0  0  0
    7.7113   -7.4250    0.0000 C   0  0  0  0  0  0  0  0  0  0  0  0
    8.1238   -6.7105    0.0000 C   0  0  0  0  0  0  0  0  0  0  0  0
    8.1238   -8.1395    0.0000 C   0  0  0  0  0  0  0  0  0  0  0  0
  1  2  1  0  0  0  0
  2  3  1  0  0  0  0
  3  4  2  0  0  0  0
  4  5  1  0  0  0  0
  5  6  1  0  0  0  0
  6  1  1  0  0  0  0
  2  7  1  6  0  0  0
  8  5  1  6  0  0  0
  8  9  1  0  0  0  0
  8 10  2  0  0  0  0
M  END
>  <cdx:fragmentId>
5

$$$$
