92529.cdx
  Mrv1902 05222410242D          

 28 30  0  0  0  0            999 V2000
    7.0793   -2.3238    0.0000 C   0  0  0  0  0  0  0  0  0  0  0  0
    7.0793   -3.1488    0.0000 C   0  0  0  0  0  0  0  0  0  0  0  0
    7.7938   -3.5612    0.0000 C   0  0  0  0  0  0  0  0  0  0  0  0
    8.5082   -3.1488    0.0000 C   0  0  0  0  0  0  0  0  0  0  0  0
    8.5082   -2.3238    0.0000 C   0  0  0  0  0  0  0  0  0  0  0  0
    7.7938   -1.9112    0.0000 C   0  0  0  0  0  0  0  0  0  0  0  0
    6.3648   -3.5612    0.0000 C   0  0  0  0  0  0  0  0  0  0  0  0
    9.2227   -1.9112    0.0000 O   0  0  0  0  0  0  0  0  0  0  0  0
    6.3648   -4.3862    0.0000 C   0  0  0  0  0  0  0  0  0  0  0  0
    7.0793   -4.7988    0.0000 C   0  0  0  0  0  0  0  0  0  0  0  0
    7.0793   -5.6238    0.0000 C   0  0  0  0  0  0  0  0  0  0  0  0
    7.7938   -6.0362    0.0000 C   0  0  0  0  0  0  0  0  0  0  0  0
    8.5082   -5.6238    0.0000 C   0  0  0  0  0  0  0  0  0  0  0  0
    8.5082   -4.7988    0.0000 C   0  0  0  0  0  0  0  0  0  0  0  0
    7.7938   -4.3862    0.0000 C   0  0  0  0  0  0  0  0  0  0  0  0
    9.2227   -4.3862    0.0000 O   0  0  0  0  0  0  0  0  0  0  0  0
    7.7938   -6.8613    0.0000 O   0  0  0  0  0  0  0  0  0  0  0  0
    7.0793   -7.2738    0.0000 C   0  0  2  0  0  0  0  0  0  0  0  0
    6.3648   -6.8613    0.0000 O   0  0  0  0  0  0  0  0  0  0  0  0
    5.6504   -7.2738    0.0000 C   0  0  1  0  0  0  0  0  0  0  0  0
    5.6504   -8.0987    0.0000 C   0  0  2  0  0  0  0  0  0  0  0  0
    6.3648   -8.5113    0.0000 C   0  0  1  0  0  0  0  0  0  0  0  0
    7.0793   -8.0987    0.0000 C   0  0  1  0  0  0  0  0  0  0  0  0
    4.9359   -6.8613    0.0000 C   0  0  0  0  0  0  0  0  0  0  0  0
    6.3648   -9.3362    0.0000 O   0  0  0  0  0  0  0  0  0  0  0  0
    4.9359   -8.5113    0.0000 O   0  0  0  0  0  0  0  0  0  0  0  0
    7.7938   -8.5113    0.0000 O   0  0  0  0  0  0  0  0  0  0  0  0
    4.2214   -7.2738    0.0000 O   0  0  0  0  0  0  0  0  0  0  0  0
  1  2  2  0  0  0  0
  2  3  1  0  0  0  0
  3  4  2  0  0  0  0
  4  5  1  0  0  0  0
  5  6  2  0  0  0  0
  6  1  1  0  0  0  0
  2  7  1  0  0  0  0
  5  8  1  0  0  0  0
  7  9  2  0  0  0  0
  9 10  1  0  0  0  0
 10 11  2  0  0  0  0
 11 12  1  0  0  0  0
 12 13  2  0  0  0  0
 13 14  1  0  0  0  0
 14 15  2  0  0  0  0
 15 10  1  0  0  0  0
 14 16  1  0  0  0  0
 12 17  1  0  0  0  0
 18 17  1  1  0  0  0
 18 19  1  0  0  0  0
 19 20  1  0  0  0  0
 20 21  1  0  0  0  0
 21 22  1  0  0  0  0
 22 23  1  0  0  0  0
 23 18  1  0  0  0  0
 20 24  1  1  0  0  0
 22 25  1  1  0  0  0
 21 26  1  6  0  0  0
 23 27  1  6  0  0  0
 24 28  1  0  0  0  0
M  END
>  <cdx:fragmentId>
5

$$$$
