92523.cdx
  Mrv1902 05222410212D          

 36 41  0  0  0  0            999 V2000
    3.7931   -8.8825    0.0000 C   0  0  0  0  0  0  0  0  0  0  0  0
    3.7931   -9.7075    0.0000 C   0  0  1  0  0  0  0  0  0  0  0  0
    4.5075  -10.1200    0.0000 C   0  0  0  0  0  0  0  0  0  0  0  0
    5.2220   -9.7075    0.0000 C   0  0  0  0  0  0  0  0  0  0  0  0
    5.2220   -8.8825    0.0000 C   0  0  2  0  0  0  0  0  0  0  0  0
    4.5075   -8.4700    0.0000 C   0  0  0  0  0  0  0  0  0  0  0  0
    5.9365  -10.1200    0.0000 C   0  0  0  0  0  0  0  0  0  0  0  0
    6.6509   -9.7075    0.0000 C   0  0  0  0  0  0  0  0  0  0  0  0
    6.6509   -8.8825    0.0000 C   0  0  2  0  0  0  0  0  0  0  0  0
    5.9365   -8.4700    0.0000 C   0  0  2  0  0  0  0  0  0  0  0  0
    7.2640   -8.3305    0.0000 C   0  0  1  0  0  0  0  0  0  0  0  0
    6.9285   -7.5768    0.0000 C   0  0  0  0  0  0  0  0  0  0  0  0
    6.1080   -7.6630    0.0000 C   0  0  0  0  0  0  0  0  0  0  0  0
    8.0845   -8.4167    0.0000 C   0  0  0  0  0  0  0  0  0  0  0  0
    8.5694   -7.7493    0.0000 C   0  0  0  0  0  0  0  0  0  0  0  0
    8.2339   -6.9956    0.0000 C   0  0  2  0  0  0  0  0  0  0  0  0
    7.4134   -6.9094    0.0000 C   0  0  0  0  0  0  0  0  0  0  0  0
    9.0589   -6.9956    0.0000 C   0  0  1  0  0  0  0  0  0  0  0  0
    9.3138   -6.2110    0.0000 C   0  0  1  0  0  0  0  0  0  0  0  0
    8.6464   -5.7260    0.0000 C   0  0  2  0  0  0  0  0  0  0  0  0
    7.9789   -6.2110    0.0000 O   0  0  0  0  0  0  0  0  0  0  0  0
   10.0675   -5.8754    0.0000 N   0  0  0  0  0  0  0  0  0  0  0  0
   10.1537   -5.0549    0.0000 C   0  0  0  0  0  0  0  0  0  0  0  0
    9.4863   -4.5700    0.0000 C   0  0  2  0  0  0  0  0  0  0  0  0
    8.7326   -4.9056    0.0000 C   0  0  0  0  0  0  0  0  0  0  0  0
    5.5560   -7.0499    0.0000 O   0  0  0  0  0  0  0  0  0  0  0  0
    7.0778   -6.1557    0.0000 C   0  0  0  0  0  0  0  0  0  0  0  0
    9.5725   -3.7495    0.0000 C   0  0  0  0  0  0  0  0  0  0  0  0
    9.9269   -6.7630    0.0000 H   0  0  0  0  0  0  0  0  0  0  0  0
    7.6765   -9.0449    0.0000 H   0  0  0  0  0  0  0  0  0  0  0  0
    5.9365   -9.2950    0.0000 H   0  0  0  0  0  0  0  0  0  0  0  0
    3.0786  -10.1200    0.0000 O   0  0  0  0  0  0  0  0  0  0  0  0
    5.2220   -8.0575    0.0000 C   0  0  0  0  0  0  0  0  0  0  0  0
    7.3654   -9.2950    0.0000 H   0  0  0  0  0  0  0  0  0  0  0  0
    9.5438   -7.6630    0.0000 C   0  0  0  0  0  0  0  0  0  0  0  0
    8.0630   -5.1427    0.0000 H   0  0  0  0  0  0  0  0  0  0  0  0
  1  2  1  0  0  0  0
  2  3  1  0  0  0  0
  3  4  1  0  0  0  0
  4  5  1  0  0  0  0
  5  6  1  0  0  0  0
  6  1  1  0  0  0  0
  4  7  2  0  0  0  0
  7  8  1  0  0  0  0
  8  9  1  0  0  0  0
  9 10  1  0  0  0  0
 10  5  1  0  0  0  0
  9 11  1  0  0  0  0
 11 12  1  0  0  0  0
 12 13  1  0  0  0  0
 13 10  1  0  0  0  0
 11 14  1  0  0  0  0
 14 15  1  0  0  0  0
 15 16  1  0  0  0  0
 16 17  1  0  0  0  0
 17 12  2  0  0  0  0
 16 18  1  0  0  0  0
 18 19  1  0  0  0  0
 19 20  1  0  0  0  0
 20 21  1  0  0  0  0
 16 21  1  1  0  0  0
 19 22  1  0  0  0  0
 22 23  1  0  0  0  0
 23 24  1  0  0  0  0
 24 25  1  0  0  0  0
 25 20  1  0  0  0  0
 13 26  2  0  0  0  0
 17 27  1  0  0  0  0
 24 28  1  6  0  0  0
 19 29  1  6  0  0  0
 11 30  1  6  0  0  0
 10 31  1  6  0  0  0
  2 32  1  1  0  0  0
  5 33  1  1  0  0  0
  9 34  1  1  0  0  0
 18 35  1  1  0  0  0
 20 36  1  1  0  0  0
M  END
>  <cdx:fragmentId>
5

$$$$
