92527.cdx
  Mrv1902 05222410222D          

 13 13  0  0  0  0            999 V2000
    6.8369   -3.7079    0.0000 C   0  0  0  0  0  0  0  0  0  0  0  0
    6.1175   -4.1117    0.0000 C   0  0  0  0  0  0  0  0  0  0  0  0
    6.1076   -4.9367    0.0000 C   0  0  0  0  0  0  0  0  0  0  0  0
    6.8170   -5.3577    0.0000 C   0  0  0  0  0  0  0  0  0  0  0  0
    7.5364   -4.9539    0.0000 C   0  0  0  0  0  0  0  0  0  0  0  0
    7.5464   -4.1289    0.0000 C   0  0  0  0  0  0  0  0  0  0  0  0
    5.3882   -5.3405    0.0000 O   0  0  0  0  0  0  0  0  0  0  0  0
    8.2657   -3.7251    0.0000 C   0  0  0  0  0  0  0  0  0  0  0  0
    8.9752   -4.1462    0.0000 C   0  0  0  0  0  0  0  0  0  0  0  0
    8.9653   -4.9711    0.0000 C   0  0  0  0  0  0  0  0  0  0  0  0
    9.6747   -5.3922    0.0000 O   0  0  0  0  0  0  0  0  0  0  0  0
    8.2459   -5.3750    0.0000 O   0  0  0  0  0  0  0  0  0  0  0  0
    9.6648   -6.2171    0.0000 C   0  0  0  0  0  0  0  0  0  0  0  0
  1  2  2  0  0  0  0
  2  3  1  0  0  0  0
  3  4  2  0  0  0  0
  4  5  1  0  0  0  0
  5  6  2  0  0  0  0
  6  1  1  0  0  0  0
  3  7  1  0  0  0  0
  6  8  1  0  0  0  0
  8  9  2  0  0  0  0
  9 10  1  0  0  0  0
 10 11  1  0  0  0  0
 10 12  2  0  0  0  0
 11 13  1  0  0  0  0
M  END
>  <cdx:fragmentId>
5

$$$$
