92528.cdx
  Mrv1902 05222410242D          

 13 14  0  0  0  0            999 V2000
    7.2578   -8.6162    0.0000 C   0  0  0  0  0  0  0  0  0  0  0  0
    6.5308   -7.9664    0.0000 C   0  0  1  0  0  0  0  0  0  0  0  0
    5.3954   -9.0434    0.0000 C   0  0  1  0  0  0  0  0  0  0  0  0
    4.8827   -8.5673    0.0000 C   0  0  0  0  0  0  0  0  0  0  0  0
    5.0745   -8.0513    0.0000 C   0  0  0  0  0  0  0  0  0  0  0  0
    6.1778   -8.6330    0.0000 C   0  0  2  0  0  0  0  0  0  0  0  0
    5.9088   -7.3022    0.0000 C   0  0  0  0  0  0  0  0  0  0  0  0
    4.0801   -8.7581    0.0000 O   0  0  0  0  0  0  0  0  0  0  0  0
    8.0547   -8.4027    0.0000 C   0  0  0  0  0  0  0  0  0  0  0  0
    7.4713   -9.4131    0.0000 C   0  0  0  0  0  0  0  0  0  0  0  0
    5.2863   -9.8612    0.0000 C   0  0  0  0  0  0  0  0  0  0  0  0
    6.3813   -9.4325    0.0000 H   0  0  0  0  0  0  0  0  0  0  0  0
    7.1074   -7.3763    0.0000 H   0  0  0  0  0  0  0  0  0  0  0  0
  6  1  1  0  0  0  0
  1  2  1  0  0  0  0
  2  7  1  0  0  0  0
  6  3  1  0  0  0  0
  3  4  1  0  0  0  0
  4  5  1  0  0  0  0
  2  5  1  0  0  0  0
  6  7  1  0  0  0  0
  4  8  2  0  0  0  0
  1  9  1  0  0  0  0
  1 10  1  0  0  0  0
  3 11  1  1  0  0  0
  6 12  1  1  0  0  0
  2 13  1  6  0  0  0
M  END
>  <cdx:groupId>
813

>  <cdx:fragmentId>
814

$$$$
