92522.cdx
  Mrv1902 05222410202D          

 12 12  0  0  0  0            999 V2000
    6.1079   -7.4251    0.0000 C   0  0  0  0  0  0  0  0  0  0  0  0
    6.3809   -8.2036    0.0000 C   0  0  0  0  0  0  0  0  0  0  0  0
    7.2057   -8.1845    0.0000 C   0  0  0  0  0  0  0  0  0  0  0  0
    7.4424   -7.3942    0.0000 C   0  0  0  0  0  0  0  0  0  0  0  0
    6.7639   -6.9249    0.0000 C   0  0  0  0  0  0  0  0  0  0  0  0
    8.2209   -7.1212    0.0000 C   0  0  0  0  0  0  0  0  0  0  0  0
    5.3176   -7.1883    0.0000 O   0  0  0  0  0  0  0  0  0  0  0  0
    6.7449   -6.1001    0.0000 C   0  0  0  0  0  0  0  0  0  0  0  0
    7.4496   -5.6712    0.0000 C   0  0  0  0  0  0  0  0  0  0  0  0
    7.4305   -4.8464    0.0000 C   0  0  0  0  0  0  0  0  0  0  0  0
    6.7161   -4.4339    0.0000 C   0  0  0  0  0  0  0  0  0  0  0  0
    6.7161   -3.6089    0.0000 C   0  0  0  0  0  0  0  0  0  0  0  0
  1  2  1  0  0  0  0
  2  3  1  0  0  0  0
  3  4  1  0  0  0  0
  4  5  2  0  0  0  0
  5  1  1  0  0  0  0
  4  6  1  0  0  0  0
  1  7  2  0  0  0  0
  5  8  1  0  0  0  0
  8  9  1  0  0  0  0
  9 10  2  0  0  0  0
 10 11  1  0  0  0  0
 11 12  1  0  0  0  0
M  END
>  <cdx:fragmentId>
5

$$$$
