92525.cdx
  Mrv1902 05222410222D          

 33 36  0  0  0  0            999 V2000
    3.3118   -5.0600    0.0000 C   0  0  0  0  0  0  0  0  0  0  0  0
    3.3118   -5.8850    0.0000 C   0  0  0  0  0  0  0  0  0  0  0  0
    4.0263   -6.2975    0.0000 C   0  0  0  0  0  0  0  0  0  0  0  0
    4.7407   -5.8850    0.0000 C   0  0  0  0  0  0  0  0  0  0  0  0
    4.7407   -5.0600    0.0000 C   0  0  0  0  0  0  0  0  0  0  0  0
    4.0263   -4.6475    0.0000 C   0  0  0  0  0  0  0  0  0  0  0  0
    5.4552   -6.2975    0.0000 C   0  0  0  0  0  0  0  0  0  0  0  0
    6.1697   -5.8850    0.0000 C   0  0  0  0  0  0  0  0  0  0  0  0
    6.1697   -5.0600    0.0000 C   0  0  0  0  0  0  0  0  0  0  0  0
    5.4552   -4.6475    0.0000 O   0  0  0  0  0  0  0  0  0  0  0  0
    6.8842   -6.2975    0.0000 O   0  0  0  0  0  0  0  0  0  0  0  0
    7.5986   -5.0600    0.0000 C   0  0  0  0  0  0  0  0  0  0  0  0
    6.8842   -4.6475    0.0000 C   0  0  0  0  0  0  0  0  0  0  0  0
    8.3131   -4.6475    0.0000 C   0  0  0  0  0  0  0  0  0  0  0  0
    8.3131   -3.8225    0.0000 C   0  0  0  0  0  0  0  0  0  0  0  0
    7.5986   -3.4100    0.0000 C   0  0  0  0  0  0  0  0  0  0  0  0
    6.8842   -3.8225    0.0000 C   0  0  0  0  0  0  0  0  0  0  0  0
    2.5973   -4.6475    0.0000 O   0  0  0  0  0  0  0  0  0  0  0  0
    4.0263   -7.1225    0.0000 O   0  0  0  0  0  0  0  0  0  0  0  0
    5.4552   -7.1225    0.0000 O   0  0  0  0  0  0  0  0  0  0  0  0
    9.0276   -3.4100    0.0000 O   0  0  0  0  0  0  0  0  0  0  0  0
    9.7420   -3.8225    0.0000 C   0  0  0  0  0  0  0  0  0  0  0  0
    6.8842   -7.1225    0.0000 C   0  0  2  0  0  0  0  0  0  0  0  0
    6.1697   -7.5350    0.0000 O   0  0  0  0  0  0  0  0  0  0  0  0
    6.1697   -8.3600    0.0000 C   0  0  1  0  0  0  0  0  0  0  0  0
    6.8842   -8.7725    0.0000 C   0  0  2  0  0  0  0  0  0  0  0  0
    7.5986   -8.3600    0.0000 C   0  0  1  0  0  0  0  0  0  0  0  0
    7.5986   -7.5350    0.0000 C   0  0  1  0  0  0  0  0  0  0  0  0
    5.4552   -8.7725    0.0000 C   0  0  0  0  0  0  0  0  0  0  0  0
    8.3131   -8.7725    0.0000 O   0  0  0  0  0  0  0  0  0  0  0  0
    8.3131   -7.1225    0.0000 O   0  0  0  0  0  0  0  0  0  0  0  0
    6.8842   -9.5975    0.0000 O   0  0  0  0  0  0  0  0  0  0  0  0
    5.4552   -9.5975    0.0000 O   0  0  0  0  0  0  0  0  0  0  0  0
  1  2  2  0  0  0  0
  2  3  1  0  0  0  0
  3  4  2  0  0  0  0
  4  5  1  0  0  0  0
  5  6  2  0  0  0  0
  6  1  1  0  0  0  0
  4  7  1  0  0  0  0
  7  8  1  0  0  0  0
  8  9  2  0  0  0  0
  9 10  1  0  0  0  0
 10  5  1  0  0  0  0
  8 11  1  0  0  0  0
 12 13  2  0  0  0  0
 13  9  1  0  0  0  0
 12 14  1  0  0  0  0
 14 15  2  0  0  0  0
 15 16  1  0  0  0  0
 16 17  2  0  0  0  0
 17 13  1  0  0  0  0
  1 18  1  0  0  0  0
  3 19  1  0  0  0  0
  7 20  2  0  0  0  0
 15 21  1  0  0  0  0
 21 22  1  0  0  0  0
 23 11  1  1  0  0  0
 23 24  1  0  0  0  0
 24 25  1  0  0  0  0
 25 26  1  0  0  0  0
 26 27  1  0  0  0  0
 27 28  1  0  0  0  0
 28 23  1  0  0  0  0
 25 29  1  1  0  0  0
 27 30  1  1  0  0  0
 28 31  1  6  0  0  0
 26 32  1  6  0  0  0
 29 33  1  0  0  0  0
M  END
>  <cdx:fragmentId>
5

$$$$
