92530.cdx
  Mrv1902 05222410222D          

 45 51  0  0  0  0            999 V2000
    4.4393   -3.2313    0.0000 C   0  0  0  0  0  0  0  0  0  0  0  0
    4.4393   -4.0563    0.0000 C   0  0  0  0  0  0  0  0  0  0  0  0
    5.1538   -4.4688    0.0000 C   0  0  0  0  0  0  0  0  0  0  0  0
    5.8682   -4.0563    0.0000 C   0  0  0  0  0  0  0  0  0  0  0  0
    5.8682   -3.2313    0.0000 C   0  0  0  0  0  0  0  0  0  0  0  0
    5.1538   -2.8188    0.0000 C   0  0  0  0  0  0  0  0  0  0  0  0
    3.7248   -2.8188    0.0000 C   0  0  0  0  0  0  0  0  0  0  0  0
    3.0104   -3.2313    0.0000 C   0  0  0  0  0  0  0  0  0  0  0  0
    3.0104   -4.0563    0.0000 N   0  0  0  0  0  0  0  0  0  0  0  0
    3.7248   -4.4687    0.0000 C   0  0  0  0  0  0  0  0  0  0  0  0
    3.7248   -5.6925    0.0000 C   0  0  0  0  0  0  0  0  0  0  0  0
    4.4393   -6.1050    0.0000 C   0  0  0  0  0  0  0  0  0  0  0  0
    5.1538   -5.6925    0.0000 C   0  0  0  0  0  0  0  0  0  0  0  0
    4.4393   -6.9300    0.0000 C   0  0  0  0  0  0  0  0  0  0  0  0
    5.1538   -7.3425    0.0000 C   0  0  0  0  0  0  0  0  0  0  0  0
    5.8682   -6.9300    0.0000 C   0  0  0  0  0  0  0  0  0  0  0  0
    5.8682   -6.1050    0.0000 C   0  0  0  0  0  0  0  0  0  0  0  0
    6.5827   -2.8188    0.0000 O   0  0  0  0  0  0  0  0  0  0  0  0
    5.1538   -5.2938    0.0000 O   0  0  0  0  0  0  0  0  0  0  0  0
    6.5827   -4.4688    0.0000 O   0  0  0  0  0  0  0  0  0  0  0  0
    6.5827   -7.3425    0.0000 O   0  0  0  0  0  0  0  0  0  0  0  0
    7.2152   -8.2500    0.0000 C   0  0  0  0  0  0  0  0  0  0  0  0
    6.4907   -8.6446    0.0000 C   0  0  0  0  0  0  0  0  0  0  0  0
    6.4702   -9.4694    0.0000 C   0  0  0  0  0  0  0  0  0  0  0  0
    7.1742   -9.8995    0.0000 C   0  0  0  0  0  0  0  0  0  0  0  0
    7.8987   -9.5049    0.0000 C   0  0  0  0  0  0  0  0  0  0  0  0
    7.9192   -8.6801    0.0000 C   0  0  0  0  0  0  0  0  0  0  0  0
    8.6027   -9.9350    0.0000 C   0  0  0  0  0  0  0  0  0  0  0  0
    9.3272   -9.5404    0.0000 C   0  0  0  0  0  0  0  0  0  0  0  0
    9.3477   -8.7157    0.0000 N   0  0  0  0  0  0  0  0  0  0  0  0
    8.6437   -8.2855    0.0000 C   0  0  0  0  0  0  0  0  0  0  0  0
    5.7867   -8.2145    0.0000 O   0  0  0  0  0  0  0  0  0  0  0  0
    5.7457   -9.8640    0.0000 O   0  0  0  0  0  0  0  0  0  0  0  0
   10.0722   -8.3210    0.0000 C   0  0  0  0  0  0  0  0  0  0  0  0
    7.2972   -4.0563    0.0000 C   0  0  0  0  0  0  0  0  0  0  0  0
    8.0117   -4.4688    0.0000 C   0  0  0  0  0  0  0  0  0  0  0  0
    8.0117   -5.2938    0.0000 C   0  0  0  0  0  0  0  0  0  0  0  0
    8.7261   -5.7062    0.0000 C   0  0  0  0  0  0  0  0  0  0  0  0
    9.4406   -5.2938    0.0000 C   0  0  0  0  0  0  0  0  0  0  0  0
    9.4406   -4.4688    0.0000 C   0  0  0  0  0  0  0  0  0  0  0  0
    8.7261   -4.0563    0.0000 C   0  0  0  0  0  0  0  0  0  0  0  0
   10.1551   -5.7062    0.0000 C   0  0  0  0  0  0  0  0  0  0  0  0
    6.5827   -1.9938    0.0000 C   0  0  0  0  0  0  0  0  0  0  0  0
    5.0417   -9.4338    0.0000 C   0  0  0  0  0  0  0  0  0  0  0  0
    5.0722   -8.6270    0.0000 C   0  0  0  0  0  0  0  0  0  0  0  0
  1  2  1  0  0  0  0
  2  3  2  0  0  0  0
  3  4  1  0  0  0  0
  4  5  2  0  0  0  0
  5  6  1  0  0  0  0
  6  1  2  0  0  0  0
  1  7  1  0  0  0  0
  7  8  1  0  0  0  0
  8  9  1  0  0  0  0
  9 10  2  0  0  0  0
 10  2  1  0  0  0  0
 10 11  1  0  0  0  0
 11 12  1  0  0  0  0
 12 13  2  0  0  0  0
 12 14  1  0  0  0  0
 14 15  2  0  0  0  0
 15 16  1  0  0  0  0
 16 17  2  0  0  0  0
 17 13  1  0  0  0  0
  5 18  1  0  0  0  0
  3 19  1  0  0  0  0
  4 20  1  0  0  0  0
 16 21  1  0  0  0  0
 21 22  1  0  0  0  0
 22 23  2  0  0  0  0
 23 24  1  0  0  0  0
 24 25  2  0  0  0  0
 25 26  1  0  0  0  0
 26 27  2  0  0  0  0
 27 22  1  0  0  0  0
 26 28  1  0  0  0  0
 28 29  1  0  0  0  0
 29 30  1  0  0  0  0
 30 31  1  0  0  0  0
 31 27  1  0  0  0  0
 23 32  1  0  0  0  0
 24 33  1  0  0  0  0
 30 34  1  0  0  0  0
 20 35  1  0  0  0  0
 35 36  1  0  0  0  0
 36 37  2  0  0  0  0
 37 38  1  0  0  0  0
 38 39  2  0  0  0  0
 39 40  1  0  0  0  0
 40 41  2  0  0  0  0
 41 36  1  0  0  0  0
 39 42  1  0  0  0  0
 42 31  1  0  0  0  0
 18 43  1  0  0  0  0
 33 44  1  0  0  0  0
 32 45  1  0  0  0  0
M  END
>  <cdx:fragmentId>
5

$$$$
