92539.cdx
  Mrv1902 05222410252D          

  4  4  0  0  0  0            999 V2000
    6.8038   -5.7888    0.0000 C   0  0  0  0  0  0  0  0  0  0  0  0
    6.8038   -6.6137    0.0000 C   0  0  0  0  0  0  0  0  0  0  0  0
    7.6288   -6.6137    0.0000 C   0  0  0  0  0  0  0  0  0  0  0  0
    7.6288   -5.7888    0.0000 C   0  0  0  0  0  0  0  0  0  0  0  0
  1  2  1  0  0  0  0
  2  3  1  0  0  0  0
  3  4  1  0  0  0  0
  4  1  1  0  0  0  0
M  END
>  <cdx:fragmentId>
5

$$$$
