92538.cdx
  Mrv1902 05222410252D          

 34 38  0  0  0  0            999 V2000
    3.7656   -9.2263    0.0000 C   0  0  0  0  0  0  0  0  0  0  0  0
    3.7656  -10.0512    0.0000 C   0  0  0  0  0  0  0  0  0  0  0  0
    4.4800  -10.4637    0.0000 C   0  0  0  0  0  0  0  0  0  0  0  0
    5.1945  -10.0512    0.0000 C   0  0  1  0  0  0  0  0  0  0  0  0
    5.1945   -9.2263    0.0000 C   0  0  2  0  0  0  0  0  0  0  0  0
    4.4800   -8.8138    0.0000 C   0  0  0  0  0  0  0  0  0  0  0  0
    5.9090  -10.4637    0.0000 C   0  0  0  0  0  0  0  0  0  0  0  0
    6.6234  -10.0512    0.0000 C   0  0  0  0  0  0  0  0  0  0  0  0
    6.6234   -9.2263    0.0000 C   0  0  2  0  0  0  0  0  0  0  0  0
    5.9090   -8.8138    0.0000 C   0  0  1  0  0  0  0  0  0  0  0  0
    7.3379   -8.8138    0.0000 C   0  0  2  0  0  0  0  0  0  0  0  0
    7.3379   -7.9888    0.0000 C   0  0  1  0  0  0  0  0  0  0  0  0
    6.6234   -7.5762    0.0000 C   0  0  0  0  0  0  0  0  0  0  0  0
    5.9090   -7.9888    0.0000 C   0  0  0  0  0  0  0  0  0  0  0  0
    3.0511  -10.4637    0.0000 O   0  0  0  0  0  0  0  0  0  0  0  0
    4.0675  -11.1782    0.0000 C   0  0  0  0  0  0  0  0  0  0  0  0
    4.8925  -11.1782    0.0000 C   0  0  0  0  0  0  0  0  0  0  0  0
    7.3379   -7.1638    0.0000 C   0  0  0  0  0  0  0  0  0  0  0  0
    5.1945   -8.4013    0.0000 C   0  0  0  0  0  0  0  0  0  0  0  0
    6.6234   -8.4013    0.0000 H   0  0  0  0  0  0  0  0  0  0  0  0
    5.1945  -10.8762    0.0000 H   0  0  0  0  0  0  0  0  0  0  0  0
    7.3379   -9.6387    0.0000 C   0  0  0  0  0  0  0  0  0  0  0  0
    8.1225   -9.0687    0.0000 C   0  0  0  0  0  0  0  0  0  0  0  0
    8.6075   -8.4013    0.0000 C   0  0  0  0  0  0  0  0  0  0  0  0
    8.1225   -7.7338    0.0000 C   0  0  2  0  0  0  0  0  0  0  0  0
    8.3775   -6.9492    0.0000 C   0  0  2  0  0  0  0  0  0  0  0  0
    7.8254   -6.3361    0.0000 C   0  0  0  0  0  0  0  0  0  0  0  0
    9.1844   -6.7777    0.0000 C   0  0  0  0  0  0  0  0  0  0  0  0
    9.4394   -5.9930    0.0000 C   0  0  0  0  0  0  0  0  0  0  0  0
   10.2464   -5.8215    0.0000 C   0  0  0  0  0  0  0  0  0  0  0  0
   10.5013   -5.0369    0.0000 C   0  0  0  0  0  0  0  0  0  0  0  0
    9.9493   -4.4238    0.0000 C   0  0  0  0  0  0  0  0  0  0  0  0
   11.3083   -4.8654    0.0000 C   0  0  0  0  0  0  0  0  0  0  0  0
    8.9072   -7.4789    0.0000 H   0  0  0  0  0  0  0  0  0  0  0  0
  1  2  1  0  0  0  0
  2  3  1  0  0  0  0
  3  4  1  0  0  0  0
  4  5  1  0  0  0  0
  5  6  1  0  0  0  0
  6  1  1  0  0  0  0
  4  7  1  0  0  0  0
  7  8  1  0  0  0  0
  8  9  1  0  0  0  0
  9 10  1  0  0  0  0
 10  5  1  0  0  0  0
  9 11  1  0  0  0  0
 11 12  1  0  0  0  0
 12 13  1  0  0  0  0
 13 14  1  0  0  0  0
 14 10  1  0  0  0  0
  2 15  2  0  0  0  0
  3 16  1  0  0  0  0
  3 17  1  0  0  0  0
 12 18  1  1  0  0  0
  5 19  1  1  0  0  0
 10 19  1  1  0  0  0
  9 20  1  1  0  0  0
  4 21  1  6  0  0  0
 11 22  1  6  0  0  0
 11 23  1  0  0  0  0
 23 24  1  0  0  0  0
 24 25  1  0  0  0  0
 25 12  1  0  0  0  0
 25 26  1  0  0  0  0
 26 27  1  6  0  0  0
 26 28  1  0  0  0  0
 28 29  1  0  0  0  0
 29 30  1  0  0  0  0
 30 31  2  0  0  0  0
 31 32  1  0  0  0  0
 31 33  1  0  0  0  0
 25 34  1  6  0  0  0
M  END
>  <cdx:fragmentId>
5

$$$$
