92533.cdx
  Mrv1902 05222410222D          

 11 11  0  0  0  0            999 V2000
    6.5843   -6.6137    0.0000 C   0  0  0  0  0  0  0  0  0  0  0  0
    6.5843   -7.4387    0.0000 C   0  0  0  0  0  0  0  0  0  0  0  0
    7.2988   -7.8513    0.0000 C   0  0  2  0  0  0  0  0  0  0  0  0
    8.0132   -7.4387    0.0000 C   0  0  0  0  0  0  0  0  0  0  0  0
    8.0132   -6.6137    0.0000 C   0  0  0  0  0  0  0  0  0  0  0  0
    7.2988   -6.2012    0.0000 C   0  0  1  0  0  0  0  0  0  0  0  0
    7.7113   -5.4868    0.0000 O   0  0  0  0  0  0  0  0  0  0  0  0
    7.2988   -8.6762    0.0000 C   0  0  0  0  0  0  0  0  0  0  0  0
    8.0132   -9.0887    0.0000 C   0  0  0  0  0  0  0  0  0  0  0  0
    6.5843   -9.0887    0.0000 C   0  0  0  0  0  0  0  0  0  0  0  0
    6.8863   -5.4868    0.0000 C   0  0  0  0  0  0  0  0  0  0  0  0
  1  2  1  0  0  0  0
  2  3  1  0  0  0  0
  3  4  1  0  0  0  0
  4  5  2  0  0  0  0
  5  6  1  0  0  0  0
  6  1  1  0  0  0  0
  6  7  1  6  0  0  0
  3  8  1  6  0  0  0
  8  9  1  0  0  0  0
  8 10  1  0  0  0  0
  6 11  1  0  0  0  0
M  END
>  <cdx:fragmentId>
5

$$$$
