92536.cdx
  Mrv1902 05222410202D          

 20 23  0  0  0  0            999 V2000
    6.9968   -8.3050    0.0000 C   0  0  0  0  0  0  0  0  0  0  0  0
    6.9968   -9.1300    0.0000 C   0  0  0  0  0  0  0  0  0  0  0  0
    7.7113   -9.5425    0.0000 C   0  0  0  0  0  0  0  0  0  0  0  0
    8.4257   -9.1300    0.0000 C   0  0  0  0  0  0  0  0  0  0  0  0
    8.4257   -8.3050    0.0000 O   0  0  0  0  0  0  0  0  0  0  0  0
    7.7113   -7.8925    0.0000 C   0  0  0  0  0  0  0  0  0  0  0  0
    7.7113  -10.3675    0.0000 C   0  0  0  0  0  0  0  0  0  0  0  0
    8.4257  -10.7800    0.0000 C   0  0  0  0  0  0  0  0  0  0  0  0
    9.1402  -10.3675    0.0000 C   0  0  0  0  0  0  0  0  0  0  0  0
    9.1402   -9.5425    0.0000 C   0  0  0  0  0  0  0  0  0  0  0  0
    6.2122   -8.0501    0.0000 C   0  0  0  0  0  0  0  0  0  0  0  0
    5.7273   -8.7175    0.0000 C   0  0  0  0  0  0  0  0  0  0  0  0
    6.2122   -9.3849    0.0000 O   0  0  0  0  0  0  0  0  0  0  0  0
    5.8766   -7.2964    0.0000 C   0  0  0  0  0  0  0  0  0  0  0  0
    5.0561   -7.2101    0.0000 C   0  0  0  0  0  0  0  0  0  0  0  0
    4.5712   -7.8776    0.0000 C   0  0  0  0  0  0  0  0  0  0  0  0
    4.9068   -8.6313    0.0000 C   0  0  0  0  0  0  0  0  0  0  0  0
    3.7507   -7.7914    0.0000 O   0  0  0  0  0  0  0  0  0  0  0  0
    7.7113   -7.0675    0.0000 O   0  0  0  0  0  0  0  0  0  0  0  0
    9.8547  -10.7800    0.0000 O   0  0  0  0  0  0  0  0  0  0  0  0
  1  2  2  0  0  0  0
  2  3  1  0  0  0  0
  3  4  2  0  0  0  0
  4  5  1  0  0  0  0
  5  6  1  0  0  0  0
  6  1  1  0  0  0  0
  3  7  1  0  0  0  0
  7  8  2  0  0  0  0
  8  9  1  0  0  0  0
  9 10  2  0  0  0  0
 10  4  1  0  0  0  0
  1 11  1  0  0  0  0
 11 12  2  0  0  0  0
 12 13  1  0  0  0  0
 13  2  1  0  0  0  0
 11 14  1  0  0  0  0
 14 15  2  0  0  0  0
 15 16  1  0  0  0  0
 16 17  2  0  0  0  0
 17 12  1  0  0  0  0
 16 18  1  0  0  0  0
  6 19  2  0  0  0  0
  9 20  1  0  0  0  0
M  END
>  <cdx:fragmentId>
5

$$$$
