92549.cdx
  Mrv1902 05222410262D          

 15 16  0  0  0  0            999 V2000
    5.3875   -4.6618    0.0000 C   0  0  0  0  0  0  0  0  0  0  0  0
    4.9750   -5.3762    0.0000 C   0  0  0  0  0  0  0  0  0  0  0  0
    5.3875   -6.0907    0.0000 C   0  0  0  0  0  0  0  0  0  0  0  0
    6.2125   -6.0907    0.0000 C   0  0  0  0  0  0  0  0  0  0  0  0
    6.6250   -5.3762    0.0000 C   0  0  0  0  0  0  0  0  0  0  0  0
    6.2125   -4.6618    0.0000 C   0  0  0  0  0  0  0  0  0  0  0  0
    6.6250   -6.8052    0.0000 C   0  0  0  0  0  0  0  0  0  0  0  0
    7.4500   -6.8052    0.0000 C   0  0  0  0  0  0  0  0  0  0  0  0
    7.8625   -6.0907    0.0000 C   0  0  0  0  0  0  0  0  0  0  0  0
    7.4500   -5.3762    0.0000 C   0  0  0  0  0  0  0  0  0  0  0  0
    4.1500   -5.3762    0.0000 C   0  0  0  0  0  0  0  0  0  0  0  0
    4.9750   -6.8052    0.0000 C   0  0  0  0  0  0  0  0  0  0  0  0
    5.8000   -6.8052    0.0000 C   0  0  0  0  0  0  0  0  0  0  0  0
    7.4500   -4.5512    0.0000 C   0  0  0  0  0  0  0  0  0  0  0  0
    8.1645   -4.9637    0.0000 C   0  0  0  0  0  0  0  0  0  0  0  0
  1  2  1  0  0  0  0
  2  3  1  0  0  0  0
  3  4  1  0  0  0  0
  4  5  1  0  0  0  0
  5  6  1  0  0  0  0
  6  1  1  0  0  0  0
  4  7  1  0  0  0  0
  7  8  1  0  0  0  0
  8  9  1  0  0  0  0
  9 10  1  0  0  0  0
 10  5  1  0  0  0  0
  2 11  1  0  0  0  0
  3 12  1  0  0  0  0
  4 13  1  0  0  0  0
 10 14  1  0  0  0  0
 10 15  1  0  0  0  0
M  END
>  <cdx:fragmentId>
5

$$$$
