92540.cdx
  Mrv1902 05222410182D          

 12 12  0  0  0  0            999 V2000
    6.8868   -5.5550    0.0000 C   0  0  0  0  0  0  0  0  0  0  0  0
    6.8868   -6.3800    0.0000 C   0  0  0  0  0  0  0  0  0  0  0  0
    8.3157   -6.3800    0.0000 C   0  0  0  0  0  0  0  0  0  0  0  0
    8.3157   -5.5550    0.0000 C   0  0  0  0  0  0  0  0  0  0  0  0
    7.6013   -5.1425    0.0000 C   0  0  0  0  0  0  0  0  0  0  0  0
    7.6013   -7.6175    0.0000 C   0  0  0  0  0  0  0  0  0  0  0  0
    8.3157   -8.0300    0.0000 C   0  0  0  0  0  0  0  0  0  0  0  0
    9.0302   -7.6175    0.0000 C   0  0  0  0  0  0  0  0  0  0  0  0
    9.0302   -6.7925    0.0000 C   0  0  0  0  0  0  0  0  0  0  0  0
    6.1723   -6.7925    0.0000 C   0  0  0  0  0  0  0  0  0  0  0  0
    6.1723   -7.6175    0.0000 C   0  0  0  0  0  0  0  0  0  0  0  0
    6.8868   -8.0300    0.0000 C   0  0  0  0  0  0  0  0  0  0  0  0
  1  2  1  0  0  0  0
  3  4  1  0  0  0  0
  4  5  1  0  0  0  0
  5  1  1  0  0  0  0
  6  7  1  0  0  0  0
  7  8  1  0  0  0  0
  8  9  1  0  0  0  0
  9  3  1  0  0  0  0
  2 10  1  0  0  0  0
 10 11  1  0  0  0  0
 11 12  1  0  0  0  0
 12  6  1  0  0  0  0
M  END
>  <cdx:fragmentId>
5

$$$$
