92543.cdx
  Mrv1902 05222410192D          

  3  3  0  0  0  0            999 V2000
    6.7169   -7.1225    0.0000 C   0  0  0  0  0  0  0  0  0  0  0  0
    6.7169   -7.9475    0.0000 C   0  0  0  0  0  0  0  0  0  0  0  0
    7.4313   -7.5350    0.0000 C   0  0  0  0  0  0  0  0  0  0  0  0
  1  2  1  0  0  0  0
  2  3  1  0  0  0  0
  3  1  1  0  0  0  0
M  END
>  <cdx:fragmentId>
5

$$$$
