92542.cdx
  Mrv1902 05222410192D          

  5  5  0  0  0  0            999 V2000
    6.6239   -7.6997    0.0000 C   0  0  0  0  0  0  0  0  0  0  0  0
    6.8672   -8.4880    0.0000 C   0  0  0  0  0  0  0  0  0  0  0  0
    7.6921   -8.5003    0.0000 C   0  0  0  0  0  0  0  0  0  0  0  0
    7.9587   -7.7196    0.0000 C   0  0  0  0  0  0  0  0  0  0  0  0
    7.2985   -7.2248    0.0000 C   0  0  0  0  0  0  0  0  0  0  0  0
  1  2  1  0  0  0  0
  2  3  1  0  0  0  0
  3  4  1  0  0  0  0
  4  5  1  0  0  0  0
  5  1  1  0  0  0  0
M  END
>  <cdx:fragmentId>
5

$$$$
