92544.cdx
  Mrv1902 05222410202D          

 41 46  0  0  0  0            999 V2000
    3.5593   -3.1075    0.0000 C   0  0  2  0  0  0  0  0  0  0  0  0
    3.5593   -3.9325    0.0000 C   0  0  2  0  0  0  0  0  0  0  0  0
    4.2738   -4.3450    0.0000 C   0  0  2  0  0  0  0  0  0  0  0  0
    4.9882   -3.9325    0.0000 C   0  0  0  0  0  0  0  0  0  0  0  0
    4.9882   -3.1075    0.0000 C   0  0  1  0  0  0  0  0  0  0  0  0
    4.2738   -2.6950    0.0000 O   0  0  0  0  0  0  0  0  0  0  0  0
    6.4172   -3.9325    0.0000 C   0  0  0  0  0  0  0  0  0  0  0  0
    6.4172   -3.1075    0.0000 C   0  0  2  0  0  0  0  0  0  0  0  0
    5.7027   -2.6950    0.0000 O   0  0  0  0  0  0  0  0  0  0  0  0
    7.1317   -4.3450    0.0000 C   0  0  0  0  0  0  0  0  0  0  0  0
    7.8461   -3.9325    0.0000 C   0  0  1  0  0  0  0  0  0  0  0  0
    7.8461   -3.1075    0.0000 C   0  0  1  0  0  0  0  0  0  0  0  0
    7.1317   -2.6950    0.0000 C   0  0  0  0  0  0  0  0  0  0  0  0
    8.5606   -4.3450    0.0000 C   0  0  2  0  0  0  0  0  0  0  0  0
    9.2751   -3.9325    0.0000 C   0  0  1  0  0  0  0  0  0  0  0  0
    9.2751   -3.1075    0.0000 C   0  0  0  0  0  0  0  0  0  0  0  0
    8.5606   -2.6950    0.0000 C   0  0  0  0  0  0  0  0  0  0  0  0
    2.8448   -4.3450    0.0000 O   0  0  0  0  0  0  0  0  0  0  0  0
    3.5593   -5.5825    0.0000 C   0  0  0  0  0  0  0  0  0  0  0  0
    4.2738   -5.1700    0.0000 O   0  0  0  0  0  0  0  0  0  0  0  0
    8.5606   -5.1700    0.0000 C   0  0  0  0  0  0  0  0  0  0  0  0
    9.2751   -5.5825    0.0000 C   0  0  0  0  0  0  0  0  0  0  0  0
    9.9895   -5.1700    0.0000 C   0  0  1  0  0  0  0  0  0  0  0  0
    9.9895   -4.3450    0.0000 C   0  0  2  0  0  0  0  0  0  0  0  0
   10.7742   -5.4249    0.0000 C   0  0  2  0  0  0  0  0  0  0  0  0
   11.2591   -4.7575    0.0000 C   0  0  0  0  0  0  0  0  0  0  0  0
   10.7742   -4.0901    0.0000 C   0  0  0  0  0  0  0  0  0  0  0  0
   11.0291   -6.2096    0.0000 C   0  0  0  0  0  0  0  0  0  0  0  0
   10.5442   -6.8770    0.0000 C   0  0  0  0  0  0  0  0  0  0  0  0
   11.0291   -7.5444    0.0000 C   0  0  0  0  0  0  0  0  0  0  0  0
   11.8137   -7.2895    0.0000 O   0  0  0  0  0  0  0  0  0  0  0  0
   11.8137   -6.4645    0.0000 C   0  0  0  0  0  0  0  0  0  0  0  0
   10.7742   -8.3291    0.0000 O   0  0  0  0  0  0  0  0  0  0  0  0
    7.6326   -4.7294    0.0000 C   0  0  0  0  0  0  0  0  0  0  0  0
    6.9181   -5.1419    0.0000 O   0  0  0  0  0  0  0  0  0  0  0  0
    2.8448   -2.6950    0.0000 C   0  0  0  0  0  0  0  0  0  0  0  0
    8.1481   -5.0595    0.0000 H   0  0  0  0  0  0  0  0  0  0  0  0
    7.8461   -2.2825    0.0000 O   0  0  0  0  0  0  0  0  0  0  0  0
    9.6876   -3.2180    0.0000 H   0  0  0  0  0  0  0  0  0  0  0  0
   10.0758   -3.5245    0.0000 O   0  0  0  0  0  0  0  0  0  0  0  0
   10.0758   -5.9905    0.0000 C   0  0  0  0  0  0  0  0  0  0  0  0
  1  2  1  0  0  0  0
  2  3  1  0  0  0  0
  3  4  1  0  0  0  0
  4  5  1  0  0  0  0
  5  6  1  0  0  0  0
  6  1  1  0  0  0  0
  7  8  1  0  0  0  0
  8  9  1  6  0  0  0
  5  9  1  1  0  0  0
  7 10  1  0  0  0  0
 10 11  1  0  0  0  0
 11 12  1  0  0  0  0
 12 13  1  0  0  0  0
 13  8  1  0  0  0  0
 11 14  1  0  0  0  0
 14 15  1  0  0  0  0
 15 16  1  0  0  0  0
 16 17  1  0  0  0  0
 17 12  1  0  0  0  0
  2 18  1  6  0  0  0
 19 20  1  0  0  0  0
  3 20  1  6  0  0  0
 14 21  1  0  0  0  0
 21 22  1  0  0  0  0
 22 23  1  0  0  0  0
 23 24  1  0  0  0  0
 24 15  1  0  0  0  0
 23 25  1  0  0  0  0
 25 26  1  0  0  0  0
 26 27  1  0  0  0  0
 27 24  1  0  0  0  0
 25 28  1  6  0  0  0
 28 29  2  0  0  0  0
 29 30  1  0  0  0  0
 30 31  1  0  0  0  0
 31 32  1  0  0  0  0
 32 28  1  0  0  0  0
 30 33  2  0  0  0  0
 11 34  1  6  0  0  0
 34 35  2  0  0  0  0
  1 36  1  1  0  0  0
 14 37  1  1  0  0  0
 12 38  1  6  0  0  0
 15 39  1  6  0  0  0
 24 40  1  6  0  0  0
 23 41  1  6  0  0  0
M  END
>  <cdx:fragmentId>
5

$$$$
