92545.cdx
  Mrv1902 05222410202D          

 18 20  0  0  0  0            999 V2000
    8.4642   -4.6531    0.0000 C   0  0  0  0  0  0  0  0  0  0  0  0
    9.1140   -5.1615    0.0000 C   0  0  0  0  0  0  0  0  0  0  0  0
    8.3489   -5.4700    0.0000 C   0  0  0  0  0  0  0  0  0  0  0  0
    7.7497   -3.9729    0.0000 C   0  0  0  0  0  0  0  0  0  0  0  0
    9.2809   -7.0782    0.0000 C   0  0  0  0  0  0  0  0  0  0  0  0
    6.8361   -7.7779    0.0000 O   0  0  0  0  0  0  0  0  0  0  0  0
    5.4731   -7.3490    0.0000 O   0  0  0  0  0  0  0  0  0  0  0  0
    6.2784   -7.1700    0.0000 C   0  0  0  0  0  0  0  0  0  0  0  0
    6.5136   -5.0482    0.0000 C   0  0  0  0  0  0  0  0  0  0  0  0
    6.0349   -5.7201    0.0000 C   0  0  0  0  0  0  0  0  0  0  0  0
    6.5260   -6.3830    0.0000 C   0  0  0  0  0  0  0  0  0  0  0  0
    8.7606   -6.4381    0.0000 C   0  0  2  0  0  0  0  0  0  0  0  0
    9.1116   -5.6915    0.0000 C   0  0  0  0  0  0  0  0  0  0  0  0
    8.7467   -4.9515    0.0000 C   0  0  0  0  0  0  0  0  0  0  0  0
    7.9407   -4.7754    0.0000 C   0  0  2  0  0  0  0  0  0  0  0  0
    7.3005   -5.2958    0.0000 C   0  0  1  0  0  0  0  0  0  0  0  0
    7.3082   -6.1208    0.0000 C   0  0  0  0  0  0  0  0  0  0  0  0
    7.9580   -6.6291    0.0000 C   0  0  0  0  0  0  0  0  0  0  0  0
  3  1  1  0  0  0  0
  3  2  1  0  0  0  0
 16  3  1  0  0  0  0
 12  3  1  0  0  0  0
 15  4  1  6  0  0  0
 12  5  1  1  0  0  0
  8  6  2  0  0  0  0
  8  7  1  0  0  0  0
 11  8  1  0  0  0  0
 16  9  1  1  0  0  0
 10  9  1  0  0  0  0
 11 10  1  0  0  0  0
 17 11  2  0  0  0  0
 12 18  1  0  0  0  0
 13 12  1  0  0  0  0
 14 13  1  0  0  0  0
 15 14  1  0  0  0  0
 16 15  1  0  0  0  0
 17 16  1  0  0  0  0
 18 17  1  0  0  0  0
M  END
>  <cdx:fragmentId>
5

$$$$
