92554.cdx
  Mrv1902 05222410182D          

 22 24  0  0  0  0            999 V2000
    5.1406   -7.3287    0.0000 C   0  0  0  0  0  0  0  0  0  0  0  0
    5.1406   -8.1538    0.0000 C   0  0  0  0  0  0  0  0  0  0  0  0
    5.8550   -8.5663    0.0000 C   0  0  2  0  0  0  0  0  0  0  0  0
    6.5695   -8.1538    0.0000 C   0  0  1  0  0  0  0  0  0  0  0  0
    6.5695   -7.3287    0.0000 C   0  0  2  0  0  0  0  0  0  0  0  0
    5.8550   -6.9162    0.0000 C   0  0  0  0  0  0  0  0  0  0  0  0
    7.2840   -8.5663    0.0000 C   0  0  0  0  0  0  0  0  0  0  0  0
    7.9984   -8.1538    0.0000 C   0  0  0  0  0  0  0  0  0  0  0  0
    7.9984   -7.3287    0.0000 C   0  0  0  0  0  0  0  0  0  0  0  0
    7.2840   -6.9162    0.0000 C   0  0  0  0  0  0  0  0  0  0  0  0
    8.7129   -6.9162    0.0000 C   0  0  0  0  0  0  0  0  0  0  0  0
    8.7129   -6.0912    0.0000 C   0  0  0  0  0  0  0  0  0  0  0  0
    7.9984   -5.6788    0.0000 C   0  0  0  0  0  0  0  0  0  0  0  0
    7.2840   -6.0912    0.0000 C   0  0  0  0  0  0  0  0  0  0  0  0
   10.1419   -6.0912    0.0000 C   0  0  0  0  0  0  0  0  0  0  0  0
    9.4274   -5.6788    0.0000 C   0  0  0  0  0  0  0  0  0  0  0  0
    9.4274   -4.8538    0.0000 C   0  0  0  0  0  0  0  0  0  0  0  0
    5.4425   -9.2807    0.0000 C   0  0  0  0  0  0  0  0  0  0  0  0
    4.6175   -9.2807    0.0000 N   0  0  0  0  0  0  0  0  0  0  0  0
    6.5695   -6.5038    0.0000 C   0  0  0  0  0  0  0  0  0  0  0  0
    6.2675   -9.2807    0.0000 C   0  0  0  0  0  0  0  0  0  0  0  0
    6.5695   -8.9788    0.0000 H   0  0  0  0  0  0  0  0  0  0  0  0
  1  2  1  0  0  0  0
  2  3  1  0  0  0  0
  3  4  1  0  0  0  0
  4  5  1  0  0  0  0
  5  6  1  0  0  0  0
  6  1  1  0  0  0  0
  4  7  1  0  0  0  0
  7  8  1  0  0  0  0
  8  9  1  0  0  0  0
  9 10  2  0  0  0  0
 10  5  1  0  0  0  0
  9 11  1  0  0  0  0
 11 12  2  0  0  0  0
 12 13  1  0  0  0  0
 13 14  2  0  0  0  0
 14 10  1  0  0  0  0
 15 16  1  0  0  0  0
 16 12  1  0  0  0  0
 16 17  1  0  0  0  0
  3 18  1  0  0  0  0
 18 19  1  0  0  0  0
  5 20  1  1  0  0  0
  3 21  1  1  0  0  0
  4 22  1  6  0  0  0
M  END
>  <cdx:fragmentId>
5

$$$$
