92558.cdx
  Mrv1902 05222410282D          

 34 35  0  0  0  0            999 V2000
    4.4118   -5.4450    0.0000 C   0  0  0  0  0  0  0  0  0  0  0  0
    4.4118   -6.2700    0.0000 C   0  0  0  0  0  0  0  0  0  0  0  0
    5.1263   -6.6825    0.0000 O   0  0  0  0  0  0  0  0  0  0  0  0
    5.1263   -5.0325    0.0000 O   0  0  0  0  0  0  0  0  0  0  0  0
    3.6973   -6.6825    0.0000 C   0  0  0  0  0  0  0  0  0  0  0  0
    3.6973   -7.5075    0.0000 C   0  0  0  0  0  0  0  0  0  0  0  0
    4.4118   -7.9200    0.0000 C   0  0  0  0  0  0  0  0  0  0  0  0
    5.1263   -7.5075    0.0000 C   0  0  0  0  0  0  0  0  0  0  0  0
    4.4118   -8.7450    0.0000 O   0  0  0  0  0  0  0  0  0  0  0  0
    5.8407   -8.7450    0.0000 C   0  0  0  0  0  0  0  0  0  0  0  0
    5.8407   -7.9200    0.0000 O   0  0  0  0  0  0  0  0  0  0  0  0
    5.8407  -10.3950    0.0000 O   0  0  0  0  0  0  0  0  0  0  0  0
    6.5552   -9.9825    0.0000 C   0  0  0  0  0  0  0  0  0  0  0  0
    6.5552   -9.1575    0.0000 C   0  0  0  0  0  0  0  0  0  0  0  0
    7.2697  -10.3950    0.0000 C   0  0  0  0  0  0  0  0  0  0  0  0
    7.9842   -9.9825    0.0000 C   0  0  0  0  0  0  0  0  0  0  0  0
    7.9842   -9.1575    0.0000 C   0  0  0  0  0  0  0  0  0  0  0  0
    7.2697   -8.7450    0.0000 O   0  0  0  0  0  0  0  0  0  0  0  0
    8.6986  -10.3950    0.0000 O   0  0  0  0  0  0  0  0  0  0  0  0
    8.6986   -8.7450    0.0000 O   0  0  0  0  0  0  0  0  0  0  0  0
   10.1276   -7.9200    0.0000 O   0  0  0  0  0  0  0  0  0  0  0  0
    9.4131   -7.5075    0.0000 C   0  0  0  0  0  0  0  0  0  0  0  0
    8.6986   -7.9200    0.0000 C   0  0  0  0  0  0  0  0  0  0  0  0
   10.8420   -6.6825    0.0000 O   0  0  0  0  0  0  0  0  0  0  0  0
   10.1276   -6.2700    0.0000 C   0  0  0  0  0  0  0  0  0  0  0  0
    9.4131   -6.6825    0.0000 C   0  0  0  0  0  0  0  0  0  0  0  0
   10.1276   -5.4450    0.0000 C   0  0  0  0  0  0  0  0  0  0  0  0
    9.4131   -5.0325    0.0000 O   0  0  0  0  0  0  0  0  0  0  0  0
    8.6986   -6.2700    0.0000 O   0  0  0  0  0  0  0  0  0  0  0  0
   10.8420   -5.0325    0.0000 C   0  0  0  0  0  0  0  0  0  0  0  0
    2.9829   -6.2700    0.0000 O   0  0  0  0  0  0  0  0  0  0  0  0
    2.9829   -7.9200    0.0000 O   0  0  0  0  0  0  0  0  0  0  0  0
    7.2697  -11.2200    0.0000 O   0  0  0  0  0  0  0  0  0  0  0  0
   10.8420   -4.2075    0.0000 O   0  0  0  0  0  0  0  0  0  0  0  0
  1  2  1  0  0  0  0
  2  3  1  0  0  0  0
  4  1  1  0  0  0  0
  2  5  1  0  0  0  0
  5  6  1  0  0  0  0
  6  7  1  0  0  0  0
  7  8  1  0  0  0  0
  8  3  1  0  0  0  0
  7  9  1  0  0  0  0
 10 11  1  0  0  0  0
 11  8  1  0  0  0  0
 12 13  1  0  0  0  0
 13 14  1  0  0  0  0
 14 10  1  0  0  0  0
 13 15  1  0  0  0  0
 15 16  1  0  0  0  0
 16 17  1  0  0  0  0
 17 18  1  0  0  0  0
 18 14  1  0  0  0  0
 16 19  1  0  0  0  0
 20 17  1  0  0  0  0
 21 22  1  0  0  0  0
 22 23  1  0  0  0  0
 23 20  1  0  0  0  0
 24 25  1  0  0  0  0
 25 26  1  0  0  0  0
 26 22  1  0  0  0  0
 25 27  1  0  0  0  0
 27 28  1  0  0  0  0
 29 26  1  0  0  0  0
 30 27  1  0  0  0  0
  5 31  1  0  0  0  0
  6 32  1  0  0  0  0
 15 33  1  0  0  0  0
 30 34  2  0  0  0  0
M  END
>  <cdx:fragmentId>
5

$$$$
