92551.cdx
  Mrv1902 05222410202D          

 31 33  0  0  0  0            999 V2000
    7.2825   -6.5519    0.0000 C   0  0  2  0  0  0  0  0  0  0  0  0
    6.1160   -6.9360    0.0000 C   0  0  2  0  0  0  0  0  0  0  0  0
    6.0698   -6.1626    0.0000 O   0  0  0  0  0  0  0  0  0  0  0  0
    7.1284   -5.8471    0.0000 C   0  0  1  0  0  0  0  0  0  0  0  0
    7.6812   -4.8132    0.0000 C   0  0  2  0  0  0  0  0  0  0  0  0
    8.7384   -6.0634    0.0000 C   0  0  0  0  0  0  0  0  0  0  0  0
    8.2869   -7.0662    0.0000 O   0  0  0  0  0  0  0  0  0  0  0  0
    9.0040   -6.7387    0.0000 C   0  0  2  0  0  0  0  0  0  0  0  0
    5.8095   -7.7019    0.0000 C   0  0  0  0  0  0  0  0  0  0  0  0
    7.2417   -7.3759    0.0000 H   0  0  0  0  0  0  0  0  0  0  0  0
    9.2175   -7.5356    0.0000 O   0  0  0  0  0  0  0  0  0  0  0  0
    4.9845   -7.7019    0.0000 O   0  0  0  0  0  0  0  0  0  0  0  0
    4.5720   -8.4164    0.0000 C   0  0  0  0  0  0  0  0  0  0  0  0
    3.7470   -8.4164    0.0000 C   0  0  0  0  0  0  0  0  0  0  0  0
    4.9845   -9.1309    0.0000 O   0  0  0  0  0  0  0  0  0  0  0  0
    3.3345   -9.1309    0.0000 C   0  0  0  0  0  0  0  0  0  0  0  0
    2.5095   -9.1309    0.0000 C   0  0  0  0  0  0  0  0  0  0  0  0
    2.0970   -8.4164    0.0000 C   0  0  0  0  0  0  0  0  0  0  0  0
    1.2720   -8.4164    0.0000 C   0  0  0  0  0  0  0  0  0  0  0  0
    0.8595   -9.1309    0.0000 C   0  0  0  0  0  0  0  0  0  0  0  0
    1.2720   -9.8453    0.0000 C   0  0  0  0  0  0  0  0  0  0  0  0
    2.0970   -9.8453    0.0000 C   0  0  0  0  0  0  0  0  0  0  0  0
    9.8290   -6.7387    0.0000 C   0  0  0  0  0  0  0  0  0  0  0  0
   10.2415   -6.0242    0.0000 O   0  0  0  0  0  0  0  0  0  0  0  0
   10.2415   -7.4531    0.0000 O   0  0  0  0  0  0  0  0  0  0  0  0
   11.0665   -6.0242    0.0000 C   0  0  0  0  0  0  0  0  0  0  0  0
   11.4790   -5.3097    0.0000 C   0  0  0  0  0  0  0  0  0  0  0  0
   12.3040   -5.3097    0.0000 C   0  0  0  0  0  0  0  0  0  0  0  0
   12.7165   -4.5953    0.0000 C   0  0  0  0  0  0  0  0  0  0  0  0
    7.9705   -4.0406    0.0000 O   0  0  0  0  0  0  0  0  0  0  0  0
    6.7159   -5.1326    0.0000 H   0  0  0  0  0  0  0  0  0  0  0  0
  1  2  1  0  0  0  0
  2  3  1  0  0  0  0
  3  4  1  0  0  0  0
  4  5  1  0  0  0  0
  4  6  1  0  0  0  0
  1  7  1  0  0  0  0
  6  8  1  0  0  0  0
  7  8  1  0  0  0  0
  2  9  1  1  0  0  0
  1 10  1  1  0  0  0
  8 11  1  1  0  0  0
  9 12  1  0  0  0  0
 12 13  1  0  0  0  0
 13 14  1  0  0  0  0
 13 15  2  0  0  0  0
 14 16  2  0  0  0  0
 16 17  1  0  0  0  0
 17 18  2  0  0  0  0
 18 19  1  0  0  0  0
 19 20  2  0  0  0  0
 20 21  1  0  0  0  0
 21 22  2  0  0  0  0
 22 17  1  0  0  0  0
  8 23  1  0  0  0  0
 23 24  1  0  0  0  0
 23 25  2  0  0  0  0
 24 26  1  0  0  0  0
 26 27  1  0  0  0  0
 27 28  1  0  0  0  0
 28 29  1  0  0  0  0
  5  1  1  0  0  0  0
  5 30  1  6  0  0  0
  4 31  1  6  0  0  0
M  END
>  <cdx:groupId>
816

>  <cdx:fragmentId>
817

$$$$
