92556.cdx
  Mrv1902 05222410192D          

 15 17  0  0  0  0            999 V2000
    6.2465   -7.5314    0.0000 C   0  0  0  0  0  0  0  0  0  0  0  0
    6.9021   -8.0322    0.0000 C   0  0  0  0  0  0  0  0  0  0  0  0
    7.7024   -7.8319    0.0000 C   0  0  0  0  0  0  0  0  0  0  0  0
    8.0448   -7.0813    0.0000 C   0  0  0  0  0  0  0  0  0  0  0  0
    7.6714   -6.3456    0.0000 C   0  0  0  0  0  0  0  0  0  0  0  0
    6.8634   -6.1789    0.0000 C   0  0  0  0  0  0  0  0  0  0  0  0
    6.2293   -6.7066    0.0000 C   0  0  0  0  0  0  0  0  0  0  0  0
    5.4395   -6.4681    0.0000 C   0  0  0  0  0  0  0  0  0  0  0  0
    4.9686   -7.1455    0.0000 C   0  0  0  0  0  0  0  0  0  0  0  0
    5.4674   -7.8027    0.0000 C   0  0  0  0  0  0  0  0  0  0  0  0
    6.6631   -5.3786    0.0000 C   0  0  0  0  0  0  0  0  0  0  0  0
    5.2289   -8.5925    0.0000 C   0  0  0  0  0  0  0  0  0  0  0  0
    7.4758   -8.6252    0.0000 C   0  0  0  0  0  0  0  0  0  0  0  0
    7.0631   -9.3395    0.0000 C   0  0  0  0  0  0  0  0  0  0  0  0
    8.1901   -9.0378    0.0000 C   0  0  0  0  0  0  0  0  0  0  0  0
  1  2  1  0  0  0  0
  2  3  1  0  0  0  0
  3  4  1  0  0  0  0
  4  5  1  0  0  0  0
  5  6  1  0  0  0  0
  6  7  1  0  0  0  0
  7  1  1  0  0  0  0
  7  8  1  0  0  0  0
  8  9  2  0  0  0  0
  9 10  1  0  0  0  0
 10  1  1  0  0  0  0
  6 11  1  0  0  0  0
 10 12  1  0  0  0  0
  2 13  1  0  0  0  0
 13  3  1  0  0  0  0
 13 14  1  0  0  0  0
 13 15  1  0  0  0  0
M  END
>  <cdx:fragmentId>
5

$$$$
