92557.cdx
  Mrv1902 05222410192D          

 25 27  0  0  0  0            999 V2000
   11.3691   -7.5922    0.0000 C   0  0  0  0  0  0  0  0  0  0  0  0
   11.3663   -6.7672    0.0000 C   0  0  0  0  0  0  0  0  0  0  0  0
   10.6505   -6.3571    0.0000 C   0  0  0  0  0  0  0  0  0  0  0  0
    9.9374   -6.7721    0.0000 C   0  0  0  0  0  0  0  0  0  0  0  0
    9.9402   -7.5971    0.0000 C   0  0  0  0  0  0  0  0  0  0  0  0
   10.6561   -8.0071    0.0000 O   0  0  0  0  0  0  0  0  0  0  0  0
    9.2215   -6.3620    0.0000 C   0  0  0  0  0  0  0  0  0  0  0  0
    8.5085   -6.7769    0.0000 C   0  0  0  0  0  0  0  0  0  0  0  0
    8.5113   -7.6019    0.0000 C   0  0  0  0  0  0  0  0  0  0  0  0
    9.2271   -8.0120    0.0000 C   0  0  0  0  0  0  0  0  0  0  0  0
    7.7230   -6.5247    0.0000 C   0  0  0  0  0  0  0  0  0  0  0  0
    7.2403   -7.1937    0.0000 C   0  0  2  0  0  0  0  0  0  0  0  0
    7.7275   -7.8595    0.0000 O   0  0  0  0  0  0  0  0  0  0  0  0
   12.0850   -8.0023    0.0000 O   0  0  0  0  0  0  0  0  0  0  0  0
    6.4153   -7.1965    0.0000 C   0  0  0  0  0  0  0  0  0  0  0  0
    5.5903   -7.1994    0.0000 O   0  0  0  0  0  0  0  0  0  0  0  0
    6.4181   -8.0215    0.0000 C   0  0  0  0  0  0  0  0  0  0  0  0
    6.4125   -6.3716    0.0000 C   0  0  0  0  0  0  0  0  0  0  0  0
    5.0050   -6.6180    0.0000 C   0  0  0  0  0  0  0  0  0  0  0  0
    4.1800   -6.6208    0.0000 C   0  0  0  0  0  0  0  0  0  0  0  0
    5.3181   -5.8547    0.0000 O   0  0  0  0  0  0  0  0  0  0  0  0
    3.7699   -7.3367    0.0000 C   0  0  0  0  0  0  0  0  0  0  0  0
    3.7651   -5.9077    0.0000 C   0  0  0  0  0  0  0  0  0  0  0  0
    2.9401   -5.9105    0.0000 C   0  0  0  0  0  0  0  0  0  0  0  0
    6.8278   -6.4793    0.0000 H   0  0  0  0  0  0  0  0  0  0  0  0
  1  2  1  0  0  0  0
  2  3  2  0  0  0  0
  3  4  1  0  0  0  0
  4  5  1  0  0  0  0
  5  6  1  0  0  0  0
  6  1  1  0  0  0  0
  4  7  2  0  0  0  0
  7  8  1  0  0  0  0
  8  9  2  0  0  0  0
  9 10  1  0  0  0  0
 10  5  2  0  0  0  0
  8 11  1  0  0  0  0
 11 12  1  0  0  0  0
 12 13  1  0  0  0  0
 13  9  1  0  0  0  0
  1 14  2  0  0  0  0
 12 15  1  0  0  0  0
 15 16  1  0  0  0  0
 15 17  1  0  0  0  0
 15 18  1  0  0  0  0
 16 19  1  0  0  0  0
 19 20  1  0  0  0  0
 19 21  2  0  0  0  0
 20 22  1  0  0  0  0
 20 23  2  0  0  0  0
 23 24  1  0  0  0  0
 12 25  1  1  0  0  0
M  END
>  <cdx:fragmentId>
5

$$$$
