92555.cdx
  Mrv1902 05222410182D          

 25 27  0  0  0  0            999 V2000
    6.4870   -8.0186    0.0000 C   0  0  0  0  0  0  0  0  0  0  0  0
    4.3436  -10.0811    0.0000 O   0  0  0  0  0  0  0  0  0  0  0  0
    6.4870  -10.4936    0.0000 H   0  0  0  0  0  0  0  0  0  0  0  0
    6.1850  -10.7956    0.0000 C   0  0  0  0  0  0  0  0  0  0  0  0
    9.3680   -6.1387    0.0000 O   0  0  0  0  0  0  0  0  0  0  0  0
    8.5834   -5.8837    0.0000 C   0  0  0  0  0  0  0  0  0  0  0  0
    8.3284   -5.0991    0.0000 O   0  0  0  0  0  0  0  0  0  0  0  0
    7.5034   -5.0991    0.0000 C   0  0  0  0  0  0  0  0  0  0  0  0
    7.2485   -5.8837    0.0000 C   0  0  0  0  0  0  0  0  0  0  0  0
    7.9159   -6.3686    0.0000 C   0  0  0  0  0  0  0  0  0  0  0  0
    5.3600  -10.7956    0.0000 C   0  0  0  0  0  0  0  0  0  0  0  0
    8.6304   -8.4311    0.0000 C   0  0  0  0  0  0  0  0  0  0  0  0
    7.9159   -7.1936    0.0000 C   0  0  0  0  0  0  0  0  0  0  0  0
    7.2015   -7.6061    0.0000 C   0  0  0  0  0  0  0  0  0  0  0  0
    7.2015  -10.0811    0.0000 C   0  0  0  0  0  0  0  0  0  0  0  0
    7.9159   -9.6686    0.0000 C   0  0  0  0  0  0  0  0  0  0  0  0
    7.9159   -8.8436    0.0000 C   0  0  0  0  0  0  0  0  0  0  0  0
    7.2015   -8.4311    0.0000 C   0  0  2  0  0  0  0  0  0  0  0  0
    5.7725  -10.0811    0.0000 C   0  0  2  0  0  0  0  0  0  0  0  0
    6.4870   -9.6686    0.0000 C   0  0  2  0  0  0  0  0  0  0  0  0
    6.4870   -8.8436    0.0000 C   0  0  2  0  0  0  0  0  0  0  0  0
    5.7725   -8.4311    0.0000 C   0  0  0  0  0  0  0  0  0  0  0  0
    5.0581   -8.8436    0.0000 C   0  0  0  0  0  0  0  0  0  0  0  0
    5.0581   -9.6686    0.0000 C   0  0  1  0  0  0  0  0  0  0  0  0
    5.7725  -11.5101    0.0000 O   0  0  0  0  0  0  0  0  0  0  0  0
 21  1  1  6  0  0  0
 24  2  1  6  0  0  0
 20  3  1  1  0  0  0
 19  4  1  1  0  0  0
  6  5  2  0  0  0  0
  6 10  1  0  0  0  0
  7  6  1  0  0  0  0
  8  7  1  0  0  0  0
  9  8  2  0  0  0  0
 10  9  1  0  0  0  0
 13 10  2  0  0  0  0
 19 11  1  6  0  0  0
 12 17  2  0  0  0  0
 14 13  1  0  0  0  0
 18 14  1  6  0  0  0
 15 20  1  0  0  0  0
 16 15  1  0  0  0  0
 17 16  1  0  0  0  0
 18 17  1  0  0  0  0
 21 18  1  0  0  0  0
 19 24  1  0  0  0  0
 20 19  1  0  0  0  0
 21 20  1  0  0  0  0
 22 21  1  0  0  0  0
 23 22  1  0  0  0  0
 24 23  1  0  0  0  0
 11 25  1  0  0  0  0
M  END
>  <cdx:fragmentId>
5

$$$$
