92568.cdx
  Mrv1902 05222410182D          

 19 21  0  0  0  0            999 V2000
    5.0443   -6.8475    0.0000 C   0  0  0  0  0  0  0  0  0  0  0  0
    5.0443   -7.6725    0.0000 C   0  0  0  0  0  0  0  0  0  0  0  0
    5.7588   -8.0850    0.0000 C   0  0  0  0  0  0  0  0  0  0  0  0
    6.4732   -7.6725    0.0000 C   0  0  0  0  0  0  0  0  0  0  0  0
    6.4732   -6.8475    0.0000 C   0  0  0  0  0  0  0  0  0  0  0  0
    5.7588   -6.4350    0.0000 C   0  0  0  0  0  0  0  0  0  0  0  0
    7.1877   -8.0850    0.0000 C   0  0  0  0  0  0  0  0  0  0  0  0
    7.9022   -7.6725    0.0000 C   0  0  0  0  0  0  0  0  0  0  0  0
    7.9022   -6.8475    0.0000 C   0  0  0  0  0  0  0  0  0  0  0  0
    7.1877   -6.4350    0.0000 C   0  0  0  0  0  0  0  0  0  0  0  0
    8.6167   -6.4350    0.0000 C   0  0  0  0  0  0  0  0  0  0  0  0
    8.6167   -5.6100    0.0000 C   0  0  0  0  0  0  0  0  0  0  0  0
    7.9022   -5.1975    0.0000 C   0  0  0  0  0  0  0  0  0  0  0  0
    7.1877   -5.6100    0.0000 C   0  0  0  0  0  0  0  0  0  0  0  0
    5.7588   -5.6100    0.0000 C   0  0  0  0  0  0  0  0  0  0  0  0
    5.0443   -5.1975    0.0000 C   0  0  0  0  0  0  0  0  0  0  0  0
    4.3298   -8.0850    0.0000 O   0  0  0  0  0  0  0  0  0  0  0  0
    9.3311   -5.1975    0.0000 O   0  0  0  0  0  0  0  0  0  0  0  0
    9.3311   -6.8475    0.0000 C   0  0  0  0  0  0  0  0  0  0  0  0
  1  2  2  0  0  0  0
  2  3  1  0  0  0  0
  3  4  2  0  0  0  0
  4  5  1  0  0  0  0
  5  6  2  0  0  0  0
  6  1  1  0  0  0  0
  4  7  1  0  0  0  0
  7  8  1  0  0  0  0
  8  9  1  0  0  0  0
  9 10  2  0  0  0  0
 10  5  1  0  0  0  0
  9 11  1  0  0  0  0
 11 12  2  0  0  0  0
 12 13  1  0  0  0  0
 13 14  2  0  0  0  0
 14 10  1  0  0  0  0
  6 15  1  0  0  0  0
 15 16  2  0  0  0  0
  2 17  1  0  0  0  0
 12 18  1  0  0  0  0
 11 19  1  0  0  0  0
M  END
>  <cdx:fragmentId>
5

$$$$
