92560.cdx
  Mrv1902 05222410262D          

 18 18  0  0  0  0            999 V2000
    6.4193   -9.6112    0.0000 C   0  0  0  0  0  0  0  0  0  0  0  0
    6.4193  -10.4363    0.0000 C   0  0  0  0  0  0  0  0  0  0  0  0
    7.1338  -10.8488    0.0000 C   0  0  0  0  0  0  0  0  0  0  0  0
    7.8482  -10.4363    0.0000 C   0  0  0  0  0  0  0  0  0  0  0  0
    7.8482   -9.6112    0.0000 C   0  0  0  0  0  0  0  0  0  0  0  0
    7.1338   -9.1987    0.0000 C   0  0  0  0  0  0  0  0  0  0  0  0
    7.1338   -8.3737    0.0000 N   0  0  0  0  0  0  0  0  0  0  0  0
    6.4193   -7.9612    0.0000 S   0  0  0  0  0  0  0  0  0  0  0  0
    7.8482   -7.9612    0.0000 S   0  0  0  0  0  0  0  0  0  0  0  0
    8.5627   -7.5488    0.0000 N   0  0  0  0  0  0  0  0  0  0  0  0
    7.4357   -7.2468    0.0000 O   0  0  0  0  0  0  0  0  0  0  0  0
    8.2607   -8.6757    0.0000 O   0  0  0  0  0  0  0  0  0  0  0  0
    9.2772   -7.9612    0.0000 C   0  0  0  0  0  0  0  0  0  0  0  0
    8.5627   -6.7237    0.0000 C   0  0  0  0  0  0  0  0  0  0  0  0
    5.7048   -8.3737    0.0000 C   0  0  0  0  0  0  0  0  0  0  0  0
    4.9904   -8.7862    0.0000 Cl  0  0  0  0  0  0  0  0  0  0  0  0
    5.2923   -7.6593    0.0000 Cl  0  0  0  0  0  0  0  0  0  0  0  0
    6.1173   -9.0882    0.0000 F   0  0  0  0  0  0  0  0  0  0  0  0
  1  2  2  0  0  0  0
  2  3  1  0  0  0  0
  3  4  2  0  0  0  0
  4  5  1  0  0  0  0
  5  6  2  0  0  0  0
  6  1  1  0  0  0  0
  6  7  1  0  0  0  0
  7  8  1  0  0  0  0
  7  9  1  0  0  0  0
  9 10  1  0  0  0  0
  9 11  2  0  0  0  0
  9 12  2  0  0  0  0
 10 13  1  0  0  0  0
 10 14  1  0  0  0  0
  8 15  1  0  0  0  0
 15 16  1  0  0  0  0
 15 17  1  0  0  0  0
 15 18  1  0  0  0  0
M  END
>  <cdx:fragmentId>
5

$$$$
