92561.cdx
  Mrv1902 05222410262D          

 24 25  0  0  0  0            999 V2000
    6.4331   -9.2400    0.0000 C   0  0  0  0  0  0  0  0  0  0  0  0
    6.4331  -10.0650    0.0000 C   0  0  0  0  0  0  0  0  0  0  0  0
    7.1475  -10.4775    0.0000 C   0  0  0  0  0  0  0  0  0  0  0  0
    7.8620  -10.0650    0.0000 C   0  0  0  0  0  0  0  0  0  0  0  0
    7.8620   -9.2400    0.0000 C   0  0  0  0  0  0  0  0  0  0  0  0
    7.1475   -8.8275    0.0000 C   0  0  0  0  0  0  0  0  0  0  0  0
    7.1475  -11.3025    0.0000 C   0  0  0  0  0  0  0  0  0  0  0  0
    6.4331  -11.7150    0.0000 C   0  0  0  0  0  0  0  0  0  0  0  0
    6.4331  -12.5400    0.0000 C   0  0  0  0  0  0  0  0  0  0  0  0
    5.7186   -8.8275    0.0000 O   0  0  0  0  0  0  0  0  0  0  0  0
    5.0041   -9.2400    0.0000 C   0  0  0  0  0  0  0  0  0  0  0  0
    7.1475   -8.0025    0.0000 O   0  0  0  0  0  0  0  0  0  0  0  0
    8.5765   -8.8275    0.0000 O   0  0  0  0  0  0  0  0  0  0  0  0
    9.2909   -9.2400    0.0000 C   0  0  0  0  0  0  0  0  0  0  0  0
    7.8620   -7.5900    0.0000 C   0  0  0  0  0  0  0  0  0  0  0  0
    7.8620   -6.7650    0.0000 C   0  0  0  0  0  0  0  0  0  0  0  0
    8.5765   -8.0025    0.0000 O   0  0  0  0  0  0  0  0  0  0  0  0
    8.5765   -6.3525    0.0000 C   0  0  0  0  0  0  0  0  0  0  0  0
    8.5765   -5.5275    0.0000 C   0  0  0  0  0  0  0  0  0  0  0  0
    9.2909   -5.1150    0.0000 C   0  0  0  0  0  0  0  0  0  0  0  0
    9.2909   -4.2900    0.0000 C   0  0  0  0  0  0  0  0  0  0  0  0
    8.5765   -3.8775    0.0000 C   0  0  0  0  0  0  0  0  0  0  0  0
    7.8620   -4.2900    0.0000 C   0  0  0  0  0  0  0  0  0  0  0  0
    7.8620   -5.1150    0.0000 C   0  0  0  0  0  0  0  0  0  0  0  0
  1  2  2  0  0  0  0
  2  3  1  0  0  0  0
  3  4  2  0  0  0  0
  4  5  1  0  0  0  0
  5  6  2  0  0  0  0
  6  1  1  0  0  0  0
  3  7  1  0  0  0  0
  7  8  1  0  0  0  0
  8  9  2  0  0  0  0
  1 10  1  0  0  0  0
 10 11  1  0  0  0  0
  6 12  1  0  0  0  0
  5 13  1  0  0  0  0
 13 14  1  0  0  0  0
 12 15  1  0  0  0  0
 15 16  1  0  0  0  0
 15 17  2  0  0  0  0
 16 18  2  0  0  0  0
 18 19  1  0  0  0  0
 19 20  2  0  0  0  0
 20 21  1  0  0  0  0
 21 22  2  0  0  0  0
 22 23  1  0  0  0  0
 23 24  2  0  0  0  0
 24 19  1  0  0  0  0
M  END
>  <cdx:fragmentId>
5

$$$$
