92563.cdx
  Mrv1902 05222410262D          

 17 19  0  0  0  0            999 V2000
    4.3431   -7.1225    0.0000 C   0  0  0  0  0  0  0  0  0  0  0  0
    4.3431   -7.9475    0.0000 C   0  0  0  0  0  0  0  0  0  0  0  0
    5.0575   -8.3600    0.0000 C   0  0  0  0  0  0  0  0  0  0  0  0
    5.7720   -7.9475    0.0000 C   0  0  0  0  0  0  0  0  0  0  0  0
    5.7720   -7.1225    0.0000 C   0  0  0  0  0  0  0  0  0  0  0  0
    5.0575   -6.7100    0.0000 C   0  0  0  0  0  0  0  0  0  0  0  0
    6.4865   -8.3600    0.0000 C   0  0  0  0  0  0  0  0  0  0  0  0
    7.2009   -7.9475    0.0000 C   0  0  0  0  0  0  0  0  0  0  0  0
    7.2009   -7.1225    0.0000 C   0  0  0  0  0  0  0  0  0  0  0  0
    6.4865   -6.7100    0.0000 C   0  0  0  0  0  0  0  0  0  0  0  0
    7.9856   -8.2024    0.0000 O   0  0  0  0  0  0  0  0  0  0  0  0
    8.4705   -7.5350    0.0000 C   0  0  0  0  0  0  0  0  0  0  0  0
    7.9856   -6.8676    0.0000 C   0  0  0  0  0  0  0  0  0  0  0  0
    5.0575   -5.8850    0.0000 C   0  0  0  0  0  0  0  0  0  0  0  0
    5.7720   -8.7725    0.0000 C   0  0  0  0  0  0  0  0  0  0  0  0
    8.2405   -6.0829    0.0000 C   0  0  0  0  0  0  0  0  0  0  0  0
    9.2955   -7.5350    0.0000 O   0  0  0  0  0  0  0  0  0  0  0  0
  1  2  1  0  0  0  0
  2  3  1  0  0  0  0
  3  4  1  0  0  0  0
  4  5  1  0  0  0  0
  5  6  2  0  0  0  0
  6  1  1  0  0  0  0
  4  7  1  0  0  0  0
  7  8  1  0  0  0  0
  8  9  1  0  0  0  0
  9 10  1  0  0  0  0
 10  5  1  0  0  0  0
  8 11  1  0  0  0  0
 11 12  1  0  0  0  0
 12 13  1  0  0  0  0
 13  9  1  0  0  0  0
  6 14  1  0  0  0  0
  4 15  1  0  0  0  0
 13 16  2  0  0  0  0
 12 17  2  0  0  0  0
M  END
>  <cdx:fragmentId>
5

$$$$
