92569.cdx
  Mrv1902 05222410182D          

 16 16  0  0  0  0            999 V2000
   10.3185   -4.5788    0.0000 C   0  0  0  0  0  0  0  0  0  0  0  0
    9.6040   -4.9913    0.0000 C   0  0  0  0  0  0  0  0  0  0  0  0
    8.8895   -4.5788    0.0000 C   0  0  0  0  0  0  0  0  0  0  0  0
    8.1751   -4.9913    0.0000 C   0  0  0  0  0  0  0  0  0  0  0  0
    7.4606   -4.5788    0.0000 C   0  0  0  0  0  0  0  0  0  0  0  0
    6.7461   -4.9913    0.0000 C   0  0  0  0  0  0  0  0  0  0  0  0
    6.0317   -4.5788    0.0000 C   0  0  0  0  0  0  0  0  0  0  0  0
    5.3172   -4.9913    0.0000 C   0  0  0  0  0  0  0  0  0  0  0  0
    4.6027   -4.5788    0.0000 C   0  0  0  0  0  0  0  0  0  0  0  0
    3.8882   -4.9913    0.0000 C   0  0  0  0  0  0  0  0  0  0  0  0
    3.1738   -4.5788    0.0000 C   0  0  0  0  0  0  0  0  0  0  0  0
    3.8882   -5.8163    0.0000 C   0  0  0  0  0  0  0  0  0  0  0  0
    6.7461   -5.8163    0.0000 C   0  0  0  0  0  0  0  0  0  0  0  0
    9.6040   -5.8163    0.0000 C   0  0  0  0  0  0  0  0  0  0  0  0
   11.1435   -4.5788    0.0000 O   0  0  0  0  0  0  0  0  0  0  0  0
   10.7310   -3.8643    0.0000 C   0  0  0  0  0  0  0  0  0  0  0  0
  2  1  1  0  0  0  0
  3  2  1  0  0  0  0
  4  3  1  0  0  0  0
  5  4  1  0  0  0  0
  6  5  2  0  0  0  0
  7  6  1  0  0  0  0
  8  7  1  0  0  0  0
  9  8  1  0  0  0  0
 10  9  2  0  0  0  0
 11 10  1  0  0  0  0
 10 12  1  0  0  0  0
  6 13  1  0  0  0  0
  2 14  2  0  0  0  0
  1 15  1  0  0  0  0
 15 16  1  0  0  0  0
 16  1  1  0  0  0  0
M  END
>  <cdx:fragmentId>
3

$$$$
