92570.cdx
  Mrv1902 05222410282D          

 12 11  0  0  0  0            999 V2000
    3.5343   -3.0396    0.0000 C   0  0  0  0  0  0  0  0  0  0  0  0
    2.8198   -3.4521    0.0000 C   0  0  0  0  0  0  0  0  0  0  0  0
    2.1053   -3.0396    0.0000 C   0  0  0  0  0  0  0  0  0  0  0  0
    2.1053   -2.2146    0.0000 C   0  0  0  0  0  0  0  0  0  0  0  0
    3.5343   -2.2146    0.0000 O   0  0  0  0  0  0  0  0  0  0  0  0
    4.2488   -3.4521    0.0000 O   0  0  0  0  0  0  0  0  0  0  0  0
    1.3909   -3.4521    0.0000 C   0  0  0  0  0  0  0  0  0  0  0  0
    4.9632   -3.0396    0.0000 C   0  0  0  0  0  0  0  0  0  0  0  0
    5.6777   -3.4521    0.0000 C   0  0  0  0  0  0  0  0  0  0  0  0
    6.3922   -3.0396    0.0000 C   0  0  0  0  0  0  0  0  0  0  0  0
    7.1066   -3.4521    0.0000 C   0  0  0  0  0  0  0  0  0  0  0  0
    6.3922   -2.2146    0.0000 C   0  0  0  0  0  0  0  0  0  0  0  0
  1  2  1  0  0  0  0
  2  3  2  0  0  0  0
  3  4  1  0  0  0  0
  1  5  2  0  0  0  0
  1  6  1  0  0  0  0
  3  7  1  0  0  0  0
  8  9  1  0  0  0  0
  9 10  1  0  0  0  0
 10 11  1  0  0  0  0
 10 12  1  0  0  0  0
  6  8  1  0  0  0  0
M  END
>  <cdx:groupId>
37

>  <cdx:fragmentId>
5

$$$$
