92578.cdx
  Mrv1902 05222410202D          

 27 30  0  0  0  0            999 V2000
    4.1781   -7.4937    0.0000 C   0  0  0  0  0  0  0  0  0  0  0  0
    4.1781   -8.3187    0.0000 C   0  0  0  0  0  0  0  0  0  0  0  0
    4.8925   -8.7313    0.0000 C   0  0  1  0  0  0  0  0  0  0  0  0
    5.6070   -8.3187    0.0000 C   0  0  0  0  0  0  0  0  0  0  0  0
    5.6070   -7.4937    0.0000 C   0  0  1  0  0  0  0  0  0  0  0  0
    4.8925   -7.0812    0.0000 C   0  0  0  0  0  0  0  0  0  0  0  0
    6.3215   -8.7313    0.0000 C   0  0  0  0  0  0  0  0  0  0  0  0
    7.0359   -8.3187    0.0000 C   0  0  0  0  0  0  0  0  0  0  0  0
    7.0359   -7.4937    0.0000 C   0  0  2  0  0  0  0  0  0  0  0  0
    6.3215   -7.0812    0.0000 C   0  0  0  0  0  0  0  0  0  0  0  0
    7.7504   -7.0812    0.0000 C   0  0  0  0  0  0  0  0  0  0  0  0
    7.7504   -6.2563    0.0000 C   0  0  0  0  0  0  0  0  0  0  0  0
    7.0359   -5.8438    0.0000 C   0  0  0  0  0  0  0  0  0  0  0  0
    6.3215   -6.2563    0.0000 C   0  0  0  0  0  0  0  0  0  0  0  0
    4.4800   -9.4457    0.0000 C   0  0  0  0  0  0  0  0  0  0  0  0
    3.6550   -9.4457    0.0000 O   0  0  0  0  0  0  0  0  0  0  0  0
    5.6070   -9.1438    0.0000 H   0  0  0  0  0  0  0  0  0  0  0  0
    6.3215   -7.9063    0.0000 H   0  0  0  0  0  0  0  0  0  0  0  0
    8.4649   -6.6688    0.0000 C   0  0  2  0  0  0  0  0  0  0  0  0
    7.7504   -7.9063    0.0000 C   0  0  0  0  0  0  0  0  0  0  0  0
    9.0482   -6.0854    0.0000 C   0  0  0  0  0  0  0  0  0  0  0  0
    9.8451   -6.2989    0.0000 O   0  0  0  0  0  0  0  0  0  0  0  0
    5.3050   -9.4457    0.0000 C   0  0  0  0  0  0  0  0  0  0  0  0
    6.1300   -9.4457    0.0000 O   0  0  0  0  0  0  0  0  0  0  0  0
    4.8925  -10.1602    0.0000 O   0  0  0  0  0  0  0  0  0  0  0  0
    5.6070   -6.6688    0.0000 C   0  0  0  0  0  0  0  0  0  0  0  0
    9.1194   -7.1710    0.0000 O   0  0  0  0  0  0  0  0  0  0  0  0
  1  2  1  0  0  0  0
  2  3  1  0  0  0  0
  3  4  1  0  0  0  0
  4  5  1  0  0  0  0
  5  6  1  0  0  0  0
  6  1  1  0  0  0  0
  4  7  1  0  0  0  0
  7  8  1  0  0  0  0
  8  9  1  0  0  0  0
  9 10  1  0  0  0  0
 10  5  1  0  0  0  0
  9 11  1  6  0  0  0
 12 11  1  6  0  0  0
 12 13  1  0  0  0  0
 13 14  1  0  0  0  0
 14 10  1  0  0  0  0
  3 15  1  0  0  0  0
 15 16  1  0  0  0  0
  4 17  1  0  0  0  0
 10 18  1  0  0  0  0
 12 19  1  0  0  0  0
  9 20  1  0  0  0  0
 20 19  1  0  0  0  0
 19 21  1  0  0  0  0
 21 22  1  0  0  0  0
  3 23  1  6  0  0  0
  5 26  1  6  0  0  0
 19 27  1  6  0  0  0
 23 24  2  0  0  0  0
 23 25  1  0  0  0  0
M  STY  1   1 SUP
M  SAL   1  3  23  24  25
M  SBL   1  1  26
M  SMT   1 COOH
M  SAP   1  1  23   3  1
M  END
>  <cdx:fragmentId>
5

$$$$
