92575.cdx
  Mrv1902 05222410262D          

 36 40  0  0  0  0            999 V2000
    2.4456   -5.1287    0.0000 C   0  0  0  0  0  0  0  0  0  0  0  0
    3.1600   -5.5413    0.0000 O   0  0  0  0  0  0  0  0  0  0  0  0
    3.8745   -5.1287    0.0000 C   0  0  0  0  0  0  0  0  0  0  0  0
    3.8745   -4.3037    0.0000 C   0  0  0  0  0  0  0  0  0  0  0  0
    3.1600   -3.8912    0.0000 O   0  0  0  0  0  0  0  0  0  0  0  0
    4.5890   -5.5413    0.0000 C   0  0  0  0  0  0  0  0  0  0  0  0
    5.3034   -5.1287    0.0000 C   0  0  0  0  0  0  0  0  0  0  0  0
    5.3034   -4.3037    0.0000 C   0  0  0  0  0  0  0  0  0  0  0  0
    4.5890   -3.8912    0.0000 C   0  0  0  0  0  0  0  0  0  0  0  0
    6.0179   -5.5413    0.0000 C   0  0  2  0  0  0  0  0  0  0  0  0
    6.7324   -5.1287    0.0000 N   0  0  0  0  0  0  0  0  0  0  0  0
    6.7324   -4.3037    0.0000 C   0  0  0  0  0  0  0  0  0  0  0  0
    6.0179   -3.8912    0.0000 C   0  0  0  0  0  0  0  0  0  0  0  0
    3.1600   -3.0662    0.0000 C   0  0  0  0  0  0  0  0  0  0  0  0
    6.0179   -6.3662    0.0000 C   0  0  0  0  0  0  0  0  0  0  0  0
    6.7324   -6.7787    0.0000 C   0  0  1  0  0  0  0  0  0  0  0  0
    7.4469   -6.3662    0.0000 C   0  0  0  0  0  0  0  0  0  0  0  0
    6.7324   -7.6037    0.0000 C   0  0  2  0  0  0  0  0  0  0  0  0
    7.4469   -8.0162    0.0000 C   0  0  0  0  0  0  0  0  0  0  0  0
    8.1613   -7.6037    0.0000 N   0  0  0  0  0  0  0  0  0  0  0  0
    8.1613   -6.7787    0.0000 C   0  0  2  0  0  0  0  0  0  0  0  0
    8.8758   -8.0162    0.0000 C   0  0  0  0  0  0  0  0  0  0  0  0
    9.5903   -7.6037    0.0000 C   0  0  0  0  0  0  0  0  0  0  0  0
    9.5903   -6.7787    0.0000 C   0  0  0  0  0  0  0  0  0  0  0  0
    8.8758   -6.3662    0.0000 C   0  0  0  0  0  0  0  0  0  0  0  0
   10.3047   -6.3662    0.0000 C   0  0  0  0  0  0  0  0  0  0  0  0
   10.3047   -5.5413    0.0000 C   0  0  0  0  0  0  0  0  0  0  0  0
    9.5903   -5.1287    0.0000 C   0  0  0  0  0  0  0  0  0  0  0  0
    8.8758   -5.5413    0.0000 C   0  0  0  0  0  0  0  0  0  0  0  0
   11.0192   -5.1287    0.0000 O   0  0  0  0  0  0  0  0  0  0  0  0
   10.3047   -3.8912    0.0000 C   0  0  0  0  0  0  0  0  0  0  0  0
    9.5903   -4.3037    0.0000 O   0  0  0  0  0  0  0  0  0  0  0  0
    6.0179   -8.0162    0.0000 C   0  0  0  0  0  0  0  0  0  0  0  0
    6.0179   -8.8412    0.0000 C   0  0  0  0  0  0  0  0  0  0  0  0
   11.7337   -5.5413    0.0000 C   0  0  0  0  0  0  0  0  0  0  0  0
    8.1613   -5.9537    0.0000 H   0  0  0  0  0  0  0  0  0  0  0  0
  1  2  1  0  0  0  0
  2  3  1  0  0  0  0
  3  4  2  0  0  0  0
  4  5  1  0  0  0  0
  3  6  1  0  0  0  0
  6  7  2  0  0  0  0
  7  8  1  0  0  0  0
  8  9  2  0  0  0  0
  9  4  1  0  0  0  0
  7 10  1  0  0  0  0
 10 11  1  0  0  0  0
 11 12  1  0  0  0  0
 12 13  1  0  0  0  0
 13  8  1  0  0  0  0
 14  5  1  0  0  0  0
 10 15  1  6  0  0  0
 16 15  1  1  0  0  0
 16 17  1  0  0  0  0
 16 18  1  0  0  0  0
 18 19  1  0  0  0  0
 19 20  1  0  0  0  0
 20 21  1  0  0  0  0
 21 17  1  0  0  0  0
 20 22  1  0  0  0  0
 22 23  1  0  0  0  0
 23 24  1  0  0  0  0
 24 25  1  0  0  0  0
 25 21  1  0  0  0  0
 24 26  2  0  0  0  0
 26 27  1  0  0  0  0
 27 28  2  0  0  0  0
 28 29  1  0  0  0  0
 29 25  2  0  0  0  0
 27 30  1  0  0  0  0
 31 32  1  0  0  0  0
 32 28  1  0  0  0  0
 18 33  1  6  0  0  0
 33 34  1  0  0  0  0
 30 35  1  0  0  0  0
 21 36  1  6  0  0  0
M  END
>  <cdx:fragmentId>
5

$$$$
