92577.cdx
  Mrv1902 05222410262D          

 21 23  0  0  0  0            999 V2000
    4.7693   -6.1325    0.0000 C   0  0  0  0  0  0  0  0  0  0  0  0
    4.7693   -6.9575    0.0000 C   0  0  0  0  0  0  0  0  0  0  0  0
    5.4838   -7.3700    0.0000 C   0  0  0  0  0  0  0  0  0  0  0  0
    6.1982   -6.9575    0.0000 C   0  0  0  0  0  0  0  0  0  0  0  0
    6.1982   -6.1325    0.0000 C   0  0  0  0  0  0  0  0  0  0  0  0
    5.4838   -5.7200    0.0000 C   0  0  0  0  0  0  0  0  0  0  0  0
    6.9127   -7.3700    0.0000 C   0  0  0  0  0  0  0  0  0  0  0  0
    7.6272   -6.9575    0.0000 C   0  0  0  0  0  0  0  0  0  0  0  0
    7.6272   -6.1325    0.0000 C   0  0  0  0  0  0  0  0  0  0  0  0
    6.9127   -5.7200    0.0000 C   0  0  0  0  0  0  0  0  0  0  0  0
    8.3417   -7.3700    0.0000 C   0  0  0  0  0  0  0  0  0  0  0  0
    9.0561   -6.9575    0.0000 C   0  0  0  0  0  0  0  0  0  0  0  0
    9.0561   -6.1325    0.0000 C   0  0  0  0  0  0  0  0  0  0  0  0
    8.3417   -5.7200    0.0000 C   0  0  0  0  0  0  0  0  0  0  0  0
    5.4838   -4.8950    0.0000 O   0  0  0  0  0  0  0  0  0  0  0  0
    4.0548   -7.3700    0.0000 C   0  0  0  0  0  0  0  0  0  0  0  0
    6.9127   -4.8950    0.0000 O   0  0  0  0  0  0  0  0  0  0  0  0
    6.9127   -8.1950    0.0000 O   0  0  0  0  0  0  0  0  0  0  0  0
    8.3417   -4.8950    0.0000 O   0  0  0  0  0  0  0  0  0  0  0  0
    9.7706   -7.3700    0.0000 O   0  0  0  0  0  0  0  0  0  0  0  0
    9.0561   -4.4825    0.0000 C   0  0  0  0  0  0  0  0  0  0  0  0
  1  2  2  0  0  0  0
  2  3  1  0  0  0  0
  3  4  2  0  0  0  0
  4  5  1  0  0  0  0
  5  6  2  0  0  0  0
  6  1  1  0  0  0  0
  4  7  1  0  0  0  0
  7  8  1  0  0  0  0
  8  9  2  0  0  0  0
  9 10  1  0  0  0  0
 10  5  1  0  0  0  0
  8 11  1  0  0  0  0
 11 12  2  0  0  0  0
 12 13  1  0  0  0  0
 13 14  2  0  0  0  0
 14  9  1  0  0  0  0
  6 15  1  0  0  0  0
  2 16  1  0  0  0  0
 10 17  2  0  0  0  0
  7 18  2  0  0  0  0
 14 19  1  0  0  0  0
 12 20  1  0  0  0  0
 19 21  1  0  0  0  0
M  END
>  <cdx:fragmentId>
5

$$$$
