92589.cdx
  Mrv1902 05222410272D          

 24 25  0  0  0  0            999 V2000
    3.7381   -6.9712    0.0000 C   0  0  0  0  0  0  0  0  0  0  0  0
    3.7381   -7.7963    0.0000 C   0  0  0  0  0  0  0  0  0  0  0  0
    4.4525   -8.2088    0.0000 C   0  0  0  0  0  0  0  0  0  0  0  0
    5.1670   -7.7963    0.0000 C   0  0  0  0  0  0  0  0  0  0  0  0
    5.1670   -6.9712    0.0000 C   0  0  0  0  0  0  0  0  0  0  0  0
    4.4525   -6.5587    0.0000 C   0  0  0  0  0  0  0  0  0  0  0  0
    3.0236   -6.5587    0.0000 O   0  0  0  0  0  0  0  0  0  0  0  0
    2.3091   -6.9712    0.0000 C   0  0  0  0  0  0  0  0  0  0  0  0
    3.0236   -8.2087    0.0000 O   0  0  0  0  0  0  0  0  0  0  0  0
    6.5959   -7.7963    0.0000 C   0  0  0  0  0  0  0  0  0  0  0  0
    6.5959   -6.9712    0.0000 C   0  0  1  0  0  0  0  0  0  0  0  0
    5.8815   -6.5587    0.0000 C   0  0  2  0  0  0  0  0  0  0  0  0
    7.3104   -8.2088    0.0000 O   0  0  0  0  0  0  0  0  0  0  0  0
    8.0249   -6.9712    0.0000 C   0  0  0  0  0  0  0  0  0  0  0  0
    7.3104   -6.5587    0.0000 C   0  0  0  0  0  0  0  0  0  0  0  0
    8.7394   -6.5587    0.0000 C   0  0  0  0  0  0  0  0  0  0  0  0
    8.7394   -5.7338    0.0000 C   0  0  0  0  0  0  0  0  0  0  0  0
    8.0249   -5.3213    0.0000 C   0  0  0  0  0  0  0  0  0  0  0  0
    7.3104   -5.7338    0.0000 C   0  0  0  0  0  0  0  0  0  0  0  0
    9.4538   -6.9712    0.0000 O   0  0  0  0  0  0  0  0  0  0  0  0
   10.1683   -6.5587    0.0000 C   0  0  0  0  0  0  0  0  0  0  0  0
    9.4538   -5.3213    0.0000 O   0  0  0  0  0  0  0  0  0  0  0  0
    5.8815   -5.7338    0.0000 O   0  0  0  0  0  0  0  0  0  0  0  0
    5.1670   -5.3213    0.0000 C   0  0  0  0  0  0  0  0  0  0  0  0
  1  2  2  0  0  0  0
  2  3  1  0  0  0  0
  3  4  2  0  0  0  0
  4  5  1  0  0  0  0
  5  6  2  0  0  0  0
  6  1  1  0  0  0  0
  1  7  1  0  0  0  0
  7  8  1  0  0  0  0
  9  2  1  0  0  0  0
 11 10  1  1  0  0  0
 11 12  1  0  0  0  0
 12  5  1  0  0  0  0
 10 13  1  0  0  0  0
 14 15  2  0  0  0  0
 15 11  1  0  0  0  0
 14 16  1  0  0  0  0
 16 17  2  0  0  0  0
 17 18  1  0  0  0  0
 18 19  2  0  0  0  0
 19 15  1  0  0  0  0
 16 20  1  0  0  0  0
 20 21  1  0  0  0  0
 22 17  1  0  0  0  0
 12 23  1  1  0  0  0
 23 24  1  0  0  0  0
M  END
>  <cdx:fragmentId>
5

$$$$
