92583.cdx
  Mrv1902 05222410182D          

 21 23  0  0  0  0            999 V2000
    7.4686   -5.0331    0.0000 C   0  0  2  0  0  0  0  0  0  0  0  0
    7.4686   -5.8581    0.0000 C   0  0  0  0  0  0  0  0  0  0  0  0
    6.7541   -6.2706    0.0000 C   0  0  0  0  0  0  0  0  0  0  0  0
    6.0396   -5.8581    0.0000 C   0  0  0  0  0  0  0  0  0  0  0  0
    5.3252   -6.2706    0.0000 C   0  0  0  0  0  0  0  0  0  0  0  0
    4.6107   -5.8581    0.0000 C   0  0  0  0  0  0  0  0  0  0  0  0
    4.6107   -5.0331    0.0000 C   0  0  0  0  0  0  0  0  0  0  0  0
    5.3252   -4.6206    0.0000 C   0  0  0  0  0  0  0  0  0  0  0  0
    6.0396   -5.0331    0.0000 C   0  0  0  0  0  0  0  0  0  0  0  0
    6.7541   -4.6206    0.0000 O   0  0  0  0  0  0  0  0  0  0  0  0
    6.7541   -7.0956    0.0000 O   0  0  0  0  0  0  0  0  0  0  0  0
    3.8962   -4.6206    0.0000 O   0  0  0  0  0  0  0  0  0  0  0  0
    5.3252   -7.0956    0.0000 O   0  0  0  0  0  0  0  0  0  0  0  0
    8.8975   -2.5581    0.0000 O   0  0  0  0  0  0  0  0  0  0  0  0
   10.3264   -3.3831    0.0000 O   0  0  0  0  0  0  0  0  0  0  0  0
    8.8975   -5.0331    0.0000 C   0  0  0  0  0  0  0  0  0  0  0  0
    9.6120   -4.6206    0.0000 C   0  0  0  0  0  0  0  0  0  0  0  0
    9.6120   -3.7956    0.0000 C   0  0  0  0  0  0  0  0  0  0  0  0
    8.8975   -3.3831    0.0000 C   0  0  0  0  0  0  0  0  0  0  0  0
    8.1830   -3.7956    0.0000 C   0  0  0  0  0  0  0  0  0  0  0  0
    8.1830   -4.6206    0.0000 C   0  0  0  0  0  0  0  0  0  0  0  0
 19 14  1  0  0  0  0
 18 15  1  0  0  0  0
 21 16  2  0  0  0  0
 17 16  1  0  0  0  0
 18 17  2  0  0  0  0
 19 18  1  0  0  0  0
 20 19  2  0  0  0  0
 21 20  1  0  0  0  0
  1  2  1  0  0  0  0
  2  3  1  0  0  0  0
  3  4  1  0  0  0  0
  4  5  1  0  0  0  0
  5  6  2  0  0  0  0
  6  7  1  0  0  0  0
  7  8  2  0  0  0  0
  8  9  1  0  0  0  0
  4  9  2  0  0  0  0
  9 10  1  0  0  0  0
  1 10  1  0  0  0  0
  3 11  2  0  0  0  0
  7 12  1  0  0  0  0
  5 13  1  0  0  0  0
  1 21  1  6  0  0  0
M  END
>  <cdx:fragmentId>
29998

$$$$
