92584.cdx
  Mrv1902 05222410192D          

 35 38  0  0  0  0            999 V2000
   12.9601   -5.1150    0.0000 O   0  0  0  0  0  0  0  0  0  0  0  0
   11.5311   -4.2900    0.0000 O   0  0  0  0  0  0  0  0  0  0  0  0
    9.3877   -8.8275    0.0000 O   0  0  0  0  0  0  0  0  0  0  0  0
    7.9588   -8.8275    0.0000 O   0  0  0  0  0  0  0  0  0  0  0  0
    6.5298   -6.3525    0.0000 O   0  0  0  0  0  0  0  0  0  0  0  0
   12.2456   -6.3525    0.0000 C   0  0  0  0  0  0  0  0  0  0  0  0
   12.2456   -5.5275    0.0000 C   0  0  0  0  0  0  0  0  0  0  0  0
   11.5311   -5.1150    0.0000 C   0  0  0  0  0  0  0  0  0  0  0  0
   10.8167   -5.5275    0.0000 C   0  0  0  0  0  0  0  0  0  0  0  0
   11.5311   -6.7650    0.0000 C   0  0  0  0  0  0  0  0  0  0  0  0
   10.8167   -6.3525    0.0000 C   0  0  0  0  0  0  0  0  0  0  0  0
    9.3877   -8.0025    0.0000 C   0  0  0  0  0  0  0  0  0  0  0  0
   10.1022   -7.5900    0.0000 C   0  0  0  0  0  0  0  0  0  0  0  0
   10.1022   -6.7650    0.0000 C   0  0  1  0  0  0  0  0  0  0  0  0
    9.3877   -6.3525    0.0000 O   0  0  0  0  0  0  0  0  0  0  0  0
    7.9588   -8.0025    0.0000 C   0  0  0  0  0  0  0  0  0  0  0  0
    8.6732   -7.5900    0.0000 C   0  0  0  0  0  0  0  0  0  0  0  0
    8.6732   -6.7650    0.0000 C   0  0  0  0  0  0  0  0  0  0  0  0
    7.9588   -6.3525    0.0000 C   0  0  0  0  0  0  0  0  0  0  0  0
    7.2443   -6.7650    0.0000 C   0  0  0  0  0  0  0  0  0  0  0  0
    7.2443   -7.5900    0.0000 C   0  0  0  0  0  0  0  0  0  0  0  0
    5.8154   -6.7650    0.0000 C   0  0  2  0  0  0  0  0  0  0  0  0
    5.1009   -6.3525    0.0000 O   0  0  0  0  0  0  0  0  0  0  0  0
    4.3864   -6.7650    0.0000 C   0  0  1  0  0  0  0  0  0  0  0  0
    4.3864   -7.5900    0.0000 C   0  0  2  0  0  0  0  0  0  0  0  0
    5.1009   -8.0025    0.0000 C   0  0  1  0  0  0  0  0  0  0  0  0
    5.8154   -7.5900    0.0000 C   0  0  1  0  0  0  0  0  0  0  0  0
    3.6719   -6.3525    0.0000 C   0  0  0  0  0  0  0  0  0  0  0  0
    5.1009   -8.8275    0.0000 O   0  0  0  0  0  0  0  0  0  0  0  0
    3.6719   -8.0025    0.0000 O   0  0  0  0  0  0  0  0  0  0  0  0
    6.5298   -8.0025    0.0000 O   0  0  0  0  0  0  0  0  0  0  0  0
    2.9575   -6.7650    0.0000 O   0  0  0  0  0  0  0  0  0  0  0  0
    2.2430   -6.3525    0.0000 C   0  0  0  0  0  0  0  0  0  0  0  0
    1.5285   -6.7650    0.0000 C   0  0  0  0  0  0  0  0  0  0  0  0
    2.2430   -5.5275    0.0000 O   0  0  0  0  0  0  0  0  0  0  0  0
  7  1  1  0  0  0  0
  8  2  1  0  0  0  0
 12  3  2  0  0  0  0
 16  4  1  0  0  0  0
 20  5  1  0  0  0  0
  6 10  1  0  0  0  0
  7  6  2  0  0  0  0
  8  7  1  0  0  0  0
  9  8  2  0  0  0  0
 11  9  1  0  0  0  0
 11 10  2  0  0  0  0
 14 11  1  1  0  0  0
 12 17  1  0  0  0  0
 13 12  1  0  0  0  0
 14 13  1  0  0  0  0
 15 14  1  0  0  0  0
 18 15  1  0  0  0  0
 16 21  1  0  0  0  0
 17 16  2  0  0  0  0
 18 17  1  0  0  0  0
 19 18  2  0  0  0  0
 20 19  1  0  0  0  0
 21 20  2  0  0  0  0
 22  5  1  1  0  0  0
 22 23  1  0  0  0  0
 23 24  1  0  0  0  0
 24 25  1  0  0  0  0
 25 26  1  0  0  0  0
 26 27  1  0  0  0  0
 27 22  1  0  0  0  0
 24 28  1  1  0  0  0
 26 29  1  1  0  0  0
 25 30  1  6  0  0  0
 27 31  1  6  0  0  0
 28 32  1  0  0  0  0
 32 33  1  0  0  0  0
 33 34  1  0  0  0  0
 33 35  2  0  0  0  0
M  END
>  <cdx:fragmentId>
5

$$$$
