92582.cdx
  Mrv1902 05222410182D          

 15 15  0  0  0  0            999 V2000
    6.6393   -6.5587    0.0000 C   0  0  0  0  0  0  0  0  0  0  0  0
    6.6393   -7.3838    0.0000 C   0  0  2  0  0  0  0  0  0  0  0  0
    7.3538   -7.7963    0.0000 C   0  0  0  0  0  0  0  0  0  0  0  0
    8.0682   -7.3838    0.0000 C   0  0  0  0  0  0  0  0  0  0  0  0
    8.0682   -6.5587    0.0000 C   0  0  0  0  0  0  0  0  0  0  0  0
    7.3538   -6.1463    0.0000 O   0  0  0  0  0  0  0  0  0  0  0  0
    8.8529   -7.6387    0.0000 N   0  0  0  0  0  0  0  0  0  0  0  0
    9.3378   -6.9712    0.0000 C   0  0  0  0  0  0  0  0  0  0  0  0
    8.8529   -6.3038    0.0000 N   0  0  0  0  0  0  0  0  0  0  0  0
   10.1628   -6.9712    0.0000 S   0  0  0  0  0  0  0  0  0  0  0  0
    5.9248   -6.1463    0.0000 O   0  5  0  0  0  0  0  0  0  0  0  0
    5.9248   -7.7963    0.0000 N   0  3  0  0  0  0  0  0  0  0  0  0
    5.2104   -8.2088    0.0000 C   0  0  0  0  0  0  0  0  0  0  0  0
    5.5123   -7.0818    0.0000 C   0  0  0  0  0  0  0  0  0  0  0  0
    6.3373   -8.5107    0.0000 C   0  0  0  0  0  0  0  0  0  0  0  0
  2  1  1  6  0  0  0
  2  3  1  0  0  0  0
  3  4  1  0  0  0  0
  4  5  2  0  0  0  0
  6  1  2  0  0  0  0
  4  7  1  0  0  0  0
  7  8  1  0  0  0  0
  8  9  1  0  0  0  0
  9  5  1  0  0  0  0
  8 10  2  0  0  0  0
  1 11  1  0  0  0  0
  2 12  1  0  0  0  0
 12 13  1  0  0  0  0
 12 14  1  0  0  0  0
 12 15  1  0  0  0  0
M  CHG  2  11  -1  12   1
M  END
>  <cdx:fragmentId>
5

$$$$
