92586.cdx
  Mrv1902 05222410202D          

 24 23  0  0  0  0            999 V2000
   10.1381   -8.4838    0.0000 C   0  0  0  0  0  0  0  0  0  0  0  0
    9.4237   -8.0713    0.0000 C   0  0  0  0  0  0  0  0  0  0  0  0
    8.7092   -8.4838    0.0000 C   0  0  0  0  0  0  0  0  0  0  0  0
    7.9947   -8.0713    0.0000 C   0  0  0  0  0  0  0  0  0  0  0  0
    7.2803   -8.4838    0.0000 C   0  0  0  0  0  0  0  0  0  0  0  0
    6.5658   -8.0713    0.0000 C   0  0  0  0  0  0  0  0  0  0  0  0
    5.8513   -8.4838    0.0000 C   0  0  0  0  0  0  0  0  0  0  0  0
    5.1369   -8.0713    0.0000 C   0  0  0  0  0  0  0  0  0  0  0  0
    4.4224   -8.4838    0.0000 C   0  0  0  0  0  0  0  0  0  0  0  0
    3.7079   -8.0713    0.0000 C   0  0  0  0  0  0  0  0  0  0  0  0
    2.9934   -8.4838    0.0000 C   0  0  0  0  0  0  0  0  0  0  0  0
    2.2790   -8.0713    0.0000 C   0  0  0  0  0  0  0  0  0  0  0  0
    1.5645   -8.4838    0.0000 C   0  0  0  0  0  0  0  0  0  0  0  0
    0.8500   -8.0713    0.0000 N   0  0  0  0  0  0  0  0  0  0  0  0
   10.8526   -8.0713    0.0000 C   0  0  0  0  0  0  0  0  0  0  0  0
   10.8526   -7.2462    0.0000 C   0  0  0  0  0  0  0  0  0  0  0  0
   11.5671   -6.8338    0.0000 C   0  0  0  0  0  0  0  0  0  0  0  0
   11.5671   -6.0088    0.0000 C   0  0  0  0  0  0  0  0  0  0  0  0
   12.2816   -5.5962    0.0000 C   0  0  0  0  0  0  0  0  0  0  0  0
   12.2816   -4.7713    0.0000 C   0  0  0  0  0  0  0  0  0  0  0  0
   12.9960   -4.3587    0.0000 C   0  0  0  0  0  0  0  0  0  0  0  0
   12.9960   -3.5337    0.0000 C   0  0  0  0  0  0  0  0  0  0  0  0
   13.7105   -3.1212    0.0000 C   0  0  0  0  0  0  0  0  0  0  0  0
    1.5645   -9.3087    0.0000 O   0  0  0  0  0  0  0  0  0  0  0  0
  2  1  1  0  0  0  0
  3  2  1  0  0  0  0
  4  3  1  0  0  0  0
  5  4  1  0  0  0  0
  6  5  1  0  0  0  0
  7  6  1  0  0  0  0
  8  7  1  0  0  0  0
  9  8  1  0  0  0  0
 10  9  1  0  0  0  0
 11 10  1  0  0  0  0
 12 11  1  0  0  0  0
 13 12  1  0  0  0  0
 14 13  1  0  0  0  0
  1 15  2  0  0  0  0
 15 16  1  0  0  0  0
 16 17  1  0  0  0  0
 17 18  1  0  0  0  0
 18 19  1  0  0  0  0
 19 20  1  0  0  0  0
 20 21  1  0  0  0  0
 21 22  1  0  0  0  0
 22 23  1  0  0  0  0
 13 24  2  0  0  0  0
M  END
>  <cdx:fragmentId>
3

$$$$
