92581.cdx
  Mrv1902 05222410182D          

 43 47  0  0  0  0            999 V2000
    6.4335   -9.8446    0.0000 C   0  0  0  0  0  0  0  0  0  0  0  0
    5.7191  -10.2571    0.0000 C   0  0  0  0  0  0  0  0  0  0  0  0
    5.7191  -11.0821    0.0000 C   0  0  1  0  0  0  0  0  0  0  0  0
    6.4335  -11.4946    0.0000 C   0  0  0  0  0  0  0  0  0  0  0  0
    7.1480  -11.0821    0.0000 C   0  0  0  0  0  0  0  0  0  0  0  0
    7.8625  -11.4946    0.0000 C   0  0  0  0  0  0  0  0  0  0  0  0
    8.5769  -11.0821    0.0000 C   0  0  0  0  0  0  0  0  0  0  0  0
    8.5769  -10.2571    0.0000 C   0  0  0  0  0  0  0  0  0  0  0  0
    9.2914   -9.8446    0.0000 C   0  0  2  0  0  0  0  0  0  0  0  0
   10.0760  -10.0995    0.0000 C   0  0  0  0  0  0  0  0  0  0  0  0
   10.5610   -9.4321    0.0000 C   0  0  0  0  0  0  0  0  0  0  0  0
   10.0760   -8.7646    0.0000 C   0  0  1  0  0  0  0  0  0  0  0  0
    9.2914   -9.0196    0.0000 C   0  0  1  0  0  0  0  0  0  0  0  0
    8.5769   -8.6071    0.0000 C   0  0  0  0  0  0  0  0  0  0  0  0
    7.8625   -9.0196    0.0000 C   0  0  0  0  0  0  0  0  0  0  0  0
    7.8625   -9.8446    0.0000 C   0  0  2  0  0  0  0  0  0  0  0  0
    7.1480  -10.2571    0.0000 C   0  0  1  0  0  0  0  0  0  0  0  0
    9.3776   -8.1991    0.0000 C   0  0  0  0  0  0  0  0  0  0  0  0
    7.1480   -9.4321    0.0000 C   0  0  0  0  0  0  0  0  0  0  0  0
    9.7789   -7.3669    0.0000 C   0  0  0  0  0  0  0  0  0  0  0  0
   10.3310   -7.9800    0.0000 C   0  0  2  0  0  0  0  0  0  0  0  0
   11.1379   -7.8085    0.0000 C   0  0  0  0  0  0  0  0  0  0  0  0
   11.3929   -7.0239    0.0000 C   0  0  0  0  0  0  0  0  0  0  0  0
   12.1999   -6.8523    0.0000 C   0  0  1  0  0  0  0  0  0  0  0  0
   12.4548   -6.0677    0.0000 C   0  0  0  0  0  0  0  0  0  0  0  0
   11.9028   -5.4546    0.0000 C   0  0  0  0  0  0  0  0  0  0  0  0
   13.2618   -5.8962    0.0000 C   0  0  0  0  0  0  0  0  0  0  0  0
   12.7519   -7.4654    0.0000 C   0  0  0  0  0  0  0  0  0  0  0  0
    7.8625  -10.6696    0.0000 H   0  0  0  0  0  0  0  0  0  0  0  0
    9.2914  -10.6696    0.0000 H   0  0  0  0  0  0  0  0  0  0  0  0
    5.0046  -11.4946    0.0000 O   0  0  0  0  0  0  0  0  0  0  0  0
    2.8643   -8.6048    0.0000 O   0  0  0  0  0  0  0  0  0  0  0  0
    3.5783   -9.0180    0.0000 C   0  0  0  0  0  0  0  0  0  0  0  0
    2.1485   -9.8415    0.0000 O   0  0  0  0  0  0  0  0  0  0  0  0
    2.1467  -11.4915    0.0000 O   0  0  0  0  0  0  0  0  0  0  0  0
    3.5747  -12.3180    0.0000 O   0  0  0  0  0  0  0  0  0  0  0  0
    3.5774   -9.8430    0.0000 C   0  0  2  0  0  0  0  0  0  0  0  0
    2.8625  -10.2548    0.0000 C   0  0  2  0  0  0  0  0  0  0  0  0
    2.8616  -11.0798    0.0000 C   0  0  1  0  0  0  0  0  0  0  0  0
    3.5756  -11.4930    0.0000 C   0  0  2  0  0  0  0  0  0  0  0  0
    4.2906  -11.0813    0.0000 C   0  0  1  0  0  0  0  0  0  0  0  0
    4.2914  -10.2563    0.0000 O   0  0  0  0  0  0  0  0  0  0  0  0
   10.8909   -8.6356    0.0000 H   0  0  0  0  0  0  0  0  0  0  0  0
 41 31  1  1  0  0  0
 37 33  1  1  0  0  0
 33 32  1  0  0  0  0
 38 34  1  6  0  0  0
 39 35  1  1  0  0  0
 40 36  1  6  0  0  0
 42 37  1  0  0  0  0
 38 37  1  0  0  0  0
 39 38  1  0  0  0  0
 40 39  1  0  0  0  0
 41 40  1  0  0  0  0
 42 41  1  0  0  0  0
  1  2  1  0  0  0  0
  2  3  1  0  0  0  0
  3  4  1  0  0  0  0
  4  5  1  0  0  0  0
  5  6  2  0  0  0  0
  6  7  1  0  0  0  0
  7  8  2  0  0  0  0
  8  9  1  0  0  0  0
  9 10  1  0  0  0  0
 10 11  1  0  0  0  0
 12 11  1  0  0  0  0
 12 13  1  0  0  0  0
  9 13  1  0  0  0  0
 13 14  1  0  0  0  0
 14 15  1  0  0  0  0
 15 16  1  0  0  0  0
  8 16  1  0  0  0  0
 16 17  1  0  0  0  0
  5 17  1  0  0  0  0
  1 17  1  0  0  0  0
 13 18  1  1  0  0  0
 17 19  1  1  0  0  0
 21 20  1  6  0  0  0
 21 22  1  0  0  0  0
 22 23  2  0  0  0  0
 23 24  1  0  0  0  0
 24 25  1  0  0  0  0
 25 26  1  0  0  0  0
 25 27  1  0  0  0  0
 24 28  1  1  0  0  0
 12 21  1  0  0  0  0
  3 31  1  1  0  0  0
 16 29  1  6  0  0  0
  9 30  1  6  0  0  0
 12 43  1  6  0  0  0
M  END
>  <cdx:fragmentId>
29

$$$$
