92585.cdx
  Mrv1902 05222410192D          

 38 41  0  0  0  0            999 V2000
   13.9363   -5.1562    0.0000 O   0  0  0  0  0  0  0  0  0  0  0  0
   12.5074   -4.3313    0.0000 O   0  0  0  0  0  0  0  0  0  0  0  0
   10.3640   -8.8687    0.0000 O   0  0  0  0  0  0  0  0  0  0  0  0
    8.9350   -8.8687    0.0000 O   0  0  0  0  0  0  0  0  0  0  0  0
    7.5061   -6.3937    0.0000 O   0  0  0  0  0  0  0  0  0  0  0  0
   13.2219   -6.3937    0.0000 C   0  0  0  0  0  0  0  0  0  0  0  0
   13.2219   -5.5687    0.0000 C   0  0  0  0  0  0  0  0  0  0  0  0
   12.5074   -5.1563    0.0000 C   0  0  0  0  0  0  0  0  0  0  0  0
   11.7929   -5.5687    0.0000 C   0  0  0  0  0  0  0  0  0  0  0  0
   12.5074   -6.8062    0.0000 C   0  0  0  0  0  0  0  0  0  0  0  0
   11.7929   -6.3937    0.0000 C   0  0  0  0  0  0  0  0  0  0  0  0
   10.3640   -8.0437    0.0000 C   0  0  0  0  0  0  0  0  0  0  0  0
   11.0784   -7.6312    0.0000 C   0  0  0  0  0  0  0  0  0  0  0  0
   11.0784   -6.8062    0.0000 C   0  0  1  0  0  0  0  0  0  0  0  0
   10.3640   -6.3937    0.0000 O   0  0  0  0  0  0  0  0  0  0  0  0
    8.9350   -8.0437    0.0000 C   0  0  0  0  0  0  0  0  0  0  0  0
    9.6495   -7.6312    0.0000 C   0  0  0  0  0  0  0  0  0  0  0  0
    9.6495   -6.8062    0.0000 C   0  0  0  0  0  0  0  0  0  0  0  0
    8.9350   -6.3937    0.0000 C   0  0  0  0  0  0  0  0  0  0  0  0
    8.2206   -6.8062    0.0000 C   0  0  0  0  0  0  0  0  0  0  0  0
    8.2206   -7.6312    0.0000 C   0  0  0  0  0  0  0  0  0  0  0  0
    6.7916   -6.8062    0.0000 C   0  0  2  0  0  0  0  0  0  0  0  0
    6.0771   -6.3937    0.0000 O   0  0  0  0  0  0  0  0  0  0  0  0
    5.3627   -6.8062    0.0000 C   0  0  1  0  0  0  0  0  0  0  0  0
    5.3627   -7.6312    0.0000 C   0  0  2  0  0  0  0  0  0  0  0  0
    6.0771   -8.0437    0.0000 C   0  0  1  0  0  0  0  0  0  0  0  0
    6.7916   -7.6312    0.0000 C   0  0  1  0  0  0  0  0  0  0  0  0
    4.6482   -6.3937    0.0000 C   0  0  0  0  0  0  0  0  0  0  0  0
    6.0771   -8.8687    0.0000 O   0  0  0  0  0  0  0  0  0  0  0  0
    4.6482   -8.0437    0.0000 O   0  0  0  0  0  0  0  0  0  0  0  0
    7.5061   -8.0437    0.0000 O   0  0  0  0  0  0  0  0  0  0  0  0
    3.9337   -6.8062    0.0000 O   0  0  0  0  0  0  0  0  0  0  0  0
    3.2193   -6.3937    0.0000 C   0  0  0  0  0  0  0  0  0  0  0  0
    2.5048   -6.8062    0.0000 C   0  0  0  0  0  0  0  0  0  0  0  0
    3.2193   -5.5687    0.0000 O   0  0  0  0  0  0  0  0  0  0  0  0
    1.7903   -6.3937    0.0000 C   0  0  0  0  0  0  0  0  0  0  0  0
    1.0758   -6.8062    0.0000 O   0  0  0  0  0  0  0  0  0  0  0  0
    1.7903   -5.5687    0.0000 O   0  0  0  0  0  0  0  0  0  0  0  0
  7  1  1  0  0  0  0
  8  2  1  0  0  0  0
 12  3  2  0  0  0  0
 16  4  1  0  0  0  0
 20  5  1  0  0  0  0
  6 10  1  0  0  0  0
  7  6  2  0  0  0  0
  8  7  1  0  0  0  0
  9  8  2  0  0  0  0
 11  9  1  0  0  0  0
 11 10  2  0  0  0  0
 14 11  1  1  0  0  0
 12 17  1  0  0  0  0
 13 12  1  0  0  0  0
 14 13  1  0  0  0  0
 15 14  1  0  0  0  0
 18 15  1  0  0  0  0
 16 21  1  0  0  0  0
 17 16  2  0  0  0  0
 18 17  1  0  0  0  0
 19 18  2  0  0  0  0
 20 19  1  0  0  0  0
 21 20  2  0  0  0  0
 22  5  1  1  0  0  0
 22 23  1  0  0  0  0
 23 24  1  0  0  0  0
 24 25  1  0  0  0  0
 25 26  1  0  0  0  0
 26 27  1  0  0  0  0
 27 22  1  0  0  0  0
 24 28  1  1  0  0  0
 26 29  1  1  0  0  0
 25 30  1  6  0  0  0
 27 31  1  6  0  0  0
 28 32  1  0  0  0  0
 32 33  1  0  0  0  0
 33 34  1  0  0  0  0
 33 35  2  0  0  0  0
 34 36  1  0  0  0  0
 36 37  1  0  0  0  0
 36 38  2  0  0  0  0
M  END
>  <cdx:fragmentId>
5

$$$$
