92595.cdx
  Mrv1902 05222410182D          

 39 41  0  0  0  0            999 V2000
    6.1163   -9.9143    0.0000 C   0  0  2  0  0  0  0  0  0  0  0  0
    5.7038  -10.6288    0.0000 C   0  0  0  0  0  0  0  0  0  0  0  0
    6.1163  -11.3432    0.0000 C   0  0  2  0  0  0  0  0  0  0  0  0
    6.9413  -11.3432    0.0000 C   0  0  0  0  0  0  0  0  0  0  0  0
    7.3538  -10.6287    0.0000 C   0  0  2  0  0  0  0  0  0  0  0  0
    6.9413   -9.9143    0.0000 C   0  0  1  0  0  0  0  0  0  0  0  0
    5.7038   -9.1998    0.0000 O   0  0  0  0  0  0  0  0  0  0  0  0
    4.8788   -9.1998    0.0000 C   0  0  0  0  0  0  0  0  0  0  0  0
    4.4663   -9.9143    0.0000 O   0  0  0  0  0  0  0  0  0  0  0  0
    4.4663   -8.4853    0.0000 C   0  0  0  0  0  0  0  0  0  0  0  0
    3.6413   -8.4853    0.0000 C   0  0  0  0  0  0  0  0  0  0  0  0
    3.6413   -7.0564    0.0000 C   0  0  0  0  0  0  0  0  0  0  0  0
    3.2288   -7.7709    0.0000 C   0  0  0  0  0  0  0  0  0  0  0  0
    3.2288   -6.3419    0.0000 C   0  0  0  0  0  0  0  0  0  0  0  0
    2.4038   -6.3419    0.0000 C   0  0  0  0  0  0  0  0  0  0  0  0
    1.9913   -7.0564    0.0000 C   0  0  0  0  0  0  0  0  0  0  0  0
    2.4038   -7.7709    0.0000 C   0  0  0  0  0  0  0  0  0  0  0  0
    8.5913   -9.9143    0.0000 O   0  0  0  0  0  0  0  0  0  0  0  0
    8.1788   -9.1998    0.0000 C   0  0  0  0  0  0  0  0  0  0  0  0
    7.3538   -9.1998    0.0000 O   0  0  0  0  0  0  0  0  0  0  0  0
    9.4163   -8.4853    0.0000 C   0  0  0  0  0  0  0  0  0  0  0  0
    8.5913   -8.4853    0.0000 C   0  0  0  0  0  0  0  0  0  0  0  0
    9.8288   -7.7709    0.0000 C   0  0  0  0  0  0  0  0  0  0  0  0
    9.4163   -7.0564    0.0000 C   0  0  0  0  0  0  0  0  0  0  0  0
   10.6538   -7.7709    0.0000 C   0  0  0  0  0  0  0  0  0  0  0  0
   11.0663   -7.0564    0.0000 C   0  0  0  0  0  0  0  0  0  0  0  0
   10.6538   -6.3419    0.0000 C   0  0  0  0  0  0  0  0  0  0  0  0
    9.8288   -6.3419    0.0000 C   0  0  0  0  0  0  0  0  0  0  0  0
    1.9913   -5.6275    0.0000 O   0  0  0  0  0  0  0  0  0  0  0  0
    1.1663   -7.0564    0.0000 O   0  0  0  0  0  0  0  0  0  0  0  0
    9.4163   -5.6275    0.0000 O   0  0  0  0  0  0  0  0  0  0  0  0
   11.0663   -5.6275    0.0000 O   0  0  0  0  0  0  0  0  0  0  0  0
    6.1163  -12.1682    0.0000 O   0  0  0  0  0  0  0  0  0  0  0  0
    5.3194  -11.5567    0.0000 C   0  0  0  0  0  0  0  0  0  0  0  0
    4.7360  -10.9734    0.0000 O   0  0  0  0  0  0  0  0  0  0  0  0
    5.1059  -12.3536    0.0000 O   0  0  0  0  0  0  0  0  0  0  0  0
    4.3090  -12.5672    0.0000 C   0  0  0  0  0  0  0  0  0  0  0  0
    4.0954  -13.3640    0.0000 C   0  0  0  0  0  0  0  0  0  0  0  0
    8.1788  -10.6287    0.0000 O   0  0  0  0  0  0  0  0  0  0  0  0
  1  2  1  0  0  0  0
  2  3  1  0  0  0  0
  3  4  1  0  0  0  0
  4  5  1  0  0  0  0
  5  6  1  0  0  0  0
  6  1  1  0  0  0  0
  1  7  1  1  0  0  0
  7  8  1  0  0  0  0
  8  9  2  0  0  0  0
  8 10  1  0  0  0  0
 10 11  2  0  0  0  0
 12 13  2  0  0  0  0
 13 11  1  0  0  0  0
 12 14  1  0  0  0  0
 14 15  2  0  0  0  0
 15 16  1  0  0  0  0
 16 17  2  0  0  0  0
 17 13  1  0  0  0  0
 18 19  2  0  0  0  0
 19 20  1  0  0  0  0
  6 20  1  6  0  0  0
 21 22  2  0  0  0  0
 22 19  1  0  0  0  0
 21 23  1  0  0  0  0
 23 24  1  0  0  0  0
 23 25  2  0  0  0  0
 25 26  1  0  0  0  0
 26 27  2  0  0  0  0
 27 28  1  0  0  0  0
 28 24  2  0  0  0  0
 15 29  1  0  0  0  0
 16 30  1  0  0  0  0
 28 31  1  0  0  0  0
 27 32  1  0  0  0  0
  3 33  1  0  0  0  0
  3 34  1  1  0  0  0
 34 35  2  0  0  0  0
 34 36  1  0  0  0  0
 36 37  1  0  0  0  0
 37 38  1  0  0  0  0
  5 39  1  6  0  0  0
M  END
>  <cdx:fragmentId>
5

$$$$
