92599.cdx
  Mrv1902 05222410272D          

 22 21  0  0  0  0            999 V2000
    3.4334   -8.5800    0.0000 O   0  0  0  0  0  0  0  0  0  0  0  0
    4.1478   -8.9925    0.0000 C   0  0  0  0  0  0  0  0  0  0  0  0
    4.8623   -8.5800    0.0000 C   0  0  0  0  0  0  0  0  0  0  0  0
    5.5768   -8.9925    0.0000 C   0  0  0  0  0  0  0  0  0  0  0  0
    6.2913   -8.5800    0.0000 C   0  0  0  0  0  0  0  0  0  0  0  0
    7.0057   -8.9925    0.0000 C   0  0  0  0  0  0  0  0  0  0  0  0
    7.7202   -8.5800    0.0000 C   0  0  0  0  0  0  0  0  0  0  0  0
    8.4347   -8.9925    0.0000 C   0  0  0  0  0  0  0  0  0  0  0  0
    9.1491   -8.5800    0.0000 C   0  0  0  0  0  0  0  0  0  0  0  0
    9.8636   -8.9925    0.0000 C   0  0  0  0  0  0  0  0  0  0  0  0
   10.5781   -8.5800    0.0000 C   0  0  0  0  0  0  0  0  0  0  0  0
   10.5781   -7.7550    0.0000 C   0  0  0  0  0  0  0  0  0  0  0  0
   11.2926   -7.3425    0.0000 C   0  0  0  0  0  0  0  0  0  0  0  0
   11.2926   -6.5175    0.0000 C   0  0  0  0  0  0  0  0  0  0  0  0
   12.0070   -6.1050    0.0000 C   0  0  0  0  0  0  0  0  0  0  0  0
   12.0070   -5.2800    0.0000 C   0  0  0  0  0  0  0  0  0  0  0  0
   12.7215   -4.8675    0.0000 C   0  0  0  0  0  0  0  0  0  0  0  0
   12.7215   -4.0425    0.0000 C   0  0  0  0  0  0  0  0  0  0  0  0
   13.4360   -3.6300    0.0000 C   0  0  0  0  0  0  0  0  0  0  0  0
    4.1478   -9.8175    0.0000 O   0  0  0  0  0  0  0  0  0  0  0  0
    2.7189   -8.9925    0.0000 C   0  0  0  0  0  0  0  0  0  0  0  0
    2.0044   -8.5800    0.0000 C   0  0  0  0  0  0  0  0  0  0  0  0
  1  2  1  0  0  0  0
  2  3  1  0  0  0  0
  3  4  1  0  0  0  0
  4  5  1  0  0  0  0
  5  6  1  0  0  0  0
  6  7  1  0  0  0  0
  7  8  1  0  0  0  0
  8  9  1  0  0  0  0
  9 10  1  0  0  0  0
 10 11  2  0  0  0  0
 11 12  1  0  0  0  0
 12 13  1  0  0  0  0
 13 14  1  0  0  0  0
 14 15  1  0  0  0  0
 15 16  1  0  0  0  0
 16 17  1  0  0  0  0
 17 18  1  0  0  0  0
 18 19  1  0  0  0  0
  2 20  2  0  0  0  0
  1 21  1  0  0  0  0
 21 22  1  0  0  0  0
M  END
>  <cdx:fragmentId>
113

$$$$
