92598.cdx
  Mrv1902 05222410272D          

 39 41  0  0  0  0            999 V2000
    6.1163   -9.9143    0.0000 C   0  0  2  0  0  0  0  0  0  0  0  0
    5.7038  -10.6288    0.0000 C   0  0  0  0  0  0  0  0  0  0  0  0
    6.1163  -11.3432    0.0000 C   0  0  2  0  0  0  0  0  0  0  0  0
    6.9413  -11.3432    0.0000 C   0  0  0  0  0  0  0  0  0  0  0  0
    7.3538  -10.6287    0.0000 C   0  0  2  0  0  0  0  0  0  0  0  0
    6.9413   -9.9143    0.0000 C   0  0  1  0  0  0  0  0  0  0  0  0
    5.7038   -9.1998    0.0000 O   0  0  0  0  0  0  0  0  0  0  0  0
    7.3538   -9.1998    0.0000 O   0  0  0  0  0  0  0  0  0  0  0  0
    6.1163  -12.1682    0.0000 O   0  0  0  0  0  0  0  0  0  0  0  0
    5.3194  -11.5567    0.0000 C   0  0  0  0  0  0  0  0  0  0  0  0
    4.7360  -10.9734    0.0000 O   0  0  0  0  0  0  0  0  0  0  0  0
    5.1059  -12.3536    0.0000 O   0  0  0  0  0  0  0  0  0  0  0  0
    4.3090  -12.5672    0.0000 C   0  0  0  0  0  0  0  0  0  0  0  0
    4.0954  -13.3640    0.0000 C   0  0  0  0  0  0  0  0  0  0  0  0
    8.1788  -10.6287    0.0000 O   0  0  0  0  0  0  0  0  0  0  0  0
    8.1833  -12.0435    0.0000 O   0  0  0  0  0  0  0  0  0  0  0  0
    8.5964  -11.3294    0.0000 C   0  0  0  0  0  0  0  0  0  0  0  0
    9.8333  -12.0449    0.0000 C   0  0  0  0  0  0  0  0  0  0  0  0
    9.4214  -11.3301    0.0000 C   0  0  0  0  0  0  0  0  0  0  0  0
   10.6583  -12.0456    0.0000 C   0  0  0  0  0  0  0  0  0  0  0  0
   11.0714  -11.3314    0.0000 C   0  0  0  0  0  0  0  0  0  0  0  0
   11.0702  -12.7604    0.0000 C   0  0  0  0  0  0  0  0  0  0  0  0
   11.8952  -12.7610    0.0000 C   0  0  0  0  0  0  0  0  0  0  0  0
   12.3083  -12.0469    0.0000 C   0  0  0  0  0  0  0  0  0  0  0  0
   11.8964  -11.3321    0.0000 C   0  0  0  0  0  0  0  0  0  0  0  0
   12.3095  -10.6180    0.0000 O   0  0  0  0  0  0  0  0  0  0  0  0
   13.1333  -12.0476    0.0000 O   0  0  0  0  0  0  0  0  0  0  0  0
    7.0154   -8.4534    0.0000 C   0  0  0  0  0  0  0  0  0  0  0  0
    6.1937   -8.3799    0.0000 O   0  0  0  0  0  0  0  0  0  0  0  0
    7.4900   -7.7786    0.0000 C   0  0  0  0  0  0  0  0  0  0  0  0
    7.1428   -7.0302    0.0000 C   0  0  0  0  0  0  0  0  0  0  0  0
    8.4390   -6.4288    0.0000 C   0  0  0  0  0  0  0  0  0  0  0  0
    7.6173   -6.3553    0.0000 C   0  0  0  0  0  0  0  0  0  0  0  0
    8.9136   -5.7540    0.0000 C   0  0  0  0  0  0  0  0  0  0  0  0
    8.5664   -5.0056    0.0000 C   0  0  0  0  0  0  0  0  0  0  0  0
    7.7447   -4.9320    0.0000 C   0  0  0  0  0  0  0  0  0  0  0  0
    7.2701   -5.6069    0.0000 C   0  0  0  0  0  0  0  0  0  0  0  0
    9.0409   -4.3307    0.0000 O   0  0  0  0  0  0  0  0  0  0  0  0
    7.3975   -4.1836    0.0000 O   0  0  0  0  0  0  0  0  0  0  0  0
  1  2  1  0  0  0  0
  2  3  1  0  0  0  0
  3  4  1  0  0  0  0
  4  5  1  0  0  0  0
  5  6  1  0  0  0  0
  6  1  1  0  0  0  0
  1  7  1  1  0  0  0
  6  8  1  6  0  0  0
  3  9  1  0  0  0  0
  3 10  1  1  0  0  0
 10 11  2  0  0  0  0
 10 12  1  0  0  0  0
 12 13  1  0  0  0  0
 13 14  1  0  0  0  0
  5 15  1  6  0  0  0
 16 17  2  0  0  0  0
 18 19  2  0  0  0  0
 19 17  1  0  0  0  0
 18 20  1  0  0  0  0
 20 21  1  0  0  0  0
 20 22  2  0  0  0  0
 22 23  1  0  0  0  0
 23 24  2  0  0  0  0
 24 25  1  0  0  0  0
 25 21  2  0  0  0  0
 25 26  1  0  0  0  0
 24 27  1  0  0  0  0
 17 15  1  0  0  0  0
 28 29  2  0  0  0  0
 28 30  1  0  0  0  0
 30 31  2  0  0  0  0
 32 33  2  0  0  0  0
 33 31  1  0  0  0  0
 32 34  1  0  0  0  0
 34 35  2  0  0  0  0
 35 36  1  0  0  0  0
 36 37  2  0  0  0  0
 37 33  1  0  0  0  0
 35 38  1  0  0  0  0
 36 39  1  0  0  0  0
 28  8  1  0  0  0  0
M  END
>  <cdx:fragmentId>
5

$$$$
