92590.cdx
  Mrv1902 05222410192D          

 31 33  0  0  0  0            999 V2000
    4.6318   -5.1700    0.0000 C   0  0  0  0  0  0  0  0  0  0  0  0
    4.6318   -5.9950    0.0000 C   0  0  0  0  0  0  0  0  0  0  0  0
    5.3463   -6.4075    0.0000 C   0  0  0  0  0  0  0  0  0  0  0  0
    6.0607   -5.9950    0.0000 C   0  0  0  0  0  0  0  0  0  0  0  0
    6.0607   -5.1700    0.0000 C   0  0  0  0  0  0  0  0  0  0  0  0
    5.3463   -4.7575    0.0000 C   0  0  0  0  0  0  0  0  0  0  0  0
    6.7752   -6.4075    0.0000 C   0  0  0  0  0  0  0  0  0  0  0  0
    7.4897   -5.9950    0.0000 C   0  0  0  0  0  0  0  0  0  0  0  0
    7.4897   -5.1700    0.0000 C   0  0  0  0  0  0  0  0  0  0  0  0
    6.7752   -4.7575    0.0000 O   0  0  0  0  0  0  0  0  0  0  0  0
    8.2042   -6.4075    0.0000 C   0  0  0  0  0  0  0  0  0  0  0  0
    8.9186   -5.9950    0.0000 C   0  0  0  0  0  0  0  0  0  0  0  0
    8.9186   -5.1700    0.0000 C   0  0  0  0  0  0  0  0  0  0  0  0
    8.2042   -4.7575    0.0000 C   0  0  0  0  0  0  0  0  0  0  0  0
    6.1078   -6.8924    0.0000 O   0  0  0  0  0  0  0  0  0  0  0  0
    6.3627   -7.6770    0.0000 C   0  0  0  0  0  0  0  0  0  0  0  0
    7.1877   -7.6770    0.0000 C   0  0  0  0  0  0  0  0  0  0  0  0
    7.4427   -6.8924    0.0000 C   0  0  0  0  0  0  0  0  0  0  0  0
    7.7397   -8.2901    0.0000 C   0  0  0  0  0  0  0  0  0  0  0  0
    8.5467   -8.1186    0.0000 C   0  0  0  0  0  0  0  0  0  0  0  0
    8.8017   -7.3340    0.0000 C   0  0  0  0  0  0  0  0  0  0  0  0
    8.2496   -6.7209    0.0000 C   0  0  0  0  0  0  0  0  0  0  0  0
    5.3463   -3.9325    0.0000 I   0  0  0  0  0  0  0  0  0  0  0  0
    3.9173   -4.7575    0.0000 O   0  5  0  0  0  0  0  0  0  0  0  0
    3.9173   -6.4075    0.0000 I   0  0  0  0  0  0  0  0  0  0  0  0
    8.2042   -3.9325    0.0000 I   0  0  0  0  0  0  0  0  0  0  0  0
    9.6331   -4.7575    0.0000 O   0  5  0  0  0  0  0  0  0  0  0  0
    9.6331   -6.4075    0.0000 I   0  0  0  0  0  0  0  0  0  0  0  0
    5.8778   -8.3445    0.0000 O   0  0  0  0  0  0  0  0  0  0  0  0
    3.5815   -5.2896    0.0000 Na  0  3  0  0  0  0  0  0  0  0  0  0
    9.0952   -3.9971    0.0000 Na  0  3  0  0  0  0  0  0  0  0  0  0
  1  2  2  0  0  0  0
  2  3  1  0  0  0  0
  3  4  2  0  0  0  0
  4  5  1  0  0  0  0
  5  6  2  0  0  0  0
  6  1  1  0  0  0  0
  4  7  1  0  0  0  0
  7  8  1  0  0  0  0
  8  9  1  0  0  0  0
  9 10  1  0  0  0  0
 10  5  1  0  0  0  0
  8 11  2  0  0  0  0
 11 12  1  0  0  0  0
 12 13  2  0  0  0  0
 13 14  1  0  0  0  0
 14  9  2  0  0  0  0
  7 15  1  0  0  0  0
 15 16  1  0  0  0  0
 16 17  1  0  0  0  0
 17 18  2  0  0  0  0
 18  7  1  0  0  0  0
 17 19  1  0  0  0  0
 19 20  2  0  0  0  0
 20 21  1  0  0  0  0
 21 22  2  0  0  0  0
 22 18  1  0  0  0  0
  6 23  1  0  0  0  0
  1 24  1  0  0  0  0
  2 25  1  0  0  0  0
 14 26  1  0  0  0  0
 13 27  1  0  0  0  0
 12 28  1  0  0  0  0
 16 29  2  0  0  0  0
M  CHG  4  24  -1  27  -1  30   1  31   1
M  END
>  <cdx:fragmentId>
92

$$$$
