92591.cdx
  Mrv1902 05222410192D          

 64 70  0  0  0  0            999 V2000
    7.1745   -6.9237    0.0000 C   0  0  0  0  0  0  0  0  0  0  0  0
    7.1798   -7.5012    0.0000 C   0  0  0  0  0  0  0  0  0  0  0  0
    7.6826   -7.7853    0.0000 C   0  0  0  0  0  0  0  0  0  0  0  0
    8.1800   -7.4920    0.0000 C   0  0  0  0  0  0  0  0  0  0  0  0
    8.1747   -6.9145    0.0000 C   0  0  0  0  0  0  0  0  0  0  0  0
    7.6720   -6.6304    0.0000 C   0  0  0  0  0  0  0  0  0  0  0  0
    8.6828   -7.7761    0.0000 C   0  0  0  0  0  0  0  0  0  0  0  0
    9.1803   -7.4828    0.0000 C   0  0  0  0  0  0  0  0  0  0  0  0
    9.1749   -6.9053    0.0000 C   0  0  0  0  0  0  0  0  0  0  0  0
    8.6722   -6.6212    0.0000 O   0  0  0  0  0  0  0  0  0  0  0  0
    7.6879   -8.3628    0.0000 O   0  0  0  0  0  0  0  0  0  0  0  0
    8.6881   -8.3536    0.0000 O   0  0  0  0  0  0  0  0  0  0  0  0
   10.1752   -6.8962    0.0000 C   0  0  0  0  0  0  0  0  0  0  0  0
    9.6724   -6.6120    0.0000 C   0  0  0  0  0  0  0  0  0  0  0  0
   10.6726   -6.6028    0.0000 C   0  0  0  0  0  0  0  0  0  0  0  0
   10.6673   -6.0253    0.0000 C   0  0  0  0  0  0  0  0  0  0  0  0
   10.1646   -5.7412    0.0000 C   0  0  0  0  0  0  0  0  0  0  0  0
    9.6671   -6.0345    0.0000 C   0  0  0  0  0  0  0  0  0  0  0  0
   11.6728   -6.5936    0.0000 O   0  0  0  0  0  0  0  0  0  0  0  0
   11.6675   -6.0162    0.0000 C   0  0  1  0  0  0  0  0  0  0  0  0
   11.1648   -5.7320    0.0000 O   0  0  0  0  0  0  0  0  0  0  0  0
   12.1756   -6.8778    0.0000 C   0  0  1  0  0  0  0  0  0  0  0  0
   12.6731   -6.5845    0.0000 C   0  0  2  0  0  0  0  0  0  0  0  0
   12.6678   -6.0070    0.0000 C   0  0  1  0  0  0  0  0  0  0  0  0
   12.1650   -5.7228    0.0000 C   0  0  1  0  0  0  0  0  0  0  0  0
    6.6824   -7.7945    0.0000 C   0  0  0  0  0  0  0  0  0  0  0  0
    6.6877   -8.3720    0.0000 C   0  0  1  0  0  0  0  0  0  0  0  0
    6.1796   -7.5104    0.0000 O   0  0  0  0  0  0  0  0  0  0  0  0
    5.6821   -7.8037    0.0000 C   0  0  1  0  0  0  0  0  0  0  0  0
    5.6874   -8.3812    0.0000 C   0  0  2  0  0  0  0  0  0  0  0  0
    6.1902   -8.6653    0.0000 C   0  0  2  0  0  0  0  0  0  0  0  0
    5.1794   -7.5196    0.0000 C   0  0  0  0  0  0  0  0  0  0  0  0
    4.6819   -7.8129    0.0000 O   0  0  0  0  0  0  0  0  0  0  0  0
    4.1845   -8.1062    0.0000 C   0  0  0  0  0  0  0  0  0  0  0  0
    3.6817   -7.8221    0.0000 C   0  0  0  0  0  0  0  0  0  0  0  0
    4.1898   -8.6837    0.0000 O   0  0  0  0  0  0  0  0  0  0  0  0
    3.1631   -8.0762    0.0000 C   0  0  0  0  0  0  0  0  0  0  0  0
    2.6838   -7.7541    0.0000 C   0  0  0  0  0  0  0  0  0  0  0  0
    2.7230   -7.1780    0.0000 C   0  0  0  0  0  0  0  0  0  0  0  0
    2.2436   -6.8559    0.0000 C   0  0  0  0  0  0  0  0  0  0  0  0
    1.7250   -7.1100    0.0000 C   0  0  0  0  0  0  0  0  0  0  0  0
    1.6858   -7.6862    0.0000 C   0  0  0  0  0  0  0  0  0  0  0  0
    2.1652   -8.0082    0.0000 C   0  0  0  0  0  0  0  0  0  0  0  0
    1.2457   -6.7879    0.0000 O   0  0  0  0  0  0  0  0  0  0  0  0
    2.2829   -6.2797    0.0000 O   0  0  0  0  0  0  0  0  0  0  0  0
    1.8035   -5.9577    0.0000 C   0  0  0  0  0  0  0  0  0  0  0  0
    7.1904   -8.6561    0.0000 O   0  0  0  0  0  0  0  0  0  0  0  0
    7.1512   -9.2323    0.0000 C   0  0  2  0  0  0  0  0  0  0  0  0
    6.6326   -9.4864    0.0000 O   0  0  0  0  0  0  0  0  0  0  0  0
    6.5934  -10.0626    0.0000 C   0  0  0  0  0  0  0  0  0  0  0  0
    7.0727  -10.3846    0.0000 C   0  0  1  0  0  0  0  0  0  0  0  0
    7.5913  -10.1305    0.0000 C   0  0  1  0  0  0  0  0  0  0  0  0
    7.6306   -9.5544    0.0000 C   0  0  1  0  0  0  0  0  0  0  0  0
    6.1955   -9.2428    0.0000 O   0  0  0  0  0  0  0  0  0  0  0  0
    8.0707  -10.4526    0.0000 O   0  0  0  0  0  0  0  0  0  0  0  0
    7.0335  -10.9608    0.0000 O   0  0  0  0  0  0  0  0  0  0  0  0
   12.1809   -7.4553    0.0000 C   0  0  0  0  0  0  0  0  0  0  0  0
   13.1652   -5.7136    0.0000 O   0  0  0  0  0  0  0  0  0  0  0  0
    5.1900   -8.6745    0.0000 O   0  0  0  0  0  0  0  0  0  0  0  0
    8.1491   -9.3003    0.0000 O   0  0  0  0  0  0  0  0  0  0  0  0
   13.1758   -6.8686    0.0000 O   0  0  0  0  0  0  0  0  0  0  0  0
   12.1597   -5.1454    0.0000 O   0  0  0  0  0  0  0  0  0  0  0  0
   12.6603   -7.7773    0.0000 O   0  0  0  0  0  0  0  0  0  0  0  0
    6.7038   -6.6690    0.0000 O   0  0  0  0  0  0  0  0  0  0  0  0
  1  2  1  0  0  0  0
  2  3  2  0  0  0  0
  3  4  1  0  0  0  0
  4  5  2  0  0  0  0
  5  6  1  0  0  0  0
  6  1  2  0  0  0  0
  4  7  1  0  0  0  0
  7  8  1  0  0  0  0
  8  9  2  0  0  0  0
  9 10  1  0  0  0  0
 10  5  1  0  0  0  0
  3 11  1  0  0  0  0
 12  7  2  0  0  0  0
 13 14  2  0  0  0  0
 14  9  1  0  0  0  0
 13 15  1  0  0  0  0
 15 16  2  0  0  0  0
 16 17  1  0  0  0  0
 17 18  2  0  0  0  0
 18 14  1  0  0  0  0
 19 20  1  0  0  0  0
 20 21  1  1  0  0  0
 21 16  1  0  0  0  0
 19 22  1  0  0  0  0
 22 23  1  0  0  0  0
 23 24  1  0  0  0  0
 24 25  1  0  0  0  0
 25 20  1  0  0  0  0
  2 26  1  0  0  0  0
 26 27  1  0  0  0  0
 26 28  1  0  0  0  0
 28 29  1  0  0  0  0
 29 30  1  0  0  0  0
 30 31  1  0  0  0  0
 31 27  1  0  0  0  0
 29 32  1  1  0  0  0
 32 33  1  0  0  0  0
 33 34  1  0  0  0  0
 34 35  1  0  0  0  0
 34 36  2  0  0  0  0
 35 37  1  0  0  0  0
 37 38  1  0  0  0  0
 38 39  2  0  0  0  0
 39 40  1  0  0  0  0
 40 41  2  0  0  0  0
 41 42  1  0  0  0  0
 42 43  2  0  0  0  0
 43 38  1  0  0  0  0
 41 44  1  0  0  0  0
 40 45  1  0  0  0  0
 45 46  1  0  0  0  0
 27 47  1  6  0  0  0
 48 47  1  1  0  0  0
 48 49  1  0  0  0  0
 49 50  1  0  0  0  0
 50 51  1  0  0  0  0
 51 52  1  0  0  0  0
 52 53  1  0  0  0  0
 53 48  1  0  0  0  0
 31 54  1  1  0  0  0
 52 55  1  1  0  0  0
 51 56  1  1  0  0  0
 22 57  1  1  0  0  0
 24 58  1  1  0  0  0
 30 59  1  6  0  0  0
 53 60  1  6  0  0  0
 23 61  1  6  0  0  0
 25 62  1  6  0  0  0
 57 63  1  0  0  0  0
  1 64  1  0  0  0  0
M  END
>  <cdx:fragmentId>
5

$$$$
