crykonisine.cdx
  Mrv1902 05222410242D          

 22 24  0  0  0  0            999 V2000
    3.9839   -7.8169    0.0000 C   0  0  0  0  0  0  0  0  0  0  0  0
    3.9839   -8.6419    0.0000 C   0  0  0  0  0  0  0  0  0  0  0  0
    4.6984   -9.0544    0.0000 C   0  0  0  0  0  0  0  0  0  0  0  0
    5.4128   -8.6419    0.0000 C   0  0  0  0  0  0  0  0  0  0  0  0
    5.4128   -7.8169    0.0000 C   0  0  0  0  0  0  0  0  0  0  0  0
    4.6984   -7.4044    0.0000 C   0  0  0  0  0  0  0  0  0  0  0  0
    6.1273   -9.0544    0.0000 C   0  0  0  0  0  0  0  0  0  0  0  0
    6.8418   -8.6419    0.0000 C   0  0  0  0  0  0  0  0  0  0  0  0
    6.8418   -7.8169    0.0000 N   0  0  0  0  0  0  0  0  0  0  0  0
    6.1273   -7.4044    0.0000 C   0  0  0  0  0  0  0  0  0  0  0  0
    6.1273   -6.5794    0.0000 C   0  0  0  0  0  0  0  0  0  0  0  0
    6.8418   -6.1669    0.0000 C   0  0  0  0  0  0  0  0  0  0  0  0
    7.5563   -6.5794    0.0000 C   0  0  0  0  0  0  0  0  0  0  0  0
    8.2707   -6.1669    0.0000 C   0  0  0  0  0  0  0  0  0  0  0  0
    8.2707   -5.3419    0.0000 C   0  0  0  0  0  0  0  0  0  0  0  0
    7.5563   -4.9294    0.0000 C   0  0  0  0  0  0  0  0  0  0  0  0
    6.8418   -5.3419    0.0000 C   0  0  0  0  0  0  0  0  0  0  0  0
    8.9852   -4.9294    0.0000 O   0  0  0  0  0  0  0  0  0  0  0  0
    3.2694   -7.4044    0.0000 O   0  0  0  0  0  0  0  0  0  0  0  0
    2.5550   -7.8169    0.0000 C   0  0  0  0  0  0  0  0  0  0  0  0
    3.2694   -9.0544    0.0000 O   0  0  0  0  0  0  0  0  0  0  0  0
    2.5550   -8.6419    0.0000 C   0  0  0  0  0  0  0  0  0  0  0  0
  1  2  2  0  0  0  0
  2  3  1  0  0  0  0
  3  4  2  0  0  0  0
  4  5  1  0  0  0  0
  5  6  2  0  0  0  0
  6  1  1  0  0  0  0
  4  7  1  0  0  0  0
  7  8  2  0  0  0  0
  8  9  1  0  0  0  0
  9 10  2  0  0  0  0
 10  5  1  0  0  0  0
 10 11  1  0  0  0  0
 11 12  1  0  0  0  0
 12 13  2  0  0  0  0
 13 14  1  0  0  0  0
 14 15  2  0  0  0  0
 15 16  1  0  0  0  0
 16 17  2  0  0  0  0
 17 12  1  0  0  0  0
 15 18  1  0  0  0  0
  1 19  1  0  0  0  0
 19 20  1  0  0  0  0
  2 21  1  0  0  0  0
 21 22  1  0  0  0  0
M  END
>  <cdx:fragmentId>
5

$$$$
