92600.cdx
  Mrv1902 05222410272D          

 23 25  0  0  0  0            999 V2000
   10.6187   -8.7505    0.0000 O   0  0  0  0  0  0  0  0  0  0  0  0
   10.6187   -7.1005    0.0000 O   0  0  0  0  0  0  0  0  0  0  0  0
    8.4753   -7.5130    0.0000 C   0  0  0  0  0  0  0  0  0  0  0  0
    9.1897   -7.1005    0.0000 C   0  0  0  0  0  0  0  0  0  0  0  0
    9.9042   -7.5130    0.0000 C   0  0  0  0  0  0  0  0  0  0  0  0
    9.9042   -8.3380    0.0000 C   0  0  0  0  0  0  0  0  0  0  0  0
    9.1897   -8.7505    0.0000 C   0  0  0  0  0  0  0  0  0  0  0  0
    8.4753   -8.3380    0.0000 C   0  0  0  0  0  0  0  0  0  0  0  0
    5.6174  -10.8130    0.0000 O   0  0  0  0  0  0  0  0  0  0  0  0
    4.1884   -8.3380    0.0000 O   0  0  0  0  0  0  0  0  0  0  0  0
    3.4740   -9.5755    0.0000 C   0  0  0  0  0  0  0  0  0  0  0  0
    4.1884   -9.9880    0.0000 O   0  0  0  0  0  0  0  0  0  0  0  0
    7.0463  -10.8130    0.0000 O   0  0  0  0  0  0  0  0  0  0  0  0
    7.0463   -8.3380    0.0000 O   0  0  0  0  0  0  0  0  0  0  0  0
    6.3318   -8.7505    0.0000 C   0  0  0  0  0  0  0  0  0  0  0  0
    5.6174   -8.3380    0.0000 C   0  0  0  0  0  0  0  0  0  0  0  0
    4.9029   -8.7505    0.0000 C   0  0  0  0  0  0  0  0  0  0  0  0
    4.9029   -9.5755    0.0000 C   0  0  0  0  0  0  0  0  0  0  0  0
    5.6174   -9.9880    0.0000 C   0  0  0  0  0  0  0  0  0  0  0  0
    6.3318   -9.5755    0.0000 C   0  0  0  0  0  0  0  0  0  0  0  0
    7.0463   -9.9880    0.0000 C   0  0  0  0  0  0  0  0  0  0  0  0
    7.7608   -9.5755    0.0000 C   0  0  0  0  0  0  0  0  0  0  0  0
    7.7608   -8.7505    0.0000 C   0  0  0  0  0  0  0  0  0  0  0  0
 23  8  1  0  0  0  0
  6  1  1  0  0  0  0
  5  2  1  0  0  0  0
  8  3  2  0  0  0  0
  4  3  1  0  0  0  0
  5  4  2  0  0  0  0
  6  5  1  0  0  0  0
  7  6  2  0  0  0  0
  8  7  1  0  0  0  0
 19  9  1  0  0  0  0
 17 10  1  0  0  0  0
 18 12  1  0  0  0  0
 12 11  1  0  0  0  0
 21 13  2  0  0  0  0
 23 14  1  0  0  0  0
 15 14  1  0  0  0  0
 20 15  2  0  0  0  0
 16 15  1  0  0  0  0
 17 16  2  0  0  0  0
 18 17  1  0  0  0  0
 19 18  2  0  0  0  0
 20 19  1  0  0  0  0
 21 20  1  0  0  0  0
 22 21  1  0  0  0  0
 23 22  2  0  0  0  0
M  END
>  <cdx:fragmentId>
5

$$$$
