92609.cdx
  Mrv1902 05222410192D          

 29 34  0  0  0  0            999 V2000
    9.2807   -4.7117    0.0000 C   0  0  0  0  0  0  0  0  0  0  0  0
    9.9066   -5.2492    0.0000 C   0  0  0  0  0  0  0  0  0  0  0  0
   10.6850   -4.9759    0.0000 C   0  0  0  0  0  0  0  0  0  0  0  0
   10.8375   -4.1651    0.0000 C   0  0  0  0  0  0  0  0  0  0  0  0
   10.2116   -3.6276    0.0000 C   0  0  0  0  0  0  0  0  0  0  0  0
    9.4332   -3.9010    0.0000 C   0  0  0  0  0  0  0  0  0  0  0  0
    4.1650   -7.8345    0.0000 O   0  0  0  0  0  0  0  0  0  0  0  0
    4.3554   -8.6372    0.0000 C   0  0  0  0  0  0  0  0  0  0  0  0
    5.1777   -8.7041    0.0000 O   0  0  0  0  0  0  0  0  0  0  0  0
   11.5421   -3.7359    0.0000 O   0  0  0  0  0  0  0  0  0  0  0  0
   11.3516   -2.9332    0.0000 C   0  0  0  0  0  0  0  0  0  0  0  0
   10.5293   -2.8663    0.0000 O   0  0  0  0  0  0  0  0  0  0  0  0
    5.8004   -6.3212    0.0000 C   0  0  0  0  0  0  0  0  0  0  0  0
    5.0220   -6.5945    0.0000 C   0  0  0  0  0  0  0  0  0  0  0  0
    4.8695   -7.4053    0.0000 C   0  0  0  0  0  0  0  0  0  0  0  0
    5.4954   -7.9428    0.0000 C   0  0  0  0  0  0  0  0  0  0  0  0
    6.2738   -7.6694    0.0000 C   0  0  0  0  0  0  0  0  0  0  0  0
    6.3774   -4.7801    0.0000 O   0  0  0  0  0  0  0  0  0  0  0  0
    6.4263   -6.8586    0.0000 C   0  0  0  0  0  0  0  0  0  0  0  0
    8.5023   -4.9851    0.0000 C   0  0  2  0  0  0  0  0  0  0  0  0
    7.8236   -4.5160    0.0000 O   0  0  0  0  0  0  0  0  0  0  0  0
    7.1678   -5.0165    0.0000 C   0  0  0  0  0  0  0  0  0  0  0  0
    7.8834   -7.0544    0.0000 O   0  0  0  0  0  0  0  0  0  0  0  0
    8.5392   -6.5539    0.0000 C   0  0  0  0  0  0  0  0  0  0  0  0
    8.2659   -5.7755    0.0000 C   0  0  2  0  0  0  0  0  0  0  0  0
    7.4411   -5.7949    0.0000 C   0  0  2  0  0  0  0  0  0  0  0  0
    7.2047   -6.5853    0.0000 C   0  0  2  0  0  0  0  0  0  0  0  0
    9.0907   -5.7561    0.0000 H   0  0  0  0  0  0  0  0  0  0  0  0
    6.6164   -5.8143    0.0000 H   0  0  0  0  0  0  0  0  0  0  0  0
  1  2  2  0  0  0  0
  7 15  1  0  0  0  0
  8  7  1  0  0  0  0
  9  8  1  0  0  0  0
 16  9  1  0  0  0  0
  2  3  1  0  0  0  0
  3  4  2  0  0  0  0
  4  5  1  0  0  0  0
  5  6  2  0  0  0  0
  6  1  1  0  0  0  0
  4 10  1  0  0  0  0
 10 11  1  0  0  0  0
 11 12  1  0  0  0  0
 13 19  1  0  0  0  0
 14 13  2  0  0  0  0
 15 14  1  0  0  0  0
 16 15  2  0  0  0  0
 17 16  1  0  0  0  0
 19 17  2  0  0  0  0
 22 18  2  0  0  0  0
 20  1  1  1  0  0  0
 12  5  1  0  0  0  0
 27 19  1  1  0  0  0
 20 25  1  0  0  0  0
 21 20  1  0  0  0  0
 22 21  1  0  0  0  0
 26 22  1  0  0  0  0
 23 27  1  0  0  0  0
 24 23  1  0  0  0  0
 25 24  1  0  0  0  0
 26 25  1  0  0  0  0
 27 26  1  0  0  0  0
 25 28  1  1  0  0  0
 26 29  1  1  0  0  0
M  END
>  <cdx:fragmentId>
5

$$$$
