92601.cdx
  Mrv1902 05222410262D          

 26 28  0  0  0  0            999 V2000
    8.6013   -5.5413    0.0000 O   0  0  0  0  0  0  0  0  0  0  0  0
    3.6000   -6.7787    0.0000 C   0  0  0  0  0  0  0  0  0  0  0  0
   10.7447   -6.7787    0.0000 C   0  0  0  0  0  0  0  0  0  0  0  0
   10.0303   -6.3662    0.0000 O   0  0  0  0  0  0  0  0  0  0  0  0
    9.3158   -7.6037    0.0000 C   0  0  0  0  0  0  0  0  0  0  0  0
    9.3158   -6.7787    0.0000 C   0  0  0  0  0  0  0  0  0  0  0  0
    8.6013   -6.3662    0.0000 C   0  0  0  0  0  0  0  0  0  0  0  0
    7.8869   -6.7787    0.0000 C   0  0  0  0  0  0  0  0  0  0  0  0
    7.8869   -9.2537    0.0000 O   0  0  0  0  0  0  0  0  0  0  0  0
    8.6013   -8.0162    0.0000 C   0  0  0  0  0  0  0  0  0  0  0  0
    7.8869   -7.6037    0.0000 C   0  0  0  0  0  0  0  0  0  0  0  0
    5.0290  -10.0787    0.0000 O   0  0  0  0  0  0  0  0  0  0  0  0
    6.4579  -10.0787    0.0000 O   0  0  0  0  0  0  0  0  0  0  0  0
    6.4579   -9.2537    0.0000 C   0  0  0  0  0  0  0  0  0  0  0  0
    7.1724   -8.8412    0.0000 C   0  0  0  0  0  0  0  0  0  0  0  0
    7.1724   -8.0162    0.0000 C   0  0  0  0  0  0  0  0  0  0  0  0
    6.4579   -7.6037    0.0000 O   0  0  0  0  0  0  0  0  0  0  0  0
    5.0290   -9.2537    0.0000 C   0  0  0  0  0  0  0  0  0  0  0  0
    5.7434   -8.8412    0.0000 C   0  0  0  0  0  0  0  0  0  0  0  0
    5.7434   -8.0162    0.0000 C   0  0  0  0  0  0  0  0  0  0  0  0
    5.0290   -7.6037    0.0000 C   0  0  0  0  0  0  0  0  0  0  0  0
    3.6000   -9.2537    0.0000 O   0  0  0  0  0  0  0  0  0  0  0  0
    4.3145   -8.8412    0.0000 C   0  0  0  0  0  0  0  0  0  0  0  0
    4.3145   -8.0162    0.0000 C   0  0  0  0  0  0  0  0  0  0  0  0
    3.6000   -7.6037    0.0000 O   0  0  0  0  0  0  0  0  0  0  0  0
    2.8856   -8.8412    0.0000 C   0  0  0  0  0  0  0  0  0  0  0  0
  7  1  1  0  0  0  0
 25  2  1  0  0  0  0
  4  3  1  0  0  0  0
  6  4  1  0  0  0  0
  5 10  2  0  0  0  0
  6  5  1  0  0  0  0
  7  6  2  0  0  0  0
  8  7  1  0  0  0  0
 11  8  2  0  0  0  0
  9 15  1  0  0  0  0
 11 10  1  0  0  0  0
 16 11  1  0  0  0  0
 12 18  1  0  0  0  0
 14 13  2  0  0  0  0
 14 19  1  0  0  0  0
 15 14  1  0  0  0  0
 16 15  2  0  0  0  0
 17 16  1  0  0  0  0
 20 17  1  0  0  0  0
 18 23  1  0  0  0  0
 19 18  2  0  0  0  0
 20 19  1  0  0  0  0
 21 20  2  0  0  0  0
 24 21  1  0  0  0  0
 22 26  1  0  0  0  0
 23 22  1  0  0  0  0
 24 23  2  0  0  0  0
 25 24  1  0  0  0  0
M  END
>  <cdx:fragmentId>
5

$$$$
