92607.cdx
  Mrv1902 05222410282D          

 46 51  0  0  0  0            999 V2000
    2.4588   -8.9655    0.0000 C   0  0  0  0  0  0  0  0  0  0  0  0
    2.0463   -9.6800    0.0000 C   0  0  0  0  0  0  0  0  0  0  0  0
    2.4588  -10.3945    0.0000 C   0  0  0  0  0  0  0  0  0  0  0  0
    3.2838  -10.3945    0.0000 C   0  0  0  0  0  0  0  0  0  0  0  0
    3.6963   -9.6800    0.0000 C   0  0  0  0  0  0  0  0  0  0  0  0
    3.2838   -8.9655    0.0000 C   0  0  0  0  0  0  0  0  0  0  0  0
    4.5213   -9.6800    0.0000 C   0  0  0  0  0  0  0  0  0  0  0  0
    4.9338   -8.9655    0.0000 C   0  0  0  0  0  0  0  0  0  0  0  0
    4.5213   -8.2511    0.0000 C   0  0  0  0  0  0  0  0  0  0  0  0
    3.8613   -8.2648    0.0000 O   0  0  0  0  0  0  0  0  0  0  0  0
    3.6963  -11.1089    0.0000 C   0  0  0  0  0  0  0  0  0  0  0  0
    4.5213  -11.1089    0.0000 O   0  0  0  0  0  0  0  0  0  0  0  0
    4.9338  -10.3945    0.0000 C   0  0  0  0  0  0  0  0  0  0  0  0
    5.7588  -10.3945    0.0000 C   0  0  0  0  0  0  0  0  0  0  0  0
    6.1713   -9.6800    0.0000 C   0  0  0  0  0  0  0  0  0  0  0  0
    5.7588   -8.9655    0.0000 C   0  0  0  0  0  0  0  0  0  0  0  0
    6.1713   -8.2511    0.0000 C   0  0  0  0  0  0  0  0  0  0  0  0
    5.7588   -7.5366    0.0000 C   0  0  0  0  0  0  0  0  0  0  0  0
    4.9338   -7.5366    0.0000 O   0  0  0  0  0  0  0  0  0  0  0  0
    6.9963   -8.2511    0.0000 C   0  0  0  0  0  0  0  0  0  0  0  0
    7.4088   -7.5366    0.0000 C   0  0  0  0  0  0  0  0  0  0  0  0
    6.9963   -6.8221    0.0000 C   0  0  0  0  0  0  0  0  0  0  0  0
    6.1713   -6.8221    0.0000 C   0  0  0  0  0  0  0  0  0  0  0  0
    6.9963   -9.6800    0.0000 O   0  0  0  0  0  0  0  0  0  0  0  0
    7.4088   -8.9655    0.0000 C   0  0  0  0  0  0  0  0  0  0  0  0
    8.2338   -7.5366    0.0000 C   0  0  0  0  0  0  0  0  0  0  0  0
    8.6463   -6.8221    0.0000 C   0  0  0  0  0  0  0  0  0  0  0  0
    8.2338   -6.1076    0.0000 O   0  0  0  0  0  0  0  0  0  0  0  0
    7.4088   -6.1076    0.0000 O   0  0  0  0  0  0  0  0  0  0  0  0
    8.2338   -8.9655    0.0000 O   0  0  0  0  0  0  0  0  0  0  0  0
    8.6463   -8.2511    0.0000 C   0  0  0  0  0  0  0  0  0  0  0  0
    9.4713   -8.2511    0.0000 C   0  0  0  0  0  0  0  0  0  0  0  0
    9.8838   -7.5366    0.0000 C   0  0  0  0  0  0  0  0  0  0  0  0
    9.4713   -6.8221    0.0000 C   0  0  0  0  0  0  0  0  0  0  0  0
    3.2838   -8.1405    0.0000 O   0  0  0  0  0  0  0  0  0  0  0  0
    2.0463   -8.2511    0.0000 O   0  0  0  0  0  0  0  0  0  0  0  0
    1.2213   -9.6800    0.0000 O   0  0  0  0  0  0  0  0  0  0  0  0
    3.2838  -11.8234    0.0000 O   0  0  0  0  0  0  0  0  0  0  0  0
    5.7588   -6.1076    0.0000 O   0  0  0  0  0  0  0  0  0  0  0  0
    9.8838   -6.1076    0.0000 O   0  0  0  0  0  0  0  0  0  0  0  0
   10.7088   -7.5366    0.0000 O   0  0  0  0  0  0  0  0  0  0  0  0
    8.8598   -9.0479    0.0000 C   0  0  0  0  0  0  0  0  0  0  0  0
    8.2764   -9.6313    0.0000 O   0  0  0  0  0  0  0  0  0  0  0  0
    9.6567   -9.2615    0.0000 O   0  0  0  0  0  0  0  0  0  0  0  0
    5.3463  -11.1089    0.0000 O   0  0  0  0  0  0  0  0  0  0  0  0
    6.1713  -11.1089    0.0000 O   0  0  0  0  0  0  0  0  0  0  0  0
  1  2  1  0  0  0  0
  2  3  2  0  0  0  0
  3  4  1  0  0  0  0
  4  5  2  0  0  0  0
  5  6  1  0  0  0  0
  6  1  2  0  0  0  0
  5  7  1  0  0  0  0
  7  8  2  0  0  0  0
  8  9  1  0  0  0  0
  9 10  2  0  0  0  0
  4 11  1  0  0  0  0
 11 12  1  0  0  0  0
 13  7  1  0  0  0  0
 13 14  2  0  0  0  0
 14 15  1  0  0  0  0
 15 16  2  0  0  0  0
 16  8  1  0  0  0  0
 16 17  1  0  0  0  0
 17 18  1  0  0  0  0
 18 19  1  0  0  0  0
 19  9  1  0  0  0  0
 17 20  2  0  0  0  0
 20 21  1  0  0  0  0
 21 22  2  0  0  0  0
 22 23  1  0  0  0  0
 23 18  2  0  0  0  0
 15 24  1  0  0  0  0
 24 25  1  0  0  0  0
 25 20  1  0  0  0  0
 21 26  1  0  0  0  0
 26 27  1  0  0  0  0
 27 28  1  0  0  0  0
 29 22  1  0  0  0  0
 25 30  2  0  0  0  0
 31 26  2  0  0  0  0
 31 32  1  0  0  0  0
 32 33  2  0  0  0  0
 33 34  1  0  0  0  0
 34 27  2  0  0  0  0
  6 35  1  0  0  0  0
  1 36  1  0  0  0  0
  2 37  1  0  0  0  0
 11 38  2  0  0  0  0
 23 39  1  0  0  0  0
 34 40  1  0  0  0  0
 33 41  1  0  0  0  0
 31 42  1  0  0  0  0
 42 43  2  0  0  0  0
 42 44  1  0  0  0  0
 13 45  1  0  0  0  0
 14 46  1  0  0  0  0
M  END
>  <cdx:fragmentId>
5

$$$$
