92606.cdx
  Mrv1902 05222410282D          

  8  7  0  0  0  0            999 V2000
    8.4649   -7.0537    0.0000 O   0  0  0  0  0  0  0  0  0  0  0  0
    7.7504   -6.6413    0.0000 C   0  0  0  0  0  0  0  0  0  0  0  0
    7.0359   -7.0537    0.0000 C   0  0  0  0  0  0  0  0  0  0  0  0
    6.3215   -6.6413    0.0000 C   0  0  0  0  0  0  0  0  0  0  0  0
    5.6070   -7.0537    0.0000 C   0  0  0  0  0  0  0  0  0  0  0  0
    4.8925   -6.6413    0.0000 O   0  0  0  0  0  0  0  0  0  0  0  0
    5.6070   -7.8788    0.0000 O   0  0  0  0  0  0  0  0  0  0  0  0
    7.7504   -5.8163    0.0000 O   0  0  0  0  0  0  0  0  0  0  0  0
  2  1  1  0  0  0  0
  3  2  1  0  0  0  0
  4  3  2  0  0  0  0
  5  4  1  0  0  0  0
  6  5  1  0  0  0  0
  5  7  2  0  0  0  0
  2  8  2  0  0  0  0
M  END
>  <cdx:fragmentId>
3

$$$$
