92614.cdx
  Mrv1902 05222410272D          

 14 14  0  0  0  0            999 V2000
    6.0756   -7.3700    0.0000 C   0  0  0  0  0  0  0  0  0  0  0  0
    6.0756   -8.1950    0.0000 C   0  0  0  0  0  0  0  0  0  0  0  0
    6.7900   -8.6075    0.0000 C   0  0  0  0  0  0  0  0  0  0  0  0
    7.5045   -8.1950    0.0000 C   0  0  0  0  0  0  0  0  0  0  0  0
    7.5045   -7.3700    0.0000 C   0  0  0  0  0  0  0  0  0  0  0  0
    6.7900   -6.9575    0.0000 C   0  0  0  0  0  0  0  0  0  0  0  0
    6.7900   -9.4325    0.0000 C   0  0  0  0  0  0  0  0  0  0  0  0
    7.5045   -9.8450    0.0000 C   0  0  0  0  0  0  0  0  0  0  0  0
    6.0756   -9.8450    0.0000 C   0  0  0  0  0  0  0  0  0  0  0  0
    6.3775   -6.2430    0.0000 C   0  0  0  0  0  0  0  0  0  0  0  0
    7.2025   -6.2430    0.0000 O   0  0  0  0  0  0  0  0  0  0  0  0
    8.0275   -6.2430    0.0000 C   0  0  0  0  0  0  0  0  0  0  0  0
    8.4400   -5.5286    0.0000 C   0  0  0  0  0  0  0  0  0  0  0  0
    8.4400   -6.9575    0.0000 O   0  0  0  0  0  0  0  0  0  0  0  0
  1  2  1  0  0  0  0
  2  3  1  0  0  0  0
  3  4  1  0  0  0  0
  4  5  1  0  0  0  0
  5  6  1  0  0  0  0
  6  1  1  0  0  0  0
  3  7  1  0  0  0  0
  7  8  2  0  0  0  0
  7  9  1  0  0  0  0
  6 10  1  0  0  0  0
  6 11  1  0  0  0  0
 11 12  1  0  0  0  0
 12 13  1  0  0  0  0
 12 14  2  0  0  0  0
M  END
>  <cdx:fragmentId>
5

$$$$
