9261.cdx
  Mrv1902 05222410252D          

 23 22  0  0  0  0            999 V2000
    0.6600   -9.2675    0.0000 C   0  0  0  0  0  0  0  0  0  0  0  0
    1.3745   -8.8550    0.0000 O   0  0  0  0  0  0  0  0  0  0  0  0
    2.0889   -9.2675    0.0000 C   0  0  0  0  0  0  0  0  0  0  0  0
    2.8034   -8.8550    0.0000 C   0  0  0  0  0  0  0  0  0  0  0  0
    2.0889  -10.0925    0.0000 O   0  0  0  0  0  0  0  0  0  0  0  0
    3.5179   -9.2675    0.0000 C   0  0  0  0  0  0  0  0  0  0  0  0
    4.2324   -8.8550    0.0000 C   0  0  0  0  0  0  0  0  0  0  0  0
    4.9468   -9.2675    0.0000 C   0  0  0  0  0  0  0  0  0  0  0  0
    5.6613   -8.8550    0.0000 C   0  0  0  0  0  0  0  0  0  0  0  0
    6.3758   -9.2675    0.0000 C   0  0  0  0  0  0  0  0  0  0  0  0
    7.0902   -8.8550    0.0000 C   0  0  0  0  0  0  0  0  0  0  0  0
    7.8047   -9.2675    0.0000 C   0  0  0  0  0  0  0  0  0  0  0  0
    8.5192   -8.8550    0.0000 C   0  0  0  0  0  0  0  0  0  0  0  0
    9.2337   -9.2675    0.0000 C   0  0  0  0  0  0  0  0  0  0  0  0
    9.9481   -8.8550    0.0000 C   0  0  0  0  0  0  0  0  0  0  0  0
   10.6626   -9.2675    0.0000 C   0  0  0  0  0  0  0  0  0  0  0  0
   11.3771   -8.8550    0.0000 C   0  0  0  0  0  0  0  0  0  0  0  0
   12.0915   -9.2675    0.0000 C   0  0  0  0  0  0  0  0  0  0  0  0
   12.8060   -8.8550    0.0000 C   0  0  0  0  0  0  0  0  0  0  0  0
   13.5205   -9.2675    0.0000 C   0  0  0  0  0  0  0  0  0  0  0  0
   14.2349   -8.8550    0.0000 C   0  0  0  0  0  0  0  0  0  0  0  0
   14.9494   -9.2675    0.0000 C   0  0  0  0  0  0  0  0  0  0  0  0
   15.6639   -8.8550    0.0000 C   0  0  0  0  0  0  0  0  0  0  0  0
  1  2  1  0  0  0  0
  2  3  1  0  0  0  0
  3  4  1  0  0  0  0
  3  5  2  0  0  0  0
  4  6  2  3  0  0  0
  6  7  1  0  0  0  0
  7  8  2  3  0  0  0
  8  9  1  0  0  0  0
  9 10  2  3  0  0  0
 10 11  1  0  0  0  0
 11 12  1  0  0  0  0
 12 13  1  0  0  0  0
 13 14  1  0  0  0  0
 14 15  1  0  0  0  0
 15 16  1  0  0  0  0
 16 17  1  0  0  0  0
 17 18  1  0  0  0  0
 18 19  1  0  0  0  0
 19 20  1  0  0  0  0
 20 21  1  0  0  0  0
 21 22  1  0  0  0  0
 22 23  1  0  0  0  0
M  END
>  <cdx:fragmentId>
57

$$$$
