92610.cdx
  Mrv1902 05222410272D          

 15 16  0  0  0  0            999 V2000
    5.4948   -7.6602    0.0000 O   0  0  0  0  0  0  0  0  0  0  0  0
    6.2194   -8.0547    0.0000 C   0  0  0  0  0  0  0  0  0  0  0  0
    6.9233   -7.6244    0.0000 C   0  0  0  0  0  0  0  0  0  0  0  0
    6.9027   -6.7997    0.0000 C   0  0  0  0  0  0  0  0  0  0  0  0
    6.1781   -6.4052    0.0000 C   0  0  0  0  0  0  0  0  0  0  0  0
    5.4742   -6.8354    0.0000 C   0  0  0  0  0  0  0  0  0  0  0  0
    7.6066   -6.3695    0.0000 C   0  0  0  0  0  0  0  0  0  0  0  0
    7.5860   -5.5447    0.0000 C   0  0  0  0  0  0  0  0  0  0  0  0
    6.8614   -5.1502    0.0000 O   0  0  0  0  0  0  0  0  0  0  0  0
    6.1575   -5.5805    0.0000 C   0  0  0  0  0  0  0  0  0  0  0  0
    5.4329   -5.1860    0.0000 O   0  0  0  0  0  0  0  0  0  0  0  0
    6.2400   -8.8794    0.0000 O   0  0  0  0  0  0  0  0  0  0  0  0
    7.3536   -8.3284    0.0000 O   0  0  0  0  0  0  0  0  0  0  0  0
    7.7481   -7.6038    0.0000 C   0  0  0  0  0  0  0  0  0  0  0  0
    8.1606   -8.3183    0.0000 C   0  0  0  0  0  0  0  0  0  0  0  0
  1  2  1  0  0  0  0
  2  3  1  0  0  0  0
  3  4  1  0  0  0  0
  4  5  2  0  0  0  0
  5  6  1  0  0  0  0
  6  1  1  0  0  0  0
  4  7  1  0  0  0  0
  7  8  1  0  0  0  0
  8  9  1  0  0  0  0
  9 10  1  0  0  0  0
 10  5  1  0  0  0  0
 10 11  2  0  0  0  0
  2 12  2  0  0  0  0
  3 13  1  0  0  0  0
  3 14  1  0  0  0  0
 14 15  1  0  0  0  0
M  END
>  <cdx:fragmentId>
5

$$$$
