92624.cdx
  Mrv1902 05222410192D          

 26 28  0  0  0  0            999 V2000
    4.6043   -6.5175    0.0000 C   0  0  0  0  0  0  0  0  0  0  0  0
    4.6043   -7.3425    0.0000 C   0  0  0  0  0  0  0  0  0  0  0  0
    5.3188   -7.7550    0.0000 C   0  0  0  0  0  0  0  0  0  0  0  0
    6.0332   -7.3425    0.0000 C   0  0  0  0  0  0  0  0  0  0  0  0
    6.0332   -6.5175    0.0000 C   0  0  0  0  0  0  0  0  0  0  0  0
    5.3188   -6.1050    0.0000 C   0  0  0  0  0  0  0  0  0  0  0  0
    6.8179   -7.5974    0.0000 O   0  0  0  0  0  0  0  0  0  0  0  0
    7.3028   -6.9300    0.0000 C   0  0  1  0  0  0  0  0  0  0  0  0
    6.8179   -6.2626    0.0000 C   0  0  1  0  0  0  0  0  0  0  0  0
    3.8898   -6.1050    0.0000 C   0  0  0  0  0  0  0  0  0  0  0  0
    3.1754   -6.5175    0.0000 C   0  0  0  0  0  0  0  0  0  0  0  0
    2.4609   -6.1050    0.0000 C   0  0  0  0  0  0  0  0  0  0  0  0
    1.7464   -6.5175    0.0000 O   0  0  0  0  0  0  0  0  0  0  0  0
    7.0728   -5.4779    0.0000 C   0  0  0  0  0  0  0  0  0  0  0  0
    6.5208   -4.8648    0.0000 O   0  0  0  0  0  0  0  0  0  0  0  0
    5.3188   -8.5800    0.0000 O   0  0  0  0  0  0  0  0  0  0  0  0
    4.6043   -8.9925    0.0000 C   0  0  0  0  0  0  0  0  0  0  0  0
    8.1278   -6.9300    0.0000 C   0  0  0  0  0  0  0  0  0  0  0  0
    8.5403   -7.6445    0.0000 C   0  0  0  0  0  0  0  0  0  0  0  0
    9.3653   -7.6445    0.0000 C   0  0  0  0  0  0  0  0  0  0  0  0
    9.7778   -6.9300    0.0000 C   0  0  0  0  0  0  0  0  0  0  0  0
    9.3653   -6.2155    0.0000 C   0  0  0  0  0  0  0  0  0  0  0  0
    8.5403   -6.2155    0.0000 C   0  0  0  0  0  0  0  0  0  0  0  0
   10.6028   -6.9300    0.0000 O   0  0  0  0  0  0  0  0  0  0  0  0
    9.7778   -8.3589    0.0000 O   0  0  0  0  0  0  0  0  0  0  0  0
    9.3653   -9.0734    0.0000 C   0  0  0  0  0  0  0  0  0  0  0  0
  1  2  2  0  0  0  0
  2  3  1  0  0  0  0
  3  4  2  0  0  0  0
  4  5  1  0  0  0  0
  5  6  2  0  0  0  0
  6  1  1  0  0  0  0
  4  7  1  0  0  0  0
  7  8  1  0  0  0  0
  8  9  1  0  0  0  0
  9  5  1  0  0  0  0
  1 10  1  0  0  0  0
 10 11  1  0  0  0  0
 11 12  1  0  0  0  0
 12 13  1  0  0  0  0
  9 14  1  6  0  0  0
 14 15  1  0  0  0  0
  3 16  1  0  0  0  0
 16 17  1  0  0  0  0
  8 18  1  1  0  0  0
 18 19  2  0  0  0  0
 19 20  1  0  0  0  0
 20 21  2  0  0  0  0
 21 22  1  0  0  0  0
 22 23  2  0  0  0  0
 23 18  1  0  0  0  0
 21 24  1  0  0  0  0
 20 25  1  0  0  0  0
 25 26  1  0  0  0  0
M  END
>  <cdx:fragmentId>
5

$$$$
