92628.cdx
  Mrv1902 05222410272D          

 16 18  0  0  0  0            999 V2000
    6.4660   -7.2526    0.0000 C   0  0  1  0  0  0  0  0  0  0  0  0
    7.1216   -7.7534    0.0000 C   0  0  0  0  0  0  0  0  0  0  0  0
    7.9219   -7.5530    0.0000 C   0  0  1  0  0  0  0  0  0  0  0  0
    8.2642   -6.8023    0.0000 C   0  0  0  0  0  0  0  0  0  0  0  0
    7.8908   -6.0667    0.0000 C   0  0  0  0  0  0  0  0  0  0  0  0
    7.0828   -5.9000    0.0000 C   0  0  2  0  0  0  0  0  0  0  0  0
    6.4487   -6.4278    0.0000 C   0  0  1  0  0  0  0  0  0  0  0  0
    5.6589   -6.1894    0.0000 C   0  0  0  0  0  0  0  0  0  0  0  0
    5.1881   -6.8668    0.0000 C   0  0  0  0  0  0  0  0  0  0  0  0
    5.6869   -7.5239    0.0000 C   0  0  1  0  0  0  0  0  0  0  0  0
    5.4485   -8.3137    0.0000 C   0  0  0  0  0  0  0  0  0  0  0  0
    6.8824   -5.0997    0.0000 C   0  0  0  0  0  0  0  0  0  0  0  0
    6.4833   -8.0774    0.0000 H   0  0  0  0  0  0  0  0  0  0  0  0
    6.4314   -5.6030    0.0000 H   0  0  0  0  0  0  0  0  0  0  0  0
    7.0828   -6.7250    0.0000 C   0  0  0  0  0  0  0  0  0  0  0  0
    7.7084   -6.7561    0.0000 C   0  0  0  0  0  0  0  0  0  0  0  0
  1  2  1  0  0  0  0
  2  3  1  0  0  0  0
  3  4  1  0  0  0  0
  4  5  1  0  0  0  0
  5  6  1  0  0  0  0
  6  7  1  0  0  0  0
  7  1  1  0  0  0  0
  7  8  1  0  0  0  0
  8  9  1  0  0  0  0
  9 10  1  0  0  0  0
 10  1  1  0  0  0  0
 10 11  1  6  0  0  0
  6 12  1  0  0  0  0
  1 13  1  1  0  0  0
  7 14  1  1  0  0  0
  6 15  1  1  0  0  0
  3 16  1  1  0  0  0
 15 16  2  0  0  0  0
M  END
>  <cdx:fragmentId>
5

$$$$
