92621.cdx
  Mrv1902 05222410192D          

 20 20  0  0  0  0            999 V2000
    6.8456   -7.9750    0.0000 C   0  0  0  0  0  0  0  0  0  0  0  0
    6.8456   -8.8000    0.0000 C   0  0  0  0  0  0  0  0  0  0  0  0
    7.5600   -9.2125    0.0000 C   0  0  0  0  0  0  0  0  0  0  0  0
    8.2745   -8.8000    0.0000 C   0  0  0  0  0  0  0  0  0  0  0  0
    8.2745   -7.9750    0.0000 C   0  0  0  0  0  0  0  0  0  0  0  0
    7.5600   -7.5625    0.0000 C   0  0  2  0  0  0  0  0  0  0  0  0
    7.5600  -10.0375    0.0000 C   0  0  0  0  0  0  0  0  0  0  0  0
    7.5600   -6.7375    0.0000 C   0  0  0  0  0  0  0  0  0  0  0  0
    7.5600   -5.9125    0.0000 O   0  0  0  0  0  0  0  0  0  0  0  0
    8.3850   -6.7375    0.0000 C   0  0  0  0  0  0  0  0  0  0  0  0
    6.7350   -6.7375    0.0000 C   0  0  0  0  0  0  0  0  0  0  0  0
    8.2745   -7.1500    0.0000 H   0  0  0  0  0  0  0  0  0  0  0  0
    8.7975   -6.0230    0.0000 C   0  0  0  0  0  0  0  0  0  0  0  0
    9.6225   -6.0230    0.0000 C   0  0  0  0  0  0  0  0  0  0  0  0
   10.0350   -5.3086    0.0000 C   0  0  0  0  0  0  0  0  0  0  0  0
   10.8600   -5.3086    0.0000 C   0  0  0  0  0  0  0  0  0  0  0  0
    9.6225   -4.5941    0.0000 C   0  0  0  0  0  0  0  0  0  0  0  0
    6.8456   -5.5000    0.0000 C   0  0  0  0  0  0  0  0  0  0  0  0
    6.8456   -4.6750    0.0000 C   0  0  0  0  0  0  0  0  0  0  0  0
    6.1311   -5.9125    0.0000 O   0  0  0  0  0  0  0  0  0  0  0  0
  1  2  1  0  0  0  0
  2  3  1  0  0  0  0
  3  4  2  0  0  0  0
  4  5  1  0  0  0  0
  5  6  1  0  0  0  0
  6  1  1  0  0  0  0
  3  7  1  0  0  0  0
  6  8  1  0  0  0  0
  8  9  1  1  0  0  0
  8 10  1  0  0  0  0
  8 11  1  0  0  0  0
  6 12  1  6  0  0  0
 10 13  1  0  0  0  0
 13 14  1  0  0  0  0
 14 15  2  0  0  0  0
 15 16  1  0  0  0  0
 15 17  1  0  0  0  0
  9 18  1  0  0  0  0
 18 19  1  0  0  0  0
 18 20  2  0  0  0  0
M  END
>  <cdx:fragmentId>
5

$$$$
