9262.cdx
  Mrv1902 05222410242D          

 11 10  0  0  0  0            999 V2000
    9.7558   -8.2833    0.0000 C   0  0  0  0  0  0  0  0  0  0  0  0
    9.0413   -8.6958    0.0000 C   0  0  0  0  0  0  0  0  0  0  0  0
    8.3269   -8.2833    0.0000 C   0  0  0  0  0  0  0  0  0  0  0  0
    7.6124   -8.6958    0.0000 C   0  0  0  0  0  0  0  0  0  0  0  0
    6.8979   -8.2833    0.0000 C   0  0  0  0  0  0  0  0  0  0  0  0
    6.1834   -8.6958    0.0000 C   0  0  0  0  0  0  0  0  0  0  0  0
    5.4690   -8.2833    0.0000 C   0  0  0  0  0  0  0  0  0  0  0  0
    6.1834   -9.5208    0.0000 C   0  0  0  0  0  0  0  0  0  0  0  0
    9.0413   -9.5208    0.0000 C   0  0  0  0  0  0  0  0  0  0  0  0
    5.4690   -7.4583    0.0000 C   0  0  0  0  0  0  0  0  0  0  0  0
    4.7545   -7.0458    0.0000 O   0  0  0  0  0  0  0  0  0  0  0  0
  2  1  1  0  0  0  0
  3  2  2  0  0  0  0
  4  3  1  0  0  0  0
  5  4  1  0  0  0  0
  6  5  1  0  0  0  0
  7  6  2  0  0  0  0
  6  8  1  0  0  0  0
  2  9  1  0  0  0  0
  7 10  1  0  0  0  0
 10 11  1  0  0  0  0
M  END
>  <cdx:fragmentId>
3

$$$$
