92626.cdx
  Mrv1902 05222410202D          

 20 22  0  0  0  0            999 V2000
    4.7143   -7.2050    0.0000 C   0  0  2  0  0  0  0  0  0  0  0  0
    4.7143   -8.0300    0.0000 C   0  0  0  0  0  0  0  0  0  0  0  0
    5.4288   -8.4425    0.0000 O   0  0  0  0  0  0  0  0  0  0  0  0
    6.1432   -8.0300    0.0000 C   0  0  0  0  0  0  0  0  0  0  0  0
    6.1432   -7.2050    0.0000 C   0  0  0  0  0  0  0  0  0  0  0  0
    5.4288   -6.7925    0.0000 C   0  0  0  0  0  0  0  0  0  0  0  0
    6.8577   -8.4425    0.0000 C   0  0  0  0  0  0  0  0  0  0  0  0
    7.5722   -8.0300    0.0000 C   0  0  0  0  0  0  0  0  0  0  0  0
    7.5722   -7.2050    0.0000 C   0  0  0  0  0  0  0  0  0  0  0  0
    6.8577   -6.7925    0.0000 C   0  0  0  0  0  0  0  0  0  0  0  0
    8.2867   -8.4425    0.0000 O   0  0  0  0  0  0  0  0  0  0  0  0
    9.0011   -8.0300    0.0000 C   0  0  0  0  0  0  0  0  0  0  0  0
    9.0011   -7.2050    0.0000 C   0  0  0  0  0  0  0  0  0  0  0  0
    8.2867   -6.7925    0.0000 C   0  0  0  0  0  0  0  0  0  0  0  0
    8.2867   -5.9675    0.0000 O   0  0  0  0  0  0  0  0  0  0  0  0
    6.8577   -5.9675    0.0000 O   0  0  0  0  0  0  0  0  0  0  0  0
    9.7156   -8.4425    0.0000 C   0  0  0  0  0  0  0  0  0  0  0  0
    3.8893   -8.0300    0.0000 C   0  0  0  0  0  0  0  0  0  0  0  0
    4.3018   -8.7445    0.0000 C   0  0  0  0  0  0  0  0  0  0  0  0
    3.9998   -6.7925    0.0000 O   0  0  0  0  0  0  0  0  0  0  0  0
  1  2  1  0  0  0  0
  2  3  1  0  0  0  0
  3  4  1  0  0  0  0
  4  5  2  0  0  0  0
  5  6  1  0  0  0  0
  6  1  1  0  0  0  0
  4  7  1  0  0  0  0
  7  8  2  0  0  0  0
  8  9  1  0  0  0  0
  9 10  2  0  0  0  0
 10  5  1  0  0  0  0
  8 11  1  0  0  0  0
 11 12  1  0  0  0  0
 12 13  2  0  0  0  0
 13 14  1  0  0  0  0
 14  9  1  0  0  0  0
 14 15  2  0  0  0  0
 16 10  1  0  0  0  0
 12 17  1  0  0  0  0
  2 18  1  0  0  0  0
  2 19  1  0  0  0  0
  1 20  1  1  0  0  0
M  END
>  <cdx:fragmentId>
5

$$$$
