92629.cdx
  Mrv1902 05222410262D          

 24 26  0  0  0  0            999 V2000
    5.0024   -5.7890    0.0000 C   0  0  0  0  0  0  0  0  0  0  0  0
    5.0121   -6.6139    0.0000 C   0  0  0  0  0  0  0  0  0  0  0  0
    5.7313   -7.0181    0.0000 C   0  0  0  0  0  0  0  0  0  0  0  0
    6.4409   -6.5972    0.0000 C   0  0  0  0  0  0  0  0  0  0  0  0
    6.4313   -5.7723    0.0000 C   0  0  0  0  0  0  0  0  0  0  0  0
    5.7120   -5.3682    0.0000 C   0  0  0  0  0  0  0  0  0  0  0  0
    7.1602   -7.0014    0.0000 C   0  0  2  0  0  0  0  0  0  0  0  0
    7.8698   -6.5805    0.0000 N   0  3  0  0  0  0  0  0  0  0  0  0
    7.8601   -5.7556    0.0000 C   0  0  0  0  0  0  0  0  0  0  0  0
    7.1409   -5.3515    0.0000 C   0  0  0  0  0  0  0  0  0  0  0  0
    7.1698   -7.8263    0.0000 C   0  0  0  0  0  0  0  0  0  0  0  0
    7.8891   -8.2304    0.0000 C   0  0  0  0  0  0  0  0  0  0  0  0
    8.5987   -7.8096    0.0000 C   0  0  0  0  0  0  0  0  0  0  0  0
    7.8987   -9.0554    0.0000 C   0  0  0  0  0  0  0  0  0  0  0  0
    8.6179   -9.4595    0.0000 C   0  0  0  0  0  0  0  0  0  0  0  0
    9.3275   -9.0387    0.0000 C   0  0  0  0  0  0  0  0  0  0  0  0
    9.3179   -8.2137    0.0000 C   0  0  0  0  0  0  0  0  0  0  0  0
    5.7410   -7.8430    0.0000 O   0  0  0  0  0  0  0  0  0  0  0  0
    4.3025   -7.0348    0.0000 O   0  0  0  0  0  0  0  0  0  0  0  0
    3.5832   -6.6306    0.0000 C   0  0  0  0  0  0  0  0  0  0  0  0
   10.0468   -9.4428    0.0000 O   0  0  0  0  0  0  0  0  0  0  0  0
    8.6947   -6.5709    0.0000 C   0  0  0  0  0  0  0  0  0  0  0  0
    8.2906   -7.2901    0.0000 C   0  0  0  0  0  0  0  0  0  0  0  0
    6.4506   -7.4222    0.0000 H   0  0  0  0  0  0  0  0  0  0  0  0
  1  2  2  0  0  0  0
  2  3  1  0  0  0  0
  3  4  2  0  0  0  0
  4  5  1  0  0  0  0
  5  6  2  0  0  0  0
  6  1  1  0  0  0  0
  4  7  1  0  0  0  0
  7  8  1  0  0  0  0
  8  9  1  0  0  0  0
  9 10  1  0  0  0  0
 10  5  1  0  0  0  0
  7 11  1  0  0  0  0
 11 12  1  0  0  0  0
 12 13  2  0  0  0  0
 12 14  1  0  0  0  0
 14 15  2  0  0  0  0
 15 16  1  0  0  0  0
 16 17  2  0  0  0  0
 17 13  1  0  0  0  0
  3 18  1  0  0  0  0
  2 19  1  0  0  0  0
 19 20  1  0  0  0  0
 16 21  1  0  0  0  0
  8 22  1  0  0  0  0
  8 23  1  0  0  0  0
  7 24  1  1  0  0  0
M  CHG  1   8   1
M  END
>  <cdx:fragmentId>
5

$$$$
