92620.cdx
  Mrv1902 05222410182D          

 14 14  0  0  0  0            999 V2000
    6.6806   -7.2050    0.0000 C   0  0  0  0  0  0  0  0  0  0  0  0
    6.6806   -8.0300    0.0000 C   0  0  0  0  0  0  0  0  0  0  0  0
    7.3950   -8.4425    0.0000 C   0  0  0  0  0  0  0  0  0  0  0  0
    8.1095   -8.0300    0.0000 C   0  0  0  0  0  0  0  0  0  0  0  0
    8.1095   -7.2050    0.0000 C   0  0  0  0  0  0  0  0  0  0  0  0
    7.3950   -6.7925    0.0000 C   0  0  0  0  0  0  0  0  0  0  0  0
    5.9661   -8.4425    0.0000 C   0  0  0  0  0  0  0  0  0  0  0  0
    6.9825   -6.0780    0.0000 C   0  0  0  0  0  0  0  0  0  0  0  0
    7.8075   -6.0780    0.0000 C   0  0  0  0  0  0  0  0  0  0  0  0
    5.9661   -6.7925    0.0000 C   0  0  0  0  0  0  0  0  0  0  0  0
    5.2516   -7.2050    0.0000 O   0  0  0  0  0  0  0  0  0  0  0  0
    4.5371   -6.7925    0.0000 C   0  0  0  0  0  0  0  0  0  0  0  0
    3.8227   -7.2050    0.0000 C   0  0  0  0  0  0  0  0  0  0  0  0
    4.5371   -5.9675    0.0000 O   0  0  0  0  0  0  0  0  0  0  0  0
  1  2  1  0  0  0  0
  2  3  2  0  0  0  0
  3  4  1  0  0  0  0
  4  5  1  0  0  0  0
  5  6  1  0  0  0  0
  6  1  1  0  0  0  0
  2  7  1  0  0  0  0
  6  8  1  0  0  0  0
  6  9  1  0  0  0  0
  1 10  1  0  0  0  0
 10 11  1  0  0  0  0
 11 12  1  0  0  0  0
 12 13  1  0  0  0  0
 12 14  2  0  0  0  0
M  END
>  <cdx:fragmentId>
5

$$$$
