926301.cdx
  Mrv1902 05222410212D          

 61 67  0  0  0  0            999 V2000
    3.9805   -8.8087    0.0000 O   0  0  0  0  0  0  0  0  0  0  0  0
    4.6950   -9.2212    0.0000 C   0  0  1  0  0  0  0  0  0  0  0  0
    4.6950  -10.0462    0.0000 C   0  0  2  0  0  0  0  0  0  0  0  0
    3.9805  -10.4587    0.0000 O   0  0  0  0  0  0  0  0  0  0  0  0
    3.2661  -10.0462    0.0000 C   0  0  1  0  0  0  0  0  0  0  0  0
    3.2661   -9.2212    0.0000 C   0  0  2  0  0  0  0  0  0  0  0  0
    5.4095   -8.8087    0.0000 C   0  0  2  0  0  0  0  0  0  0  0  0
    5.4095  -10.4587    0.0000 C   0  0  2  0  0  0  0  0  0  0  0  0
    6.1239  -10.0462    0.0000 C   0  0  1  0  0  0  0  0  0  0  0  0
    6.1239   -9.2212    0.0000 O   0  0  0  0  0  0  0  0  0  0  0  0
    2.5516   -8.8087    0.0000 C   0  0  0  0  0  0  0  0  0  0  0  0
    2.5516   -7.9837    0.0000 O   0  0  0  0  0  0  0  0  0  0  0  0
    1.8371   -9.2212    0.0000 O   0  0  0  0  0  0  0  0  0  0  0  0
    5.4095   -7.9837    0.0000 C   0  0  0  0  0  0  0  0  0  0  0  0
    6.1239   -7.5712    0.0000 O   0  0  0  0  0  0  0  0  0  0  0  0
    4.6950   -7.5712    0.0000 O   0  0  0  0  0  0  0  0  0  0  0  0
    5.4095  -11.2837    0.0000 O   0  0  0  0  0  0  0  0  0  0  0  0
    3.2661   -8.3962    0.0000 O   0  0  0  0  0  0  0  0  0  0  0  0
    2.5516  -10.4587    0.0000 O   0  0  0  0  0  0  0  0  0  0  0  0
    1.8371  -10.0462    0.0000 C   0  0  0  0  0  0  0  0  0  0  0  0
    1.1226  -10.4587    0.0000 C   0  0  0  0  0  0  0  0  0  0  0  0
    1.1226  -11.2837    0.0000 O   0  0  0  0  0  0  0  0  0  0  0  0
    0.4082  -10.0462    0.0000 O   0  0  0  0  0  0  0  0  0  0  0  0
    6.8384  -10.4587    0.0000 O   0  0  0  0  0  0  0  0  0  0  0  0
    8.2674   -8.8087    0.0000 C   0  0  0  0  0  0  0  0  0  0  0  0
    7.5529   -9.2212    0.0000 C   0  0  0  0  0  0  0  0  0  0  0  0
    7.5529  -10.0462    0.0000 C   0  0  1  0  0  0  0  0  0  0  0  0
    8.2674  -10.4587    0.0000 C   0  0  0  0  0  0  0  0  0  0  0  0
    8.9818  -10.0462    0.0000 C   0  0  2  0  0  0  0  0  0  0  0  0
    9.6963  -10.4587    0.0000 C   0  0  0  0  0  0  0  0  0  0  0  0
   10.4108  -10.0462    0.0000 C   0  0  0  0  0  0  0  0  0  0  0  0
   10.4108   -9.2212    0.0000 C   0  0  1  0  0  0  0  0  0  0  0  0
   11.1252   -8.8087    0.0000 C   0  0  2  0  0  0  0  0  0  0  0  0
   11.8397   -9.2212    0.0000 C   0  0  0  0  0  0  0  0  0  0  0  0
   12.5542   -8.8087    0.0000 C   0  0  0  0  0  0  0  0  0  0  0  0
   12.5542   -7.9837    0.0000 C   0  0  1  0  0  0  0  0  0  0  0  0
   13.2687   -7.5712    0.0000 C   0  0  0  0  0  0  0  0  0  0  0  0
   13.2687   -6.7462    0.0000 C   0  0  0  0  0  0  0  0  0  0  0  0
   12.5542   -6.3337    0.0000 C   0  0  0  0  0  0  0  0  0  0  0  0
   11.8397   -6.7462    0.0000 C   0  0  0  0  0  0  0  0  0  0  0  0
   11.8397   -7.5712    0.0000 C   0  0  1  0  0  0  0  0  0  0  0  0
   11.1252   -7.9837    0.0000 C   0  0  0  0  0  0  0  0  0  0  0  0
   10.4108   -7.5712    0.0000 C   0  0  0  0  0  0  0  0  0  0  0  0
    9.6963   -7.9837    0.0000 C   0  0  0  0  0  0  0  0  0  0  0  0
    9.6963   -8.8087    0.0000 C   0  0  2  0  0  0  0  0  0  0  0  0
    8.9818   -9.2212    0.0000 C   0  0  1  0  0  0  0  0  0  0  0  0
    8.9818   -8.3962    0.0000 C   0  0  0  0  0  0  0  0  0  0  0  0
   12.1417   -5.6192    0.0000 C   0  0  0  0  0  0  0  0  0  0  0  0
   12.9667   -5.6192    0.0000 C   0  0  0  0  0  0  0  0  0  0  0  0
   11.1252   -9.6337    0.0000 C   0  0  0  0  0  0  0  0  0  0  0  0
   10.4108   -8.3962    0.0000 C   0  0  0  0  0  0  0  0  0  0  0  0
    8.6799  -11.1731    0.0000 C   0  0  0  0  0  0  0  0  0  0  0  0
    7.8549  -11.1731    0.0000 C   0  0  0  0  0  0  0  0  0  0  0  0
   13.2687   -8.3962    0.0000 C   0  0  0  0  0  0  0  0  0  0  0  0
   13.2687   -9.2212    0.0000 O   0  0  0  0  0  0  0  0  0  0  0  0
   13.9831   -7.9837    0.0000 O   0  0  0  0  0  0  0  0  0  0  0  0
    4.6950   -8.3962    0.0000 H   0  0  0  0  0  0  0  0  0  0  0  0
    4.6950  -10.8712    0.0000 H   0  0  0  0  0  0  0  0  0  0  0  0
    8.9818  -10.8712    0.0000 H   0  0  0  0  0  0  0  0  0  0  0  0
   11.8397   -8.3962    0.0000 H   0  0  0  0  0  0  0  0  0  0  0  0
    9.6963   -9.6337    0.0000 H   0  0  0  0  0  0  0  0  0  0  0  0
  1  2  1  0  0  0  0
  2  3  1  0  0  0  0
  3  4  1  0  0  0  0
  4  5  1  0  0  0  0
  5  6  1  0  0  0  0
  1  6  1  0  0  0  0
  8  9  1  0  0  0  0
  9 10  1  0  0  0  0
  7 10  1  0  0  0  0
  7  2  1  0  0  0  0
  8  3  1  0  0  0  0
 11 12  2  0  0  0  0
 11 13  1  0  0  0  0
  6 11  1  0  0  0  0
 14 15  2  0  0  0  0
 14 16  1  0  0  0  0
  7 14  1  1  0  0  0
  8 17  1  6  0  0  0
  6 18  1  1  0  0  0
 19 20  1  0  0  0  0
 21 22  2  0  0  0  0
 21 23  1  0  0  0  0
 20 21  1  0  0  0  0
  5 19  1  6  0  0  0
 25 26  1  0  0  0  0
 26 27  1  0  0  0  0
 27 28  1  0  0  0  0
 28 29  1  0  0  0  0
 29 30  1  0  0  0  0
 30 31  1  0  0  0  0
 31 32  1  0  0  0  0
 32 33  1  0  0  0  0
 33 34  1  0  0  0  0
 34 35  1  0  0  0  0
 35 36  1  0  0  0  0
 36 37  1  0  0  0  0
 37 38  1  0  0  0  0
 38 39  1  0  0  0  0
 39 40  1  0  0  0  0
 40 41  1  0  0  0  0
 36 41  1  0  0  0  0
 41 42  1  0  0  0  0
 33 42  1  0  0  0  0
 42 43  2  0  0  0  0
 43 44  1  0  0  0  0
 44 45  1  0  0  0  0
 32 45  1  0  0  0  0
 45 46  1  0  0  0  0
 29 46  1  0  0  0  0
 25 46  1  0  0  0  0
 46 47  1  1  0  0  0
 39 48  1  0  0  0  0
 39 49  1  0  0  0  0
 33 50  1  6  0  0  0
 32 51  1  1  0  0  0
 28 52  1  0  0  0  0
 28 53  1  0  0  0  0
 54 55  2  0  0  0  0
 54 56  1  0  0  0  0
 36 54  1  1  0  0  0
 27 24  1  1  0  0  0
  9 24  1  1  0  0  0
  2 57  1  1  0  0  0
  3 58  1  6  0  0  0
 29 59  1  6  0  0  0
 41 60  1  1  0  0  0
 45 61  1  6  0  0  0
M  END
>  <cdx:fragmentId>
748

$$$$
