92635.cdx
  Mrv1902 05222410192D          

 24 28  0  0  0  0            999 V2000
    4.7541   -5.7750    0.0000 H   0  0  0  0  0  0  0  0  0  0  0  0
    5.4686   -8.6625    0.0000 C   0  0  0  0  0  0  0  0  0  0  0  0
    5.4686   -7.8375    0.0000 O   0  0  0  0  0  0  0  0  0  0  0  0
    4.0396   -5.3625    0.0000 C   0  0  0  0  0  0  0  0  0  0  0  0
    8.3966   -5.2049    0.0000 O   0  0  0  0  0  0  0  0  0  0  0  0
    8.8815   -4.5375    0.0000 C   0  0  0  0  0  0  0  0  0  0  0  0
    8.3966   -3.8701    0.0000 O   0  0  0  0  0  0  0  0  0  0  0  0
    6.1831   -7.4250    0.0000 C   0  0  0  0  0  0  0  0  0  0  0  0
    6.8975   -7.8375    0.0000 C   0  0  0  0  0  0  0  0  0  0  0  0
    7.6120   -7.4250    0.0000 C   0  0  0  0  0  0  0  0  0  0  0  0
    7.6120   -6.6000    0.0000 C   0  0  0  0  0  0  0  0  0  0  0  0
    5.4686   -6.1875    0.0000 C   0  0  0  0  0  0  0  0  0  0  0  0
    6.1831   -6.6000    0.0000 C   0  0  0  0  0  0  0  0  0  0  0  0
    6.8975   -6.1875    0.0000 C   0  0  0  0  0  0  0  0  0  0  0  0
    5.4686   -3.7125    0.0000 C   0  0  0  0  0  0  0  0  0  0  0  0
    4.7541   -4.1250    0.0000 C   0  0  0  0  0  0  0  0  0  0  0  0
    4.7541   -4.9500    0.0000 N   0  0  0  0  0  0  0  0  0  0  0  0
    5.4686   -5.3625    0.0000 C   0  0  1  0  0  0  0  0  0  0  0  0
    6.8975   -3.7125    0.0000 C   0  0  0  0  0  0  0  0  0  0  0  0
    6.1831   -4.1250    0.0000 C   0  0  0  0  0  0  0  0  0  0  0  0
    6.1831   -4.9500    0.0000 C   0  0  0  0  0  0  0  0  0  0  0  0
    6.8975   -5.3625    0.0000 C   0  0  0  0  0  0  0  0  0  0  0  0
    7.6120   -4.9500    0.0000 C   0  0  0  0  0  0  0  0  0  0  0  0
    7.6120   -4.1250    0.0000 C   0  0  0  0  0  0  0  0  0  0  0  0
 18  1  1  6  0  0  0
  3  2  1  0  0  0  0
  8  3  1  0  0  0  0
 17  4  1  0  0  0  0
  5 23  1  0  0  0  0
  6  5  1  0  0  0  0
  7  6  1  0  0  0  0
 24  7  1  0  0  0  0
  8 13  1  0  0  0  0
  9  8  2  0  0  0  0
 10  9  1  0  0  0  0
 11 10  2  0  0  0  0
 14 11  1  0  0  0  0
 12 18  1  0  0  0  0
 13 12  1  0  0  0  0
 14 13  2  0  0  0  0
 22 14  1  0  0  0  0
 15 20  1  0  0  0  0
 16 15  1  0  0  0  0
 17 16  1  0  0  0  0
 18 17  1  0  0  0  0
 21 18  1  0  0  0  0
 19 24  1  0  0  0  0
 20 19  2  0  0  0  0
 21 20  1  0  0  0  0
 22 21  2  0  0  0  0
 23 22  1  0  0  0  0
 24 23  2  0  0  0  0
M  END
>  <cdx:fragmentId>
5

$$$$
