926300.cdx
  Mrv1902 05222410212D          

 28 32  0  0  0  0            999 V2000
    4.9893   -8.5250    0.0000 C   0  0  0  0  0  0  0  0  0  0  0  0
    4.9893   -9.3500    0.0000 C   0  0  0  0  0  0  0  0  0  0  0  0
    5.7038   -9.7625    0.0000 C   0  0  0  0  0  0  0  0  0  0  0  0
    6.4182   -9.3500    0.0000 C   0  0  0  0  0  0  0  0  0  0  0  0
    6.4182   -8.5250    0.0000 C   0  0  0  0  0  0  0  0  0  0  0  0
    5.7038   -8.1125    0.0000 C   0  0  0  0  0  0  0  0  0  0  0  0
    4.2748   -8.1125    0.0000 O   0  0  0  0  0  0  0  0  0  0  0  0
    3.5604   -8.5250    0.0000 C   0  0  0  0  0  0  0  0  0  0  0  0
    4.2748   -9.7625    0.0000 O   0  0  0  0  0  0  0  0  0  0  0  0
    7.1327   -8.1125    0.0000 C   0  0  1  0  0  0  0  0  0  0  0  0
    7.8864   -8.4481    0.0000 O   0  0  0  0  0  0  0  0  0  0  0  0
    8.4384   -7.8350    0.0000 C   0  0  0  0  0  0  0  0  0  0  0  0
    8.0259   -7.1205    0.0000 C   0  0  1  0  0  0  0  0  0  0  0  0
    7.2190   -7.2920    0.0000 C   0  0  2  0  0  0  0  0  0  0  0  0
    8.1122   -6.3000    0.0000 C   0  0  2  0  0  0  0  0  0  0  0  0
    7.3585   -5.9645    0.0000 O   0  0  0  0  0  0  0  0  0  0  0  0
    6.8065   -6.5775    0.0000 C   0  0  0  0  0  0  0  0  0  0  0  0
    8.8266   -5.8875    0.0000 C   0  0  0  0  0  0  0  0  0  0  0  0
    9.5411   -6.3000    0.0000 C   0  0  0  0  0  0  0  0  0  0  0  0
   10.2556   -5.8875    0.0000 C   0  0  0  0  0  0  0  0  0  0  0  0
   10.2556   -5.0625    0.0000 C   0  0  0  0  0  0  0  0  0  0  0  0
    9.5411   -4.6500    0.0000 C   0  0  0  0  0  0  0  0  0  0  0  0
    8.8266   -5.0625    0.0000 C   0  0  0  0  0  0  0  0  0  0  0  0
   11.0402   -6.1425    0.0000 O   0  0  0  0  0  0  0  0  0  0  0  0
   11.5251   -5.4750    0.0000 C   0  0  0  0  0  0  0  0  0  0  0  0
   11.0402   -4.8076    0.0000 O   0  0  0  0  0  0  0  0  0  0  0  0
    6.4120   -7.4635    0.0000 H   0  0  0  0  0  0  0  0  0  0  0  0
    8.8329   -6.9490    0.0000 H   0  0  0  0  0  0  0  0  0  0  0  0
  1  2  2  0  0  0  0
  2  3  1  0  0  0  0
  3  4  2  0  0  0  0
  4  5  1  0  0  0  0
  5  6  2  0  0  0  0
  6  1  1  0  0  0  0
  1  7  1  0  0  0  0
  7  8  1  0  0  0  0
  2  9  1  0  0  0  0
 10  5  1  6  0  0  0
 10 11  1  0  0  0  0
 11 12  1  0  0  0  0
 12 13  1  0  0  0  0
 13 14  1  0  0  0  0
 14 10  1  0  0  0  0
 13 15  1  0  0  0  0
 15 16  1  0  0  0  0
 16 17  1  0  0  0  0
 17 14  1  0  0  0  0
 15 18  1  6  0  0  0
 18 19  2  0  0  0  0
 19 20  1  0  0  0  0
 20 21  2  0  0  0  0
 21 22  1  0  0  0  0
 22 23  2  0  0  0  0
 23 18  1  0  0  0  0
 20 24  1  0  0  0  0
 24 25  1  0  0  0  0
 25 26  1  0  0  0  0
 26 21  1  0  0  0  0
 14 27  1  6  0  0  0
 13 28  1  6  0  0  0
M  END
>  <cdx:fragmentId>
5

$$$$
