92639.cdx
  Mrv1902 05222410272D          

 18 19  0  0  0  0            999 V2000
    5.6112   -8.0527    0.0000 C   0  0  1  0  0  0  0  0  0  0  0  0
    6.3804   -7.6186    0.0000 C   0  0  1  0  0  0  0  0  0  0  0  0
    7.4109   -7.9702    0.0000 C   0  0  0  0  0  0  0  0  0  0  0  0
    7.8246   -7.2565    0.0000 C   0  0  0  0  0  0  0  0  0  0  0  0
    5.5711   -7.1052    0.0000 C   0  0  0  0  0  0  0  0  0  0  0  0
    6.7941   -6.9049    0.0000 C   0  0  1  0  0  0  0  0  0  0  0  0
    6.3819   -6.1912    0.0000 C   0  0  0  0  0  0  0  0  0  0  0  0
    5.1586   -7.8197    0.0000 C   0  0  0  0  0  0  0  0  0  0  0  0
    5.7985   -5.6078    0.0000 C   0  0  0  0  0  0  0  0  0  0  0  0
    6.5954   -5.3943    0.0000 C   0  0  0  0  0  0  0  0  0  0  0  0
    7.7002   -8.7428    0.0000 O   0  0  0  0  0  0  0  0  0  0  0  0
    6.1669   -8.4155    0.0000 C   0  0  0  0  0  0  0  0  0  0  0  0
    6.7503   -8.9988    0.0000 C   0  0  0  0  0  0  0  0  0  0  0  0
    6.5367   -9.7957    0.0000 C   0  0  0  0  0  0  0  0  0  0  0  0
    7.1201  -10.3791    0.0000 C   0  0  0  0  0  0  0  0  0  0  0  0
    5.7398  -10.0093    0.0000 O   0  0  0  0  0  0  0  0  0  0  0  0
    5.6270   -8.8775    0.0000 C   0  0  0  0  0  0  0  0  0  0  0  0
    7.2066   -6.1904    0.0000 H   0  0  0  0  0  0  0  0  0  0  0  0
  1  2  1  0  0  0  0
  2  3  1  0  0  0  0
  3  4  1  0  0  0  0
  5  6  1  0  0  0  0
  4  6  1  0  0  0  0
  6  7  1  0  0  0  0
  2  7  1  0  0  0  0
  5  8  1  0  0  0  0
  8  1  1  0  0  0  0
  7  9  1  0  0  0  0
  7 10  1  0  0  0  0
  3 11  2  0  0  0  0
  2 12  1  1  0  0  0
 12 13  1  0  0  0  0
 13 14  1  0  0  0  0
 14 15  1  0  0  0  0
 14 16  2  0  0  0  0
  1 17  1  6  0  0  0
  6 18  1  6  0  0  0
M  END
>  <cdx:groupId>
799

>  <cdx:fragmentId>
800

$$$$
