92637.cdx
  Mrv1902 05222410182D          

 28 30  0  0  0  0            999 V2000
    6.2110   -7.4106    0.0000 C   0  0  0  0  0  0  0  0  0  0  0  0
    5.9512   -8.1936    0.0000 O   0  0  0  0  0  0  0  0  0  0  0  0
    6.6156   -8.6827    0.0000 C   0  0  1  0  0  0  0  0  0  0  0  0
    7.2861   -8.2019    0.0000 C   0  0  2  0  0  0  0  0  0  0  0  0
    7.0360   -7.4157    0.0000 C   0  0  1  0  0  0  0  0  0  0  0  0
    7.6194   -6.8323    0.0000 C   0  0  0  0  0  0  0  0  0  0  0  0
    8.0830   -8.4154    0.0000 C   0  0  0  0  0  0  0  0  0  0  0  0
    6.6156   -9.5077    0.0000 C   0  0  0  0  0  0  0  0  0  0  0  0
    7.2069   -6.1179    0.0000 C   0  0  0  0  0  0  0  0  0  0  0  0
    8.6663   -7.8320    0.0000 O   0  0  0  0  0  0  0  0  0  0  0  0
    7.6194   -5.4034    0.0000 C   0  0  0  0  0  0  0  0  0  0  0  0
    7.2069   -4.6889    0.0000 C   0  0  0  0  0  0  0  0  0  0  0  0
    6.3819   -4.6889    0.0000 C   0  0  0  0  0  0  0  0  0  0  0  0
    5.9694   -5.4034    0.0000 C   0  0  0  0  0  0  0  0  0  0  0  0
    6.3819   -6.1179    0.0000 C   0  0  0  0  0  0  0  0  0  0  0  0
    5.9012   -9.9202    0.0000 C   0  0  0  0  0  0  0  0  0  0  0  0
    5.9012  -10.7452    0.0000 C   0  0  0  0  0  0  0  0  0  0  0  0
    6.6156  -11.1577    0.0000 C   0  0  0  0  0  0  0  0  0  0  0  0
    7.3301  -10.7452    0.0000 C   0  0  0  0  0  0  0  0  0  0  0  0
    7.3301   -9.9202    0.0000 C   0  0  0  0  0  0  0  0  0  0  0  0
    5.9694   -3.9744    0.0000 O   0  0  0  0  0  0  0  0  0  0  0  0
    6.6156  -11.9827    0.0000 O   0  0  0  0  0  0  0  0  0  0  0  0
    5.1867  -11.1577    0.0000 O   0  0  0  0  0  0  0  0  0  0  0  0
    4.4722  -10.7452    0.0000 C   0  0  0  0  0  0  0  0  0  0  0  0
    5.1444   -5.4034    0.0000 O   0  0  0  0  0  0  0  0  0  0  0  0
    4.7319   -4.6889    0.0000 C   0  0  0  0  0  0  0  0  0  0  0  0
    8.4373   -6.9400    0.0000 O   0  0  0  0  0  0  0  0  0  0  0  0
    8.9395   -6.2855    0.0000 C   0  0  0  0  0  0  0  0  0  0  0  0
  1  2  1  0  0  0  0
  2  3  1  0  0  0  0
  3  4  1  0  0  0  0
  4  5  1  0  0  0  0
  5  1  1  0  0  0  0
  5  6  1  6  0  0  0
  4  7  1  6  0  0  0
  3  8  1  1  0  0  0
  6  9  1  0  0  0  0
  7 10  1  0  0  0  0
  9 11  2  0  0  0  0
 11 12  1  0  0  0  0
 12 13  2  0  0  0  0
 13 14  1  0  0  0  0
 14 15  2  0  0  0  0
 15  9  1  0  0  0  0
  8 16  2  0  0  0  0
 16 17  1  0  0  0  0
 17 18  2  0  0  0  0
 18 19  1  0  0  0  0
 19 20  2  0  0  0  0
 20  8  1  0  0  0  0
 13 21  1  0  0  0  0
 18 22  1  0  0  0  0
 17 23  1  0  0  0  0
 23 24  1  0  0  0  0
 14 25  1  0  0  0  0
 25 26  1  0  0  0  0
  6 27  1  0  0  0  0
 27 28  1  0  0  0  0
M  END
>  <cdx:fragmentId>
5

$$$$
