92633.cdx
  Mrv1902 05222410202D          

 24 26  0  0  0  0            999 V2000
    5.8006   -9.5287    0.0000 C   0  0  2  0  0  0  0  0  0  0  0  0
    5.8006  -10.3537    0.0000 C   0  0  0  0  0  0  0  0  0  0  0  0
    6.5150  -10.7663    0.0000 O   0  0  0  0  0  0  0  0  0  0  0  0
    7.2295  -10.3537    0.0000 C   0  0  0  0  0  0  0  0  0  0  0  0
    7.2295   -9.5287    0.0000 C   0  0  0  0  0  0  0  0  0  0  0  0
    6.5150   -9.1162    0.0000 C   0  0  0  0  0  0  0  0  0  0  0  0
    7.9440  -10.7663    0.0000 C   0  0  0  0  0  0  0  0  0  0  0  0
    8.6584  -10.3537    0.0000 C   0  0  0  0  0  0  0  0  0  0  0  0
    8.6584   -9.5287    0.0000 C   0  0  0  0  0  0  0  0  0  0  0  0
    7.9440   -9.1162    0.0000 C   0  0  0  0  0  0  0  0  0  0  0  0
    9.3729   -9.1162    0.0000 C   0  0  0  0  0  0  0  0  0  0  0  0
    9.3729   -8.2912    0.0000 C   0  0  0  0  0  0  0  0  0  0  0  0
    8.6584   -7.8788    0.0000 C   0  0  0  0  0  0  0  0  0  0  0  0
    7.9440   -8.2912    0.0000 O   0  0  0  0  0  0  0  0  0  0  0  0
    5.8006   -7.8788    0.0000 O   0  0  0  0  0  0  0  0  0  0  0  0
    5.0861   -8.2912    0.0000 C   0  0  0  0  0  0  0  0  0  0  0  0
    5.0861   -9.1162    0.0000 O   0  0  0  0  0  0  0  0  0  0  0  0
    5.0861   -6.6412    0.0000 C   0  0  0  0  0  0  0  0  0  0  0  0
    4.3716   -7.0537    0.0000 C   0  0  0  0  0  0  0  0  0  0  0  0
    4.3716   -7.8788    0.0000 C   0  0  0  0  0  0  0  0  0  0  0  0
    3.6571   -8.2912    0.0000 C   0  0  0  0  0  0  0  0  0  0  0  0
    4.9756  -10.3537    0.0000 C   0  0  0  0  0  0  0  0  0  0  0  0
    5.5870  -11.1506    0.0000 C   0  0  0  0  0  0  0  0  0  0  0  0
    8.6584   -7.0537    0.0000 O   0  0  0  0  0  0  0  0  0  0  0  0
  1  2  1  0  0  0  0
  2  3  1  0  0  0  0
  3  4  1  0  0  0  0
  4  5  2  0  0  0  0
  5  6  1  0  0  0  0
  6  1  1  0  0  0  0
  4  7  1  0  0  0  0
  7  8  2  0  0  0  0
  8  9  1  0  0  0  0
  9 10  2  0  0  0  0
 10  5  1  0  0  0  0
  9 11  1  0  0  0  0
 11 12  2  0  0  0  0
 12 13  1  0  0  0  0
 13 14  1  0  0  0  0
 14 10  1  0  0  0  0
 15 16  2  0  0  0  0
 16 17  1  0  0  0  0
  1 17  1  1  0  0  0
 18 19  1  0  0  0  0
 19 20  2  0  0  0  0
 20 16  1  0  0  0  0
 20 21  1  0  0  0  0
  2 22  1  0  0  0  0
  2 23  1  0  0  0  0
 13 24  2  0  0  0  0
M  END
>  <cdx:fragmentId>
5

$$$$
