92636.cdx
  Mrv1902 05222410182D          

 26 30  0  0  0  0            999 V2000
    8.5488   -7.4174    0.0000 H   0  0  0  0  0  0  0  0  0  0  0  0
    4.2334   -9.8821    0.0000 C   0  0  0  0  0  0  0  0  0  0  0  0
    3.5579   -9.4086    0.0000 C   0  0  0  0  0  0  0  0  0  0  0  0
   10.7027   -5.2457    0.0000 O   0  0  0  0  0  0  0  0  0  0  0  0
    6.3926   -6.2208    0.0000 O   0  0  0  0  0  0  0  0  0  0  0  0
    7.1378   -5.7187    0.0000 C   0  0  0  0  0  0  0  0  0  0  0  0
    7.8452   -5.2941    0.0000 O   0  0  0  0  0  0  0  0  0  0  0  0
    8.5666   -5.6944    0.0000 C   0  0  0  0  0  0  0  0  0  0  0  0
    9.2739   -5.2699    0.0000 C   0  0  0  0  0  0  0  0  0  0  0  0
    9.9953   -5.6702    0.0000 C   0  0  0  0  0  0  0  0  0  0  0  0
   10.0093   -6.4951    0.0000 C   0  0  0  0  0  0  0  0  0  0  0  0
    9.3019   -6.9196    0.0000 C   0  0  0  0  0  0  0  0  0  0  0  0
    8.5806   -6.5193    0.0000 C   0  0  0  0  0  0  0  0  0  0  0  0
    7.8732   -6.9439    0.0000 C   0  0  1  0  0  0  0  0  0  0  0  0
    7.7154   -7.7536    0.0000 O   0  0  0  0  0  0  0  0  0  0  0  0
    6.8965   -7.8538    0.0000 C   0  0  0  0  0  0  0  0  0  0  0  0
    6.4229   -8.5294    0.0000 C   0  0  0  0  0  0  0  0  0  0  0  0
    5.6011   -8.4570    0.0000 C   0  0  0  0  0  0  0  0  0  0  0  0
    5.1276   -9.1326    0.0000 O   0  0  0  0  0  0  0  0  0  0  0  0
    4.3058   -9.0603    0.0000 C   0  0  0  0  0  0  0  0  0  0  0  0
    3.9575   -8.3124    0.0000 C   0  0  0  0  0  0  0  0  0  0  0  0
    4.4310   -7.6369    0.0000 C   0  0  0  0  0  0  0  0  0  0  0  0
    5.2528   -7.7092    0.0000 C   0  0  0  0  0  0  0  0  0  0  0  0
    5.7264   -7.0336    0.0000 C   0  0  0  0  0  0  0  0  0  0  0  0
    6.5482   -7.1059    0.0000 C   0  0  0  0  0  0  0  0  0  0  0  0
    7.1518   -6.5436    0.0000 C   0  0  2  0  0  0  0  0  0  0  0  0
 14  1  1  6  0  0  0
 20  2  1  0  0  0  0
 20  3  1  0  0  0  0
 10  4  1  0  0  0  0
 26  5  1  6  0  0  0
 23 18  1  0  0  0  0
 25 16  2  0  0  0  0
 13  8  2  0  0  0  0
 26 14  1  0  0  0  0
 26  6  1  0  0  0  0
  7  6  1  0  0  0  0
  8  7  1  0  0  0  0
  9  8  1  0  0  0  0
 10  9  2  0  0  0  0
 11 10  1  0  0  0  0
 12 11  2  0  0  0  0
 13 12  1  0  0  0  0
 14 13  1  0  0  0  0
 15 14  1  0  0  0  0
 16 15  1  0  0  0  0
 17 16  1  0  0  0  0
 18 17  2  0  0  0  0
 19 18  1  0  0  0  0
 20 19  1  0  0  0  0
 21 20  1  0  0  0  0
 22 21  2  0  0  0  0
 23 22  1  0  0  0  0
 24 23  2  0  0  0  0
 25 24  1  0  0  0  0
 26 25  1  0  0  0  0
M  END
>  <cdx:fragmentId>
5

$$$$
