92631.cdx
  Mrv1902 05222410192D          

 24 27  0  0  0  0            999 V2000
    4.7085   -8.5743    0.0000 C   0  0  0  0  0  0  0  0  0  0  0  0
    5.4247   -8.9837    0.0000 C   0  0  0  0  0  0  0  0  0  0  0  0
    6.1374   -8.5682    0.0000 C   0  0  0  0  0  0  0  0  0  0  0  0
    6.1339   -7.7432    0.0000 C   0  0  0  0  0  0  0  0  0  0  0  0
    5.4177   -7.3337    0.0000 C   0  0  0  0  0  0  0  0  0  0  0  0
    4.7050   -7.7493    0.0000 C   0  0  0  0  0  0  0  0  0  0  0  0
    6.8466   -7.3277    0.0000 C   0  0  0  0  0  0  0  0  0  0  0  0
    6.8431   -6.5027    0.0000 C   0  0  0  0  0  0  0  0  0  0  0  0
    6.1269   -6.0932    0.0000 C   0  0  0  0  0  0  0  0  0  0  0  0
    5.4142   -6.5088    0.0000 C   0  0  0  0  0  0  0  0  0  0  0  0
    6.8537   -8.9776    0.0000 C   0  0  0  0  0  0  0  0  0  0  0  0
    7.5664   -8.5621    0.0000 O   0  0  0  0  0  0  0  0  0  0  0  0
    7.5629   -7.7371    0.0000 C   0  0  0  0  0  0  0  0  0  0  0  0
    5.4282   -9.8087    0.0000 O   0  0  0  0  0  0  0  0  0  0  0  0
    6.8572   -9.8026    0.0000 O   0  0  0  0  0  0  0  0  0  0  0  0
    8.2756   -7.3216    0.0000 O   0  0  0  0  0  0  0  0  0  0  0  0
    7.5558   -6.0871    0.0000 O   0  0  0  0  0  0  0  0  0  0  0  0
    5.9519   -5.2870    0.0000 C   0  0  0  0  0  0  0  0  0  0  0  0
    5.1311   -5.2042    0.0000 C   0  0  1  0  0  0  0  0  0  0  0  0
    4.7988   -5.9593    0.0000 O   0  0  0  0  0  0  0  0  0  0  0  0
    4.7156   -4.4915    0.0000 C   0  0  0  0  0  0  0  0  0  0  0  0
    6.7479   -5.0701    0.0000 C   0  0  0  0  0  0  0  0  0  0  0  0
    6.1621   -4.4892    0.0000 C   0  0  0  0  0  0  0  0  0  0  0  0
    3.9888   -7.3398    0.0000 C   0  0  0  0  0  0  0  0  0  0  0  0
  1  2  1  0  0  0  0
  2  3  1  0  0  0  0
  3  4  1  0  0  0  0
  4  5  2  0  0  0  0
  5  6  1  0  0  0  0
  6  1  2  0  0  0  0
  4  7  1  0  0  0  0
  7  8  1  0  0  0  0
  8  9  1  0  0  0  0
  9 10  2  0  0  0  0
 10  5  1  0  0  0  0
  3 11  2  0  0  0  0
 11 12  1  0  0  0  0
 12 13  1  0  0  0  0
 13  7  2  0  0  0  0
  2 14  2  0  0  0  0
 11 15  1  0  0  0  0
 13 16  1  0  0  0  0
  8 17  2  0  0  0  0
  9 18  1  0  0  0  0
 18 19  1  0  0  0  0
 19 20  1  0  0  0  0
 20 10  1  0  0  0  0
 19 21  1  1  0  0  0
 18 22  1  0  0  0  0
 18 23  1  0  0  0  0
  6 24  1  0  0  0  0
M  END
>  <cdx:fragmentId>
5

$$$$
