92630.cdx
  Mrv1902 05222410192D          

 28 32  0  0  0  0            999 V2000
    4.1643   -8.5250    0.0000 C   0  0  0  0  0  0  0  0  0  0  0  0
    4.1643   -9.3500    0.0000 C   0  0  0  0  0  0  0  0  0  0  0  0
    4.8788   -9.7625    0.0000 C   0  0  0  0  0  0  0  0  0  0  0  0
    5.5932   -9.3500    0.0000 C   0  0  0  0  0  0  0  0  0  0  0  0
    5.5932   -8.5250    0.0000 C   0  0  0  0  0  0  0  0  0  0  0  0
    4.8788   -8.1125    0.0000 C   0  0  0  0  0  0  0  0  0  0  0  0
    3.4498   -8.1125    0.0000 O   0  0  0  0  0  0  0  0  0  0  0  0
    2.7354   -8.5250    0.0000 C   0  0  0  0  0  0  0  0  0  0  0  0
    3.4498   -9.7625    0.0000 O   0  0  0  0  0  0  0  0  0  0  0  0
    6.3077   -8.1125    0.0000 C   0  0  2  0  0  0  0  0  0  0  0  0
    7.0614   -8.4481    0.0000 O   0  0  0  0  0  0  0  0  0  0  0  0
    7.6134   -7.8350    0.0000 C   0  0  0  0  0  0  0  0  0  0  0  0
    7.2009   -7.1205    0.0000 C   0  0  2  0  0  0  0  0  0  0  0  0
    6.3940   -7.2920    0.0000 C   0  0  1  0  0  0  0  0  0  0  0  0
    7.2872   -6.3000    0.0000 C   0  0  1  0  0  0  0  0  0  0  0  0
    6.5335   -5.9645    0.0000 O   0  0  0  0  0  0  0  0  0  0  0  0
    5.9815   -6.5775    0.0000 C   0  0  0  0  0  0  0  0  0  0  0  0
    8.0016   -5.8875    0.0000 C   0  0  0  0  0  0  0  0  0  0  0  0
    8.7161   -6.3000    0.0000 C   0  0  0  0  0  0  0  0  0  0  0  0
    9.4306   -5.8875    0.0000 C   0  0  0  0  0  0  0  0  0  0  0  0
    9.4306   -5.0625    0.0000 C   0  0  0  0  0  0  0  0  0  0  0  0
    8.7161   -4.6500    0.0000 C   0  0  0  0  0  0  0  0  0  0  0  0
    8.0016   -5.0625    0.0000 C   0  0  0  0  0  0  0  0  0  0  0  0
   10.2152   -6.1425    0.0000 O   0  0  0  0  0  0  0  0  0  0  0  0
   10.7001   -5.4750    0.0000 C   0  0  0  0  0  0  0  0  0  0  0  0
   10.2152   -4.8076    0.0000 O   0  0  0  0  0  0  0  0  0  0  0  0
    5.5870   -7.4635    0.0000 H   0  0  0  0  0  0  0  0  0  0  0  0
    8.0079   -6.9490    0.0000 H   0  0  0  0  0  0  0  0  0  0  0  0
  1  2  2  0  0  0  0
  2  3  1  0  0  0  0
  3  4  2  0  0  0  0
  4  5  1  0  0  0  0
  5  6  2  0  0  0  0
  6  1  1  0  0  0  0
  1  7  1  0  0  0  0
  7  8  1  0  0  0  0
  2  9  1  0  0  0  0
 10  5  1  1  0  0  0
 10 11  1  0  0  0  0
 11 12  1  0  0  0  0
 12 13  1  0  0  0  0
 13 14  1  0  0  0  0
 14 10  1  0  0  0  0
 13 15  1  0  0  0  0
 15 16  1  0  0  0  0
 16 17  1  0  0  0  0
 17 14  1  0  0  0  0
 15 18  1  1  0  0  0
 18 19  2  0  0  0  0
 19 20  1  0  0  0  0
 20 21  2  0  0  0  0
 21 22  1  0  0  0  0
 22 23  2  0  0  0  0
 23 18  1  0  0  0  0
 20 24  1  0  0  0  0
 24 25  1  0  0  0  0
 25 26  1  0  0  0  0
 26 21  1  0  0  0  0
 14 27  1  1  0  0  0
 13 28  1  1  0  0  0
M  END
>  <cdx:fragmentId>
5

$$$$
