92647.cdx
  Mrv1902 05222410222D          

 40 45  0  0  0  0            999 V2000
    7.3794   -5.7062    0.0000 H   0  0  0  0  0  0  0  0  0  0  0  0
    9.0431   -7.5386    0.0000 H   0  0  0  0  0  0  0  0  0  0  0  0
   10.6766   -8.2332    0.0000 C   0  0  0  0  0  0  0  0  0  0  0  0
    9.9604   -7.8236    0.0000 C   0  0  0  0  0  0  0  0  0  0  0  0
    9.9570   -6.9986    0.0000 C   0  0  0  0  0  0  0  0  0  0  0  0
   10.6697   -6.5832    0.0000 C   0  0  0  0  0  0  0  0  0  0  0  0
   11.3893   -7.8177    0.0000 C   0  0  0  0  0  0  0  0  0  0  0  0
   11.3859   -6.9927    0.0000 C   0  0  0  0  0  0  0  0  0  0  0  0
   12.1695   -6.7345    0.0000 O   0  0  0  0  0  0  0  0  0  0  0  0
   12.6571   -7.4000    0.0000 C   0  0  0  0  0  0  0  0  0  0  0  0
   12.1750   -8.0694    0.0000 O   0  0  0  0  0  0  0  0  0  0  0  0
    8.0790   -7.6440    0.0000 C   0  0  0  0  0  0  0  0  0  0  0  0
    7.1817   -6.6557    0.0000 C   0  0  1  0  0  0  0  0  0  0  0  0
    7.2713   -7.4758    0.0000 O   0  0  0  0  0  0  0  0  0  0  0  0
    9.2408   -6.5891    0.0000 C   0  0  2  0  0  0  0  0  0  0  0  0
    8.4885   -6.9278    0.0000 C   0  0  2  0  0  0  0  0  0  0  0  0
    7.9339   -6.3170    0.0000 C   0  0  2  0  0  0  0  0  0  0  0  0
    8.3435   -5.6008    0.0000 C   0  0  0  0  0  0  0  0  0  0  0  0
    9.1512   -5.7690    0.0000 O   0  0  0  0  0  0  0  0  0  0  0  0
    6.4655   -6.2461    0.0000 O   0  0  0  0  0  0  0  0  0  0  0  0
    2.8949   -6.6734    0.0000 C   0  0  0  0  0  0  0  0  0  0  0  0
    3.6076   -6.2580    0.0000 O   0  0  0  0  0  0  0  0  0  0  0  0
    3.6145   -7.9080    0.0000 O   0  0  0  0  0  0  0  0  0  0  0  0
    5.0434   -7.9020    0.0000 C   0  0  0  0  0  0  0  0  0  0  0  0
    5.7562   -7.4866    0.0000 C   0  0  0  0  0  0  0  0  0  0  0  0
    5.7527   -6.6616    0.0000 C   0  0  0  0  0  0  0  0  0  0  0  0
    5.0366   -6.2521    0.0000 C   0  0  0  0  0  0  0  0  0  0  0  0
    4.3238   -6.6675    0.0000 C   0  0  0  0  0  0  0  0  0  0  0  0
    4.3272   -7.4925    0.0000 C   0  0  0  0  0  0  0  0  0  0  0  0
    3.6179   -8.7330    0.0000 C   0  0  2  0  0  0  0  0  0  0  0  0
    2.9026   -9.1440    0.0000 O   0  0  0  0  0  0  0  0  0  0  0  0
    2.9026   -9.9690    0.0000 C   0  0  1  0  0  0  0  0  0  0  0  0
    3.6179  -10.3830    0.0000 C   0  0  2  0  0  0  0  0  0  0  0  0
    4.3332   -9.9690    0.0000 C   0  0  1  0  0  0  0  0  0  0  0  0
    4.3332   -9.1440    0.0000 C   0  0  1  0  0  0  0  0  0  0  0  0
    2.1879  -10.3811    0.0000 C   0  0  0  0  0  0  0  0  0  0  0  0
    5.0479  -10.3811    0.0000 O   0  0  0  0  0  0  0  0  0  0  0  0
    5.0473   -8.7308    0.0000 O   0  0  0  0  0  0  0  0  0  0  0  0
    3.6179  -11.2080    0.0000 O   0  0  0  0  0  0  0  0  0  0  0  0
    2.1875  -11.2061    0.0000 O   0  0  0  0  0  0  0  0  0  0  0  0
 17  1  1  6  0  0  0
 16  2  1  6  0  0  0
 26 20  1  0  0  0  0
 13 20  1  6  0  0  0
 15  5  1  6  0  0  0
  6  8  2  0  0  0  0
  3  7  2  0  0  0  0
  4  3  1  0  0  0  0
  5  4  2  0  0  0  0
  6  5  1  0  0  0  0
 11  7  1  0  0  0  0
  8  7  1  0  0  0  0
  9  8  1  0  0  0  0
 10  9  1  0  0  0  0
 11 10  1  0  0  0  0
 12 16  1  0  0  0  0
 13 17  1  0  0  0  0
 14 12  1  0  0  0  0
 14 13  1  0  0  0  0
 19 15  1  0  0  0  0
 16 15  1  0  0  0  0
 17 16  1  0  0  0  0
 18 17  1  0  0  0  0
 19 18  1  0  0  0  0
 28 22  1  0  0  0  0
 22 21  1  0  0  0  0
 29 23  1  0  0  0  0
 29 24  2  0  0  0  0
 25 24  1  0  0  0  0
 26 25  2  0  0  0  0
 27 26  1  0  0  0  0
 28 27  2  0  0  0  0
 29 28  1  0  0  0  0
 30 23  1  1  0  0  0
 30 31  1  0  0  0  0
 31 32  1  0  0  0  0
 32 33  1  0  0  0  0
 33 34  1  0  0  0  0
 34 35  1  0  0  0  0
 35 30  1  0  0  0  0
 32 36  1  1  0  0  0
 34 37  1  1  0  0  0
 35 38  1  6  0  0  0
 33 39  1  6  0  0  0
 36 40  1  0  0  0  0
M  END
>  <cdx:groupId>
2598

>  <cdx:fragmentId>
2546

$$$$
