92649.cdx
  Mrv1902 05222410232D          

 20 22  0  0  0  0            999 V2000
    4.0543   -7.3150    0.0000 C   0  0  0  0  0  0  0  0  0  0  0  0
    4.0543   -8.1400    0.0000 C   0  0  0  0  0  0  0  0  0  0  0  0
    4.7688   -8.5525    0.0000 O   0  0  0  0  0  0  0  0  0  0  0  0
    5.4832   -8.1400    0.0000 C   0  0  0  0  0  0  0  0  0  0  0  0
    5.4832   -7.3150    0.0000 C   0  0  0  0  0  0  0  0  0  0  0  0
    4.7688   -6.9025    0.0000 C   0  0  0  0  0  0  0  0  0  0  0  0
    6.1977   -8.5525    0.0000 C   0  0  0  0  0  0  0  0  0  0  0  0
    6.9122   -8.1400    0.0000 C   0  0  0  0  0  0  0  0  0  0  0  0
    6.9122   -7.3150    0.0000 C   0  0  0  0  0  0  0  0  0  0  0  0
    6.1977   -6.9025    0.0000 C   0  0  0  0  0  0  0  0  0  0  0  0
    7.6968   -8.3949    0.0000 O   0  0  0  0  0  0  0  0  0  0  0  0
    8.1817   -7.7275    0.0000 C   0  0  0  0  0  0  0  0  0  0  0  0
    7.6968   -7.0601    0.0000 C   0  0  0  0  0  0  0  0  0  0  0  0
    4.7688   -6.0775    0.0000 O   0  0  0  0  0  0  0  0  0  0  0  0
    3.3398   -8.5525    0.0000 C   0  0  0  0  0  0  0  0  0  0  0  0
    6.1977   -6.0775    0.0000 O   0  0  0  0  0  0  0  0  0  0  0  0
    9.0067   -7.7275    0.0000 C   0  0  0  0  0  0  0  0  0  0  0  0
    9.8317   -7.7275    0.0000 O   0  0  0  0  0  0  0  0  0  0  0  0
    9.0067   -6.9025    0.0000 C   0  0  0  0  0  0  0  0  0  0  0  0
    9.0067   -8.5525    0.0000 C   0  0  0  0  0  0  0  0  0  0  0  0
  1  2  2  0  0  0  0
  2  3  1  0  0  0  0
  3  4  1  0  0  0  0
  4  5  1  0  0  0  0
  5  6  1  0  0  0  0
  6  1  1  0  0  0  0
  4  7  2  0  0  0  0
  7  8  1  0  0  0  0
  8  9  2  0  0  0  0
  9 10  1  0  0  0  0
 10  5  2  0  0  0  0
  8 11  1  0  0  0  0
 11 12  1  0  0  0  0
 12 13  1  0  0  0  0
 13  9  1  0  0  0  0
  6 14  2  0  0  0  0
  2 15  1  0  0  0  0
 10 16  1  0  0  0  0
 12 17  1  0  0  0  0
 17 18  1  0  0  0  0
 17 19  1  0  0  0  0
 17 20  1  0  0  0  0
M  END
>  <cdx:fragmentId>
5

$$$$
