92641.cdx
  Mrv1902 05222410212D          

 39 46  0  0  0  0            999 V2000
    2.3081   -6.7512    0.0000 C   0  0  0  0  0  0  0  0  0  0  0  0
    2.3081   -7.5762    0.0000 C   0  0  0  0  0  0  0  0  0  0  0  0
    3.0225   -7.9888    0.0000 C   0  0  0  0  0  0  0  0  0  0  0  0
    3.7370   -7.5762    0.0000 C   0  0  0  0  0  0  0  0  0  0  0  0
    3.7370   -6.7512    0.0000 C   0  0  0  0  0  0  0  0  0  0  0  0
    3.0225   -6.3388    0.0000 C   0  0  0  0  0  0  0  0  0  0  0  0
    1.5234   -6.4963    0.0000 O   0  0  0  0  0  0  0  0  0  0  0  0
    1.0385   -7.1638    0.0000 C   0  0  0  0  0  0  0  0  0  0  0  0
    1.5234   -7.8312    0.0000 O   0  0  0  0  0  0  0  0  0  0  0  0
    4.4515   -6.3388    0.0000 C   0  0  2  0  0  0  0  0  0  0  0  0
    5.2051   -6.6743    0.0000 C   0  0  2  0  0  0  0  0  0  0  0  0
    5.7572   -6.0612    0.0000 C   0  0  2  0  0  0  0  0  0  0  0  0
    5.3447   -5.3467    0.0000 C   0  0  0  0  0  0  0  0  0  0  0  0
    4.5377   -5.5183    0.0000 O   0  0  0  0  0  0  0  0  0  0  0  0
    5.6176   -7.3888    0.0000 C   0  0  0  0  0  0  0  0  0  0  0  0
    6.4246   -7.2173    0.0000 O   0  0  0  0  0  0  0  0  0  0  0  0
    6.5108   -6.3968    0.0000 C   0  0  2  0  0  0  0  0  0  0  0  0
    7.2253   -5.9843    0.0000 O   0  0  0  0  0  0  0  0  0  0  0  0
    7.9398   -6.3968    0.0000 C   0  0  1  0  0  0  0  0  0  0  0  0
    8.0260   -7.2173    0.0000 O   0  0  0  0  0  0  0  0  0  0  0  0
    8.8330   -7.3888    0.0000 C   0  0  0  0  0  0  0  0  0  0  0  0
    9.2455   -6.6743    0.0000 C   0  0  1  0  0  0  0  0  0  0  0  0
    8.6935   -6.0612    0.0000 C   0  0  2  0  0  0  0  0  0  0  0  0
    9.9992   -6.3387    0.0000 C   0  0  2  0  0  0  0  0  0  0  0  0
    9.9129   -5.5183    0.0000 O   0  0  0  0  0  0  0  0  0  0  0  0
    9.1060   -5.3467    0.0000 C   0  0  0  0  0  0  0  0  0  0  0  0
   10.7136   -6.7512    0.0000 C   0  0  0  0  0  0  0  0  0  0  0  0
   10.7136   -7.5762    0.0000 C   0  0  0  0  0  0  0  0  0  0  0  0
   11.4281   -7.9887    0.0000 C   0  0  0  0  0  0  0  0  0  0  0  0
   12.1426   -7.5762    0.0000 C   0  0  0  0  0  0  0  0  0  0  0  0
   12.1426   -6.7512    0.0000 C   0  0  0  0  0  0  0  0  0  0  0  0
   11.4281   -6.3387    0.0000 C   0  0  0  0  0  0  0  0  0  0  0  0
   12.9272   -7.8312    0.0000 O   0  0  0  0  0  0  0  0  0  0  0  0
   13.4121   -7.1637    0.0000 C   0  0  0  0  0  0  0  0  0  0  0  0
   12.9272   -6.4963    0.0000 O   0  0  0  0  0  0  0  0  0  0  0  0
    4.6531   -7.2874    0.0000 H   0  0  0  0  0  0  0  0  0  0  0  0
    6.3092   -5.4481    0.0000 H   0  0  0  0  0  0  0  0  0  0  0  0
    8.1414   -5.4481    0.0000 H   0  0  0  0  0  0  0  0  0  0  0  0
    9.7975   -7.2874    0.0000 H   0  0  0  0  0  0  0  0  0  0  0  0
  1  2  2  0  0  0  0
  2  3  1  0  0  0  0
  3  4  2  0  0  0  0
  4  5  1  0  0  0  0
  5  6  2  0  0  0  0
  6  1  1  0  0  0  0
  1  7  1  0  0  0  0
  7  8  1  0  0  0  0
  8  9  1  0  0  0  0
  9  2  1  0  0  0  0
 10  5  1  1  0  0  0
 10 11  1  0  0  0  0
 11 12  1  0  0  0  0
 12 13  1  0  0  0  0
 13 14  1  0  0  0  0
 14 10  1  0  0  0  0
 11 15  1  0  0  0  0
 15 16  1  0  0  0  0
 16 17  1  0  0  0  0
 17 12  1  0  0  0  0
 17 18  1  1  0  0  0
 19 18  1  6  0  0  0
 19 20  1  0  0  0  0
 20 21  1  0  0  0  0
 21 22  1  0  0  0  0
 22 23  1  0  0  0  0
 23 19  1  0  0  0  0
 22 24  1  0  0  0  0
 24 25  1  0  0  0  0
 25 26  1  0  0  0  0
 26 23  1  0  0  0  0
 24 27  1  6  0  0  0
 27 28  2  0  0  0  0
 28 29  1  0  0  0  0
 29 30  2  0  0  0  0
 30 31  1  0  0  0  0
 31 32  2  0  0  0  0
 32 27  1  0  0  0  0
 30 33  1  0  0  0  0
 33 34  1  0  0  0  0
 34 35  1  0  0  0  0
 35 31  1  0  0  0  0
 11 36  1  1  0  0  0
 12 37  1  1  0  0  0
 23 38  1  6  0  0  0
 22 39  1  6  0  0  0
M  END
>  <cdx:fragmentId>
5

$$$$
