92644.cdx
  Mrv1902 05222410232D          

 40 44  0  0  0  0            999 V2000
    5.2413  -10.1561    0.0000 O   0  0  0  0  0  0  0  0  0  0  0  0
    4.5333  -10.5794    0.0000 C   0  0  2  0  0  0  0  0  0  0  0  0
    3.8126  -10.1779    0.0000 O   0  0  0  0  0  0  0  0  0  0  0  0
    3.1045  -10.6013    0.0000 C   0  0  1  0  0  0  0  0  0  0  0  0
    3.1171  -11.4262    0.0000 C   0  0  2  0  0  0  0  0  0  0  0  0
    3.8378  -11.8277    0.0000 C   0  0  1  0  0  0  0  0  0  0  0  0
    4.5459  -11.4043    0.0000 C   0  0  1  0  0  0  0  0  0  0  0  0
    3.8504  -12.6526    0.0000 O   0  0  0  0  0  0  0  0  0  0  0  0
    2.3838  -10.1998    0.0000 C   0  0  0  0  0  0  0  0  0  0  0  0
    2.4090  -11.8496    0.0000 O   0  0  0  0  0  0  0  0  0  0  0  0
    5.2666  -11.8059    0.0000 O   0  0  0  0  0  0  0  0  0  0  0  0
    1.6757  -10.6231    0.0000 O   0  0  0  0  0  0  0  0  0  0  0  0
    3.6006   -8.3031    0.0000 C   0  0  0  0  0  0  0  0  0  0  0  0
    4.1475   -8.9207    0.0000 O   0  0  0  0  0  0  0  0  0  0  0  0
    8.3664   -1.9568    0.0000 C   0  0  0  0  0  0  0  0  0  0  0  0
    8.9133   -2.5745    0.0000 O   0  0  0  0  0  0  0  0  0  0  0  0
   10.5540   -4.4275    0.0000 C   0  0  0  0  0  0  0  0  0  0  0  0
   10.0071   -3.8098    0.0000 O   0  0  0  0  0  0  0  0  0  0  0  0
    5.2173   -7.9734    0.0000 C   0  0  0  0  0  0  0  0  0  0  0  0
    4.9559   -8.7559    0.0000 C   0  0  0  0  0  0  0  0  0  0  0  0
    5.5028   -9.3736    0.0000 C   0  0  0  0  0  0  0  0  0  0  0  0
    6.3112   -9.2088    0.0000 C   0  0  0  0  0  0  0  0  0  0  0  0
    6.5726   -8.4263    0.0000 C   0  0  0  0  0  0  0  0  0  0  0  0
    8.9373   -4.7571    0.0000 C   0  0  0  0  0  0  0  0  0  0  0  0
    9.1987   -3.9746    0.0000 C   0  0  0  0  0  0  0  0  0  0  0  0
    8.6518   -3.3570    0.0000 C   0  0  0  0  0  0  0  0  0  0  0  0
    7.8435   -3.5218    0.0000 C   0  0  0  0  0  0  0  0  0  0  0  0
    7.5820   -4.3042    0.0000 C   0  0  0  0  0  0  0  0  0  0  0  0
    6.0257   -7.8086    0.0000 C   0  0  0  0  0  0  0  0  0  0  0  0
    7.0670   -7.6027    0.0000 H   0  0  0  0  0  0  0  0  0  0  0  0
    7.0876   -5.1278    0.0000 H   0  0  0  0  0  0  0  0  0  0  0  0
    8.1289   -4.9219    0.0000 C   0  0  0  0  0  0  0  0  0  0  0  0
    6.2983   -5.6913    0.0000 C   0  0  0  0  0  0  0  0  0  0  0  0
    5.8078   -6.3547    0.0000 O   0  0  0  0  0  0  0  0  0  0  0  0
    6.2872   -7.0262    0.0000 C   0  0  1  0  0  0  0  0  0  0  0  0
    8.3468   -6.3758    0.0000 O   0  0  0  0  0  0  0  0  0  0  0  0
    7.8675   -5.7044    0.0000 C   0  0  1  0  0  0  0  0  0  0  0  0
    7.0807   -5.9528    0.0000 C   0  0  2  0  0  0  0  0  0  0  0  0
    7.0739   -6.7778    0.0000 C   0  0  2  0  0  0  0  0  0  0  0  0
    7.8564   -7.0392    0.0000 C   0  0  0  0  0  0  0  0  0  0  0  0
  2  1  1  1  0  0  0
  2  3  1  0  0  0  0
  3  4  1  0  0  0  0
  4  5  1  0  0  0  0
  5  6  1  0  0  0  0
  6  7  1  0  0  0  0
  7  2  1  0  0  0  0
  6  8  1  1  0  0  0
  4  9  1  1  0  0  0
  5 10  1  6  0  0  0
  7 11  1  6  0  0  0
 21  1  1  0  0  0  0
  9 12  1  0  0  0  0
 14 13  1  0  0  0  0
 20 14  1  0  0  0  0
 16 15  1  0  0  0  0
 26 16  1  0  0  0  0
 18 17  1  0  0  0  0
 25 18  1  0  0  0  0
 19 29  1  0  0  0  0
 20 19  2  0  0  0  0
 21 20  1  0  0  0  0
 22 21  2  0  0  0  0
 23 22  1  0  0  0  0
 29 23  2  0  0  0  0
 24 32  1  0  0  0  0
 25 24  2  0  0  0  0
 26 25  1  0  0  0  0
 27 26  2  0  0  0  0
 28 27  1  0  0  0  0
 32 28  2  0  0  0  0
 35 29  1  1  0  0  0
 39 30  1  1  0  0  0
 38 31  1  1  0  0  0
 37 32  1  1  0  0  0
 33 38  1  0  0  0  0
 34 33  1  0  0  0  0
 35 34  1  0  0  0  0
 39 35  1  0  0  0  0
 36 40  1  0  0  0  0
 37 36  1  0  0  0  0
 38 37  1  0  0  0  0
 39 38  1  0  0  0  0
 40 39  1  0  0  0  0
M  END
>  <cdx:fragmentId>
5

$$$$
