92645.cdx
  Mrv1902 05222410222D          

 10  9  0  0  0  0            999 V2000
    7.9431   -5.6791    0.0000 O   0  0  0  0  0  0  0  0  0  0  0  0
    7.2248   -6.9144    0.0000 C   0  0  1  0  0  0  0  0  0  0  0  0
    7.2222   -7.7394    0.0000 C   0  0  0  0  0  0  0  0  0  0  0  0
    6.5065   -8.1497    0.0000 S   0  0  0  0  0  0  0  0  0  0  0  0
    6.5039   -8.9747    0.0000 C   0  0  0  0  0  0  0  0  0  0  0  0
    5.7882   -9.3850    0.0000 C   0  0  0  0  0  0  0  0  0  0  0  0
    5.7856  -10.2100    0.0000 C   0  0  0  0  0  0  0  0  0  0  0  0
    7.9405   -6.5041    0.0000 C   0  0  0  0  0  0  0  0  0  0  0  0
    8.6537   -6.9188    0.0000 O   0  0  0  0  0  0  0  0  0  0  0  0
    6.5116   -6.4997    0.0000 N   0  0  0  0  0  0  0  0  0  0  0  0
  8  1  2  0  0  0  0
  9  8  1  0  0  0  0
  8  2  1  0  0  0  0
  2  3  1  0  0  0  0
  3  4  1  0  0  0  0
  4  5  1  0  0  0  0
  5  6  2  0  0  0  0
  6  7  1  0  0  0  0
  2 10  1  6  0  0  0
M  END
>  <cdx:fragmentId>
44

$$$$
