92653.cdx
  Mrv1902 05222410222D          

 12 13  0  0  0  0            999 V2000
    7.9247   -7.5242    0.0000 C   0  0  0  0  0  0  0  0  0  0  0  0
    7.2115   -6.9019    0.0000 C   0  0  1  0  0  0  0  0  0  0  0  0
    5.9660   -7.8001    0.0000 C   0  0  0  0  0  0  0  0  0  0  0  0
    5.4809   -7.3790    0.0000 C   0  0  0  0  0  0  0  0  0  0  0  0
    5.8514   -6.9043    0.0000 C   0  0  0  0  0  0  0  0  0  0  0  0
    6.8171   -7.4035    0.0000 C   0  0  1  0  0  0  0  0  0  0  0  0
    6.7544   -6.1276    0.0000 C   0  0  0  0  0  0  0  0  0  0  0  0
    5.8515   -8.6171    0.0000 C   0  0  0  0  0  0  0  0  0  0  0  0
    8.6392   -7.1117    0.0000 C   0  0  0  0  0  0  0  0  0  0  0  0
    8.0947   -8.3315    0.0000 C   0  0  0  0  0  0  0  0  0  0  0  0
    6.9517   -8.2175    0.0000 H   0  0  0  0  0  0  0  0  0  0  0  0
    7.8460   -6.3746    0.0000 H   0  0  0  0  0  0  0  0  0  0  0  0
  6  1  1  0  0  0  0
  1  2  1  0  0  0  0
  2  7  1  0  0  0  0
  6  3  1  0  0  0  0
  3  4  1  0  0  0  0
  4  5  1  0  0  0  0
  2  5  1  0  0  0  0
  6  7  1  0  0  0  0
  3  8  2  0  0  0  0
  1  9  1  0  0  0  0
  1 10  1  0  0  0  0
  6 11  1  6  0  0  0
  2 12  1  6  0  0  0
M  END
>  <cdx:groupId>
813

>  <cdx:fragmentId>
814

$$$$
