92657.cdx
  Mrv1902 05222410212D          

 28 28  0  0  0  0            999 V2000
    4.6181   -9.6662    0.0000 C   0  0  2  0  0  0  0  0  0  0  0  0
    4.6181  -10.4912    0.0000 C   0  0  2  0  0  0  0  0  0  0  0  0
    5.3325  -10.9038    0.0000 C   0  0  1  0  0  0  0  0  0  0  0  0
    6.0470  -10.4912    0.0000 C   0  0  2  0  0  0  0  0  0  0  0  0
    6.0470   -9.6662    0.0000 C   0  0  1  0  0  0  0  0  0  0  0  0
    5.3325   -9.2538    0.0000 O   0  0  0  0  0  0  0  0  0  0  0  0
    3.9036   -8.4288    0.0000 O   0  0  0  0  0  0  0  0  0  0  0  0
    3.9036   -9.2538    0.0000 C   0  0  0  0  0  0  0  0  0  0  0  0
    6.7615   -9.2538    0.0000 O   0  0  0  0  0  0  0  0  0  0  0  0
    6.7615   -8.4288    0.0000 C   0  0  0  0  0  0  0  0  0  0  0  0
    6.0470   -8.0162    0.0000 C   0  0  0  0  0  0  0  0  0  0  0  0
    7.4759   -8.0162    0.0000 C   0  0  0  0  0  0  0  0  0  0  0  0
    7.4759   -7.1913    0.0000 C   0  0  0  0  0  0  0  0  0  0  0  0
    6.0470   -7.1913    0.0000 C   0  0  0  0  0  0  0  0  0  0  0  0
    8.1904   -8.4288    0.0000 C   0  0  0  0  0  0  0  0  0  0  0  0
    8.1904   -6.7788    0.0000 C   0  0  0  0  0  0  0  0  0  0  0  0
    8.1904   -5.9538    0.0000 C   0  0  0  0  0  0  0  0  0  0  0  0
    8.9049   -5.5413    0.0000 C   0  0  0  0  0  0  0  0  0  0  0  0
    8.9049   -4.7162    0.0000 C   0  0  0  0  0  0  0  0  0  0  0  0
    8.1904   -4.3037    0.0000 C   0  0  0  0  0  0  0  0  0  0  0  0
   10.3338   -4.7162    0.0000 O   0  0  0  0  0  0  0  0  0  0  0  0
    9.6194   -4.3037    0.0000 C   0  0  0  0  0  0  0  0  0  0  0  0
    9.6194   -3.4788    0.0000 O   0  0  0  0  0  0  0  0  0  0  0  0
    5.3325   -6.7788    0.0000 O   0  0  0  0  0  0  0  0  0  0  0  0
    6.7615   -6.7788    0.0000 O   0  0  0  0  0  0  0  0  0  0  0  0
    5.3325  -11.7287    0.0000 O   0  0  0  0  0  0  0  0  0  0  0  0
    3.9036  -10.9038    0.0000 O   0  0  0  0  0  0  0  0  0  0  0  0
    6.7615  -10.9038    0.0000 O   0  0  0  0  0  0  0  0  0  0  0  0
  1  2  1  0  0  0  0
  2  3  1  0  0  0  0
  3  4  1  0  0  0  0
  4  5  1  0  0  0  0
  5  6  1  0  0  0  0
  6  1  1  0  0  0  0
  7  8  1  0  0  0  0
  1  8  1  1  0  0  0
  5  9  1  1  0  0  0
  9 10  1  0  0  0  0
 10 11  1  0  0  0  0
 10 12  1  0  0  0  0
 12 13  1  0  0  0  0
 14 11  1  0  0  0  0
 12 15  1  0  0  0  0
 16 13  1  0  0  0  0
 16 17  2  0  0  0  0
 17 18  1  0  0  0  0
 18 19  2  0  0  0  0
 19 20  1  0  0  0  0
 21 22  2  0  0  0  0
 22 19  1  0  0  0  0
 22 23  1  0  0  0  0
 14 24  1  0  0  0  0
 14 25  2  0  0  0  0
  3 26  1  1  0  0  0
  2 27  1  6  0  0  0
  4 28  1  6  0  0  0
M  END
>  <cdx:fragmentId>
5

$$$$
