92650.cdx
  Mrv1902 05222410232D          

 26 30  0  0  0  0            999 V2000
    3.7931   -6.4900    0.0000 C   0  0  0  0  0  0  0  0  0  0  0  0
    3.7931   -7.3150    0.0000 C   0  0  0  0  0  0  0  0  0  0  0  0
    4.5075   -7.7275    0.0000 C   0  0  0  0  0  0  0  0  0  0  0  0
    5.2220   -7.3150    0.0000 C   0  0  0  0  0  0  0  0  0  0  0  0
    5.2220   -6.4900    0.0000 C   0  0  0  0  0  0  0  0  0  0  0  0
    4.5075   -6.0775    0.0000 C   0  0  0  0  0  0  0  0  0  0  0  0
    3.0786   -6.0775    0.0000 O   0  0  0  0  0  0  0  0  0  0  0  0
    4.5075   -5.2525    0.0000 O   0  0  0  0  0  0  0  0  0  0  0  0
    3.7931   -4.8400    0.0000 C   0  0  0  0  0  0  0  0  0  0  0  0
    5.9365   -7.7275    0.0000 C   0  0  0  0  0  0  0  0  0  0  0  0
    6.0227   -8.5480    0.0000 O   0  0  0  0  0  0  0  0  0  0  0  0
    6.8297   -8.7195    0.0000 C   0  0  0  0  0  0  0  0  0  0  0  0
    7.2422   -8.0050    0.0000 C   0  0  0  0  0  0  0  0  0  0  0  0
    6.6901   -7.3919    0.0000 C   0  0  0  0  0  0  0  0  0  0  0  0
    7.9958   -7.6695    0.0000 C   0  0  0  0  0  0  0  0  0  0  0  0
    7.9096   -6.8490    0.0000 O   0  0  0  0  0  0  0  0  0  0  0  0
    7.1026   -6.6775    0.0000 C   0  0  0  0  0  0  0  0  0  0  0  0
    8.7103   -8.0820    0.0000 C   0  0  0  0  0  0  0  0  0  0  0  0
    8.7103   -8.9070    0.0000 C   0  0  0  0  0  0  0  0  0  0  0  0
    9.4248   -9.3195    0.0000 C   0  0  0  0  0  0  0  0  0  0  0  0
   10.1393   -8.9070    0.0000 C   0  0  0  0  0  0  0  0  0  0  0  0
   10.1393   -8.0820    0.0000 C   0  0  0  0  0  0  0  0  0  0  0  0
    9.4248   -7.6695    0.0000 C   0  0  0  0  0  0  0  0  0  0  0  0
   10.9239   -9.1619    0.0000 O   0  0  0  0  0  0  0  0  0  0  0  0
   11.4088   -8.4945    0.0000 C   0  0  0  0  0  0  0  0  0  0  0  0
   10.9239   -7.8270    0.0000 O   0  0  0  0  0  0  0  0  0  0  0  0
  1  2  2  0  0  0  0
  2  3  1  0  0  0  0
  3  4  2  0  0  0  0
  4  5  1  0  0  0  0
  5  6  2  0  0  0  0
  6  1  1  0  0  0  0
  1  7  1  0  0  0  0
  6  8  1  0  0  0  0
  8  9  1  0  0  0  0
  4 10  1  0  0  0  0
 10 11  1  0  0  0  0
 11 12  1  0  0  0  0
 12 13  1  0  0  0  0
 13 14  1  0  0  0  0
 14 10  1  0  0  0  0
 13 15  1  0  0  0  0
 15 16  1  0  0  0  0
 16 17  1  0  0  0  0
 17 14  1  0  0  0  0
 15 18  1  0  0  0  0
 18 19  2  0  0  0  0
 19 20  1  0  0  0  0
 20 21  2  0  0  0  0
 21 22  1  0  0  0  0
 22 23  2  0  0  0  0
 23 18  1  0  0  0  0
 21 24  1  0  0  0  0
 24 25  1  0  0  0  0
 25 26  1  0  0  0  0
 26 22  1  0  0  0  0
M  END
>  <cdx:fragmentId>
5

$$$$
