92656.cdx
  Mrv1902 05222410222D          

 22 23  0  0  0  0            999 V2000
    5.7667   -7.8116    0.0000 C   0  0  0  0  0  0  0  0  0  0  0  0
    6.4812   -8.2241    0.0000 C   0  0  0  0  0  0  0  0  0  0  0  0
    7.1956   -7.8116    0.0000 C   0  0  0  0  0  0  0  0  0  0  0  0
    7.9101   -8.2241    0.0000 C   0  0  0  0  0  0  0  0  0  0  0  0
    8.6246   -7.8116    0.0000 C   0  0  0  0  0  0  0  0  0  0  0  0
    5.7667   -6.9866    0.0000 O   0  0  0  0  0  0  0  0  0  0  0  0
    9.3391   -8.2241    0.0000 C   0  0  0  0  0  0  0  0  0  0  0  0
   10.0535   -7.8116    0.0000 C   0  0  0  0  0  0  0  0  0  0  0  0
   10.7680   -8.2241    0.0000 C   0  0  0  0  0  0  0  0  0  0  0  0
   10.7680   -9.0491    0.0000 C   0  0  0  0  0  0  0  0  0  0  0  0
   10.0535   -9.4616    0.0000 C   0  0  0  0  0  0  0  0  0  0  0  0
    9.3391   -9.0491    0.0000 C   0  0  0  0  0  0  0  0  0  0  0  0
   11.4825   -9.4616    0.0000 O   0  0  0  0  0  0  0  0  0  0  0  0
   11.4825   -7.8116    0.0000 O   0  0  0  0  0  0  0  0  0  0  0  0
    5.0522   -8.2241    0.0000 C   0  0  0  0  0  0  0  0  0  0  0  0
    4.3378   -7.8116    0.0000 C   0  0  0  0  0  0  0  0  0  0  0  0
    3.6233   -8.2241    0.0000 C   0  0  0  0  0  0  0  0  0  0  0  0
    3.6233   -9.0491    0.0000 C   0  0  0  0  0  0  0  0  0  0  0  0
    4.3378   -9.4616    0.0000 C   0  0  0  0  0  0  0  0  0  0  0  0
    5.0522   -9.0491    0.0000 C   0  0  0  0  0  0  0  0  0  0  0  0
    2.9088   -9.4616    0.0000 O   0  0  0  0  0  0  0  0  0  0  0  0
    2.9088   -7.8116    0.0000 O   0  0  0  0  0  0  0  0  0  0  0  0
  1  2  1  0  0  0  0
  2  3  2  0  0  0  0
  3  4  1  0  0  0  0
  4  5  2  0  0  0  0
  1  6  2  0  0  0  0
  7  8  1  0  0  0  0
  8  9  2  0  0  0  0
  9 10  1  0  0  0  0
 10 11  2  0  0  0  0
 11 12  1  0  0  0  0
  7 12  2  0  0  0  0
 10 13  1  0  0  0  0
  9 14  1  0  0  0  0
  5  7  1  0  0  0  0
 15 16  1  0  0  0  0
 16 17  2  0  0  0  0
 17 18  1  0  0  0  0
 18 19  2  0  0  0  0
 19 20  1  0  0  0  0
 15 20  2  0  0  0  0
 18 21  1  0  0  0  0
 17 22  1  0  0  0  0
  1 15  1  0  0  0  0
M  END
>  <cdx:fragmentId>
17

$$$$
