92659.cdx
  Mrv1902 05222410262D          

 12 12  0  0  0  0            999 V2000
    6.3842   -4.0988    0.0000 C   0  0  0  0  0  0  0  0  0  0  0  0
    6.3842   -4.9238    0.0000 C   0  0  0  0  0  0  0  0  0  0  0  0
    5.6697   -5.3363    0.0000 C   0  0  0  0  0  0  0  0  0  0  0  0
    4.9552   -4.9238    0.0000 C   0  0  0  0  0  0  0  0  0  0  0  0
    4.9552   -4.0988    0.0000 C   0  0  0  0  0  0  0  0  0  0  0  0
    5.6697   -3.6863    0.0000 C   0  0  0  0  0  0  0  0  0  0  0  0
    7.0987   -3.6863    0.0000 C   0  0  0  0  0  0  0  0  0  0  0  0
    7.8131   -4.0988    0.0000 C   0  0  0  0  0  0  0  0  0  0  0  0
    7.8131   -4.9238    0.0000 C   0  0  0  0  0  0  0  0  0  0  0  0
    8.5276   -3.6863    0.0000 N   0  3  0  0  0  0  0  0  0  0  0  0
    8.5276   -2.8613    0.0000 O   0  0  0  0  0  0  0  0  0  0  0  0
    9.2421   -4.0988    0.0000 O   0  5  0  0  0  0  0  0  0  0  0  0
  1  2  1  0  0  0  0
  2  3  1  0  0  0  0
  3  4  1  0  0  0  0
  4  5  1  0  0  0  0
  5  6  1  0  0  0  0
  1  6  1  0  0  0  0
  7  8  1  0  0  0  0
  8  9  2  0  0  0  0
 10 11  2  0  0  0  0
 10 12  1  0  0  0  0
  8 10  1  0  0  0  0
  1  7  1  0  0  0  0
M  CHG  2  10   1  12  -1
M  END
>  <cdx:fragmentId>
3298

$$$$
