92658.cdx
  Mrv1902 05222410252D          

 22 21  0  0  0  0            999 V2000
    4.2198   -7.3425    0.0000 O   0  0  0  0  0  0  0  0  0  0  0  0
    2.0764   -9.4050    0.0000 C   0  0  0  0  0  0  0  0  0  0  0  0
    1.3619   -8.1675    0.0000 C   0  0  0  0  0  0  0  0  0  0  0  0
    2.0764   -8.5800    0.0000 C   0  0  0  0  0  0  0  0  0  0  0  0
    2.7909   -8.1675    0.0000 C   0  0  0  0  0  0  0  0  0  0  0  0
    3.5053   -8.5800    0.0000 N   0  0  0  0  0  0  0  0  0  0  0  0
    4.2198   -8.1675    0.0000 C   0  0  0  0  0  0  0  0  0  0  0  0
    4.9343   -8.5800    0.0000 C   0  0  0  0  0  0  0  0  0  0  0  0
    5.6487   -8.1675    0.0000 C   0  0  0  0  0  0  0  0  0  0  0  0
    6.3632   -8.5800    0.0000 C   0  0  0  0  0  0  0  0  0  0  0  0
    7.0777   -8.1675    0.0000 C   0  0  0  0  0  0  0  0  0  0  0  0
    7.7922   -8.5800    0.0000 C   0  0  0  0  0  0  0  0  0  0  0  0
    8.5066   -8.1675    0.0000 C   0  0  0  0  0  0  0  0  0  0  0  0
    9.2211   -8.5800    0.0000 C   0  0  0  0  0  0  0  0  0  0  0  0
    9.9356   -8.1675    0.0000 C   0  0  0  0  0  0  0  0  0  0  0  0
   10.6500   -8.5800    0.0000 C   0  0  0  0  0  0  0  0  0  0  0  0
   11.3645   -8.1675    0.0000 C   0  0  0  0  0  0  0  0  0  0  0  0
   12.7776   -4.8607    0.0000 C   0  0  0  0  0  0  0  0  0  0  0  0
   12.7815   -5.6857    0.0000 C   0  0  0  0  0  0  0  0  0  0  0  0
   12.0691   -6.1016    0.0000 C   0  0  0  0  0  0  0  0  0  0  0  0
   12.0730   -6.9266    0.0000 C   0  0  0  0  0  0  0  0  0  0  0  0
   11.3605   -7.3425    0.0000 C   0  0  0  0  0  0  0  0  0  0  0  0
  7  1  2  0  0  0  0
  4  2  1  0  0  0  0
  4  3  1  0  0  0  0
  5  4  1  0  0  0  0
  6  5  1  0  0  0  0
  7  6  1  0  0  0  0
  8  7  1  0  0  0  0
  9  8  2  0  0  0  0
 10  9  1  0  0  0  0
 11 10  2  0  0  0  0
 12 11  1  0  0  0  0
 13 12  1  0  0  0  0
 14 13  1  0  0  0  0
 15 14  1  0  0  0  0
 16 15  1  0  0  0  0
 17 16  2  0  0  0  0
 22 17  1  0  0  0  0
 18 19  1  0  0  0  0
 19 20  1  0  0  0  0
 20 21  1  0  0  0  0
 21 22  1  0  0  0  0
M  END
>  <cdx:fragmentId>
3

$$$$
