92660.cdx
  Mrv1902 05222410242D          

 33 36  0  0  0  0            999 V2000
    4.0131   -9.5964    0.0000 C   0  0  0  0  0  0  0  0  0  0  0  0
    4.0131  -10.4214    0.0000 C   0  0  0  0  0  0  0  0  0  0  0  0
    4.7275  -10.8339    0.0000 C   0  0  0  0  0  0  0  0  0  0  0  0
    5.4420  -10.4214    0.0000 C   0  0  0  0  0  0  0  0  0  0  0  0
    5.4420   -9.5964    0.0000 C   0  0  0  0  0  0  0  0  0  0  0  0
    4.7275   -9.1839    0.0000 C   0  0  0  0  0  0  0  0  0  0  0  0
    6.1565  -10.8339    0.0000 C   0  0  0  0  0  0  0  0  0  0  0  0
    6.8709  -10.4214    0.0000 C   0  0  1  0  0  0  0  0  0  0  0  0
    6.8709   -9.5964    0.0000 C   0  0  2  0  0  0  0  0  0  0  0  0
    6.1565   -9.1839    0.0000 O   0  0  0  0  0  0  0  0  0  0  0  0
    8.2999   -9.5964    0.0000 C   0  0  0  0  0  0  0  0  0  0  0  0
    7.5854   -9.1839    0.0000 C   0  0  0  0  0  0  0  0  0  0  0  0
    9.0144   -9.1839    0.0000 C   0  0  0  0  0  0  0  0  0  0  0  0
    9.0144   -8.3589    0.0000 C   0  0  0  0  0  0  0  0  0  0  0  0
    8.2999   -7.9464    0.0000 C   0  0  0  0  0  0  0  0  0  0  0  0
    7.5854   -8.3589    0.0000 C   0  0  0  0  0  0  0  0  0  0  0  0
    6.1565  -11.6589    0.0000 O   0  0  0  0  0  0  0  0  0  0  0  0
    7.5854  -10.8339    0.0000 O   0  0  0  0  0  0  0  0  0  0  0  0
    9.7288   -7.9464    0.0000 O   0  0  0  0  0  0  0  0  0  0  0  0
    4.7275  -11.6589    0.0000 O   0  0  0  0  0  0  0  0  0  0  0  0
    3.2986   -9.1839    0.0000 O   0  0  0  0  0  0  0  0  0  0  0  0
    7.5854  -11.6589    0.0000 C   0  0  2  0  0  0  0  0  0  0  0  0
    6.8709  -12.0714    0.0000 O   0  0  0  0  0  0  0  0  0  0  0  0
    6.8709  -12.8964    0.0000 C   0  0  1  0  0  0  0  0  0  0  0  0
    7.5854  -13.3089    0.0000 C   0  0  2  0  0  0  0  0  0  0  0  0
    8.2999  -12.8964    0.0000 C   0  0  1  0  0  0  0  0  0  0  0  0
    8.2999  -12.0714    0.0000 C   0  0  1  0  0  0  0  0  0  0  0  0
    9.0144  -11.6589    0.0000 O   0  0  0  0  0  0  0  0  0  0  0  0
    9.0144  -13.3089    0.0000 O   0  0  0  0  0  0  0  0  0  0  0  0
    6.1565  -13.3089    0.0000 C   0  0  0  0  0  0  0  0  0  0  0  0
    7.5854  -14.1339    0.0000 O   0  0  0  0  0  0  0  0  0  0  0  0
    9.7288   -9.5964    0.0000 O   0  0  0  0  0  0  0  0  0  0  0  0
    6.1565  -14.1339    0.0000 O   0  0  0  0  0  0  0  0  0  0  0  0
  1  2  1  0  0  0  0
  2  3  2  0  0  0  0
  3  4  1  0  0  0  0
  4  5  2  0  0  0  0
  5  6  1  0  0  0  0
  6  1  2  0  0  0  0
  4  7  1  0  0  0  0
  7  8  1  0  0  0  0
  8  9  1  0  0  0  0
  9 10  1  0  0  0  0
 10  5  1  0  0  0  0
 11 12  2  0  0  0  0
  9 12  1  6  0  0  0
 11 13  1  0  0  0  0
 13 14  2  0  0  0  0
 14 15  1  0  0  0  0
 15 16  2  0  0  0  0
 16 12  1  0  0  0  0
  7 17  2  0  0  0  0
  8 18  1  1  0  0  0
 14 19  1  0  0  0  0
  3 20  1  0  0  0  0
  1 21  1  0  0  0  0
 22 18  1  1  0  0  0
 22 23  1  0  0  0  0
 23 24  1  0  0  0  0
 24 25  1  0  0  0  0
 25 26  1  0  0  0  0
 26 27  1  0  0  0  0
 27 22  1  0  0  0  0
 27 28  1  6  0  0  0
 26 29  1  1  0  0  0
 24 30  1  1  0  0  0
 25 31  1  6  0  0  0
 13 32  1  0  0  0  0
 30 33  1  0  0  0  0
M  END
>  <cdx:fragmentId>
5

$$$$
