92664.cdx
  Mrv1902 05222410252D          

 21 22  0  0  0  0            999 V2000
    5.7731  -11.0137    0.0000 C   0  0  0  0  0  0  0  0  0  0  0  0
    5.7731  -11.8387    0.0000 C   0  0  0  0  0  0  0  0  0  0  0  0
    6.4875  -12.2512    0.0000 C   0  0  0  0  0  0  0  0  0  0  0  0
    7.2020  -11.8387    0.0000 C   0  0  0  0  0  0  0  0  0  0  0  0
    7.2020  -11.0137    0.0000 C   0  0  0  0  0  0  0  0  0  0  0  0
    6.4875  -10.6013    0.0000 C   0  0  0  0  0  0  0  0  0  0  0  0
    6.4875   -9.7763    0.0000 C   0  0  0  0  0  0  0  0  0  0  0  0
    7.2020   -9.3637    0.0000 C   0  0  0  0  0  0  0  0  0  0  0  0
    7.2020   -8.5388    0.0000 C   0  0  1  0  0  0  0  0  0  0  0  0
    7.9165   -8.1263    0.0000 C   0  0  0  0  0  0  0  0  0  0  0  0
    7.9165   -7.3012    0.0000 C   0  0  2  0  0  0  0  0  0  0  0  0
    8.6309   -6.8888    0.0000 C   0  0  0  0  0  0  0  0  0  0  0  0
    8.6309   -6.0638    0.0000 C   0  0  0  0  0  0  0  0  0  0  0  0
    9.3454   -5.6512    0.0000 C   0  0  0  0  0  0  0  0  0  0  0  0
   10.0599   -6.0638    0.0000 C   0  0  0  0  0  0  0  0  0  0  0  0
   10.7744   -5.6512    0.0000 C   0  0  0  0  0  0  0  0  0  0  0  0
   10.7744   -4.8263    0.0000 C   0  0  0  0  0  0  0  0  0  0  0  0
   10.0599   -4.4138    0.0000 C   0  0  0  0  0  0  0  0  0  0  0  0
    9.3454   -4.8263    0.0000 C   0  0  0  0  0  0  0  0  0  0  0  0
    6.4875   -8.1263    0.0000 O   0  0  0  0  0  0  0  0  0  0  0  0
    7.2020   -6.8888    0.0000 O   0  0  0  0  0  0  0  0  0  0  0  0
  1  2  2  0  0  0  0
  2  3  1  0  0  0  0
  3  4  2  0  0  0  0
  4  5  1  0  0  0  0
  5  6  2  0  0  0  0
  6  1  1  0  0  0  0
  6  7  1  0  0  0  0
  7  8  2  0  0  0  0
  8  9  1  0  0  0  0
  9 10  1  0  0  0  0
 10 11  1  0  0  0  0
 11 12  1  0  0  0  0
 12 13  1  0  0  0  0
 13 14  1  0  0  0  0
 14 15  2  0  0  0  0
 15 16  1  0  0  0  0
 16 17  2  0  0  0  0
 17 18  1  0  0  0  0
 18 19  2  0  0  0  0
 19 14  1  0  0  0  0
  9 20  1  6  0  0  0
 11 21  1  1  0  0  0
M  END
>  <cdx:fragmentId>
5

$$$$
