92665.cdx
  Mrv1902 05222410262D          

 17 17  0  0  0  0            999 V2000
    3.8618   -5.7612    0.0000 C   0  0  2  0  0  0  0  0  0  0  0  0
    3.8618   -6.5863    0.0000 C   0  0  0  0  0  0  0  0  0  0  0  0
    4.5763   -6.9988    0.0000 C   0  0  1  0  0  0  0  0  0  0  0  0
    5.2907   -6.5863    0.0000 C   0  0  2  0  0  0  0  0  0  0  0  0
    5.2907   -5.7612    0.0000 C   0  0  0  0  0  0  0  0  0  0  0  0
    4.5763   -5.3487    0.0000 C   0  0  0  0  0  0  0  0  0  0  0  0
    3.1473   -5.3487    0.0000 O   0  0  0  0  0  0  0  0  0  0  0  0
    4.1638   -7.7132    0.0000 C   0  0  0  0  0  0  0  0  0  0  0  0
    5.7032   -5.0468    0.0000 C   0  0  0  0  0  0  0  0  0  0  0  0
    6.0876   -5.9748    0.0000 C   0  0  0  0  0  0  0  0  0  0  0  0
    6.0052   -6.9988    0.0000 C   0  0  0  0  0  0  0  0  0  0  0  0
    6.7197   -6.5863    0.0000 C   0  0  0  0  0  0  0  0  0  0  0  0
    7.4342   -6.9988    0.0000 C   0  0  2  0  0  0  0  0  0  0  0  0
    8.1486   -6.5863    0.0000 C   0  0  0  0  0  0  0  0  0  0  0  0
    5.5043   -7.3831    0.0000 O   0  0  0  0  0  0  0  0  0  0  0  0
    7.4342   -7.8237    0.0000 O   0  0  0  0  0  0  0  0  0  0  0  0
    4.9888   -7.7132    0.0000 O   0  0  0  0  0  0  0  0  0  0  0  0
  1  2  1  0  0  0  0
  2  3  1  0  0  0  0
  3  4  1  0  0  0  0
  4  5  1  0  0  0  0
  5  6  1  0  0  0  0
  6  1  1  0  0  0  0
  1  7  1  1  0  0  0
  3  8  1  1  0  0  0
  5  9  1  0  0  0  0
  5 10  1  0  0  0  0
  4 11  1  0  0  0  0
 11 12  2  0  0  0  0
 12 13  1  0  0  0  0
 13 14  1  0  0  0  0
  4 15  1  1  0  0  0
 13 16  1  6  0  0  0
  3 17  1  6  0  0  0
M  END
>  <cdx:fragmentId>
5

$$$$
