92661.cdx
  Mrv1902 05222410232D          

 30 33  0  0  0  0            999 V2000
    3.9649   -6.5313    0.0000 C   0  0  0  0  0  0  0  0  0  0  0  0
    3.9649   -7.3563    0.0000 C   0  0  0  0  0  0  0  0  0  0  0  0
    4.6794   -7.7687    0.0000 C   0  0  0  0  0  0  0  0  0  0  0  0
    5.3939   -7.3563    0.0000 C   0  0  0  0  0  0  0  0  0  0  0  0
    5.3939   -6.5313    0.0000 C   0  0  0  0  0  0  0  0  0  0  0  0
    4.6794   -6.1188    0.0000 C   0  0  0  0  0  0  0  0  0  0  0  0
    6.1083   -7.7687    0.0000 C   0  0  0  0  0  0  0  0  0  0  0  0
    6.8228   -7.3563    0.0000 C   0  0  2  0  0  0  0  0  0  0  0  0
    6.8228   -6.5313    0.0000 C   0  0  2  0  0  0  0  0  0  0  0  0
    6.1083   -6.1188    0.0000 O   0  0  0  0  0  0  0  0  0  0  0  0
    6.8228   -9.0062    0.0000 O   0  0  0  0  0  0  0  0  0  0  0  0
    8.2518   -6.5313    0.0000 C   0  0  0  0  0  0  0  0  0  0  0  0
    7.5373   -6.1188    0.0000 C   0  0  0  0  0  0  0  0  0  0  0  0
    8.9662   -6.1188    0.0000 C   0  0  0  0  0  0  0  0  0  0  0  0
    8.9662   -5.2938    0.0000 C   0  0  0  0  0  0  0  0  0  0  0  0
    8.2518   -4.8812    0.0000 C   0  0  0  0  0  0  0  0  0  0  0  0
    7.5373   -5.2938    0.0000 C   0  0  0  0  0  0  0  0  0  0  0  0
    8.9662  -11.0688    0.0000 C   0  0  0  0  0  0  0  0  0  0  0  0
    9.6807  -11.4813    0.0000 C   0  0  0  0  0  0  0  0  0  0  0  0
   10.3952  -11.0688    0.0000 C   0  0  0  0  0  0  0  0  0  0  0  0
   10.3952  -10.2437    0.0000 C   0  0  0  0  0  0  0  0  0  0  0  0
    8.9662  -10.2437    0.0000 C   0  0  0  0  0  0  0  0  0  0  0  0
    9.6807   -9.8312    0.0000 C   0  0  0  0  0  0  0  0  0  0  0  0
    8.2518   -9.8312    0.0000 C   0  0  0  0  0  0  0  0  0  0  0  0
    8.2518   -9.0062    0.0000 C   0  0  0  0  0  0  0  0  0  0  0  0
    3.2505   -6.1188    0.0000 O   0  0  0  0  0  0  0  0  0  0  0  0
    4.6794   -8.5938    0.0000 O   0  0  0  0  0  0  0  0  0  0  0  0
    6.1083   -8.5938    0.0000 O   0  0  0  0  0  0  0  0  0  0  0  0
    7.5373   -8.5937    0.0000 C   0  0  0  0  0  0  0  0  0  0  0  0
    7.5373   -7.7687    0.0000 O   0  0  0  0  0  0  0  0  0  0  0  0
  1  2  2  0  0  0  0
  2  3  1  0  0  0  0
  3  4  2  0  0  0  0
  4  5  1  0  0  0  0
  5  6  2  0  0  0  0
  6  1  1  0  0  0  0
  4  7  1  0  0  0  0
  7  8  1  0  0  0  0
  8  9  1  0  0  0  0
  9 10  1  0  0  0  0
 10  5  1  0  0  0  0
 29 11  2  0  0  0  0
  8 30  1  6  0  0  0
 18 22  2  0  0  0  0
 12 13  2  0  0  0  0
  9 13  1  6  0  0  0
 12 14  1  0  0  0  0
 14 15  2  0  0  0  0
 15 16  1  0  0  0  0
 16 17  2  0  0  0  0
 17 13  1  0  0  0  0
 19 18  1  0  0  0  0
 20 19  2  0  0  0  0
 21 20  1  0  0  0  0
 23 21  2  0  0  0  0
 22 24  1  0  0  0  0
 23 22  1  0  0  0  0
 25 24  2  0  0  0  0
 29 25  1  0  0  0  0
 30 29  1  0  0  0  0
  1 26  1  0  0  0  0
  3 27  1  0  0  0  0
  7 28  2  0  0  0  0
M  END
>  <cdx:fragmentId>
5

$$$$
