92669.cdx
  Mrv1902 05222410212D          

 15 17  0  0  0  0            999 V2000
    5.4843   -7.7000    0.0000 C   0  0  0  0  0  0  0  0  0  0  0  0
    5.4843   -8.5250    0.0000 C   0  0  0  0  0  0  0  0  0  0  0  0
    6.1988   -8.9375    0.0000 C   0  0  0  0  0  0  0  0  0  0  0  0
    6.9132   -8.5250    0.0000 C   0  0  0  0  0  0  0  0  0  0  0  0
    6.9132   -7.7000    0.0000 C   0  0  0  0  0  0  0  0  0  0  0  0
    6.1988   -7.2875    0.0000 C   0  0  2  0  0  0  0  0  0  0  0  0
    7.5263   -7.1480    0.0000 C   0  0  0  0  0  0  0  0  0  0  0  0
    7.1908   -6.3943    0.0000 C   0  0  0  0  0  0  0  0  0  0  0  0
    6.3703   -6.4805    0.0000 C   0  0  0  0  0  0  0  0  0  0  0  0
    7.6277   -8.9375    0.0000 C   0  0  0  0  0  0  0  0  0  0  0  0
    6.9826   -6.5624    0.0000 C   0  0  0  0  0  0  0  0  0  0  0  0
    7.1534   -7.2166    0.0000 C   0  0  0  0  0  0  0  0  0  0  0  0
    6.3992   -5.9791    0.0000 C   0  0  0  0  0  0  0  0  0  0  0  0
    7.1961   -5.7655    0.0000 C   0  0  0  0  0  0  0  0  0  0  0  0
    5.5313   -6.8026    0.0000 C   0  0  0  0  0  0  0  0  0  0  0  0
  1  2  1  0  0  0  0
  2  3  1  0  0  0  0
  3  4  2  0  0  0  0
  4  5  1  0  0  0  0
  5  6  1  0  0  0  0
  6  1  1  0  0  0  0
  5  7  1  0  0  0  0
  7  8  1  0  0  0  0
  8  9  1  0  0  0  0
  9  6  1  0  0  0  0
  4 10  1  0  0  0  0
  9 11  1  0  0  0  0
 11 12  1  0  0  0  0
 12  5  1  0  0  0  0
 11 13  1  0  0  0  0
 11 14  1  0  0  0  0
  6 15  1  6  0  0  0
M  END
>  <cdx:fragmentId>
5

$$$$
