92667.cdx
  Mrv1902 05222410242D          

 22 25  0  0  0  0            999 V2000
    7.1623   -7.1448    0.0000 N   0  0  0  0  0  0  0  0  0  0  0  0
    5.2451   -7.1194    0.0000 O   0  0  0  0  0  0  0  0  0  0  0  0
    3.4978   -7.7650    0.0000 C   0  0  0  0  0  0  0  0  0  0  0  0
    2.7877   -8.1850    0.0000 C   0  0  0  0  0  0  0  0  0  0  0  0
    2.7964   -9.0100    0.0000 C   0  0  0  0  0  0  0  0  0  0  0  0
    3.5152   -9.4149    0.0000 C   0  0  0  0  0  0  0  0  0  0  0  0
    4.9985   -7.9067    0.0000 C   0  0  0  0  0  0  0  0  0  0  0  0
    4.2166   -8.1699    0.0000 C   0  0  0  0  0  0  0  0  0  0  0  0
    4.2253   -8.9949    0.0000 C   0  0  0  0  0  0  0  0  0  0  0  0
    5.0126   -9.2415    0.0000 N   0  0  0  0  0  0  0  0  0  0  0  0
    5.4904   -8.5690    0.0000 C   0  0  0  0  0  0  0  0  0  0  0  0
    6.7203   -7.8415    0.0000 C   0  0  0  0  0  0  0  0  0  0  0  0
    6.3154   -8.5602    0.0000 C   0  0  0  0  0  0  0  0  0  0  0  0
    6.7354   -9.2703    0.0000 C   0  0  0  0  0  0  0  0  0  0  0  0
    6.4078  -10.0275    0.0000 C   0  0  0  0  0  0  0  0  0  0  0  0
    7.0267  -10.5730    0.0000 N   0  0  0  0  0  0  0  0  0  0  0  0
    8.1640   -8.7894    0.0000 C   0  0  0  0  0  0  0  0  0  0  0  0
    7.5567   -9.3479    0.0000 C   0  0  0  0  0  0  0  0  0  0  0  0
    7.7368  -10.1530    0.0000 C   0  0  0  0  0  0  0  0  0  0  0  0
    8.5241  -10.3996    0.0000 C   0  0  0  0  0  0  0  0  0  0  0  0
    9.1313   -9.8411    0.0000 C   0  0  0  0  0  0  0  0  0  0  0  0
    8.9512   -9.0360    0.0000 C   0  0  0  0  0  0  0  0  0  0  0  0
 12  1  3  0  0  0  0
  7  2  2  0  0  0  0
  3  8  1  0  0  0  0
  4  3  2  0  0  0  0
  5  4  1  0  0  0  0
  6  5  2  0  0  0  0
  9  6  1  0  0  0  0
  7 11  1  0  0  0  0
  8  7  1  0  0  0  0
  9  8  2  0  0  0  0
 10  9  1  0  0  0  0
 11 10  1  0  0  0  0
 13 11  2  0  0  0  0
 13 12  1  0  0  0  0
 14 13  1  0  0  0  0
 14 18  1  0  0  0  0
 15 14  2  0  0  0  0
 16 15  1  0  0  0  0
 19 16  1  0  0  0  0
 17 22  2  0  0  0  0
 18 17  1  0  0  0  0
 19 18  2  0  0  0  0
 20 19  1  0  0  0  0
 21 20  2  0  0  0  0
 22 21  1  0  0  0  0
M  END
>  <cdx:fragmentId>
5

$$$$
