92663.cdx
  Mrv1902 05222410242D          

 16 17  0  0  0  0            999 V2000
    4.9481   -8.2775    0.0000 C   0  0  0  0  0  0  0  0  0  0  0  0
    4.9481   -9.1025    0.0000 C   0  0  2  0  0  0  0  0  0  0  0  0
    5.6625   -9.5150    0.0000 C   0  0  0  0  0  0  0  0  0  0  0  0
    6.3770   -9.1025    0.0000 C   0  0  2  0  0  0  0  0  0  0  0  0
    6.3770   -8.2775    0.0000 C   0  0  2  0  0  0  0  0  0  0  0  0
    5.6625   -7.8650    0.0000 C   0  0  2  0  0  0  0  0  0  0  0  0
    7.0915   -8.6900    0.0000 O   0  0  0  0  0  0  0  0  0  0  0  0
    7.0915   -9.5150    0.0000 C   0  0  0  0  0  0  0  0  0  0  0  0
    7.0915   -7.8650    0.0000 C   0  0  0  0  0  0  0  0  0  0  0  0
    4.2336   -9.5150    0.0000 O   0  0  0  0  0  0  0  0  0  0  0  0
    5.2500   -7.1505    0.0000 C   0  0  0  0  0  0  0  0  0  0  0  0
    6.0750   -7.1505    0.0000 C   0  0  0  0  0  0  0  0  0  0  0  0
    7.8059   -8.2775    0.0000 C   0  0  0  0  0  0  0  0  0  0  0  0
    8.5204   -7.8650    0.0000 C   0  0  2  0  0  0  0  0  0  0  0  0
    9.2349   -8.2775    0.0000 C   0  0  0  0  0  0  0  0  0  0  0  0
    8.5204   -7.0400    0.0000 O   0  0  0  0  0  0  0  0  0  0  0  0
  1  2  1  0  0  0  0
  2  3  1  0  0  0  0
  3  4  1  0  0  0  0
  4  5  1  0  0  0  0
  5  6  1  0  0  0  0
  6  1  1  0  0  0  0
  4  7  1  6  0  0  0
  5  7  1  6  0  0  0
  4  8  1  0  0  0  0
  5  9  1  0  0  0  0
  2 10  1  6  0  0  0
  6 11  1  1  0  0  0
  6 12  1  6  0  0  0
  9 13  2  0  0  0  0
 13 14  1  0  0  0  0
 14 15  1  0  0  0  0
 14 16  1  1  0  0  0
M  END
>  <cdx:fragmentId>
5

$$$$
