92675.cdx
  Mrv1902 05222410232D          

 19 21  0  0  0  0            999 V2000
    5.9962   -7.6814    0.0000 C   0  0  0  0  0  0  0  0  0  0  0  0
    6.7929   -7.4673    0.0000 C   0  0  0  0  0  0  0  0  0  0  0  0
    7.8921   -7.7502    0.0000 C   0  0  0  0  0  0  0  0  0  0  0  0
    8.3058   -7.0365    0.0000 C   0  0  0  0  0  0  0  0  0  0  0  0
    5.7498   -7.0365    0.0000 C   0  0  0  0  0  0  0  0  0  0  0  0
    7.2066   -6.7536    0.0000 C   0  0  0  0  0  0  0  0  0  0  0  0
    6.5194   -5.8887    0.0000 C   0  0  0  0  0  0  0  0  0  0  0  0
    5.7225   -5.6751    0.0000 C   0  0  0  0  0  0  0  0  0  0  0  0
    6.9719   -5.1989    0.0000 C   0  0  0  0  0  0  0  0  0  0  0  0
    6.7973   -8.2923    0.0000 C   0  0  0  0  0  0  0  0  0  0  0  0
    5.6213   -8.4164    0.0000 O   0  0  0  0  0  0  0  0  0  0  0  0
    4.7963   -8.4164    0.0000 C   0  0  0  0  0  0  0  0  0  0  0  0
    4.3838   -9.1308    0.0000 C   0  0  0  0  0  0  0  0  0  0  0  0
    4.3838   -7.7019    0.0000 O   0  0  0  0  0  0  0  0  0  0  0  0
    3.5633   -9.2171    0.0000 C   0  0  0  0  0  0  0  0  0  0  0  0
    3.3918  -10.0240    0.0000 C   0  0  0  0  0  0  0  0  0  0  0  0
    4.1063  -10.4365    0.0000 C   0  0  0  0  0  0  0  0  0  0  0  0
    4.7194   -9.8845    0.0000 C   0  0  0  0  0  0  0  0  0  0  0  0
    2.6381  -10.3596    0.0000 C   0  0  0  0  0  0  0  0  0  0  0  0
  1  2  1  0  0  0  0
  2  3  1  0  0  0  0
  3  4  1  0  0  0  0
  1  5  1  0  0  0  0
  5  6  1  0  0  0  0
  4  6  1  0  0  0  0
  6  7  1  0  0  0  0
  2  7  1  0  0  0  0
  7  8  1  0  0  0  0
  7  9  1  0  0  0  0
  2 10  1  0  0  0  0
  1 11  1  0  0  0  0
 11 12  1  0  0  0  0
 12 13  1  0  0  0  0
 12 14  2  0  0  0  0
 13 15  1  0  0  0  0
 15 16  1  0  0  0  0
 16 17  1  0  0  0  0
 17 18  1  0  0  0  0
 18 13  1  0  0  0  0
 16 19  2  0  0  0  0
M  END
>  <cdx:groupId>
799

>  <cdx:fragmentId>
800

$$$$
