92671.cdx
  Mrv1902 05222410262D          

 10 11  0  0  0  0            999 V2000
    5.3193   -5.9400    0.0000 C   0  0  0  0  0  0  0  0  0  0  0  0
    5.3193   -6.7650    0.0000 C   0  0  0  0  0  0  0  0  0  0  0  0
    6.0338   -7.1775    0.0000 C   0  0  0  0  0  0  0  0  0  0  0  0
    6.7482   -6.7650    0.0000 C   0  0  0  0  0  0  0  0  0  0  0  0
    6.7482   -5.9400    0.0000 C   0  0  0  0  0  0  0  0  0  0  0  0
    6.0338   -5.5275    0.0000 C   0  0  0  0  0  0  0  0  0  0  0  0
    7.4627   -7.1775    0.0000 C   0  0  0  0  0  0  0  0  0  0  0  0
    8.1772   -6.7650    0.0000 C   0  0  0  0  0  0  0  0  0  0  0  0
    8.1772   -5.9400    0.0000 C   0  0  0  0  0  0  0  0  0  0  0  0
    7.4627   -5.5275    0.0000 C   0  0  0  0  0  0  0  0  0  0  0  0
  1  2  1  0  0  0  0
  2  3  1  0  0  0  0
  3  4  1  0  0  0  0
  4  5  1  0  0  0  0
  5  6  1  0  0  0  0
  6  1  2  0  0  0  0
  4  7  1  0  0  0  0
  7  8  1  0  0  0  0
  8  9  2  0  0  0  0
  9 10  1  0  0  0  0
 10  5  1  0  0  0  0
M  END
>  <cdx:fragmentId>
5

$$$$
