92672.cdx
  Mrv1902 05222410252D          

 22 24  0  0  0  0            999 V2000
    4.3087   -9.0887    0.0000 C   0  0  0  0  0  0  0  0  0  0  0  0
    4.3087   -9.9138    0.0000 C   0  0  0  0  0  0  0  0  0  0  0  0
    5.0231  -10.3262    0.0000 C   0  0  0  0  0  0  0  0  0  0  0  0
    5.7376   -9.9138    0.0000 C   0  0  0  0  0  0  0  0  0  0  0  0
    5.7376   -9.0887    0.0000 C   0  0  0  0  0  0  0  0  0  0  0  0
    5.0231   -8.6762    0.0000 C   0  0  0  0  0  0  0  0  0  0  0  0
    6.4521  -10.3262    0.0000 C   0  0  0  0  0  0  0  0  0  0  0  0
    7.1666   -9.9138    0.0000 C   0  0  0  0  0  0  0  0  0  0  0  0
    7.1666   -9.0887    0.0000 C   0  0  0  0  0  0  0  0  0  0  0  0
    6.4521   -8.6762    0.0000 C   0  0  0  0  0  0  0  0  0  0  0  0
    7.8810  -10.3262    0.0000 C   0  0  0  0  0  0  0  0  0  0  0  0
    8.5955   -9.9138    0.0000 C   0  0  0  0  0  0  0  0  0  0  0  0
    8.5955   -9.0887    0.0000 C   0  0  0  0  0  0  0  0  0  0  0  0
    7.8810   -8.6762    0.0000 C   0  0  0  0  0  0  0  0  0  0  0  0
    3.5942  -10.3262    0.0000 O   0  0  0  0  0  0  0  0  0  0  0  0
    2.8797   -9.9138    0.0000 C   0  0  0  0  0  0  0  0  0  0  0  0
    6.4521   -7.8513    0.0000 O   0  0  0  0  0  0  0  0  0  0  0  0
    6.4521  -11.1513    0.0000 O   0  0  0  0  0  0  0  0  0  0  0  0
    7.8810   -7.8513    0.0000 O   0  0  0  0  0  0  0  0  0  0  0  0
    9.3100   -8.6762    0.0000 O   0  0  0  0  0  0  0  0  0  0  0  0
   10.0244   -9.0887    0.0000 C   0  0  0  0  0  0  0  0  0  0  0  0
    9.3100  -10.3262    0.0000 O   0  0  0  0  0  0  0  0  0  0  0  0
  1  2  2  0  0  0  0
  2  3  1  0  0  0  0
  3  4  2  0  0  0  0
  4  5  1  0  0  0  0
  5  6  2  0  0  0  0
  6  1  1  0  0  0  0
  4  7  1  0  0  0  0
  7  8  1  0  0  0  0
  8  9  2  0  0  0  0
  9 10  1  0  0  0  0
 10  5  1  0  0  0  0
  8 11  1  0  0  0  0
 11 12  2  0  0  0  0
 12 13  1  0  0  0  0
 13 14  2  0  0  0  0
 14  9  1  0  0  0  0
  2 15  1  0  0  0  0
 15 16  1  0  0  0  0
 10 17  2  0  0  0  0
  7 18  2  0  0  0  0
 14 19  1  0  0  0  0
 13 20  1  0  0  0  0
 20 21  1  0  0  0  0
 12 22  1  0  0  0  0
M  END
>  <cdx:fragmentId>
5

$$$$
