92678.cdx
  Mrv1902 05222410232D          

 91 99  0  0  0  0            999 V2000
    1.9156   -5.2012    0.0000 O   0  0  0  0  0  0  0  0  0  0  0  0
    1.9093   -5.7787    0.0000 C   0  0  2  0  0  0  0  0  0  0  0  0
    2.4063   -6.0729    0.0000 C   0  0  1  0  0  0  0  0  0  0  0  0
    2.9095   -5.7896    0.0000 C   0  0  0  0  0  0  0  0  0  0  0  0
    2.9158   -5.2121    0.0000 O   0  0  0  0  0  0  0  0  0  0  0  0
    1.4061   -6.0620    0.0000 C   0  0  1  0  0  0  0  0  0  0  0  0
    1.3998   -6.6395    0.0000 C   0  0  2  0  0  0  0  0  0  0  0  0
    1.8968   -6.9336    0.0000 C   0  0  1  0  0  0  0  0  0  0  0  0
    2.4000   -6.6503    0.0000 O   0  0  0  0  0  0  0  0  0  0  0  0
    1.8905   -7.5111    0.0000 O   0  0  0  0  0  0  0  0  0  0  0  0
    2.3875   -7.8053    0.0000 C   0  0  0  0  0  0  0  0  0  0  0  0
    1.3810   -8.3719    0.0000 O   0  0  0  0  0  0  0  0  0  0  0  0
    1.8779   -8.6660    0.0000 C   0  0  2  0  0  0  0  0  0  0  0  0
    2.3812   -8.3827    0.0000 C   0  0  2  0  0  0  0  0  0  0  0  0
    1.8717   -9.2435    0.0000 C   0  0  1  0  0  0  0  0  0  0  0  0
    2.3686   -9.5377    0.0000 C   0  0  2  0  0  0  0  0  0  0  0  0
    2.8719   -9.2544    0.0000 C   0  0  1  0  0  0  0  0  0  0  0  0
    2.8781   -8.6769    0.0000 O   0  0  0  0  0  0  0  0  0  0  0  0
    3.3688   -9.5486    0.0000 O   0  0  0  0  0  0  0  0  0  0  0  0
    3.8721   -9.2653    0.0000 C   0  0  1  0  0  0  0  0  0  0  0  0
    3.8783   -8.6878    0.0000 C   0  0  0  0  0  0  0  0  0  0  0  0
    4.3690   -9.5594    0.0000 C   0  0  1  0  0  0  0  0  0  0  0  0
    4.8723   -9.2761    0.0000 C   0  0  0  0  0  0  0  0  0  0  0  0
    4.8785   -8.6987    0.0000 C   0  0  1  0  0  0  0  0  0  0  0  0
    4.3816   -8.4045    0.0000 C   0  0  0  0  0  0  0  0  0  0  0  0
    5.3692   -9.5703    0.0000 C   0  0  0  0  0  0  0  0  0  0  0  0
    5.8725   -9.2870    0.0000 C   0  0  0  0  0  0  0  0  0  0  0  0
    5.8787   -8.7096    0.0000 C   0  0  1  0  0  0  0  0  0  0  0  0
    5.3818   -8.4154    0.0000 C   0  0  1  0  0  0  0  0  0  0  0  0
    6.3820   -8.4263    0.0000 C   0  0  1  0  0  0  0  0  0  0  0  0
    6.3883   -7.8488    0.0000 C   0  0  2  0  0  0  0  0  0  0  0  0
    5.8913   -7.5546    0.0000 C   0  0  0  0  0  0  0  0  0  0  0  0
    5.3881   -7.8379    0.0000 C   0  0  0  0  0  0  0  0  0  0  0  0
    6.9292   -8.6107    0.0000 C   0  0  0  0  0  0  0  0  0  0  0  0
    7.2737   -8.1472    0.0000 C   0  0  0  0  0  0  0  0  0  0  0  0
    6.9394   -7.6763    0.0000 C   0  0  0  0  0  0  0  0  0  0  0  0
    7.1238   -7.1291    0.0000 C   0  0  2  0  0  0  0  0  0  0  0  0
    6.7421   -6.6957    0.0000 C   0  0  0  0  0  0  0  0  0  0  0  0
    7.6900   -7.0151    0.0000 C   0  0  0  0  0  0  0  0  0  0  0  0
    8.0717   -7.4485    0.0000 C   0  0  0  0  0  0  0  0  0  0  0  0
    8.6379   -7.3346    0.0000 C   0  0  2  0  0  0  0  0  0  0  0  0
    9.0196   -7.7679    0.0000 C   0  0  0  0  0  0  0  0  0  0  0  0
    9.5857   -7.6540    0.0000 C   0  0  0  0  0  0  0  0  0  0  0  0
    8.8352   -8.3152    0.0000 C   0  0  0  0  0  0  0  0  0  0  0  0
    9.4235   -8.1807    0.0000 O   0  0  0  0  0  0  0  0  0  0  0  0
    8.8223   -6.7873    0.0000 O   0  0  0  0  0  0  0  0  0  0  0  0
    9.3817   -6.6439    0.0000 C   0  0  2  0  0  0  0  0  0  0  0  0
    9.7856   -7.0567    0.0000 O   0  0  0  0  0  0  0  0  0  0  0  0
   10.3450   -6.9133    0.0000 C   0  0  1  0  0  0  0  0  0  0  0  0
   10.5005   -6.3571    0.0000 C   0  0  2  0  0  0  0  0  0  0  0  0
   10.0966   -5.9444    0.0000 C   0  0  1  0  0  0  0  0  0  0  0  0
    9.5372   -6.0878    0.0000 C   0  0  1  0  0  0  0  0  0  0  0  0
   10.2522   -5.3882    0.0000 O   0  0  0  0  0  0  0  0  0  0  0  0
    9.8483   -4.9754    0.0000 O   0  0  0  0  0  0  0  0  0  0  0  0
    9.2889   -5.1188    0.0000 C   0  0  1  0  0  0  0  0  0  0  0  0
    9.1333   -5.6750    0.0000 O   0  0  0  0  0  0  0  0  0  0  0  0
   10.0038   -4.4193    0.0000 C   0  0  1  0  0  0  0  0  0  0  0  0
    9.5999   -4.0065    0.0000 C   0  0  2  0  0  0  0  0  0  0  0  0
    9.0405   -4.1499    0.0000 C   0  0  1  0  0  0  0  0  0  0  0  0
    8.8850   -4.7060    0.0000 C   0  0  1  0  0  0  0  0  0  0  0  0
   10.5632   -4.2759    0.0000 C   0  0  0  0  0  0  0  0  0  0  0  0
   10.7187   -3.7197    0.0000 O   0  0  0  0  0  0  0  0  0  0  0  0
    9.7554   -3.4503    0.0000 O   0  0  0  0  0  0  0  0  0  0  0  0
   10.7489   -7.3261    0.0000 C   0  0  0  0  0  0  0  0  0  0  0  0
   11.3083   -7.1827    0.0000 O   0  0  0  0  0  0  0  0  0  0  0  0
   11.0599   -6.2137    0.0000 O   0  0  0  0  0  0  0  0  0  0  0  0
   10.9972   -8.2950    0.0000 O   0  0  0  0  0  0  0  0  0  0  0  0
   11.5567   -8.1516    0.0000 C   0  0  1  0  0  0  0  0  0  0  0  0
   11.7122   -7.5954    0.0000 C   0  0  1  0  0  0  0  0  0  0  0  0
   11.9605   -8.5644    0.0000 C   0  0  2  0  0  0  0  0  0  0  0  0
   12.5200   -8.4210    0.0000 C   0  0  1  0  0  0  0  0  0  0  0  0
   12.6755   -7.8648    0.0000 C   0  0  2  0  0  0  0  0  0  0  0  0
   12.2716   -7.4521    0.0000 O   0  0  0  0  0  0  0  0  0  0  0  0
   12.9239   -8.8338    0.0000 O   0  0  0  0  0  0  0  0  0  0  0  0
   13.6388   -8.1342    0.0000 O   0  0  0  0  0  0  0  0  0  0  0  0
   13.2349   -7.7214    0.0000 C   0  0  0  0  0  0  0  0  0  0  0  0
    0.9091   -5.7678    0.0000 O   0  0  0  0  0  0  0  0  0  0  0  0
    1.3684   -9.5268    0.0000 O   0  0  0  0  0  0  0  0  0  0  0  0
    4.1038  -10.0725    0.0000 C   0  0  0  0  0  0  0  0  0  0  0  0
    5.4086   -8.9923    0.0000 C   0  0  0  0  0  0  0  0  0  0  0  0
    6.4549   -7.2751    0.0000 C   0  0  0  0  0  0  0  0  0  0  0  0
    8.6366   -3.7371    0.0000 O   0  0  0  0  0  0  0  0  0  0  0  0
    0.8966   -6.9228    0.0000 O   0  0  0  0  0  0  0  0  0  0  0  0
    2.3623  -10.1151    0.0000 O   0  0  0  0  0  0  0  0  0  0  0  0
    4.6807  -10.0456    0.0000 C   0  0  0  0  0  0  0  0  0  0  0  0
    4.8848   -8.1212    0.0000 H   0  0  0  0  0  0  0  0  0  0  0  0
    5.8850   -8.1321    0.0000 H   0  0  0  0  0  0  0  0  0  0  0  0
    6.4361   -9.0012    0.0000 C   0  0  0  0  0  0  0  0  0  0  0  0
    4.8911   -7.5437    0.0000 O   0  0  0  0  0  0  0  0  0  0  0  0
    8.3256   -4.8494    0.0000 O   0  0  0  0  0  0  0  0  0  0  0  0
   11.8050   -9.1205    0.0000 O   0  0  0  0  0  0  0  0  0  0  0  0
  2  1  1  6  0  0  0
  2  3  1  0  0  0  0
  3  4  1  1  0  0  0
  4  5  1  0  0  0  0
  2  6  1  0  0  0  0
  6  7  1  0  0  0  0
  7  8  1  0  0  0  0
  8  9  1  0  0  0  0
  9  3  1  0  0  0  0
  8 10  1  1  0  0  0
 10 11  1  0  0  0  0
 13 12  1  6  0  0  0
 13 14  1  0  0  0  0
 14 11  1  1  0  0  0
 13 15  1  0  0  0  0
 15 16  1  0  0  0  0
 16 17  1  0  0  0  0
 17 18  1  0  0  0  0
 18 14  1  0  0  0  0
 17 19  1  1  0  0  0
 20 19  1  1  0  0  0
 20 21  1  0  0  0  0
 20 22  1  0  0  0  0
 22 23  1  0  0  0  0
 23 24  1  0  0  0  0
 24 25  1  0  0  0  0
 25 21  1  0  0  0  0
 23 26  2  0  0  0  0
 26 27  1  0  0  0  0
 27 28  1  0  0  0  0
 28 29  1  0  0  0  0
 29 24  1  0  0  0  0
 28 30  1  0  0  0  0
 30 31  1  0  0  0  0
 31 32  1  0  0  0  0
 32 33  1  0  0  0  0
 33 29  1  0  0  0  0
 30 34  1  0  0  0  0
 34 35  1  0  0  0  0
 35 36  1  0  0  0  0
 36 31  1  0  0  0  0
 36 37  1  0  0  0  0
 37 38  1  6  0  0  0
 37 39  1  0  0  0  0
 39 40  1  0  0  0  0
 40 41  1  0  0  0  0
 41 42  1  0  0  0  0
 42 43  1  0  0  0  0
 42 44  1  0  0  0  0
 42 45  1  0  0  0  0
 41 46  1  1  0  0  0
 47 46  1  1  0  0  0
 47 48  1  0  0  0  0
 48 49  1  0  0  0  0
 49 50  1  0  0  0  0
 50 51  1  0  0  0  0
 51 52  1  0  0  0  0
 52 47  1  0  0  0  0
 51 53  1  1  0  0  0
 54 55  1  0  0  0  0
 55 56  1  1  0  0  0
 52 56  1  6  0  0  0
 54 57  1  0  0  0  0
 57 58  1  0  0  0  0
 58 59  1  0  0  0  0
 59 60  1  0  0  0  0
 60 55  1  0  0  0  0
 57 61  1  1  0  0  0
 61 62  1  0  0  0  0
 58 63  1  6  0  0  0
 49 64  1  1  0  0  0
 64 65  1  0  0  0  0
 50 66  1  6  0  0  0
 68 67  1  1  0  0  0
 68 69  1  0  0  0  0
 69 65  1  6  0  0  0
 68 70  1  0  0  0  0
 70 71  1  0  0  0  0
 71 72  1  0  0  0  0
 72 73  1  0  0  0  0
 73 69  1  0  0  0  0
 71 74  1  1  0  0  0
 75 76  1  0  0  0  0
 72 76  1  6  0  0  0
  6 77  1  1  0  0  0
 15 78  1  1  0  0  0
 22 79  1  1  0  0  0
 29 80  1  1  0  0  0
 31 81  1  1  0  0  0
 59 82  1  1  0  0  0
  7 83  1  6  0  0  0
 16 84  1  6  0  0  0
 22 85  1  6  0  0  0
 24 86  1  6  0  0  0
 28 87  1  6  0  0  0
 30 88  1  6  0  0  0
 33 89  2  0  0  0  0
 60 90  1  6  0  0  0
 70 91  1  6  0  0  0
M  END
>  <cdx:fragmentId>
5

$$$$
