92676.cdx
  Mrv1902 05222410242D          

 16 18  0  0  0  0            999 V2000
    6.4560   -7.3425    0.0000 C   0  0  0  0  0  0  0  0  0  0  0  0
    6.4560   -8.1675    0.0000 C   0  0  0  0  0  0  0  0  0  0  0  0
    7.1010   -8.6819    0.0000 C   0  0  2  0  0  0  0  0  0  0  0  0
    7.9053   -8.4983    0.0000 C   0  0  1  0  0  0  0  0  0  0  0  0
    8.2632   -7.7550    0.0000 C   0  0  0  0  0  0  0  0  0  0  0  0
    7.9053   -7.0117    0.0000 C   0  0  0  0  0  0  0  0  0  0  0  0
    7.1010   -6.8281    0.0000 C   0  0  2  0  0  0  0  0  0  0  0  0
    6.9174   -6.0238    0.0000 H   0  0  0  0  0  0  0  0  0  0  0  0
    8.4197   -9.1433    0.0000 C   0  0  0  0  0  0  0  0  0  0  0  0
    5.7674   -8.6220    0.0000 C   0  0  0  0  0  0  0  0  0  0  0  0
    5.9869   -9.4173    0.0000 C   0  0  0  0  0  0  0  0  0  0  0  0
    6.8111   -9.4543    0.0000 C   0  0  0  0  0  0  0  0  0  0  0  0
    4.9950   -8.3321    0.0000 C   0  0  0  0  0  0  0  0  0  0  0  0
    7.5871   -7.7699    0.0000 C   0  0  0  0  0  0  0  0  0  0  0  0
    8.3015   -7.3574    0.0000 C   0  0  0  0  0  0  0  0  0  0  0  0
    8.3015   -8.1824    0.0000 C   0  0  0  0  0  0  0  0  0  0  0  0
  1  2  1  0  0  0  0
  2  3  1  0  0  0  0
  3  4  1  0  0  0  0
  4  5  1  0  0  0  0
  5  6  1  0  0  0  0
  6  7  1  0  0  0  0
  7  1  1  0  0  0  0
  7  8  1  1  0  0  0
  4  9  1  1  0  0  0
  2 10  2  0  0  0  0
 10 11  1  0  0  0  0
 11 12  1  0  0  0  0
  3 12  1  1  0  0  0
 10 13  1  0  0  0  0
  7 14  1  0  0  0  0
 14  3  1  0  0  0  0
 14 15  1  0  0  0  0
 14 16  1  0  0  0  0
M  END
>  <cdx:fragmentId>
5

$$$$
