92673.cdx
  Mrv1902 05222410242D          

 29 30  0  0  0  0            999 V2000
    6.1306   -9.9962    0.0000 C   0  0  0  0  0  0  0  0  0  0  0  0
    6.1306  -10.8212    0.0000 C   0  0  0  0  0  0  0  0  0  0  0  0
    6.8450  -11.2338    0.0000 C   0  0  0  0  0  0  0  0  0  0  0  0
    7.5595  -10.8212    0.0000 C   0  0  0  0  0  0  0  0  0  0  0  0
    7.5595   -9.9962    0.0000 C   0  0  0  0  0  0  0  0  0  0  0  0
    6.8450   -9.5838    0.0000 C   0  0  0  0  0  0  0  0  0  0  0  0
    5.4161   -9.5838    0.0000 O   0  0  0  0  0  0  0  0  0  0  0  0
    4.7016   -9.9962    0.0000 C   0  0  0  0  0  0  0  0  0  0  0  0
    8.2740   -9.5838    0.0000 O   0  0  0  0  0  0  0  0  0  0  0  0
    8.9884   -9.9962    0.0000 C   0  0  0  0  0  0  0  0  0  0  0  0
    6.8450   -8.7588    0.0000 O   0  0  0  0  0  0  0  0  0  0  0  0
    7.5595   -8.3462    0.0000 C   0  0  0  0  0  0  0  0  0  0  0  0
    7.5595   -7.5213    0.0000 C   0  0  0  0  0  0  0  0  0  0  0  0
    8.2740   -8.7588    0.0000 C   0  0  0  0  0  0  0  0  0  0  0  0
    8.2740   -7.1088    0.0000 C   0  0  0  0  0  0  0  0  0  0  0  0
    6.8450  -12.0587    0.0000 C   0  0  0  0  0  0  0  0  0  0  0  0
    6.1306  -12.4712    0.0000 C   0  0  0  0  0  0  0  0  0  0  0  0
    6.1306  -13.2962    0.0000 C   0  0  0  0  0  0  0  0  0  0  0  0
    8.9884   -7.5213    0.0000 C   0  0  0  0  0  0  0  0  0  0  0  0
    9.7029   -7.1088    0.0000 C   0  0  0  0  0  0  0  0  0  0  0  0
    9.7029   -6.2837    0.0000 C   0  0  0  0  0  0  0  0  0  0  0  0
    8.9884   -5.8712    0.0000 C   0  0  0  0  0  0  0  0  0  0  0  0
    8.2740   -6.2837    0.0000 C   0  0  0  0  0  0  0  0  0  0  0  0
    8.9884   -5.0462    0.0000 O   0  0  0  0  0  0  0  0  0  0  0  0
    8.2740   -4.6338    0.0000 C   0  0  0  0  0  0  0  0  0  0  0  0
   10.4174   -5.8712    0.0000 O   0  0  0  0  0  0  0  0  0  0  0  0
   10.4174   -5.0462    0.0000 C   0  0  0  0  0  0  0  0  0  0  0  0
   10.4174   -7.5213    0.0000 O   0  0  0  0  0  0  0  0  0  0  0  0
   11.1319   -7.1088    0.0000 C   0  0  0  0  0  0  0  0  0  0  0  0
  1  2  2  0  0  0  0
  2  3  1  0  0  0  0
  3  4  2  0  0  0  0
  4  5  1  0  0  0  0
  5  6  2  0  0  0  0
  6  1  1  0  0  0  0
  1  7  1  0  0  0  0
  7  8  1  0  0  0  0
  5  9  1  0  0  0  0
  9 10  1  0  0  0  0
  6 11  1  0  0  0  0
 11 12  1  0  0  0  0
 12 13  1  0  0  0  0
 12 14  1  0  0  0  0
 13 15  1  0  0  0  0
  3 16  1  0  0  0  0
 16 17  2  0  0  0  0
 17 18  1  0  0  0  0
 15 19  2  0  0  0  0
 19 20  1  0  0  0  0
 20 21  2  0  0  0  0
 21 22  1  0  0  0  0
 22 23  2  0  0  0  0
 23 15  1  0  0  0  0
 22 24  1  0  0  0  0
 24 25  1  0  0  0  0
 21 26  1  0  0  0  0
 26 27  1  0  0  0  0
 20 28  1  0  0  0  0
 28 29  1  0  0  0  0
M  END
>  <cdx:fragmentId>
5

$$$$
