92682.cdx
  Mrv1902 05222410212D          

 14 14  0  0  0  0            999 V2000
    3.8756   -7.0812    0.0000 C   0  0  0  0  0  0  0  0  0  0  0  0
    3.8756   -7.9063    0.0000 C   0  0  0  0  0  0  0  0  0  0  0  0
    4.5900   -8.3187    0.0000 C   0  0  0  0  0  0  0  0  0  0  0  0
    5.3045   -7.9063    0.0000 C   0  0  0  0  0  0  0  0  0  0  0  0
    5.3045   -7.0812    0.0000 C   0  0  0  0  0  0  0  0  0  0  0  0
    4.5900   -6.6688    0.0000 C   0  0  0  0  0  0  0  0  0  0  0  0
    4.5900   -5.8438    0.0000 O   0  0  0  0  0  0  0  0  0  0  0  0
    6.0190   -6.6687    0.0000 C   0  0  0  0  0  0  0  0  0  0  0  0
    6.7334   -7.0812    0.0000 C   0  0  0  0  0  0  0  0  0  0  0  0
    6.0190   -7.4937    0.0000 C   0  0  0  0  0  0  0  0  0  0  0  0
    7.4479   -6.6687    0.0000 C   0  0  0  0  0  0  0  0  0  0  0  0
    8.1624   -7.0812    0.0000 C   0  0  0  0  0  0  0  0  0  0  0  0
    7.4479   -5.8437    0.0000 C   0  0  0  0  0  0  0  0  0  0  0  0
    6.7334   -7.9062    0.0000 O   0  0  0  0  0  0  0  0  0  0  0  0
  1  2  1  0  0  0  0
  2  3  1  0  0  0  0
  3  4  1  0  0  0  0
  4  5  1  0  0  0  0
  5  6  1  0  0  0  0
  6  1  1  0  0  0  0
  6  7  2  0  0  0  0
  5  8  1  0  0  0  0
  8  9  1  0  0  0  0
  5 10  1  0  0  0  0
  9 11  1  0  0  0  0
 11 12  1  0  0  0  0
 11 13  1  0  0  0  0
  9 14  2  0  0  0  0
M  END
>  <cdx:fragmentId>
5

$$$$
