92684.cdx
  Mrv1902 05222410222D          

 12 11  0  0  0  0            999 V2000
   10.7855   -6.8338    0.0000 C   0  0  0  0  0  0  0  0  0  0  0  0
   10.0710   -6.4213    0.0000 C   0  0  0  0  0  0  0  0  0  0  0  0
    9.3565   -6.8338    0.0000 C   0  0  0  0  0  0  0  0  0  0  0  0
    8.6420   -6.4213    0.0000 C   0  0  0  0  0  0  0  0  0  0  0  0
    7.9276   -6.8338    0.0000 C   0  0  0  0  0  0  0  0  0  0  0  0
    7.2131   -6.4213    0.0000 C   0  0  0  0  0  0  0  0  0  0  0  0
    6.4986   -6.8338    0.0000 C   0  0  0  0  0  0  0  0  0  0  0  0
    5.7842   -6.4213    0.0000 C   0  0  0  0  0  0  0  0  0  0  0  0
    5.0697   -6.8338    0.0000 C   0  0  0  0  0  0  0  0  0  0  0  0
    4.3552   -6.4213    0.0000 C   0  0  0  0  0  0  0  0  0  0  0  0
    3.6407   -6.8338    0.0000 C   0  0  0  0  0  0  0  0  0  0  0  0
    2.9263   -6.4213    0.0000 C   0  0  0  0  0  0  0  0  0  0  0  0
  2  1  2  0  0  0  0
  3  2  1  0  0  0  0
  4  3  1  0  0  0  0
  5  4  1  0  0  0  0
  6  5  1  0  0  0  0
  7  6  1  0  0  0  0
  8  7  1  0  0  0  0
  9  8  1  0  0  0  0
 10  9  1  0  0  0  0
 11 10  1  0  0  0  0
 12 11  1  0  0  0  0
M  END
>  <cdx:fragmentId>
3

$$$$
