92688.cdx
  Mrv1902 05222410242D          

 15 17  0  0  0  0            999 V2000
    5.0031   -7.2738    0.0000 C   0  0  0  0  0  0  0  0  0  0  0  0
    5.0031   -8.0987    0.0000 C   0  0  0  0  0  0  0  0  0  0  0  0
    5.7175   -8.5113    0.0000 C   0  0  0  0  0  0  0  0  0  0  0  0
    6.4320   -8.0987    0.0000 C   0  0  0  0  0  0  0  0  0  0  0  0
    6.4320   -7.2738    0.0000 C   0  0  0  0  0  0  0  0  0  0  0  0
    5.7175   -6.8613    0.0000 C   0  0  0  0  0  0  0  0  0  0  0  0
    7.1465   -8.5113    0.0000 C   0  0  0  0  0  0  0  0  0  0  0  0
    7.8609   -8.0987    0.0000 C   0  0  0  0  0  0  0  0  0  0  0  0
    7.8609   -7.2738    0.0000 C   0  0  0  0  0  0  0  0  0  0  0  0
    7.1465   -6.8613    0.0000 C   0  0  0  0  0  0  0  0  0  0  0  0
    7.8609   -6.4487    0.0000 C   0  0  0  0  0  0  0  0  0  0  0  0
    7.8609   -5.6238    0.0000 C   0  0  0  0  0  0  0  0  0  0  0  0
    8.6578   -6.2352    0.0000 C   0  0  0  0  0  0  0  0  0  0  0  0
    5.7175   -6.0362    0.0000 C   0  0  0  0  0  0  0  0  0  0  0  0
    6.4320   -8.9238    0.0000 C   0  0  0  0  0  0  0  0  0  0  0  0
  1  2  1  0  0  0  0
  2  3  1  0  0  0  0
  3  4  1  0  0  0  0
  4  5  1  0  0  0  0
  5  6  2  0  0  0  0
  6  1  1  0  0  0  0
  4  7  1  0  0  0  0
  7  8  1  0  0  0  0
  8  9  1  0  0  0  0
  9 10  1  0  0  0  0
 10  5  1  0  0  0  0
  9 11  1  0  0  0  0
 11 10  1  0  0  0  0
 11 12  1  0  0  0  0
 11 13  1  0  0  0  0
  6 14  1  0  0  0  0
  4 15  1  0  0  0  0
M  END
>  <cdx:fragmentId>
5

$$$$
