92680.cdx
  Mrv1902 05222410212D          

 12 12  0  0  0  0            999 V2000
    6.0947   -5.0517    0.0000 C   0  0  0  0  0  0  0  0  0  0  0  0
    5.5079   -5.6316    0.0000 C   0  0  0  0  0  0  0  0  0  0  0  0
    5.5030   -6.4566    0.0000 C   0  0  0  0  0  0  0  0  0  0  0  0
    6.0829   -7.0434    0.0000 C   0  0  0  0  0  0  0  0  0  0  0  0
    6.9079   -7.0483    0.0000 C   0  0  0  0  0  0  0  0  0  0  0  0
    7.4947   -6.4684    0.0000 C   0  0  0  0  0  0  0  0  0  0  0  0
    7.4996   -5.6434    0.0000 C   0  0  0  0  0  0  0  0  0  0  0  0
    6.9197   -5.0566    0.0000 C   0  0  0  0  0  0  0  0  0  0  0  0
    8.2636   -5.3322    0.0000 C   0  0  0  0  0  0  0  0  0  0  0  0
    8.9151   -5.8383    0.0000 C   0  0  0  0  0  0  0  0  0  0  0  0
    9.6792   -5.5271    0.0000 C   0  0  0  0  0  0  0  0  0  0  0  0
   10.3307   -6.0332    0.0000 C   0  0  0  0  0  0  0  0  0  0  0  0
  1  2  2  0  0  0  0
  2  3  1  0  0  0  0
  3  4  2  0  0  0  0
  4  5  1  0  0  0  0
  5  6  2  0  0  0  0
  6  7  1  0  0  0  0
  7  8  2  0  0  0  0
  8  1  1  0  0  0  0
  7  9  1  0  0  0  0
  9 10  1  0  0  0  0
 10 11  1  0  0  0  0
 11 12  1  0  0  0  0
M  END
>  <cdx:fragmentId>
5

$$$$
