92681.cdx
  Mrv1902 05222410222D          

 14 15  0  0  0  0            999 V2000
    6.4056   -6.3388    0.0000 C   0  0  0  0  0  0  0  0  0  0  0  0
    6.4056   -7.1638    0.0000 C   0  0  0  0  0  0  0  0  0  0  0  0
    7.1200   -7.5762    0.0000 C   0  0  0  0  0  0  0  0  0  0  0  0
    7.8345   -7.1638    0.0000 C   0  0  1  0  0  0  0  0  0  0  0  0
    7.8345   -6.3388    0.0000 C   0  0  1  0  0  0  0  0  0  0  0  0
    7.1200   -5.9262    0.0000 C   0  0  0  0  0  0  0  0  0  0  0  0
    5.6911   -7.5762    0.0000 O   0  0  0  0  0  0  0  0  0  0  0  0
    7.1200   -5.1013    0.0000 O   0  0  0  0  0  0  0  0  0  0  0  0
    7.1200   -8.4013    0.0000 O   0  0  0  0  0  0  0  0  0  0  0  0
    8.5490   -6.7512    0.0000 O   0  0  0  0  0  0  0  0  0  0  0  0
    4.9766   -7.1638    0.0000 C   0  0  0  0  0  0  0  0  0  0  0  0
    8.2470   -5.6243    0.0000 C   0  0  0  0  0  0  0  0  0  0  0  0
    9.0720   -5.6243    0.0000 C   0  0  0  0  0  0  0  0  0  0  0  0
    9.4845   -6.3388    0.0000 C   0  0  0  0  0  0  0  0  0  0  0  0
  1  2  2  0  0  0  0
  2  3  1  0  0  0  0
  3  4  1  0  0  0  0
  4  5  1  0  0  0  0
  5  6  1  0  0  0  0
  6  1  1  0  0  0  0
  2  7  1  0  0  0  0
  6  8  2  0  0  0  0
  3  9  2  0  0  0  0
  5 10  1  1  0  0  0
  4 10  1  1  0  0  0
  7 11  1  0  0  0  0
  5 12  1  6  0  0  0
 12 13  2  0  0  0  0
 13 14  1  0  0  0  0
M  END
>  <cdx:fragmentId>
5

$$$$
