92692.cdx
  Mrv1902 05222410222D          

  9 10  0  0  0  0            999 V2000
    5.4018   -7.4112    0.0000 C   0  0  0  0  0  0  0  0  0  0  0  0
    5.4018   -8.2363    0.0000 C   0  0  0  0  0  0  0  0  0  0  0  0
    6.1163   -8.6487    0.0000 C   0  0  0  0  0  0  0  0  0  0  0  0
    6.8307   -8.2363    0.0000 C   0  0  0  0  0  0  0  0  0  0  0  0
    6.8307   -7.4112    0.0000 C   0  0  0  0  0  0  0  0  0  0  0  0
    6.1163   -6.9988    0.0000 C   0  0  0  0  0  0  0  0  0  0  0  0
    7.6154   -8.4912    0.0000 C   0  0  0  0  0  0  0  0  0  0  0  0
    8.1003   -7.8237    0.0000 C   0  0  0  0  0  0  0  0  0  0  0  0
    7.6154   -7.1563    0.0000 C   0  0  0  0  0  0  0  0  0  0  0  0
  1  2  1  0  0  0  0
  2  3  1  0  0  0  0
  3  4  1  0  0  0  0
  4  5  1  0  0  0  0
  5  6  1  0  0  0  0
  6  1  1  0  0  0  0
  4  7  2  0  0  0  0
  7  8  1  0  0  0  0
  8  9  1  0  0  0  0
  9  5  1  0  0  0  0
M  END
>  <cdx:fragmentId>
5

$$$$
