92699.cdx
  Mrv1902 05222410252D          

 18 17  0  0  0  0            999 V2000
    1.4000   -8.1125    0.0000 C   0  0  0  0  0  0  0  0  0  0  0  0
    2.1145   -7.7000    0.0000 C   0  0  0  0  0  0  0  0  0  0  0  0
    2.8290   -8.1125    0.0000 C   0  0  0  0  0  0  0  0  0  0  0  0
    3.5434   -7.7000    0.0000 C   0  0  0  0  0  0  0  0  0  0  0  0
    4.2579   -8.1125    0.0000 C   0  0  0  0  0  0  0  0  0  0  0  0
    4.9724   -7.7000    0.0000 C   0  0  0  0  0  0  0  0  0  0  0  0
    5.6869   -8.1125    0.0000 C   0  0  0  0  0  0  0  0  0  0  0  0
    6.4013   -7.7000    0.0000 C   0  0  0  0  0  0  0  0  0  0  0  0
    7.1158   -8.1125    0.0000 C   0  0  0  0  0  0  0  0  0  0  0  0
    7.8303   -7.7000    0.0000 C   0  0  0  0  0  0  0  0  0  0  0  0
    8.5447   -8.1125    0.0000 C   0  0  0  0  0  0  0  0  0  0  0  0
    9.2592   -7.7000    0.0000 C   0  0  0  0  0  0  0  0  0  0  0  0
    9.9737   -8.1125    0.0000 C   0  0  0  0  0  0  0  0  0  0  0  0
   10.6881   -7.7000    0.0000 C   0  0  0  0  0  0  0  0  0  0  0  0
   11.4026   -8.1125    0.0000 C   0  0  0  0  0  0  0  0  0  0  0  0
   12.1171   -7.7000    0.0000 C   0  0  0  0  0  0  0  0  0  0  0  0
   12.8316   -8.1125    0.0000 C   0  0  0  0  0  0  0  0  0  0  0  0
   13.5460   -7.7000    0.0000 C   0  0  0  0  0  0  0  0  0  0  0  0
  1  2  1  0  0  0  0
  2  3  1  0  0  0  0
  3  4  1  0  0  0  0
  4  5  1  0  0  0  0
  5  6  1  0  0  0  0
  6  7  1  0  0  0  0
  7  8  1  0  0  0  0
  8  9  1  0  0  0  0
  9 10  1  0  0  0  0
 10 11  1  0  0  0  0
 11 12  1  0  0  0  0
 12 13  1  0  0  0  0
 13 14  1  0  0  0  0
 14 15  1  0  0  0  0
 15 16  1  0  0  0  0
 16 17  1  0  0  0  0
 17 18  2  0  0  0  0
M  END
>  <cdx:fragmentId>
3

$$$$
