92693.cdx
  Mrv1902 05222410232D          

 21 23  0  0  0  0            999 V2000
    3.1056   -9.3087    0.0000 O   0  0  0  0  0  0  0  0  0  0  0  0
    3.8200  -10.5463    0.0000 O   0  0  0  0  0  0  0  0  0  0  0  0
    4.5345  -10.1338    0.0000 C   0  0  2  0  0  0  0  0  0  0  0  0
    4.5345   -9.3087    0.0000 C   0  0  1  0  0  0  0  0  0  0  0  0
    3.8200   -8.8963    0.0000 C   0  0  0  0  0  0  0  0  0  0  0  0
    5.2490  -10.5463    0.0000 C   0  0  0  0  0  0  0  0  0  0  0  0
    5.9634  -10.1338    0.0000 C   0  0  2  0  0  0  0  0  0  0  0  0
    5.9634   -9.3087    0.0000 C   0  0  1  0  0  0  0  0  0  0  0  0
    5.2490   -8.8963    0.0000 O   0  0  0  0  0  0  0  0  0  0  0  0
    6.6779   -8.8963    0.0000 O   0  0  0  0  0  0  0  0  0  0  0  0
    6.6779   -8.0713    0.0000 C   0  0  0  0  0  0  0  0  0  0  0  0
    5.9634   -7.6587    0.0000 C   0  0  0  0  0  0  0  0  0  0  0  0
    7.2910   -7.5192    0.0000 C   0  0  0  0  0  0  0  0  0  0  0  0
    6.9554   -6.7655    0.0000 C   0  0  0  0  0  0  0  0  0  0  0  0
    6.1350   -6.8518    0.0000 N   0  0  0  0  0  0  0  0  0  0  0  0
    8.1115   -7.6055    0.0000 C   0  0  0  0  0  0  0  0  0  0  0  0
    8.5964   -6.9380    0.0000 C   0  0  0  0  0  0  0  0  0  0  0  0
    8.2608   -6.1843    0.0000 C   0  0  0  0  0  0  0  0  0  0  0  0
    7.4404   -6.0981    0.0000 C   0  0  0  0  0  0  0  0  0  0  0  0
    5.2490  -11.3712    0.0000 O   0  0  0  0  0  0  0  0  0  0  0  0
    6.6779  -10.5463    0.0000 O   0  0  0  0  0  0  0  0  0  0  0  0
  3  2  1  6  0  0  0
  3  4  1  0  0  0  0
  4  5  1  1  0  0  0
  5  1  1  0  0  0  0
  3  6  1  0  0  0  0
  6  7  1  0  0  0  0
  7  8  1  0  0  0  0
  8  9  1  0  0  0  0
  9  4  1  0  0  0  0
  8 10  1  1  0  0  0
 10 11  1  0  0  0  0
 11 12  2  0  0  0  0
 11 13  1  0  0  0  0
 13 14  2  0  0  0  0
 14 15  1  0  0  0  0
 15 12  1  0  0  0  0
 13 16  1  0  0  0  0
 16 17  2  0  0  0  0
 17 18  1  0  0  0  0
 18 19  2  0  0  0  0
 19 14  1  0  0  0  0
  6 20  2  0  0  0  0
  7 21  1  6  0  0  0
M  END
>  <cdx:fragmentId>
5

$$$$
