92697.cdx
  Mrv1902 05222410202D          

  9  8  0  0  0  0            999 V2000
    5.3050   -7.7687    0.0000 C   0  0  0  0  0  0  0  0  0  0  0  0
    6.0195   -7.3563    0.0000 C   0  0  0  0  0  0  0  0  0  0  0  0
    6.7340   -7.7687    0.0000 C   0  0  0  0  0  0  0  0  0  0  0  0
    7.4484   -7.3563    0.0000 C   0  0  0  0  0  0  0  0  0  0  0  0
    8.1629   -7.7687    0.0000 C   0  0  0  0  0  0  0  0  0  0  0  0
    8.8774   -7.3563    0.0000 C   0  0  0  0  0  0  0  0  0  0  0  0
    9.5919   -7.7687    0.0000 C   0  0  0  0  0  0  0  0  0  0  0  0
   10.3063   -7.3563    0.0000 C   0  0  0  0  0  0  0  0  0  0  0  0
   11.0208   -7.7687    0.0000 C   0  0  0  0  0  0  0  0  0  0  0  0
  1  2  2  0  0  0  0
  2  3  1  0  0  0  0
  3  4  1  0  0  0  0
  4  5  1  0  0  0  0
  5  6  1  0  0  0  0
  6  7  1  0  0  0  0
  7  8  1  0  0  0  0
  8  9  1  0  0  0  0
M  END
>  <cdx:fragmentId>
3

$$$$
