92696.cdx
  Mrv1902 05222410212D          

 19 18  0  0  0  0            999 V2000
   13.7518   -7.6863    0.0000 C   0  0  0  0  0  0  0  0  0  0  0  0
   13.0373   -8.0987    0.0000 C   0  0  0  0  0  0  0  0  0  0  0  0
   12.3228   -7.6863    0.0000 C   0  0  0  0  0  0  0  0  0  0  0  0
   11.6083   -8.0987    0.0000 C   0  0  0  0  0  0  0  0  0  0  0  0
   10.8939   -7.6863    0.0000 C   0  0  0  0  0  0  0  0  0  0  0  0
   10.1794   -8.0987    0.0000 C   0  0  0  0  0  0  0  0  0  0  0  0
    9.4649   -7.6863    0.0000 C   0  0  0  0  0  0  0  0  0  0  0  0
    8.7505   -8.0987    0.0000 C   0  0  0  0  0  0  0  0  0  0  0  0
    8.0360   -7.6863    0.0000 C   0  0  0  0  0  0  0  0  0  0  0  0
    7.3215   -8.0987    0.0000 C   0  0  0  0  0  0  0  0  0  0  0  0
    6.6070   -7.6863    0.0000 C   0  0  0  0  0  0  0  0  0  0  0  0
    5.8926   -8.0987    0.0000 C   0  0  0  0  0  0  0  0  0  0  0  0
    5.1781   -7.6863    0.0000 C   0  0  0  0  0  0  0  0  0  0  0  0
    4.4636   -8.0987    0.0000 C   0  0  0  0  0  0  0  0  0  0  0  0
    3.7492   -7.6863    0.0000 C   0  0  0  0  0  0  0  0  0  0  0  0
    3.0347   -8.0987    0.0000 C   0  0  0  0  0  0  0  0  0  0  0  0
    2.3202   -7.6863    0.0000 C   0  0  0  0  0  0  0  0  0  0  0  0
    1.6057   -8.0987    0.0000 C   0  0  0  0  0  0  0  0  0  0  0  0
    0.8913   -7.6863    0.0000 C   0  0  0  0  0  0  0  0  0  0  0  0
  2  1  1  0  0  0  0
  3  2  1  0  0  0  0
  4  3  1  0  0  0  0
  5  4  1  0  0  0  0
  6  5  1  0  0  0  0
  7  6  1  0  0  0  0
  8  7  1  0  0  0  0
  9  8  1  0  0  0  0
 10  9  1  0  0  0  0
 11 10  1  0  0  0  0
 12 11  1  0  0  0  0
 13 12  1  0  0  0  0
 14 13  1  0  0  0  0
 15 14  1  0  0  0  0
 16 15  1  0  0  0  0
 17 16  1  0  0  0  0
 18 17  1  0  0  0  0
 19 18  2  0  0  0  0
M  END
>  <cdx:fragmentId>
3

$$$$
