92691.cdx
  Mrv1902 05222410222D          

  8  7  0  0  0  0            999 V2000
    8.3686   -6.8888    0.0000 C   0  0  0  0  0  0  0  0  0  0  0  0
    7.6542   -6.4763    0.0000 C   0  0  0  0  0  0  0  0  0  0  0  0
    6.9397   -6.8888    0.0000 C   0  0  0  0  0  0  0  0  0  0  0  0
    6.2252   -6.4763    0.0000 C   0  0  0  0  0  0  0  0  0  0  0  0
    5.5107   -6.8888    0.0000 C   0  0  0  0  0  0  0  0  0  0  0  0
    4.7963   -6.4763    0.0000 O   0  0  0  0  0  0  0  0  0  0  0  0
    5.5107   -7.7138    0.0000 C   0  0  0  0  0  0  0  0  0  0  0  0
    4.7963   -8.1263    0.0000 C   0  0  0  0  0  0  0  0  0  0  0  0
  2  1  1  0  0  0  0
  3  2  1  0  0  0  0
  4  3  1  0  0  0  0
  5  4  1  0  0  0  0
  6  5  1  0  0  0  0
  5  7  1  0  0  0  0
  7  8  2  0  0  0  0
M  END
>  <cdx:fragmentId>
3

$$$$
