92690.cdx
  Mrv1902 05222410222D          

 17 16  0  0  0  0            999 V2000
    1.5788   -6.3525    0.0000 C   0  0  0  0  0  0  0  0  0  0  0  0
    2.2932   -5.9400    0.0000 C   0  0  0  0  0  0  0  0  0  0  0  0
    3.0077   -6.3525    0.0000 C   0  0  0  0  0  0  0  0  0  0  0  0
    3.7222   -5.9400    0.0000 C   0  0  0  0  0  0  0  0  0  0  0  0
    4.4367   -6.3525    0.0000 C   0  0  0  0  0  0  0  0  0  0  0  0
    5.1511   -5.9400    0.0000 C   0  0  0  0  0  0  0  0  0  0  0  0
    5.8656   -6.3525    0.0000 C   0  0  0  0  0  0  0  0  0  0  0  0
    6.5801   -5.9400    0.0000 C   0  0  0  0  0  0  0  0  0  0  0  0
    7.2945   -6.3525    0.0000 C   0  0  0  0  0  0  0  0  0  0  0  0
    8.0090   -5.9400    0.0000 C   0  0  0  0  0  0  0  0  0  0  0  0
    8.7235   -6.3525    0.0000 C   0  0  0  0  0  0  0  0  0  0  0  0
    9.4380   -5.9400    0.0000 C   0  0  0  0  0  0  0  0  0  0  0  0
   10.1524   -6.3525    0.0000 C   0  0  0  0  0  0  0  0  0  0  0  0
   10.8669   -5.9400    0.0000 C   0  0  0  0  0  0  0  0  0  0  0  0
   11.5814   -6.3525    0.0000 C   0  0  0  0  0  0  0  0  0  0  0  0
   12.2958   -5.9400    0.0000 C   0  0  0  0  0  0  0  0  0  0  0  0
   13.0103   -6.3525    0.0000 C   0  0  0  0  0  0  0  0  0  0  0  0
  1  2  2  0  0  0  0
  2  3  1  0  0  0  0
  3  4  1  0  0  0  0
  4  5  1  0  0  0  0
  5  6  1  0  0  0  0
  6  7  1  0  0  0  0
  7  8  1  0  0  0  0
  8  9  1  0  0  0  0
  9 10  1  0  0  0  0
 10 11  1  0  0  0  0
 11 12  1  0  0  0  0
 12 13  1  0  0  0  0
 13 14  1  0  0  0  0
 14 15  1  0  0  0  0
 15 16  1  0  0  0  0
 16 17  1  0  0  0  0
M  END
>  <cdx:fragmentId>
3

$$$$
