92695.cdx
  Mrv1902 05222410222D          

 14 15  0  0  0  0            999 V2000
    8.3062   -6.5481    0.0000 O   0  0  0  0  0  0  0  0  0  0  0  0
    7.9667   -7.3000    0.0000 C   0  0  0  0  0  0  0  0  0  0  0  0
    8.4482   -7.9700    0.0000 C   0  0  0  0  0  0  0  0  0  0  0  0
    7.1808   -7.5509    0.0000 C   0  0  0  0  0  0  0  0  0  0  0  0
    7.1765   -8.3759    0.0000 C   0  0  0  0  0  0  0  0  0  0  0  0
    7.9598   -8.6349    0.0000 N   0  0  0  0  0  0  0  0  0  0  0  0
    6.4685   -7.1347    0.0000 C   0  0  0  0  0  0  0  0  0  0  0  0
    5.7519   -7.5435    0.0000 C   0  0  0  0  0  0  0  0  0  0  0  0
    5.7476   -8.3685    0.0000 C   0  0  0  0  0  0  0  0  0  0  0  0
    6.4599   -8.7847    0.0000 C   0  0  0  0  0  0  0  0  0  0  0  0
    9.2732   -7.9743    0.0000 O   0  0  0  0  0  0  0  0  0  0  0  0
    9.1271   -6.4661    0.0000 C   0  0  0  0  0  0  0  0  0  0  0  0
    9.6086   -7.1361    0.0000 A   0  0  0  0  0  0  0  0  0  0  0  0
    9.4666   -5.7142    0.0000 O   0  0  0  0  0  0  0  0  0  0  0  0
  1  2  1  0  0  0  0
  2  3  1  0  0  0  0
  2  4  1  0  0  0  0
  4  5  2  0  0  0  0
  5  6  1  0  0  0  0
  6  3  1  0  0  0  0
  4  7  1  0  0  0  0
  7  8  2  0  0  0  0
  8  9  1  0  0  0  0
  9 10  2  0  0  0  0
 10  5  1  0  0  0  0
  3 11  2  0  0  0  0
  1 12  1  0  0  0  0
 12 13  1  0  0  0  0
 12 14  2  0  0  0  0
A   13
'C11H7O5'
M  END
>  <cdx:fragmentId>
5

$$$$
