92705.cdx
  Mrv1902 05222410252D          

 14 14  0  0  0  0            999 V2000
    6.2681   -7.9750    0.0000 C   0  0  0  0  0  0  0  0  0  0  0  0
    6.2681   -8.8000    0.0000 C   0  0  0  0  0  0  0  0  0  0  0  0
    6.9825   -9.2125    0.0000 C   0  0  0  0  0  0  0  0  0  0  0  0
    7.6970   -8.8000    0.0000 C   0  0  0  0  0  0  0  0  0  0  0  0
    7.6970   -7.9750    0.0000 C   0  0  0  0  0  0  0  0  0  0  0  0
    6.9825   -7.5625    0.0000 C   0  0  0  0  0  0  0  0  0  0  0  0
    6.9825  -10.0375    0.0000 O   0  0  0  0  0  0  0  0  0  0  0  0
    5.5536   -9.2125    0.0000 O   0  0  0  0  0  0  0  0  0  0  0  0
    4.8391   -8.8000    0.0000 C   0  0  0  0  0  0  0  0  0  0  0  0
    6.9825   -6.7375    0.0000 C   0  0  0  0  0  0  0  0  0  0  0  0
    6.2681   -6.3250    0.0000 O   0  0  0  0  0  0  0  0  0  0  0  0
    7.6970   -6.3250    0.0000 C   0  0  0  0  0  0  0  0  0  0  0  0
    7.6970   -5.5000    0.0000 C   0  0  0  0  0  0  0  0  0  0  0  0
    8.4115   -6.7375    0.0000 O   0  0  0  0  0  0  0  0  0  0  0  0
  1  2  2  0  0  0  0
  2  3  1  0  0  0  0
  3  4  2  0  0  0  0
  4  5  1  0  0  0  0
  5  6  2  0  0  0  0
  6  1  1  0  0  0  0
  3  7  1  0  0  0  0
  2  8  1  0  0  0  0
  8  9  1  0  0  0  0
  6 10  1  0  0  0  0
 10 11  2  0  0  0  0
 10 12  1  0  0  0  0
 12 13  1  0  0  0  0
 12 14  1  0  0  0  0
M  END
>  <cdx:fragmentId>
5

$$$$
