92700.cdx
  Mrv1902 05222410232D          

  8  7  0  0  0  0            999 V2000
    9.5088   -7.8650    0.0000 C   0  0  0  0  0  0  0  0  0  0  0  0
    8.7944   -7.4525    0.0000 C   0  0  0  0  0  0  0  0  0  0  0  0
    8.0799   -7.8650    0.0000 C   0  0  0  0  0  0  0  0  0  0  0  0
    7.3654   -7.4525    0.0000 C   0  0  0  0  0  0  0  0  0  0  0  0
    6.6509   -7.8650    0.0000 C   0  0  0  0  0  0  0  0  0  0  0  0
    5.9365   -7.4525    0.0000 C   0  0  0  0  0  0  0  0  0  0  0  0
    5.2220   -7.8650    0.0000 C   0  0  0  0  0  0  0  0  0  0  0  0
    4.5075   -7.4525    0.0000 C   0  0  0  0  0  0  0  0  0  0  0  0
  2  1  2  0  0  0  0
  3  2  1  0  0  0  0
  4  3  1  0  0  0  0
  5  4  1  0  0  0  0
  6  5  1  0  0  0  0
  7  6  1  0  0  0  0
  8  7  1  0  0  0  0
M  END
>  <cdx:fragmentId>
3

$$$$
