92708.cdx
  Mrv1902 05222410212D          

 13 12  0  0  0  0            999 V2000
    3.3800   -7.2875    0.0000 C   0  0  0  0  0  0  0  0  0  0  0  0
    4.0945   -6.8750    0.0000 C   0  0  0  0  0  0  0  0  0  0  0  0
    4.8090   -7.2875    0.0000 C   0  0  0  0  0  0  0  0  0  0  0  0
    5.5234   -6.8750    0.0000 C   0  0  0  0  0  0  0  0  0  0  0  0
    6.2379   -7.2875    0.0000 C   0  0  0  0  0  0  0  0  0  0  0  0
    6.9524   -6.8750    0.0000 C   0  0  0  0  0  0  0  0  0  0  0  0
    7.6669   -7.2875    0.0000 C   0  0  0  0  0  0  0  0  0  0  0  0
    8.3813   -6.8750    0.0000 C   0  0  0  0  0  0  0  0  0  0  0  0
    9.0958   -7.2875    0.0000 C   0  0  0  0  0  0  0  0  0  0  0  0
    9.8103   -6.8750    0.0000 C   0  0  0  0  0  0  0  0  0  0  0  0
   10.5247   -7.2875    0.0000 C   0  0  0  0  0  0  0  0  0  0  0  0
   11.2392   -6.8750    0.0000 C   0  0  0  0  0  0  0  0  0  0  0  0
   11.9537   -7.2875    0.0000 C   0  0  0  0  0  0  0  0  0  0  0  0
  1  2  2  0  0  0  0
  2  3  1  0  0  0  0
  3  4  1  0  0  0  0
  4  5  1  0  0  0  0
  5  6  1  0  0  0  0
  6  7  1  0  0  0  0
  7  8  1  0  0  0  0
  8  9  1  0  0  0  0
  9 10  1  0  0  0  0
 10 11  1  0  0  0  0
 11 12  1  0  0  0  0
 12 13  1  0  0  0  0
M  END
>  <cdx:fragmentId>
3

$$$$
