92715.cdx
  Mrv1902 05222410232D          

 33 34  0  0  0  0            999 V2000
    6.1581   -6.3250    0.0000 C   0  0  2  0  0  0  0  0  0  0  0  0
    6.1581   -7.1500    0.0000 C   0  0  0  0  0  0  0  0  0  0  0  0
    6.8725   -7.5625    0.0000 C   0  0  2  0  0  0  0  0  0  0  0  0
    7.5870   -7.1500    0.0000 C   0  0  1  0  0  0  0  0  0  0  0  0
    7.5870   -6.3250    0.0000 C   0  0  2  0  0  0  0  0  0  0  0  0
    6.8725   -5.9125    0.0000 C   0  0  0  0  0  0  0  0  0  0  0  0
    8.3716   -7.4049    0.0000 C   0  0  0  0  0  0  0  0  0  0  0  0
    8.8565   -6.7375    0.0000 C   0  0  0  0  0  0  0  0  0  0  0  0
    8.3716   -6.0701    0.0000 C   0  0  1  0  0  0  0  0  0  0  0  0
    6.8725   -5.0875    0.0000 C   0  0  0  0  0  0  0  0  0  0  0  0
    9.6815   -6.7375    0.0000 O   0  0  0  0  0  0  0  0  0  0  0  0
    8.6266   -8.1896    0.0000 C   0  0  0  0  0  0  0  0  0  0  0  0
    9.4234   -8.4031    0.0000 C   0  0  0  0  0  0  0  0  0  0  0  0
    6.8725   -8.3875    0.0000 C   0  0  0  0  0  0  0  0  0  0  0  0
    6.1581   -8.8000    0.0000 C   0  0  0  0  0  0  0  0  0  0  0  0
    5.4436   -5.9125    0.0000 O   0  0  0  0  0  0  0  0  0  0  0  0
    7.5870   -5.5000    0.0000 H   0  0  0  0  0  0  0  0  0  0  0  0
    8.6266   -5.2854    0.0000 O   0  0  0  0  0  0  0  0  0  0  0  0
    7.5870   -7.9750    0.0000 H   0  0  0  0  0  0  0  0  0  0  0  0
    7.5870   -8.8000    0.0000 C   0  0  0  0  0  0  0  0  0  0  0  0
    4.7801   -6.2953    0.0000 C   0  0  0  0  0  0  0  0  0  0  0  0
    4.0652   -5.8835    0.0000 C   0  0  0  0  0  0  0  0  0  0  0  0
    3.3512   -6.2968    0.0000 C   0  0  0  0  0  0  0  0  0  0  0  0
    2.6363   -5.8851    0.0000 C   0  0  0  0  0  0  0  0  0  0  0  0
    1.9222   -6.2983    0.0000 C   0  0  0  0  0  0  0  0  0  0  0  0
    4.7810   -7.1203    0.0000 O   0  0  0  0  0  0  0  0  0  0  0  0
    3.3521   -7.1218    0.0000 C   0  0  0  0  0  0  0  0  0  0  0  0
    9.3607   -4.8263    0.0000 C   0  0  0  0  0  0  0  0  0  0  0  0
   10.0752   -5.2387    0.0000 C   0  0  0  0  0  0  0  0  0  0  0  0
   10.7897   -4.8263    0.0000 C   0  0  0  0  0  0  0  0  0  0  0  0
    9.3607   -4.0012    0.0000 O   0  0  0  0  0  0  0  0  0  0  0  0
   10.0752   -6.0638    0.0000 C   0  0  0  0  0  0  0  0  0  0  0  0
   10.7897   -4.0012    0.0000 C   0  0  0  0  0  0  0  0  0  0  0  0
  1  2  1  0  0  0  0
  2  3  1  0  0  0  0
  3  4  1  0  0  0  0
  4  5  1  0  0  0  0
  5  6  1  0  0  0  0
  6  1  1  0  0  0  0
  4  7  1  0  0  0  0
  7  8  1  0  0  0  0
  8  9  1  0  0  0  0
  9  5  1  0  0  0  0
  6 10  2  0  0  0  0
  8 11  2  0  0  0  0
  7 12  2  0  0  0  0
 12 13  1  0  0  0  0
  3 14  1  6  0  0  0
 14 15  1  0  0  0  0
  1 16  1  1  0  0  0
  5 17  1  1  0  0  0
  9 18  1  6  0  0  0
  4 19  1  6  0  0  0
 14 20  1  0  0  0  0
 21 22  1  0  0  0  0
 22 23  2  0  0  0  0
 23 24  1  0  0  0  0
 24 25  1  0  0  0  0
 21 26  2  0  0  0  0
 23 27  1  0  0  0  0
 21 16  1  0  0  0  0
 28 29  1  0  0  0  0
 29 30  2  0  0  0  0
 28 31  2  0  0  0  0
 29 32  1  0  0  0  0
 30 33  1  0  0  0  0
 28 18  1  0  0  0  0
M  END
>  <cdx:fragmentId>
5

$$$$
