92717.cdx
  Mrv1902 05222410242D          

 16 17  0  0  0  0            999 V2000
    5.4431   -5.9262    0.0000 C   0  0  0  0  0  0  0  0  0  0  0  0
    5.4431   -6.7512    0.0000 C   0  0  0  0  0  0  0  0  0  0  0  0
    6.1575   -7.1638    0.0000 C   0  0  1  0  0  0  0  0  0  0  0  0
    6.8720   -6.7512    0.0000 C   0  0  1  0  0  0  0  0  0  0  0  0
    6.8720   -5.9262    0.0000 C   0  0  2  0  0  0  0  0  0  0  0  0
    6.1575   -5.5137    0.0000 C   0  0  2  0  0  0  0  0  0  0  0  0
    7.5865   -7.1638    0.0000 C   0  0  0  0  0  0  0  0  0  0  0  0
    8.3009   -6.7512    0.0000 C   0  0  0  0  0  0  0  0  0  0  0  0
    8.3009   -5.9262    0.0000 C   0  0  0  0  0  0  0  0  0  0  0  0
    7.5865   -5.5137    0.0000 C   0  0  0  0  0  0  0  0  0  0  0  0
    9.0154   -7.1638    0.0000 O   0  0  0  0  0  0  0  0  0  0  0  0
    6.1575   -4.6888    0.0000 O   0  0  0  0  0  0  0  0  0  0  0  0
    6.8720   -5.1013    0.0000 C   0  0  0  0  0  0  0  0  0  0  0  0
    6.5700   -7.8782    0.0000 O   0  0  0  0  0  0  0  0  0  0  0  0
    5.7450   -7.8782    0.0000 C   0  0  0  0  0  0  0  0  0  0  0  0
    6.8720   -7.5762    0.0000 H   0  0  0  0  0  0  0  0  0  0  0  0
  1  2  1  0  0  0  0
  2  3  1  0  0  0  0
  3  4  1  0  0  0  0
  4  5  1  0  0  0  0
  5  6  1  0  0  0  0
  6  1  1  0  0  0  0
  4  7  1  0  0  0  0
  7  8  1  0  0  0  0
  8  9  1  0  0  0  0
  9 10  2  0  0  0  0
 10  5  1  0  0  0  0
  8 11  2  0  0  0  0
  6 12  1  1  0  0  0
  5 13  1  1  0  0  0
  3 14  1  1  0  0  0
  3 15  1  6  0  0  0
  4 16  1  6  0  0  0
M  END
>  <cdx:fragmentId>
5

$$$$
