92713.cdx
  Mrv1902 05222410252D          

 29 31  0  0  0  0            999 V2000
    5.5531   -5.8300    0.0000 C   0  0  0  0  0  0  0  0  0  0  0  0
    5.5531   -6.6550    0.0000 C   0  0  0  0  0  0  0  0  0  0  0  0
    6.2675   -7.0675    0.0000 C   0  0  0  0  0  0  0  0  0  0  0  0
    6.9820   -6.6550    0.0000 C   0  0  2  0  0  0  0  0  0  0  0  0
    6.9820   -5.8300    0.0000 C   0  0  1  0  0  0  0  0  0  0  0  0
    6.2675   -5.4175    0.0000 C   0  0  1  0  0  0  0  0  0  0  0  0
    7.6965   -7.0675    0.0000 C   0  0  1  0  0  0  0  0  0  0  0  0
    8.4109   -6.6550    0.0000 C   0  0  1  0  0  0  0  0  0  0  0  0
    8.4109   -5.8300    0.0000 C   0  0  0  0  0  0  0  0  0  0  0  0
    7.6965   -5.4175    0.0000 C   0  0  0  0  0  0  0  0  0  0  0  0
    9.1254   -7.8925    0.0000 C   0  0  0  0  0  0  0  0  0  0  0  0
    9.1254   -7.0675    0.0000 C   0  0  0  0  0  0  0  0  0  0  0  0
    9.8399   -6.6550    0.0000 C   0  0  0  0  0  0  0  0  0  0  0  0
    6.2675   -4.5925    0.0000 O   0  0  0  0  0  0  0  0  0  0  0  0
    6.9820   -5.0050    0.0000 C   0  0  0  0  0  0  0  0  0  0  0  0
    6.9820   -7.4800    0.0000 H   0  0  0  0  0  0  0  0  0  0  0  0
    6.2675   -7.8925    0.0000 C   0  0  0  0  0  0  0  0  0  0  0  0
    7.6965   -7.8925    0.0000 O   0  0  0  0  0  0  0  0  0  0  0  0
    7.2840   -8.6070    0.0000 C   0  0  2  0  0  0  0  0  0  0  0  0
    6.4590   -8.6070    0.0000 O   0  0  0  0  0  0  0  0  0  0  0  0
    6.0465   -9.3214    0.0000 C   0  0  1  0  0  0  0  0  0  0  0  0
    6.4590  -10.0359    0.0000 C   0  0  2  0  0  0  0  0  0  0  0  0
    7.2840  -10.0359    0.0000 C   0  0  1  0  0  0  0  0  0  0  0  0
    7.6965   -9.3214    0.0000 C   0  0  1  0  0  0  0  0  0  0  0  0
    5.2215   -9.3214    0.0000 C   0  0  0  0  0  0  0  0  0  0  0  0
    7.6965  -10.7504    0.0000 O   0  0  0  0  0  0  0  0  0  0  0  0
    6.0465  -10.7504    0.0000 O   0  0  0  0  0  0  0  0  0  0  0  0
    8.5215   -9.3214    0.0000 O   0  0  0  0  0  0  0  0  0  0  0  0
    4.8090  -10.0359    0.0000 O   0  0  0  0  0  0  0  0  0  0  0  0
  1  2  1  0  0  0  0
  2  3  1  0  0  0  0
  3  4  1  0  0  0  0
  4  5  1  0  0  0  0
  5  6  1  0  0  0  0
  6  1  1  0  0  0  0
  4  7  1  0  0  0  0
  7  8  1  0  0  0  0
  8  9  1  0  0  0  0
  9 10  1  0  0  0  0
 10  5  1  0  0  0  0
 11 12  1  0  0  0  0
  8 12  1  1  0  0  0
 12 13  1  0  0  0  0
  6 14  1  6  0  0  0
  5 15  1  6  0  0  0
  4 16  1  1  0  0  0
  3 17  2  0  0  0  0
  7 18  1  1  0  0  0
 19 18  1  1  0  0  0
 19 20  1  0  0  0  0
 20 21  1  0  0  0  0
 21 22  1  0  0  0  0
 22 23  1  0  0  0  0
 23 24  1  0  0  0  0
 24 19  1  0  0  0  0
 21 25  1  1  0  0  0
 23 26  1  1  0  0  0
 22 27  1  6  0  0  0
 24 28  1  6  0  0  0
 25 29  1  0  0  0  0
M  END
>  <cdx:fragmentId>
5

$$$$
