92714.cdx
  Mrv1902 05222410232D          

 31 32  0  0  0  0            999 V2000
    5.0443   -6.3937    0.0000 C   0  0  0  0  0  0  0  0  0  0  0  0
    5.0443   -7.2188    0.0000 C   0  0  0  0  0  0  0  0  0  0  0  0
    5.7588   -7.6313    0.0000 C   0  0  0  0  0  0  0  0  0  0  0  0
    6.4732   -7.2188    0.0000 C   0  0  0  0  0  0  0  0  0  0  0  0
    6.4732   -6.3937    0.0000 C   0  0  0  0  0  0  0  0  0  0  0  0
    5.7588   -5.9813    0.0000 C   0  0  0  0  0  0  0  0  0  0  0  0
    7.1877   -7.6313    0.0000 C   0  0  1  0  0  0  0  0  0  0  0  0
    7.9022   -7.2188    0.0000 C   0  0  2  0  0  0  0  0  0  0  0  0
    7.9022   -6.3937    0.0000 C   0  0  0  0  0  0  0  0  0  0  0  0
    7.1877   -5.9813    0.0000 C   0  0  1  0  0  0  0  0  0  0  0  0
    4.3298   -5.9813    0.0000 O   0  0  0  0  0  0  0  0  0  0  0  0
    5.7588   -5.1563    0.0000 C   0  0  0  0  0  0  0  0  0  0  0  0
    8.6167   -5.9813    0.0000 O   0  0  0  0  0  0  0  0  0  0  0  0
    5.7588   -8.4563    0.0000 C   0  0  0  0  0  0  0  0  0  0  0  0
    6.4732   -8.8688    0.0000 C   0  0  0  0  0  0  0  0  0  0  0  0
    5.0443   -8.8688    0.0000 C   0  0  0  0  0  0  0  0  0  0  0  0
    7.1877   -5.1563    0.0000 O   0  0  0  0  0  0  0  0  0  0  0  0
    8.7272   -7.2188    0.0000 C   0  0  0  0  0  0  0  0  0  0  0  0
    7.9022   -8.0437    0.0000 O   0  0  0  0  0  0  0  0  0  0  0  0
    3.6309   -6.3415    0.0000 C   0  0  0  0  0  0  0  0  0  0  0  0
    2.9234   -5.9172    0.0000 C   0  0  0  0  0  0  0  0  0  0  0  0
    3.6173   -7.1664    0.0000 O   0  0  0  0  0  0  0  0  0  0  0  0
    2.2022   -6.3179    0.0000 C   0  0  0  0  0  0  0  0  0  0  0  0
    2.9370   -5.0924    0.0000 C   0  0  0  0  0  0  0  0  0  0  0  0
    2.1886   -7.1428    0.0000 C   0  0  0  0  0  0  0  0  0  0  0  0
    7.5892   -4.3907    0.0000 C   0  0  0  0  0  0  0  0  0  0  0  0
    8.4142   -4.3848    0.0000 C   0  0  0  0  0  0  0  0  0  0  0  0
    7.1716   -3.6792    0.0000 O   0  0  0  0  0  0  0  0  0  0  0  0
    8.8215   -3.6673    0.0000 C   0  0  0  0  0  0  0  0  0  0  0  0
    8.8318   -5.0963    0.0000 C   0  0  0  0  0  0  0  0  0  0  0  0
    8.4039   -2.9559    0.0000 C   0  0  0  0  0  0  0  0  0  0  0  0
  1  2  1  0  0  0  0
  2  3  1  0  0  0  0
  4  5  1  0  0  0  0
  5  6  1  0  0  0  0
  6  1  1  0  0  0  0
  4  7  1  0  0  0  0
  7  8  1  0  0  0  0
  8  9  1  0  0  0  0
  9 10  1  0  0  0  0
 10  5  1  0  0  0  0
  1 11  1  0  0  0  0
  6 12  2  0  0  0  0
  9 13  2  0  0  0  0
  3 14  2  0  0  0  0
 14 15  1  0  0  0  0
 14 16  1  0  0  0  0
 10 17  1  6  0  0  0
  8 18  1  6  0  0  0
  7 19  1  1  0  0  0
  8 19  1  1  0  0  0
 20 21  1  0  0  0  0
 20 22  2  0  0  0  0
 21 23  2  0  0  0  0
 21 24  1  0  0  0  0
 23 25  1  0  0  0  0
 26 27  1  0  0  0  0
 26 28  2  0  0  0  0
 27 29  2  0  0  0  0
 27 30  1  0  0  0  0
 29 31  1  0  0  0  0
 20 11  1  0  0  0  0
 26 17  1  0  0  0  0
M  END
>  <cdx:fragmentId>
5

$$$$
