92710.cdx
  Mrv1902 05222410252D          

 11 10  0  0  0  0            999 V2000
   11.2260   -7.4937    0.0000 C   0  0  0  0  0  0  0  0  0  0  0  0
   10.5115   -7.9063    0.0000 C   0  0  0  0  0  0  0  0  0  0  0  0
    9.7970   -7.4937    0.0000 C   0  0  0  0  0  0  0  0  0  0  0  0
    9.0826   -7.9063    0.0000 C   0  0  0  0  0  0  0  0  0  0  0  0
    8.3681   -7.4937    0.0000 C   0  0  0  0  0  0  0  0  0  0  0  0
    7.6536   -7.9063    0.0000 C   0  0  0  0  0  0  0  0  0  0  0  0
    6.9392   -7.4937    0.0000 C   0  0  0  0  0  0  0  0  0  0  0  0
    6.2247   -7.9063    0.0000 C   0  0  0  0  0  0  0  0  0  0  0  0
    5.5102   -7.4937    0.0000 C   0  0  0  0  0  0  0  0  0  0  0  0
    4.7957   -7.9063    0.0000 C   0  0  0  0  0  0  0  0  0  0  0  0
    4.0813   -7.4937    0.0000 C   0  0  0  0  0  0  0  0  0  0  0  0
  2  1  1  0  0  0  0
  3  2  1  0  0  0  0
  4  3  1  0  0  0  0
  5  4  1  0  0  0  0
  6  5  1  0  0  0  0
  7  6  1  0  0  0  0
  8  7  1  0  0  0  0
  9  8  1  0  0  0  0
 10  9  1  0  0  0  0
 11 10  2  0  0  0  0
M  END
>  <cdx:fragmentId>
3

$$$$
