92718.cdx
  Mrv1902 05222410232D          

 11 11  0  0  0  0            999 V2000
    4.9893   -6.0225    0.0000 C   0  0  1  0  0  0  0  0  0  0  0  0
    4.9893   -6.8475    0.0000 C   0  0  0  0  0  0  0  0  0  0  0  0
    5.7038   -7.2600    0.0000 C   0  0  0  0  0  0  0  0  0  0  0  0
    6.4182   -6.8475    0.0000 C   0  0  2  0  0  0  0  0  0  0  0  0
    6.4182   -6.0225    0.0000 C   0  0  0  0  0  0  0  0  0  0  0  0
    5.7038   -5.6100    0.0000 C   0  0  0  0  0  0  0  0  0  0  0  0
    4.5768   -5.3080    0.0000 C   0  0  0  0  0  0  0  0  0  0  0  0
    7.1327   -7.2600    0.0000 C   0  0  0  0  0  0  0  0  0  0  0  0
    4.1643   -6.0225    0.0000 O   0  0  0  0  0  0  0  0  0  0  0  0
    7.8472   -6.8475    0.0000 C   0  0  0  0  0  0  0  0  0  0  0  0
    7.1327   -8.0850    0.0000 C   0  0  0  0  0  0  0  0  0  0  0  0
  1  2  1  0  0  0  0
  2  3  1  0  0  0  0
  3  4  1  0  0  0  0
  4  5  1  0  0  0  0
  5  6  1  0  0  0  0
  6  1  1  0  0  0  0
  1  7  1  6  0  0  0
  4  8  1  6  0  0  0
  1  9  1  1  0  0  0
  8 10  1  0  0  0  0
  8 11  2  0  0  0  0
M  END
>  <cdx:fragmentId>
5

$$$$
