9271.cdx
  Mrv1902 05222410242D          

 43 46  0  0  0  0            999 V2000
    8.9019   -8.1998    0.0000 C   0  0  0  0  0  0  0  0  0  0  0  0
    5.0045  -10.0644    0.0000 C   0  0  0  0  0  0  0  0  0  0  0  0
    4.2900  -10.4769    0.0000 C   0  0  2  0  0  0  0  0  0  0  0  0
    4.2900  -11.3019    0.0000 C   0  0  2  0  0  0  0  0  0  0  0  0
    5.0045  -11.7144    0.0000 C   0  0  0  0  0  0  0  0  0  0  0  0
    5.7190  -11.3019    0.0000 C   0  0  0  0  0  0  0  0  0  0  0  0
    6.4334  -11.7144    0.0000 C   0  0  0  0  0  0  0  0  0  0  0  0
    7.1479  -11.3019    0.0000 C   0  0  0  0  0  0  0  0  0  0  0  0
    7.1479  -10.4769    0.0000 C   0  0  1  0  0  0  0  0  0  0  0  0
    7.8624  -10.0644    0.0000 C   0  0  2  0  0  0  0  0  0  0  0  0
    8.6470  -10.3193    0.0000 C   0  0  0  0  0  0  0  0  0  0  0  0
    9.1319   -9.6519    0.0000 C   0  0  2  0  0  0  0  0  0  0  0  0
    8.6470   -8.9845    0.0000 C   0  0  1  0  0  0  0  0  0  0  0  0
    7.8624   -9.2394    0.0000 C   0  0  1  0  0  0  0  0  0  0  0  0
    7.1479   -8.8269    0.0000 C   0  0  0  0  0  0  0  0  0  0  0  0
    6.4334   -9.2394    0.0000 C   0  0  0  0  0  0  0  0  0  0  0  0
    6.4334  -10.0644    0.0000 C   0  0  1  0  0  0  0  0  0  0  0  0
    5.7190  -10.4769    0.0000 C   0  0  2  0  0  0  0  0  0  0  0  0
    5.7190   -8.8269    0.0000 O   0  0  0  0  0  0  0  0  0  0  0  0
    3.5756  -11.7144    0.0000 O   0  0  0  0  0  0  0  0  0  0  0  0
    7.8624  -10.8894    0.0000 C   0  0  0  0  0  0  0  0  0  0  0  0
    7.9486   -8.4189    0.0000 C   0  0  0  0  0  0  0  0  0  0  0  0
    6.4334  -10.8894    0.0000 C   0  0  0  0  0  0  0  0  0  0  0  0
    5.4170  -12.4289    0.0000 C   0  0  0  0  0  0  0  0  0  0  0  0
    4.5920  -12.4289    0.0000 C   0  0  0  0  0  0  0  0  0  0  0  0
    9.9569   -9.6519    0.0000 O   0  0  0  0  0  0  0  0  0  0  0  0
    3.5756  -10.0644    0.0000 O   0  0  0  0  0  0  0  0  0  0  0  0
    7.1479   -9.6519    0.0000 H   0  0  0  0  0  0  0  0  0  0  0  0
    5.7190   -9.6519    0.0000 H   0  0  0  0  0  0  0  0  0  0  0  0
    9.4618   -8.8554    0.0000 H   0  0  0  0  0  0  0  0  0  0  0  0
    8.1051   -7.9863    0.0000 C   0  0  0  0  0  0  0  0  0  0  0  0
    9.6988   -8.4134    0.0000 O   0  0  0  0  0  0  0  0  0  0  0  0
    9.1155   -7.4030    0.0000 C   0  0  0  0  0  0  0  0  0  0  0  0
    9.9124   -7.1894    0.0000 C   0  0  0  0  0  0  0  0  0  0  0  0
   10.1259   -6.3925    0.0000 C   0  0  0  0  0  0  0  0  0  0  0  0
    8.5321   -6.8196    0.0000 O   0  0  0  0  0  0  0  0  0  0  0  0
   10.9228   -6.1790    0.0000 C   0  0  0  0  0  0  0  0  0  0  0  0
   11.7197   -5.9655    0.0000 O   0  0  0  0  0  0  0  0  0  0  0  0
   10.7092   -5.3821    0.0000 C   0  0  0  0  0  0  0  0  0  0  0  0
   11.1363   -6.9759    0.0000 C   0  0  0  0  0  0  0  0  0  0  0  0
   11.9332   -5.1686    0.0000 C   0  0  0  0  0  0  0  0  0  0  0  0
   12.7301   -4.9551    0.0000 C   0  0  0  0  0  0  0  0  0  0  0  0
   11.3498   -4.5852    0.0000 O   0  0  0  0  0  0  0  0  0  0  0  0
  2  3  1  0  0  0  0
  3  4  1  0  0  0  0
  4  5  1  0  0  0  0
  5  6  1  0  0  0  0
  6  7  2  0  0  0  0
  7  8  1  0  0  0  0
  8  9  1  0  0  0  0
  9 10  1  0  0  0  0
 10 11  1  0  0  0  0
 11 12  1  0  0  0  0
 12 13  1  0  0  0  0
 13 14  1  0  0  0  0
 10 14  1  0  0  0  0
 14 15  1  0  0  0  0
 15 16  1  0  0  0  0
 16 17  1  0  0  0  0
  9 17  1  0  0  0  0
 17 18  1  0  0  0  0
  6 18  1  0  0  0  0
  2 18  1  0  0  0  0
 16 19  2  0  0  0  0
  4 20  1  6  0  0  0
 10 21  1  6  0  0  0
 14 22  1  1  0  0  0
 17 23  1  1  0  0  0
  5 24  1  0  0  0  0
  5 25  1  0  0  0  0
 12 26  1  6  0  0  0
  3 27  1  6  0  0  0
 13  1  1  0  0  0  0
  9 28  1  1  0  0  0
 18 29  1  6  0  0  0
 13 30  1  6  0  0  0
  1 31  1  0  0  0  0
  1 32  1  1  0  0  0
  1 33  1  0  0  0  0
 33 34  1  0  0  0  0
 34 35  2  0  0  0  0
 33 36  2  0  0  0  0
 35 37  1  0  0  0  0
 37 38  1  0  0  0  0
 37 39  1  0  0  0  0
 37 40  1  0  0  0  0
 38 41  1  0  0  0  0
 41 42  1  0  0  0  0
 41 43  2  0  0  0  0
M  END
>  <cdx:fragmentId>
245

$$$$
