92721.cdx
  Mrv1902 05222410212D          

 30 34  0  0  0  0            999 V2000
    5.1980   -6.7375    0.0000 C   0  0  0  0  0  0  0  0  0  0  0  0
    5.1980   -7.5625    0.0000 C   0  0  0  0  0  0  0  0  0  0  0  0
    5.9125   -7.9750    0.0000 C   0  0  0  0  0  0  0  0  0  0  0  0
    6.6270   -7.5625    0.0000 C   0  0  0  0  0  0  0  0  0  0  0  0
    6.6270   -6.7375    0.0000 C   0  0  0  0  0  0  0  0  0  0  0  0
    5.9125   -6.3250    0.0000 C   0  0  0  0  0  0  0  0  0  0  0  0
    7.4116   -7.8174    0.0000 O   0  0  0  0  0  0  0  0  0  0  0  0
    7.8965   -7.1500    0.0000 C   0  0  0  0  0  0  0  0  0  0  0  0
    7.4116   -6.4826    0.0000 C   0  0  0  0  0  0  0  0  0  0  0  0
    8.7215   -7.1500    0.0000 C   0  0  0  0  0  0  0  0  0  0  0  0
    9.1340   -7.8645    0.0000 C   0  0  0  0  0  0  0  0  0  0  0  0
    9.9590   -7.8645    0.0000 C   0  0  0  0  0  0  0  0  0  0  0  0
   10.3715   -7.1500    0.0000 C   0  0  0  0  0  0  0  0  0  0  0  0
    9.9590   -6.4355    0.0000 C   0  0  0  0  0  0  0  0  0  0  0  0
    9.1340   -6.4355    0.0000 C   0  0  0  0  0  0  0  0  0  0  0  0
   10.3715   -8.5789    0.0000 O   0  0  0  0  0  0  0  0  0  0  0  0
   10.3715   -5.7211    0.0000 O   0  0  0  0  0  0  0  0  0  0  0  0
   11.1965   -5.7211    0.0000 C   0  0  0  0  0  0  0  0  0  0  0  0
    4.4836   -7.9750    0.0000 O   0  0  0  0  0  0  0  0  0  0  0  0
    8.7215   -5.7211    0.0000 C   0  0  0  0  0  0  0  0  0  0  0  0
    9.1340   -5.0066    0.0000 C   0  0  0  0  0  0  0  0  0  0  0  0
    9.0750   -4.2900    0.0000 C   0  0  2  0  0  0  0  0  0  0  0  0
    9.8175   -4.6200    0.0000 C   0  0  0  0  0  0  0  0  0  0  0  0
   10.1750   -3.8500    0.0000 C   0  0  0  0  0  0  0  0  0  0  0  0
    8.4916   -3.7066    0.0000 C   0  0  0  0  0  0  0  0  0  0  0  0
    8.2781   -4.5035    0.0000 C   0  0  0  0  0  0  0  0  0  0  0  0
   10.8900   -4.5650    0.0000 C   0  0  0  0  0  0  0  0  0  0  0  0
   11.0550   -3.8500    0.0000 C   0  0  0  0  0  0  0  0  0  0  0  0
    9.6800   -3.0525    0.0000 O   0  0  0  0  0  0  0  0  0  0  0  0
   10.2300   -5.3345    0.0000 C   0  0  0  0  0  0  0  0  0  0  0  0
  1  2  2  0  0  0  0
  2  3  1  0  0  0  0
  3  4  2  0  0  0  0
  4  5  1  0  0  0  0
  5  6  2  0  0  0  0
  6  1  1  0  0  0  0
  4  7  1  0  0  0  0
  7  8  1  0  0  0  0
  8  9  2  0  0  0  0
  9  5  1  0  0  0  0
  8 10  1  0  0  0  0
 10 11  2  0  0  0  0
 11 12  1  0  0  0  0
 12 13  2  0  0  0  0
 13 14  1  0  0  0  0
 14 15  2  0  0  0  0
 15 10  1  0  0  0  0
 12 16  1  0  0  0  0
 14 17  1  0  0  0  0
 17 18  1  0  0  0  0
  2 19  1  0  0  0  0
 15 20  1  0  0  0  0
 20 21  1  0  0  0  0
 21 22  1  0  0  0  0
 21 23  1  0  0  0  0
 22 24  1  0  0  0  0
 22 25  1  0  0  0  0
 22 26  1  6  0  0  0
 23 27  1  0  0  0  0
 27 28  1  0  0  0  0
 28 24  1  0  0  0  0
 24 29  1  0  0  0  0
 29 23  1  0  0  0  0
 23 30  1  0  0  0  0
M  END
>  <cdx:fragmentId>
849

$$$$
