92725.cdx
  Mrv1902 05222410232D          

 21 22  0  0  0  0            999 V2000
    6.1443  -10.1200    0.0000 C   0  0  0  0  0  0  0  0  0  0  0  0
    6.1443  -10.9450    0.0000 C   0  0  0  0  0  0  0  0  0  0  0  0
    6.8588  -11.3575    0.0000 C   0  0  0  0  0  0  0  0  0  0  0  0
    7.5732  -10.9450    0.0000 C   0  0  0  0  0  0  0  0  0  0  0  0
    7.5732  -10.1200    0.0000 C   0  0  0  0  0  0  0  0  0  0  0  0
    6.8588   -9.7075    0.0000 C   0  0  0  0  0  0  0  0  0  0  0  0
    6.8588  -12.1825    0.0000 C   0  0  0  0  0  0  0  0  0  0  0  0
    5.4298   -9.7075    0.0000 O   0  0  0  0  0  0  0  0  0  0  0  0
    4.7154  -10.1200    0.0000 C   0  0  0  0  0  0  0  0  0  0  0  0
    4.0009   -9.7075    0.0000 C   0  0  0  0  0  0  0  0  0  0  0  0
    4.7154  -10.9450    0.0000 O   0  0  0  0  0  0  0  0  0  0  0  0
    3.2864  -10.1200    0.0000 C   0  0  0  0  0  0  0  0  0  0  0  0
    4.0009   -8.8825    0.0000 C   0  0  0  0  0  0  0  0  0  0  0  0
    6.8588   -8.8825    0.0000 C   0  0  0  0  0  0  0  0  0  0  0  0
    7.2713   -8.1680    0.0000 C   0  0  0  0  0  0  0  0  0  0  0  0
    6.4463   -8.1680    0.0000 O   0  0  0  0  0  0  0  0  0  0  0  0
    7.9857   -7.7555    0.0000 C   0  0  0  0  0  0  0  0  0  0  0  0
    7.9857   -6.9305    0.0000 O   0  0  0  0  0  0  0  0  0  0  0  0
    8.7002   -6.5180    0.0000 C   0  0  0  0  0  0  0  0  0  0  0  0
    8.7002   -5.6930    0.0000 C   0  0  0  0  0  0  0  0  0  0  0  0
    9.4147   -6.9305    0.0000 O   0  0  0  0  0  0  0  0  0  0  0  0
  1  2  2  0  0  0  0
  2  3  1  0  0  0  0
  3  4  2  0  0  0  0
  4  5  1  0  0  0  0
  5  6  2  0  0  0  0
  6  1  1  0  0  0  0
  3  7  1  0  0  0  0
  1  8  1  0  0  0  0
  8  9  1  0  0  0  0
  9 10  1  0  0  0  0
  9 11  2  0  0  0  0
 10 12  1  0  0  0  0
 10 13  1  0  0  0  0
  6 14  1  0  0  0  0
 14 15  1  0  0  0  0
 15 16  1  0  0  0  0
 16 14  1  0  0  0  0
 15 17  1  0  0  0  0
 17 18  1  0  0  0  0
 18 19  1  0  0  0  0
 19 20  1  0  0  0  0
 19 21  2  0  0  0  0
M  END
>  <cdx:fragmentId>
5

$$$$
