92724.cdx
  Mrv1902 05222410232D          

 40 43  0  0  0  0            999 V2000
    6.2650   -8.6144    0.0000 C   0  0  0  0  0  0  0  0  0  0  0  0
    5.2223   -9.0947    0.0000 C   0  0  0  0  0  0  0  0  0  0  0  0
    5.5748   -8.3488    0.0000 C   0  0  0  0  0  0  0  0  0  0  0  0
    6.6059   -7.8409    0.0000 C   0  0  0  0  0  0  0  0  0  0  0  0
    6.1275   -6.9995    0.0000 N   0  0  0  0  0  0  0  0  0  0  0  0
    7.3634   -8.1672    0.0000 C   0  0  0  0  0  0  0  0  0  0  0  0
    7.0494   -8.7574    0.0000 C   0  0  0  0  0  0  0  0  0  0  0  0
    7.8077   -9.5162    0.0000 C   0  0  0  0  0  0  0  0  0  0  0  0
    4.6360   -9.6752    0.0000 O   0  0  0  0  0  0  0  0  0  0  0  0
    3.9230   -9.2602    0.0000 C   0  0  0  0  0  0  0  0  0  0  0  0
    3.2071   -9.6702    0.0000 C   0  0  0  0  0  0  0  0  0  0  0  0
    3.9259   -8.4352    0.0000 O   0  0  0  0  0  0  0  0  0  0  0  0
    2.4941   -9.2552    0.0000 C   0  0  0  0  0  0  0  0  0  0  0  0
    3.2042  -10.4952    0.0000 C   0  0  0  0  0  0  0  0  0  0  0  0
    2.4929   -8.4302    0.0000 C   0  0  0  0  0  0  0  0  0  0  0  0
    6.1094   -6.1755    0.0000 C   0  0  0  0  0  0  0  0  0  0  0  0
    7.8077  -10.3412    0.0000 O   0  0  0  0  0  0  0  0  0  0  0  0
    8.5222  -10.7537    0.0000 C   0  0  0  0  0  0  0  0  0  0  0  0
    8.5222  -11.5787    0.0000 O   0  0  0  0  0  0  0  0  0  0  0  0
    9.2367  -10.3412    0.0000 C   0  0  0  0  0  0  0  0  0  0  0  0
    9.9511  -10.7537    0.0000 C   0  0  0  0  0  0  0  0  0  0  0  0
    9.2367   -9.5162    0.0000 C   0  0  0  0  0  0  0  0  0  0  0  0
    9.9511   -9.1037    0.0000 C   0  0  0  0  0  0  0  0  0  0  0  0
    9.9511   -8.2787    0.0000 C   0  0  0  0  0  0  0  0  0  0  0  0
    9.2367   -7.8662    0.0000 C   0  0  0  0  0  0  0  0  0  0  0  0
    8.5222   -8.2787    0.0000 C   0  0  0  0  0  0  0  0  0  0  0  0
    8.5222   -9.1037    0.0000 C   0  0  0  0  0  0  0  0  0  0  0  0
    7.2947   -5.1147    0.0000 C   0  0  0  0  0  0  0  0  0  0  0  0
    7.9997   -4.6862    0.0000 C   0  0  0  0  0  0  0  0  0  0  0  0
    6.5711   -4.7184    0.0000 O   0  0  0  0  0  0  0  0  0  0  0  0
    6.5711   -3.8934    0.0000 C   0  0  0  0  0  0  0  0  0  0  0  0
    5.8566   -3.4809    0.0000 C   0  0  0  0  0  0  0  0  0  0  0  0
    7.2856   -3.4809    0.0000 O   0  0  0  0  0  0  0  0  0  0  0  0
    8.7232   -5.0825    0.0000 C   0  0  0  0  0  0  0  0  0  0  0  0
    9.4282   -4.6540    0.0000 C   0  0  0  0  0  0  0  0  0  0  0  0
   10.1518   -5.0503    0.0000 C   0  0  0  0  0  0  0  0  0  0  0  0
   10.8568   -4.6218    0.0000 C   0  0  0  0  0  0  0  0  0  0  0  0
   10.8382   -3.7971    0.0000 C   0  0  0  0  0  0  0  0  0  0  0  0
   10.1147   -3.4007    0.0000 C   0  0  0  0  0  0  0  0  0  0  0  0
    9.4097   -3.8292    0.0000 C   0  0  0  0  0  0  0  0  0  0  0  0
  1  2  1  0  0  0  0
  2  3  1  0  0  0  0
  3  4  1  0  0  0  0
  1  5  1  0  0  0  0
  4  5  1  0  0  0  0
  4  6  1  0  0  0  0
  1  7  1  0  0  0  0
  6  8  1  0  0  0  0
  7  8  1  0  0  0  0
  2  9  1  0  0  0  0
  9 10  1  0  0  0  0
 10 11  1  0  0  0  0
 10 12  2  0  0  0  0
 11 13  2  0  0  0  0
 11 14  1  0  0  0  0
 13 15  1  0  0  0  0
  5 16  1  0  0  0  0
  8 17  1  0  0  0  0
 17 18  1  0  0  0  0
 18 19  2  0  0  0  0
 18 20  1  0  0  0  0
 20 21  2  0  0  0  0
 20 22  1  0  0  0  0
 22 23  2  0  0  0  0
 23 24  1  0  0  0  0
 24 25  2  0  0  0  0
 25 26  1  0  0  0  0
 26 27  2  0  0  0  0
 27 22  1  0  0  0  0
  6 28  1  0  0  0  0
 28 29  1  0  0  0  0
 28 30  1  0  0  0  0
 30 31  1  0  0  0  0
 31 32  1  0  0  0  0
 31 33  2  0  0  0  0
 29 34  2  0  0  0  0
 34 35  1  0  0  0  0
 35 36  2  0  0  0  0
 36 37  1  0  0  0  0
 37 38  2  0  0  0  0
 38 39  1  0  0  0  0
 39 40  2  0  0  0  0
 40 35  1  0  0  0  0
M  END
>  <cdx:groupId>
816

>  <cdx:fragmentId>
817

$$$$
