92726.cdx
  Mrv1902 05222410222D          

 26 28  0  0  0  0            999 V2000
    3.9856   -7.3838    0.0000 C   0  0  0  0  0  0  0  0  0  0  0  0
    3.9856   -8.2088    0.0000 C   0  0  0  0  0  0  0  0  0  0  0  0
    4.7000   -8.6212    0.0000 C   0  0  0  0  0  0  0  0  0  0  0  0
    5.4145   -8.2088    0.0000 C   0  0  0  0  0  0  0  0  0  0  0  0
    5.4145   -7.3838    0.0000 C   0  0  0  0  0  0  0  0  0  0  0  0
    4.7000   -6.9712    0.0000 C   0  0  0  0  0  0  0  0  0  0  0  0
    6.1991   -8.4637    0.0000 O   0  0  0  0  0  0  0  0  0  0  0  0
    6.6840   -7.7963    0.0000 C   0  0  1  0  0  0  0  0  0  0  0  0
    6.1991   -7.1288    0.0000 C   0  0  1  0  0  0  0  0  0  0  0  0
    4.7000   -9.4462    0.0000 O   0  0  0  0  0  0  0  0  0  0  0  0
    3.9856   -9.8588    0.0000 C   0  0  0  0  0  0  0  0  0  0  0  0
    3.2711   -6.9712    0.0000 C   0  0  0  0  0  0  0  0  0  0  0  0
    2.5566   -7.3838    0.0000 C   0  0  0  0  0  0  0  0  0  0  0  0
    1.8421   -6.9712    0.0000 C   0  0  0  0  0  0  0  0  0  0  0  0
    7.5090   -7.7963    0.0000 C   0  0  0  0  0  0  0  0  0  0  0  0
    7.9215   -8.5107    0.0000 C   0  0  0  0  0  0  0  0  0  0  0  0
    8.7465   -8.5107    0.0000 C   0  0  0  0  0  0  0  0  0  0  0  0
    9.1590   -7.7963    0.0000 C   0  0  0  0  0  0  0  0  0  0  0  0
    8.7465   -7.0818    0.0000 C   0  0  0  0  0  0  0  0  0  0  0  0
    7.9215   -7.0818    0.0000 C   0  0  0  0  0  0  0  0  0  0  0  0
    9.1590   -6.3673    0.0000 O   0  0  0  0  0  0  0  0  0  0  0  0
    9.9840   -7.7963    0.0000 O   0  0  0  0  0  0  0  0  0  0  0  0
    9.1590   -9.2252    0.0000 O   0  0  0  0  0  0  0  0  0  0  0  0
    8.7465   -9.9397    0.0000 C   0  0  0  0  0  0  0  0  0  0  0  0
    6.4541   -6.3442    0.0000 C   0  0  0  0  0  0  0  0  0  0  0  0
    8.7465   -5.6528    0.0000 C   0  0  0  0  0  0  0  0  0  0  0  0
  1  2  2  0  0  0  0
  2  3  1  0  0  0  0
  3  4  2  0  0  0  0
  4  5  1  0  0  0  0
  5  6  2  0  0  0  0
  6  1  1  0  0  0  0
  4  7  1  0  0  0  0
  7  8  1  0  0  0  0
  8  9  1  0  0  0  0
  9  5  1  0  0  0  0
  3 10  1  0  0  0  0
 10 11  1  0  0  0  0
  1 12  1  0  0  0  0
 12 13  2  0  0  0  0
 13 14  1  0  0  0  0
  8 15  1  1  0  0  0
 15 16  2  0  0  0  0
 16 17  1  0  0  0  0
 17 18  2  0  0  0  0
 18 19  1  0  0  0  0
 19 20  2  0  0  0  0
 20 15  1  0  0  0  0
 19 21  1  0  0  0  0
 18 22  1  0  0  0  0
 17 23  1  0  0  0  0
 23 24  1  0  0  0  0
  9 25  1  6  0  0  0
 21 26  1  0  0  0  0
M  END
>  <cdx:fragmentId>
5

$$$$
