92722.cdx
  Mrv1902 05222410212D          

 14 15  0  0  0  0            999 V2000
    4.9481   -5.9950    0.0000 C   0  0  0  0  0  0  0  0  0  0  0  0
    4.9481   -6.8200    0.0000 C   0  0  0  0  0  0  0  0  0  0  0  0
    5.6625   -7.2325    0.0000 C   0  0  0  0  0  0  0  0  0  0  0  0
    6.3770   -6.8200    0.0000 C   0  0  0  0  0  0  0  0  0  0  0  0
    6.3770   -5.9950    0.0000 C   0  0  0  0  0  0  0  0  0  0  0  0
    5.6625   -5.5825    0.0000 C   0  0  0  0  0  0  0  0  0  0  0  0
    7.0915   -7.2325    0.0000 C   0  0  0  0  0  0  0  0  0  0  0  0
    7.8059   -6.8200    0.0000 C   0  0  0  0  0  0  0  0  0  0  0  0
    7.8059   -5.9950    0.0000 C   0  0  0  0  0  0  0  0  0  0  0  0
    7.0915   -5.5825    0.0000 C   0  0  0  0  0  0  0  0  0  0  0  0
    6.3770   -7.6450    0.0000 C   0  0  0  0  0  0  0  0  0  0  0  0
    8.5204   -5.5825    0.0000 O   0  0  0  0  0  0  0  0  0  0  0  0
    4.1231   -5.9950    0.0000 C   0  0  0  0  0  0  0  0  0  0  0  0
    4.5356   -5.2805    0.0000 C   0  0  0  0  0  0  0  0  0  0  0  0
  1  2  1  0  0  0  0
  2  3  1  0  0  0  0
  3  4  1  0  0  0  0
  4  5  1  0  0  0  0
  5  6  1  0  0  0  0
  6  1  1  0  0  0  0
  4  7  1  0  0  0  0
  7  8  1  0  0  0  0
  8  9  1  0  0  0  0
  9 10  1  0  0  0  0
 10  5  1  0  0  0  0
  4 11  1  0  0  0  0
  9 12  2  0  0  0  0
  1 13  1  0  0  0  0
  1 14  1  0  0  0  0
M  END
>  <cdx:fragmentId>
5

$$$$
