92727.cdx
  Mrv1902 05222410222D          

 26 28  0  0  0  0            999 V2000
    5.9518   -7.4525    0.0000 C   0  0  0  0  0  0  0  0  0  0  0  0
    5.9518   -8.2775    0.0000 C   0  0  0  0  0  0  0  0  0  0  0  0
    6.6663   -8.6900    0.0000 C   0  0  0  0  0  0  0  0  0  0  0  0
    7.3807   -8.2775    0.0000 C   0  0  0  0  0  0  0  0  0  0  0  0
    7.3807   -7.4525    0.0000 C   0  0  0  0  0  0  0  0  0  0  0  0
    6.6663   -7.0400    0.0000 C   0  0  0  0  0  0  0  0  0  0  0  0
    5.2373   -7.0400    0.0000 C   0  0  0  0  0  0  0  0  0  0  0  0
    4.5229   -7.4525    0.0000 C   0  0  0  0  0  0  0  0  0  0  0  0
    3.8084   -7.0400    0.0000 C   0  0  0  0  0  0  0  0  0  0  0  0
    6.6663   -9.5150    0.0000 O   0  0  0  0  0  0  0  0  0  0  0  0
    5.9518   -9.9275    0.0000 C   0  0  0  0  0  0  0  0  0  0  0  0
    8.0952   -7.0400    0.0000 O   0  0  0  0  0  0  0  0  0  0  0  0
    8.0952   -6.2150    0.0000 C   0  0  0  0  0  0  0  0  0  0  0  0
    8.0952   -8.6900    0.0000 O   0  0  0  0  0  0  0  0  0  0  0  0
    8.8122   -8.2819    0.0000 C   0  0  0  0  0  0  0  0  0  0  0  0
    9.4843   -8.7603    0.0000 C   0  0  0  0  0  0  0  0  0  0  0  0
   10.1470   -8.2689    0.0000 O   0  0  0  0  0  0  0  0  0  0  0  0
    9.8845   -7.4868    0.0000 C   0  0  0  0  0  0  0  0  0  0  0  0
    9.0595   -7.4948    0.0000 C   0  0  0  0  0  0  0  0  0  0  0  0
   10.2900   -6.7683    0.0000 C   0  0  0  0  0  0  0  0  0  0  0  0
    9.8705   -6.0579    0.0000 C   0  0  0  0  0  0  0  0  0  0  0  0
    9.0456   -6.0660    0.0000 C   0  0  0  0  0  0  0  0  0  0  0  0
    8.6401   -6.7844    0.0000 C   0  0  0  0  0  0  0  0  0  0  0  0
    8.6261   -5.3555    0.0000 O   0  0  0  0  0  0  0  0  0  0  0  0
    9.0316   -4.6371    0.0000 C   0  0  0  0  0  0  0  0  0  0  0  0
    9.4924   -9.5853    0.0000 C   0  0  0  0  0  0  0  0  0  0  0  0
  1  2  2  0  0  0  0
  2  3  1  0  0  0  0
  3  4  2  0  0  0  0
  4  5  1  0  0  0  0
  5  6  2  0  0  0  0
  6  1  1  0  0  0  0
  1  7  1  0  0  0  0
  7  8  1  0  0  0  0
  8  9  2  0  0  0  0
  3 10  1  0  0  0  0
 10 11  1  0  0  0  0
  5 12  1  0  0  0  0
 12 13  1  0  0  0  0
  4 14  1  0  0  0  0
 14 15  1  0  0  0  0
 15 16  1  0  0  0  0
 16 17  1  0  0  0  0
 17 18  1  0  0  0  0
 18 19  2  0  0  0  0
 19 15  1  0  0  0  0
 18 20  1  0  0  0  0
 20 21  2  0  0  0  0
 21 22  1  0  0  0  0
 22 23  2  0  0  0  0
 23 19  1  0  0  0  0
 22 24  1  0  0  0  0
 24 25  1  0  0  0  0
 16 26  1  0  0  0  0
M  END
>  <cdx:fragmentId>
5

$$$$
