92723.cdx
  Mrv1902 05222410212D          

 14 15  0  0  0  0            999 V2000
    5.3881   -5.9675    0.0000 C   0  0  0  0  0  0  0  0  0  0  0  0
    5.3881   -6.7925    0.0000 C   0  0  0  0  0  0  0  0  0  0  0  0
    6.1025   -7.2050    0.0000 C   0  0  0  0  0  0  0  0  0  0  0  0
    6.8170   -6.7925    0.0000 C   0  0  0  0  0  0  0  0  0  0  0  0
    6.8170   -5.9675    0.0000 C   0  0  0  0  0  0  0  0  0  0  0  0
    6.1025   -5.5550    0.0000 C   0  0  0  0  0  0  0  0  0  0  0  0
    7.5315   -7.2050    0.0000 C   0  0  0  0  0  0  0  0  0  0  0  0
    8.2459   -6.7925    0.0000 C   0  0  0  0  0  0  0  0  0  0  0  0
    8.2459   -5.9675    0.0000 C   0  0  0  0  0  0  0  0  0  0  0  0
    7.5315   -5.5550    0.0000 C   0  0  0  0  0  0  0  0  0  0  0  0
    5.6900   -4.8405    0.0000 C   0  0  0  0  0  0  0  0  0  0  0  0
    6.5150   -4.8405    0.0000 C   0  0  0  0  0  0  0  0  0  0  0  0
    4.6736   -5.5550    0.0000 O   0  0  0  0  0  0  0  0  0  0  0  0
    6.8170   -7.6175    0.0000 C   0  0  0  0  0  0  0  0  0  0  0  0
  1  2  1  0  0  0  0
  2  3  2  0  0  0  0
  3  4  1  0  0  0  0
  4  5  1  0  0  0  0
  5  6  1  0  0  0  0
  6  1  1  0  0  0  0
  4  7  1  0  0  0  0
  7  8  1  0  0  0  0
  8  9  2  0  0  0  0
  9 10  1  0  0  0  0
 10  5  1  0  0  0  0
  6 11  1  0  0  0  0
  6 12  1  0  0  0  0
  1 13  2  0  0  0  0
  4 14  1  0  0  0  0
M  END
>  <cdx:fragmentId>
5

$$$$
