92737.cdx
  Mrv1902 05222410212D          

 11 11  0  0  0  0            999 V2000
    5.6768   -6.8475    0.0000 C   0  0  0  0  0  0  0  0  0  0  0  0
    5.6768   -7.6725    0.0000 C   0  0  0  0  0  0  0  0  0  0  0  0
    6.3913   -8.0850    0.0000 C   0  0  0  0  0  0  0  0  0  0  0  0
    7.1057   -7.6725    0.0000 C   0  0  0  0  0  0  0  0  0  0  0  0
    7.1057   -6.8475    0.0000 C   0  0  0  0  0  0  0  0  0  0  0  0
    6.3913   -6.4350    0.0000 C   0  0  0  0  0  0  0  0  0  0  0  0
    7.8202   -6.4350    0.0000 O   0  0  0  0  0  0  0  0  0  0  0  0
    5.9788   -8.7995    0.0000 C   0  0  0  0  0  0  0  0  0  0  0  0
    6.8038   -8.7995    0.0000 C   0  0  0  0  0  0  0  0  0  0  0  0
    4.9623   -8.0850    0.0000 C   0  0  0  0  0  0  0  0  0  0  0  0
    4.2479   -7.6725    0.0000 O   0  0  0  0  0  0  0  0  0  0  0  0
  1  2  1  0  0  0  0
  2  3  1  0  0  0  0
  3  4  1  0  0  0  0
  4  5  1  0  0  0  0
  5  6  1  0  0  0  0
  6  1  1  0  0  0  0
  5  7  2  0  0  0  0
  3  8  1  0  0  0  0
  3  9  1  0  0  0  0
  2 10  1  0  0  0  0
 10 11  2  0  0  0  0
M  END
>  <cdx:fragmentId>
5

$$$$
