92733.cdx
  Mrv1902 05222410222D          

 42 46  0  0  0  0            999 V2000
    5.2506   -4.2763    0.0000 C   0  0  0  0  0  0  0  0  0  0  0  0
    5.2506   -5.1013    0.0000 C   0  0  0  0  0  0  0  0  0  0  0  0
    5.9650   -5.5137    0.0000 C   0  0  0  0  0  0  0  0  0  0  0  0
    6.6795   -5.1013    0.0000 C   0  0  0  0  0  0  0  0  0  0  0  0
    6.6795   -4.2763    0.0000 C   0  0  0  0  0  0  0  0  0  0  0  0
    5.9650   -3.8638    0.0000 C   0  0  0  0  0  0  0  0  0  0  0  0
    5.9650   -6.3388    0.0000 C   0  0  0  0  0  0  0  0  0  0  0  0
    6.6795   -6.7512    0.0000 C   0  0  0  0  0  0  0  0  0  0  0  0
    7.3940   -6.3388    0.0000 C   0  0  0  0  0  0  0  0  0  0  0  0
    7.3940   -5.5137    0.0000 O   0  0  0  0  0  0  0  0  0  0  0  0
    5.2506   -6.7512    0.0000 O   0  0  0  0  0  0  0  0  0  0  0  0
    5.2506   -7.5762    0.0000 O   0  0  0  0  0  0  0  0  0  0  0  0
    5.9650   -7.9888    0.0000 C   0  0  1  0  0  0  0  0  0  0  0  0
    6.6795   -7.5762    0.0000 O   0  0  0  0  0  0  0  0  0  0  0  0
    8.1084   -7.5762    0.0000 C   0  0  0  0  0  0  0  0  0  0  0  0
    8.1084   -6.7512    0.0000 C   0  0  0  0  0  0  0  0  0  0  0  0
    8.8229   -7.9888    0.0000 C   0  0  0  0  0  0  0  0  0  0  0  0
    9.5374   -7.5762    0.0000 C   0  0  0  0  0  0  0  0  0  0  0  0
    9.5374   -6.7512    0.0000 C   0  0  0  0  0  0  0  0  0  0  0  0
    8.8229   -6.3388    0.0000 C   0  0  0  0  0  0  0  0  0  0  0  0
    4.5361   -7.9888    0.0000 C   0  0  2  0  0  0  0  0  0  0  0  0
    4.5361   -8.8138    0.0000 C   0  0  1  0  0  0  0  0  0  0  0  0
    5.2506   -9.2263    0.0000 C   0  0  2  0  0  0  0  0  0  0  0  0
    5.9650   -8.8138    0.0000 C   0  0  1  0  0  0  0  0  0  0  0  0
    5.2506  -10.0512    0.0000 O   0  0  0  0  0  0  0  0  0  0  0  0
    5.9650  -10.4637    0.0000 O   0  0  0  0  0  0  0  0  0  0  0  0
    6.6795  -10.0512    0.0000 C   0  0  0  0  0  0  0  0  0  0  0  0
    6.6795   -9.2263    0.0000 O   0  0  0  0  0  0  0  0  0  0  0  0
    7.3940  -10.4637    0.0000 C   0  0  0  0  0  0  0  0  0  0  0  0
    7.3940  -11.2888    0.0000 C   0  0  0  0  0  0  0  0  0  0  0  0
    8.1084  -11.7012    0.0000 C   0  0  0  0  0  0  0  0  0  0  0  0
    8.8229  -11.2888    0.0000 C   0  0  0  0  0  0  0  0  0  0  0  0
    8.1084  -12.5262    0.0000 C   0  0  0  0  0  0  0  0  0  0  0  0
    8.8229  -12.9387    0.0000 C   0  0  0  0  0  0  0  0  0  0  0  0
    9.5374  -12.5262    0.0000 C   0  0  0  0  0  0  0  0  0  0  0  0
    9.5374  -11.7012    0.0000 C   0  0  0  0  0  0  0  0  0  0  0  0
    5.9650   -3.0387    0.0000 O   0  0  0  0  0  0  0  0  0  0  0  0
    4.5361   -5.5137    0.0000 O   0  0  0  0  0  0  0  0  0  0  0  0
   10.2519   -6.3388    0.0000 O   0  0  0  0  0  0  0  0  0  0  0  0
   10.2519   -7.9888    0.0000 O   0  0  0  0  0  0  0  0  0  0  0  0
    3.8216   -9.2263    0.0000 O   0  0  0  0  0  0  0  0  0  0  0  0
    3.8216   -7.5762    0.0000 C   0  0  0  0  0  0  0  0  0  0  0  0
  1  2  1  0  0  0  0
  2  3  2  0  0  0  0
  3  4  1  0  0  0  0
  4  5  2  0  0  0  0
  5  6  1  0  0  0  0
  6  1  2  0  0  0  0
  3  7  1  0  0  0  0
  7  8  1  0  0  0  0
  8  9  2  0  0  0  0
  9 10  1  0  0  0  0
 10  4  1  0  0  0  0
  7 11  2  0  0  0  0
 12 13  1  0  0  0  0
 13 14  1  1  0  0  0
 14  8  1  0  0  0  0
 15 16  1  0  0  0  0
 16  9  1  0  0  0  0
 15 17  2  0  0  0  0
 17 18  1  0  0  0  0
 18 19  2  0  0  0  0
 19 20  1  0  0  0  0
 20 16  2  0  0  0  0
 12 21  1  0  0  0  0
 21 22  1  0  0  0  0
 22 23  1  0  0  0  0
 23 24  1  0  0  0  0
 24 13  1  0  0  0  0
 23 25  1  6  0  0  0
 26 27  2  0  0  0  0
 27 28  1  0  0  0  0
 24 28  1  6  0  0  0
 27 29  1  0  0  0  0
 29 30  2  0  0  0  0
 30 31  1  0  0  0  0
 31 32  1  0  0  0  0
 31 33  2  0  0  0  0
 33 34  1  0  0  0  0
 34 35  2  0  0  0  0
 35 36  1  0  0  0  0
 36 32  2  0  0  0  0
  6 37  1  0  0  0  0
  2 38  1  0  0  0  0
 19 39  1  0  0  0  0
 18 40  1  0  0  0  0
 22 41  1  1  0  0  0
 21 42  1  6  0  0  0
M  END
>  <cdx:fragmentId>
5

$$$$
