92732.cdx
  Mrv1902 05222410222D          

 31 33  0  0  0  0            999 V2000
    4.1093   -8.8275    0.0000 C   0  0  0  0  0  0  0  0  0  0  0  0
    4.1093   -9.6525    0.0000 C   0  0  0  0  0  0  0  0  0  0  0  0
    4.8238  -10.0650    0.0000 C   0  0  0  0  0  0  0  0  0  0  0  0
    5.5382   -9.6525    0.0000 C   0  0  0  0  0  0  0  0  0  0  0  0
    5.5382   -8.8275    0.0000 C   0  0  0  0  0  0  0  0  0  0  0  0
    4.8238   -8.4150    0.0000 C   0  0  0  0  0  0  0  0  0  0  0  0
    6.3229   -9.9074    0.0000 O   0  0  0  0  0  0  0  0  0  0  0  0
    6.8078   -9.2400    0.0000 C   0  0  0  0  0  0  0  0  0  0  0  0
    6.3229   -8.5726    0.0000 C   0  0  0  0  0  0  0  0  0  0  0  0
    3.3948  -10.0650    0.0000 O   0  0  0  0  0  0  0  0  0  0  0  0
    7.6328   -9.2400    0.0000 C   0  0  0  0  0  0  0  0  0  0  0  0
    8.0453   -9.9545    0.0000 C   0  0  0  0  0  0  0  0  0  0  0  0
    8.8703   -9.9545    0.0000 C   0  0  0  0  0  0  0  0  0  0  0  0
    9.2828   -9.2400    0.0000 C   0  0  0  0  0  0  0  0  0  0  0  0
    8.8703   -8.5255    0.0000 C   0  0  0  0  0  0  0  0  0  0  0  0
    8.0453   -8.5255    0.0000 C   0  0  0  0  0  0  0  0  0  0  0  0
    9.2828   -7.8111    0.0000 O   0  0  0  0  0  0  0  0  0  0  0  0
    9.2828  -10.6689    0.0000 O   0  0  0  0  0  0  0  0  0  0  0  0
    7.6427   -7.7945    0.0000 C   0  0  0  0  0  0  0  0  0  0  0  0
    6.8177   -7.7975    0.0000 C   0  0  0  0  0  0  0  0  0  0  0  0
    6.4026   -7.0846    0.0000 C   0  0  0  0  0  0  0  0  0  0  0  0
    5.5776   -7.0876    0.0000 C   0  0  0  0  0  0  0  0  0  0  0  0
    6.8125   -6.3686    0.0000 C   0  0  0  0  0  0  0  0  0  0  0  0
    5.1625   -6.3747    0.0000 C   0  0  0  0  0  0  0  0  0  0  0  0
    4.3375   -6.3777    0.0000 C   0  0  0  0  0  0  0  0  0  0  0  0
    3.9224   -5.6647    0.0000 C   0  0  0  0  0  0  0  0  0  0  0  0
    3.9276   -7.0937    0.0000 O   0  0  0  0  0  0  0  0  0  0  0  0
    3.2079   -6.0772    0.0000 C   0  0  0  0  0  0  0  0  0  0  0  0
    4.6368   -5.2522    0.0000 C   0  0  0  0  0  0  0  0  0  0  0  0
    3.5073   -4.9518    0.0000 O   0  0  0  0  0  0  0  0  0  0  0  0
    8.8703   -7.0966    0.0000 C   0  0  0  0  0  0  0  0  0  0  0  0
  1  2  2  0  0  0  0
  2  3  1  0  0  0  0
  3  4  2  0  0  0  0
  4  5  1  0  0  0  0
  5  6  2  0  0  0  0
  6  1  1  0  0  0  0
  4  7  1  0  0  0  0
  7  8  1  0  0  0  0
  8  9  2  0  0  0  0
  9  5  1  0  0  0  0
  2 10  1  0  0  0  0
  8 11  1  0  0  0  0
 11 12  2  0  0  0  0
 12 13  1  0  0  0  0
 13 14  2  0  0  0  0
 14 15  1  0  0  0  0
 15 16  2  0  0  0  0
 16 11  1  0  0  0  0
 15 17  1  0  0  0  0
 13 18  1  0  0  0  0
 19 20  1  0  0  0  0
 20 21  2  0  0  0  0
 21 22  1  0  0  0  0
 21 23  1  0  0  0  0
 22 24  1  0  0  0  0
 24 25  1  0  0  0  0
 25 26  1  0  0  0  0
 25 27  1  0  0  0  0
 26 28  1  0  0  0  0
 26 29  1  0  0  0  0
 26 30  1  0  0  0  0
 19 16  1  0  0  0  0
 17 31  1  0  0  0  0
M  END
>  <cdx:fragmentId>
5

$$$$
