92736.cdx
  Mrv1902 05222410212D          

 17 18  0  0  0  0            999 V2000
    5.3331   -6.8475    0.0000 C   0  0  0  0  0  0  0  0  0  0  0  0
    5.3331   -7.6725    0.0000 C   0  0  0  0  0  0  0  0  0  0  0  0
    6.0475   -8.0850    0.0000 C   0  0  0  0  0  0  0  0  0  0  0  0
    6.7620   -7.6725    0.0000 C   0  0  0  0  0  0  0  0  0  0  0  0
    6.7620   -6.8475    0.0000 C   0  0  0  0  0  0  0  0  0  0  0  0
    6.0475   -6.4350    0.0000 C   0  0  0  0  0  0  0  0  0  0  0  0
    7.5466   -7.9274    0.0000 O   0  0  0  0  0  0  0  0  0  0  0  0
    8.0315   -7.2600    0.0000 C   0  0  0  0  0  0  0  0  0  0  0  0
    7.5466   -6.5926    0.0000 O   0  0  0  0  0  0  0  0  0  0  0  0
    8.7460   -6.8475    0.0000 C   0  0  0  0  0  0  0  0  0  0  0  0
    8.7460   -6.0225    0.0000 C   0  0  0  0  0  0  0  0  0  0  0  0
    9.4605   -5.6100    0.0000 C   0  0  0  0  0  0  0  0  0  0  0  0
    8.0315   -5.6100    0.0000 C   0  0  0  0  0  0  0  0  0  0  0  0
    8.7460   -7.6725    0.0000 C   0  0  0  0  0  0  0  0  0  0  0  0
    8.7460   -8.4975    0.0000 C   0  0  0  0  0  0  0  0  0  0  0  0
    9.4605   -8.9100    0.0000 C   0  0  0  0  0  0  0  0  0  0  0  0
    8.0315   -8.9100    0.0000 C   0  0  0  0  0  0  0  0  0  0  0  0
  1  2  2  0  0  0  0
  2  3  1  0  0  0  0
  3  4  2  0  0  0  0
  4  5  1  0  0  0  0
  5  6  2  0  0  0  0
  6  1  1  0  0  0  0
  4  7  1  0  0  0  0
  7  8  1  0  0  0  0
  8  9  1  0  0  0  0
  9  5  1  0  0  0  0
  8 10  1  0  0  0  0
 10 11  1  0  0  0  0
 11 12  1  0  0  0  0
 11 13  1  0  0  0  0
  8 14  1  0  0  0  0
 14 15  1  0  0  0  0
 15 16  1  0  0  0  0
 15 17  1  0  0  0  0
M  END
>  <cdx:fragmentId>
5

$$$$
