92730.cdx
  Mrv1902 05222410232D          

 32 34  0  0  0  0            999 V2000
    9.7266   -6.4374    0.0000 C   0  0  0  0  0  0  0  0  0  0  0  0
   10.4413   -6.8495    0.0000 C   0  0  0  0  0  0  0  0  0  0  0  0
   11.1556   -6.4366    0.0000 C   0  0  0  0  0  0  0  0  0  0  0  0
   11.1551   -5.6116    0.0000 C   0  0  0  0  0  0  0  0  0  0  0  0
   10.4404   -5.1995    0.0000 C   0  0  0  0  0  0  0  0  0  0  0  0
    9.7262   -5.6124    0.0000 C   0  0  0  0  0  0  0  0  0  0  0  0
   10.4400   -4.3745    0.0000 O   0  0  0  0  0  0  0  0  0  0  0  0
   10.4417   -7.6745    0.0000 C   0  0  0  0  0  0  0  0  0  0  0  0
    9.7275   -8.0874    0.0000 C   0  0  0  0  0  0  0  0  0  0  0  0
    9.7279   -8.9124    0.0000 O   0  0  0  0  0  0  0  0  0  0  0  0
    9.0136   -9.3252    0.0000 C   0  0  2  0  0  0  0  0  0  0  0  0
    8.2990   -8.9131    0.0000 O   0  0  0  0  0  0  0  0  0  0  0  0
    7.5847   -9.3260    0.0000 C   0  0  1  0  0  0  0  0  0  0  0  0
    7.5851  -10.1510    0.0000 C   0  0  2  0  0  0  0  0  0  0  0  0
    8.2998  -10.5631    0.0000 C   0  0  1  0  0  0  0  0  0  0  0  0
    9.0141  -10.1502    0.0000 C   0  0  1  0  0  0  0  0  0  0  0  0
    6.8700   -8.9138    0.0000 C   0  0  0  0  0  0  0  0  0  0  0  0
    8.3002  -11.3881    0.0000 O   0  0  0  0  0  0  0  0  0  0  0  0
    6.8709  -10.5638    0.0000 O   0  0  0  0  0  0  0  0  0  0  0  0
    9.7288  -10.5624    0.0000 O   0  0  0  0  0  0  0  0  0  0  0  0
    6.1558   -9.3267    0.0000 O   0  0  0  0  0  0  0  0  0  0  0  0
    5.4411   -8.9146    0.0000 C   0  0  2  0  0  0  0  0  0  0  0  0
    5.4404   -8.0896    0.0000 O   0  0  0  0  0  0  0  0  0  0  0  0
    4.7256   -7.6776    0.0000 C   0  0  1  0  0  0  0  0  0  0  0  0
    4.0115   -8.0896    0.0000 C   0  0  2  0  0  0  0  0  0  0  0  0
    4.0115   -8.9146    0.0000 C   0  0  1  0  0  0  0  0  0  0  0  0
    4.7256   -9.3265    0.0000 C   0  0  1  0  0  0  0  0  0  0  0  0
    3.2971   -9.3272    0.0000 O   0  0  0  0  0  0  0  0  0  0  0  0
    4.7255   -6.8526    0.0000 C   0  0  0  0  0  0  0  0  0  0  0  0
    3.2971   -7.6769    0.0000 O   0  0  0  0  0  0  0  0  0  0  0  0
    4.7253  -10.1515    0.0000 O   0  0  0  0  0  0  0  0  0  0  0  0
    4.0110   -6.4401    0.0000 O   0  0  0  0  0  0  0  0  0  0  0  0
  1  2  2  0  0  0  0
  2  3  1  0  0  0  0
  3  4  2  0  0  0  0
  4  5  1  0  0  0  0
  5  6  2  0  0  0  0
  6  1  1  0  0  0  0
  5  7  1  0  0  0  0
  2  8  1  0  0  0  0
  8  9  1  0  0  0  0
  9 10  1  0  0  0  0
 11 10  1  1  0  0  0
 11 12  1  0  0  0  0
 12 13  1  0  0  0  0
 13 14  1  0  0  0  0
 14 15  1  0  0  0  0
 15 16  1  0  0  0  0
 16 11  1  0  0  0  0
 13 17  1  1  0  0  0
 15 18  1  1  0  0  0
 14 19  1  6  0  0  0
 16 20  1  6  0  0  0
 17 21  1  0  0  0  0
 22 21  1  1  0  0  0
 22 23  1  0  0  0  0
 23 24  1  0  0  0  0
 24 25  1  0  0  0  0
 25 26  1  0  0  0  0
 26 27  1  0  0  0  0
 27 22  1  0  0  0  0
 26 28  1  1  0  0  0
 24 29  1  1  0  0  0
 25 30  1  6  0  0  0
 27 31  1  6  0  0  0
 29 32  1  0  0  0  0
M  END
>  <cdx:fragmentId>
5

$$$$
