92745.cdx
  Mrv1902 05222410192D          

 21 22  0  0  0  0            999 V2000
    5.4431   -7.3975    0.0000 C   0  0  0  0  0  0  0  0  0  0  0  0
    5.4431   -8.2225    0.0000 C   0  0  0  0  0  0  0  0  0  0  0  0
    6.1575   -8.6350    0.0000 C   0  0  0  0  0  0  0  0  0  0  0  0
    6.8720   -8.2225    0.0000 C   0  0  0  0  0  0  0  0  0  0  0  0
    6.8720   -7.3975    0.0000 C   0  0  0  0  0  0  0  0  0  0  0  0
    6.1575   -6.9850    0.0000 C   0  0  0  0  0  0  0  0  0  0  0  0
    7.5865   -8.6350    0.0000 C   0  0  0  0  0  0  0  0  0  0  0  0
    8.3009   -8.2225    0.0000 C   0  0  0  0  0  0  0  0  0  0  0  0
    8.3009   -7.3975    0.0000 C   0  0  0  0  0  0  0  0  0  0  0  0
    7.5865   -6.9850    0.0000 O   0  0  0  0  0  0  0  0  0  0  0  0
    6.1575   -6.1600    0.0000 C   0  0  0  0  0  0  0  0  0  0  0  0
    5.4431   -5.7475    0.0000 C   0  0  0  0  0  0  0  0  0  0  0  0
    4.7286   -6.9850    0.0000 O   0  0  0  0  0  0  0  0  0  0  0  0
    6.1575   -4.5100    0.0000 C   0  0  0  0  0  0  0  0  0  0  0  0
    5.4431   -4.9225    0.0000 C   0  0  0  0  0  0  0  0  0  0  0  0
    4.7286   -4.5100    0.0000 C   0  0  0  0  0  0  0  0  0  0  0  0
    4.7286   -8.6350    0.0000 O   0  0  0  0  0  0  0  0  0  0  0  0
    6.1575   -9.4600    0.0000 O   0  0  0  0  0  0  0  0  0  0  0  0
    7.5865   -9.4600    0.0000 O   0  0  0  0  0  0  0  0  0  0  0  0
    8.7134   -6.6830    0.0000 C   0  0  0  0  0  0  0  0  0  0  0  0
    9.1259   -7.3975    0.0000 C   0  0  0  0  0  0  0  0  0  0  0  0
  1  2  2  0  0  0  0
  2  3  1  0  0  0  0
  3  4  2  0  0  0  0
  4  5  1  0  0  0  0
  5  6  2  0  0  0  0
  6  1  1  0  0  0  0
  4  7  1  0  0  0  0
  7  8  1  0  0  0  0
  8  9  1  0  0  0  0
  9 10  1  0  0  0  0
 10  5  1  0  0  0  0
  6 11  1  0  0  0  0
 11 12  1  0  0  0  0
 13  1  1  0  0  0  0
 14 15  1  0  0  0  0
 15 12  2  0  0  0  0
 15 16  1  0  0  0  0
  2 17  1  0  0  0  0
  3 18  1  0  0  0  0
  7 19  2  0  0  0  0
  9 20  1  0  0  0  0
  9 21  1  0  0  0  0
M  END
>  <cdx:fragmentId>
5

$$$$
