92747.cdx
  Mrv1902 05222410202D          

 11 10  0  0  0  0            999 V2000
    8.2234   -3.5186    0.0000 C   0  0  0  0  0  0  0  0  0  0  0  0
    8.2234   -4.3436    0.0000 C   0  0  0  0  0  0  0  0  0  0  0  0
    7.5089   -4.7561    0.0000 C   0  0  0  0  0  0  0  0  0  0  0  0
    6.7945   -4.3436    0.0000 C   0  0  0  0  0  0  0  0  0  0  0  0
    6.0800   -4.7561    0.0000 C   0  0  0  0  0  0  0  0  0  0  0  0
    5.3655   -4.3436    0.0000 C   0  0  0  0  0  0  0  0  0  0  0  0
    4.6510   -4.7561    0.0000 C   0  0  0  0  0  0  0  0  0  0  0  0
    8.9379   -3.9311    0.0000 O   0  0  0  0  0  0  0  0  0  0  0  0
    6.4925   -5.4706    0.0000 C   0  0  0  0  0  0  0  0  0  0  0  0
    5.6675   -5.4706    0.0000 C   0  0  0  0  0  0  0  0  0  0  0  0
    8.9379   -4.7561    0.0000 C   0  0  0  0  0  0  0  0  0  0  0  0
  1  2  1  0  0  0  0
  2  3  1  0  0  0  0
  3  4  2  0  0  0  0
  4  5  1  0  0  0  0
  5  6  1  0  0  0  0
  6  7  2  0  0  0  0
  2  8  1  0  0  0  0
  5  9  1  0  0  0  0
  5 10  1  0  0  0  0
  2 11  1  0  0  0  0
M  END
>  <cdx:fragmentId>
2275

$$$$
