92748.cdx
  Mrv1902 05222410272D          

 13 13  0  0  0  0            999 V2000
    6.5706   -7.2050    0.0000 C   0  0  0  0  0  0  0  0  0  0  0  0
    6.5706   -8.0300    0.0000 C   0  0  0  0  0  0  0  0  0  0  0  0
    7.2850   -8.4425    0.0000 C   0  0  0  0  0  0  0  0  0  0  0  0
    7.9995   -8.0300    0.0000 C   0  0  0  0  0  0  0  0  0  0  0  0
    7.9995   -7.2050    0.0000 C   0  0  0  0  0  0  0  0  0  0  0  0
    7.2850   -6.7925    0.0000 C   0  0  0  0  0  0  0  0  0  0  0  0
    7.2850   -9.2675    0.0000 O   0  0  0  0  0  0  0  0  0  0  0  0
    7.2850   -5.9675    0.0000 C   0  0  0  0  0  0  0  0  0  0  0  0
    7.9995   -5.5550    0.0000 O   0  0  0  0  0  0  0  0  0  0  0  0
    8.7140   -6.7925    0.0000 C   0  0  0  0  0  0  0  0  0  0  0  0
    5.7737   -7.4185    0.0000 C   0  0  0  0  0  0  0  0  0  0  0  0
    6.1581   -6.4905    0.0000 C   0  0  0  0  0  0  0  0  0  0  0  0
    8.7140   -8.4425    0.0000 O   0  0  0  0  0  0  0  0  0  0  0  0
  1  2  1  0  0  0  0
  2  3  2  0  0  0  0
  3  4  1  0  0  0  0
  4  5  1  0  0  0  0
  5  6  2  0  0  0  0
  6  1  1  0  0  0  0
  3  7  1  0  0  0  0
  6  8  1  0  0  0  0
  8  9  2  0  0  0  0
  5 10  1  0  0  0  0
  1 11  1  0  0  0  0
  1 12  1  0  0  0  0
  4 13  2  0  0  0  0
M  END
>  <cdx:fragmentId>
5

$$$$
