9927489.cdx
  Mrv1902 05222410282D          

 24 25  0  0  0  0            999 V2000
    4.7429  -12.5070    0.0000 C   0  0  0  0  0  0  0  0  0  0  0  0
    4.0284  -12.9195    0.0000 C   0  0  0  0  0  0  0  0  0  0  0  0
    5.4573  -12.9195    0.0000 C   0  0  0  0  0  0  0  0  0  0  0  0
    6.1718  -12.5070    0.0000 C   0  0  0  0  0  0  0  0  0  0  0  0
    6.8863  -12.9195    0.0000 C   0  0  0  0  0  0  0  0  0  0  0  0
    6.8863  -13.7445    0.0000 C   0  0  0  0  0  0  0  0  0  0  0  0
    6.1718  -14.1570    0.0000 C   0  0  0  0  0  0  0  0  0  0  0  0
    5.4573  -13.7445    0.0000 C   0  0  0  0  0  0  0  0  0  0  0  0
    6.1718  -14.9820    0.0000 O   0  0  0  0  0  0  0  0  0  0  0  0
    5.4573  -15.3945    0.0000 C   0  0  0  0  0  0  0  0  0  0  0  0
    7.6007  -14.1570    0.0000 O   0  0  0  0  0  0  0  0  0  0  0  0
    7.6007  -12.5070    0.0000 C   0  0  0  0  0  0  0  0  0  0  0  0
    7.6007  -11.6820    0.0000 C   0  0  0  0  0  0  0  0  0  0  0  0
    8.3152  -11.2695    0.0000 C   0  0  0  0  0  0  0  0  0  0  0  0
    9.0297  -11.6820    0.0000 C   0  0  0  0  0  0  0  0  0  0  0  0
    9.0297  -12.5070    0.0000 C   0  0  0  0  0  0  0  0  0  0  0  0
    8.3152  -12.9195    0.0000 C   0  0  0  0  0  0  0  0  0  0  0  0
    8.3152  -10.4445    0.0000 O   0  0  0  0  0  0  0  0  0  0  0  0
    9.0297  -10.0320    0.0000 C   0  0  0  0  0  0  0  0  0  0  0  0
    6.8863  -11.2695    0.0000 O   0  0  0  0  0  0  0  0  0  0  0  0
    9.7441  -12.9195    0.0000 C   0  0  0  0  0  0  0  0  0  0  0  0
    9.7441  -13.7445    0.0000 O   0  0  0  0  0  0  0  0  0  0  0  0
   10.4586  -12.5070    0.0000 C   0  0  0  0  0  0  0  0  0  0  0  0
    4.7429  -11.6820    0.0000 O   0  0  0  0  0  0  0  0  0  0  0  0
  1  2  1  0  0  0  0
  3  4  1  0  0  0  0
  4  5  2  0  0  0  0
  5  6  1  0  0  0  0
  6  7  2  0  0  0  0
  7  8  1  0  0  0  0
  3  8  2  0  0  0  0
  9 10  1  0  0  0  0
  7  9  1  0  0  0  0
  6 11  1  0  0  0  0
 12 13  1  0  0  0  0
 13 14  2  0  0  0  0
 14 15  1  0  0  0  0
 15 16  2  0  0  0  0
 16 17  1  0  0  0  0
 12 17  2  0  0  0  0
 18 19  1  0  0  0  0
 14 18  1  0  0  0  0
 13 20  1  0  0  0  0
 21 22  2  0  0  0  0
 21 23  1  0  0  0  0
 16 21  1  0  0  0  0
  5 12  1  0  0  0  0
  1  3  1  0  0  0  0
  1 24  2  0  0  0  0
M  END
>  <cdx:groupId>
32492

>  <cdx:fragmentId>
32444

$$$$
