92742.cdx
  Mrv1902 05222410182D          

 16 15  0  0  0  0            999 V2000
    9.4126   -6.7512    0.0000 O   0  0  0  0  0  0  0  0  0  0  0  0
    8.6981   -6.3388    0.0000 C   0  0  0  0  0  0  0  0  0  0  0  0
    7.9836   -6.7512    0.0000 C   0  0  2  0  0  0  0  0  0  0  0  0
    7.2692   -6.3388    0.0000 C   0  0  1  0  0  0  0  0  0  0  0  0
    6.5547   -6.7512    0.0000 C   0  0  1  0  0  0  0  0  0  0  0  0
    5.8402   -6.3388    0.0000 C   0  0  2  0  0  0  0  0  0  0  0  0
    5.1257   -6.7512    0.0000 C   0  0  0  0  0  0  0  0  0  0  0  0
    4.4113   -6.3388    0.0000 O   0  0  0  0  0  0  0  0  0  0  0  0
    5.8402   -5.5137    0.0000 O   0  0  0  0  0  0  0  0  0  0  0  0
    6.5547   -7.5762    0.0000 O   0  0  0  0  0  0  0  0  0  0  0  0
    7.2692   -5.5137    0.0000 O   0  0  0  0  0  0  0  0  0  0  0  0
    7.9836   -7.5762    0.0000 O   0  0  0  0  0  0  0  0  0  0  0  0
    5.1257   -5.1013    0.0000 C   0  0  0  0  0  0  0  0  0  0  0  0
    7.9836   -5.1013    0.0000 C   0  0  0  0  0  0  0  0  0  0  0  0
    5.8402   -7.9888    0.0000 C   0  0  0  0  0  0  0  0  0  0  0  0
    8.6981   -7.9888    0.0000 C   0  0  0  0  0  0  0  0  0  0  0  0
  2  1  1  0  0  0  0
  3  2  1  0  0  0  0
  4  3  1  0  0  0  0
  5  4  1  0  0  0  0
  6  5  1  0  0  0  0
  7  6  1  0  0  0  0
  8  7  1  0  0  0  0
  6  9  1  6  0  0  0
  5 10  1  6  0  0  0
  4 11  1  1  0  0  0
  3 12  1  1  0  0  0
  9 13  1  0  0  0  0
 11 14  1  0  0  0  0
 10 15  1  0  0  0  0
 12 16  1  0  0  0  0
M  END
>  <cdx:fragmentId>
3

$$$$
