92749.cdx
  Mrv1902 05222410272D          

 17 17  0  0  0  0            999 V2000
    6.7768   -8.0850    0.0000 C   0  0  0  0  0  0  0  0  0  0  0  0
    6.7768   -8.9100    0.0000 C   0  0  0  0  0  0  0  0  0  0  0  0
    7.4913   -9.3225    0.0000 C   0  0  0  0  0  0  0  0  0  0  0  0
    8.2057   -8.9100    0.0000 C   0  0  0  0  0  0  0  0  0  0  0  0
    8.2057   -8.0850    0.0000 C   0  0  0  0  0  0  0  0  0  0  0  0
    7.4913   -7.6725    0.0000 C   0  0  0  0  0  0  0  0  0  0  0  0
    7.0788  -10.0370    0.0000 O   0  0  0  0  0  0  0  0  0  0  0  0
    7.9038  -10.0370    0.0000 C   0  0  0  0  0  0  0  0  0  0  0  0
    7.4913   -6.8475    0.0000 O   0  0  0  0  0  0  0  0  0  0  0  0
    8.9202   -7.6725    0.0000 C   0  0  0  0  0  0  0  0  0  0  0  0
    9.3327   -8.3870    0.0000 C   0  0  0  0  0  0  0  0  0  0  0  0
    8.5077   -6.9580    0.0000 C   0  0  0  0  0  0  0  0  0  0  0  0
    9.6347   -7.2600    0.0000 C   0  0  0  0  0  0  0  0  0  0  0  0
    6.0623   -7.6725    0.0000 C   0  0  0  0  0  0  0  0  0  0  0  0
    5.6498   -8.3870    0.0000 C   0  0  0  0  0  0  0  0  0  0  0  0
    6.4748   -6.9580    0.0000 C   0  0  0  0  0  0  0  0  0  0  0  0
    5.3479   -7.2600    0.0000 C   0  0  0  0  0  0  0  0  0  0  0  0
  1  2  2  0  0  0  0
  2  3  1  0  0  0  0
  3  4  1  0  0  0  0
  4  5  2  0  0  0  0
  5  6  1  0  0  0  0
  6  1  1  0  0  0  0
  3  7  1  0  0  0  0
  3  8  1  0  0  0  0
  6  9  2  0  0  0  0
  5 10  1  0  0  0  0
 10 11  1  0  0  0  0
 10 12  1  0  0  0  0
 10 13  1  0  0  0  0
  1 14  1  0  0  0  0
 14 15  1  0  0  0  0
 14 16  1  0  0  0  0
 14 17  1  0  0  0  0
M  END
>  <cdx:fragmentId>
5

$$$$
