92750.cdx
  Mrv1902 05222410192D          

 12 11  0  0  0  0            999 V2000
    4.7550   -7.0400    0.0000 C   0  0  0  0  0  0  0  0  0  0  0  0
    5.4695   -6.6275    0.0000 C   0  0  0  0  0  0  0  0  0  0  0  0
    6.1840   -7.0400    0.0000 C   0  0  0  0  0  0  0  0  0  0  0  0
    6.8984   -6.6275    0.0000 C   0  0  0  0  0  0  0  0  0  0  0  0
    9.0419   -7.0400    0.0000 O   0  0  0  0  0  0  0  0  0  0  0  0
    8.3274   -6.6275    0.0000 C   0  0  0  0  0  0  0  0  0  0  0  0
    7.6129   -7.8650    0.0000 C   0  0  0  0  0  0  0  0  0  0  0  0
    7.6129   -7.0400    0.0000 C   0  0  0  0  0  0  0  0  0  0  0  0
    4.0406   -7.4525    0.0000 O   0  0  0  0  0  0  0  0  0  0  0  0
    4.3425   -6.3255    0.0000 C   0  0  0  0  0  0  0  0  0  0  0  0
    5.1675   -7.7545    0.0000 C   0  0  0  0  0  0  0  0  0  0  0  0
    4.7550   -5.6111    0.0000 C   0  0  0  0  0  0  0  0  0  0  0  0
  1  2  1  0  0  0  0
  2  3  1  0  0  0  0
  3  4  1  0  0  0  0
  6  5  1  0  0  0  0
  4  8  2  0  0  0  0
  8  6  1  0  0  0  0
  8  7  1  0  0  0  0
  1  9  1  0  0  0  0
  1 10  1  0  0  0  0
  1 11  1  0  0  0  0
 10 12  2  0  0  0  0
M  END
>  <cdx:fragmentId>
3

$$$$
