92758.cdx
  Mrv1902 05222410272D          

 12 13  0  0  0  0            999 V2000
    6.1274   -7.6947    0.0000 C   0  0  0  0  0  0  0  0  0  0  0  0
    6.8419   -8.1072    0.0000 C   0  0  0  0  0  0  0  0  0  0  0  0
    6.8419   -8.9322    0.0000 C   0  0  0  0  0  0  0  0  0  0  0  0
    6.1274   -9.3447    0.0000 C   0  0  0  0  0  0  0  0  0  0  0  0
    5.4129   -8.9322    0.0000 C   0  0  0  0  0  0  0  0  0  0  0  0
    5.4129   -8.1072    0.0000 C   0  0  0  0  0  0  0  0  0  0  0  0
    5.7918   -8.5201    0.0000 C   0  0  0  0  0  0  0  0  0  0  0  0
    6.1274  -10.1697    0.0000 C   0  0  0  0  0  0  0  0  0  0  0  0
    7.5563   -7.6947    0.0000 C   0  0  0  0  0  0  0  0  0  0  0  0
    7.5563   -6.8697    0.0000 O   0  0  0  0  0  0  0  0  0  0  0  0
    8.2708   -8.1072    0.0000 O   0  0  0  0  0  0  0  0  0  0  0  0
    8.9853   -7.6947    0.0000 C   0  0  0  0  0  0  0  0  0  0  0  0
  1  2  1  0  0  0  0
  2  3  1  0  0  0  0
  3  4  1  0  0  0  0
  4  5  1  0  0  0  0
  5  6  1  0  0  0  0
  1  6  1  0  0  0  0
  1  7  1  0  0  0  0
  7  4  1  0  0  0  0
  4  8  1  0  0  0  0
  9 10  2  0  0  0  0
 11 12  1  0  0  0  0
  9 11  1  0  0  0  0
  2  9  1  0  0  0  0
M  END
>  <cdx:fragmentId>
5

$$$$
