92765.cdx
  Mrv1902 05222410272D          

 35 39  0  0  0  0            999 V2000
    3.1193   -9.9413    0.0000 C   0  0  1  0  0  0  0  0  0  0  0  0
    3.1193  -10.7663    0.0000 C   0  0  1  0  0  0  0  0  0  0  0  0
    3.8338  -11.1788    0.0000 C   0  0  2  0  0  0  0  0  0  0  0  0
    4.5482  -10.7663    0.0000 C   0  0  0  0  0  0  0  0  0  0  0  0
    4.5482   -9.9413    0.0000 C   0  0  2  0  0  0  0  0  0  0  0  0
    3.8338   -9.5287    0.0000 C   0  0  0  0  0  0  0  0  0  0  0  0
    5.2627  -11.1788    0.0000 C   0  0  0  0  0  0  0  0  0  0  0  0
    5.9772  -10.7663    0.0000 C   0  0  0  0  0  0  0  0  0  0  0  0
    5.9772   -9.9413    0.0000 C   0  0  2  0  0  0  0  0  0  0  0  0
    5.2627   -9.5287    0.0000 C   0  0  0  0  0  0  0  0  0  0  0  0
    6.6917   -9.5287    0.0000 C   0  0  1  0  0  0  0  0  0  0  0  0
    6.6917   -8.7037    0.0000 C   0  0  0  0  0  0  0  0  0  0  0  0
    5.9772   -8.2912    0.0000 C   0  0  0  0  0  0  0  0  0  0  0  0
    5.2627   -8.7037    0.0000 C   0  0  0  0  0  0  0  0  0  0  0  0
    7.4061   -9.9413    0.0000 C   0  0  0  0  0  0  0  0  0  0  0  0
    8.1206   -9.5287    0.0000 C   0  0  0  0  0  0  0  0  0  0  0  0
    8.1206   -8.7037    0.0000 C   0  0  2  0  0  0  0  0  0  0  0  0
    7.4061   -8.2912    0.0000 C   0  0  0  0  0  0  0  0  0  0  0  0
    8.8351   -8.2912    0.0000 C   0  0  0  0  0  0  0  0  0  0  0  0
    8.8351   -7.4663    0.0000 C   0  0  0  0  0  0  0  0  0  0  0  0
    8.1206   -7.0537    0.0000 C   0  0  2  0  0  0  0  0  0  0  0  0
    7.4061   -7.4663    0.0000 C   0  0  1  0  0  0  0  0  0  0  0  0
    2.4048   -9.5287    0.0000 O   0  0  0  0  0  0  0  0  0  0  0  0
    4.2463  -11.8932    0.0000 C   0  0  0  0  0  0  0  0  0  0  0  0
    6.6917  -10.3537    0.0000 C   0  0  0  0  0  0  0  0  0  0  0  0
    6.5811   -7.4663    0.0000 O   0  0  0  0  0  0  0  0  0  0  0  0
    8.1206   -6.2287    0.0000 C   0  0  0  0  0  0  0  0  0  0  0  0
    2.4048  -11.1788    0.0000 O   0  0  0  0  0  0  0  0  0  0  0  0
    3.4213  -11.8932    0.0000 C   0  0  0  0  0  0  0  0  0  0  0  0
    4.5482   -9.1162    0.0000 C   0  0  0  0  0  0  0  0  0  0  0  0
    5.9772   -9.1162    0.0000 C   0  0  0  0  0  0  0  0  0  0  0  0
    6.9936   -6.7518    0.0000 C   0  0  0  0  0  0  0  0  0  0  0  0
    8.8351   -9.1162    0.0000 C   0  0  0  0  0  0  0  0  0  0  0  0
    9.5495   -8.7038    0.0000 O   0  0  0  0  0  0  0  0  0  0  0  0
    8.8351   -9.9412    0.0000 O   0  0  0  0  0  0  0  0  0  0  0  0
  1  2  1  0  0  0  0
  2  3  1  0  0  0  0
  3  4  1  0  0  0  0
  4  5  1  0  0  0  0
  5  6  1  0  0  0  0
  6  1  1  0  0  0  0
  4  7  1  0  0  0  0
  7  8  1  0  0  0  0
  8  9  1  0  0  0  0
  9 10  1  0  0  0  0
 10  5  1  0  0  0  0
  9 11  1  0  0  0  0
 11 12  1  0  0  0  0
 12 13  2  0  0  0  0
 13 14  1  0  0  0  0
 14 10  1  0  0  0  0
 11 15  1  0  0  0  0
 15 16  1  0  0  0  0
 16 17  1  0  0  0  0
 17 18  1  0  0  0  0
 18 12  1  0  0  0  0
 17 19  1  0  0  0  0
 19 20  1  0  0  0  0
 20 21  1  0  0  0  0
 21 22  1  0  0  0  0
 22 18  1  0  0  0  0
  1 23  1  6  0  0  0
  3 24  1  6  0  0  0
 11 25  1  6  0  0  0
 22 26  1  6  0  0  0
 21 27  1  6  0  0  0
  2 28  1  1  0  0  0
  3 29  1  1  0  0  0
  5 30  1  1  0  0  0
  9 31  1  1  0  0  0
 22 32  1  1  0  0  0
 17 33  1  1  0  0  0
 33 34  2  0  0  0  0
 33 35  1  0  0  0  0
M  STY  1   1 SUP
M  SAL   1  3  33  34  35
M  SBL   1  1  37
M  SMT   1 COOH
M  SAP   1  1  33  17  1
M  END
>  <cdx:fragmentId>
5

$$$$
