92769.cdx
  Mrv1902 05222410192D          

 50 55  0  0  0  0            999 V2000
    3.5868   -7.6863    0.0000 C   0  0  1  0  0  0  0  0  0  0  0  0
    3.5868   -8.5113    0.0000 C   0  0  1  0  0  0  0  0  0  0  0  0
    4.3013   -8.9238    0.0000 C   0  0  0  0  0  0  0  0  0  0  0  0
    5.0157   -8.5113    0.0000 C   0  0  1  0  0  0  0  0  0  0  0  0
    5.0157   -7.6863    0.0000 C   0  0  2  0  0  0  0  0  0  0  0  0
    4.3013   -7.2738    0.0000 C   0  0  0  0  0  0  0  0  0  0  0  0
    5.7302   -8.9238    0.0000 C   0  0  1  0  0  0  0  0  0  0  0  0
    6.4447   -8.5113    0.0000 C   0  0  0  0  0  0  0  0  0  0  0  0
    6.4447   -7.6863    0.0000 C   0  0  2  0  0  0  0  0  0  0  0  0
    5.7302   -7.2738    0.0000 C   0  0  2  0  0  0  0  0  0  0  0  0
    7.1592   -7.2738    0.0000 C   0  0  1  0  0  0  0  0  0  0  0  0
    7.1592   -6.4487    0.0000 C   0  0  0  0  0  0  0  0  0  0  0  0
    6.4447   -6.0362    0.0000 C   0  0  0  0  0  0  0  0  0  0  0  0
    5.7302   -6.4487    0.0000 C   0  0  0  0  0  0  0  0  0  0  0  0
    7.8736   -7.6863    0.0000 C   0  0  0  0  0  0  0  0  0  0  0  0
    8.5881   -7.2738    0.0000 C   0  0  0  0  0  0  0  0  0  0  0  0
    8.5881   -6.4487    0.0000 C   0  0  2  0  0  0  0  0  0  0  0  0
    7.8736   -6.0362    0.0000 C   0  0  1  0  0  0  0  0  0  0  0  0
    9.3026   -6.0362    0.0000 C   0  0  0  0  0  0  0  0  0  0  0  0
    9.3026   -5.2113    0.0000 C   0  0  0  0  0  0  0  0  0  0  0  0
    8.5881   -4.7988    0.0000 C   0  0  2  0  0  0  0  0  0  0  0  0
    7.8736   -5.2113    0.0000 C   0  0  2  0  0  0  0  0  0  0  0  0
    2.8723   -7.2738    0.0000 O   0  0  0  0  0  0  0  0  0  0  0  0
    4.7138   -9.6382    0.0000 C   0  0  0  0  0  0  0  0  0  0  0  0
    7.1592   -8.0987    0.0000 C   0  0  0  0  0  0  0  0  0  0  0  0
    8.5881   -3.9738    0.0000 C   0  0  0  0  0  0  0  0  0  0  0  0
    2.8723   -8.9238    0.0000 O   0  0  0  0  0  0  0  0  0  0  0  0
    3.8888   -9.6382    0.0000 C   0  0  0  0  0  0  0  0  0  0  0  0
    5.0157   -6.8613    0.0000 C   0  0  0  0  0  0  0  0  0  0  0  0
    6.4447   -6.8613    0.0000 C   0  0  0  0  0  0  0  0  0  0  0  0
    7.4611   -4.4968    0.0000 C   0  0  0  0  0  0  0  0  0  0  0  0
    9.3026   -6.8613    0.0000 C   0  0  0  0  0  0  0  0  0  0  0  0
   10.0170   -6.4487    0.0000 O   0  0  0  0  0  0  0  0  0  0  0  0
    9.3026   -7.6863    0.0000 O   0  0  0  0  0  0  0  0  0  0  0  0
    8.8893   -8.4003    0.0000 C   0  0  2  0  0  0  0  0  0  0  0  0
    8.0643   -8.3993    0.0000 O   0  0  0  0  0  0  0  0  0  0  0  0
    7.6510   -9.1134    0.0000 C   0  0  1  0  0  0  0  0  0  0  0  0
    8.0627   -9.8283    0.0000 C   0  0  2  0  0  0  0  0  0  0  0  0
    8.8877   -9.8292    0.0000 C   0  0  1  0  0  0  0  0  0  0  0  0
    9.3010   -9.1152    0.0000 C   0  0  1  0  0  0  0  0  0  0  0  0
    6.8260   -9.1124    0.0000 C   0  0  0  0  0  0  0  0  0  0  0  0
    9.2994  -10.5441    0.0000 O   0  0  0  0  0  0  0  0  0  0  0  0
   10.1260   -9.1161    0.0000 O   0  0  0  0  0  0  0  0  0  0  0  0
    7.6494  -10.5423    0.0000 O   0  0  0  0  0  0  0  0  0  0  0  0
    6.4127   -9.8264    0.0000 O   0  0  0  0  0  0  0  0  0  0  0  0
    5.7302   -9.7487    0.0000 O   0  0  0  0  0  0  0  0  0  0  0  0
    7.0486   -5.2113    0.0000 O   0  0  0  0  0  0  0  0  0  0  0  0
    5.0157   -9.3362    0.0000 H   0  0  0  0  0  0  0  0  0  0  0  0
    5.7302   -8.0987    0.0000 H   0  0  0  0  0  0  0  0  0  0  0  0
    7.8736   -6.8613    0.0000 H   0  0  0  0  0  0  0  0  0  0  0  0
  1  2  1  0  0  0  0
  2  3  1  0  0  0  0
  3  4  1  0  0  0  0
  4  5  1  0  0  0  0
  5  6  1  0  0  0  0
  6  1  1  0  0  0  0
  4  7  1  0  0  0  0
  7  8  1  0  0  0  0
  8  9  1  0  0  0  0
  9 10  1  0  0  0  0
 10  5  1  0  0  0  0
  9 11  1  0  0  0  0
 11 12  1  0  0  0  0
 12 13  2  0  0  0  0
 13 14  1  0  0  0  0
 14 10  1  0  0  0  0
 11 15  1  0  0  0  0
 15 16  1  0  0  0  0
 16 17  1  0  0  0  0
 17 18  1  0  0  0  0
 18 12  1  0  0  0  0
 17 19  1  0  0  0  0
 19 20  1  0  0  0  0
 20 21  1  0  0  0  0
 21 22  1  0  0  0  0
 22 18  1  0  0  0  0
  1 23  1  6  0  0  0
  3 24  1  0  0  0  0
 11 25  1  6  0  0  0
 21 26  1  6  0  0  0
  2 27  1  1  0  0  0
  3 28  1  0  0  0  0
  5 29  1  1  0  0  0
  9 30  1  1  0  0  0
 22 31  1  1  0  0  0
 17 32  1  1  0  0  0
 32 33  2  0  0  0  0
 32 34  1  0  0  0  0
 35 34  1  1  0  0  0
 35 36  1  0  0  0  0
 36 37  1  0  0  0  0
 37 38  1  0  0  0  0
 38 39  1  0  0  0  0
 39 40  1  0  0  0  0
 40 35  1  0  0  0  0
 37 41  1  1  0  0  0
 39 42  1  1  0  0  0
 40 43  1  6  0  0  0
 38 44  1  6  0  0  0
 41 45  1  0  0  0  0
  7 46  1  1  0  0  0
 22 47  1  6  0  0  0
  4 48  1  6  0  0  0
 10 49  1  6  0  0  0
 18 50  1  1  0  0  0
M  END
>  <cdx:fragmentId>
5

$$$$
