92766.cdx
  Mrv1902 05222410282D          

 29 33  0  0  0  0            999 V2000
    6.4411   -4.0488    0.0000 C   0  0  0  0  0  0  0  0  0  0  0  0
    2.5249   -3.6401    0.0000 N   0  0  0  0  0  0  0  0  0  0  0  0
    3.0098   -2.9726    0.0000 C   0  0  0  0  0  0  0  0  0  0  0  0
    3.8303   -2.8864    0.0000 C   0  0  1  0  0  0  0  0  0  0  0  0
    4.1658   -2.1327    0.0000 N   0  0  0  0  0  0  0  0  0  0  0  0
    3.6809   -1.4653    0.0000 C   0  0  0  0  0  0  0  0  0  0  0  0
    2.8604   -1.5515    0.0000 C   0  0  0  0  0  0  0  0  0  0  0  0
    2.5249   -2.3052    0.0000 C   0  0  0  0  0  0  0  0  0  0  0  0
    1.7402   -2.5601    0.0000 C   0  0  0  0  0  0  0  0  0  0  0  0
    1.0258   -2.1476    0.0000 C   0  0  0  0  0  0  0  0  0  0  0  0
    0.3113   -2.5601    0.0000 C   0  0  0  0  0  0  0  0  0  0  0  0
    0.3113   -3.3851    0.0000 C   0  0  0  0  0  0  0  0  0  0  0  0
    1.0258   -3.7976    0.0000 C   0  0  0  0  0  0  0  0  0  0  0  0
    1.7402   -3.3851    0.0000 C   0  0  0  0  0  0  0  0  0  0  0  0
    4.9863   -2.0465    0.0000 C   0  0  0  0  0  0  0  0  0  0  0  0
    5.4712   -2.7139    0.0000 C   0  0  2  0  0  0  0  0  0  0  0  0
    6.2917   -2.6277    0.0000 C   0  0  1  0  0  0  0  0  0  0  0  0
    6.7766   -3.2951    0.0000 C   0  0  1  0  0  0  0  0  0  0  0  0
    5.6206   -4.1350    0.0000 C   0  0  0  0  0  0  0  0  0  0  0  0
    5.1357   -3.4676    0.0000 C   0  0  2  0  0  0  0  0  0  0  0  0
    4.3152   -3.5538    0.0000 C   0  0  0  0  0  0  0  0  0  0  0  0
    6.6273   -1.8740    0.0000 C   0  0  0  0  0  0  0  0  0  0  0  0
    6.1423   -1.2066    0.0000 O   0  0  0  0  0  0  0  0  0  0  0  0
    7.4477   -1.7878    0.0000 O   0  0  0  0  0  0  0  0  0  0  0  0
    5.8068   -1.9602    0.0000 H   0  0  0  0  0  0  0  0  0  0  0  0
    4.8001   -4.2213    0.0000 H   0  0  0  0  0  0  0  0  0  0  0  0
    3.4947   -3.6401    0.0000 H   0  0  0  0  0  0  0  0  0  0  0  0
    7.5971   -3.2089    0.0000 O   0  0  0  0  0  0  0  0  0  0  0  0
    7.7833   -1.0341    0.0000 C   0  0  0  0  0  0  0  0  0  0  0  0
  2  3  1  0  0  0  0
  3  4  1  0  0  0  0
  4  5  1  0  0  0  0
  5  6  1  0  0  0  0
  6  7  1  0  0  0  0
  7  8  1  0  0  0  0
  3  8  2  0  0  0  0
  8  9  1  0  0  0  0
  9 10  1  0  0  0  0
 10 11  2  0  0  0  0
 11 12  1  0  0  0  0
 12 13  2  0  0  0  0
 13 14  1  0  0  0  0
  9 14  2  0  0  0  0
  2 14  1  0  0  0  0
  5 15  1  0  0  0  0
 15 16  1  0  0  0  0
 16 17  1  0  0  0  0
 17 18  1  0  0  0  0
  1 18  1  0  0  0  0
  1 19  1  0  0  0  0
 19 20  1  0  0  0  0
 16 20  1  0  0  0  0
 20 21  1  0  0  0  0
  4 21  1  0  0  0  0
 22 23  2  0  0  0  0
 22 24  1  0  0  0  0
 17 22  1  6  0  0  0
 16 25  1  1  0  0  0
 20 26  1  1  0  0  0
  4 27  1  6  0  0  0
 18 28  1  1  0  0  0
 24 29  1  0  0  0  0
M  END
>  <cdx:groupId>
93

>  <cdx:fragmentId>
7

$$$$
