92760.cdx
  Mrv1902 05222410272D          

 18 20  0  0  0  0            999 V2000
    5.8904   -4.1237    0.0000 C   0  0  0  0  0  0  0  0  0  0  0  0
    5.6295   -4.9063    0.0000 O   0  0  0  0  0  0  0  0  0  0  0  0
    6.2932   -5.3963    0.0000 C   0  0  0  0  0  0  0  0  0  0  0  0
    6.9643   -4.9165    0.0000 O   0  0  0  0  0  0  0  0  0  0  0  0
    6.7153   -4.1299    0.0000 C   0  0  0  0  0  0  0  0  0  0  0  0
    5.8807   -6.1108    0.0000 C   0  0  0  0  0  0  0  0  0  0  0  0
    6.7057   -6.1108    0.0000 C   0  0  0  0  0  0  0  0  0  0  0  0
    7.5307   -6.1108    0.0000 C   0  0  0  0  0  0  0  0  0  0  0  0
    5.0557   -6.1108    0.0000 C   0  0  0  0  0  0  0  0  0  0  0  0
    4.6432   -6.8253    0.0000 C   0  0  0  0  0  0  0  0  0  0  0  0
    5.0557   -7.5397    0.0000 C   0  0  0  0  0  0  0  0  0  0  0  0
    5.8807   -7.5397    0.0000 C   0  0  0  0  0  0  0  0  0  0  0  0
    6.2932   -6.8253    0.0000 C   0  0  0  0  0  0  0  0  0  0  0  0
    7.9432   -6.8253    0.0000 C   0  0  0  0  0  0  0  0  0  0  0  0
    8.7682   -6.8253    0.0000 C   0  0  0  0  0  0  0  0  0  0  0  0
    9.1807   -6.1108    0.0000 C   0  0  0  0  0  0  0  0  0  0  0  0
    8.7682   -5.3963    0.0000 C   0  0  0  0  0  0  0  0  0  0  0  0
    7.9432   -5.3963    0.0000 C   0  0  0  0  0  0  0  0  0  0  0  0
  1  2  1  0  0  0  0
  2  3  1  0  0  0  0
  3  4  1  0  0  0  0
  4  5  1  0  0  0  0
  5  1  1  0  0  0  0
  3  6  1  0  0  0  0
  3  7  1  0  0  0  0
  7  8  1  0  0  0  0
  6  9  2  0  0  0  0
  9 10  1  0  0  0  0
 10 11  2  0  0  0  0
 11 12  1  0  0  0  0
 12 13  2  0  0  0  0
 13  6  1  0  0  0  0
  8 14  2  0  0  0  0
 14 15  1  0  0  0  0
 15 16  2  0  0  0  0
 16 17  1  0  0  0  0
 17 18  2  0  0  0  0
 18  8  1  0  0  0  0
M  END
>  <cdx:fragmentId>
5

$$$$
