92763.cdx
  Mrv1902 05222410262D          

 38 42  0  0  0  0            999 V2000
    3.8343   -6.9300    0.0000 C   0  0  1  0  0  0  0  0  0  0  0  0
    3.8343   -7.7550    0.0000 C   0  0  2  0  0  0  0  0  0  0  0  0
    4.5488   -8.1675    0.0000 C   0  0  0  0  0  0  0  0  0  0  0  0
    5.2632   -7.7550    0.0000 C   0  0  1  0  0  0  0  0  0  0  0  0
    5.2632   -6.9300    0.0000 C   0  0  2  0  0  0  0  0  0  0  0  0
    4.5488   -6.5175    0.0000 C   0  0  0  0  0  0  0  0  0  0  0  0
    5.9777   -8.1675    0.0000 C   0  0  0  0  0  0  0  0  0  0  0  0
    6.6922   -7.7550    0.0000 C   0  0  0  0  0  0  0  0  0  0  0  0
    6.6922   -6.9300    0.0000 C   0  0  2  0  0  0  0  0  0  0  0  0
    5.9777   -6.5175    0.0000 C   0  0  2  0  0  0  0  0  0  0  0  0
    7.4067   -6.5175    0.0000 C   0  0  1  0  0  0  0  0  0  0  0  0
    7.4067   -5.6925    0.0000 C   0  0  2  0  0  0  0  0  0  0  0  0
    6.6922   -5.2800    0.0000 C   0  0  0  0  0  0  0  0  0  0  0  0
    5.9777   -5.6925    0.0000 C   0  0  0  0  0  0  0  0  0  0  0  0
    8.1211   -6.9300    0.0000 C   0  0  0  0  0  0  0  0  0  0  0  0
    8.8356   -6.5175    0.0000 C   0  0  0  0  0  0  0  0  0  0  0  0
    8.8356   -5.6925    0.0000 C   0  0  2  0  0  0  0  0  0  0  0  0
    8.1211   -5.2800    0.0000 C   0  0  2  0  0  0  0  0  0  0  0  0
    3.1198   -8.1675    0.0000 O   0  0  0  0  0  0  0  0  0  0  0  0
    3.1198   -6.5175    0.0000 O   0  0  0  0  0  0  0  0  0  0  0  0
    4.9613   -8.8820    0.0000 C   0  0  0  0  0  0  0  0  0  0  0  0
    5.2632   -8.5800    0.0000 H   0  0  0  0  0  0  0  0  0  0  0  0
    5.9777   -7.3425    0.0000 H   0  0  0  0  0  0  0  0  0  0  0  0
    7.4067   -7.3425    0.0000 C   0  0  0  0  0  0  0  0  0  0  0  0
    8.1211   -6.1050    0.0000 H   0  0  0  0  0  0  0  0  0  0  0  0
    4.1363   -8.8820    0.0000 C   0  0  0  0  0  0  0  0  0  0  0  0
    5.2632   -6.1050    0.0000 C   0  0  0  0  0  0  0  0  0  0  0  0
    6.6922   -6.1050    0.0000 C   0  0  0  0  0  0  0  0  0  0  0  0
    7.4067   -4.8675    0.0000 H   0  0  0  0  0  0  0  0  0  0  0  0
    9.4487   -5.1405    0.0000 C   0  0  0  0  0  0  0  0  0  0  0  0
    9.1131   -4.3868    0.0000 C   0  0  0  0  0  0  0  0  0  0  0  0
    8.2927   -4.4730    0.0000 C   0  0  1  0  0  0  0  0  0  0  0  0
    9.5501   -6.1050    0.0000 C   0  0  0  0  0  0  0  0  0  0  0  0
   10.2645   -5.6925    0.0000 O   0  0  0  0  0  0  0  0  0  0  0  0
    9.5501   -6.9300    0.0000 O   0  0  0  0  0  0  0  0  0  0  0  0
    7.7406   -3.8599    0.0000 C   0  0  0  0  0  0  0  0  0  0  0  0
    7.9956   -3.0753    0.0000 C   0  0  0  0  0  0  0  0  0  0  0  0
    6.9337   -4.0315    0.0000 C   0  0  0  0  0  0  0  0  0  0  0  0
  1  2  1  0  0  0  0
  2  3  1  0  0  0  0
  3  4  1  0  0  0  0
  4  5  1  0  0  0  0
  5  6  1  0  0  0  0
  6  1  1  0  0  0  0
  4  7  1  0  0  0  0
  7  8  1  0  0  0  0
  8  9  1  0  0  0  0
  9 10  1  0  0  0  0
 10  5  1  0  0  0  0
  9 11  1  0  0  0  0
 11 12  1  0  0  0  0
 12 13  1  0  0  0  0
 13 14  1  0  0  0  0
 14 10  1  0  0  0  0
 11 15  1  0  0  0  0
 15 16  1  0  0  0  0
 16 17  1  0  0  0  0
 17 18  1  0  0  0  0
 18 12  1  0  0  0  0
  2 19  1  6  0  0  0
  1 20  1  6  0  0  0
  3 21  1  0  0  0  0
  4 22  1  6  0  0  0
 10 23  1  6  0  0  0
 11 24  1  6  0  0  0
 18 25  1  6  0  0  0
  3 26  1  0  0  0  0
  5 27  1  1  0  0  0
  9 28  1  1  0  0  0
 12 29  1  1  0  0  0
 17 30  1  0  0  0  0
 30 31  1  0  0  0  0
 31 32  1  0  0  0  0
 32 18  1  0  0  0  0
 17 33  1  1  0  0  0
 33 34  1  0  0  0  0
 33 35  2  0  0  0  0
 32 36  1  6  0  0  0
 36 37  2  0  0  0  0
 36 38  1  0  0  0  0
M  END
>  <cdx:fragmentId>
5

$$$$
