92779.cdx
  Mrv1902 05222410192D          

 15 17  0  0  0  0            999 V2000
    6.7723   -6.4350    0.0000 C   0  0  0  0  0  0  0  0  0  0  0  0
    6.7723   -7.2600    0.0000 C   0  0  0  0  0  0  0  0  0  0  0  0
    7.5569   -7.5149    0.0000 C   0  0  0  0  0  0  0  0  0  0  0  0
    8.0418   -6.8475    0.0000 C   0  0  0  0  0  0  0  0  0  0  0  0
    7.5569   -6.1801    0.0000 C   0  0  0  0  0  0  0  0  0  0  0  0
    6.0578   -6.8475    0.0000 C   0  0  0  0  0  0  0  0  0  0  0  0
    8.3774   -7.6012    0.0000 C   0  0  0  0  0  0  0  0  0  0  0  0
    5.3433   -7.2600    0.0000 C   0  0  0  0  0  0  0  0  0  0  0  0
    5.4744   -6.2641    0.0000 C   0  0  0  0  0  0  0  0  0  0  0  0
    9.2024   -7.6012    0.0000 C   0  0  0  0  0  0  0  0  0  0  0  0
    8.5909   -8.3981    0.0000 C   0  0  0  0  0  0  0  0  0  0  0  0
    7.8118   -5.3954    0.0000 C   0  0  0  0  0  0  0  0  0  0  0  0
    8.6087   -5.1819    0.0000 C   0  0  0  0  0  0  0  0  0  0  0  0
    8.8222   -4.3850    0.0000 C   0  0  0  0  0  0  0  0  0  0  0  0
    9.1921   -5.7653    0.0000 C   0  0  0  0  0  0  0  0  0  0  0  0
  1  2  1  0  0  0  0
  2  3  1  0  0  0  0
  3  4  1  0  0  0  0
  4  5  1  0  0  0  0
  5  1  1  0  0  0  0
  1  6  1  0  0  0  0
  6  2  1  0  0  0  0
  3  7  1  0  0  0  0
  7  4  1  0  0  0  0
  6  8  1  0  0  0  0
  6  9  1  0  0  0  0
  7 10  1  0  0  0  0
  7 11  1  0  0  0  0
  5 12  1  0  0  0  0
 12 13  2  0  0  0  0
 13 14  1  0  0  0  0
 13 15  1  0  0  0  0
M  END
>  <cdx:fragmentId>
5

$$$$
