92774.cdx
  Mrv1902 05222410272D          

 39 42  0  0  0  0            999 V2000
    2.4181   -4.7162    0.0000 C   0  0  0  0  0  0  0  0  0  0  0  0
    2.4181   -5.5413    0.0000 C   0  0  0  0  0  0  0  0  0  0  0  0
    3.1325   -5.9538    0.0000 C   0  0  0  0  0  0  0  0  0  0  0  0
    3.8470   -5.5413    0.0000 C   0  0  0  0  0  0  0  0  0  0  0  0
    3.8470   -4.7162    0.0000 C   0  0  0  0  0  0  0  0  0  0  0  0
    3.1325   -4.3037    0.0000 C   0  0  0  0  0  0  0  0  0  0  0  0
    5.2759   -5.5413    0.0000 C   0  0  0  0  0  0  0  0  0  0  0  0
    5.9904   -5.9538    0.0000 O   0  0  0  0  0  0  0  0  0  0  0  0
    4.5615   -5.9538    0.0000 O   0  0  0  0  0  0  0  0  0  0  0  0
    5.2759   -4.7162    0.0000 C   0  0  0  0  0  0  0  0  0  0  0  0
    4.5615   -4.3037    0.0000 C   0  0  0  0  0  0  0  0  0  0  0  0
    6.7049   -5.5413    0.0000 C   0  0  0  0  0  0  0  0  0  0  0  0
    6.7049   -4.7162    0.0000 C   0  0  0  0  0  0  0  0  0  0  0  0
    5.9904   -4.3037    0.0000 O   0  0  0  0  0  0  0  0  0  0  0  0
    7.4194   -5.9538    0.0000 C   0  0  0  0  0  0  0  0  0  0  0  0
    7.4194   -4.3037    0.0000 O   0  0  0  0  0  0  0  0  0  0  0  0
    6.7049   -7.1913    0.0000 C   0  0  0  0  0  0  0  0  0  0  0  0
    7.4194   -6.7788    0.0000 C   0  0  0  0  0  0  0  0  0  0  0  0
    6.7049   -8.0162    0.0000 C   0  0  0  0  0  0  0  0  0  0  0  0
    7.4194   -8.4287    0.0000 C   0  0  0  0  0  0  0  0  0  0  0  0
    8.1338   -8.0162    0.0000 C   0  0  0  0  0  0  0  0  0  0  0  0
    8.1338   -7.1913    0.0000 C   0  0  0  0  0  0  0  0  0  0  0  0
    9.5628   -8.0162    0.0000 O   0  0  0  0  0  0  0  0  0  0  0  0
    9.5628   -7.1913    0.0000 C   0  0  0  0  0  0  0  0  0  0  0  0
    8.8483   -6.7788    0.0000 C   0  0  0  0  0  0  0  0  0  0  0  0
   10.2772   -6.7788    0.0000 C   0  0  0  0  0  0  0  0  0  0  0  0
   10.2772   -5.9538    0.0000 C   0  0  0  0  0  0  0  0  0  0  0  0
    8.8483   -5.9538    0.0000 C   0  0  0  0  0  0  0  0  0  0  0  0
   10.9917   -7.1913    0.0000 C   0  0  0  0  0  0  0  0  0  0  0  0
   11.7062   -6.7788    0.0000 C   0  0  0  0  0  0  0  0  0  0  0  0
   11.7062   -5.9538    0.0000 C   0  0  0  0  0  0  0  0  0  0  0  0
   10.9917   -5.5413    0.0000 C   0  0  0  0  0  0  0  0  0  0  0  0
    1.7036   -5.9538    0.0000 O   0  0  0  0  0  0  0  0  0  0  0  0
    3.1325   -6.7788    0.0000 O   0  0  0  0  0  0  0  0  0  0  0  0
    7.4194   -9.2537    0.0000 O   0  0  0  0  0  0  0  0  0  0  0  0
   10.9917   -4.7162    0.0000 O   0  0  0  0  0  0  0  0  0  0  0  0
   12.4206   -5.5413    0.0000 O   0  0  0  0  0  0  0  0  0  0  0  0
    8.1338   -5.5413    0.0000 O   0  0  0  0  0  0  0  0  0  0  0  0
    9.5628   -5.5413    0.0000 O   0  0  0  0  0  0  0  0  0  0  0  0
  1  2  2  0  0  0  0
  2  3  1  0  0  0  0
  3  4  2  0  0  0  0
  4  5  1  0  0  0  0
  5  6  2  0  0  0  0
  6  1  1  0  0  0  0
  7 10  1  0  0  0  0
 10 11  1  0  0  0  0
 11  5  1  0  0  0  0
 12 13  1  0  0  0  0
 13 14  1  0  0  0  0
 14 10  1  0  0  0  0
 12 15  1  0  0  0  0
 16 13  2  0  0  0  0
 17 18  2  0  0  0  0
 18 15  1  0  0  0  0
 17 19  1  0  0  0  0
 19 20  2  0  0  0  0
 20 21  1  0  0  0  0
 21 22  2  0  0  0  0
 22 18  1  0  0  0  0
 23 24  1  0  0  0  0
 24 25  1  0  0  0  0
 25 22  1  0  0  0  0
 24 26  1  0  0  0  0
 26 27  2  0  0  0  0
 28 25  1  0  0  0  0
 26 29  1  0  0  0  0
 29 30  2  0  0  0  0
 30 31  1  0  0  0  0
 31 32  2  0  0  0  0
 32 27  1  0  0  0  0
  2 33  1  0  0  0  0
  3 34  1  0  0  0  0
 20 35  1  0  0  0  0
 21 23  1  0  0  0  0
 32 36  1  0  0  0  0
 31 37  1  0  0  0  0
  7  8  2  0  0  0  0
  7  9  1  0  0  0  0
 28 38  2  0  0  0  0
 28 39  1  0  0  0  0
M  STY  2   1 SUP   2 SUP
M  SAL   1  3   7   8   9
M  SBL   1  1   7
M  SMT   1 CO2H
M  SAP   1  1   7  10  1
M  SAL   2  3  28  38  39
M  SBL   2  1  27
M  SMT   2 CO2H
M  SAP   2  1  28  25  1
M  END
>  <cdx:fragmentId>
5

$$$$
