92777.cdx
  Mrv1902 05222410262D          

 28 30  0  0  0  0            999 V2000
    4.2656   -6.7690    0.0000 C   0  0  0  0  0  0  0  0  0  0  0  0
    4.7727   -7.4197    0.0000 C   0  0  0  0  0  0  0  0  0  0  0  0
    5.5899   -7.3060    0.0000 C   0  0  0  0  0  0  0  0  0  0  0  0
    5.8999   -6.5414    0.0000 C   0  0  0  0  0  0  0  0  0  0  0  0
    5.3928   -5.8907    0.0000 C   0  0  0  0  0  0  0  0  0  0  0  0
    4.5757   -6.0044    0.0000 C   0  0  0  0  0  0  0  0  0  0  0  0
    6.7170   -6.4276    0.0000 C   0  0  2  0  0  0  0  0  0  0  0  0
    7.4042   -6.8841    0.0000 O   0  0  0  0  0  0  0  0  0  0  0  0
    8.0507   -6.3715    0.0000 C   0  0  0  0  0  0  0  0  0  0  0  0
    7.7630   -5.5983    0.0000 C   0  0  1  0  0  0  0  0  0  0  0  0
    6.9387   -5.6330    0.0000 C   0  0  1  0  0  0  0  0  0  0  0  0
    8.0730   -4.8338    0.0000 C   0  0  0  0  0  0  0  0  0  0  0  0
    4.0686   -5.3537    0.0000 O   0  0  0  0  0  0  0  0  0  0  0  0
    4.4627   -8.1843    0.0000 O   0  0  0  0  0  0  0  0  0  0  0  0
    8.8901   -4.7200    0.0000 C   0  0  0  0  0  0  0  0  0  0  0  0
    7.5659   -4.1830    0.0000 O   0  0  0  0  0  0  0  0  0  0  0  0
    9.3972   -5.3708    0.0000 C   0  0  0  0  0  0  0  0  0  0  0  0
   10.2144   -5.2570    0.0000 C   0  0  0  0  0  0  0  0  0  0  0  0
   10.5244   -4.4925    0.0000 C   0  0  0  0  0  0  0  0  0  0  0  0
   10.0173   -3.8417    0.0000 C   0  0  0  0  0  0  0  0  0  0  0  0
    9.2002   -3.9555    0.0000 C   0  0  0  0  0  0  0  0  0  0  0  0
   10.3273   -3.0772    0.0000 O   0  0  0  0  0  0  0  0  0  0  0  0
   11.3415   -4.3787    0.0000 O   0  0  0  0  0  0  0  0  0  0  0  0
    6.4316   -4.9822    0.0000 C   0  0  0  0  0  0  0  0  0  0  0  0
    4.3786   -4.5892    0.0000 C   0  0  0  0  0  0  0  0  0  0  0  0
    3.6377   -8.1843    0.0000 C   0  0  0  0  0  0  0  0  0  0  0  0
   11.8486   -5.0294    0.0000 C   0  0  0  0  0  0  0  0  0  0  0  0
   11.1523   -3.0772    0.0000 C   0  0  0  0  0  0  0  0  0  0  0  0
  1  2  2  0  0  0  0
  2  3  1  0  0  0  0
  3  4  2  0  0  0  0
  4  5  1  0  0  0  0
  5  6  2  0  0  0  0
  6  1  1  0  0  0  0
  7  4  1  1  0  0  0
  7  8  1  0  0  0  0
  8  9  1  0  0  0  0
  9 10  1  0  0  0  0
 10 11  1  0  0  0  0
 11  7  1  0  0  0  0
 10 12  1  1  0  0  0
  6 13  1  0  0  0  0
  2 14  1  0  0  0  0
 12 15  1  0  0  0  0
 12 16  2  0  0  0  0
 15 17  2  0  0  0  0
 17 18  1  0  0  0  0
 18 19  2  0  0  0  0
 19 20  1  0  0  0  0
 20 21  2  0  0  0  0
 21 15  1  0  0  0  0
 20 22  1  0  0  0  0
 19 23  1  0  0  0  0
 11 24  1  6  0  0  0
 13 25  1  0  0  0  0
 14 26  1  0  0  0  0
 23 27  1  0  0  0  0
 22 28  1  0  0  0  0
M  END
>  <cdx:fragmentId>
5

$$$$
