92771.cdx
  Mrv1902 05222410272D          

 26 27  0  0  0  0            999 V2000
    8.4582   -7.4958    0.0000 C   0  0  0  0  0  0  0  0  0  0  0  0
    9.0426   -8.0782    0.0000 C   0  0  2  0  0  0  0  0  0  0  0  0
    9.8391   -7.8634    0.0000 C   0  0  0  0  0  0  0  0  0  0  0  0
   10.4234   -8.4458    0.0000 C   0  0  0  0  0  0  0  0  0  0  0  0
    8.6705   -6.6986    0.0000 O   0  0  0  0  0  0  0  0  0  0  0  0
    7.6703   -7.7403    0.0000 O   0  0  0  0  0  0  0  0  0  0  0  0
    8.8303   -8.8755    0.0000 C   0  0  0  0  0  0  0  0  0  0  0  0
    5.3760   -9.9537    0.0000 O   0  0  0  0  0  0  0  0  0  0  0  0
    6.1611  -10.2074    0.0000 C   0  0  1  0  0  0  0  0  0  0  0  0
    6.1624  -11.0324    0.0000 C   0  0  2  0  0  0  0  0  0  0  0  0
    5.3782  -11.2886    0.0000 C   0  0  0  0  0  0  0  0  0  0  0  0
    4.8922  -10.6219    0.0000 C   0  0  0  0  0  0  0  0  0  0  0  0
    6.8083  -11.5457    0.0000 C   0  0  0  0  0  0  0  0  0  0  0  0
    7.6123  -11.3608    0.0000 C   0  0  0  0  0  0  0  0  0  0  0  0
    7.9690  -10.6169    0.0000 C   0  0  0  0  0  0  0  0  0  0  0  0
    7.6099   -9.8742    0.0000 C   0  0  0  0  0  0  0  0  0  0  0  0
    8.0318   -9.1653    0.0000 C   0  0  0  0  0  0  0  0  0  0  0  0
    7.4880   -8.5449    0.0000 C   0  0  1  0  0  0  0  0  0  0  0  0
    6.7299   -8.8704    0.0000 C   0  0  0  0  0  0  0  0  0  0  0  0
    6.8052   -9.6919    0.0000 C   0  0  0  0  0  0  0  0  0  0  0  0
    4.0672  -10.6233    0.0000 O   0  0  0  0  0  0  0  0  0  0  0  0
    5.1246  -12.0736    0.0000 C   0  0  0  0  0  0  0  0  0  0  0  0
    6.0148   -8.4590    0.0000 C   0  0  0  0  0  0  0  0  0  0  0  0
    8.7940  -10.6156    0.0000 C   0  0  0  0  0  0  0  0  0  0  0  0
    6.0164  -11.8443    0.0000 H   0  0  0  0  0  0  0  0  0  0  0  0
    6.0124   -9.3959    0.0000 H   0  0  0  0  0  0  0  0  0  0  0  0
  1  2  1  0  0  0  0
  2  3  1  0  0  0  0
  3  4  1  0  0  0  0
  1  5  2  0  0  0  0
  1  6  1  0  0  0  0
  2  7  1  6  0  0  0
  8  9  1  0  0  0  0
  9 10  1  0  0  0  0
 10 11  1  0  0  0  0
 11 12  1  0  0  0  0
  8 12  1  0  0  0  0
 13 14  1  0  0  0  0
 14 15  1  0  0  0  0
 15 16  2  0  0  0  0
 16 17  1  0  0  0  0
 17 18  1  0  0  0  0
 18 19  1  0  0  0  0
 19 20  2  0  0  0  0
 20  9  1  0  0  0  0
 13 10  1  0  0  0  0
 12 21  2  0  0  0  0
 11 22  2  0  0  0  0
 19 23  1  0  0  0  0
 15 24  1  0  0  0  0
 18  6  1  1  0  0  0
 10 25  1  6  0  0  0
  9 26  1  1  0  0  0
M  END
>  <cdx:fragmentId>
29

$$$$
