92776.cdx
  Mrv1902 05222410262D          

 16 16  0  0  0  0            999 V2000
    7.4116   -8.0076    0.0000 C   0  0  0  0  0  0  0  0  0  0  0  0
    6.6915   -8.4102    0.0000 C   0  0  0  0  0  0  0  0  0  0  0  0
    5.9828   -7.9879    0.0000 C   0  0  0  0  0  0  0  0  0  0  0  0
    5.9941   -7.1630    0.0000 C   0  0  0  0  0  0  0  0  0  0  0  0
    6.7142   -6.7603    0.0000 C   0  0  1  0  0  0  0  0  0  0  0  0
    7.4229   -7.1826    0.0000 C   0  0  0  0  0  0  0  0  0  0  0  0
    6.0169   -5.5131    0.0000 C   0  0  0  0  0  0  0  0  0  0  0  0
    6.7256   -5.9354    0.0000 C   0  0  1  0  0  0  0  0  0  0  0  0
    7.4457   -5.5328    0.0000 C   0  0  0  0  0  0  0  0  0  0  0  0
    7.4570   -4.7079    0.0000 C   0  0  0  0  0  0  0  0  0  0  0  0
    8.1771   -4.3053    0.0000 C   0  0  0  0  0  0  0  0  0  0  0  0
    8.1885   -3.4803    0.0000 C   0  0  0  0  0  0  0  0  0  0  0  0
    7.4797   -3.0580    0.0000 C   0  0  0  0  0  0  0  0  0  0  0  0
    8.9085   -3.0777    0.0000 C   0  0  0  0  0  0  0  0  0  0  0  0
    6.6801   -9.2351    0.0000 C   0  0  0  0  0  0  0  0  0  0  0  0
    7.4287   -6.3478    0.0000 H   0  0  0  0  0  0  0  0  0  0  0  0
  1  2  1  0  0  0  0
  2  3  2  0  0  0  0
  3  4  1  0  0  0  0
  5  4  1  0  0  0  0
  5  6  1  0  0  0  0
  1  6  2  0  0  0  0
  8  7  1  1  0  0  0
  8  9  1  0  0  0  0
  9 10  1  0  0  0  0
 10 11  1  0  0  0  0
 11 12  2  0  0  0  0
 12 13  1  0  0  0  0
 12 14  1  0  0  0  0
  5  8  1  0  0  0  0
  2 15  1  0  0  0  0
  5 16  1  1  0  0  0
M  END
>  <cdx:fragmentId>
15

$$$$
