92773.cdx
  Mrv1902 05222410282D          

 16 17  0  0  0  0            999 V2000
    4.8656   -5.7888    0.0000 C   0  0  0  0  0  0  0  0  0  0  0  0
    4.8656   -6.6137    0.0000 C   0  0  0  0  0  0  0  0  0  0  0  0
    5.5800   -7.0263    0.0000 C   0  0  0  0  0  0  0  0  0  0  0  0
    6.2945   -6.6137    0.0000 C   0  0  0  0  0  0  0  0  0  0  0  0
    6.2945   -5.7888    0.0000 C   0  0  0  0  0  0  0  0  0  0  0  0
    5.5800   -5.3763    0.0000 C   0  0  0  0  0  0  0  0  0  0  0  0
    7.0791   -6.8687    0.0000 N   0  0  0  0  0  0  0  0  0  0  0  0
    7.5640   -6.2012    0.0000 C   0  0  0  0  0  0  0  0  0  0  0  0
    7.0791   -5.5338    0.0000 C   0  0  0  0  0  0  0  0  0  0  0  0
    7.3341   -7.6533    0.0000 O   0  0  0  0  0  0  0  0  0  0  0  0
    6.7820   -8.2664    0.0000 C   0  0  0  0  0  0  0  0  0  0  0  0
    7.3341   -4.7492    0.0000 C   0  0  0  0  0  0  0  0  0  0  0  0
    6.7820   -4.1361    0.0000 C   0  0  0  0  0  0  0  0  0  0  0  0
    7.0370   -3.3515    0.0000 N   0  3  0  0  0  0  0  0  0  0  0  0
    6.4849   -2.7384    0.0000 O   0  5  0  0  0  0  0  0  0  0  0  0
    7.8439   -3.1799    0.0000 O   0  0  0  0  0  0  0  0  0  0  0  0
  1  2  2  0  0  0  0
  2  3  1  0  0  0  0
  3  4  2  0  0  0  0
  4  5  1  0  0  0  0
  5  6  2  0  0  0  0
  6  1  1  0  0  0  0
  4  7  1  0  0  0  0
  7  8  1  0  0  0  0
  8  9  2  0  0  0  0
  9  5  1  0  0  0  0
  7 10  1  0  0  0  0
 10 11  1  0  0  0  0
  9 12  1  0  0  0  0
 12 13  1  0  0  0  0
 13 14  1  0  0  0  0
 14 15  1  0  0  0  0
 14 16  2  0  0  0  0
M  CHG  2  14   1  15  -1
M  END
>  <cdx:fragmentId>
5

$$$$
