92775.cdx
  Mrv1902 05222410272D          

 20 22  0  0  0  0            999 V2000
   10.3006   -5.0709    0.0000 O   0  0  0  0  0  0  0  0  0  0  0  0
   10.3147   -3.4210    0.0000 O   0  0  0  0  0  0  0  0  0  0  0  0
    8.1678   -3.8152    0.0000 C   0  0  0  0  0  0  0  0  0  0  0  0
    8.8858   -3.4088    0.0000 C   0  0  0  0  0  0  0  0  0  0  0  0
    9.5967   -3.8274    0.0000 C   0  0  0  0  0  0  0  0  0  0  0  0
    9.5897   -4.6523    0.0000 C   0  0  0  0  0  0  0  0  0  0  0  0
    8.8717   -5.0587    0.0000 C   0  0  0  0  0  0  0  0  0  0  0  0
    8.1608   -4.6402    0.0000 C   0  0  0  0  0  0  0  0  0  0  0  0
    3.8741   -4.6037    0.0000 O   0  0  0  0  0  0  0  0  0  0  0  0
    6.7108   -7.1029    0.0000 O   0  0  0  0  0  0  0  0  0  0  0  0
    6.7319   -4.6280    0.0000 O   0  0  0  0  0  0  0  0  0  0  0  0
    6.0139   -5.0344    0.0000 C   0  0  0  0  0  0  0  0  0  0  0  0
    5.3030   -4.6158    0.0000 C   0  0  0  0  0  0  0  0  0  0  0  0
    4.5850   -5.0222    0.0000 C   0  0  0  0  0  0  0  0  0  0  0  0
    4.5780   -5.8472    0.0000 C   0  0  0  0  0  0  0  0  0  0  0  0
    5.2890   -6.2658    0.0000 C   0  0  0  0  0  0  0  0  0  0  0  0
    6.0069   -5.8594    0.0000 C   0  0  0  0  0  0  0  0  0  0  0  0
    6.7178   -6.2780    0.0000 C   0  0  0  0  0  0  0  0  0  0  0  0
    7.4358   -5.8716    0.0000 C   0  0  0  0  0  0  0  0  0  0  0  0
    7.4428   -5.0466    0.0000 C   0  0  1  0  0  0  0  0  0  0  0  0
 20  8  1  6  0  0  0
  6  1  1  0  0  0  0
  5  2  1  0  0  0  0
  8  3  2  0  0  0  0
  4  3  1  0  0  0  0
  5  4  2  0  0  0  0
  6  5  1  0  0  0  0
  7  6  2  0  0  0  0
  8  7  1  0  0  0  0
 14  9  1  0  0  0  0
 18 10  2  0  0  0  0
 20 11  1  0  0  0  0
 12 11  1  0  0  0  0
 17 12  2  0  0  0  0
 13 12  1  0  0  0  0
 14 13  2  0  0  0  0
 15 14  1  0  0  0  0
 16 15  2  0  0  0  0
 17 16  1  0  0  0  0
 18 17  1  0  0  0  0
 19 18  1  0  0  0  0
 20 19  1  0  0  0  0
M  END
>  <cdx:groupId>
64

>  <cdx:fragmentId>
5

$$$$
