92781.cdx
  Mrv1902 05222410182D          

 44 46  0  0  0  0            999 V2000
    9.5452  -13.5800    0.0000 C   0  0  0  0  0  0  0  0  0  0  0  0
   10.2621  -13.1717    0.0000 C   0  0  0  0  0  0  0  0  0  0  0  0
   10.2669  -12.3467    0.0000 C   0  0  0  0  0  0  0  0  0  0  0  0
    9.5549  -11.9301    0.0000 C   0  0  0  0  0  0  0  0  0  0  0  0
    8.8380  -12.3384    0.0000 C   0  0  0  0  0  0  0  0  0  0  0  0
    8.8332  -13.1634    0.0000 C   0  0  0  0  0  0  0  0  0  0  0  0
    9.5404  -14.4050    0.0000 O   0  0  0  0  0  0  0  0  0  0  0  0
    8.1163  -13.5717    0.0000 O   0  0  0  0  0  0  0  0  0  0  0  0
    9.5597  -11.1051    0.0000 C   0  0  0  0  0  0  0  0  0  0  0  0
    8.8477  -10.6884    0.0000 C   0  0  0  0  0  0  0  0  0  0  0  0
    8.8525   -9.8634    0.0000 C   0  0  0  0  0  0  0  0  0  0  0  0
    9.5694   -9.4551    0.0000 O   0  0  0  0  0  0  0  0  0  0  0  0
    1.7550   -8.2512    0.0000 O   0  0  0  0  0  0  0  0  0  0  0  0
    1.7587   -9.9012    0.0000 O   0  0  0  0  0  0  0  0  0  0  0  0
    2.4704   -8.6621    0.0000 C   0  0  0  0  0  0  0  0  0  0  0  0
    3.1839   -8.2480    0.0000 C   0  0  0  0  0  0  0  0  0  0  0  0
    3.8993   -8.6588    0.0000 C   0  0  0  0  0  0  0  0  0  0  0  0
    3.9012   -9.4838    0.0000 C   0  0  0  0  0  0  0  0  0  0  0  0
    3.1877   -9.8980    0.0000 C   0  0  0  0  0  0  0  0  0  0  0  0
    2.4723   -9.4871    0.0000 C   0  0  0  0  0  0  0  0  0  0  0  0
    4.6129   -8.2447    0.0000 C   0  0  0  0  0  0  0  0  0  0  0  0
    5.3283   -8.6556    0.0000 C   0  0  0  0  0  0  0  0  0  0  0  0
    6.0418   -8.2415    0.0000 C   0  0  0  0  0  0  0  0  0  0  0  0
    6.0400   -7.4165    0.0000 O   0  0  0  0  0  0  0  0  0  0  0  0
    8.1701   -6.9574    0.0000 C   0  0  2  0  0  0  0  0  0  0  0  0
    8.5809   -6.2420    0.0000 C   0  0  0  0  0  0  0  0  0  0  0  0
    7.7559   -6.2439    0.0000 O   0  0  0  0  0  0  0  0  0  0  0  0
    8.1668   -5.5285    0.0000 O   0  0  0  0  0  0  0  0  0  0  0  0
    9.4059   -6.2401    0.0000 O   0  0  0  0  0  0  0  0  0  0  0  0
    6.5497   -6.9452    0.0000 O   0  0  0  0  0  0  0  0  0  0  0  0
    5.7862   -4.0703    0.0000 O   0  0  0  0  0  0  0  0  0  0  0  0
    4.5336   -4.7580    0.0000 O   0  0  0  0  0  0  0  0  0  0  0  0
    8.8855   -7.3683    0.0000 C   0  0  0  0  0  0  0  0  0  0  0  0
    7.4565   -7.3716    0.0000 C   0  0  0  0  0  0  0  0  0  0  0  0
    7.4584   -8.1966    0.0000 C   0  0  2  0  0  0  0  0  0  0  0  0
    8.1738   -8.6074    0.0000 C   0  0  1  0  0  0  0  0  0  0  0  0
    8.8874   -8.1933    0.0000 C   0  0  2  0  0  0  0  0  0  0  0  0
    9.6028   -8.6042    0.0000 O   0  0  0  0  0  0  0  0  0  0  0  0
    8.1757   -9.4324    0.0000 O   0  0  0  0  0  0  0  0  0  0  0  0
    6.7449   -8.6107    0.0000 O   0  0  0  0  0  0  0  0  0  0  0  0
    5.3584   -4.7757    0.0000 C   0  0  0  0  0  0  0  0  0  0  0  0
    5.7555   -5.4989    0.0000 C   0  0  0  0  0  0  0  0  0  0  0  0
    6.5803   -5.5166    0.0000 C   0  0  0  0  0  0  0  0  0  0  0  0
    6.9774   -6.2397    0.0000 C   0  0  0  0  0  0  0  0  0  0  0  0
 11 39  1  0  0  0  0
  1  2  2  0  0  0  0
  2  3  1  0  0  0  0
  3  4  2  0  0  0  0
  4  5  1  0  0  0  0
  5  6  2  0  0  0  0
  6  1  1  0  0  0  0
  1  7  1  0  0  0  0
  6  8  1  0  0  0  0
  4  9  1  0  0  0  0
  9 10  2  0  0  0  0
 10 11  1  0  0  0  0
 11 12  2  0  0  0  0
 23 40  1  0  0  0  0
 15 13  1  0  0  0  0
 20 14  1  0  0  0  0
 15 20  1  0  0  0  0
 16 15  2  0  0  0  0
 17 16  1  0  0  0  0
 18 17  2  0  0  0  0
 19 18  1  0  0  0  0
 20 19  2  0  0  0  0
 17 21  1  0  0  0  0
 21 22  2  0  0  0  0
 22 23  1  0  0  0  0
 23 24  2  0  0  0  0
 25 26  1  0  0  0  0
 25 27  1  1  0  0  0
 26 28  1  0  0  0  0
 26 29  2  0  0  0  0
 44 30  2  0  0  0  0
 41 31  2  0  0  0  0
 33 25  1  0  0  0  0
 25 34  1  0  0  0  0
 34 35  1  0  0  0  0
 35 36  1  0  0  0  0
 36 37  1  0  0  0  0
 37 33  1  0  0  0  0
 37 38  1  1  0  0  0
 36 39  1  1  0  0  0
 35 40  1  6  0  0  0
 32 41  1  0  0  0  0
 41 42  1  0  0  0  0
 42 43  1  0  0  0  0
 43 44  1  0  0  0  0
 44 27  1  0  0  0  0
M  END
>  <cdx:fragmentId>
5

$$$$
