927872.cdx
  Mrv1902 05222410202D          

 20 19  0  0  0  0            999 V2000
    3.2887   -7.4847    0.0000 O   0  0  0  0  0  0  0  0  0  0  0  0
   13.2913   -8.3097    0.0000 O   0  0  0  0  0  0  0  0  0  0  0  0
    1.1453   -8.7222    0.0000 O   0  0  0  0  0  0  0  0  0  0  0  0
    1.8598   -7.4847    0.0000 O   0  0  0  0  0  0  0  0  0  0  0  0
   12.5769   -8.7222    0.0000 C   0  0  0  0  0  0  0  0  0  0  0  0
   11.8624   -8.3097    0.0000 C   0  0  0  0  0  0  0  0  0  0  0  0
   11.1479   -8.7222    0.0000 C   0  0  0  0  0  0  0  0  0  0  0  0
   10.4335   -8.3097    0.0000 C   0  0  0  0  0  0  0  0  0  0  0  0
    9.7190   -8.7222    0.0000 C   0  0  0  0  0  0  0  0  0  0  0  0
    9.0045   -8.3097    0.0000 C   0  0  0  0  0  0  0  0  0  0  0  0
    8.2900   -8.7222    0.0000 C   0  0  0  0  0  0  0  0  0  0  0  0
    7.5756   -8.3097    0.0000 C   0  0  0  0  0  0  0  0  0  0  0  0
    6.8611   -8.7222    0.0000 C   0  0  0  0  0  0  0  0  0  0  0  0
    6.1466   -8.3097    0.0000 C   0  0  0  0  0  0  0  0  0  0  0  0
    5.4322   -8.7222    0.0000 C   0  0  0  0  0  0  0  0  0  0  0  0
    4.7177   -8.3097    0.0000 C   0  0  0  0  0  0  0  0  0  0  0  0
    4.0032   -8.7222    0.0000 C   0  0  0  0  0  0  0  0  0  0  0  0
    3.2887   -8.3097    0.0000 C   0  0  0  0  0  0  0  0  0  0  0  0
    2.5743   -8.7222    0.0000 C   0  0  0  0  0  0  0  0  0  0  0  0
    1.8598   -8.3097    0.0000 C   0  0  0  0  0  0  0  0  0  0  0  0
 18  1  1  0  0  0  0
  5  2  1  0  0  0  0
 20  3  1  0  0  0  0
 20  4  2  0  0  0  0
  6  5  1  0  0  0  0
  7  6  1  0  0  0  0
  8  7  1  0  0  0  0
  9  8  1  0  0  0  0
 10  9  1  0  0  0  0
 11 10  1  0  0  0  0
 12 11  1  0  0  0  0
 13 12  1  0  0  0  0
 14 13  1  0  0  0  0
 15 14  1  0  0  0  0
 16 15  1  0  0  0  0
 17 16  1  0  0  0  0
 18 17  1  0  0  0  0
 19 18  1  0  0  0  0
 20 19  1  0  0  0  0
M  END
>  <cdx:fragmentId>
48059

$$$$
