92789.cdx
  Mrv1902 05222410262D          

 49 55  0  0  0  0            999 V2000
    7.2718   -7.7550    0.0000 C   0  0  0  0  0  0  0  0  0  0  0  0
    7.2718   -8.5800    0.0000 C   0  0  0  0  0  0  0  0  0  0  0  0
    7.9863   -8.9925    0.0000 C   0  0  0  0  0  0  0  0  0  0  0  0
    8.7007   -8.5800    0.0000 C   0  0  0  0  0  0  0  0  0  0  0  0
    8.7007   -7.7550    0.0000 C   0  0  0  0  0  0  0  0  0  0  0  0
    7.9863   -7.3425    0.0000 C   0  0  0  0  0  0  0  0  0  0  0  0
    6.5573   -8.9925    0.0000 O   0  0  0  0  0  0  0  0  0  0  0  0
    9.4152   -7.3425    0.0000 C   0  0  1  0  0  0  0  0  0  0  0  0
   10.1689   -7.6781    0.0000 O   0  0  0  0  0  0  0  0  0  0  0  0
   10.7209   -7.0650    0.0000 C   0  0  0  0  0  0  0  0  0  0  0  0
   10.3084   -6.3505    0.0000 C   0  0  1  0  0  0  0  0  0  0  0  0
    9.5015   -6.5220    0.0000 C   0  0  2  0  0  0  0  0  0  0  0  0
   10.3947   -5.5300    0.0000 C   0  0  2  0  0  0  0  0  0  0  0  0
    9.6410   -5.1945    0.0000 O   0  0  0  0  0  0  0  0  0  0  0  0
    9.0890   -5.8075    0.0000 C   0  0  1  0  0  0  0  0  0  0  0  0
   11.1091   -5.1175    0.0000 C   0  0  0  0  0  0  0  0  0  0  0  0
   11.8236   -5.5300    0.0000 C   0  0  0  0  0  0  0  0  0  0  0  0
   12.5381   -5.1175    0.0000 C   0  0  0  0  0  0  0  0  0  0  0  0
   12.5381   -4.2925    0.0000 C   0  0  0  0  0  0  0  0  0  0  0  0
   11.8236   -3.8800    0.0000 C   0  0  0  0  0  0  0  0  0  0  0  0
   11.1091   -4.2925    0.0000 C   0  0  0  0  0  0  0  0  0  0  0  0
   13.3227   -5.3725    0.0000 O   0  0  0  0  0  0  0  0  0  0  0  0
   13.8076   -4.7050    0.0000 C   0  0  0  0  0  0  0  0  0  0  0  0
   13.3227   -4.0376    0.0000 O   0  0  0  0  0  0  0  0  0  0  0  0
    8.6945   -6.6935    0.0000 H   0  0  0  0  0  0  0  0  0  0  0  0
   11.1154   -6.1790    0.0000 H   0  0  0  0  0  0  0  0  0  0  0  0
    8.2685   -5.7213    0.0000 O   0  0  0  0  0  0  0  0  0  0  0  0
    6.5573   -9.8175    0.0000 C   0  0  2  0  0  0  0  0  0  0  0  0
    5.8429  -10.2300    0.0000 O   0  0  0  0  0  0  0  0  0  0  0  0
    5.8429  -11.0550    0.0000 C   0  0  1  0  0  0  0  0  0  0  0  0
    6.5573  -11.4675    0.0000 C   0  0  2  0  0  0  0  0  0  0  0  0
    7.2718  -11.0550    0.0000 C   0  0  1  0  0  0  0  0  0  0  0  0
    7.2718  -10.2300    0.0000 C   0  0  1  0  0  0  0  0  0  0  0  0
    5.1284  -11.4675    0.0000 C   0  0  0  0  0  0  0  0  0  0  0  0
    7.9863  -11.4675    0.0000 O   0  0  0  0  0  0  0  0  0  0  0  0
    7.9863   -9.8175    0.0000 O   0  0  0  0  0  0  0  0  0  0  0  0
    6.5573  -12.2925    0.0000 O   0  0  0  0  0  0  0  0  0  0  0  0
    5.1284  -12.2925    0.0000 O   0  0  0  0  0  0  0  0  0  0  0  0
    4.4139  -12.7050    0.0000 C   0  0  2  0  0  0  0  0  0  0  0  0
    3.6994  -12.2925    0.0000 O   0  0  0  0  0  0  0  0  0  0  0  0
    2.9850  -12.7050    0.0000 C   0  0  1  0  0  0  0  0  0  0  0  0
    2.9850  -13.5300    0.0000 C   0  0  2  0  0  0  0  0  0  0  0  0
    3.6994  -13.9425    0.0000 C   0  0  1  0  0  0  0  0  0  0  0  0
    4.4139  -13.5300    0.0000 C   0  0  1  0  0  0  0  0  0  0  0  0
    2.2705  -12.2925    0.0000 C   0  0  0  0  0  0  0  0  0  0  0  0
    3.6994  -14.7675    0.0000 O   0  0  0  0  0  0  0  0  0  0  0  0
    5.1284  -13.9425    0.0000 O   0  0  0  0  0  0  0  0  0  0  0  0
    2.2705  -13.9425    0.0000 O   0  0  0  0  0  0  0  0  0  0  0  0
    1.5560  -12.7050    0.0000 O   0  0  0  0  0  0  0  0  0  0  0  0
  1  2  2  0  0  0  0
  2  3  1  0  0  0  0
  3  4  2  0  0  0  0
  4  5  1  0  0  0  0
  5  6  2  0  0  0  0
  6  1  1  0  0  0  0
  2  7  1  0  0  0  0
  8  5  1  6  0  0  0
  8  9  1  0  0  0  0
  9 10  1  0  0  0  0
 10 11  1  0  0  0  0
 11 12  1  0  0  0  0
 12  8  1  0  0  0  0
 11 13  1  0  0  0  0
 13 14  1  0  0  0  0
 14 15  1  0  0  0  0
 15 12  1  0  0  0  0
 13 16  1  6  0  0  0
 16 17  2  0  0  0  0
 17 18  1  0  0  0  0
 18 19  2  0  0  0  0
 19 20  1  0  0  0  0
 20 21  2  0  0  0  0
 21 16  1  0  0  0  0
 18 22  1  0  0  0  0
 22 23  1  0  0  0  0
 23 24  1  0  0  0  0
 24 19  1  0  0  0  0
 12 25  1  6  0  0  0
 11 26  1  6  0  0  0
 15 27  1  6  0  0  0
 28  7  1  1  0  0  0
 28 29  1  0  0  0  0
 29 30  1  0  0  0  0
 30 31  1  0  0  0  0
 31 32  1  0  0  0  0
 32 33  1  0  0  0  0
 33 28  1  0  0  0  0
 30 34  1  1  0  0  0
 32 35  1  1  0  0  0
 33 36  1  6  0  0  0
 31 37  1  6  0  0  0
 34 38  1  0  0  0  0
 39 38  1  1  0  0  0
 39 40  1  0  0  0  0
 40 41  1  0  0  0  0
 41 42  1  0  0  0  0
 42 43  1  0  0  0  0
 43 44  1  0  0  0  0
 44 39  1  0  0  0  0
 41 45  1  1  0  0  0
 43 46  1  1  0  0  0
 44 47  1  6  0  0  0
 42 48  1  6  0  0  0
 45 49  1  0  0  0  0
M  END
>  <cdx:fragmentId>
5

$$$$
