92786.cdx
  Mrv1902 05222410192D          

 31 32  0  0  0  0            999 V2000
    2.5968   -7.6587    0.0000 C   0  0  0  0  0  0  0  0  0  0  0  0
    2.5968   -8.4838    0.0000 C   0  0  0  0  0  0  0  0  0  0  0  0
    3.3113   -8.8963    0.0000 C   0  0  0  0  0  0  0  0  0  0  0  0
    4.0257   -8.4838    0.0000 C   0  0  0  0  0  0  0  0  0  0  0  0
    4.0257   -7.6587    0.0000 C   0  0  0  0  0  0  0  0  0  0  0  0
    3.3113   -7.2462    0.0000 C   0  0  0  0  0  0  0  0  0  0  0  0
    1.8823   -7.2462    0.0000 O   0  0  0  0  0  0  0  0  0  0  0  0
    1.8823   -8.8963    0.0000 O   0  0  0  0  0  0  0  0  0  0  0  0
    4.7402   -7.2462    0.0000 C   0  0  0  0  0  0  0  0  0  0  0  0
    5.4547   -7.6587    0.0000 C   0  0  0  0  0  0  0  0  0  0  0  0
    6.1692   -7.2462    0.0000 C   0  0  0  0  0  0  0  0  0  0  0  0
    6.8836   -7.6587    0.0000 C   0  0  0  0  0  0  0  0  0  0  0  0
    7.5981   -7.2462    0.0000 C   0  0  0  0  0  0  0  0  0  0  0  0
    8.3126   -7.6587    0.0000 C   0  0  0  0  0  0  0  0  0  0  0  0
    9.0270   -7.2462    0.0000 C   0  0  0  0  0  0  0  0  0  0  0  0
    9.7415   -7.6587    0.0000 C   0  0  0  0  0  0  0  0  0  0  0  0
    9.7415   -8.4838    0.0000 C   0  0  0  0  0  0  0  0  0  0  0  0
   10.4560   -8.8963    0.0000 C   0  0  0  0  0  0  0  0  0  0  0  0
   11.1705   -8.4838    0.0000 C   0  0  0  0  0  0  0  0  0  0  0  0
   11.1705   -7.6587    0.0000 C   0  0  0  0  0  0  0  0  0  0  0  0
   10.4560   -7.2462    0.0000 C   0  0  0  0  0  0  0  0  0  0  0  0
   11.8849   -7.2462    0.0000 O   0  0  0  0  0  0  0  0  0  0  0  0
   11.8849   -8.8963    0.0000 O   0  0  0  0  0  0  0  0  0  0  0  0
    6.1692   -6.4213    0.0000 O   0  0  0  0  0  0  0  0  0  0  0  0
    5.4547   -6.0088    0.0000 C   0  0  0  0  0  0  0  0  0  0  0  0
    5.4547   -5.1837    0.0000 C   0  0  0  0  0  0  0  0  0  0  0  0
    4.7402   -6.4213    0.0000 O   0  0  0  0  0  0  0  0  0  0  0  0
    7.5981   -6.4213    0.0000 O   0  0  0  0  0  0  0  0  0  0  0  0
    8.3126   -6.0088    0.0000 C   0  0  0  0  0  0  0  0  0  0  0  0
    8.3126   -5.1837    0.0000 C   0  0  0  0  0  0  0  0  0  0  0  0
    9.0270   -6.4213    0.0000 O   0  0  0  0  0  0  0  0  0  0  0  0
  1  2  2  0  0  0  0
  2  3  1  0  0  0  0
  3  4  2  0  0  0  0
  4  5  1  0  0  0  0
  5  6  2  0  0  0  0
  6  1  1  0  0  0  0
  1  7  1  0  0  0  0
  2  8  1  0  0  0  0
  5  9  1  0  0  0  0
  9 10  1  0  0  0  0
 10 11  1  0  0  0  0
 11 12  1  0  0  0  0
 12 13  1  0  0  0  0
 13 14  1  0  0  0  0
 14 15  1  0  0  0  0
 15 16  1  0  0  0  0
 16 17  2  0  0  0  0
 17 18  1  0  0  0  0
 18 19  2  0  0  0  0
 19 20  1  0  0  0  0
 20 21  2  0  0  0  0
 21 16  1  0  0  0  0
 20 22  1  0  0  0  0
 19 23  1  0  0  0  0
 11 24  1  0  0  0  0
 24 25  1  0  0  0  0
 25 26  1  0  0  0  0
 25 27  2  0  0  0  0
 13 28  1  0  0  0  0
 28 29  1  0  0  0  0
 29 30  1  0  0  0  0
 29 31  2  0  0  0  0
M  END
>  <cdx:fragmentId>
5

$$$$
