92787.cdx
  Mrv1902 05222410192D          

 24 25  0  0  0  0            999 V2000
    2.7618   -6.6825    0.0000 C   0  0  0  0  0  0  0  0  0  0  0  0
    2.7618   -7.5075    0.0000 C   0  0  0  0  0  0  0  0  0  0  0  0
    3.4763   -7.9200    0.0000 C   0  0  0  0  0  0  0  0  0  0  0  0
    4.1907   -7.5075    0.0000 C   0  0  0  0  0  0  0  0  0  0  0  0
    4.1907   -6.6825    0.0000 C   0  0  0  0  0  0  0  0  0  0  0  0
    3.4763   -6.2700    0.0000 C   0  0  0  0  0  0  0  0  0  0  0  0
    2.0473   -6.2700    0.0000 O   0  0  0  0  0  0  0  0  0  0  0  0
    2.0473   -7.9200    0.0000 O   0  0  0  0  0  0  0  0  0  0  0  0
    4.9052   -6.2700    0.0000 C   0  0  0  0  0  0  0  0  0  0  0  0
    5.6197   -6.6825    0.0000 C   0  0  0  0  0  0  0  0  0  0  0  0
    6.3342   -6.2700    0.0000 C   0  0  0  0  0  0  0  0  0  0  0  0
    7.0486   -6.6825    0.0000 C   0  0  0  0  0  0  0  0  0  0  0  0
    6.3342   -5.4450    0.0000 O   0  0  0  0  0  0  0  0  0  0  0  0
    7.7631   -6.2700    0.0000 C   0  0  0  0  0  0  0  0  0  0  0  0
    8.4776   -6.6825    0.0000 C   0  0  0  0  0  0  0  0  0  0  0  0
    7.7631   -5.4450    0.0000 O   0  0  0  0  0  0  0  0  0  0  0  0
    9.1920   -6.2700    0.0000 C   0  0  0  0  0  0  0  0  0  0  0  0
    9.9065   -6.6825    0.0000 C   0  0  0  0  0  0  0  0  0  0  0  0
    9.9065   -7.5075    0.0000 C   0  0  0  0  0  0  0  0  0  0  0  0
   10.6210   -7.9200    0.0000 C   0  0  0  0  0  0  0  0  0  0  0  0
   11.3355   -7.5075    0.0000 C   0  0  0  0  0  0  0  0  0  0  0  0
   11.3355   -6.6825    0.0000 C   0  0  0  0  0  0  0  0  0  0  0  0
   10.6210   -6.2700    0.0000 C   0  0  0  0  0  0  0  0  0  0  0  0
   12.0499   -7.9200    0.0000 O   0  0  0  0  0  0  0  0  0  0  0  0
  1  2  2  0  0  0  0
  2  3  1  0  0  0  0
  3  4  2  0  0  0  0
  4  5  1  0  0  0  0
  5  6  2  0  0  0  0
  6  1  1  0  0  0  0
  1  7  1  0  0  0  0
  2  8  1  0  0  0  0
  5  9  1  0  0  0  0
  9 10  1  0  0  0  0
 10 11  1  0  0  0  0
 11 12  1  0  0  0  0
 11 13  1  0  0  0  0
 12 14  1  0  0  0  0
 14 15  1  0  0  0  0
 14 16  1  0  0  0  0
 15 17  1  0  0  0  0
 17 18  1  0  0  0  0
 18 19  2  0  0  0  0
 19 20  1  0  0  0  0
 20 21  2  0  0  0  0
 21 22  1  0  0  0  0
 22 23  2  0  0  0  0
 23 18  1  0  0  0  0
 21 24  1  0  0  0  0
M  END
>  <cdx:fragmentId>
5

$$$$
