92783.cdx
  Mrv1902 05222410192D          

 50 53  0  0  0  0            999 V2000
    4.9736   -6.5446    0.0000 O   0  0  0  0  0  0  0  0  0  0  0  0
    5.6874   -7.7825    0.0000 O   0  0  0  0  0  0  0  0  0  0  0  0
    4.9731   -7.3696    0.0000 C   0  0  0  0  0  0  0  0  0  0  0  0
    4.2584   -7.7817    0.0000 C   0  0  0  0  0  0  0  0  0  0  0  0
    3.5442   -7.3688    0.0000 C   0  0  0  0  0  0  0  0  0  0  0  0
    0.6863   -7.3671    0.0000 O   0  0  0  0  0  0  0  0  0  0  0  0
    0.6854   -9.0171    0.0000 O   0  0  0  0  0  0  0  0  0  0  0  0
    2.1143   -9.0179    0.0000 C   0  0  0  0  0  0  0  0  0  0  0  0
    2.8290   -8.6059    0.0000 C   0  0  0  0  0  0  0  0  0  0  0  0
    2.8295   -7.7809    0.0000 C   0  0  0  0  0  0  0  0  0  0  0  0
    2.1153   -7.3679    0.0000 C   0  0  0  0  0  0  0  0  0  0  0  0
    1.4006   -7.7800    0.0000 C   0  0  0  0  0  0  0  0  0  0  0  0
    1.4001   -8.6050    0.0000 C   0  0  0  0  0  0  0  0  0  0  0  0
    6.4019   -7.3700    0.0000 C   0  0  1  0  0  0  0  0  0  0  0  0
    7.1163   -7.7825    0.0000 C   0  0  1  0  0  0  0  0  0  0  0  0
    7.8308   -7.3700    0.0000 C   0  0  2  0  0  0  0  0  0  0  0  0
    7.8308   -6.5450    0.0000 C   0  0  1  0  0  0  0  0  0  0  0  0
    7.1163   -6.1325    0.0000 O   0  0  0  0  0  0  0  0  0  0  0  0
    6.4019   -6.5450    0.0000 C   0  0  2  0  0  0  0  0  0  0  0  0
    5.6874   -6.1325    0.0000 C   0  0  0  0  0  0  0  0  0  0  0  0
    7.1163   -8.6075    0.0000 O   0  0  0  0  0  0  0  0  0  0  0  0
    8.5453   -6.1325    0.0000 O   0  0  0  0  0  0  0  0  0  0  0  0
    8.5453   -7.7825    0.0000 O   0  0  0  0  0  0  0  0  0  0  0  0
    9.2597   -6.5450    0.0000 C   0  0  0  0  0  0  0  0  0  0  0  0
    9.9742   -6.1325    0.0000 C   0  0  0  0  0  0  0  0  0  0  0  0
   10.6887   -6.5450    0.0000 C   0  0  0  0  0  0  0  0  0  0  0  0
    9.9742   -5.3075    0.0000 O   0  0  0  0  0  0  0  0  0  0  0  0
   10.6887   -7.3700    0.0000 C   0  0  0  0  0  0  0  0  0  0  0  0
   11.4031   -7.7825    0.0000 C   0  0  0  0  0  0  0  0  0  0  0  0
   12.1176   -7.3700    0.0000 C   0  0  0  0  0  0  0  0  0  0  0  0
   12.1176   -6.5450    0.0000 C   0  0  0  0  0  0  0  0  0  0  0  0
   11.4031   -6.1325    0.0000 C   0  0  0  0  0  0  0  0  0  0  0  0
   12.8321   -7.7825    0.0000 O   0  0  0  0  0  0  0  0  0  0  0  0
   13.5466   -7.3700    0.0000 C   0  0  0  0  0  0  0  0  0  0  0  0
   11.4031   -8.6075    0.0000 O   0  0  0  0  0  0  0  0  0  0  0  0
   12.1176   -9.0200    0.0000 C   0  0  0  0  0  0  0  0  0  0  0  0
    8.5453   -8.6075    0.0000 C   0  0  0  0  0  0  0  0  0  0  0  0
    9.2597   -9.0200    0.0000 C   0  0  0  0  0  0  0  0  0  0  0  0
    7.8308   -9.0200    0.0000 O   0  0  0  0  0  0  0  0  0  0  0  0
    6.7255   -9.3284    0.0000 C   0  0  2  0  0  0  0  0  0  0  0  0
    5.9008   -9.3514    0.0000 O   0  0  0  0  0  0  0  0  0  0  0  0
    5.5084  -10.0771    0.0000 C   0  0  2  0  0  0  0  0  0  0  0  0
    5.9407  -10.7798    0.0000 C   0  0  1  0  0  0  0  0  0  0  0  0
    6.7654  -10.7567    0.0000 C   0  0  2  0  0  0  0  0  0  0  0  0
    7.1578  -10.0310    0.0000 C   0  0  1  0  0  0  0  0  0  0  0  0
    7.1977  -11.4594    0.0000 O   0  0  0  0  0  0  0  0  0  0  0  0
    4.6837  -10.1002    0.0000 C   0  0  0  0  0  0  0  0  0  0  0  0
    5.5483  -11.5055    0.0000 O   0  0  0  0  0  0  0  0  0  0  0  0
    7.9824  -10.0080    0.0000 O   0  0  0  0  0  0  0  0  0  0  0  0
    5.6874   -5.3075    0.0000 O   0  0  0  0  0  0  0  0  0  0  0  0
  3  1  2  0  0  0  0
  3  2  1  0  0  0  0
  4  3  1  0  0  0  0
  5  4  2  0  0  0  0
 10  5  1  0  0  0  0
 12  6  1  0  0  0  0
 13  7  1  0  0  0  0
  8 13  1  0  0  0  0
  9  8  2  0  0  0  0
 10  9  1  0  0  0  0
 11 10  2  0  0  0  0
 12 11  1  0  0  0  0
 13 12  2  0  0  0  0
 14  2  1  6  0  0  0
 14 15  1  0  0  0  0
 15 16  1  0  0  0  0
 16 17  1  0  0  0  0
 17 18  1  0  0  0  0
 18 19  1  0  0  0  0
 19 14  1  0  0  0  0
 19 20  1  1  0  0  0
 15 21  1  1  0  0  0
 17 22  1  1  0  0  0
 16 23  1  6  0  0  0
 22 24  1  0  0  0  0
 24 25  1  0  0  0  0
 25 26  1  0  0  0  0
 25 27  1  0  0  0  0
 26 28  2  0  0  0  0
 28 29  1  0  0  0  0
 29 30  2  0  0  0  0
 30 31  1  0  0  0  0
 31 32  2  0  0  0  0
 32 26  1  0  0  0  0
 30 33  1  0  0  0  0
 33 34  1  0  0  0  0
 29 35  1  0  0  0  0
 35 36  1  0  0  0  0
 23 37  1  0  0  0  0
 37 38  1  0  0  0  0
 37 39  2  0  0  0  0
 40 41  1  0  0  0  0
 41 42  1  0  0  0  0
 42 43  1  0  0  0  0
 43 44  1  0  0  0  0
 44 45  1  0  0  0  0
 45 40  1  0  0  0  0
 44 46  1  6  0  0  0
 42 47  1  6  0  0  0
 43 48  1  1  0  0  0
 45 49  1  6  0  0  0
 20 50  1  0  0  0  0
 40 21  1  1  0  0  0
M  END
>  <cdx:fragmentId>
5

$$$$
