92785.cdx
  Mrv1902 05222410202D          

 14 14  0  0  0  0            999 V2000
    5.5765   -5.7776    0.0000 C   0  0  0  0  0  0  0  0  0  0  0  0
    6.2931   -6.1864    0.0000 C   0  0  0  0  0  0  0  0  0  0  0  0
    7.0054   -5.7703    0.0000 C   0  0  0  0  0  0  0  0  0  0  0  0
    7.0013   -4.9453    0.0000 C   0  0  0  0  0  0  0  0  0  0  0  0
    6.2847   -4.5365    0.0000 C   0  0  0  0  0  0  0  0  0  0  0  0
    5.5723   -4.9526    0.0000 C   0  0  0  0  0  0  0  0  0  0  0  0
    4.8641   -6.1937    0.0000 O   0  0  0  0  0  0  0  0  0  0  0  0
    4.8558   -4.5437    0.0000 O   0  0  0  0  0  0  0  0  0  0  0  0
    7.7136   -4.5292    0.0000 C   0  0  0  0  0  0  0  0  0  0  0  0
    8.4302   -4.9381    0.0000 C   0  0  1  0  0  0  0  0  0  0  0  0
    9.1425   -4.5220    0.0000 C   0  0  0  0  0  0  0  0  0  0  0  0
    9.8591   -4.9308    0.0000 O   0  0  0  0  0  0  0  0  0  0  0  0
    9.1384   -3.6970    0.0000 O   0  0  0  0  0  0  0  0  0  0  0  0
    8.4344   -5.7631    0.0000 O   0  0  0  0  0  0  0  0  0  0  0  0
  1  2  2  0  0  0  0
  2  3  1  0  0  0  0
  3  4  2  0  0  0  0
  4  5  1  0  0  0  0
  5  6  2  0  0  0  0
  6  1  1  0  0  0  0
  1  7  1  0  0  0  0
  6  8  1  0  0  0  0
  4  9  1  0  0  0  0
  9 10  1  0  0  0  0
 10 11  1  0  0  0  0
 11 12  1  0  0  0  0
 11 13  2  0  0  0  0
 10 14  1  1  0  0  0
M  END
>  <cdx:fragmentId>
5

$$$$
