92788.cdx
  Mrv1902 05222410262D          

 15 16  0  0  0  0            999 V2000
    7.6707   -9.6496    0.0000 C   0  0  0  0  0  0  0  0  0  0  0  0
    7.0078   -9.1583    0.0000 O   0  0  0  0  0  0  0  0  0  0  0  0
    6.3358   -9.6369    0.0000 C   0  0  0  0  0  0  0  0  0  0  0  0
    6.5833  -10.4239    0.0000 C   0  0  0  0  0  0  0  0  0  0  0  0
    7.4083  -10.4317    0.0000 C   0  0  0  0  0  0  0  0  0  0  0  0
    8.1905  -10.6941    0.0000 C   0  0  0  0  0  0  0  0  0  0  0  0
    8.4528   -9.9119    0.0000 C   0  0  0  0  0  0  0  0  0  0  0  0
    8.0522   -8.9181    0.0000 C   0  0  0  0  0  0  0  0  0  0  0  0
    7.6094   -8.2219    0.0000 C   0  0  0  0  0  0  0  0  0  0  0  0
    7.9909   -7.4904    0.0000 C   0  0  0  0  0  0  0  0  0  0  0  0
    7.5481   -6.7943    0.0000 C   0  0  0  0  0  0  0  0  0  0  0  0
    7.9296   -6.0628    0.0000 C   0  0  0  0  0  0  0  0  0  0  0  0
    8.9087   -9.2243    0.0000 C   0  0  0  0  0  0  0  0  0  0  0  0
    9.2763   -9.9629    0.0000 C   0  0  0  0  0  0  0  0  0  0  0  0
    5.5537   -9.3745    0.0000 C   0  0  0  0  0  0  0  0  0  0  0  0
  1  2  1  0  0  0  0
  2  3  1  0  0  0  0
  3  4  2  0  0  0  0
  4  5  1  0  0  0  0
  5  6  1  0  0  0  0
  6  7  1  0  0  0  0
  1  7  1  0  0  0  0
  1  5  1  0  0  0  0
  8  9  2  0  0  0  0
  9 10  1  0  0  0  0
 10 11  2  0  0  0  0
 11 12  1  0  0  0  0
  1  8  1  0  0  0  0
  7 13  1  0  0  0  0
  7 14  1  0  0  0  0
  3 15  1  0  0  0  0
M  END
>  <cdx:fragmentId>
5

$$$$
