92796.cdx
  Mrv1902 05222410192D          

  7  6  0  0  0  0            999 V2000
    5.5250   -6.3113    0.0000 C   0  0  0  0  0  0  0  0  0  0  0  0
    6.2395   -5.8988    0.0000 C   0  0  0  0  0  0  0  0  0  0  0  0
    6.9540   -6.3113    0.0000 C   0  0  0  0  0  0  0  0  0  0  0  0
    7.6684   -5.8988    0.0000 C   0  0  0  0  0  0  0  0  0  0  0  0
    8.3829   -6.3113    0.0000 C   0  0  0  0  0  0  0  0  0  0  0  0
    9.0974   -5.8988    0.0000 C   0  0  0  0  0  0  0  0  0  0  0  0
    6.9540   -7.1362    0.0000 C   0  0  0  0  0  0  0  0  0  0  0  0
  1  2  2  0  0  0  0
  2  3  1  0  0  0  0
  3  4  2  0  0  0  0
  4  5  1  0  0  0  0
  5  6  2  0  0  0  0
  3  7  1  0  0  0  0
M  END
>  <cdx:fragmentId>
3

$$$$
