92794.cdx
  Mrv1902 05222410182D          

 12 12  0  0  0  0            999 V2000
    6.3275   -6.5922    0.0000 C   0  0  0  0  0  0  0  0  0  0  0  0
    5.6130   -7.0047    0.0000 C   0  0  0  0  0  0  0  0  0  0  0  0
    5.6130   -7.8297    0.0000 C   0  0  0  0  0  0  0  0  0  0  0  0
    6.3275   -8.2422    0.0000 C   0  0  0  0  0  0  0  0  0  0  0  0
    7.0420   -7.8297    0.0000 C   0  0  0  0  0  0  0  0  0  0  0  0
    7.0420   -7.0047    0.0000 C   0  0  0  0  0  0  0  0  0  0  0  0
    4.8986   -6.5922    0.0000 O   0  0  0  0  0  0  0  0  0  0  0  0
    4.1841   -7.0047    0.0000 C   0  0  0  0  0  0  0  0  0  0  0  0
    7.7565   -6.5922    0.0000 C   0  0  0  0  0  0  0  0  0  0  0  0
    8.4709   -7.0047    0.0000 C   0  0  0  0  0  0  0  0  0  0  0  0
    9.1854   -6.5922    0.0000 N   0  0  0  0  0  0  0  0  0  0  0  0
    8.4709   -7.8297    0.0000 C   0  0  0  0  0  0  0  0  0  0  0  0
  1  2  2  0  0  0  0
  2  3  1  0  0  0  0
  3  4  2  0  0  0  0
  4  5  1  0  0  0  0
  5  6  2  0  0  0  0
  6  1  1  0  0  0  0
  2  7  1  0  0  0  0
  7  8  1  0  0  0  0
  6  9  1  0  0  0  0
  9 10  1  0  0  0  0
 10 11  1  0  0  0  0
 10 12  1  0  0  0  0
M  END
>  <cdx:fragmentId>
5

$$$$
