92795.cdx
  Mrv1902 05222410182D          

 43 45  0  0  0  0            999 V2000
    3.9607   -6.2139    0.0000 O   0  0  0  0  0  0  0  0  0  0  0  0
    1.8173   -7.4514    0.0000 C   0  0  0  0  0  0  0  0  0  0  0  0
    2.5318   -7.0389    0.0000 O   0  0  0  0  0  0  0  0  0  0  0  0
    3.2462   -7.4514    0.0000 C   0  0  0  0  0  0  0  0  0  0  0  0
    3.9607   -7.0389    0.0000 C   0  0  0  0  0  0  0  0  0  0  0  0
    4.6752   -7.4514    0.0000 O   0  0  0  0  0  0  0  0  0  0  0  0
    6.1041   -5.8014    0.0000 C   0  0  1  0  0  0  0  0  0  0  0  0
    6.5166   -5.0869    0.0000 C   0  0  0  0  0  0  0  0  0  0  0  0
    7.3416   -5.0869    0.0000 O   0  0  0  0  0  0  0  0  0  0  0  0
    6.1041   -4.3725    0.0000 O   0  0  0  0  0  0  0  0  0  0  0  0
    5.6916   -5.0869    0.0000 O   0  0  0  0  0  0  0  0  0  0  0  0
    8.2475   -6.2139    0.0000 O   0  0  0  0  0  0  0  0  0  0  0  0
   12.5344   -8.6889    0.0000 O   0  0  0  0  0  0  0  0  0  0  0  0
   12.5344   -7.0389    0.0000 O   0  0  0  0  0  0  0  0  0  0  0  0
   11.1054   -8.6889    0.0000 C   0  0  0  0  0  0  0  0  0  0  0  0
   11.8199   -8.2764    0.0000 C   0  0  0  0  0  0  0  0  0  0  0  0
   11.8199   -7.4514    0.0000 C   0  0  0  0  0  0  0  0  0  0  0  0
   11.1054   -7.0389    0.0000 C   0  0  0  0  0  0  0  0  0  0  0  0
   10.3909   -8.2764    0.0000 C   0  0  0  0  0  0  0  0  0  0  0  0
   10.3909   -7.4514    0.0000 C   0  0  0  0  0  0  0  0  0  0  0  0
    9.6765   -7.0389    0.0000 C   0  0  0  0  0  0  0  0  0  0  0  0
    8.9620   -7.4514    0.0000 C   0  0  0  0  0  0  0  0  0  0  0  0
    8.2475   -7.0389    0.0000 C   0  0  0  0  0  0  0  0  0  0  0  0
    6.1041   -8.2764    0.0000 O   0  0  0  0  0  0  0  0  0  0  0  0
    7.5331   -7.4514    0.0000 O   0  0  0  0  0  0  0  0  0  0  0  0
    5.3896   -6.2139    0.0000 C   0  0  0  0  0  0  0  0  0  0  0  0
    5.3896   -7.0389    0.0000 C   0  0  2  0  0  0  0  0  0  0  0  0
    6.1041   -7.4514    0.0000 C   0  0  1  0  0  0  0  0  0  0  0  0
    6.8186   -7.0389    0.0000 C   0  0  1  0  0  0  0  0  0  0  0  0
    6.8186   -6.2139    0.0000 C   0  0  0  0  0  0  0  0  0  0  0  0
    4.8666   -5.0869    0.0000 C   0  0  0  0  0  0  0  0  0  0  0  0
    4.4541   -4.3725    0.0000 C   0  0  0  0  0  0  0  0  0  0  0  0
    4.4541   -5.8014    0.0000 O   0  0  0  0  0  0  0  0  0  0  0  0
    3.6291   -4.3725    0.0000 C   0  0  0  0  0  0  0  0  0  0  0  0
    3.2166   -3.6580    0.0000 C   0  0  0  0  0  0  0  0  0  0  0  0
    3.6291   -2.9435    0.0000 C   0  0  0  0  0  0  0  0  0  0  0  0
    3.2166   -2.2290    0.0000 C   0  0  0  0  0  0  0  0  0  0  0  0
    2.3916   -2.2290    0.0000 C   0  0  0  0  0  0  0  0  0  0  0  0
    1.9791   -2.9435    0.0000 C   0  0  0  0  0  0  0  0  0  0  0  0
    2.3916   -3.6580    0.0000 C   0  0  0  0  0  0  0  0  0  0  0  0
    1.9791   -1.5146    0.0000 O   0  0  0  0  0  0  0  0  0  0  0  0
    3.6291   -1.5146    0.0000 O   0  0  0  0  0  0  0  0  0  0  0  0
    3.2462   -8.2764    0.0000 O   0  0  0  0  0  0  0  0  0  0  0  0
  5  1  2  0  0  0  0
  3  2  1  0  0  0  0
  4  3  1  0  0  0  0
  5  4  1  0  0  0  0
  6  5  1  0  0  0  0
 27  6  1  6  0  0  0
  7  8  1  0  0  0  0
  8  9  1  0  0  0  0
  8 10  2  0  0  0  0
 23 12  2  0  0  0  0
 16 13  1  0  0  0  0
 17 14  1  0  0  0  0
 15 19  2  0  0  0  0
 16 15  1  0  0  0  0
 17 16  2  0  0  0  0
 18 17  1  0  0  0  0
 20 18  2  0  0  0  0
 20 19  1  0  0  0  0
 21 20  1  0  0  0  0
 22 21  2  0  0  0  0
 23 22  1  0  0  0  0
 25 23  1  0  0  0  0
 28 24  1  1  0  0  0
 29 25  1  1  0  0  0
  7 30  1  0  0  0  0
 26  7  1  0  0  0  0
 27 26  1  0  0  0  0
 28 27  1  0  0  0  0
 29 28  1  0  0  0  0
 30 29  1  0  0  0  0
  7 11  1  1  0  0  0
 11 31  1  0  0  0  0
 31 32  1  0  0  0  0
 31 33  2  0  0  0  0
 32 34  2  0  0  0  0
 34 35  1  0  0  0  0
 35 36  2  0  0  0  0
 36 37  1  0  0  0  0
 37 38  2  0  0  0  0
 38 39  1  0  0  0  0
 39 40  2  0  0  0  0
 40 35  1  0  0  0  0
 38 41  1  0  0  0  0
 37 42  1  0  0  0  0
  4 43  2  0  0  0  0
M  END
>  <cdx:fragmentId>
5

$$$$
