92790.cdx
  Mrv1902 05222410202D          

  8  8  0  0  0  0            999 V2000
    5.9119   -7.8248    0.0000 C   0  0  0  0  0  0  0  0  0  0  0  0
    6.1648   -8.6101    0.0000 C   0  0  0  0  0  0  0  0  0  0  0  0
    6.9898   -8.6122    0.0000 C   0  0  0  0  0  0  0  0  0  0  0  0
    7.2468   -7.8283    0.0000 C   0  0  0  0  0  0  0  0  0  0  0  0
    6.5806   -7.3416    0.0000 C   0  0  0  0  0  0  0  0  0  0  0  0
    5.6782   -9.2763    0.0000 C   0  0  0  0  0  0  0  0  0  0  0  0
    6.5828   -6.5166    0.0000 C   0  0  0  0  0  0  0  0  0  0  0  0
    7.2758   -6.0691    0.0000 C   0  0  0  0  0  0  0  0  0  0  0  0
  1  2  2  0  0  0  0
  2  3  1  0  0  0  0
  3  4  1  0  0  0  0
  4  5  1  0  0  0  0
  5  1  1  0  0  0  0
  2  6  1  0  0  0  0
  5  7  2  0  0  0  0
  7  8  1  0  0  0  0
M  END
>  <cdx:fragmentId>
5

$$$$
