927990.cdx
  Mrv1902 05222410252D          

 16 17  0  0  0  0            999 V2000
    5.6118  -15.4494    0.0000 C   0  0  1  0  0  0  0  0  0  0  0  0
    4.8261  -15.1978    0.0000 C   0  0  0  0  0  0  0  0  0  0  0  0
    4.8225  -14.3728    0.0000 C   0  0  0  0  0  0  0  0  0  0  0  0
    5.6061  -14.1145    0.0000 C   0  0  0  0  0  0  0  0  0  0  0  0
    6.0938  -14.7799    0.0000 C   0  0  1  0  0  0  0  0  0  0  0  0
    6.4326  -15.5321    0.0000 C   0  0  0  0  0  0  0  0  0  0  0  0
    6.8030  -13.5393    0.0000 C   0  0  0  0  0  0  0  0  0  0  0  0
    6.8065  -14.3643    0.0000 C   0  0  2  0  0  0  0  0  0  0  0  0
    7.5228  -14.7738    0.0000 C   0  0  0  0  0  0  0  0  0  0  0  0
    8.2355  -14.3582    0.0000 C   0  0  0  0  0  0  0  0  0  0  0  0
    8.9517  -14.7677    0.0000 C   0  0  0  0  0  0  0  0  0  0  0  0
    9.6644  -14.3521    0.0000 C   0  0  0  0  0  0  0  0  0  0  0  0
    9.6609  -13.5272    0.0000 C   0  0  0  0  0  0  0  0  0  0  0  0
   10.3806  -14.7616    0.0000 C   0  0  0  0  0  0  0  0  0  0  0  0
    4.1607  -15.6856    0.0000 C   0  0  0  0  0  0  0  0  0  0  0  0
    5.4437  -16.2571    0.0000 H   0  0  0  0  0  0  0  0  0  0  0  0
  1  2  1  0  0  0  0
  2  3  2  0  0  0  0
  3  4  1  0  0  0  0
  4  5  1  0  0  0  0
  5  6  1  1  0  0  0
  1  6  1  0  0  0  0
  1  5  1  0  0  0  0
  8  7  1  6  0  0  0
  8  9  1  0  0  0  0
  9 10  1  0  0  0  0
 10 11  1  0  0  0  0
 11 12  2  0  0  0  0
 12 13  1  0  0  0  0
 12 14  1  0  0  0  0
  5  8  1  0  0  0  0
  2 15  1  0  0  0  0
  1 16  1  6  0  0  0
M  END
>  <cdx:fragmentId>
190284

$$$$
