92797.cdx
  Mrv1902 05222410192D          

 16 16  0  0  0  0            999 V2000
    5.7269   -8.9650    0.0000 C   0  0  0  0  0  0  0  0  0  0  0  0
    5.7269   -9.7900    0.0000 C   0  0  0  0  0  0  0  0  0  0  0  0
    6.4413   -9.3775    0.0000 C   0  0  0  0  0  0  0  0  0  0  0  0
    7.2663   -9.3775    0.0000 C   0  0  0  0  0  0  0  0  0  0  0  0
    7.6788   -8.6630    0.0000 O   0  0  0  0  0  0  0  0  0  0  0  0
    7.6788  -10.0920    0.0000 C   0  0  0  0  0  0  0  0  0  0  0  0
    5.3144  -10.5045    0.0000 C   0  0  0  0  0  0  0  0  0  0  0  0
    5.3144   -8.2505    0.0000 C   0  0  0  0  0  0  0  0  0  0  0  0
    4.9019   -7.5361    0.0000 C   0  0  0  0  0  0  0  0  0  0  0  0
    6.0288   -7.8380    0.0000 C   0  0  0  0  0  0  0  0  0  0  0  0
    4.5999   -8.6630    0.0000 C   0  0  0  0  0  0  0  0  0  0  0  0
    5.3144   -6.8216    0.0000 C   0  0  0  0  0  0  0  0  0  0  0  0
    4.9019   -6.1071    0.0000 C   0  0  0  0  0  0  0  0  0  0  0  0
    5.3144   -5.3926    0.0000 C   0  0  0  0  0  0  0  0  0  0  0  0
    4.9019   -4.6782    0.0000 C   0  0  0  0  0  0  0  0  0  0  0  0
    6.1394   -5.3926    0.0000 C   0  0  0  0  0  0  0  0  0  0  0  0
  1  2  2  0  0  0  0
  2  3  1  0  0  0  0
  3  1  1  0  0  0  0
  3  4  1  0  0  0  0
  4  5  2  0  0  0  0
  4  6  1  0  0  0  0
  2  7  1  0  0  0  0
  1  8  1  0  0  0  0
  8  9  1  0  0  0  0
  8 10  1  0  0  0  0
  8 11  1  0  0  0  0
  9 12  1  0  0  0  0
 12 13  1  0  0  0  0
 13 14  1  0  0  0  0
 14 15  1  0  0  0  0
 14 16  2  0  0  0  0
M  END
>  <cdx:fragmentId>
5

$$$$
