92793.cdx
  Mrv1902 05222410192D          

 12 12  0  0  0  0            999 V2000
    5.5943   -6.1875    0.0000 C   0  0  0  0  0  0  0  0  0  0  0  0
    5.5943   -7.0125    0.0000 C   0  0  0  0  0  0  0  0  0  0  0  0
    6.3088   -7.4250    0.0000 C   0  0  0  0  0  0  0  0  0  0  0  0
    7.0232   -7.0125    0.0000 C   0  0  0  0  0  0  0  0  0  0  0  0
    7.0232   -6.1875    0.0000 C   0  0  0  0  0  0  0  0  0  0  0  0
    6.3088   -5.7750    0.0000 C   0  0  0  0  0  0  0  0  0  0  0  0
    7.7377   -5.7750    0.0000 C   0  0  0  0  0  0  0  0  0  0  0  0
    8.4522   -6.1875    0.0000 O   0  0  0  0  0  0  0  0  0  0  0  0
    4.8798   -5.7750    0.0000 O   0  0  0  0  0  0  0  0  0  0  0  0
    4.1654   -6.1875    0.0000 C   0  0  0  0  0  0  0  0  0  0  0  0
    7.7377   -7.4250    0.0000 C   0  0  0  0  0  0  0  0  0  0  0  0
    8.4522   -7.8375    0.0000 C   0  0  0  0  0  0  0  0  0  0  0  0
  1  2  2  0  0  0  0
  2  3  1  0  0  0  0
  3  4  2  0  0  0  0
  4  5  1  0  0  0  0
  5  6  2  0  0  0  0
  6  1  1  0  0  0  0
  5  7  1  0  0  0  0
  7  8  1  0  0  0  0
  1  9  1  0  0  0  0
  9 10  1  0  0  0  0
  4 11  1  0  0  0  0
 11 12  3  0  0  0  0
M  END
>  <cdx:fragmentId>
5

$$$$
