92798.cdx
  Mrv1902 05222410282D          

 16 15  0  0  0  0            999 V2000
   12.0356   -8.4013    0.0000 C   0  0  0  0  0  0  0  0  0  0  0  0
   11.3212   -7.9888    0.0000 C   0  0  0  0  0  0  0  0  0  0  0  0
   10.6067   -8.4013    0.0000 C   0  0  0  0  0  0  0  0  0  0  0  0
    9.8922   -7.9888    0.0000 C   0  0  0  0  0  0  0  0  0  0  0  0
    9.1778   -8.4013    0.0000 C   0  0  0  0  0  0  0  0  0  0  0  0
    8.4633   -7.9888    0.0000 C   0  0  0  0  0  0  0  0  0  0  0  0
    7.7488   -8.4013    0.0000 C   0  0  0  0  0  0  0  0  0  0  0  0
    7.0344   -7.9888    0.0000 C   0  0  0  0  0  0  0  0  0  0  0  0
    6.3199   -8.4013    0.0000 C   0  0  0  0  0  0  0  0  0  0  0  0
    5.6054   -7.9888    0.0000 C   0  0  0  0  0  0  0  0  0  0  0  0
    4.8909   -8.4013    0.0000 C   0  0  0  0  0  0  0  0  0  0  0  0
    4.1765   -7.9888    0.0000 C   0  0  0  0  0  0  0  0  0  0  0  0
    3.4620   -8.4013    0.0000 C   0  0  0  0  0  0  0  0  0  0  0  0
    2.7475   -7.9888    0.0000 C   0  0  0  0  0  0  0  0  0  0  0  0
   10.6067   -9.2263    0.0000 C   0  0  0  0  0  0  0  0  0  0  0  0
   11.3212   -7.1638    0.0000 O   0  0  0  0  0  0  0  0  0  0  0  0
  2  1  1  0  0  0  0
  3  2  1  0  0  0  0
  4  3  1  0  0  0  0
  5  4  1  0  0  0  0
  6  5  1  0  0  0  0
  7  6  1  0  0  0  0
  8  7  1  0  0  0  0
  9  8  1  0  0  0  0
 10  9  1  0  0  0  0
 11 10  1  0  0  0  0
 12 11  1  0  0  0  0
 13 12  1  0  0  0  0
 14 13  1  0  0  0  0
  3 15  1  0  0  0  0
  2 16  2  0  0  0  0
M  END
>  <cdx:fragmentId>
3

$$$$
