92791.cdx
  Mrv1902 05222410202D          

 26 29  0  0  0  0            999 V2000
    3.4906   -6.0638    0.0000 C   0  0  0  0  0  0  0  0  0  0  0  0
    3.4906   -6.8888    0.0000 C   0  0  0  0  0  0  0  0  0  0  0  0
    4.2050   -7.3012    0.0000 C   0  0  0  0  0  0  0  0  0  0  0  0
    4.9195   -6.8888    0.0000 C   0  0  0  0  0  0  0  0  0  0  0  0
    4.9195   -6.0638    0.0000 C   0  0  0  0  0  0  0  0  0  0  0  0
    4.2050   -5.6512    0.0000 C   0  0  0  0  0  0  0  0  0  0  0  0
    5.6340   -7.3012    0.0000 C   0  0  0  0  0  0  0  0  0  0  0  0
    6.3484   -6.8888    0.0000 C   0  0  0  0  0  0  0  0  0  0  0  0
    6.3484   -6.0638    0.0000 C   0  0  0  0  0  0  0  0  0  0  0  0
    5.6340   -5.6512    0.0000 O   0  0  0  0  0  0  0  0  0  0  0  0
    7.0629   -7.3012    0.0000 C   0  0  0  0  0  0  0  0  0  0  0  0
    7.7774   -6.8888    0.0000 C   0  0  0  0  0  0  0  0  0  0  0  0
    7.0629   -8.1263    0.0000 C   0  0  0  0  0  0  0  0  0  0  0  0
    7.7774   -8.5387    0.0000 C   0  0  0  0  0  0  0  0  0  0  0  0
    8.4919   -8.1263    0.0000 C   0  0  0  0  0  0  0  0  0  0  0  0
    8.4919   -7.3012    0.0000 C   0  0  0  0  0  0  0  0  0  0  0  0
    2.7761   -5.6512    0.0000 O   0  0  0  0  0  0  0  0  0  0  0  0
    5.6340   -8.1263    0.0000 O   0  0  0  0  0  0  0  0  0  0  0  0
    9.2063   -6.8888    0.0000 C   0  0  0  0  0  0  0  0  0  0  0  0
    9.2063   -8.5388    0.0000 O   0  0  0  0  0  0  0  0  0  0  0  0
    9.9208   -7.3012    0.0000 C   0  0  0  0  0  0  0  0  0  0  0  0
    9.9208   -8.1263    0.0000 C   0  0  0  0  0  0  0  0  0  0  0  0
    9.2063   -6.0638    0.0000 O   0  0  0  0  0  0  0  0  0  0  0  0
   10.6353   -6.8888    0.0000 O   0  0  0  0  0  0  0  0  0  0  0  0
   10.7177   -7.9127    0.0000 C   0  0  0  0  0  0  0  0  0  0  0  0
   10.3333   -8.8407    0.0000 C   0  0  0  0  0  0  0  0  0  0  0  0
  1  2  2  0  0  0  0
  2  3  1  0  0  0  0
  3  4  2  0  0  0  0
  4  5  1  0  0  0  0
  5  6  2  0  0  0  0
  6  1  1  0  0  0  0
  4  7  1  0  0  0  0
  7  8  1  0  0  0  0
  8  9  2  0  0  0  0
  9 10  1  0  0  0  0
 10  5  1  0  0  0  0
  8 11  1  0  0  0  0
 11 12  2  0  0  0  0
 11 13  1  0  0  0  0
 13 14  2  0  0  0  0
 14 15  1  0  0  0  0
 15 16  2  0  0  0  0
 16 12  1  0  0  0  0
  1 17  1  0  0  0  0
  7 18  2  0  0  0  0
 16 19  1  0  0  0  0
 15 20  1  0  0  0  0
 19 21  1  0  0  0  0
 21 22  1  0  0  0  0
 20 22  1  0  0  0  0
 19 23  1  0  0  0  0
 21 24  1  0  0  0  0
 22 25  1  0  0  0  0
 22 26  1  0  0  0  0
M  END
>  <cdx:fragmentId>
5

$$$$
