92803.cdx
  Mrv1902 05222410202D          

 22 23  0  0  0  0            999 V2000
    7.7906   -7.4264    0.0000 C   0  0  1  0  0  0  0  0  0  0  0  0
    7.7960   -6.6015    0.0000 C   0  0  0  0  0  0  0  0  0  0  0  0
    7.0842   -6.1843    0.0000 N   0  0  0  0  0  0  0  0  0  0  0  0
    6.3671   -6.5921    0.0000 C   0  0  1  0  0  0  0  0  0  0  0  0
    6.3617   -7.4171    0.0000 C   0  0  2  0  0  0  0  0  0  0  0  0
    7.0735   -7.8343    0.0000 C   0  0  2  0  0  0  0  0  0  0  0  0
    8.5024   -7.8436    0.0000 O   0  0  0  0  0  0  0  0  0  0  0  0
    5.6445   -7.8250    0.0000 O   0  0  0  0  0  0  0  0  0  0  0  0
    7.0681   -8.6593    0.0000 O   0  0  0  0  0  0  0  0  0  0  0  0
    5.6553   -6.1750    0.0000 C   0  0  0  0  0  0  0  0  0  0  0  0
    4.9408   -6.5875    0.0000 O   0  0  0  0  0  0  0  0  0  0  0  0
    6.3536   -9.0718    0.0000 C   0  0  2  0  0  0  0  0  0  0  0  0
    5.6391   -8.6593    0.0000 O   0  0  0  0  0  0  0  0  0  0  0  0
    4.9247   -9.0718    0.0000 C   0  0  1  0  0  0  0  0  0  0  0  0
    4.9247   -9.8968    0.0000 C   0  0  2  0  0  0  0  0  0  0  0  0
    5.6391  -10.3093    0.0000 C   0  0  1  0  0  0  0  0  0  0  0  0
    6.3536   -9.8968    0.0000 C   0  0  1  0  0  0  0  0  0  0  0  0
    4.2102   -8.6593    0.0000 C   0  0  0  0  0  0  0  0  0  0  0  0
    5.6391  -11.1343    0.0000 O   0  0  0  0  0  0  0  0  0  0  0  0
    7.0681  -10.3093    0.0000 O   0  0  0  0  0  0  0  0  0  0  0  0
    4.2102  -10.3093    0.0000 O   0  0  0  0  0  0  0  0  0  0  0  0
    3.4957   -9.0718    0.0000 O   0  0  0  0  0  0  0  0  0  0  0  0
  1  2  1  0  0  0  0
  2  3  1  0  0  0  0
  3  4  1  0  0  0  0
  4  5  1  0  0  0  0
  5  6  1  0  0  0  0
  6  1  1  0  0  0  0
  1  7  1  6  0  0  0
  5  8  1  6  0  0  0
  6  9  1  1  0  0  0
  4 10  1  1  0  0  0
 10 11  1  0  0  0  0
 12  9  1  1  0  0  0
 12 13  1  0  0  0  0
 13 14  1  0  0  0  0
 14 15  1  0  0  0  0
 15 16  1  0  0  0  0
 16 17  1  0  0  0  0
 17 12  1  0  0  0  0
 14 18  1  1  0  0  0
 16 19  1  1  0  0  0
 17 20  1  6  0  0  0
 15 21  1  6  0  0  0
 18 22  1  0  0  0  0
M  END
>  <cdx:fragmentId>
5

$$$$
