9280.cdx
  Mrv1902 05222410222D          

 26 29  0  0  0  0            999 V2000
    5.9656   -6.8062    0.0000 C   0  0  0  0  0  0  0  0  0  0  0  0
    5.9656   -7.6313    0.0000 C   0  0  0  0  0  0  0  0  0  0  0  0
    6.6800   -8.0437    0.0000 C   0  0  0  0  0  0  0  0  0  0  0  0
    7.3945   -7.6313    0.0000 C   0  0  0  0  0  0  0  0  0  0  0  0
    7.3945   -6.8062    0.0000 C   0  0  0  0  0  0  0  0  0  0  0  0
    6.6800   -6.3937    0.0000 C   0  0  0  0  0  0  0  0  0  0  0  0
    8.1090   -8.0437    0.0000 O   0  0  0  0  0  0  0  0  0  0  0  0
    8.8234   -7.6313    0.0000 C   0  0  0  0  0  0  0  0  0  0  0  0
    8.8234   -6.8062    0.0000 C   0  0  0  0  0  0  0  0  0  0  0  0
    8.1090   -6.3937    0.0000 C   0  0  0  0  0  0  0  0  0  0  0  0
   10.2524   -6.8062    0.0000 C   0  0  0  0  0  0  0  0  0  0  0  0
    9.5379   -6.3937    0.0000 C   0  0  0  0  0  0  0  0  0  0  0  0
   10.9669   -6.3937    0.0000 C   0  0  0  0  0  0  0  0  0  0  0  0
   10.9669   -5.5687    0.0000 C   0  0  0  0  0  0  0  0  0  0  0  0
   10.2524   -5.1563    0.0000 C   0  0  0  0  0  0  0  0  0  0  0  0
    9.5379   -5.5687    0.0000 C   0  0  0  0  0  0  0  0  0  0  0  0
   11.6813   -5.1563    0.0000 O   0  0  0  0  0  0  0  0  0  0  0  0
   12.3958   -5.5687    0.0000 C   0  0  0  0  0  0  0  0  0  0  0  0
    8.1090   -5.5687    0.0000 O   0  0  0  0  0  0  0  0  0  0  0  0
    6.6800   -5.5687    0.0000 O   0  0  0  0  0  0  0  0  0  0  0  0
    5.2511   -6.3937    0.0000 C   0  0  0  0  0  0  0  0  0  0  0  0
    4.5366   -6.8062    0.0000 C   0  0  0  0  0  0  0  0  0  0  0  0
    4.5366   -7.6313    0.0000 C   0  0  0  0  0  0  0  0  0  0  0  0
    5.2511   -8.0437    0.0000 O   0  0  0  0  0  0  0  0  0  0  0  0
    3.7397   -7.8448    0.0000 C   0  0  0  0  0  0  0  0  0  0  0  0
    4.1241   -8.3457    0.0000 C   0  0  0  0  0  0  0  0  0  0  0  0
  1  2  2  0  0  0  0
  2  3  1  0  0  0  0
  3  4  2  0  0  0  0
  4  5  1  0  0  0  0
  5  6  2  0  0  0  0
  6  1  1  0  0  0  0
  4  7  1  0  0  0  0
  7  8  1  0  0  0  0
  8  9  2  0  0  0  0
  9 10  1  0  0  0  0
 10  5  1  0  0  0  0
 11 12  2  0  0  0  0
 12  9  1  0  0  0  0
 11 13  1  0  0  0  0
 13 14  2  0  0  0  0
 14 15  1  0  0  0  0
 15 16  2  0  0  0  0
 16 12  1  0  0  0  0
 14 17  1  0  0  0  0
 17 18  1  0  0  0  0
 10 19  2  0  0  0  0
  6 20  1  0  0  0  0
  1 21  1  0  0  0  0
 21 22  2  0  0  0  0
 22 23  1  0  0  0  0
 23 24  1  0  0  0  0
 24  2  1  0  0  0  0
 23 25  1  0  0  0  0
 23 26  1  0  0  0  0
M  END
>  <cdx:fragmentId>
169

$$$$
