92802.cdx
  Mrv1902 05222410192D          

 42 46  0  0  0  0            999 V2000
    5.2506   -3.4238    0.0000 C   0  0  1  0  0  0  0  0  0  0  0  0
    5.2506   -4.2488    0.0000 C   0  0  1  0  0  0  0  0  0  0  0  0
    5.9650   -4.6612    0.0000 O   0  0  0  0  0  0  0  0  0  0  0  0
    6.6795   -4.2488    0.0000 C   0  0  2  0  0  0  0  0  0  0  0  0
    6.6795   -3.4238    0.0000 C   0  0  1  0  0  0  0  0  0  0  0  0
    5.9650   -3.0112    0.0000 C   0  0  2  0  0  0  0  0  0  0  0  0
    6.6795   -5.8988    0.0000 C   0  0  0  0  0  0  0  0  0  0  0  0
    7.3940   -5.4863    0.0000 C   0  0  0  0  0  0  0  0  0  0  0  0
    7.3940   -4.6612    0.0000 O   0  0  0  0  0  0  0  0  0  0  0  0
    6.6795   -6.7237    0.0000 C   0  0  0  0  0  0  0  0  0  0  0  0
    7.3940   -7.1362    0.0000 C   0  0  0  0  0  0  0  0  0  0  0  0
    8.1084   -6.7237    0.0000 C   0  0  0  0  0  0  0  0  0  0  0  0
    8.1084   -5.8988    0.0000 C   0  0  0  0  0  0  0  0  0  0  0  0
    7.3940   -7.9612    0.0000 C   0  0  0  0  0  0  0  0  0  0  0  0
    8.1084   -8.3737    0.0000 C   0  0  0  0  0  0  0  0  0  0  0  0
    8.8229   -7.9612    0.0000 C   0  0  0  0  0  0  0  0  0  0  0  0
    8.8229   -7.1362    0.0000 O   0  0  0  0  0  0  0  0  0  0  0  0
    8.1084   -9.1987    0.0000 O   0  0  0  0  0  0  0  0  0  0  0  0
    9.5374   -9.1987    0.0000 C   0  0  0  0  0  0  0  0  0  0  0  0
    9.5374   -8.3737    0.0000 C   0  0  0  0  0  0  0  0  0  0  0  0
   10.2519   -9.6112    0.0000 C   0  0  0  0  0  0  0  0  0  0  0  0
   10.9663   -9.1987    0.0000 C   0  0  0  0  0  0  0  0  0  0  0  0
   10.9663   -8.3737    0.0000 C   0  0  0  0  0  0  0  0  0  0  0  0
   10.2519   -7.9612    0.0000 C   0  0  0  0  0  0  0  0  0  0  0  0
    6.6795   -8.3737    0.0000 O   0  0  0  0  0  0  0  0  0  0  0  0
    6.6795   -9.1987    0.0000 O   0  0  0  0  0  0  0  0  0  0  0  0
    7.3940   -9.6112    0.0000 C   0  0  2  0  0  0  0  0  0  0  0  0
    5.9650   -9.6112    0.0000 C   0  0  1  0  0  0  0  0  0  0  0  0
    5.9650  -10.4362    0.0000 C   0  0  1  0  0  0  0  0  0  0  0  0
    6.6795  -10.8487    0.0000 C   0  0  1  0  0  0  0  0  0  0  0  0
    7.3940  -10.4362    0.0000 C   0  0  1  0  0  0  0  0  0  0  0  0
    5.2506   -9.1987    0.0000 C   0  0  0  0  0  0  0  0  0  0  0  0
    4.5361   -9.6112    0.0000 O   0  0  0  0  0  0  0  0  0  0  0  0
    5.2506  -10.8487    0.0000 O   0  0  0  0  0  0  0  0  0  0  0  0
    5.9650   -7.1362    0.0000 O   0  0  0  0  0  0  0  0  0  0  0  0
   11.6808   -9.6112    0.0000 O   0  0  0  0  0  0  0  0  0  0  0  0
    5.9650   -2.1863    0.0000 O   0  0  0  0  0  0  0  0  0  0  0  0
    7.3940   -3.0112    0.0000 O   0  0  0  0  0  0  0  0  0  0  0  0
    4.5361   -4.6612    0.0000 C   0  0  0  0  0  0  0  0  0  0  0  0
    6.6795  -11.6737    0.0000 O   0  0  0  0  0  0  0  0  0  0  0  0
    8.1084  -10.8487    0.0000 O   0  0  0  0  0  0  0  0  0  0  0  0
    4.5361   -3.0112    0.0000 O   0  0  0  0  0  0  0  0  0  0  0  0
  1  2  1  0  0  0  0
  2  3  1  0  0  0  0
  3  4  1  0  0  0  0
  4  5  1  0  0  0  0
  5  6  1  0  0  0  0
  6  1  1  0  0  0  0
  7  8  2  0  0  0  0
  8  9  1  0  0  0  0
  4  9  1  6  0  0  0
  7 10  1  0  0  0  0
 10 11  2  0  0  0  0
 11 12  1  0  0  0  0
 12 13  2  0  0  0  0
 13  8  1  0  0  0  0
 11 14  1  0  0  0  0
 14 15  1  0  0  0  0
 15 16  2  0  0  0  0
 16 17  1  0  0  0  0
 17 12  1  0  0  0  0
 15 18  1  0  0  0  0
 19 20  2  0  0  0  0
 20 16  1  0  0  0  0
 19 21  1  0  0  0  0
 21 22  2  0  0  0  0
 22 23  1  0  0  0  0
 23 24  2  0  0  0  0
 24 20  1  0  0  0  0
 14 25  2  0  0  0  0
 26 27  1  0  0  0  0
 27 18  1  1  0  0  0
 26 28  1  0  0  0  0
 28 29  1  0  0  0  0
 29 30  1  0  0  0  0
 30 31  1  0  0  0  0
 31 27  1  0  0  0  0
 28 32  1  1  0  0  0
 32 33  1  0  0  0  0
 29 34  1  1  0  0  0
 10 35  1  0  0  0  0
 22 36  1  0  0  0  0
  6 37  1  1  0  0  0
  5 38  1  1  0  0  0
  2 39  1  1  0  0  0
 30 40  1  1  0  0  0
 31 41  1  6  0  0  0
  1 42  1  6  0  0  0
M  END
>  <cdx:fragmentId>
5

$$$$
