92804.cdx
  Mrv1902 05222410182D          

 35 38  0  0  0  0            999 V2000
    7.1481   -9.1025    0.0000 C   0  0  0  0  0  0  0  0  0  0  0  0
    7.1481   -9.9275    0.0000 C   0  0  2  0  0  0  0  0  0  0  0  0
    7.8625  -10.3400    0.0000 C   0  0  2  0  0  0  0  0  0  0  0  0
    8.5770   -9.9275    0.0000 C   0  0  0  0  0  0  0  0  0  0  0  0
    8.5770   -9.1025    0.0000 C   0  0  1  0  0  0  0  0  0  0  0  0
    7.8625   -8.6900    0.0000 C   0  0  0  0  0  0  0  0  0  0  0  0
    9.2915  -10.3400    0.0000 C   0  0  0  0  0  0  0  0  0  0  0  0
   10.0059   -9.9275    0.0000 C   0  0  0  0  0  0  0  0  0  0  0  0
   10.0059   -9.1025    0.0000 C   0  0  0  0  0  0  0  0  0  0  0  0
    9.2915   -8.6900    0.0000 C   0  0  1  0  0  0  0  0  0  0  0  0
   10.7204   -8.6900    0.0000 C   0  0  0  0  0  0  0  0  0  0  0  0
    9.2915   -7.8650    0.0000 C   0  0  0  0  0  0  0  0  0  0  0  0
   10.0059   -7.4525    0.0000 C   0  0  0  0  0  0  0  0  0  0  0  0
   10.0059   -6.6275    0.0000 C   0  0  0  0  0  0  0  0  0  0  0  0
    8.4459  -10.9234    0.0000 C   0  0  0  0  0  0  0  0  0  0  0  0
    7.2792  -10.9234    0.0000 C   0  0  0  0  0  0  0  0  0  0  0  0
    8.5770   -8.2775    0.0000 C   0  0  0  0  0  0  0  0  0  0  0  0
    6.4336  -10.3400    0.0000 O   0  0  0  0  0  0  0  0  0  0  0  0
    5.7191   -9.9275    0.0000 C   0  0  2  0  0  0  0  0  0  0  0  0
    5.7191   -9.1025    0.0000 O   0  0  0  0  0  0  0  0  0  0  0  0
    5.0046   -8.6900    0.0000 C   0  0  1  0  0  0  0  0  0  0  0  0
    4.2902   -9.1025    0.0000 C   0  0  2  0  0  0  0  0  0  0  0  0
    4.2902   -9.9275    0.0000 C   0  0  1  0  0  0  0  0  0  0  0  0
    5.0046  -10.3400    0.0000 C   0  0  1  0  0  0  0  0  0  0  0  0
    5.0046   -7.8650    0.0000 C   0  0  0  0  0  0  0  0  0  0  0  0
    3.5757  -10.3400    0.0000 O   0  0  0  0  0  0  0  0  0  0  0  0
    3.5757   -8.6900    0.0000 O   0  0  0  0  0  0  0  0  0  0  0  0
    5.0046  -11.1650    0.0000 O   0  0  0  0  0  0  0  0  0  0  0  0
    4.2902   -7.4525    0.0000 O   0  0  0  0  0  0  0  0  0  0  0  0
   10.6734   -6.1426    0.0000 C   0  0  0  0  0  0  0  0  0  0  0  0
   10.4184   -5.3580    0.0000 O   0  0  0  0  0  0  0  0  0  0  0  0
    9.5934   -5.3580    0.0000 C   0  0  0  0  0  0  0  0  0  0  0  0
    9.3385   -6.1426    0.0000 C   0  0  0  0  0  0  0  0  0  0  0  0
   11.4580   -6.3975    0.0000 O   0  0  0  0  0  0  0  0  0  0  0  0
    8.0334  -11.6378    0.0000 O   0  0  0  0  0  0  0  0  0  0  0  0
  1  2  1  0  0  0  0
  2  3  1  0  0  0  0
  3  4  1  0  0  0  0
  4  5  1  0  0  0  0
  5  6  1  0  0  0  0
  6  1  1  0  0  0  0
  4  7  1  0  0  0  0
  7  8  1  0  0  0  0
  8  9  1  0  0  0  0
  9 10  1  0  0  0  0
 10  5  1  0  0  0  0
  9 11  2  0  0  0  0
 10 12  1  6  0  0  0
 12 13  1  0  0  0  0
 13 14  1  0  0  0  0
  3 15  1  6  0  0  0
  3 16  1  1  0  0  0
  5 17  1  6  0  0  0
  2 18  1  6  0  0  0
 19 18  1  1  0  0  0
 19 20  1  0  0  0  0
 20 21  1  0  0  0  0
 21 22  1  0  0  0  0
 22 23  1  0  0  0  0
 23 24  1  0  0  0  0
 24 19  1  0  0  0  0
 21 25  1  1  0  0  0
 23 26  1  1  0  0  0
 22 27  1  6  0  0  0
 24 28  1  6  0  0  0
 25 29  1  0  0  0  0
 14 30  1  0  0  0  0
 30 31  1  0  0  0  0
 31 32  1  0  0  0  0
 32 33  1  0  0  0  0
 33 14  2  0  0  0  0
 30 34  2  0  0  0  0
 15 35  1  0  0  0  0
M  END
>  <cdx:fragmentId>
5

$$$$
