928198.cdx
  Mrv1902 05222410182D          

174191  0  0  0  0            999 V2000
   22.2670   -6.1325    0.0000 C   0  0  0  0  0  0  0  0  0  0  0  0
   22.9815   -5.7200    0.0000 C   0  0  0  0  0  0  0  0  0  0  0  0
   23.6960   -6.1325    0.0000 C   0  0  0  0  0  0  0  0  0  0  0  0
   23.6960   -6.9575    0.0000 C   0  0  0  0  0  0  0  0  0  0  0  0
   22.9815   -7.3700    0.0000 C   0  0  2  0  0  0  0  0  0  0  0  0
   22.9815   -8.1950    0.0000 C   0  0  0  0  0  0  0  0  0  0  0  0
   22.2670   -8.6075    0.0000 C   0  0  0  0  0  0  0  0  0  0  0  0
   21.5525   -8.1950    0.0000 C   0  0  1  0  0  0  0  0  0  0  0  0
   20.8381   -8.6075    0.0000 C   0  0  2  0  0  0  0  0  0  0  0  0
   20.8381   -9.4325    0.0000 C   0  0  0  0  0  0  0  0  0  0  0  0
   20.1236   -9.8450    0.0000 C   0  0  0  0  0  0  0  0  0  0  0  0
   19.4091   -9.4325    0.0000 C   0  0  1  0  0  0  0  0  0  0  0  0
   18.6947   -9.8450    0.0000 C   0  0  0  0  0  0  0  0  0  0  0  0
   17.9802   -9.4325    0.0000 C   0  0  2  0  0  0  0  0  0  0  0  0
   17.9802   -8.6075    0.0000 C   0  0  0  0  0  0  0  0  0  0  0  0
   18.6947   -8.1950    0.0000 C   0  0  0  0  0  0  0  0  0  0  0  0
   19.4091   -8.6075    0.0000 C   0  0  2  0  0  0  0  0  0  0  0  0
   20.1236   -8.1950    0.0000 C   0  0  1  0  0  0  0  0  0  0  0  0
   20.1236   -7.3700    0.0000 C   0  0  0  0  0  0  0  0  0  0  0  0
   20.8381   -6.9575    0.0000 C   0  0  0  0  0  0  0  0  0  0  0  0
   21.5525   -7.3700    0.0000 C   0  0  0  0  0  0  0  0  0  0  0  0
   22.2670   -6.9575    0.0000 C   0  0  2  0  0  0  0  0  0  0  0  0
   23.6960   -7.7825    0.0000 C   0  0  0  0  0  0  0  0  0  0  0  0
   23.6960   -8.6075    0.0000 O   0  0  0  0  0  0  0  0  0  0  0  0
   19.1072  -10.5594    0.0000 C   0  0  0  0  0  0  0  0  0  0  0  0
   18.2822  -10.5594    0.0000 C   0  0  0  0  0  0  0  0  0  0  0  0
   22.5690   -5.0055    0.0000 C   0  0  0  0  0  0  0  0  0  0  0  0
   23.3940   -5.0055    0.0000 C   0  0  0  0  0  0  0  0  0  0  0  0
   17.2657   -9.8450    0.0000 O   0  0  0  0  0  0  0  0  0  0  0  0
   16.5512   -8.6075    0.0000 O   0  0  0  0  0  0  0  0  0  0  0  0
   16.5512   -9.4325    0.0000 C   0  0  2  0  0  0  0  0  0  0  0  0
   15.8368   -9.8450    0.0000 C   0  0  1  0  0  0  0  0  0  0  0  0
   15.1223   -9.4325    0.0000 C   0  0  2  0  0  0  0  0  0  0  0  0
   15.1223   -8.6075    0.0000 C   0  0  2  0  0  0  0  0  0  0  0  0
   15.8368   -8.1950    0.0000 C   0  0  0  0  0  0  0  0  0  0  0  0
   14.4078   -8.1950    0.0000 O   0  0  0  0  0  0  0  0  0  0  0  0
   14.4078   -9.8450    0.0000 O   0  0  0  0  0  0  0  0  0  0  0  0
   15.8368  -10.6700    0.0000 O   0  0  0  0  0  0  0  0  0  0  0  0
   14.4078  -10.6700    0.0000 O   0  0  0  0  0  0  0  0  0  0  0  0
   15.1223  -11.0825    0.0000 C   0  0  2  0  0  0  0  0  0  0  0  0
   15.1223  -11.9075    0.0000 C   0  0  1  0  0  0  0  0  0  0  0  0
   14.4078  -12.3200    0.0000 C   0  0  1  0  0  0  0  0  0  0  0  0
   13.6934  -11.9075    0.0000 C   0  0  2  0  0  0  0  0  0  0  0  0
   13.6934  -11.0825    0.0000 C   0  0  2  0  0  0  0  0  0  0  0  0
   12.9789  -10.6700    0.0000 C   0  0  0  0  0  0  0  0  0  0  0  0
   12.9789  -12.3200    0.0000 O   0  0  0  0  0  0  0  0  0  0  0  0
   15.8368  -12.3200    0.0000 O   0  0  0  0  0  0  0  0  0  0  0  0
   11.5416  -14.7779    0.0000 O   0  0  0  0  0  0  0  0  0  0  0  0
   10.8407  -13.5326    0.0000 O   0  0  0  0  0  0  0  0  0  0  0  0
   10.8317  -14.3576    0.0000 C   0  0  2  0  0  0  0  0  0  0  0  0
   10.1127  -14.7623    0.0000 C   0  0  1  0  0  0  0  0  0  0  0  0
    9.4028  -14.3420    0.0000 C   0  0  2  0  0  0  0  0  0  0  0  0
    9.4118  -13.5171    0.0000 C   0  0  1  0  0  0  0  0  0  0  0  0
   10.1307  -13.1124    0.0000 C   0  0  1  0  0  0  0  0  0  0  0  0
   10.1397  -12.2874    0.0000 C   0  0  0  0  0  0  0  0  0  0  0  0
   10.8542  -11.8749    0.0000 O   0  0  0  0  0  0  0  0  0  0  0  0
    8.6839  -14.7467    0.0000 O   0  0  0  0  0  0  0  0  0  0  0  0
   10.1037  -15.5872    0.0000 O   0  0  0  0  0  0  0  0  0  0  0  0
    8.7019  -13.0968    0.0000 O   0  0  0  0  0  0  0  0  0  0  0  0
    9.4028  -11.8516    0.0000 O   0  0  0  0  0  0  0  0  0  0  0  0
    8.6929  -12.2718    0.0000 C   0  0  2  0  0  0  0  0  0  0  0  0
    7.9740  -11.8671    0.0000 C   0  0  1  0  0  0  0  0  0  0  0  0
    7.9650  -11.0422    0.0000 C   0  0  2  0  0  0  0  0  0  0  0  0
    8.6750  -10.6219    0.0000 C   0  0  1  0  0  0  0  0  0  0  0  0
    9.3939  -11.0266    0.0000 C   0  0  1  0  0  0  0  0  0  0  0  0
   10.1038  -10.6064    0.0000 C   0  0  0  0  0  0  0  0  0  0  0  0
   10.0875   -9.7815    0.0000 O   0  0  0  0  0  0  0  0  0  0  0  0
    7.2640  -12.2874    0.0000 O   0  0  0  0  0  0  0  0  0  0  0  0
    8.6660   -9.7970    0.0000 O   0  0  0  0  0  0  0  0  0  0  0  0
    7.2461  -10.6375    0.0000 O   0  0  0  0  0  0  0  0  0  0  0  0
   19.4091  -10.2575    0.0000 H   0  0  0  0  0  0  0  0  0  0  0  0
   22.2670   -7.7825    0.0000 H   0  0  0  0  0  0  0  0  0  0  0  0
   26.5609  -10.2522    0.0000 O   0  0  0  0  0  0  0  0  0  0  0  0
   25.8301  -11.4801    0.0000 O   0  0  0  0  0  0  0  0  0  0  0  0
   26.5500  -11.0771    0.0000 C   0  0  2  0  0  0  0  0  0  0  0  0
   27.2590  -11.4990    0.0000 C   0  0  1  0  0  0  0  0  0  0  0  0
   27.2480  -12.3240    0.0000 C   0  0  2  0  0  0  0  0  0  0  0  0
   26.5282  -12.7270    0.0000 C   0  0  1  0  0  0  0  0  0  0  0  0
   25.8192  -12.3051    0.0000 C   0  0  1  0  0  0  0  0  0  0  0  0
   25.0994  -12.7081    0.0000 C   0  0  0  0  0  0  0  0  0  0  0  0
   24.3849  -12.2956    0.0000 O   0  0  0  0  0  0  0  0  0  0  0  0
   27.9570  -12.7459    0.0000 O   0  0  0  0  0  0  0  0  0  0  0  0
   27.9788  -11.0960    0.0000 O   0  0  0  0  0  0  0  0  0  0  0  0
    1.5442  -13.0834    0.0000 C   0  0  0  0  0  0  0  0  0  0  0  0
    2.2565  -13.4995    0.0000 O   0  0  0  0  0  0  0  0  0  0  0  0
    4.4020  -13.0979    0.0000 C   0  0  0  0  0  0  0  0  0  0  0  0
    3.6855  -13.5067    0.0000 C   0  0  0  0  0  0  0  0  0  0  0  0
    2.9731  -13.0906    0.0000 C   0  0  0  0  0  0  0  0  0  0  0  0
    2.9773  -12.2656    0.0000 C   0  0  0  0  0  0  0  0  0  0  0  0
    3.6938  -11.8568    0.0000 C   0  0  0  0  0  0  0  0  0  0  0  0
    4.4062  -12.2729    0.0000 C   0  0  0  0  0  0  0  0  0  0  0  0
    6.5559  -11.0463    0.0000 O   0  0  0  0  0  0  0  0  0  0  0  0
    5.1227  -11.8640    0.0000 C   0  0  0  0  0  0  0  0  0  0  0  0
    5.8351  -12.2801    0.0000 C   0  0  0  0  0  0  0  0  0  0  0  0
    6.5517  -11.8713    0.0000 C   0  0  0  0  0  0  0  0  0  0  0  0
   14.4078  -14.7950    0.0000 O   0  0  0  0  0  0  0  0  0  0  0  0
   12.2644  -13.5575    0.0000 C   0  0  0  0  0  0  0  0  0  0  0  0
   12.2644  -14.3825    0.0000 C   0  0  2  0  0  0  0  0  0  0  0  0
   12.9789  -14.7950    0.0000 C   0  0  2  0  0  0  0  0  0  0  0  0
   13.6934  -14.3825    0.0000 C   0  0  2  0  0  0  0  0  0  0  0  0
   13.6934  -13.5575    0.0000 C   0  0  1  0  0  0  0  0  0  0  0  0
   12.9789  -13.1450    0.0000 O   0  0  0  0  0  0  0  0  0  0  0  0
   14.4078  -13.1450    0.0000 O   0  0  0  0  0  0  0  0  0  0  0  0
   26.5190  -15.2019    0.0000 O   0  0  0  0  0  0  0  0  0  0  0  0
   25.0909  -16.0284    0.0000 O   0  0  0  0  0  0  0  0  0  0  0  0
   23.6611  -15.2049    0.0000 O   0  0  0  0  0  0  0  0  0  0  0  0
   23.6594  -13.5549    0.0000 C   0  0  0  0  0  0  0  0  0  0  0  0
   24.3743  -13.9666    0.0000 C   0  0  1  0  0  0  0  0  0  0  0  0
   24.3751  -14.7916    0.0000 C   0  0  1  0  0  0  0  0  0  0  0  0
   25.0900  -15.2034    0.0000 C   0  0  2  0  0  0  0  0  0  0  0  0
   25.8041  -14.7902    0.0000 C   0  0  2  0  0  0  0  0  0  0  0  0
   25.8032  -13.9652    0.0000 C   0  0  1  0  0  0  0  0  0  0  0  0
   25.0883  -13.5534    0.0000 O   0  0  0  0  0  0  0  0  0  0  0  0
   26.5173  -13.5519    0.0000 O   0  0  0  0  0  0  0  0  0  0  0  0
   25.8455   -9.8415    0.0000 C   0  0  0  0  0  0  0  0  0  0  0  0
   25.8373   -6.5415    0.0000 O   0  0  0  0  0  0  0  0  0  0  0  0
   27.2683   -7.3629    0.0000 O   0  0  0  0  0  0  0  0  0  0  0  0
   27.2724   -9.0129    0.0000 O   0  0  0  0  0  0  0  0  0  0  0  0
   25.8434   -9.0165    0.0000 C   0  0  2  0  0  0  0  0  0  0  0  0
   26.5569   -8.6022    0.0000 C   0  0  2  0  0  0  0  0  0  0  0  0
   26.5548   -7.7772    0.0000 C   0  0  1  0  0  0  0  0  0  0  0  0
   25.8394   -7.3665    0.0000 C   0  0  2  0  0  0  0  0  0  0  0  0
   25.1259   -7.7807    0.0000 C   0  0  1  0  0  0  0  0  0  0  0  0
   25.1279   -8.6057    0.0000 O   0  0  0  0  0  0  0  0  0  0  0  0
   24.4104   -7.3700    0.0000 O   0  0  0  0  0  0  0  0  0  0  0  0
   19.4091   -7.7825    0.0000 C   0  0  0  0  0  0  0  0  0  0  0  0
   20.8381   -7.7825    0.0000 C   0  0  0  0  0  0  0  0  0  0  0  0
   21.5525   -9.0200    0.0000 C   0  0  0  0  0  0  0  0  0  0  0  0
   20.1236   -9.0200    0.0000 H   0  0  0  0  0  0  0  0  0  0  0  0
   12.9789  -15.6200    0.0000 O   0  0  0  0  0  0  0  0  0  0  0  0
    7.2461   -9.8125    0.0000 C   0  0  2  0  0  0  0  0  0  0  0  0
    7.9606   -9.4000    0.0000 O   0  0  0  0  0  0  0  0  0  0  0  0
    7.9606   -8.5750    0.0000 C   0  0  1  0  0  0  0  0  0  0  0  0
    7.2461   -8.1625    0.0000 C   0  0  2  0  0  0  0  0  0  0  0  0
    6.5316   -8.5750    0.0000 C   0  0  1  0  0  0  0  0  0  0  0  0
    6.5316   -9.4000    0.0000 C   0  0  1  0  0  0  0  0  0  0  0  0
    8.6750   -8.1625    0.0000 C   0  0  0  0  0  0  0  0  0  0  0  0
    5.8172   -8.1625    0.0000 O   0  0  0  0  0  0  0  0  0  0  0  0
    7.2461   -7.3375    0.0000 O   0  0  0  0  0  0  0  0  0  0  0  0
    5.8172   -9.8125    0.0000 O   0  0  0  0  0  0  0  0  0  0  0  0
   10.3175   -7.3323    0.0000 O   0  0  0  0  0  0  0  0  0  0  0  0
   11.1380   -5.9008    0.0000 O   0  0  0  0  0  0  0  0  0  0  0  0
    8.6585   -4.4796    0.0000 C   0  0  0  0  0  0  0  0  0  0  0  0
   10.3085   -4.4744    0.0000 O   0  0  0  0  0  0  0  0  0  0  0  0
    9.9027   -6.6191    0.0000 C   0  0  2  0  0  0  0  0  0  0  0  0
   10.3130   -5.9034    0.0000 C   0  0  1  0  0  0  0  0  0  0  0  0
    9.8982   -5.1902    0.0000 C   0  0  2  0  0  0  0  0  0  0  0  0
    9.0732   -5.1928    0.0000 C   0  0  1  0  0  0  0  0  0  0  0  0
    8.6630   -5.9086    0.0000 O   0  0  0  0  0  0  0  0  0  0  0  0
    9.0777   -6.6217    0.0000 C   0  0  1  0  0  0  0  0  0  0  0  0
    8.6675   -7.3375    0.0000 O   0  0  0  0  0  0  0  0  0  0  0  0
    6.8406   -6.6190    0.0000 C   0  0  2  0  0  0  0  0  0  0  0  0
    7.2601   -5.9086    0.0000 O   0  0  0  0  0  0  0  0  0  0  0  0
    6.8546   -5.1901    0.0000 C   0  0  1  0  0  0  0  0  0  0  0  0
    6.0297   -5.1820    0.0000 C   0  0  2  0  0  0  0  0  0  0  0  0
    5.6102   -5.8924    0.0000 C   0  0  1  0  0  0  0  0  0  0  0  0
    6.0157   -6.6109    0.0000 C   0  0  1  0  0  0  0  0  0  0  0  0
    7.2741   -4.4797    0.0000 C   0  0  0  0  0  0  0  0  0  0  0  0
    4.7852   -5.8843    0.0000 O   0  0  0  0  0  0  0  0  0  0  0  0
    5.6242   -4.4635    0.0000 O   0  0  0  0  0  0  0  0  0  0  0  0
    5.5962   -7.3213    0.0000 O   0  0  0  0  0  0  0  0  0  0  0  0
    6.8687   -3.7612    0.0000 O   0  0  0  0  0  0  0  0  0  0  0  0
    2.2649  -11.8495    0.0000 O   0  0  0  0  0  0  0  0  0  0  0  0
    4.7712   -7.3213    0.0000 C   0  0  2  0  0  0  0  0  0  0  0  0
    4.3587   -6.6068    0.0000 O   0  0  0  0  0  0  0  0  0  0  0  0
    3.5337   -6.6068    0.0000 C   0  0  1  0  0  0  0  0  0  0  0  0
    3.1212   -7.3213    0.0000 C   0  0  2  0  0  0  0  0  0  0  0  0
    3.5337   -8.0357    0.0000 C   0  0  1  0  0  0  0  0  0  0  0  0
    4.3587   -8.0357    0.0000 C   0  0  1  0  0  0  0  0  0  0  0  0
    3.1212   -5.8923    0.0000 C   0  0  0  0  0  0  0  0  0  0  0  0
    3.1212   -8.7502    0.0000 O   0  0  0  0  0  0  0  0  0  0  0  0
    4.7712   -8.7502    0.0000 O   0  0  0  0  0  0  0  0  0  0  0  0
    2.2962   -7.3213    0.0000 O   0  0  0  0  0  0  0  0  0  0  0  0
    2.2962   -5.8923    0.0000 O   0  0  0  0  0  0  0  0  0  0  0  0
123125  1  1  0  0  0
101103  1  1  0  0  0
 93 91  1  0  0  0  0
 88 85  1  0  0  0  0
 85 84  1  0  0  0  0
 91 86  2  0  0  0  0
 87 86  1  0  0  0  0
 88 87  2  0  0  0  0
 89 88  1  0  0  0  0
 90 89  2  0  0  0  0
 91 90  1  0  0  0  0
 95 92  2  0  0  0  0
 94 93  2  0  0  0  0
 95 94  1  0  0  0  0
 49 50  1  0  0  0  0
 50 51  1  0  0  0  0
100 96  1  6  0  0  0
102 97  1  0  0  0  0
 98 97  1  0  0  0  0
 99 98  1  0  0  0  0
119115  1  1  0  0  0
115 73  1  0  0  0  0
112114  1  1  0  0  0
111104  1  6  0  0  0
110105  1  6  0  0  0
109106  1  1  0  0  0
108107  1  6  0  0  0
113108  1  0  0  0  0
109108  1  0  0  0  0
110109  1  0  0  0  0
111110  1  0  0  0  0
112111  1  0  0  0  0
113112  1  0  0  0  0
 74 75  1  0  0  0  0
122116  1  6  0  0  0
121117  1  1  0  0  0
120118  1  6  0  0  0
124119  1  0  0  0  0
120119  1  0  0  0  0
121120  1  0  0  0  0
122121  1  0  0  0  0
  1  2  1  0  0  0  0
  2  3  1  0  0  0  0
  3  4  1  0  0  0  0
  4  5  1  0  0  0  0
  5  6  1  0  0  0  0
  6  7  1  0  0  0  0
  7  8  1  0  0  0  0
  8  9  1  0  0  0  0
  9 10  1  0  0  0  0
 10 11  1  0  0  0  0
 11 12  1  0  0  0  0
 12 13  1  0  0  0  0
 13 14  1  0  0  0  0
 14 15  1  0  0  0  0
 15 16  1  0  0  0  0
 16 17  1  0  0  0  0
 12 17  1  0  0  0  0
 17 18  1  0  0  0  0
  9 18  1  0  0  0  0
 18 19  1  0  0  0  0
 19 20  1  0  0  0  0
 20 21  2  0  0  0  0
  8 21  1  0  0  0  0
 21 22  1  0  0  0  0
  5 22  1  0  0  0  0
  1 22  1  0  0  0  0
 23 24  2  0  0  0  0
 23125  1  0  0  0  0
  5 23  1  1  0  0  0
 13 25  1  0  0  0  0
 13 26  1  0  0  0  0
  2 27  1  0  0  0  0
  2 28  1  0  0  0  0
 30 31  1  0  0  0  0
 31 32  1  0  0  0  0
 32 33  1  0  0  0  0
 33 34  1  0  0  0  0
 34 35  1  0  0  0  0
 30 35  1  0  0  0  0
 34 36  1  1  0  0  0
 33 37  1  1  0  0  0
 39 40  1  0  0  0  0
 40 41  1  0  0  0  0
 41 42  1  0  0  0  0
 42 43  1  0  0  0  0
 43 44  1  0  0  0  0
 39 44  1  0  0  0  0
 44 45  1  6  0  0  0
 43 46  1  1  0  0  0
 41 47  1  6  0  0  0
100 99  1  0  0  0  0
101100  1  0  0  0  0
102101  1  0  0  0  0
 51 52  1  0  0  0  0
 52 53  1  0  0  0  0
 53 54  1  0  0  0  0
 49 54  1  0  0  0  0
 55 56  1  0  0  0  0
 54 55  1  1  0  0  0
 52 57  1  1  0  0  0
 51 58  1  6  0  0  0
 60 61  1  0  0  0  0
 61 62  1  0  0  0  0
 62 63  1  0  0  0  0
 63 64  1  0  0  0  0
 64 65  1  0  0  0  0
 60 65  1  0  0  0  0
 66 67  1  0  0  0  0
 65 66  1  1  0  0  0
 68 95  1  0  0  0  0
 62 68  1  6  0  0  0
 64 69  1  6  0  0  0
 63 70  1  1  0  0  0
 61 59  1  1  0  0  0
 53 59  1  6  0  0  0
 50 48  1  1  0  0  0
 42103  1  6  0  0  0
 40 38  1  1  0  0  0
 32 38  1  6  0  0  0
 31 29  1  1  0  0  0
 14 29  1  1  0  0  0
 12 71  1  6  0  0  0
 22 72  1  1  0  0  0
123122  1  0  0  0  0
124123  1  0  0  0  0
 75 76  1  0  0  0  0
 76 77  1  0  0  0  0
 77 78  1  0  0  0  0
 78 79  1  0  0  0  0
 74 79  1  0  0  0  0
 78114  1  6  0  0  0
 80 81  1  0  0  0  0
 79 80  1  1  0  0  0
 77 82  1  1  0  0  0
 76 83  1  6  0  0  0
 75 73  1  1  0  0  0
 17126  1  1  0  0  0
  9127  1  1  0  0  0
  8128  1  6  0  0  0
 18129  1  6  0  0  0
 99130  1  6  0  0  0
 98 48  1  6  0  0  0
131 70  1  1  0  0  0
131132  1  0  0  0  0
132133  1  0  0  0  0
133134  1  0  0  0  0
134135  1  0  0  0  0
135136  1  0  0  0  0
136131  1  0  0  0  0
133137  1  1  0  0  0
135138  1  1  0  0  0
134139  1  6  0  0  0
136140  1  6  0  0  0
145141  1  1  0  0  0
137151  1  0  0  0  0
146142  1  1  0  0  0
148143  1  1  0  0  0
147144  1  6  0  0  0
145150  1  0  0  0  0
146145  1  0  0  0  0
147146  1  0  0  0  0
148147  1  0  0  0  0
149148  1  0  0  0  0
150149  1  0  0  0  0
150151  1  6  0  0  0
152139  1  1  0  0  0
152153  1  0  0  0  0
153154  1  0  0  0  0
154155  1  0  0  0  0
155156  1  0  0  0  0
156157  1  0  0  0  0
157152  1  0  0  0  0
154158  1  1  0  0  0
156159  1  1  0  0  0
155160  1  6  0  0  0
157161  1  6  0  0  0
158162  1  0  0  0  0
 89163  1  0  0  0  0
164161  1  1  0  0  0
164165  1  0  0  0  0
165166  1  0  0  0  0
166167  1  0  0  0  0
167168  1  0  0  0  0
168169  1  0  0  0  0
169164  1  0  0  0  0
166170  1  1  0  0  0
168171  1  1  0  0  0
169172  1  6  0  0  0
167173  1  6  0  0  0
170174  1  0  0  0  0
M  END
>  <cdx:fragmentId>
181457

$$$$
