92818.cdx
  Mrv1902 05222410262D          

 17 18  0  0  0  0            999 V2000
    5.1187   -6.9778    0.0000 C   0  0  0  0  0  0  0  0  0  0  0  0
    4.4031   -7.3883    0.0000 C   0  0  0  0  0  0  0  0  0  0  0  0
    4.4008   -8.2133    0.0000 C   0  0  0  0  0  0  0  0  0  0  0  0
    5.1142   -8.6278    0.0000 C   0  0  0  0  0  0  0  0  0  0  0  0
    5.8298   -8.2173    0.0000 C   0  0  0  0  0  0  0  0  0  0  0  0
    5.8320   -7.3923    0.0000 C   0  0  0  0  0  0  0  0  0  0  0  0
    3.6852   -8.6239    0.0000 O   0  0  0  0  0  0  0  0  0  0  0  0
    6.5476   -6.9817    0.0000 C   0  0  0  0  0  0  0  0  0  0  0  0
    7.2610   -7.3962    0.0000 O   0  0  0  0  0  0  0  0  0  0  0  0
    7.9766   -6.9857    0.0000 C   0  0  0  0  0  0  0  0  0  0  0  0
    8.6899   -7.4001    0.0000 C   0  0  0  0  0  0  0  0  0  0  0  0
    8.6876   -8.2251    0.0000 C   0  0  0  0  0  0  0  0  0  0  0  0
    9.4010   -8.6396    0.0000 C   0  0  0  0  0  0  0  0  0  0  0  0
   10.1166   -8.2291    0.0000 C   0  0  0  0  0  0  0  0  0  0  0  0
   10.1188   -7.4041    0.0000 C   0  0  0  0  0  0  0  0  0  0  0  0
    9.4055   -6.9896    0.0000 C   0  0  0  0  0  0  0  0  0  0  0  0
   10.8299   -8.6435    0.0000 O   0  0  0  0  0  0  0  0  0  0  0  0
  1  2  2  0  0  0  0
  2  3  1  0  0  0  0
  3  4  2  0  0  0  0
  4  5  1  0  0  0  0
  5  6  2  0  0  0  0
  6  1  1  0  0  0  0
  3  7  1  0  0  0  0
  6  8  1  0  0  0  0
  8  9  1  0  0  0  0
  9 10  1  0  0  0  0
 10 11  1  0  0  0  0
 11 12  2  0  0  0  0
 12 13  1  0  0  0  0
 13 14  2  0  0  0  0
 14 15  1  0  0  0  0
 15 16  2  0  0  0  0
 16 11  1  0  0  0  0
 14 17  1  0  0  0  0
M  END
>  <cdx:fragmentId>
5

$$$$
