92811.cdx
  Mrv1902 05222410182D          

 25 27  0  0  0  0            999 V2000
    5.7456   -7.9063    0.0000 C   0  0  0  0  0  0  0  0  0  0  0  0
    5.7456   -8.7313    0.0000 C   0  0  0  0  0  0  0  0  0  0  0  0
    6.4600   -9.1438    0.0000 O   0  0  0  0  0  0  0  0  0  0  0  0
    7.1745   -8.7313    0.0000 C   0  0  0  0  0  0  0  0  0  0  0  0
    7.1745   -7.9063    0.0000 C   0  0  0  0  0  0  0  0  0  0  0  0
    6.4600   -7.4937    0.0000 C   0  0  0  0  0  0  0  0  0  0  0  0
    7.8890   -9.1438    0.0000 C   0  0  0  0  0  0  0  0  0  0  0  0
    8.6034   -8.7313    0.0000 C   0  0  0  0  0  0  0  0  0  0  0  0
    8.6034   -7.9063    0.0000 C   0  0  0  0  0  0  0  0  0  0  0  0
    7.8890   -7.4937    0.0000 C   0  0  0  0  0  0  0  0  0  0  0  0
    9.3179   -7.4937    0.0000 C   0  0  0  0  0  0  0  0  0  0  0  0
    9.3179   -6.6688    0.0000 C   0  0  0  0  0  0  0  0  0  0  0  0
    8.6034   -6.2563    0.0000 C   0  0  0  0  0  0  0  0  0  0  0  0
    7.8890   -6.6688    0.0000 O   0  0  0  0  0  0  0  0  0  0  0  0
    8.6034   -5.4313    0.0000 O   0  0  0  0  0  0  0  0  0  0  0  0
    6.4600   -6.6688    0.0000 O   0  0  0  0  0  0  0  0  0  0  0  0
    5.0311   -7.4937    0.0000 O   0  0  0  0  0  0  0  0  0  0  0  0
    4.9206   -8.7313    0.0000 C   0  0  0  0  0  0  0  0  0  0  0  0
    5.3331   -9.4457    0.0000 C   0  0  0  0  0  0  0  0  0  0  0  0
    5.7456   -6.2563    0.0000 C   0  0  0  0  0  0  0  0  0  0  0  0
    5.7456   -5.4313    0.0000 C   0  0  0  0  0  0  0  0  0  0  0  0
    5.0311   -5.0187    0.0000 C   0  0  0  0  0  0  0  0  0  0  0  0
    5.0311   -4.1937    0.0000 C   0  0  0  0  0  0  0  0  0  0  0  0
    5.0311   -6.6688    0.0000 O   0  0  0  0  0  0  0  0  0  0  0  0
    6.4600   -5.0187    0.0000 C   0  0  0  0  0  0  0  0  0  0  0  0
  1  2  1  0  0  0  0
  2  3  1  0  0  0  0
  3  4  1  0  0  0  0
  4  5  2  0  0  0  0
  5  6  1  0  0  0  0
  6  1  1  0  0  0  0
  4  7  1  0  0  0  0
  7  8  2  0  0  0  0
  8  9  1  0  0  0  0
  9 10  2  0  0  0  0
 10  5  1  0  0  0  0
  9 11  1  0  0  0  0
 11 12  2  0  0  0  0
 12 13  1  0  0  0  0
 13 14  1  0  0  0  0
 14 10  1  0  0  0  0
 13 15  2  0  0  0  0
  6 16  1  0  0  0  0
  1 17  1  0  0  0  0
  2 18  1  0  0  0  0
  2 19  1  0  0  0  0
 16 20  1  0  0  0  0
 20 21  1  0  0  0  0
 21 22  1  0  0  0  0
 22 23  1  0  0  0  0
 20 24  2  0  0  0  0
 21 25  1  0  0  0  0
M  END
>  <cdx:fragmentId>
5

$$$$
