92819.cdx
  Mrv1902 05222410262D          

 25 29  0  0  0  0            999 V2000
    3.5181   -8.7175    0.0000 C   0  0  0  0  0  0  0  0  0  0  0  0
    3.5181   -9.5425    0.0000 C   0  0  0  0  0  0  0  0  0  0  0  0
    4.2325   -9.9550    0.0000 O   0  0  0  0  0  0  0  0  0  0  0  0
    4.9470   -9.5425    0.0000 C   0  0  0  0  0  0  0  0  0  0  0  0
    4.9470   -8.7175    0.0000 C   0  0  0  0  0  0  0  0  0  0  0  0
    4.2325   -8.3050    0.0000 C   0  0  0  0  0  0  0  0  0  0  0  0
    5.6615   -9.9550    0.0000 C   0  0  0  0  0  0  0  0  0  0  0  0
    6.3759   -9.5425    0.0000 C   0  0  0  0  0  0  0  0  0  0  0  0
    6.3759   -8.7175    0.0000 C   0  0  0  0  0  0  0  0  0  0  0  0
    5.6615   -8.3050    0.0000 C   0  0  0  0  0  0  0  0  0  0  0  0
    7.0904   -9.9550    0.0000 O   0  0  0  0  0  0  0  0  0  0  0  0
    7.8049   -9.5425    0.0000 C   0  0  0  0  0  0  0  0  0  0  0  0
    7.8049   -8.7175    0.0000 C   0  0  0  0  0  0  0  0  0  0  0  0
    7.0904   -8.3050    0.0000 C   0  0  0  0  0  0  0  0  0  0  0  0
    8.4180   -8.1655    0.0000 C   0  0  0  0  0  0  0  0  0  0  0  0
    8.0824   -7.4118    0.0000 C   0  0  0  0  0  0  0  0  0  0  0  0
    7.2619   -7.4980    0.0000 O   0  0  0  0  0  0  0  0  0  0  0  0
    9.2385   -8.2517    0.0000 C   0  0  0  0  0  0  0  0  0  0  0  0
    9.7234   -7.5843    0.0000 C   0  0  0  0  0  0  0  0  0  0  0  0
    9.3878   -6.8306    0.0000 C   0  0  0  0  0  0  0  0  0  0  0  0
    8.5673   -6.7444    0.0000 C   0  0  0  0  0  0  0  0  0  0  0  0
    9.8727   -6.1632    0.0000 O   0  0  0  0  0  0  0  0  0  0  0  0
    8.5194   -9.9550    0.0000 O   0  0  0  0  0  0  0  0  0  0  0  0
    2.6931   -9.5425    0.0000 C   0  0  0  0  0  0  0  0  0  0  0  0
    3.3045  -10.3394    0.0000 C   0  0  0  0  0  0  0  0  0  0  0  0
  1  2  1  0  0  0  0
  2  3  1  0  0  0  0
  3  4  1  0  0  0  0
  4  5  2  0  0  0  0
  5  6  1  0  0  0  0
  6  1  2  0  0  0  0
  4  7  1  0  0  0  0
  7  8  2  0  0  0  0
  8  9  1  0  0  0  0
  9 10  2  0  0  0  0
 10  5  1  0  0  0  0
  8 11  1  0  0  0  0
 11 12  1  0  0  0  0
 12 13  1  0  0  0  0
 13 14  2  0  0  0  0
 14  9  1  0  0  0  0
 13 15  1  0  0  0  0
 15 16  2  0  0  0  0
 16 17  1  0  0  0  0
 17 14  1  0  0  0  0
 15 18  1  0  0  0  0
 18 19  2  0  0  0  0
 19 20  1  0  0  0  0
 20 21  2  0  0  0  0
 21 16  1  0  0  0  0
 20 22  1  0  0  0  0
 12 23  2  0  0  0  0
  2 24  1  0  0  0  0
  2 25  1  0  0  0  0
M  END
>  <cdx:fragmentId>
5

$$$$
