92815.cdx
  Mrv1902 05222410202D          

 17 18  0  0  0  0            999 V2000
    4.8931   -6.9712    0.0000 C   0  0  0  0  0  0  0  0  0  0  0  0
    4.8931   -7.7963    0.0000 C   0  0  0  0  0  0  0  0  0  0  0  0
    5.6075   -8.2088    0.0000 C   0  0  0  0  0  0  0  0  0  0  0  0
    6.3220   -7.7963    0.0000 C   0  0  0  0  0  0  0  0  0  0  0  0
    6.3220   -6.9712    0.0000 C   0  0  0  0  0  0  0  0  0  0  0  0
    5.6075   -6.5587    0.0000 C   0  0  0  0  0  0  0  0  0  0  0  0
    7.0365   -8.2088    0.0000 C   0  0  0  0  0  0  0  0  0  0  0  0
    7.7509   -7.7963    0.0000 O   0  0  0  0  0  0  0  0  0  0  0  0
    7.7509   -6.9712    0.0000 C   0  0  0  0  0  0  0  0  0  0  0  0
    7.0365   -6.5587    0.0000 C   0  0  0  0  0  0  0  0  0  0  0  0
    5.6075   -5.7338    0.0000 C   0  0  0  0  0  0  0  0  0  0  0  0
    4.1786   -8.2088    0.0000 C   0  0  0  0  0  0  0  0  0  0  0  0
    5.6075   -9.0337    0.0000 C   0  0  0  0  0  0  0  0  0  0  0  0
    6.6240   -5.8443    0.0000 C   0  0  0  0  0  0  0  0  0  0  0  0
    7.4490   -5.8443    0.0000 C   0  0  0  0  0  0  0  0  0  0  0  0
    8.4654   -6.5587    0.0000 O   0  0  0  0  0  0  0  0  0  0  0  0
    7.0365   -9.0337    0.0000 O   0  0  0  0  0  0  0  0  0  0  0  0
  1  2  2  0  0  0  0
  2  3  1  0  0  0  0
  3  4  2  0  0  0  0
  4  5  1  0  0  0  0
  5  6  2  0  0  0  0
  6  1  1  0  0  0  0
  4  7  1  0  0  0  0
  7  8  1  0  0  0  0
  8  9  1  0  0  0  0
  9 10  1  0  0  0  0
 10  5  1  0  0  0  0
  6 11  1  0  0  0  0
  2 12  1  0  0  0  0
  3 13  1  0  0  0  0
 10 14  1  0  0  0  0
 10 15  1  0  0  0  0
  9 16  2  0  0  0  0
  7 17  2  0  0  0  0
M  END
>  <cdx:fragmentId>
5

$$$$
