92817.cdx
  Mrv1902 05222410202D          

 34 36  0  0  0  0            999 V2000
    6.1723   -8.1892    0.0000 O   0  0  0  0  0  0  0  0  0  0  0  0
    6.7763   -7.3716    0.0000 O   0  0  0  0  0  0  0  0  0  0  0  0
    5.5138   -5.5446    0.0000 O   0  0  0  0  0  0  0  0  0  0  0  0
    5.7274   -6.3415    0.0000 C   0  0  0  0  0  0  0  0  0  0  0  0
    6.5142   -6.5893    0.0000 C   0  0  2  0  0  0  0  0  0  0  0  0
    7.1698   -5.2734    0.0000 O   0  0  0  0  0  0  0  0  0  0  0  0
    7.1773   -6.0984    0.0000 C   0  0  1  0  0  0  0  0  0  0  0  0
   10.1959   -5.7912    0.0000 O   0  0  0  0  0  0  0  0  0  0  0  0
    9.5779   -5.2448    0.0000 C   0  0  2  0  0  0  0  0  0  0  0  0
   10.5244   -4.1743    0.0000 O   0  0  0  0  0  0  0  0  0  0  0  0
    9.7421   -4.4363    0.0000 C   0  0  1  0  0  0  0  0  0  0  0  0
    9.2883   -3.0813    0.0000 O   0  0  0  0  0  0  0  0  0  0  0  0
    9.1240   -3.8898    0.0000 C   0  0  2  0  0  0  0  0  0  0  0  0
    7.8879   -2.7969    0.0000 O   0  0  0  0  0  0  0  0  0  0  0  0
    7.7237   -3.6053    0.0000 C   0  0  0  0  0  0  0  0  0  0  0  0
    8.3418   -4.1518    0.0000 C   0  0  1  0  0  0  0  0  0  0  0  0
    8.1775   -4.9603    0.0000 O   0  0  0  0  0  0  0  0  0  0  0  0
    8.7956   -5.5068    0.0000 C   0  0  2  0  0  0  0  0  0  0  0  0
    8.6314   -6.3153    0.0000 O   0  0  0  0  0  0  0  0  0  0  0  0
    7.8491   -6.5773    0.0000 C   0  0  2  0  0  0  0  0  0  0  0  0
    7.6012   -7.3642    0.0000 C   0  0  2  0  0  0  0  0  0  0  0  0
    7.6012   -8.1892    0.0000 O   0  0  0  0  0  0  0  0  0  0  0  0
    6.8868   -8.6017    0.0000 C   0  0  2  0  0  0  0  0  0  0  0  0
    7.6012   -9.8392    0.0000 O   0  0  0  0  0  0  0  0  0  0  0  0
    6.8868   -9.4267    0.0000 C   0  0  2  0  0  0  0  0  0  0  0  0
    6.1723  -10.6642    0.0000 O   0  0  0  0  0  0  0  0  0  0  0  0
    6.1723   -9.8392    0.0000 C   0  0  1  0  0  0  0  0  0  0  0  0
    4.7433   -9.8392    0.0000 O   0  0  0  0  0  0  0  0  0  0  0  0
    5.4578   -9.4267    0.0000 C   0  0  2  0  0  0  0  0  0  0  0  0
    5.4578   -8.6017    0.0000 C   0  0  1  0  0  0  0  0  0  0  0  0
    4.7433   -8.1892    0.0000 C   0  0  0  0  0  0  0  0  0  0  0  0
    4.0289   -8.6017    0.0000 O   0  0  0  0  0  0  0  0  0  0  0  0
    8.4166   -7.4896    0.0000 C   0  0  0  0  0  0  0  0  0  0  0  0
    8.9329   -6.8461    0.0000 O   0  0  0  0  0  0  0  0  0  0  0  0
 30  1  1  0  0  0  0
 23  1  1  0  0  0  0
 21  2  1  0  0  0  0
  5  2  1  0  0  0  0
  4  3  1  0  0  0  0
  5  4  1  6  0  0  0
  7  5  1  0  0  0  0
  7  6  1  1  0  0  0
 20  7  1  0  0  0  0
  9  8  1  1  0  0  0
 18  9  1  0  0  0  0
 11  9  1  0  0  0  0
 11 10  1  6  0  0  0
 13 11  1  0  0  0  0
 13 12  1  1  0  0  0
 16 13  1  0  0  0  0
 15 14  1  0  0  0  0
 16 15  1  6  0  0  0
 17 16  1  0  0  0  0
 18 17  1  0  0  0  0
 18 19  1  1  0  0  0
 20 19  1  6  0  0  0
 21 20  1  0  0  0  0
 21 22  1  6  0  0  0
 23 22  1  6  0  0  0
 25 23  1  0  0  0  0
 25 24  1  6  0  0  0
 27 25  1  0  0  0  0
 27 26  1  1  0  0  0
 29 27  1  0  0  0  0
 29 28  1  6  0  0  0
 30 29  1  0  0  0  0
 30 31  1  1  0  0  0
 32 31  1  0  0  0  0
 21 33  1  0  0  0  0
 33 34  1  0  0  0  0
M  END
>  <cdx:groupId>
106

>  <cdx:fragmentId>
5

$$$$
