92829.cdx
  Mrv1902 05222410202D          

 34 37  0  0  0  0            999 V2000
    4.1899   -6.5075    0.0000 C   0  0  0  0  0  0  0  0  0  0  0  0
    4.9099   -6.9103    0.0000 C   0  0  0  0  0  0  0  0  0  0  0  0
    5.6188   -6.4882    0.0000 C   0  0  0  0  0  0  0  0  0  0  0  0
    5.6076   -5.6633    0.0000 C   0  0  0  0  0  0  0  0  0  0  0  0
    4.8876   -5.2605    0.0000 C   0  0  0  0  0  0  0  0  0  0  0  0
    4.1788   -5.6826    0.0000 C   0  0  0  0  0  0  0  0  0  0  0  0
    6.3387   -6.8910    0.0000 C   0  0  0  0  0  0  0  0  0  0  0  0
    7.0476   -6.4689    0.0000 C   0  0  1  0  0  0  0  0  0  0  0  0
    7.0364   -5.6440    0.0000 C   0  0  2  0  0  0  0  0  0  0  0  0
    6.3164   -5.2412    0.0000 O   0  0  0  0  0  0  0  0  0  0  0  0
    4.9211   -7.7353    0.0000 O   0  0  0  0  0  0  0  0  0  0  0  0
    6.3499   -7.7160    0.0000 O   0  0  0  0  0  0  0  0  0  0  0  0
    7.7675   -6.8717    0.0000 O   0  0  0  0  0  0  0  0  0  0  0  0
    8.4652   -5.6247    0.0000 C   0  0  0  0  0  0  0  0  0  0  0  0
    7.7452   -5.2219    0.0000 C   0  0  0  0  0  0  0  0  0  0  0  0
    7.0699   -8.1188    0.0000 O   0  0  0  0  0  0  0  0  0  0  0  0
    7.7787   -7.6967    0.0000 C   0  0  2  0  0  0  0  0  0  0  0  0
    7.0810   -8.9437    0.0000 C   0  0  2  0  0  0  0  0  0  0  0  0
    7.8010   -9.3465    0.0000 C   0  0  1  0  0  0  0  0  0  0  0  0
    8.5098   -8.9244    0.0000 C   0  0  2  0  0  0  0  0  0  0  0  0
    8.4987   -8.0995    0.0000 C   0  0  1  0  0  0  0  0  0  0  0  0
    9.1741   -5.2026    0.0000 C   0  0  0  0  0  0  0  0  0  0  0  0
    9.1629   -4.3777    0.0000 C   0  0  0  0  0  0  0  0  0  0  0  0
    8.4429   -3.9748    0.0000 C   0  0  0  0  0  0  0  0  0  0  0  0
    7.7341   -4.3970    0.0000 C   0  0  0  0  0  0  0  0  0  0  0  0
    3.4588   -5.2798    0.0000 O   0  0  0  0  0  0  0  0  0  0  0  0
    8.4318   -3.1499    0.0000 O   0  0  0  0  0  0  0  0  0  0  0  0
    9.8717   -3.9555    0.0000 O   0  0  0  0  0  0  0  0  0  0  0  0
    7.8121  -10.1714    0.0000 O   0  0  0  0  0  0  0  0  0  0  0  0
    6.3722   -9.3658    0.0000 C   0  0  0  0  0  0  0  0  0  0  0  0
    9.2298   -9.3272    0.0000 O   0  0  0  0  0  0  0  0  0  0  0  0
    9.2075   -7.6774    0.0000 O   0  0  0  0  0  0  0  0  0  0  0  0
    7.1033  -10.5935    0.0000 C   0  0  0  0  0  0  0  0  0  0  0  0
    7.1144  -11.4185    0.0000 O   0  0  0  0  0  0  0  0  0  0  0  0
  1  2  1  0  0  0  0
  2  3  2  0  0  0  0
  3  4  1  0  0  0  0
  4  5  2  0  0  0  0
  5  6  1  0  0  0  0
  6  1  2  0  0  0  0
  3  7  1  0  0  0  0
  7  8  1  0  0  0  0
  8  9  1  0  0  0  0
  9 10  1  0  0  0  0
 10  4  1  0  0  0  0
  2 11  1  0  0  0  0
 12  7  2  0  0  0  0
  8 13  1  1  0  0  0
 14 15  1  0  0  0  0
  9 15  1  6  0  0  0
 16 17  1  0  0  0  0
 17 13  1  1  0  0  0
 16 18  1  0  0  0  0
 18 19  1  0  0  0  0
 19 20  1  0  0  0  0
 20 21  1  0  0  0  0
 21 17  1  0  0  0  0
 14 22  2  0  0  0  0
 22 23  1  0  0  0  0
 23 24  2  0  0  0  0
 24 25  1  0  0  0  0
 25 15  2  0  0  0  0
  6 26  1  0  0  0  0
 24 27  1  0  0  0  0
 23 28  1  0  0  0  0
 19 29  1  1  0  0  0
 18 30  1  6  0  0  0
 20 31  1  6  0  0  0
 21 32  1  6  0  0  0
 29 33  1  0  0  0  0
 33 34  2  0  0  0  0
M  END
>  <cdx:fragmentId>
5

$$$$
