92825.cdx
  Mrv1902 05222410262D          

 26 29  0  0  0  0            999 V2000
    7.5529   -8.3669    0.0000 C   0  0  0  0  0  0  0  0  0  0  0  0
    7.5529   -7.5419    0.0000 C   0  0  0  0  0  0  0  0  0  0  0  0
    6.8384   -7.1294    0.0000 C   0  0  0  0  0  0  0  0  0  0  0  0
    6.1239   -7.5419    0.0000 C   0  0  0  0  0  0  0  0  0  0  0  0
    6.1239   -8.3669    0.0000 C   0  0  0  0  0  0  0  0  0  0  0  0
    5.4095   -8.7794    0.0000 C   0  0  0  0  0  0  0  0  0  0  0  0
    4.6950   -8.3669    0.0000 C   0  0  0  0  0  0  0  0  0  0  0  0
    3.9805   -8.7794    0.0000 C   0  0  0  0  0  0  0  0  0  0  0  0
    3.9805   -9.6044    0.0000 C   0  0  0  0  0  0  0  0  0  0  0  0
    4.6950  -10.0169    0.0000 C   0  0  0  0  0  0  0  0  0  0  0  0
    5.4095   -9.6044    0.0000 C   0  0  0  0  0  0  0  0  0  0  0  0
    6.1239  -10.0169    0.0000 C   0  0  0  0  0  0  0  0  0  0  0  0
    6.8384   -9.6044    0.0000 C   0  0  0  0  0  0  0  0  0  0  0  0
    6.8384   -8.7794    0.0000 C   0  0  0  0  0  0  0  0  0  0  0  0
    8.2674   -7.1294    0.0000 O   0  0  0  0  0  0  0  0  0  0  0  0
    8.2674   -6.3044    0.0000 C   0  0  0  0  0  0  0  0  0  0  0  0
    8.2674   -8.7794    0.0000 C   0  0  0  0  0  0  0  0  0  0  0  0
    8.9818   -8.3669    0.0000 C   0  0  0  0  0  0  0  0  0  0  0  0
    8.9818   -7.5419    0.0000 C   0  0  0  0  0  0  0  0  0  0  0  0
    9.6963   -7.1294    0.0000 C   0  0  0  0  0  0  0  0  0  0  0  0
   10.4108   -7.5419    0.0000 C   0  0  0  0  0  0  0  0  0  0  0  0
   10.4108   -8.3669    0.0000 C   0  0  0  0  0  0  0  0  0  0  0  0
    9.6963   -8.7794    0.0000 C   0  0  0  0  0  0  0  0  0  0  0  0
   11.1252   -7.1294    0.0000 O   0  0  0  0  0  0  0  0  0  0  0  0
    3.2661  -10.0169    0.0000 O   0  0  0  0  0  0  0  0  0  0  0  0
    5.4095   -7.1294    0.0000 O   0  0  0  0  0  0  0  0  0  0  0  0
  1  2  1  0  0  0  0
  2  3  2  0  0  0  0
  3  4  1  0  0  0  0
  4  5  2  0  0  0  0
  5  6  1  0  0  0  0
  6  7  1  0  0  0  0
  7  8  2  0  0  0  0
  8  9  1  0  0  0  0
  9 10  2  0  0  0  0
 10 11  1  0  0  0  0
  6 11  2  0  0  0  0
 11 12  1  0  0  0  0
 12 13  1  0  0  0  0
 13 14  1  0  0  0  0
  1 14  2  0  0  0  0
  5 14  1  0  0  0  0
 15 16  1  0  0  0  0
  2 15  1  0  0  0  0
 17 18  1  0  0  0  0
 18 19  1  0  0  0  0
 19 20  2  0  0  0  0
 20 21  1  0  0  0  0
 21 22  2  0  0  0  0
 22 23  1  0  0  0  0
 18 23  2  0  0  0  0
 21 24  1  0  0  0  0
  1 17  1  0  0  0  0
  9 25  1  0  0  0  0
  4 26  1  0  0  0  0
M  END
>  <cdx:fragmentId>
5

$$$$
