92812.cdx
  Mrv1902 05222410272D          

 20 21  0  0  0  0            999 V2000
    6.4331   -7.5625    0.0000 C   0  0  0  0  0  0  0  0  0  0  0  0
    6.4331   -8.3875    0.0000 C   0  0  0  0  0  0  0  0  0  0  0  0
    7.1475   -8.8000    0.0000 C   0  0  0  0  0  0  0  0  0  0  0  0
    7.8620   -8.3875    0.0000 C   0  0  0  0  0  0  0  0  0  0  0  0
    7.8620   -7.5625    0.0000 C   0  0  0  0  0  0  0  0  0  0  0  0
    7.1475   -7.1500    0.0000 C   0  0  0  0  0  0  0  0  0  0  0  0
    7.1475   -6.3250    0.0000 C   0  0  0  0  0  0  0  0  0  0  0  0
    7.8620   -5.9125    0.0000 O   0  0  0  0  0  0  0  0  0  0  0  0
    7.1475   -9.6250    0.0000 O   0  0  0  0  0  0  0  0  0  0  0  0
    6.4331  -10.0375    0.0000 C   0  0  2  0  0  0  0  0  0  0  0  0
    5.7186   -9.6250    0.0000 O   0  0  0  0  0  0  0  0  0  0  0  0
    5.0041  -10.0375    0.0000 C   0  0  1  0  0  0  0  0  0  0  0  0
    5.0041  -10.8625    0.0000 C   0  0  2  0  0  0  0  0  0  0  0  0
    5.7186  -11.2750    0.0000 C   0  0  1  0  0  0  0  0  0  0  0  0
    6.4331  -10.8625    0.0000 C   0  0  1  0  0  0  0  0  0  0  0  0
    4.2896   -9.6250    0.0000 C   0  0  0  0  0  0  0  0  0  0  0  0
    5.7186  -12.1000    0.0000 O   0  0  0  0  0  0  0  0  0  0  0  0
    4.2896  -11.2750    0.0000 O   0  0  0  0  0  0  0  0  0  0  0  0
    7.1475  -11.2750    0.0000 O   0  0  0  0  0  0  0  0  0  0  0  0
    3.5752  -10.0375    0.0000 O   0  0  0  0  0  0  0  0  0  0  0  0
  1  2  2  0  0  0  0
  2  3  1  0  0  0  0
  3  4  2  0  0  0  0
  4  5  1  0  0  0  0
  5  6  2  0  0  0  0
  6  1  1  0  0  0  0
  6  7  1  0  0  0  0
  7  8  2  0  0  0  0
  3  9  1  0  0  0  0
 10  9  1  1  0  0  0
 10 11  1  0  0  0  0
 11 12  1  0  0  0  0
 12 13  1  0  0  0  0
 13 14  1  0  0  0  0
 14 15  1  0  0  0  0
 15 10  1  0  0  0  0
 12 16  1  1  0  0  0
 14 17  1  1  0  0  0
 13 18  1  6  0  0  0
 15 19  1  6  0  0  0
 16 20  1  0  0  0  0
M  END
>  <cdx:fragmentId>
5

$$$$
