92828.cdx
  Mrv1902 05222410202D          

  9  9  0  0  0  0            999 V2000
    9.2452   -4.9980    0.0000 C   0  0  0  0  0  0  0  0  0  0  0  0
    8.5828   -4.5063    0.0000 N   0  0  0  0  0  0  0  0  0  0  0  0
    7.9104   -4.9844    0.0000 C   0  0  0  0  0  0  0  0  0  0  0  0
    8.1574   -5.7716    0.0000 C   0  0  0  0  0  0  0  0  0  0  0  0
    8.9823   -5.7800    0.0000 N   0  0  0  0  0  0  0  0  0  0  0  0
    7.6657   -6.4341    0.0000 C   0  0  0  0  0  0  0  0  0  0  0  0
    6.8461   -6.3395    0.0000 C   0  0  0  0  0  0  0  0  0  0  0  0
    6.3544   -7.0020    0.0000 N   0  0  0  0  0  0  0  0  0  0  0  0
    7.1284   -4.7215    0.0000 F   0  0  0  0  0  0  0  0  0  0  0  0
  1  2  2  0  0  0  0
  2  3  1  0  0  0  0
  3  4  2  0  0  0  0
  4  5  1  0  0  0  0
  5  1  1  0  0  0  0
  4  6  1  0  0  0  0
  6  7  1  0  0  0  0
  7  8  1  0  0  0  0
  3  9  1  0  0  0  0
M  END
>  <cdx:fragmentId>
5

$$$$
