92827.cdx
  Mrv1902 05222410272D          

 40 45  0  0  0  0            999 V2000
    6.7609   -7.4800    0.0000 O   0  0  0  0  0  0  0  0  0  0  0  0
    8.1899   -5.0050    0.0000 O   0  0  0  0  0  0  0  0  0  0  0  0
    7.4754   -4.5925    0.0000 C   0  0  0  0  0  0  0  0  0  0  0  0
    8.1899   -5.8300    0.0000 C   0  0  0  0  0  0  0  0  0  0  0  0
    7.4754   -6.2425    0.0000 C   0  0  0  0  0  0  0  0  0  0  0  0
    7.4754   -7.0675    0.0000 C   0  0  0  0  0  0  0  0  0  0  0  0
    8.1899   -7.4800    0.0000 C   0  0  0  0  0  0  0  0  0  0  0  0
    8.9044   -6.2425    0.0000 C   0  0  0  0  0  0  0  0  0  0  0  0
    8.9044   -7.0675    0.0000 C   0  0  0  0  0  0  0  0  0  0  0  0
    9.6188   -7.4800    0.0000 C   0  0  0  0  0  0  0  0  0  0  0  0
   10.3333   -7.0675    0.0000 C   0  0  0  0  0  0  0  0  0  0  0  0
   10.3333   -4.5925    0.0000 C   0  0  0  0  0  0  0  0  0  0  0  0
    9.6188   -5.0050    0.0000 C   0  0  0  0  0  0  0  0  0  0  0  0
    9.6188   -5.8300    0.0000 C   0  0  0  0  0  0  0  0  0  0  0  0
   10.3333   -6.2425    0.0000 C   0  0  0  0  0  0  0  0  0  0  0  0
   11.7622   -4.5925    0.0000 O   0  0  0  0  0  0  0  0  0  0  0  0
   11.0478   -5.0050    0.0000 C   0  0  0  0  0  0  0  0  0  0  0  0
   11.0478   -5.8300    0.0000 C   0  0  0  0  0  0  0  0  0  0  0  0
    8.1899   -8.3050    0.0000 C   0  0  0  0  0  0  0  0  0  0  0  0
    8.9044   -8.7175    0.0000 C   0  0  0  0  0  0  0  0  0  0  0  0
    9.6188   -8.3050    0.0000 O   0  0  0  0  0  0  0  0  0  0  0  0
   11.7622   -6.2425    0.0000 O   0  0  0  0  0  0  0  0  0  0  0  0
   12.4767   -5.8300    0.0000 C   0  0  0  0  0  0  0  0  0  0  0  0
    7.4754   -8.7175    0.0000 C   0  0  0  0  0  0  0  0  0  0  0  0
    7.4754   -9.5425    0.0000 C   0  0  0  0  0  0  0  0  0  0  0  0
    8.1899   -9.9550    0.0000 C   0  0  0  0  0  0  0  0  0  0  0  0
    8.9044   -9.5425    0.0000 C   0  0  0  0  0  0  0  0  0  0  0  0
    6.7609   -8.3050    0.0000 C   0  0  0  0  0  0  0  0  0  0  0  0
    6.0465   -8.7175    0.0000 C   0  0  0  0  0  0  0  0  0  0  0  0
    6.0465   -9.5425    0.0000 C   0  0  0  0  0  0  0  0  0  0  0  0
    6.7609   -9.9550    0.0000 C   0  0  0  0  0  0  0  0  0  0  0  0
    8.1899  -10.7800    0.0000 O   0  0  0  0  0  0  0  0  0  0  0  0
    8.9044  -11.1925    0.0000 C   0  0  0  0  0  0  0  0  0  0  0  0
    5.3320   -9.9550    0.0000 C   0  0  0  0  0  0  0  0  0  0  0  0
    5.3320  -10.7800    0.0000 C   0  0  0  0  0  0  0  0  0  0  0  0
    6.0465  -11.1925    0.0000 C   0  0  0  0  0  0  0  0  0  0  0  0
    6.7609  -10.7800    0.0000 C   0  0  0  0  0  0  0  0  0  0  0  0
    4.6175   -9.5425    0.0000 O   0  0  0  0  0  0  0  0  0  0  0  0
    3.9031   -9.9550    0.0000 C   0  0  0  0  0  0  0  0  0  0  0  0
    4.6175  -11.1925    0.0000 O   0  0  0  0  0  0  0  0  0  0  0  0
  1  6  1  0  0  0  0
  2  4  1  0  0  0  0
  3  2  1  0  0  0  0
  4  8  1  0  0  0  0
  5  4  2  0  0  0  0
  6  5  1  0  0  0  0
  7  6  2  0  0  0  0
  9  7  1  0  0  0  0
  8 14  1  0  0  0  0
  9  8  2  0  0  0  0
 10  9  1  0  0  0  0
 11 10  2  0  0  0  0
 15 11  1  0  0  0  0
 12 17  2  0  0  0  0
 13 12  1  0  0  0  0
 14 13  2  0  0  0  0
 15 14  1  0  0  0  0
 18 15  2  0  0  0  0
 17 16  1  0  0  0  0
 18 17  1  0  0  0  0
 22 18  1  0  0  0  0
 23 22  1  0  0  0  0
  7 19  1  0  0  0  0
 19 20  1  0  0  0  0
 20 21  1  0  0  0  0
 19 24  2  0  0  0  0
 24 25  1  0  0  0  0
 25 26  2  0  0  0  0
 26 27  1  0  0  0  0
 27 20  2  0  0  0  0
 24 28  1  0  0  0  0
 28 29  2  0  0  0  0
 29 30  1  0  0  0  0
 30 31  2  0  0  0  0
 31 25  1  0  0  0  0
 26 32  1  0  0  0  0
 32 33  1  0  0  0  0
 30 34  1  0  0  0  0
 34 35  2  0  0  0  0
 35 36  1  0  0  0  0
 36 37  2  0  0  0  0
 37 31  1  0  0  0  0
 34 38  1  0  0  0  0
 38 39  1  0  0  0  0
 40 35  1  0  0  0  0
M  END
>  <cdx:fragmentId>
5

$$$$
