92839.cdx
  Mrv1902 05222410182D          

 15 16  0  0  0  0            999 V2000
    8.2893   -4.1525    0.0000 C   0  0  0  0  0  0  0  0  0  0  0  0
    8.2893   -4.9775    0.0000 C   0  0  0  0  0  0  0  0  0  0  0  0
    9.0038   -5.3900    0.0000 C   0  0  0  0  0  0  0  0  0  0  0  0
    9.7182   -4.9775    0.0000 C   0  0  0  0  0  0  0  0  0  0  0  0
    9.7182   -4.1525    0.0000 C   0  0  0  0  0  0  0  0  0  0  0  0
    9.0038   -3.7400    0.0000 C   0  0  0  0  0  0  0  0  0  0  0  0
    6.8604   -4.9775    0.0000 C   0  0  0  0  0  0  0  0  0  0  0  0
    7.5748   -5.3900    0.0000 C   0  0  0  0  0  0  0  0  0  0  0  0
    6.1459   -5.3900    0.0000 C   0  0  0  0  0  0  0  0  0  0  0  0
    6.1459   -6.2150    0.0000 C   0  0  0  0  0  0  0  0  0  0  0  0
    5.4314   -4.9775    0.0000 C   0  0  0  0  0  0  0  0  0  0  0  0
    7.4924   -4.3660    0.0000 C   0  0  0  0  0  0  0  0  0  0  0  0
    7.8768   -3.4380    0.0000 C   0  0  0  0  0  0  0  0  0  0  0  0
    8.5913   -6.1045    0.0000 O   0  0  0  0  0  0  0  0  0  0  0  0
    9.4163   -6.1045    0.0000 C   0  0  0  0  0  0  0  0  0  0  0  0
  1  2  1  0  0  0  0
  2  3  1  0  0  0  0
  3  4  1  0  0  0  0
  4  5  1  0  0  0  0
  5  6  1  0  0  0  0
  6  1  1  0  0  0  0
  7  8  2  0  0  0  0
  8  2  1  0  0  0  0
  7  9  1  0  0  0  0
  9 10  2  0  0  0  0
 11  9  1  0  0  0  0
  1 12  1  0  0  0  0
  1 13  1  0  0  0  0
  3 14  1  0  0  0  0
 14 15  1  0  0  0  0
 15  3  1  0  0  0  0
M  END
>  <cdx:fragmentId>
5

$$$$
