92836.cdx
  Mrv1902 05222410272D          

 39 43  0  0  0  0            999 V2000
    9.2294  -10.0363    0.0000 O   0  0  0  0  0  0  0  0  0  0  0  0
    9.2715   -7.8539    0.0000 C   0  0  0  0  0  0  0  0  0  0  0  0
    9.5265   -8.6386    0.0000 C   0  0  0  0  0  0  0  0  0  0  0  0
    8.9744   -9.2517    0.0000 C   0  0  0  0  0  0  0  0  0  0  0  0
    8.1675   -9.0801    0.0000 C   0  0  0  0  0  0  0  0  0  0  0  0
    7.9125   -8.2955    0.0000 C   0  0  0  0  0  0  0  0  0  0  0  0
    8.4646   -7.6824    0.0000 C   0  0  0  0  0  0  0  0  0  0  0  0
    6.6404   -6.8978    0.0000 C   0  0  0  0  0  0  0  0  0  0  0  0
    6.6404   -5.5629    0.0000 C   0  0  1  0  0  0  0  0  0  0  0  0
    6.1555   -6.2304    0.0000 O   0  0  0  0  0  0  0  0  0  0  0  0
    8.2096   -6.8978    0.0000 C   0  0  2  0  0  0  0  0  0  0  0  0
    7.4250   -6.6429    0.0000 C   0  0  2  0  0  0  0  0  0  0  0  0
    7.4250   -5.8179    0.0000 C   0  0  2  0  0  0  0  0  0  0  0  0
    8.2096   -5.5629    0.0000 C   0  0  1  0  0  0  0  0  0  0  0  0
    8.6945   -6.2304    0.0000 O   0  0  0  0  0  0  0  0  0  0  0  0
    5.6206   -2.4244    0.0000 O   0  0  0  0  0  0  0  0  0  0  0  0
    6.6825   -3.3806    0.0000 C   0  0  0  0  0  0  0  0  0  0  0  0
    6.9375   -4.1652    0.0000 C   0  0  0  0  0  0  0  0  0  0  0  0
    6.3854   -4.7783    0.0000 C   0  0  0  0  0  0  0  0  0  0  0  0
    5.5785   -4.6068    0.0000 C   0  0  0  0  0  0  0  0  0  0  0  0
    5.3235   -3.8221    0.0000 C   0  0  0  0  0  0  0  0  0  0  0  0
    5.8756   -3.2091    0.0000 C   0  0  0  0  0  0  0  0  0  0  0  0
    7.4250   -4.9929    0.0000 H   0  0  0  0  0  0  0  0  0  0  0  0
    7.4250   -7.4679    0.0000 H   0  0  0  0  0  0  0  0  0  0  0  0
    8.4646   -4.7783    0.0000 O   0  0  0  0  0  0  0  0  0  0  0  0
    6.1727   -1.8113    0.0000 C   0  0  0  0  0  0  0  0  0  0  0  0
    4.5166   -3.6506    0.0000 O   0  0  0  0  0  0  0  0  0  0  0  0
    3.9645   -4.2637    0.0000 C   0  0  0  0  0  0  0  0  0  0  0  0
    8.6773  -10.6494    0.0000 C   0  0  2  0  0  0  0  0  0  0  0  0
    7.8704  -10.4778    0.0000 O   0  0  0  0  0  0  0  0  0  0  0  0
    7.3183  -11.0909    0.0000 C   0  0  1  0  0  0  0  0  0  0  0  0
    7.5733  -11.8756    0.0000 C   0  0  2  0  0  0  0  0  0  0  0  0
    8.3803  -12.0471    0.0000 C   0  0  1  0  0  0  0  0  0  0  0  0
    8.9323  -11.4340    0.0000 C   0  0  1  0  0  0  0  0  0  0  0  0
    6.5114  -10.9194    0.0000 C   0  0  0  0  0  0  0  0  0  0  0  0
    8.6352  -12.8317    0.0000 O   0  0  0  0  0  0  0  0  0  0  0  0
    9.7393  -11.6055    0.0000 O   0  0  0  0  0  0  0  0  0  0  0  0
    7.0212  -12.4887    0.0000 O   0  0  0  0  0  0  0  0  0  0  0  0
    5.9593  -11.5325    0.0000 O   0  0  0  0  0  0  0  0  0  0  0  0
  9 19  1  6  0  0  0
 11  7  1  6  0  0  0
  4  1  1  0  0  0  0
  7  2  2  0  0  0  0
  3  2  1  0  0  0  0
  4  3  2  0  0  0  0
  5  4  1  0  0  0  0
  6  5  2  0  0  0  0
  7  6  1  0  0  0  0
  8 12  1  0  0  0  0
  9 13  1  0  0  0  0
 10  8  1  0  0  0  0
 10  9  1  0  0  0  0
 15 11  1  0  0  0  0
 12 11  1  0  0  0  0
 13 12  1  0  0  0  0
 14 13  1  0  0  0  0
 15 14  1  0  0  0  0
 22 16  1  0  0  0  0
 22 17  2  0  0  0  0
 18 17  1  0  0  0  0
 19 18  2  0  0  0  0
 20 19  1  0  0  0  0
 21 20  2  0  0  0  0
 22 21  1  0  0  0  0
 13 23  1  6  0  0  0
 12 24  1  6  0  0  0
 14 25  1  6  0  0  0
 16 26  1  0  0  0  0
 21 27  1  0  0  0  0
 27 28  1  0  0  0  0
 29  1  1  1  0  0  0
 29 30  1  0  0  0  0
 30 31  1  0  0  0  0
 31 32  1  0  0  0  0
 32 33  1  0  0  0  0
 33 34  1  0  0  0  0
 34 29  1  0  0  0  0
 31 35  1  1  0  0  0
 33 36  1  1  0  0  0
 34 37  1  6  0  0  0
 32 38  1  6  0  0  0
 35 39  1  0  0  0  0
M  END
>  <cdx:groupId>
3048

>  <cdx:fragmentId>
2996

$$$$
