92837.cdx
  Mrv1902 05222410272D          

 24 25  0  0  0  0            999 V2000
    8.0418   -5.8712    0.0000 C   0  0  2  0  0  0  0  0  0  0  0  0
    8.0418   -6.6962    0.0000 C   0  0  2  0  0  0  0  0  0  0  0  0
    8.7563   -7.1088    0.0000 C   0  0  1  0  0  0  0  0  0  0  0  0
    9.4707   -6.6962    0.0000 C   0  0  2  0  0  0  0  0  0  0  0  0
    9.4707   -5.8712    0.0000 C   0  0  1  0  0  0  0  0  0  0  0  0
    8.7563   -5.4588    0.0000 O   0  0  0  0  0  0  0  0  0  0  0  0
    7.3273   -5.4588    0.0000 C   0  0  0  0  0  0  0  0  0  0  0  0
   10.1852   -5.4587    0.0000 O   0  0  0  0  0  0  0  0  0  0  0  0
    8.7563   -7.9337    0.0000 O   0  0  0  0  0  0  0  0  0  0  0  0
    7.3273   -7.1088    0.0000 O   0  0  0  0  0  0  0  0  0  0  0  0
   10.1852   -7.1088    0.0000 O   0  0  0  0  0  0  0  0  0  0  0  0
    6.6129   -5.8712    0.0000 O   0  0  0  0  0  0  0  0  0  0  0  0
    7.3212   -7.9512    0.0000 C   0  0  0  0  0  0  0  0  0  0  0  0
    8.0338   -8.3669    0.0000 O   0  0  0  0  0  0  0  0  0  0  0  0
    6.6049   -8.3605    0.0000 C   0  0  0  0  0  0  0  0  0  0  0  0
    6.6011   -9.1855    0.0000 C   0  0  0  0  0  0  0  0  0  0  0  0
    5.8848   -9.5947    0.0000 C   0  0  0  0  0  0  0  0  0  0  0  0
    5.1722   -9.1790    0.0000 C   0  0  0  0  0  0  0  0  0  0  0  0
    4.4559   -9.5883    0.0000 C   0  0  0  0  0  0  0  0  0  0  0  0
    4.4522  -10.4133    0.0000 C   0  0  0  0  0  0  0  0  0  0  0  0
    5.1648  -10.8290    0.0000 C   0  0  0  0  0  0  0  0  0  0  0  0
    5.8811  -10.4197    0.0000 C   0  0  0  0  0  0  0  0  0  0  0  0
    3.7358  -10.8225    0.0000 O   0  0  0  0  0  0  0  0  0  0  0  0
    3.7433   -9.1726    0.0000 O   0  0  0  0  0  0  0  0  0  0  0  0
  1  2  1  0  0  0  0
  2  3  1  0  0  0  0
  3  4  1  0  0  0  0
  4  5  1  0  0  0  0
  5  6  1  0  0  0  0
  6  1  1  0  0  0  0
  1  7  1  1  0  0  0
  5  8  1  1  0  0  0
  3  9  1  1  0  0  0
  2 10  1  6  0  0  0
  4 11  1  6  0  0  0
  7 12  1  0  0  0  0
 13 14  2  0  0  0  0
 13 15  1  0  0  0  0
 15 16  2  0  0  0  0
 16 17  1  0  0  0  0
 17 18  2  0  0  0  0
 18 19  1  0  0  0  0
 19 20  2  0  0  0  0
 20 21  1  0  0  0  0
 21 22  2  0  0  0  0
 22 17  1  0  0  0  0
 20 23  1  0  0  0  0
 19 24  1  0  0  0  0
 13 10  1  0  0  0  0
M  END
>  <cdx:fragmentId>
5

$$$$
