92831.cdx
  Mrv1902 05222410262D          

 18 19  0  0  0  0            999 V2000
    6.0481   -7.9063    0.0000 C   0  0  0  0  0  0  0  0  0  0  0  0
    6.0481   -8.7313    0.0000 C   0  0  0  0  0  0  0  0  0  0  0  0
    6.7625   -9.1438    0.0000 C   0  0  0  0  0  0  0  0  0  0  0  0
    7.4770   -8.7313    0.0000 C   0  0  0  0  0  0  0  0  0  0  0  0
    7.4770   -7.9063    0.0000 C   0  0  0  0  0  0  0  0  0  0  0  0
    6.7625   -7.4937    0.0000 C   0  0  0  0  0  0  0  0  0  0  0  0
    6.7625   -6.6688    0.0000 C   0  0  0  0  0  0  0  0  0  0  0  0
    7.4770   -6.2563    0.0000 O   0  0  0  0  0  0  0  0  0  0  0  0
    7.4770   -5.4313    0.0000 C   0  0  0  0  0  0  0  0  0  0  0  0
    6.7625   -9.9688    0.0000 O   0  0  0  0  0  0  0  0  0  0  0  0
    8.1915   -9.1438    0.0000 C   0  0  0  0  0  0  0  0  0  0  0  0
    8.9059   -8.7313    0.0000 C   0  0  0  0  0  0  0  0  0  0  0  0
    9.6204   -9.1438    0.0000 C   0  0  0  0  0  0  0  0  0  0  0  0
   10.3349   -8.7313    0.0000 C   0  0  0  0  0  0  0  0  0  0  0  0
   10.3349   -7.9063    0.0000 C   0  0  0  0  0  0  0  0  0  0  0  0
    9.6204   -7.4937    0.0000 C   0  0  0  0  0  0  0  0  0  0  0  0
    8.9059   -7.9063    0.0000 C   0  0  0  0  0  0  0  0  0  0  0  0
   11.0494   -7.4937    0.0000 O   0  0  0  0  0  0  0  0  0  0  0  0
  1  2  2  0  0  0  0
  2  3  1  0  0  0  0
  3  4  2  0  0  0  0
  4  5  1  0  0  0  0
  5  6  2  0  0  0  0
  6  1  1  0  0  0  0
  6  7  1  0  0  0  0
  7  8  1  0  0  0  0
  8  9  1  0  0  0  0
  3 10  1  0  0  0  0
  4 11  1  0  0  0  0
 11 12  1  0  0  0  0
 12 13  2  0  0  0  0
 13 14  1  0  0  0  0
 14 15  2  0  0  0  0
 15 16  1  0  0  0  0
 16 17  2  0  0  0  0
 17 12  1  0  0  0  0
 15 18  1  0  0  0  0
M  END
>  <cdx:fragmentId>
5

$$$$
