92833.cdx
  Mrv1902 05222410272D          

 33 35  0  0  0  0            999 V2000
    8.2206   -8.3325    0.0000 C   0  0  0  0  0  0  0  0  0  0  0  0
    8.2206   -9.1575    0.0000 C   0  0  0  0  0  0  0  0  0  0  0  0
    8.9350   -9.5700    0.0000 C   0  0  0  0  0  0  0  0  0  0  0  0
    9.6495   -9.1575    0.0000 C   0  0  0  0  0  0  0  0  0  0  0  0
    9.6495   -8.3325    0.0000 C   0  0  0  0  0  0  0  0  0  0  0  0
    8.9350   -7.9200    0.0000 C   0  0  0  0  0  0  0  0  0  0  0  0
    8.9350   -7.0950    0.0000 C   0  0  0  0  0  0  0  0  0  0  0  0
    8.2206   -6.6825    0.0000 O   0  0  0  0  0  0  0  0  0  0  0  0
    9.6495   -6.6825    0.0000 C   0  0  0  0  0  0  0  0  0  0  0  0
    8.9350  -10.3950    0.0000 O   0  0  0  0  0  0  0  0  0  0  0  0
   10.3640   -9.5700    0.0000 O   0  0  0  0  0  0  0  0  0  0  0  0
   11.0784   -9.1575    0.0000 C   0  0  0  0  0  0  0  0  0  0  0  0
    7.5061   -9.5700    0.0000 O   0  0  0  0  0  0  0  0  0  0  0  0
    6.7916   -9.1575    0.0000 C   0  0  2  0  0  0  0  0  0  0  0  0
    6.7916   -8.3325    0.0000 O   0  0  0  0  0  0  0  0  0  0  0  0
    6.0771   -7.9200    0.0000 C   0  0  1  0  0  0  0  0  0  0  0  0
    5.3627   -8.3325    0.0000 C   0  0  2  0  0  0  0  0  0  0  0  0
    5.3627   -9.1575    0.0000 C   0  0  1  0  0  0  0  0  0  0  0  0
    6.0771   -9.5700    0.0000 C   0  0  1  0  0  0  0  0  0  0  0  0
    6.0771   -7.0950    0.0000 C   0  0  0  0  0  0  0  0  0  0  0  0
    4.6482   -9.5700    0.0000 O   0  0  0  0  0  0  0  0  0  0  0  0
    4.6482   -7.9200    0.0000 O   0  0  0  0  0  0  0  0  0  0  0  0
    6.0771  -10.3950    0.0000 O   0  0  0  0  0  0  0  0  0  0  0  0
    5.3627   -6.6825    0.0000 O   0  0  0  0  0  0  0  0  0  0  0  0
    5.3627   -5.8575    0.0000 C   0  0  1  0  0  0  0  0  0  0  0  0
    6.0301   -5.3726    0.0000 C   0  0  1  0  0  0  0  0  0  0  0  0
    5.7752   -4.5880    0.0000 C   0  0  1  0  0  0  0  0  0  0  0  0
    4.9502   -4.5880    0.0000 C   0  0  0  0  0  0  0  0  0  0  0  0
    4.6952   -5.3726    0.0000 O   0  0  0  0  0  0  0  0  0  0  0  0
    6.8147   -5.6275    0.0000 O   0  0  0  0  0  0  0  0  0  0  0  0
    6.2601   -3.9205    0.0000 O   0  0  0  0  0  0  0  0  0  0  0  0
    6.5721   -4.8015    0.0000 C   0  0  0  0  0  0  0  0  0  0  0  0
    7.1554   -4.2181    0.0000 O   0  0  0  0  0  0  0  0  0  0  0  0
  1  2  2  0  0  0  0
  2  3  1  0  0  0  0
  3  4  2  0  0  0  0
  4  5  1  0  0  0  0
  5  6  2  0  0  0  0
  6  1  1  0  0  0  0
  6  7  1  0  0  0  0
  7  8  2  0  0  0  0
  7  9  1  0  0  0  0
  3 10  1  0  0  0  0
  4 11  1  0  0  0  0
 11 12  1  0  0  0  0
  2 13  1  0  0  0  0
 14 13  1  1  0  0  0
 14 15  1  0  0  0  0
 15 16  1  0  0  0  0
 16 17  1  0  0  0  0
 17 18  1  0  0  0  0
 18 19  1  0  0  0  0
 19 14  1  0  0  0  0
 16 20  1  1  0  0  0
 18 21  1  1  0  0  0
 17 22  1  6  0  0  0
 19 23  1  6  0  0  0
 20 24  1  0  0  0  0
 25 24  1  6  0  0  0
 25 26  1  0  0  0  0
 26 27  1  0  0  0  0
 27 28  1  0  0  0  0
 28 29  1  0  0  0  0
 29 25  1  0  0  0  0
 26 30  1  1  0  0  0
 27 31  1  1  0  0  0
 27 32  1  0  0  0  0
 32 33  1  0  0  0  0
M  END
>  <cdx:fragmentId>
5

$$$$
