92838.cdx
  Mrv1902 05222410182D          

 44 48  0  0  0  0            999 V2000
    6.4474   -7.7079    0.0000 C   0  0  0  0  0  0  0  0  0  0  0  0
    6.4474   -8.5329    0.0000 C   0  0  0  0  0  0  0  0  0  0  0  0
    5.7330   -8.9454    0.0000 C   0  0  0  0  0  0  0  0  0  0  0  0
    5.7330   -9.7704    0.0000 O   0  0  0  0  0  0  0  0  0  0  0  0
    5.0185   -8.5329    0.0000 C   0  0  0  0  0  0  0  0  0  0  0  0
    4.3040   -8.9454    0.0000 C   0  0  0  0  0  0  0  0  0  0  0  0
    4.3040   -9.7704    0.0000 O   0  0  0  0  0  0  0  0  0  0  0  0
    3.5896   -8.5329    0.0000 C   0  0  0  0  0  0  0  0  0  0  0  0
    3.5896   -7.7079    0.0000 C   0  0  0  0  0  0  0  0  0  0  0  0
    2.8751   -7.2954    0.0000 O   0  0  0  0  0  0  0  0  0  0  0  0
    4.3040   -7.2954    0.0000 C   0  0  0  0  0  0  0  0  0  0  0  0
    5.0185   -7.7079    0.0000 C   0  0  0  0  0  0  0  0  0  0  0  0
    5.7330   -7.2954    0.0000 O   0  0  0  0  0  0  0  0  0  0  0  0
    7.1619   -7.2954    0.0000 C   0  0  0  0  0  0  0  0  0  0  0  0
    7.1619   -6.4704    0.0000 C   0  0  0  0  0  0  0  0  0  0  0  0
    7.8764   -6.0579    0.0000 C   0  0  0  0  0  0  0  0  0  0  0  0
    8.5909   -6.4704    0.0000 C   0  0  0  0  0  0  0  0  0  0  0  0
    9.3053   -6.0579    0.0000 O   0  0  0  0  0  0  0  0  0  0  0  0
    8.5909   -7.2954    0.0000 C   0  0  0  0  0  0  0  0  0  0  0  0
    7.8764   -7.7079    0.0000 C   0  0  0  0  0  0  0  0  0  0  0  0
    2.1606   -7.7079    0.0000 C   0  0  0  0  0  0  0  0  0  0  0  0
    4.3040   -6.4704    0.0000 C   0  0  2  0  0  0  0  0  0  0  0  0
    5.0185   -6.0579    0.0000 O   0  0  0  0  0  0  0  0  0  0  0  0
    5.0185   -5.2329    0.0000 C   0  0  1  0  0  0  0  0  0  0  0  0
    4.3040   -4.8204    0.0000 C   0  0  2  0  0  0  0  0  0  0  0  0
    3.5895   -5.2329    0.0000 C   0  0  1  0  0  0  0  0  0  0  0  0
    3.5895   -6.0579    0.0000 C   0  0  1  0  0  0  0  0  0  0  0  0
    5.7329   -4.8204    0.0000 C   0  0  0  0  0  0  0  0  0  0  0  0
    2.8750   -4.8204    0.0000 O   0  0  0  0  0  0  0  0  0  0  0  0
    4.3040   -3.9954    0.0000 O   0  0  0  0  0  0  0  0  0  0  0  0
    2.8750   -6.4704    0.0000 O   0  0  0  0  0  0  0  0  0  0  0  0
    5.7329   -3.9954    0.0000 O   0  0  0  0  0  0  0  0  0  0  0  0
    5.0185   -6.8829    0.0000 H   0  0  0  0  0  0  0  0  0  0  0  0
   10.0198   -6.4704    0.0000 C   0  0  2  0  0  0  0  0  0  0  0  0
   10.0198   -7.2954    0.0000 O   0  0  0  0  0  0  0  0  0  0  0  0
   10.7343   -7.7079    0.0000 C   0  0  1  0  0  0  0  0  0  0  0  0
   11.4488   -7.2954    0.0000 C   0  0  2  0  0  0  0  0  0  0  0  0
   11.4488   -6.4704    0.0000 C   0  0  1  0  0  0  0  0  0  0  0  0
   10.7343   -6.0579    0.0000 C   0  0  1  0  0  0  0  0  0  0  0  0
   10.7343   -8.5329    0.0000 C   0  0  0  0  0  0  0  0  0  0  0  0
   12.1632   -6.0579    0.0000 O   0  0  0  0  0  0  0  0  0  0  0  0
   10.7343   -5.2329    0.0000 O   0  0  0  0  0  0  0  0  0  0  0  0
   12.1632   -7.7079    0.0000 O   0  0  0  0  0  0  0  0  0  0  0  0
   11.4488   -8.9454    0.0000 O   0  0  0  0  0  0  0  0  0  0  0  0
  1  2  2  0  0  0  0
  2  3  1  0  0  0  0
  3  4  2  0  0  0  0
  3  5  1  0  0  0  0
  5  6  1  0  0  0  0
  6  7  1  0  0  0  0
  6  8  2  0  0  0  0
  8  9  1  0  0  0  0
  9 10  1  0  0  0  0
  9 11  2  0  0  0  0
 11 12  1  0  0  0  0
  5 12  2  0  0  0  0
 12 13  1  0  0  0  0
  1 13  1  0  0  0  0
  1 14  1  0  0  0  0
 14 15  1  0  0  0  0
 15 16  2  0  0  0  0
 16 17  1  0  0  0  0
 17 18  1  0  0  0  0
 17 19  2  0  0  0  0
 19 20  1  0  0  0  0
 14 20  2  0  0  0  0
 10 21  1  0  0  0  0
 11 22  1  0  0  0  0
 22 23  1  0  0  0  0
 23 24  1  0  0  0  0
 24 25  1  0  0  0  0
 25 26  1  0  0  0  0
 26 27  1  0  0  0  0
 27 22  1  0  0  0  0
 24 28  1  1  0  0  0
 26 29  1  1  0  0  0
 25 30  1  6  0  0  0
 27 31  1  6  0  0  0
 28 32  1  0  0  0  0
 22 33  1  6  0  0  0
 34 18  1  1  0  0  0
 34 35  1  0  0  0  0
 35 36  1  0  0  0  0
 36 37  1  0  0  0  0
 37 38  1  0  0  0  0
 38 39  1  0  0  0  0
 39 34  1  0  0  0  0
 36 40  1  1  0  0  0
 38 41  1  1  0  0  0
 39 42  1  6  0  0  0
 37 43  1  6  0  0  0
 40 44  1  0  0  0  0
M  END
>  <cdx:fragmentId>
3731

$$$$
