92840.cdx
  Mrv1902 05222410242D          

 17 18  0  0  0  0            999 V2000
    7.7806   -6.5587    0.0000 C   0  0  0  0  0  0  0  0  0  0  0  0
    7.7806   -7.3838    0.0000 C   0  0  0  0  0  0  0  0  0  0  0  0
    8.4950   -7.7963    0.0000 C   0  0  0  0  0  0  0  0  0  0  0  0
    9.2095   -7.3838    0.0000 C   0  0  0  0  0  0  0  0  0  0  0  0
    9.2095   -6.5587    0.0000 C   0  0  0  0  0  0  0  0  0  0  0  0
    8.4950   -6.1463    0.0000 C   0  0  0  0  0  0  0  0  0  0  0  0
    8.0825   -8.5107    0.0000 O   0  0  0  0  0  0  0  0  0  0  0  0
    8.9075   -8.5107    0.0000 C   0  0  0  0  0  0  0  0  0  0  0  0
    7.0661   -7.7963    0.0000 O   0  0  0  0  0  0  0  0  0  0  0  0
    6.9837   -6.7723    0.0000 C   0  0  0  0  0  0  0  0  0  0  0  0
    7.3681   -5.8443    0.0000 C   0  0  0  0  0  0  0  0  0  0  0  0
    8.0825   -5.4318    0.0000 C   0  0  0  0  0  0  0  0  0  0  0  0
    8.9075   -5.4318    0.0000 C   0  0  0  0  0  0  0  0  0  0  0  0
    6.5431   -5.8443    0.0000 C   0  0  0  0  0  0  0  0  0  0  0  0
    6.1306   -5.1298    0.0000 C   0  0  0  0  0  0  0  0  0  0  0  0
    5.3056   -5.1298    0.0000 C   0  0  0  0  0  0  0  0  0  0  0  0
    6.5431   -4.4153    0.0000 O   0  0  0  0  0  0  0  0  0  0  0  0
  1  2  1  0  0  0  0
  2  3  1  0  0  0  0
  3  4  1  0  0  0  0
  4  5  1  0  0  0  0
  5  6  1  0  0  0  0
  6  1  1  0  0  0  0
  3  7  1  0  0  0  0
  7  8  1  0  0  0  0
  8  3  1  0  0  0  0
  2  9  2  0  0  0  0
  1 10  1  0  0  0  0
  1 11  1  0  0  0  0
  6 12  1  0  0  0  0
  6 13  1  0  0  0  0
 11 14  2  0  0  0  0
 14 15  1  0  0  0  0
 15 16  1  0  0  0  0
 15 17  2  0  0  0  0
M  END
>  <cdx:fragmentId>
5

$$$$
