92842.cdx
  Mrv1902 05222410262D          

 26 28  0  0  0  0            999 V2000
    4.3018   -5.7062    0.0000 C   0  0  0  0  0  0  0  0  0  0  0  0
    4.3018   -6.5313    0.0000 C   0  0  0  0  0  0  0  0  0  0  0  0
    5.0163   -6.9438    0.0000 C   0  0  0  0  0  0  0  0  0  0  0  0
    5.7307   -6.5313    0.0000 C   0  0  0  0  0  0  0  0  0  0  0  0
    5.7307   -5.7062    0.0000 C   0  0  0  0  0  0  0  0  0  0  0  0
    5.0163   -5.2938    0.0000 C   0  0  0  0  0  0  0  0  0  0  0  0
    6.4452   -6.9438    0.0000 C   0  0  0  0  0  0  0  0  0  0  0  0
    7.1597   -6.5313    0.0000 C   0  0  0  0  0  0  0  0  0  0  0  0
    7.1597   -5.7062    0.0000 C   0  0  0  0  0  0  0  0  0  0  0  0
    6.4452   -5.2938    0.0000 O   0  0  0  0  0  0  0  0  0  0  0  0
    8.5886   -5.7062    0.0000 C   0  0  0  0  0  0  0  0  0  0  0  0
    7.8742   -5.2938    0.0000 C   0  0  0  0  0  0  0  0  0  0  0  0
    9.3031   -5.2938    0.0000 C   0  0  0  0  0  0  0  0  0  0  0  0
    9.3031   -4.4688    0.0000 C   0  0  0  0  0  0  0  0  0  0  0  0
    8.5886   -4.0563    0.0000 C   0  0  0  0  0  0  0  0  0  0  0  0
    7.8742   -4.4688    0.0000 C   0  0  0  0  0  0  0  0  0  0  0  0
    3.5873   -5.2938    0.0000 O   0  0  0  0  0  0  0  0  0  0  0  0
    2.8729   -5.7062    0.0000 C   0  0  0  0  0  0  0  0  0  0  0  0
    3.5873   -6.9437    0.0000 O   0  0  0  0  0  0  0  0  0  0  0  0
    5.0163   -4.4688    0.0000 O   0  0  0  0  0  0  0  0  0  0  0  0
    4.3018   -4.0563    0.0000 C   0  0  0  0  0  0  0  0  0  0  0  0
    5.0163   -7.7687    0.0000 O   0  0  0  0  0  0  0  0  0  0  0  0
    6.4452   -7.7687    0.0000 O   0  0  0  0  0  0  0  0  0  0  0  0
   10.7320   -4.4688    0.0000 C   0  0  0  0  0  0  0  0  0  0  0  0
   10.0176   -4.0563    0.0000 O   0  0  0  0  0  0  0  0  0  0  0  0
    3.5873   -7.7687    0.0000 C   0  0  0  0  0  0  0  0  0  0  0  0
  1  2  2  0  0  0  0
  2  3  1  0  0  0  0
  3  4  2  0  0  0  0
  4  5  1  0  0  0  0
  5  6  2  0  0  0  0
  6  1  1  0  0  0  0
  4  7  1  0  0  0  0
  7  8  1  0  0  0  0
  8  9  2  0  0  0  0
  9 10  1  0  0  0  0
 10  5  1  0  0  0  0
 11 12  2  0  0  0  0
 12  9  1  0  0  0  0
 11 13  1  0  0  0  0
 13 14  2  0  0  0  0
 14 15  1  0  0  0  0
 15 16  2  0  0  0  0
 16 12  1  0  0  0  0
  1 17  1  0  0  0  0
 17 18  1  0  0  0  0
 19  2  1  0  0  0  0
  6 20  1  0  0  0  0
 20 21  1  0  0  0  0
  3 22  1  0  0  0  0
 23  7  2  0  0  0  0
 24 25  1  0  0  0  0
 25 14  1  0  0  0  0
 19 26  1  0  0  0  0
M  END
>  <cdx:fragmentId>
5

$$$$
