92846.cdx
  Mrv1902 05222410232D          

 15 15  0  0  0  0            999 V2000
    7.4056   -6.4763    0.0000 C   0  0  0  0  0  0  0  0  0  0  0  0
    6.6911   -6.8888    0.0000 C   0  0  0  0  0  0  0  0  0  0  0  0
    5.9767   -6.4763    0.0000 C   0  0  0  0  0  0  0  0  0  0  0  0
    5.2622   -6.8888    0.0000 C   0  0  0  0  0  0  0  0  0  0  0  0
    4.5477   -6.4763    0.0000 C   0  0  0  0  0  0  0  0  0  0  0  0
    3.8332   -6.8888    0.0000 C   0  0  0  0  0  0  0  0  0  0  0  0
    3.1188   -6.4763    0.0000 C   0  0  0  0  0  0  0  0  0  0  0  0
    3.8332   -7.7138    0.0000 C   0  0  0  0  0  0  0  0  0  0  0  0
    6.6911   -7.7138    0.0000 C   0  0  0  0  0  0  0  0  0  0  0  0
    8.1201   -6.8888    0.0000 C   0  0  0  0  0  0  0  0  0  0  0  0
    8.8345   -6.4763    0.0000 C   0  0  0  0  0  0  0  0  0  0  0  0
    8.8345   -5.6512    0.0000 C   0  0  0  0  0  0  0  0  0  0  0  0
    8.1201   -5.2387    0.0000 C   0  0  0  0  0  0  0  0  0  0  0  0
    7.4056   -5.6512    0.0000 C   0  0  0  0  0  0  0  0  0  0  0  0
    9.5490   -5.2387    0.0000 C   0  0  0  0  0  0  0  0  0  0  0  0
  2  1  1  0  0  0  0
  3  2  1  0  0  0  0
  4  3  1  0  0  0  0
  5  4  1  0  0  0  0
  6  5  2  0  0  0  0
  7  6  1  0  0  0  0
  6  8  1  0  0  0  0
  2  9  2  0  0  0  0
  1 10  1  0  0  0  0
 10 11  1  0  0  0  0
 11 12  1  0  0  0  0
 12 13  2  0  0  0  0
 13 14  1  0  0  0  0
 14  1  1  0  0  0  0
 12 15  1  0  0  0  0
M  END
>  <cdx:fragmentId>
3

$$$$
