92848.cdx
  Mrv1902 05222410222D          

 43 47  0  0  0  0            999 V2000
    4.7333   -9.3500    0.0000 C   0  0  0  0  0  0  0  0  0  0  0  0
    4.7333  -10.1750    0.0000 C   0  0  0  0  0  0  0  0  0  0  0  0
    5.4477  -10.5875    0.0000 C   0  0  0  0  0  0  0  0  0  0  0  0
    6.1622  -10.1750    0.0000 C   0  0  0  0  0  0  0  0  0  0  0  0
    6.1622   -9.3500    0.0000 C   0  0  0  0  0  0  0  0  0  0  0  0
    5.4477   -8.9375    0.0000 C   0  0  0  0  0  0  0  0  0  0  0  0
    6.8767  -10.5875    0.0000 C   0  0  0  0  0  0  0  0  0  0  0  0
    7.5912  -10.1750    0.0000 C   0  0  0  0  0  0  0  0  0  0  0  0
    7.5912   -9.3500    0.0000 C   0  0  0  0  0  0  0  0  0  0  0  0
    6.8767   -8.9375    0.0000 O   0  0  0  0  0  0  0  0  0  0  0  0
    8.3056   -8.9375    0.0000 C   0  0  0  0  0  0  0  0  0  0  0  0
    8.3056   -8.1125    0.0000 C   0  0  0  0  0  0  0  0  0  0  0  0
    9.0201   -9.3500    0.0000 C   0  0  0  0  0  0  0  0  0  0  0  0
    9.7346   -8.9375    0.0000 C   0  0  0  0  0  0  0  0  0  0  0  0
    9.7346   -8.1125    0.0000 C   0  0  0  0  0  0  0  0  0  0  0  0
    9.0201   -7.7000    0.0000 C   0  0  0  0  0  0  0  0  0  0  0  0
    4.0188   -8.9375    0.0000 O   0  0  0  0  0  0  0  0  0  0  0  0
    5.4477  -11.4125    0.0000 O   0  0  0  0  0  0  0  0  0  0  0  0
    6.8767  -11.4125    0.0000 O   0  0  0  0  0  0  0  0  0  0  0  0
   10.4490   -7.7000    0.0000 O   0  0  0  0  0  0  0  0  0  0  0  0
    5.4477   -8.1125    0.0000 C   0  0  2  0  0  0  0  0  0  0  0  0
    6.1622   -7.7000    0.0000 O   0  0  0  0  0  0  0  0  0  0  0  0
    6.1622   -6.8750    0.0000 C   0  0  1  0  0  0  0  0  0  0  0  0
    5.4477   -6.4625    0.0000 C   0  0  2  0  0  0  0  0  0  0  0  0
    4.7333   -6.8750    0.0000 C   0  0  1  0  0  0  0  0  0  0  0  0
    4.7333   -7.7000    0.0000 C   0  0  1  0  0  0  0  0  0  0  0  0
    4.0188   -6.4625    0.0000 O   0  0  0  0  0  0  0  0  0  0  0  0
    6.8767   -6.4625    0.0000 C   0  0  0  0  0  0  0  0  0  0  0  0
    6.8767   -5.6375    0.0000 O   0  0  0  0  0  0  0  0  0  0  0  0
    4.0188   -8.1125    0.0000 O   0  0  0  0  0  0  0  0  0  0  0  0
    5.4477   -5.6375    0.0000 O   0  0  0  0  0  0  0  0  0  0  0  0
    6.1622   -8.5250    0.0000 H   0  0  0  0  0  0  0  0  0  0  0  0
    7.5912   -5.2250    0.0000 C   0  0  2  0  0  0  0  0  0  0  0  0
    8.3056   -5.6375    0.0000 O   0  0  0  0  0  0  0  0  0  0  0  0
    9.0201   -5.2250    0.0000 C   0  0  1  0  0  0  0  0  0  0  0  0
    9.0201   -4.4000    0.0000 C   0  0  2  0  0  0  0  0  0  0  0  0
    8.3056   -3.9875    0.0000 C   0  0  1  0  0  0  0  0  0  0  0  0
    7.5912   -4.4000    0.0000 C   0  0  1  0  0  0  0  0  0  0  0  0
    9.7346   -5.6375    0.0000 C   0  0  0  0  0  0  0  0  0  0  0  0
    8.3056   -3.1625    0.0000 O   0  0  0  0  0  0  0  0  0  0  0  0
    9.7346   -3.9875    0.0000 O   0  0  0  0  0  0  0  0  0  0  0  0
    6.8767   -3.9875    0.0000 O   0  0  0  0  0  0  0  0  0  0  0  0
   10.4490   -5.2250    0.0000 O   0  0  0  0  0  0  0  0  0  0  0  0
  1  2  1  0  0  0  0
  2  3  2  0  0  0  0
  3  4  1  0  0  0  0
  4  5  2  0  0  0  0
  5  6  1  0  0  0  0
  6  1  2  0  0  0  0
  4  7  1  0  0  0  0
  7  8  1  0  0  0  0
  8  9  2  0  0  0  0
  9 10  1  0  0  0  0
 10  5  1  0  0  0  0
  9 11  1  0  0  0  0
 11 12  1  0  0  0  0
 11 13  2  0  0  0  0
 13 14  1  0  0  0  0
 14 15  2  0  0  0  0
 15 16  1  0  0  0  0
 16 12  2  0  0  0  0
  1 17  1  0  0  0  0
  3 18  1  0  0  0  0
  7 19  2  0  0  0  0
 15 20  1  0  0  0  0
  6 21  1  0  0  0  0
 21 22  1  0  0  0  0
 22 23  1  0  0  0  0
 23 24  1  0  0  0  0
 24 25  1  0  0  0  0
 25 26  1  0  0  0  0
 26 21  1  0  0  0  0
 25 27  1  1  0  0  0
 23 28  1  1  0  0  0
 28 29  1  0  0  0  0
 26 30  1  6  0  0  0
 24 31  1  6  0  0  0
 21 32  1  6  0  0  0
 33 29  1  1  0  0  0
 33 34  1  0  0  0  0
 34 35  1  0  0  0  0
 35 36  1  0  0  0  0
 36 37  1  0  0  0  0
 37 38  1  0  0  0  0
 38 33  1  0  0  0  0
 35 39  1  1  0  0  0
 37 40  1  1  0  0  0
 36 41  1  6  0  0  0
 38 42  1  6  0  0  0
 39 43  1  0  0  0  0
M  END
>  <cdx:fragmentId>
5

$$$$
