92847.cdx
  Mrv1902 05222410242D          

 22 24  0  0  0  0            999 V2000
    9.0969   -9.5150    0.0000 O   0  0  0  0  0  0  0  0  0  0  0  0
    9.8113   -8.2775    0.0000 O   0  0  0  0  0  0  0  0  0  0  0  0
    9.0969   -8.6900    0.0000 C   0  0  0  0  0  0  0  0  0  0  0  0
    6.2390   -9.5150    0.0000 O   0  0  0  0  0  0  0  0  0  0  0  0
    7.6679   -6.2150    0.0000 O   0  0  0  0  0  0  0  0  0  0  0  0
    6.2390   -6.2150    0.0000 O   0  0  0  0  0  0  0  0  0  0  0  0
    4.8100   -6.2150    0.0000 O   0  0  0  0  0  0  0  0  0  0  0  0
    7.6679   -7.0400    0.0000 C   0  0  0  0  0  0  0  0  0  0  0  0
    8.3824   -7.4525    0.0000 C   0  0  0  0  0  0  0  0  0  0  0  0
    8.3824   -8.2775    0.0000 C   0  0  0  0  0  0  0  0  0  0  0  0
    7.6679   -8.6900    0.0000 C   0  0  0  0  0  0  0  0  0  0  0  0
    6.2390   -7.0400    0.0000 C   0  0  0  0  0  0  0  0  0  0  0  0
    6.9534   -7.4525    0.0000 C   0  0  0  0  0  0  0  0  0  0  0  0
    6.9534   -8.2775    0.0000 C   0  0  0  0  0  0  0  0  0  0  0  0
    6.2390   -8.6900    0.0000 C   0  0  0  0  0  0  0  0  0  0  0  0
    4.8100   -7.0400    0.0000 C   0  0  0  0  0  0  0  0  0  0  0  0
    5.5245   -7.4525    0.0000 C   0  0  0  0  0  0  0  0  0  0  0  0
    5.5245   -8.2775    0.0000 C   0  0  0  0  0  0  0  0  0  0  0  0
    4.8100   -8.6900    0.0000 C   0  0  0  0  0  0  0  0  0  0  0  0
    4.0956   -8.2775    0.0000 C   0  0  0  0  0  0  0  0  0  0  0  0
    4.0956   -7.4525    0.0000 C   0  0  0  0  0  0  0  0  0  0  0  0
    3.3811   -8.6900    0.0000 C   0  0  0  0  0  0  0  0  0  0  0  0
  3  1  2  0  0  0  0
  3  2  1  0  0  0  0
 10  3  1  0  0  0  0
 15  4  2  0  0  0  0
  8  5  1  0  0  0  0
 12  6  2  0  0  0  0
 16  7  1  0  0  0  0
  8 13  1  0  0  0  0
  9  8  2  0  0  0  0
 10  9  1  0  0  0  0
 11 10  2  0  0  0  0
 14 11  1  0  0  0  0
 12 17  1  0  0  0  0
 13 12  1  0  0  0  0
 14 13  2  0  0  0  0
 15 14  1  0  0  0  0
 18 15  1  0  0  0  0
 16 21  1  0  0  0  0
 17 16  2  0  0  0  0
 18 17  1  0  0  0  0
 19 18  2  0  0  0  0
 20 19  1  0  0  0  0
 21 20  2  0  0  0  0
 20 22  1  0  0  0  0
M  END
>  <cdx:fragmentId>
5

$$$$
