92857.cdx
  Mrv1902 05222410252D          

 38 41  0  0  0  0            999 V2000
    4.0406   -6.2012    0.0000 C   0  0  0  0  0  0  0  0  0  0  0  0
    4.0406   -7.0263    0.0000 O   0  0  0  0  0  0  0  0  0  0  0  0
    4.7550   -7.4387    0.0000 C   0  0  2  0  0  0  0  0  0  0  0  0
    5.4695   -7.0263    0.0000 C   0  0  1  0  0  0  0  0  0  0  0  0
    5.4695   -6.2012    0.0000 C   0  0  1  0  0  0  0  0  0  0  0  0
    4.7550   -5.7888    0.0000 C   0  0  0  0  0  0  0  0  0  0  0  0
    3.3261   -8.2637    0.0000 O   0  0  0  0  0  0  0  0  0  0  0  0
    4.0406   -8.6762    0.0000 C   0  0  1  0  0  0  0  0  0  0  0  0
    4.7550   -8.2637    0.0000 O   0  0  0  0  0  0  0  0  0  0  0  0
    2.6116   -8.6762    0.0000 C   0  0  1  0  0  0  0  0  0  0  0  0
    2.6116   -9.5013    0.0000 C   0  0  2  0  0  0  0  0  0  0  0  0
    3.3261   -9.9138    0.0000 C   0  0  1  0  0  0  0  0  0  0  0  0
    4.0406   -9.5013    0.0000 C   0  0  1  0  0  0  0  0  0  0  0  0
    1.8971   -8.2637    0.0000 C   0  0  0  0  0  0  0  0  0  0  0  0
    1.1827   -8.6762    0.0000 O   0  0  0  0  0  0  0  0  0  0  0  0
    1.8971   -9.9137    0.0000 O   0  0  0  0  0  0  0  0  0  0  0  0
    6.2541   -7.2812    0.0000 C   0  0  1  0  0  0  0  0  0  0  0  0
    6.7390   -6.6137    0.0000 C   0  0  0  0  0  0  0  0  0  0  0  0
    6.2541   -5.9463    0.0000 C   0  0  1  0  0  0  0  0  0  0  0  0
    6.2541   -8.1062    0.0000 C   0  0  0  0  0  0  0  0  0  0  0  0
    6.9686   -7.6937    0.0000 O   0  0  0  0  0  0  0  0  0  0  0  0
    7.6831   -7.2812    0.0000 C   0  0  0  0  0  0  0  0  0  0  0  0
    8.3975   -7.6937    0.0000 C   0  0  0  0  0  0  0  0  0  0  0  0
    7.6831   -6.4562    0.0000 O   0  0  0  0  0  0  0  0  0  0  0  0
    9.1120   -7.2812    0.0000 C   0  0  0  0  0  0  0  0  0  0  0  0
    9.8265   -7.6937    0.0000 C   0  0  0  0  0  0  0  0  0  0  0  0
    9.8265   -8.5187    0.0000 C   0  0  0  0  0  0  0  0  0  0  0  0
   10.5409   -8.9312    0.0000 C   0  0  0  0  0  0  0  0  0  0  0  0
   11.2554   -8.5187    0.0000 C   0  0  0  0  0  0  0  0  0  0  0  0
   11.2554   -7.6937    0.0000 C   0  0  0  0  0  0  0  0  0  0  0  0
   10.5409   -7.2812    0.0000 C   0  0  0  0  0  0  0  0  0  0  0  0
   11.9699   -8.9312    0.0000 O   0  0  0  0  0  0  0  0  0  0  0  0
    3.3261  -10.7387    0.0000 O   0  0  0  0  0  0  0  0  0  0  0  0
    4.7550   -9.9138    0.0000 O   0  0  0  0  0  0  0  0  0  0  0  0
    5.5557   -5.3808    0.0000 O   0  0  0  0  0  0  0  0  0  0  0  0
    6.5091   -5.1617    0.0000 O   0  0  0  0  0  0  0  0  0  0  0  0
    5.4695   -7.8513    0.0000 H   0  0  0  0  0  0  0  0  0  0  0  0
   12.6844   -8.5187    0.0000 C   0  0  0  0  0  0  0  0  0  0  0  0
  1  2  1  0  0  0  0
  2  3  1  0  0  0  0
  3  4  1  0  0  0  0
  4  5  1  0  0  0  0
  5  6  1  0  0  0  0
  6  1  2  0  0  0  0
  7  8  1  0  0  0  0
  8  9  1  1  0  0  0
  3  9  1  6  0  0  0
  7 10  1  0  0  0  0
 10 11  1  0  0  0  0
 11 12  1  0  0  0  0
 12 13  1  0  0  0  0
 13  8  1  0  0  0  0
 10 14  1  1  0  0  0
 14 15  1  0  0  0  0
 11 16  1  6  0  0  0
  4 17  1  0  0  0  0
 17 18  1  0  0  0  0
 18 19  1  0  0  0  0
 19  5  1  0  0  0  0
 17 20  1  0  0  0  0
 17 21  1  6  0  0  0
 21 22  1  0  0  0  0
 22 23  1  0  0  0  0
 22 24  2  0  0  0  0
 23 25  2  0  0  0  0
 25 26  1  0  0  0  0
 26 27  2  0  0  0  0
 27 28  1  0  0  0  0
 28 29  2  0  0  0  0
 29 30  1  0  0  0  0
 30 31  2  0  0  0  0
 31 26  1  0  0  0  0
 29 32  1  0  0  0  0
 12 33  1  1  0  0  0
 13 34  1  6  0  0  0
  5 35  1  6  0  0  0
 19 36  1  6  0  0  0
  4 37  1  6  0  0  0
 32 38  1  0  0  0  0
M  END
>  <cdx:fragmentId>
46

$$$$
