92853.cdx
  Mrv1902 05222410242D          

 29 32  0  0  0  0            999 V2000
   10.6372   -8.4409    0.0000 C   0  0  0  0  0  0  0  0  0  0  0  0
   10.6424   -7.6160    0.0000 C   0  0  0  0  0  0  0  0  0  0  0  0
    9.9306   -7.1989    0.0000 C   0  0  0  0  0  0  0  0  0  0  0  0
    9.2135   -7.6069    0.0000 C   0  0  0  0  0  0  0  0  0  0  0  0
    9.2083   -8.4319    0.0000 C   0  0  0  0  0  0  0  0  0  0  0  0
    9.9201   -8.8489    0.0000 C   0  0  0  0  0  0  0  0  0  0  0  0
    8.4912   -8.8398    0.0000 C   0  0  0  0  0  0  0  0  0  0  0  0
    8.4859   -9.6648    0.0000 C   0  0  0  0  0  0  0  0  0  0  0  0
    9.1978  -10.0818    0.0000 C   0  0  0  0  0  0  0  0  0  0  0  0
    9.9149   -9.6739    0.0000 C   0  0  0  0  0  0  0  0  0  0  0  0
    7.7793   -8.4228    0.0000 C   0  0  0  0  0  0  0  0  0  0  0  0
    7.0623   -8.8308    0.0000 C   0  0  0  0  0  0  0  0  0  0  0  0
    7.0570   -9.6557    0.0000 C   0  0  0  0  0  0  0  0  0  0  0  0
    7.7689  -10.0728    0.0000 C   0  0  0  0  0  0  0  0  0  0  0  0
   11.3595   -7.2080    0.0000 O   0  0  0  0  0  0  0  0  0  0  0  0
    7.7846   -7.5978    0.0000 O   0  0  0  0  0  0  0  0  0  0  0  0
    7.0727   -7.1808    0.0000 C   0  0  0  0  0  0  0  0  0  0  0  0
    6.3400  -10.0637    0.0000 O   0  0  0  0  0  0  0  0  0  0  0  0
    5.6239   -9.6539    0.0000 C   0  0  2  0  0  0  0  0  0  0  0  0
    5.6208   -8.8289    0.0000 O   0  0  0  0  0  0  0  0  0  0  0  0
    4.9048   -8.4191    0.0000 C   0  0  1  0  0  0  0  0  0  0  0  0
    4.1919   -8.8343    0.0000 C   0  0  2  0  0  0  0  0  0  0  0  0
    4.1950   -9.6593    0.0000 C   0  0  1  0  0  0  0  0  0  0  0  0
    4.9110  -10.0691    0.0000 C   0  0  1  0  0  0  0  0  0  0  0  0
    4.9016   -7.5941    0.0000 C   0  0  0  0  0  0  0  0  0  0  0  0
    3.4821  -10.0745    0.0000 O   0  0  0  0  0  0  0  0  0  0  0  0
    4.9142  -10.8941    0.0000 O   0  0  0  0  0  0  0  0  0  0  0  0
    3.4758   -8.4245    0.0000 O   0  0  0  0  0  0  0  0  0  0  0  0
    4.1856   -7.1843    0.0000 O   0  0  0  0  0  0  0  0  0  0  0  0
  1  2  2  0  0  0  0
  2  3  1  0  0  0  0
  3  4  2  0  0  0  0
  4  5  1  0  0  0  0
  5  6  2  0  0  0  0
  6  1  1  0  0  0  0
  5  7  1  0  0  0  0
  7  8  2  0  0  0  0
  8  9  1  0  0  0  0
  9 10  2  0  0  0  0
 10  6  1  0  0  0  0
  7 11  1  0  0  0  0
 11 12  2  0  0  0  0
 12 13  1  0  0  0  0
 13 14  2  0  0  0  0
 14  8  1  0  0  0  0
  2 15  1  0  0  0  0
 11 16  1  0  0  0  0
 16 17  1  0  0  0  0
 13 18  1  0  0  0  0
 19 18  1  1  0  0  0
 19 20  1  0  0  0  0
 20 21  1  0  0  0  0
 21 22  1  0  0  0  0
 22 23  1  0  0  0  0
 23 24  1  0  0  0  0
 24 19  1  0  0  0  0
 21 25  1  1  0  0  0
 23 26  1  1  0  0  0
 24 27  1  6  0  0  0
 22 28  1  6  0  0  0
 25 29  1  0  0  0  0
M  END
>  <cdx:fragmentId>
5

$$$$
