92852.cdx
  Mrv1902 05222410232D          

 44 48  0  0  0  0            999 V2000
   12.6900   -7.2699    0.0000 C   0  0  0  0  0  0  0  0  0  0  0  0
    5.5379   -8.0284    0.0000 O   0  0  0  0  0  0  0  0  0  0  0  0
    4.8274   -8.4477    0.0000 C   0  0  2  0  0  0  0  0  0  0  0  0
    4.1090   -8.0421    0.0000 O   0  0  0  0  0  0  0  0  0  0  0  0
    3.3985   -8.4614    0.0000 C   0  0  1  0  0  0  0  0  0  0  0  0
    3.4064   -9.2863    0.0000 C   0  0  2  0  0  0  0  0  0  0  0  0
    4.1248   -9.6920    0.0000 C   0  0  1  0  0  0  0  0  0  0  0  0
    4.8353   -9.2727    0.0000 C   0  0  1  0  0  0  0  0  0  0  0  0
    2.6802   -8.0557    0.0000 C   0  0  0  0  0  0  0  0  0  0  0  0
    4.1326  -10.5170    0.0000 O   0  0  0  0  0  0  0  0  0  0  0  0
    5.5536   -9.6784    0.0000 O   0  0  0  0  0  0  0  0  0  0  0  0
    2.6959   -9.7056    0.0000 O   0  0  0  0  0  0  0  0  0  0  0  0
    1.9697   -8.4750    0.0000 O   0  0  0  0  0  0  0  0  0  0  0  0
    5.5609   -5.5536    0.0000 O   0  0  0  0  0  0  0  0  0  0  0  0
   11.9794   -6.8508    0.0000 O   0  0  0  0  0  0  0  0  0  0  0  0
    8.3727  -10.5299    0.0000 O   0  0  0  0  0  0  0  0  0  0  0  0
    6.9438  -10.5166    0.0000 O   0  0  0  0  0  0  0  0  0  0  0  0
    8.4187   -5.5801    0.0000 C   0  0  0  0  0  0  0  0  0  0  0  0
    8.4264   -4.7552    0.0000 O   0  0  0  0  0  0  0  0  0  0  0  0
    6.9975   -4.7419    0.0000 O   0  0  0  0  0  0  0  0  0  0  0  0
    7.6927   -6.8109    0.0000 O   0  0  0  0  0  0  0  0  0  0  0  0
    7.7004   -5.9860    0.0000 C   0  0  1  0  0  0  0  0  0  0  0  0
    6.9898   -5.5668    0.0000 C   0  0  2  0  0  0  0  0  0  0  0  0
    6.2715   -5.9727    0.0000 C   0  0  1  0  0  0  0  0  0  0  0  0
    6.9745   -7.2168    0.0000 C   0  0  2  0  0  0  0  0  0  0  0  0
    6.2639   -6.7976    0.0000 C   0  0  2  0  0  0  0  0  0  0  0  0
    5.5456   -7.2035    0.0000 O   0  0  0  0  0  0  0  0  0  0  0  0
   11.2534   -8.0816    0.0000 C   0  0  0  0  0  0  0  0  0  0  0  0
   11.2611   -7.2567    0.0000 C   0  0  0  0  0  0  0  0  0  0  0  0
   10.5505   -6.8375    0.0000 C   0  0  0  0  0  0  0  0  0  0  0  0
    9.8322   -7.2434    0.0000 C   0  0  0  0  0  0  0  0  0  0  0  0
   10.5352   -8.4875    0.0000 C   0  0  0  0  0  0  0  0  0  0  0  0
    9.8246   -8.0683    0.0000 C   0  0  0  0  0  0  0  0  0  0  0  0
    8.3803   -9.7050    0.0000 C   0  0  0  0  0  0  0  0  0  0  0  0
    9.0986   -9.2991    0.0000 C   0  0  0  0  0  0  0  0  0  0  0  0
    9.1063   -8.4742    0.0000 C   0  0  0  0  0  0  0  0  0  0  0  0
    8.3957   -8.0550    0.0000 O   0  0  0  0  0  0  0  0  0  0  0  0
    6.9514   -9.6917    0.0000 C   0  0  0  0  0  0  0  0  0  0  0  0
    7.6697   -9.2858    0.0000 C   0  0  0  0  0  0  0  0  0  0  0  0
    7.6774   -8.4609    0.0000 C   0  0  0  0  0  0  0  0  0  0  0  0
    6.9668   -8.0417    0.0000 C   0  0  0  0  0  0  0  0  0  0  0  0
    6.2485   -8.4476    0.0000 C   0  0  0  0  0  0  0  0  0  0  0  0
    6.2408   -9.2725    0.0000 C   0  0  0  0  0  0  0  0  0  0  0  0
    7.6889   -7.6293    0.0000 H   0  0  0  0  0  0  0  0  0  0  0  0
 15  1  1  0  0  0  0
  3  2  1  1  0  0  0
  3  4  1  0  0  0  0
  4  5  1  0  0  0  0
  5  6  1  0  0  0  0
  6  7  1  0  0  0  0
  7  8  1  0  0  0  0
  8  3  1  0  0  0  0
  5  9  1  1  0  0  0
  7 10  1  1  0  0  0
  8 11  1  6  0  0  0
  6 12  1  6  0  0  0
 24 14  1  1  0  0  0
 29 15  1  0  0  0  0
 34 16  2  0  0  0  0
 38 17  1  0  0  0  0
 22 18  1  1  0  0  0
 19 18  1  0  0  0  0
 23 20  1  6  0  0  0
 21 25  1  0  0  0  0
 22 21  1  0  0  0  0
 23 22  1  0  0  0  0
 24 23  1  0  0  0  0
 26 24  1  0  0  0  0
 25 41  1  0  0  0  0
 26 25  1  0  0  0  0
 26 27  1  6  0  0  0
 42  2  1  0  0  0  0
  9 13  1  0  0  0  0
 28 32  1  0  0  0  0
 29 28  2  0  0  0  0
 30 29  1  0  0  0  0
 31 30  2  0  0  0  0
 33 31  1  0  0  0  0
 33 32  2  0  0  0  0
 36 33  1  0  0  0  0
 34 39  1  0  0  0  0
 35 34  1  0  0  0  0
 36 35  2  0  0  0  0
 37 36  1  0  0  0  0
 40 37  1  0  0  0  0
 38 43  1  0  0  0  0
 39 38  2  0  0  0  0
 40 39  1  0  0  0  0
 41 40  2  0  0  0  0
 42 41  1  0  0  0  0
 43 42  2  0  0  0  0
 25 44  1  6  0  0  0
M  END
>  <cdx:fragmentId>
5

$$$$
