92858.cdx
  Mrv1902 05222410212D          

 19 18  0  0  0  0            999 V2000
   13.8343   -6.6137    0.0000 O   0  0  0  0  0  0  0  0  0  0  0  0
   13.1198   -7.0263    0.0000 C   0  0  0  0  0  0  0  0  0  0  0  0
   12.4053   -6.6137    0.0000 C   0  0  0  0  0  0  0  0  0  0  0  0
   11.6908   -7.0263    0.0000 C   0  0  0  0  0  0  0  0  0  0  0  0
   10.9764   -6.6137    0.0000 C   0  0  0  0  0  0  0  0  0  0  0  0
   10.2619   -7.0263    0.0000 C   0  0  0  0  0  0  0  0  0  0  0  0
    9.5474   -6.6137    0.0000 C   0  0  0  0  0  0  0  0  0  0  0  0
    8.8330   -7.0263    0.0000 C   0  0  0  0  0  0  0  0  0  0  0  0
    8.1185   -6.6137    0.0000 C   0  0  0  0  0  0  0  0  0  0  0  0
    7.4040   -7.0263    0.0000 C   0  0  0  0  0  0  0  0  0  0  0  0
    6.6895   -6.6137    0.0000 C   0  0  0  0  0  0  0  0  0  0  0  0
    5.9751   -7.0263    0.0000 C   0  0  0  0  0  0  0  0  0  0  0  0
    5.2606   -6.6137    0.0000 C   0  0  0  0  0  0  0  0  0  0  0  0
    4.5461   -7.0263    0.0000 C   0  0  0  0  0  0  0  0  0  0  0  0
    3.8317   -6.6137    0.0000 C   0  0  0  0  0  0  0  0  0  0  0  0
    3.1172   -7.0263    0.0000 C   0  0  0  0  0  0  0  0  0  0  0  0
    2.4027   -6.6137    0.0000 C   0  0  0  0  0  0  0  0  0  0  0  0
    1.6882   -7.0263    0.0000 C   0  0  0  0  0  0  0  0  0  0  0  0
    0.9738   -6.6137    0.0000 C   0  0  0  0  0  0  0  0  0  0  0  0
  2  1  2  0  0  0  0
  3  2  1  0  0  0  0
  4  3  1  0  0  0  0
  5  4  1  0  0  0  0
  6  5  1  0  0  0  0
  7  6  1  0  0  0  0
  8  7  1  0  0  0  0
  9  8  1  0  0  0  0
 10  9  1  0  0  0  0
 11 10  2  0  0  0  0
 12 11  1  0  0  0  0
 13 12  1  0  0  0  0
 14 13  1  0  0  0  0
 15 14  1  0  0  0  0
 16 15  1  0  0  0  0
 17 16  1  0  0  0  0
 18 17  1  0  0  0  0
 19 18  1  0  0  0  0
M  END
>  <cdx:fragmentId>
3

$$$$
