92855.cdx
  Mrv1902 05222410252D          

 39 42  0  0  0  0            999 V2000
    4.6868   -9.5563    0.0000 O   0  0  0  0  0  0  0  0  0  0  0  0
    5.4013  -10.7937    0.0000 O   0  0  0  0  0  0  0  0  0  0  0  0
    6.1157  -10.3812    0.0000 C   0  0  2  0  0  0  0  0  0  0  0  0
    6.1157   -9.5563    0.0000 C   0  0  1  0  0  0  0  0  0  0  0  0
    5.4013   -9.1438    0.0000 C   0  0  0  0  0  0  0  0  0  0  0  0
    6.8302  -10.7937    0.0000 C   0  0  1  0  0  0  0  0  0  0  0  0
    7.5447  -10.3812    0.0000 C   0  0  2  0  0  0  0  0  0  0  0  0
    7.5447   -9.5563    0.0000 C   0  0  1  0  0  0  0  0  0  0  0  0
    6.8302   -9.1438    0.0000 O   0  0  0  0  0  0  0  0  0  0  0  0
    8.2592   -9.1438    0.0000 O   0  0  0  0  0  0  0  0  0  0  0  0
    8.2592   -8.3187    0.0000 C   0  0  0  0  0  0  0  0  0  0  0  0
    7.5447   -7.9063    0.0000 C   0  0  0  0  0  0  0  0  0  0  0  0
    6.8302   -8.3187    0.0000 C   0  0  0  0  0  0  0  0  0  0  0  0
    8.9736   -7.9063    0.0000 C   0  0  0  0  0  0  0  0  0  0  0  0
    8.9736   -7.0812    0.0000 C   0  0  0  0  0  0  0  0  0  0  0  0
    8.2592   -6.6688    0.0000 C   0  0  0  0  0  0  0  0  0  0  0  0
    7.5447   -7.0812    0.0000 C   0  0  0  0  0  0  0  0  0  0  0  0
    9.6881   -6.6688    0.0000 O   0  0  0  0  0  0  0  0  0  0  0  0
    9.6881   -5.8438    0.0000 C   0  0  0  0  0  0  0  0  0  0  0  0
    8.9736   -5.4313    0.0000 C   0  0  0  0  0  0  0  0  0  0  0  0
    8.2592   -5.8438    0.0000 C   0  0  0  0  0  0  0  0  0  0  0  0
    6.1157   -7.0812    0.0000 C   0  0  0  0  0  0  0  0  0  0  0  0
    6.1157   -7.9063    0.0000 C   0  0  2  0  0  0  0  0  0  0  0  0
    6.1157   -6.2563    0.0000 O   0  0  0  0  0  0  0  0  0  0  0  0
    6.9407   -7.0812    0.0000 C   0  0  0  0  0  0  0  0  0  0  0  0
    5.2907   -7.0812    0.0000 C   0  0  0  0  0  0  0  0  0  0  0  0
   10.4026   -5.4313    0.0000 O   0  0  0  0  0  0  0  0  0  0  0  0
    5.4013   -8.3187    0.0000 O   0  0  0  0  0  0  0  0  0  0  0  0
    6.8302  -11.6187    0.0000 O   0  0  0  0  0  0  0  0  0  0  0  0
    8.2592  -10.7937    0.0000 O   0  0  0  0  0  0  0  0  0  0  0  0
    3.9723   -9.1438    0.0000 C   0  0  2  0  0  0  0  0  0  0  0  0
    3.8861   -8.3233    0.0000 O   0  0  0  0  0  0  0  0  0  0  0  0
    3.0791   -8.1517    0.0000 C   0  0  0  0  0  0  0  0  0  0  0  0
    2.6666   -8.8662    0.0000 C   0  0  2  0  0  0  0  0  0  0  0  0
    3.2187   -9.4793    0.0000 C   0  0  1  0  0  0  0  0  0  0  0  0
    3.0471  -10.2863    0.0000 O   0  0  0  0  0  0  0  0  0  0  0  0
    2.0833   -9.4496    0.0000 O   0  0  0  0  0  0  0  0  0  0  0  0
    1.9522   -8.4537    0.0000 C   0  0  0  0  0  0  0  0  0  0  0  0
    1.9522   -7.6287    0.0000 O   0  0  0  0  0  0  0  0  0  0  0  0
  3  2  1  6  0  0  0
  3  4  1  0  0  0  0
  4  5  1  1  0  0  0
  5  1  1  0  0  0  0
  3  6  1  0  0  0  0
  6  7  1  0  0  0  0
  7  8  1  0  0  0  0
  8  9  1  0  0  0  0
  9  4  1  0  0  0  0
  8 10  1  1  0  0  0
 10 11  1  0  0  0  0
 11 12  2  0  0  0  0
 12 13  1  0  0  0  0
 11 14  1  0  0  0  0
 14 15  2  0  0  0  0
 15 16  1  0  0  0  0
 16 17  2  0  0  0  0
 17 12  1  0  0  0  0
 15 18  1  0  0  0  0
 18 19  1  0  0  0  0
 19 20  1  0  0  0  0
 20 21  2  0  0  0  0
 21 16  1  0  0  0  0
 22 23  1  0  0  0  0
 23 13  1  0  0  0  0
 22 24  1  0  0  0  0
 22 25  1  0  0  0  0
 22 26  1  0  0  0  0
 19 27  2  0  0  0  0
 23 28  1  1  0  0  0
  6 29  1  1  0  0  0
  7 30  1  6  0  0  0
 31  1  1  1  0  0  0
 31 32  1  0  0  0  0
 32 33  1  0  0  0  0
 33 34  1  0  0  0  0
 34 35  1  0  0  0  0
 35 31  1  0  0  0  0
 35 36  1  6  0  0  0
 34 37  1  6  0  0  0
 34 38  1  0  0  0  0
 38 39  1  0  0  0  0
M  END
>  <cdx:fragmentId>
5

$$$$
