92865.cdx
  Mrv1902 05222410222D          

 38 42  0  0  0  0            999 V2000
    3.2568   -6.7100    0.0000 C   0  0  0  0  0  0  0  0  0  0  0  0
    4.6857   -7.5350    0.0000 O   0  0  0  0  0  0  0  0  0  0  0  0
    4.6857   -6.7100    0.0000 C   0  0  0  0  0  0  0  0  0  0  0  0
    3.9713   -6.2975    0.0000 C   0  0  0  0  0  0  0  0  0  0  0  0
    5.4002   -7.9475    0.0000 O   0  0  0  0  0  0  0  0  0  0  0  0
    6.1147   -7.5350    0.0000 C   0  0  0  0  0  0  0  0  0  0  0  0
    6.1147   -6.7100    0.0000 C   0  0  2  0  0  0  0  0  0  0  0  0
    5.4002   -6.2975    0.0000 O   0  0  0  0  0  0  0  0  0  0  0  0
    6.8292   -7.9475    0.0000 O   0  0  0  0  0  0  0  0  0  0  0  0
    7.5436   -7.5350    0.0000 C   0  0  1  0  0  0  0  0  0  0  0  0
    7.5436   -6.7100    0.0000 C   0  0  1  0  0  0  0  0  0  0  0  0
    6.8292   -6.2975    0.0000 C   0  0  2  0  0  0  0  0  0  0  0  0
    8.2581   -7.9475    0.0000 C   0  0  0  0  0  0  0  0  0  0  0  0
    8.9726   -7.5350    0.0000 C   0  0  2  0  0  0  0  0  0  0  0  0
    8.9726   -6.7100    0.0000 C   0  0  1  0  0  0  0  0  0  0  0  0
    8.2581   -6.2975    0.0000 C   0  0  1  0  0  0  0  0  0  0  0  0
    9.6870   -7.9475    0.0000 C   0  0  0  0  0  0  0  0  0  0  0  0
   10.4015   -7.5350    0.0000 C   0  0  0  0  0  0  0  0  0  0  0  0
   10.4015   -6.7100    0.0000 C   0  0  0  0  0  0  0  0  0  0  0  0
    9.6870   -6.2975    0.0000 C   0  0  1  0  0  0  0  0  0  0  0  0
    3.9713   -5.4725    0.0000 C   0  0  0  0  0  0  0  0  0  0  0  0
    2.5423   -6.2975    0.0000 C   0  0  0  0  0  0  0  0  0  0  0  0
    8.2581   -5.4725    0.0000 C   0  0  1  0  0  0  0  0  0  0  0  0
    7.5436   -5.0600    0.0000 C   0  0  1  0  0  0  0  0  0  0  0  0
    6.8292   -5.4725    0.0000 C   0  0  2  0  0  0  0  0  0  0  0  0
    9.6870   -5.4725    0.0000 O   0  0  0  0  0  0  0  0  0  0  0  0
    9.6870   -8.7725    0.0000 C   0  0  0  0  0  0  0  0  0  0  0  0
   11.1160   -6.2975    0.0000 O   0  0  0  0  0  0  0  0  0  0  0  0
    8.9726   -5.8850    0.0000 C   0  0  0  0  0  0  0  0  0  0  0  0
    7.5436   -4.2350    0.0000 O   0  0  0  0  0  0  0  0  0  0  0  0
    8.8465   -4.8841    0.0000 O   0  0  0  0  0  0  0  0  0  0  0  0
    6.1147   -5.0600    0.0000 C   0  0  0  0  0  0  0  0  0  0  0  0
    7.2824   -6.1468    0.0000 C   0  0  0  0  0  0  0  0  0  0  0  0
    7.7000   -5.5825    0.0000 O   0  0  0  0  0  0  0  0  0  0  0  0
    6.8292   -7.1226    0.0000 H   0  0  0  0  0  0  0  0  0  0  0  0
    7.5436   -8.3600    0.0000 H   0  0  0  0  0  0  0  0  0  0  0  0
    8.2581   -7.1238    0.0000 H   0  0  0  0  0  0  0  0  0  0  0  0
    8.9726   -8.3600    0.0000 H   0  0  0  0  0  0  0  0  0  0  0  0
  2  3  2  0  0  0  0
  3  4  1  0  0  0  0
  4  1  1  0  0  0  0
  5  6  2  0  0  0  0
  6  7  1  0  0  0  0
  7  8  1  6  0  0  0
  8  3  1  0  0  0  0
  6  9  1  0  0  0  0
  9 10  1  0  0  0  0
 10 11  1  0  0  0  0
 11 12  1  0  0  0  0
 12  7  1  0  0  0  0
 10 13  1  0  0  0  0
 13 14  1  0  0  0  0
 14 15  1  0  0  0  0
 15 16  1  0  0  0  0
 16 11  1  0  0  0  0
 14 17  1  0  0  0  0
 17 18  2  0  0  0  0
 18 19  1  0  0  0  0
 19 20  1  0  0  0  0
 20 15  1  0  0  0  0
  4 21  1  0  0  0  0
 22  1  1  0  0  0  0
 16 23  1  0  0  0  0
 23 24  1  0  0  0  0
 24 25  1  0  0  0  0
 25 12  1  0  0  0  0
 20 26  1  6  0  0  0
 17 27  1  0  0  0  0
 19 28  2  0  0  0  0
 15 29  1  6  0  0  0
 24 30  1  1  0  0  0
 23 31  1  6  0  0  0
 25 32  1  1  0  0  0
 11 33  1  6  0  0  0
 33 34  1  0  0  0  0
 34 23  1  0  0  0  0
 12 35  1  6  0  0  0
 10 36  1  6  0  0  0
 16 37  1  1  0  0  0
 14 38  1  1  0  0  0
M  END
>  <cdx:fragmentId>
5

$$$$
