9286.cdx
  Mrv1902 05222410202D          

 45 49  0  0  0  0            999 V2000
    9.9264   -3.8471    0.0000 C   0  0  0  0  0  0  0  0  0  0  0  0
    9.2119   -4.2596    0.0000 O   0  0  0  0  0  0  0  0  0  0  0  0
    9.2119   -5.0846    0.0000 C   0  0  0  0  0  0  0  0  0  0  0  0
    9.9264   -5.4971    0.0000 C   0  0  0  0  0  0  0  0  0  0  0  0
    9.9264   -6.3221    0.0000 C   0  0  0  0  0  0  0  0  0  0  0  0
    9.2119   -6.7346    0.0000 C   0  0  0  0  0  0  0  0  0  0  0  0
    8.4975   -6.3221    0.0000 C   0  0  0  0  0  0  0  0  0  0  0  0
    8.4975   -5.4971    0.0000 C   0  0  0  0  0  0  0  0  0  0  0  0
   10.6409   -5.0846    0.0000 O   0  0  0  0  0  0  0  0  0  0  0  0
    9.9264   -8.7971    0.0000 O   0  0  0  0  0  0  0  0  0  0  0  0
    9.9264  -10.4471    0.0000 O   0  0  0  0  0  0  0  0  0  0  0  0
    8.4975  -11.2721    0.0000 O   0  0  0  0  0  0  0  0  0  0  0  0
    6.3541  -11.6846    0.0000 O   0  0  0  0  0  0  0  0  0  0  0  0
    4.9251  -12.5096    0.0000 O   0  0  0  0  0  0  0  0  0  0  0  0
    3.4962  -11.6846    0.0000 O   0  0  0  0  0  0  0  0  0  0  0  0
    2.7817  -10.4471    0.0000 O   0  0  0  0  0  0  0  0  0  0  0  0
    3.4962  -10.0346    0.0000 C   0  0  0  0  0  0  0  0  0  0  0  0
    4.9251  -10.0346    0.0000 O   0  0  0  0  0  0  0  0  0  0  0  0
    4.2106  -10.4471    0.0000 C   0  0  1  0  0  0  0  0  0  0  0  0
    4.2106  -11.2721    0.0000 C   0  0  2  0  0  0  0  0  0  0  0  0
    4.9251  -11.6846    0.0000 C   0  0  1  0  0  0  0  0  0  0  0  0
    5.6396  -11.2721    0.0000 C   0  0  2  0  0  0  0  0  0  0  0  0
    5.6396  -10.4471    0.0000 C   0  0  2  0  0  0  0  0  0  0  0  0
    6.3541  -10.0346    0.0000 O   0  0  0  0  0  0  0  0  0  0  0  0
    7.0685  -10.4471    0.0000 C   0  0  0  0  0  0  0  0  0  0  0  0
    7.7830   -9.2096    0.0000 O   0  0  0  0  0  0  0  0  0  0  0  0
    7.7830  -10.0346    0.0000 C   0  0  1  0  0  0  0  0  0  0  0  0
    8.4975  -10.4471    0.0000 C   0  0  2  0  0  0  0  0  0  0  0  0
    9.2119  -10.0346    0.0000 C   0  0  1  0  0  0  0  0  0  0  0  0
    9.2119   -9.2096    0.0000 C   0  0  2  0  0  0  0  0  0  0  0  0
    8.4975   -8.7971    0.0000 C   0  0  2  0  0  0  0  0  0  0  0  0
    8.4975   -7.9721    0.0000 O   0  0  0  0  0  0  0  0  0  0  0  0
    5.6396   -8.7971    0.0000 O   0  0  0  0  0  0  0  0  0  0  0  0
    4.2106   -6.3221    0.0000 O   0  0  0  0  0  0  0  0  0  0  0  0
    7.0685   -6.3221    0.0000 O   0  0  0  0  0  0  0  0  0  0  0  0
    6.3541   -6.7346    0.0000 C   0  0  0  0  0  0  0  0  0  0  0  0
    5.6396   -6.3221    0.0000 C   0  0  0  0  0  0  0  0  0  0  0  0
    4.9251   -6.7346    0.0000 C   0  0  0  0  0  0  0  0  0  0  0  0
    4.9251   -7.5596    0.0000 C   0  0  0  0  0  0  0  0  0  0  0  0
    5.6396   -7.9721    0.0000 C   0  0  0  0  0  0  0  0  0  0  0  0
    6.3541   -7.5596    0.0000 C   0  0  0  0  0  0  0  0  0  0  0  0
    7.0685   -8.7971    0.0000 O   0  0  0  0  0  0  0  0  0  0  0  0
    7.0685   -7.9721    0.0000 C   0  0  0  0  0  0  0  0  0  0  0  0
    7.7830   -7.5596    0.0000 C   0  0  0  0  0  0  0  0  0  0  0  0
    7.7830   -6.7346    0.0000 C   0  0  0  0  0  0  0  0  0  0  0  0
 30 10  1  6  0  0  0
 29 11  1  1  0  0  0
 28 12  1  6  0  0  0
 22 13  1  6  0  0  0
 21 14  1  1  0  0  0
 20 15  1  6  0  0  0
 17 16  1  0  0  0  0
 19 17  1  1  0  0  0
 23 18  1  0  0  0  0
 19 18  1  0  0  0  0
 20 19  1  0  0  0  0
 21 20  1  0  0  0  0
 22 21  1  0  0  0  0
 23 22  1  0  0  0  0
 23 24  1  1  0  0  0
 25 24  1  0  0  0  0
 27 25  1  1  0  0  0
 31 26  1  0  0  0  0
 27 26  1  0  0  0  0
 28 27  1  0  0  0  0
 29 28  1  0  0  0  0
 30 29  1  0  0  0  0
 31 30  1  0  0  0  0
 31 32  1  1  0  0  0
 44 32  1  0  0  0  0
 40 33  1  0  0  0  0
 38 34  1  0  0  0  0
 45 35  1  0  0  0  0
 36 35  1  0  0  0  0
 41 36  1  0  0  0  0
 37 36  2  0  0  0  0
 38 37  1  0  0  0  0
 39 38  2  0  0  0  0
 40 39  1  0  0  0  0
 41 40  2  0  0  0  0
 43 41  1  0  0  0  0
 43 42  2  0  0  0  0
 44 43  1  0  0  0  0
 45 44  2  0  0  0  0
  7 45  1  0  0  0  0
  1  2  1  0  0  0  0
  2  3  1  0  0  0  0
  3  4  2  0  0  0  0
  4  5  1  0  0  0  0
  5  6  2  0  0  0  0
  6  7  1  0  0  0  0
  7  8  2  0  0  0  0
  3  8  1  0  0  0  0
  4  9  1  0  0  0  0
M  END
>  <cdx:fragmentId>
3

$$$$
