92867.cdx
  Mrv1902 05222410202D          

 19 22  0  0  0  0            999 V2000
    6.7862   -7.3760    0.0000 C   0  0  0  0  0  0  0  0  0  0  0  0
    5.7675   -7.9578    0.0000 C   0  0  2  0  0  0  0  0  0  0  0  0
    5.5239   -6.8434    0.0000 C   0  0  0  0  0  0  0  0  0  0  0  0
    7.0807   -6.7900    0.0000 C   0  0  0  0  0  0  0  0  0  0  0  0
    6.6020   -5.9827    0.0000 C   0  0  0  0  0  0  0  0  0  0  0  0
    7.9740   -6.9178    0.0000 C   0  0  0  0  0  0  0  0  0  0  0  0
    7.6131   -7.8799    0.0000 C   0  0  0  0  0  0  0  0  0  0  0  0
    8.2400   -7.5189    0.0000 N   0  0  0  0  0  0  0  0  0  0  0  0
    5.1330   -7.4543    0.0000 N   0  0  0  0  0  0  0  0  0  0  0  0
    4.3797   -7.7520    0.0000 C   0  0  0  0  0  0  0  0  0  0  0  0
    4.2608   -8.5533    0.0000 C   0  0  0  0  0  0  0  0  0  0  0  0
    4.8953   -9.0568    0.0000 C   0  0  0  0  0  0  0  0  0  0  0  0
    5.6487   -8.7591    0.0000 C   0  0  0  0  0  0  0  0  0  0  0  0
    8.8936   -7.5891    0.0000 C   0  0  0  0  0  0  0  0  0  0  0  0
    9.2812   -7.0582    0.0000 C   0  0  0  0  0  0  0  0  0  0  0  0
    9.0152   -6.4571    0.0000 C   0  0  0  0  0  0  0  0  0  0  0  0
    8.3616   -6.3869    0.0000 C   0  0  0  0  0  0  0  0  0  0  0  0
    9.2274   -8.3435    0.0000 O   0  0  0  0  0  0  0  0  0  0  0  0
    6.4486   -8.4233    0.0000 H   0  0  0  0  0  0  0  0  0  0  0  0
  1  2  1  0  0  0  0
  3  4  1  0  0  0  0
  1  5  1  0  0  0  0
  4  5  1  0  0  0  0
  4  6  1  0  0  0  0
  1  7  1  0  0  0  0
  6  8  1  0  0  0  0
  7  8  1  0  0  0  0
  3  9  1  0  0  0  0
  9  2  1  0  0  0  0
  9 10  1  0  0  0  0
 10 11  1  0  0  0  0
 11 12  1  0  0  0  0
 12 13  1  0  0  0  0
 13  2  1  0  0  0  0
  8 14  1  0  0  0  0
 14 15  1  0  0  0  0
 15 16  2  0  0  0  0
 16 17  1  0  0  0  0
 17  6  2  0  0  0  0
 14 18  2  0  0  0  0
  2 19  1  6  0  0  0
M  END
>  <cdx:groupId>
852

>  <cdx:fragmentId>
853

$$$$
