92869.cdx
  Mrv1902 05222410252D          

 16 18  0  0  0  0            999 V2000
    5.3056   -5.6650    0.0000 C   0  0  0  0  0  0  0  0  0  0  0  0
    5.3056   -6.4900    0.0000 C   0  0  0  0  0  0  0  0  0  0  0  0
    6.0200   -6.9025    0.0000 C   0  0  0  0  0  0  0  0  0  0  0  0
    6.7345   -6.4900    0.0000 C   0  0  0  0  0  0  0  0  0  0  0  0
    6.7345   -5.6650    0.0000 C   0  0  0  0  0  0  0  0  0  0  0  0
    6.0200   -5.2525    0.0000 C   0  0  0  0  0  0  0  0  0  0  0  0
    7.4490   -6.9025    0.0000 C   0  0  0  0  0  0  0  0  0  0  0  0
    8.1634   -6.4900    0.0000 C   0  0  0  0  0  0  0  0  0  0  0  0
    8.1634   -5.6650    0.0000 C   0  0  0  0  0  0  0  0  0  0  0  0
    7.4490   -5.2525    0.0000 C   0  0  0  0  0  0  0  0  0  0  0  0
    8.8779   -6.9025    0.0000 C   0  0  0  0  0  0  0  0  0  0  0  0
    9.5924   -6.4900    0.0000 C   0  0  0  0  0  0  0  0  0  0  0  0
    9.5924   -5.6650    0.0000 C   0  0  0  0  0  0  0  0  0  0  0  0
    8.8779   -5.2525    0.0000 C   0  0  0  0  0  0  0  0  0  0  0  0
    7.4490   -4.4275    0.0000 O   0  0  0  0  0  0  0  0  0  0  0  0
    7.4490   -7.7275    0.0000 O   0  0  0  0  0  0  0  0  0  0  0  0
  1  2  2  0  0  0  0
  2  3  1  0  0  0  0
  3  4  2  0  0  0  0
  4  5  1  0  0  0  0
  5  6  2  0  0  0  0
  6  1  1  0  0  0  0
  4  7  1  0  0  0  0
  7  8  1  0  0  0  0
  8  9  2  0  0  0  0
  9 10  1  0  0  0  0
 10  5  1  0  0  0  0
  8 11  1  0  0  0  0
 11 12  2  0  0  0  0
 12 13  1  0  0  0  0
 13 14  2  0  0  0  0
 14  9  1  0  0  0  0
 10 15  2  0  0  0  0
  7 16  2  0  0  0  0
M  END
>  <cdx:fragmentId>
5

$$$$
