92866.cdx
  Mrv1902 05222410212D          

 19 18  0  0  0  0            999 V2000
    1.1938   -7.1088    0.0000 O   0  0  0  0  0  0  0  0  0  0  0  0
    1.9082   -6.6962    0.0000 C   0  0  0  0  0  0  0  0  0  0  0  0
    2.6227   -7.1088    0.0000 C   0  0  0  0  0  0  0  0  0  0  0  0
    3.3372   -6.6962    0.0000 C   0  0  0  0  0  0  0  0  0  0  0  0
    4.0517   -7.1088    0.0000 C   0  0  0  0  0  0  0  0  0  0  0  0
    4.7661   -6.6962    0.0000 C   0  0  0  0  0  0  0  0  0  0  0  0
    5.4806   -7.1088    0.0000 C   0  0  0  0  0  0  0  0  0  0  0  0
    6.1951   -6.6962    0.0000 C   0  0  0  0  0  0  0  0  0  0  0  0
    6.9095   -7.1088    0.0000 C   0  0  0  0  0  0  0  0  0  0  0  0
    7.6240   -6.6962    0.0000 C   0  0  0  0  0  0  0  0  0  0  0  0
    8.3385   -7.1088    0.0000 C   0  0  0  0  0  0  0  0  0  0  0  0
    9.0530   -6.6962    0.0000 C   0  0  0  0  0  0  0  0  0  0  0  0
    9.7674   -7.1088    0.0000 C   0  0  0  0  0  0  0  0  0  0  0  0
   10.4819   -6.6962    0.0000 C   0  0  0  0  0  0  0  0  0  0  0  0
   11.1964   -7.1088    0.0000 C   0  0  0  0  0  0  0  0  0  0  0  0
   11.9108   -6.6962    0.0000 C   0  0  0  0  0  0  0  0  0  0  0  0
   12.6253   -7.1088    0.0000 C   0  0  0  0  0  0  0  0  0  0  0  0
    1.9082   -5.8712    0.0000 O   0  0  0  0  0  0  0  0  0  0  0  0
    7.6240   -5.8712    0.0000 O   0  0  0  0  0  0  0  0  0  0  0  0
  1  2  1  0  0  0  0
  2  3  1  0  0  0  0
  3  4  1  0  0  0  0
  4  5  1  0  0  0  0
  5  6  1  0  0  0  0
  6  7  1  0  0  0  0
  7  8  1  0  0  0  0
  8  9  2  0  0  0  0
  9 10  1  0  0  0  0
 10 11  1  0  0  0  0
 11 12  1  0  0  0  0
 12 13  1  0  0  0  0
 13 14  1  0  0  0  0
 14 15  1  0  0  0  0
 15 16  1  0  0  0  0
 16 17  1  0  0  0  0
  2 18  2  0  0  0  0
 10 19  2  0  0  0  0
M  END
>  <cdx:fragmentId>
3

$$$$
