92864.cdx
  Mrv1902 05222410212D          

 20 22  0  0  0  0            999 V2000
    4.5768   -5.8163    0.0000 C   0  0  0  0  0  0  0  0  0  0  0  0
    4.5768   -6.6413    0.0000 C   0  0  0  0  0  0  0  0  0  0  0  0
    5.2913   -7.0537    0.0000 C   0  0  0  0  0  0  0  0  0  0  0  0
    6.0057   -6.6413    0.0000 C   0  0  0  0  0  0  0  0  0  0  0  0
    6.0057   -5.8163    0.0000 C   0  0  0  0  0  0  0  0  0  0  0  0
    5.2913   -5.4037    0.0000 C   0  0  0  0  0  0  0  0  0  0  0  0
    6.7202   -7.0537    0.0000 O   0  0  0  0  0  0  0  0  0  0  0  0
    7.4347   -6.6413    0.0000 C   0  0  1  0  0  0  0  0  0  0  0  0
    7.4347   -5.8163    0.0000 C   0  0  2  0  0  0  0  0  0  0  0  0
    6.7202   -5.4037    0.0000 C   0  0  0  0  0  0  0  0  0  0  0  0
    8.1492   -7.0537    0.0000 C   0  0  0  0  0  0  0  0  0  0  0  0
    8.8636   -6.6413    0.0000 C   0  0  0  0  0  0  0  0  0  0  0  0
    8.1492   -5.4037    0.0000 O   0  0  0  0  0  0  0  0  0  0  0  0
    8.1492   -7.8788    0.0000 C   0  0  0  0  0  0  0  0  0  0  0  0
    8.8636   -8.2912    0.0000 C   0  0  0  0  0  0  0  0  0  0  0  0
    9.5781   -7.8788    0.0000 C   0  0  0  0  0  0  0  0  0  0  0  0
    9.5781   -7.0537    0.0000 C   0  0  0  0  0  0  0  0  0  0  0  0
    3.8623   -7.0537    0.0000 O   0  0  0  0  0  0  0  0  0  0  0  0
    5.2913   -4.5788    0.0000 O   0  0  0  0  0  0  0  0  0  0  0  0
   10.2926   -8.2912    0.0000 O   0  0  0  0  0  0  0  0  0  0  0  0
  1  2  2  0  0  0  0
  2  3  1  0  0  0  0
  3  4  2  0  0  0  0
  4  5  1  0  0  0  0
  5  6  2  0  0  0  0
  6  1  1  0  0  0  0
  4  7  1  0  0  0  0
  7  8  1  0  0  0  0
  8  9  1  0  0  0  0
  9 10  1  0  0  0  0
 10  5  1  0  0  0  0
  8 11  1  1  0  0  0
 11 12  2  0  0  0  0
  9 13  1  6  0  0  0
 11 14  1  0  0  0  0
 14 15  2  0  0  0  0
 15 16  1  0  0  0  0
 16 17  2  0  0  0  0
 17 12  1  0  0  0  0
  2 18  1  0  0  0  0
  6 19  1  0  0  0  0
 16 20  1  0  0  0  0
M  END
>  <cdx:fragmentId>
5

$$$$
