92862.cdx
  Mrv1902 05222410222D          

 25 27  0  0  0  0            999 V2000
    5.7731   -6.1463    0.0000 C   0  0  0  0  0  0  0  0  0  0  0  0
    5.7731   -6.9712    0.0000 C   0  0  0  0  0  0  0  0  0  0  0  0
    6.4875   -7.3838    0.0000 C   0  0  0  0  0  0  0  0  0  0  0  0
    7.2020   -6.9712    0.0000 C   0  0  0  0  0  0  0  0  0  0  0  0
    7.2020   -6.1463    0.0000 C   0  0  0  0  0  0  0  0  0  0  0  0
    6.4875   -5.7338    0.0000 C   0  0  0  0  0  0  0  0  0  0  0  0
    7.9866   -7.2262    0.0000 O   0  0  0  0  0  0  0  0  0  0  0  0
    8.4715   -6.5587    0.0000 C   0  0  2  0  0  0  0  0  0  0  0  0
    7.9866   -5.8913    0.0000 C   0  0  2  0  0  0  0  0  0  0  0  0
    6.4875   -8.2088    0.0000 O   0  0  0  0  0  0  0  0  0  0  0  0
    5.7731   -8.6212    0.0000 C   0  0  0  0  0  0  0  0  0  0  0  0
    5.0586   -5.7338    0.0000 C   0  0  0  0  0  0  0  0  0  0  0  0
    4.3441   -6.1463    0.0000 C   0  0  0  0  0  0  0  0  0  0  0  0
    3.6296   -5.7338    0.0000 C   0  0  0  0  0  0  0  0  0  0  0  0
    9.2965   -6.5587    0.0000 C   0  0  0  0  0  0  0  0  0  0  0  0
    9.7090   -7.2732    0.0000 C   0  0  0  0  0  0  0  0  0  0  0  0
   10.5340   -7.2732    0.0000 C   0  0  0  0  0  0  0  0  0  0  0  0
   10.9465   -6.5587    0.0000 C   0  0  0  0  0  0  0  0  0  0  0  0
   10.5340   -5.8443    0.0000 C   0  0  0  0  0  0  0  0  0  0  0  0
    9.7090   -5.8443    0.0000 C   0  0  0  0  0  0  0  0  0  0  0  0
   11.7715   -6.5587    0.0000 O   0  0  0  0  0  0  0  0  0  0  0  0
   12.1840   -5.8443    0.0000 C   0  0  0  0  0  0  0  0  0  0  0  0
   10.9465   -7.9877    0.0000 O   0  0  0  0  0  0  0  0  0  0  0  0
   10.5340   -8.7022    0.0000 C   0  0  0  0  0  0  0  0  0  0  0  0
    8.2416   -5.1067    0.0000 C   0  0  0  0  0  0  0  0  0  0  0  0
  1  2  2  0  0  0  0
  2  3  1  0  0  0  0
  3  4  2  0  0  0  0
  4  5  1  0  0  0  0
  5  6  2  0  0  0  0
  6  1  1  0  0  0  0
  4  7  1  0  0  0  0
  7  8  1  0  0  0  0
  8  9  1  0  0  0  0
  9  5  1  0  0  0  0
  3 10  1  0  0  0  0
 10 11  1  0  0  0  0
  1 12  1  0  0  0  0
 12 13  2  0  0  0  0
 13 14  1  0  0  0  0
  8 15  1  6  0  0  0
 15 16  2  0  0  0  0
 16 17  1  0  0  0  0
 17 18  2  0  0  0  0
 18 19  1  0  0  0  0
 19 20  2  0  0  0  0
 20 15  1  0  0  0  0
 18 21  1  0  0  0  0
 21 22  1  0  0  0  0
 17 23  1  0  0  0  0
 23 24  1  0  0  0  0
  9 25  1  1  0  0  0
M  END
>  <cdx:fragmentId>
5

$$$$
