92868.cdx
  Mrv1902 05222410242D          

 14 16  0  0  0  0            999 V2000
    4.4393   -6.7512    0.0000 C   0  0  0  0  0  0  0  0  0  0  0  0
    4.4393   -7.5762    0.0000 C   0  0  0  0  0  0  0  0  0  0  0  0
    5.1538   -7.9888    0.0000 C   0  0  0  0  0  0  0  0  0  0  0  0
    5.8682   -7.5762    0.0000 C   0  0  0  0  0  0  0  0  0  0  0  0
    5.8682   -6.7512    0.0000 C   0  0  0  0  0  0  0  0  0  0  0  0
    5.1538   -6.3388    0.0000 C   0  0  0  0  0  0  0  0  0  0  0  0
    6.5827   -7.9888    0.0000 C   0  0  0  0  0  0  0  0  0  0  0  0
    7.2972   -7.5762    0.0000 C   0  0  0  0  0  0  0  0  0  0  0  0
    7.2972   -6.7512    0.0000 C   0  0  0  0  0  0  0  0  0  0  0  0
    6.5827   -6.3388    0.0000 C   0  0  0  0  0  0  0  0  0  0  0  0
    8.0117   -7.9888    0.0000 C   0  0  0  0  0  0  0  0  0  0  0  0
    8.7261   -7.5762    0.0000 C   0  0  0  0  0  0  0  0  0  0  0  0
    8.7261   -6.7512    0.0000 C   0  0  0  0  0  0  0  0  0  0  0  0
    8.0117   -6.3388    0.0000 C   0  0  0  0  0  0  0  0  0  0  0  0
  1  2  1  0  0  0  0
  2  3  2  0  0  0  0
  3  4  1  0  0  0  0
  4  5  1  0  0  0  0
  5  6  1  0  0  0  0
  6  1  2  0  0  0  0
  4  7  2  0  0  0  0
  7  8  1  0  0  0  0
  8  9  1  0  0  0  0
  9 10  1  0  0  0  0
 10  5  2  0  0  0  0
  8 11  2  0  0  0  0
 11 12  1  0  0  0  0
 12 13  2  0  0  0  0
 13 14  1  0  0  0  0
 14  9  2  0  0  0  0
M  END
>  <cdx:fragmentId>
5

$$$$
