92861.cdx
  Mrv1902 05222410222D          

 18 20  0  0  0  0            999 V2000
    6.0572   -6.7788    0.0000 C   0  0  0  0  0  0  0  0  0  0  0  0
    6.0572   -7.6037    0.0000 C   0  0  0  0  0  0  0  0  0  0  0  0
    6.7022   -8.1181    0.0000 C   0  0  0  0  0  0  0  0  0  0  0  0
    7.5065   -7.9345    0.0000 C   0  0  0  0  0  0  0  0  0  0  0  0
    7.8645   -7.1913    0.0000 C   0  0  0  0  0  0  0  0  0  0  0  0
    7.5065   -6.4480    0.0000 C   0  0  0  0  0  0  0  0  0  0  0  0
    6.7022   -6.2644    0.0000 C   0  0  0  0  0  0  0  0  0  0  0  0
    5.2726   -6.5238    0.0000 C   0  0  0  0  0  0  0  0  0  0  0  0
    4.7877   -7.1913    0.0000 C   0  0  0  0  0  0  0  0  0  0  0  0
    5.2726   -7.8587    0.0000 O   0  0  0  0  0  0  0  0  0  0  0  0
    6.6283   -8.9398    0.0000 C   0  0  0  0  0  0  0  0  0  0  0  0
    7.3869   -9.2641    0.0000 C   0  0  0  0  0  0  0  0  0  0  0  0
    7.9297   -8.6428    0.0000 C   0  0  0  0  0  0  0  0  0  0  0  0
    8.6895   -7.1913    0.0000 C   0  0  0  0  0  0  0  0  0  0  0  0
    5.9200   -9.3629    0.0000 C   0  0  0  0  0  0  0  0  0  0  0  0
    8.7514   -8.7167    0.0000 O   0  0  0  0  0  0  0  0  0  0  0  0
    3.9627   -7.1913    0.0000 O   0  0  0  0  0  0  0  0  0  0  0  0
    5.0176   -5.7392    0.0000 C   0  0  0  0  0  0  0  0  0  0  0  0
  1  2  1  0  0  0  0
  2  3  1  0  0  0  0
  3  4  1  0  0  0  0
  4  5  2  0  0  0  0
  5  6  1  0  0  0  0
  6  7  1  0  0  0  0
  7  1  1  0  0  0  0
  1  8  1  0  0  0  0
  8  9  1  0  0  0  0
  9 10  1  0  0  0  0
 10  2  1  0  0  0  0
  3 11  1  0  0  0  0
 11 12  2  0  0  0  0
 12 13  1  0  0  0  0
 13  4  1  0  0  0  0
  5 14  1  0  0  0  0
 11 15  1  0  0  0  0
 13 16  2  0  0  0  0
  9 17  2  0  0  0  0
  8 18  1  0  0  0  0
M  END
>  <cdx:fragmentId>
5

$$$$
