92877.cdx
  Mrv1902 05222410232D          

 49 54  0  0  0  0            999 V2000
    3.3256   -6.3662    0.0000 C   0  0  1  0  0  0  0  0  0  0  0  0
    3.3256   -7.1913    0.0000 C   0  0  1  0  0  0  0  0  0  0  0  0
    4.0400   -7.6037    0.0000 C   0  0  0  0  0  0  0  0  0  0  0  0
    4.7545   -7.1913    0.0000 C   0  0  1  0  0  0  0  0  0  0  0  0
    4.7545   -6.3662    0.0000 C   0  0  2  0  0  0  0  0  0  0  0  0
    4.0400   -5.9538    0.0000 C   0  0  0  0  0  0  0  0  0  0  0  0
    5.4690   -7.6037    0.0000 C   0  0  0  0  0  0  0  0  0  0  0  0
    6.1834   -7.1913    0.0000 C   0  0  0  0  0  0  0  0  0  0  0  0
    6.1834   -6.3662    0.0000 C   0  0  2  0  0  0  0  0  0  0  0  0
    5.4690   -5.9538    0.0000 C   0  0  2  0  0  0  0  0  0  0  0  0
    6.8979   -5.9538    0.0000 C   0  0  1  0  0  0  0  0  0  0  0  0
    6.8979   -5.1287    0.0000 C   0  0  0  0  0  0  0  0  0  0  0  0
    6.1834   -4.7162    0.0000 C   0  0  0  0  0  0  0  0  0  0  0  0
    5.4690   -5.1287    0.0000 C   0  0  0  0  0  0  0  0  0  0  0  0
    7.6124   -6.3662    0.0000 C   0  0  0  0  0  0  0  0  0  0  0  0
    8.3269   -5.9538    0.0000 C   0  0  0  0  0  0  0  0  0  0  0  0
    8.3269   -5.1287    0.0000 C   0  0  2  0  0  0  0  0  0  0  0  0
    7.6124   -4.7162    0.0000 C   0  0  1  0  0  0  0  0  0  0  0  0
    9.0413   -4.7162    0.0000 C   0  0  0  0  0  0  0  0  0  0  0  0
    9.0413   -3.8912    0.0000 C   0  0  0  0  0  0  0  0  0  0  0  0
    8.3269   -3.4788    0.0000 C   0  0  0  0  0  0  0  0  0  0  0  0
    7.6124   -3.8912    0.0000 C   0  0  1  0  0  0  0  0  0  0  0  0
    3.6275   -8.3182    0.0000 C   0  0  0  0  0  0  0  0  0  0  0  0
    4.4525   -8.3182    0.0000 C   0  0  0  0  0  0  0  0  0  0  0  0
    7.9144   -2.7643    0.0000 C   0  0  0  0  0  0  0  0  0  0  0  0
    8.7394   -2.7643    0.0000 C   0  0  0  0  0  0  0  0  0  0  0  0
    9.0413   -5.5413    0.0000 C   0  0  0  0  0  0  0  0  0  0  0  0
    9.7558   -5.1287    0.0000 O   0  0  0  0  0  0  0  0  0  0  0  0
    9.0413   -6.3662    0.0000 O   0  0  0  0  0  0  0  0  0  0  0  0
    2.6111   -7.6037    0.0000 O   0  0  0  0  0  0  0  0  0  0  0  0
    4.7545   -5.5413    0.0000 C   0  0  0  0  0  0  0  0  0  0  0  0
    6.1834   -5.5413    0.0000 C   0  0  0  0  0  0  0  0  0  0  0  0
    6.8979   -4.3037    0.0000 H   0  0  0  0  0  0  0  0  0  0  0  0
    8.6288   -7.0807    0.0000 C   0  0  2  0  0  0  0  0  0  0  0  0
    7.8038   -7.0807    0.0000 O   0  0  0  0  0  0  0  0  0  0  0  0
    7.3913   -7.7952    0.0000 C   0  0  1  0  0  0  0  0  0  0  0  0
    7.8038   -8.5097    0.0000 C   0  0  2  0  0  0  0  0  0  0  0  0
    8.6288   -8.5097    0.0000 C   0  0  1  0  0  0  0  0  0  0  0  0
    9.0413   -7.7952    0.0000 C   0  0  1  0  0  0  0  0  0  0  0  0
    6.5663   -7.7952    0.0000 C   0  0  0  0  0  0  0  0  0  0  0  0
    9.0413   -9.2241    0.0000 O   0  0  0  0  0  0  0  0  0  0  0  0
    9.8663   -7.7952    0.0000 O   0  0  0  0  0  0  0  0  0  0  0  0
    7.3913   -9.2241    0.0000 O   0  0  0  0  0  0  0  0  0  0  0  0
    6.1538   -8.5097    0.0000 O   0  0  0  0  0  0  0  0  0  0  0  0
    6.8979   -3.4788    0.0000 O   0  0  0  0  0  0  0  0  0  0  0  0
    6.8979   -6.7788    0.0000 C   0  0  0  0  0  0  0  0  0  0  0  0
    5.4690   -6.7788    0.0000 H   0  0  0  0  0  0  0  0  0  0  0  0
    4.7545   -8.0162    0.0000 H   0  0  0  0  0  0  0  0  0  0  0  0
    2.6111   -5.9538    0.0000 O   0  0  0  0  0  0  0  0  0  0  0  0
  1  2  1  0  0  0  0
  2  3  1  0  0  0  0
  3  4  1  0  0  0  0
  4  5  1  0  0  0  0
  5  6  1  0  0  0  0
  6  1  1  0  0  0  0
  4  7  1  0  0  0  0
  7  8  1  0  0  0  0
  8  9  1  0  0  0  0
  9 10  1  0  0  0  0
 10  5  1  0  0  0  0
  9 11  1  0  0  0  0
 11 12  1  0  0  0  0
 12 13  2  0  0  0  0
 13 14  1  0  0  0  0
 14 10  1  0  0  0  0
 11 15  1  0  0  0  0
 15 16  1  0  0  0  0
 16 17  1  0  0  0  0
 17 18  1  0  0  0  0
 18 12  1  0  0  0  0
 17 19  1  0  0  0  0
 19 20  1  0  0  0  0
 20 21  1  0  0  0  0
 21 22  1  0  0  0  0
 22 18  1  0  0  0  0
  3 23  1  0  0  0  0
  3 24  1  0  0  0  0
 21 25  1  0  0  0  0
 21 26  1  0  0  0  0
 17 27  1  1  0  0  0
 27 28  2  0  0  0  0
 27 29  1  0  0  0  0
  2 30  1  1  0  0  0
  5 31  1  1  0  0  0
  9 32  1  1  0  0  0
 18 33  1  1  0  0  0
 34 29  1  1  0  0  0
 34 35  1  0  0  0  0
 35 36  1  0  0  0  0
 36 37  1  0  0  0  0
 37 38  1  0  0  0  0
 38 39  1  0  0  0  0
 39 34  1  0  0  0  0
 36 40  1  1  0  0  0
 38 41  1  1  0  0  0
 39 42  1  6  0  0  0
 37 43  1  6  0  0  0
 40 44  1  0  0  0  0
 22 45  1  6  0  0  0
 11 46  1  6  0  0  0
 10 47  1  6  0  0  0
  4 48  1  6  0  0  0
  1 49  1  6  0  0  0
M  END
>  <cdx:fragmentId>
5

$$$$
