92873.cdx
  Mrv1902 05222410202D          

 42 46  0  0  0  0            999 V2000
    5.9106   -5.3487    0.0000 C   0  0  0  0  0  0  0  0  0  0  0  0
    5.9106   -6.1737    0.0000 C   0  0  0  0  0  0  0  0  0  0  0  0
    6.6250   -6.5863    0.0000 C   0  0  0  0  0  0  0  0  0  0  0  0
    7.3395   -6.1737    0.0000 C   0  0  0  0  0  0  0  0  0  0  0  0
    7.3395   -5.3487    0.0000 C   0  0  0  0  0  0  0  0  0  0  0  0
    6.6250   -4.9363    0.0000 C   0  0  0  0  0  0  0  0  0  0  0  0
    8.0540   -6.5863    0.0000 C   0  0  0  0  0  0  0  0  0  0  0  0
    8.7684   -6.1737    0.0000 C   0  0  0  0  0  0  0  0  0  0  0  0
    8.7684   -5.3487    0.0000 C   0  0  0  0  0  0  0  0  0  0  0  0
    8.0540   -4.9363    0.0000 O   0  0  0  0  0  0  0  0  0  0  0  0
    6.6250   -7.4112    0.0000 O   0  0  0  0  0  0  0  0  0  0  0  0
    8.0540   -7.4112    0.0000 O   0  0  0  0  0  0  0  0  0  0  0  0
   10.1974   -5.3487    0.0000 C   0  0  0  0  0  0  0  0  0  0  0  0
    9.4829   -4.9363    0.0000 C   0  0  0  0  0  0  0  0  0  0  0  0
   10.9119   -4.9363    0.0000 C   0  0  0  0  0  0  0  0  0  0  0  0
   10.9119   -4.1113    0.0000 C   0  0  0  0  0  0  0  0  0  0  0  0
   10.1974   -3.6988    0.0000 C   0  0  0  0  0  0  0  0  0  0  0  0
    9.4829   -4.1113    0.0000 C   0  0  0  0  0  0  0  0  0  0  0  0
   11.6263   -3.6988    0.0000 O   0  0  0  0  0  0  0  0  0  0  0  0
    5.1961   -4.9363    0.0000 O   0  0  0  0  0  0  0  0  0  0  0  0
    5.1961   -6.5863    0.0000 C   0  0  0  0  0  0  0  0  0  0  0  0
    4.4816   -6.1737    0.0000 O   0  0  0  0  0  0  0  0  0  0  0  0
    3.7671   -6.5863    0.0000 C   0  0  1  0  0  0  0  0  0  0  0  0
    3.7671   -7.4112    0.0000 C   0  0  2  0  0  0  0  0  0  0  0  0
    4.4816   -7.8237    0.0000 C   0  0  1  0  0  0  0  0  0  0  0  0
    5.1961   -7.4112    0.0000 C   0  0  1  0  0  0  0  0  0  0  0  0
    3.0527   -6.1737    0.0000 C   0  0  0  0  0  0  0  0  0  0  0  0
    4.4816   -8.6487    0.0000 O   0  0  0  0  0  0  0  0  0  0  0  0
    3.0527   -7.8237    0.0000 O   0  0  0  0  0  0  0  0  0  0  0  0
    5.9106   -7.8237    0.0000 O   0  0  0  0  0  0  0  0  0  0  0  0
    2.3382   -6.5863    0.0000 O   0  0  0  0  0  0  0  0  0  0  0  0
    5.9106   -8.6487    0.0000 C   0  0  2  0  0  0  0  0  0  0  0  0
    5.1961   -9.0613    0.0000 O   0  0  0  0  0  0  0  0  0  0  0  0
    5.1961   -9.8863    0.0000 C   0  0  1  0  0  0  0  0  0  0  0  0
    5.9106  -10.2988    0.0000 C   0  0  2  0  0  0  0  0  0  0  0  0
    6.6250   -9.8863    0.0000 C   0  0  1  0  0  0  0  0  0  0  0  0
    6.6250   -9.0613    0.0000 C   0  0  1  0  0  0  0  0  0  0  0  0
    4.4816  -10.2988    0.0000 C   0  0  0  0  0  0  0  0  0  0  0  0
    7.3395  -10.2988    0.0000 O   0  0  0  0  0  0  0  0  0  0  0  0
    7.3395   -8.6487    0.0000 O   0  0  0  0  0  0  0  0  0  0  0  0
    5.9106  -11.1237    0.0000 O   0  0  0  0  0  0  0  0  0  0  0  0
    4.4816  -11.1237    0.0000 O   0  0  0  0  0  0  0  0  0  0  0  0
  1  2  2  0  0  0  0
  2  3  1  0  0  0  0
  3  4  2  0  0  0  0
  4  5  1  0  0  0  0
  5  6  2  0  0  0  0
  6  1  1  0  0  0  0
  4  7  1  0  0  0  0
  7  8  1  0  0  0  0
  8  9  2  0  0  0  0
  9 10  1  0  0  0  0
 10  5  1  0  0  0  0
  3 11  1  0  0  0  0
 12  7  2  0  0  0  0
 13 14  2  0  0  0  0
 14  9  1  0  0  0  0
 13 15  1  0  0  0  0
 15 16  2  0  0  0  0
 16 17  1  0  0  0  0
 17 18  2  0  0  0  0
 18 14  1  0  0  0  0
 16 19  1  0  0  0  0
  1 20  1  0  0  0  0
  2 21  1  0  0  0  0
 21 22  1  0  0  0  0
 22 23  1  0  0  0  0
 23 24  1  0  0  0  0
 24 25  1  0  0  0  0
 25 26  1  0  0  0  0
 26 21  1  0  0  0  0
 23 27  1  1  0  0  0
 25 28  1  1  0  0  0
 24 29  1  6  0  0  0
 26 30  1  6  0  0  0
 27 31  1  0  0  0  0
 32 30  1  1  0  0  0
 32 33  1  0  0  0  0
 33 34  1  0  0  0  0
 34 35  1  0  0  0  0
 35 36  1  0  0  0  0
 36 37  1  0  0  0  0
 37 32  1  0  0  0  0
 34 38  1  1  0  0  0
 36 39  1  1  0  0  0
 37 40  1  6  0  0  0
 35 41  1  6  0  0  0
 38 42  1  0  0  0  0
M  END
>  <cdx:fragmentId>
5

$$$$
