92878.cdx
  Mrv1902 05222410242D          

 12 13  0  0  0  0            999 V2000
    5.7628   -6.9535    0.0000 O   0  0  0  0  0  0  0  0  0  0  0  0
    6.5597   -6.7400    0.0000 C   0  0  0  0  0  0  0  0  0  0  0  0
    7.3566   -6.9535    0.0000 C   0  0  0  0  0  0  0  0  0  0  0  0
    5.6116   -6.2528    0.0000 O   0  0  0  0  0  0  0  0  0  0  0  0
    7.7691   -6.2390    0.0000 C   0  0  0  0  0  0  0  0  0  0  0  0
    6.9722   -6.0255    0.0000 C   0  0  0  0  0  0  0  0  0  0  0  0
    6.2022   -5.2962    0.0000 C   0  0  0  0  0  0  0  0  0  0  0  0
    6.9722   -5.2005    0.0000 C   0  0  0  0  0  0  0  0  0  0  0  0
    7.5556   -5.4421    0.0000 C   0  0  0  0  0  0  0  0  0  0  0  0
    6.3947   -7.4687    0.0000 C   0  0  0  0  0  0  0  0  0  0  0  0
    7.1092   -7.8812    0.0000 C   0  0  0  0  0  0  0  0  0  0  0  0
    5.6802   -7.8812    0.0000 C   0  0  0  0  0  0  0  0  0  0  0  0
  1  2  1  0  0  0  0
  2  3  1  0  0  0  0
  1  4  1  0  0  0  0
  3  5  1  0  0  0  0
  4  6  1  0  0  0  0
  6  5  1  0  0  0  0
  2  7  1  0  0  0  0
  6  8  1  0  0  0  0
  8  7  2  0  0  0  0
  6  9  1  0  0  0  0
  2 10  1  0  0  0  0
 10 11  1  0  0  0  0
 10 12  1  0  0  0  0
M  END
>  <cdx:fragmentId>
802

$$$$
