92879.cdx
  Mrv1902 05222410242D          

 13 15  0  0  0  0            999 V2000
    7.1500   -4.3175    0.0000 C   0  0  0  0  0  0  0  0  0  0  0  0
    7.5625   -5.2525    0.0000 C   0  0  0  0  0  0  0  0  0  0  0  0
    6.4272   -5.4228    0.0000 C   0  0  0  0  0  0  0  0  0  0  0  0
    6.4474   -6.2475    0.0000 C   0  0  0  0  0  0  0  0  0  0  0  0
    7.5625   -6.0775    0.0000 C   0  0  0  0  0  0  0  0  0  0  0  0
    6.7650   -4.8675    0.0000 C   0  0  0  0  0  0  0  0  0  0  0  0
    7.7760   -4.4556    0.0000 C   0  0  0  0  0  0  0  0  0  0  0  0
    5.7230   -5.8527    0.0000 O   0  0  0  0  0  0  0  0  0  0  0  0
    7.5075   -6.8200    0.0000 C   0  0  0  0  0  0  0  0  0  0  0  0
    8.2220   -7.2325    0.0000 C   0  0  0  0  0  0  0  0  0  0  0  0
    6.7930   -7.2325    0.0000 C   0  0  0  0  0  0  0  0  0  0  0  0
    8.7175   -5.6100    0.0000 O   0  0  0  0  0  0  0  0  0  0  0  0
    8.5525   -6.4350    0.0000 O   0  0  0  0  0  0  0  0  0  0  0  0
  1  2  1  0  0  0  0
  2  3  1  0  0  0  0
  3  4  1  0  0  0  0
  4  5  1  0  0  0  0
  5  6  1  0  0  0  0
  6  1  1  0  0  0  0
  2  7  1  0  0  0  0
  3  8  1  0  0  0  0
  4  8  1  0  0  0  0
  5  9  1  0  0  0  0
  9 10  1  0  0  0  0
  9 11  1  0  0  0  0
  2 12  1  0  0  0  0
 12 13  1  0  0  0  0
 13  5  1  0  0  0  0
M  END
>  <cdx:fragmentId>
5

$$$$
