92876.cdx
  Mrv1902 05222410222D          

 35 39  0  0  0  0            999 V2000
    5.3983   -7.1011    0.0000 O   0  0  0  0  0  0  0  0  0  0  0  0
    4.9138   -6.4333    0.0000 C   0  0  0  0  0  0  0  0  0  0  0  0
    5.3991   -5.7662    0.0000 O   0  0  0  0  0  0  0  0  0  0  0  0
    6.1836   -6.0216    0.0000 C   0  0  0  0  0  0  0  0  0  0  0  0
    6.1831   -6.8466    0.0000 C   0  0  0  0  0  0  0  0  0  0  0  0
    6.8983   -5.6095    0.0000 C   0  0  0  0  0  0  0  0  0  0  0  0
    7.6125   -6.0224    0.0000 C   0  0  0  0  0  0  0  0  0  0  0  0
    7.6121   -6.8474    0.0000 C   0  0  0  0  0  0  0  0  0  0  0  0
    6.8973   -7.2595    0.0000 C   0  0  0  0  0  0  0  0  0  0  0  0
    8.3263   -7.2603    0.0000 C   0  0  0  0  0  0  0  0  0  0  0  0
    8.3258   -8.0853    0.0000 C   0  0  0  0  0  0  0  0  0  0  0  0
    7.6111   -8.4974    0.0000 C   0  0  0  0  0  0  0  0  0  0  0  0
    7.6106   -9.3224    0.0000 C   0  0  0  0  0  0  0  0  0  0  0  0
    6.8959   -9.7345    0.0000 C   0  0  0  0  0  0  0  0  0  0  0  0
    6.1817   -9.3216    0.0000 C   0  0  0  0  0  0  0  0  0  0  0  0
    6.1822   -8.4966    0.0000 C   0  0  0  0  0  0  0  0  0  0  0  0
    6.8969   -8.0845    0.0000 C   0  0  0  0  0  0  0  0  0  0  0  0
    8.2448   -5.4925    0.0000 C   0  0  0  0  0  0  0  0  0  0  0  0
    9.0199   -5.7751    0.0000 O   0  0  0  0  0  0  0  0  0  0  0  0
    8.1021   -4.6799    0.0000 O   0  0  0  0  0  0  0  0  0  0  0  0
    9.1017   -6.9786    0.0000 N   0  3  0  0  0  0  0  0  0  0  0  0
    9.7334   -7.5093    0.0000 O   0  0  0  0  0  0  0  0  0  0  0  0
    9.2454   -6.1663    0.0000 O   0  5  0  0  0  0  0  0  0  0  0  0
    5.4670   -9.7337    0.0000 O   0  0  0  0  0  0  0  0  0  0  0  0
    5.4670  -10.5587    0.0000 C   0  0  2  0  0  0  0  0  0  0  0  0
    4.7525  -10.9712    0.0000 O   0  0  0  0  0  0  0  0  0  0  0  0
    4.7525  -11.7962    0.0000 C   0  0  1  0  0  0  0  0  0  0  0  0
    5.4670  -12.2087    0.0000 C   0  0  2  0  0  0  0  0  0  0  0  0
    6.1814  -11.7962    0.0000 C   0  0  1  0  0  0  0  0  0  0  0  0
    6.1814  -10.9712    0.0000 C   0  0  1  0  0  0  0  0  0  0  0  0
    4.0380  -12.2087    0.0000 C   0  0  0  0  0  0  0  0  0  0  0  0
    6.8959  -12.2087    0.0000 O   0  0  0  0  0  0  0  0  0  0  0  0
    6.8959  -10.5587    0.0000 O   0  0  0  0  0  0  0  0  0  0  0  0
    5.4670  -13.0337    0.0000 O   0  0  0  0  0  0  0  0  0  0  0  0
    4.0380  -13.0337    0.0000 O   0  0  0  0  0  0  0  0  0  0  0  0
  1  2  1  0  0  0  0
  2  3  1  0  0  0  0
  3  4  1  0  0  0  0
  4  5  1  0  0  0  0
  1  5  1  0  0  0  0
  6  7  1  0  0  0  0
  7  8  2  0  0  0  0
  8  9  1  0  0  0  0
  9  5  2  0  0  0  0
  6  4  2  0  0  0  0
 10 11  2  0  0  0  0
 11 12  1  0  0  0  0
 12 13  2  0  0  0  0
 13 14  1  0  0  0  0
 14 15  2  0  0  0  0
 15 16  1  0  0  0  0
 16 17  2  0  0  0  0
 12 17  1  0  0  0  0
 10  8  1  0  0  0  0
 17  9  1  0  0  0  0
 18 19  2  0  0  0  0
 18 20  1  0  0  0  0
  7 18  1  0  0  0  0
 21 22  2  0  0  0  0
 21 23  1  0  0  0  0
 10 21  1  0  0  0  0
 15 24  1  0  0  0  0
 25 24  1  1  0  0  0
 25 26  1  0  0  0  0
 26 27  1  0  0  0  0
 27 28  1  0  0  0  0
 28 29  1  0  0  0  0
 29 30  1  0  0  0  0
 30 25  1  0  0  0  0
 27 31  1  1  0  0  0
 29 32  1  1  0  0  0
 30 33  1  6  0  0  0
 28 34  1  6  0  0  0
 31 35  1  0  0  0  0
M  CHG  2  21   1  23  -1
M  END
>  <cdx:fragmentId>
5

$$$$
