92882.cdx
  Mrv1902 05222410252D          

 11 11  0  0  0  0            999 V2000
    6.6256   -8.0437    0.0000 C   0  0  0  0  0  0  0  0  0  0  0  0
    6.6256   -8.8688    0.0000 C   0  0  0  0  0  0  0  0  0  0  0  0
    7.3400   -9.2813    0.0000 C   0  0  0  0  0  0  0  0  0  0  0  0
    8.0545   -8.8688    0.0000 C   0  0  0  0  0  0  0  0  0  0  0  0
    8.0545   -8.0437    0.0000 C   0  0  0  0  0  0  0  0  0  0  0  0
    7.3400   -7.6313    0.0000 C   0  0  0  0  0  0  0  0  0  0  0  0
    7.3400   -6.8062    0.0000 C   0  0  0  0  0  0  0  0  0  0  0  0
    6.6256   -6.3937    0.0000 C   0  0  0  0  0  0  0  0  0  0  0  0
    8.0545   -6.3937    0.0000 C   0  0  0  0  0  0  0  0  0  0  0  0
    6.6256   -5.5687    0.0000 C   0  0  0  0  0  0  0  0  0  0  0  0
    8.0545   -5.5687    0.0000 O   0  0  0  0  0  0  0  0  0  0  0  0
  1  2  2  0  0  0  0
  2  3  1  0  0  0  0
  3  4  2  0  0  0  0
  4  5  1  0  0  0  0
  5  6  2  0  0  0  0
  6  1  1  0  0  0  0
  6  7  1  0  0  0  0
  7  8  2  0  0  0  0
  7  9  1  0  0  0  0
  8 10  1  0  0  0  0
  9 11  2  0  0  0  0
M  END
>  <cdx:fragmentId>
5

$$$$
