92888.cdx
  Mrv1902 05222410232D          

 30 32  0  0  0  0            999 V2000
   11.7929   -8.3171    0.0000 C   0  0  0  0  0  0  0  0  0  0  0  0
   12.5116   -7.9120    0.0000 C   0  0  0  0  0  0  0  0  0  0  0  0
   12.5202   -7.0871    0.0000 C   0  0  0  0  0  0  0  0  0  0  0  0
   11.8100   -6.6672    0.0000 C   0  0  0  0  0  0  0  0  0  0  0  0
   11.0913   -7.0723    0.0000 C   0  0  0  0  0  0  0  0  0  0  0  0
   11.0828   -7.8972    0.0000 C   0  0  0  0  0  0  0  0  0  0  0  0
   10.3641   -8.3023    0.0000 C   0  0  0  0  0  0  0  0  0  0  0  0
    9.6539   -7.8824    0.0000 O   0  0  0  0  0  0  0  0  0  0  0  0
    7.5073   -8.2788    0.0000 C   0  0  2  0  0  0  0  0  0  0  0  0
    7.4963   -9.1037    0.0000 C   0  0  2  0  0  0  0  0  0  0  0  0
    8.2052   -9.5257    0.0000 C   0  0  1  0  0  0  0  0  0  0  0  0
    8.9251   -9.1228    0.0000 C   0  0  2  0  0  0  0  0  0  0  0  0
    8.9361   -8.2978    0.0000 C   0  0  1  0  0  0  0  0  0  0  0  0
    8.2272   -7.8759    0.0000 O   0  0  0  0  0  0  0  0  0  0  0  0
    6.7983   -7.8568    0.0000 C   0  0  0  0  0  0  0  0  0  0  0  0
    8.1942  -10.3506    0.0000 O   0  0  0  0  0  0  0  0  0  0  0  0
    6.0784   -8.2597    0.0000 O   0  0  0  0  0  0  0  0  0  0  0  0
    6.7764   -9.5067    0.0000 O   0  0  0  0  0  0  0  0  0  0  0  0
    9.6340   -9.5448    0.0000 O   0  0  0  0  0  0  0  0  0  0  0  0
    4.6580   -6.5634    0.0000 C   0  0  2  0  0  0  0  0  0  0  0  0
    3.9349   -6.9605    0.0000 C   0  0  2  0  0  0  0  0  0  0  0  0
    3.9173   -7.7853    0.0000 C   0  0  1  0  0  0  0  0  0  0  0  0
    4.6228   -8.2130    0.0000 C   0  0  2  0  0  0  0  0  0  0  0  0
    5.3459   -7.8158    0.0000 C   0  0  1  0  0  0  0  0  0  0  0  0
    5.3635   -6.9910    0.0000 O   0  0  0  0  0  0  0  0  0  0  0  0
    4.6756   -5.7386    0.0000 C   0  0  0  0  0  0  0  0  0  0  0  0
    3.1942   -8.1825    0.0000 O   0  0  0  0  0  0  0  0  0  0  0  0
    3.9701   -5.3109    0.0000 O   0  0  0  0  0  0  0  0  0  0  0  0
    3.2294   -6.5329    0.0000 O   0  0  0  0  0  0  0  0  0  0  0  0
    4.6052   -9.0378    0.0000 O   0  0  0  0  0  0  0  0  0  0  0  0
  1  2  2  0  0  0  0
  2  3  1  0  0  0  0
  3  4  2  0  0  0  0
  4  5  1  0  0  0  0
  5  6  2  0  0  0  0
  6  1  1  0  0  0  0
  6  7  1  0  0  0  0
  7  8  1  0  0  0  0
  9 10  1  0  0  0  0
 10 11  1  0  0  0  0
 11 12  1  0  0  0  0
 12 13  1  0  0  0  0
 13 14  1  0  0  0  0
 14  9  1  0  0  0  0
  9 15  1  1  0  0  0
 11 16  1  1  0  0  0
 15 17  1  0  0  0  0
 10 18  1  6  0  0  0
 12 19  1  6  0  0  0
 13  8  1  1  0  0  0
 20 21  1  0  0  0  0
 21 22  1  0  0  0  0
 22 23  1  0  0  0  0
 23 24  1  0  0  0  0
 24 25  1  0  0  0  0
 25 20  1  0  0  0  0
 20 26  1  1  0  0  0
 22 27  1  1  0  0  0
 26 28  1  0  0  0  0
 21 29  1  6  0  0  0
 23 30  1  6  0  0  0
 24 17  1  1  0  0  0
M  END
>  <cdx:fragmentId>
28

$$$$
