92887.cdx
  Mrv1902 05222410242D          

 30 32  0  0  0  0            999 V2000
    9.4823   -7.2020    0.0000 C   0  0  0  0  0  0  0  0  0  0  0  0
   10.1954   -6.7872    0.0000 C   0  0  0  0  0  0  0  0  0  0  0  0
   10.1927   -5.9622    0.0000 C   0  0  0  0  0  0  0  0  0  0  0  0
    9.4769   -5.5520    0.0000 C   0  0  0  0  0  0  0  0  0  0  0  0
    8.7638   -5.9669    0.0000 C   0  0  0  0  0  0  0  0  0  0  0  0
    8.7665   -6.7919    0.0000 C   0  0  0  0  0  0  0  0  0  0  0  0
    8.0534   -7.2067    0.0000 C   0  0  0  0  0  0  0  0  0  0  0  0
    7.3375   -6.7966    0.0000 O   0  0  0  0  0  0  0  0  0  0  0  0
    5.1965   -7.2223    0.0000 C   0  0  2  0  0  0  0  0  0  0  0  0
    5.1968   -8.0473    0.0000 C   0  0  2  0  0  0  0  0  0  0  0  0
    5.9114   -8.4595    0.0000 C   0  0  1  0  0  0  0  0  0  0  0  0
    6.6257   -8.0468    0.0000 C   0  0  2  0  0  0  0  0  0  0  0  0
    6.6255   -7.2218    0.0000 C   0  0  1  0  0  0  0  0  0  0  0  0
    5.9108   -6.8095    0.0000 O   0  0  0  0  0  0  0  0  0  0  0  0
    4.4819   -6.8100    0.0000 C   0  0  0  0  0  0  0  0  0  0  0  0
    5.9117   -9.2845    0.0000 O   0  0  0  0  0  0  0  0  0  0  0  0
    3.7676   -7.2228    0.0000 O   0  0  0  0  0  0  0  0  0  0  0  0
    4.4825   -8.4600    0.0000 O   0  0  0  0  0  0  0  0  0  0  0  0
    7.3403   -8.4591    0.0000 O   0  0  0  0  0  0  0  0  0  0  0  0
    6.6321  -10.5385    0.0000 C   0  0  2  0  0  0  0  0  0  0  0  0
    7.3451  -10.9535    0.0000 C   0  0  2  0  0  0  0  0  0  0  0  0
    8.0610  -10.5435    0.0000 C   0  0  1  0  0  0  0  0  0  0  0  0
    8.0640   -9.7185    0.0000 C   0  0  2  0  0  0  0  0  0  0  0  0
    7.3510   -9.3035    0.0000 C   0  0  1  0  0  0  0  0  0  0  0  0
    6.6350   -9.7135    0.0000 O   0  0  0  0  0  0  0  0  0  0  0  0
    5.9162  -10.9484    0.0000 C   0  0  0  0  0  0  0  0  0  0  0  0
    8.7741  -10.9586    0.0000 O   0  0  0  0  0  0  0  0  0  0  0  0
    5.9133  -11.7734    0.0000 O   0  0  0  0  0  0  0  0  0  0  0  0
    7.3422  -11.7785    0.0000 O   0  0  0  0  0  0  0  0  0  0  0  0
    8.7799   -9.3086    0.0000 O   0  0  0  0  0  0  0  0  0  0  0  0
  1  2  2  0  0  0  0
  2  3  1  0  0  0  0
  3  4  2  0  0  0  0
  4  5  1  0  0  0  0
  5  6  2  0  0  0  0
  6  1  1  0  0  0  0
  6  7  1  0  0  0  0
  7  8  1  0  0  0  0
  9 10  1  0  0  0  0
 10 11  1  0  0  0  0
 11 12  1  0  0  0  0
 12 13  1  0  0  0  0
 13 14  1  0  0  0  0
 14  9  1  0  0  0  0
  9 15  1  1  0  0  0
 11 16  1  1  0  0  0
 15 17  1  0  0  0  0
 10 18  1  6  0  0  0
 12 19  1  6  0  0  0
 13  8  1  1  0  0  0
 20 21  1  0  0  0  0
 21 22  1  0  0  0  0
 22 23  1  0  0  0  0
 23 24  1  0  0  0  0
 24 25  1  0  0  0  0
 25 20  1  0  0  0  0
 20 26  1  1  0  0  0
 22 27  1  1  0  0  0
 26 28  1  0  0  0  0
 21 29  1  6  0  0  0
 23 30  1  6  0  0  0
 24 19  1  1  0  0  0
M  END
>  <cdx:fragmentId>
28

$$$$
