92885.cdx
  Mrv1902 05222410232D          

 14 15  0  0  0  0            999 V2000
    5.5690   -7.4552    0.0000 C   0  0  0  0  0  0  0  0  0  0  0  0
    4.8556   -7.8695    0.0000 C   0  0  0  0  0  0  0  0  0  0  0  0
    4.8577   -8.6945    0.0000 C   0  0  0  0  0  0  0  0  0  0  0  0
    5.5732   -9.1052    0.0000 C   0  0  0  0  0  0  0  0  0  0  0  0
    6.2866   -8.6909    0.0000 C   0  0  0  0  0  0  0  0  0  0  0  0
    6.2845   -7.8659    0.0000 C   0  0  0  0  0  0  0  0  0  0  0  0
    6.9979   -7.4515    0.0000 C   0  0  0  0  0  0  0  0  0  0  0  0
    6.9958   -6.6266    0.0000 O   0  0  0  0  0  0  0  0  0  0  0  0
    7.7135   -7.8622    0.0000 C   0  0  0  0  0  0  0  0  0  0  0  0
    7.7156   -8.6872    0.0000 C   0  0  0  0  0  0  0  0  0  0  0  0
    8.4311   -9.0979    0.0000 C   0  0  0  0  0  0  0  0  0  0  0  0
    9.1445   -8.6835    0.0000 C   0  0  0  0  0  0  0  0  0  0  0  0
    9.1424   -7.8586    0.0000 C   0  0  0  0  0  0  0  0  0  0  0  0
    8.4269   -7.4479    0.0000 C   0  0  0  0  0  0  0  0  0  0  0  0
  1  2  2  0  0  0  0
  2  3  1  0  0  0  0
  3  4  2  0  0  0  0
  4  5  1  0  0  0  0
  5  6  2  0  0  0  0
  6  1  1  0  0  0  0
  6  7  1  0  0  0  0
  7  8  2  0  0  0  0
  7  9  1  0  0  0  0
  9 10  2  0  0  0  0
 10 11  1  0  0  0  0
 11 12  2  0  0  0  0
 12 13  1  0  0  0  0
 13 14  2  0  0  0  0
 14  9  1  0  0  0  0
M  END
>  <cdx:fragmentId>
5

$$$$
