92880.cdx
  Mrv1902 05222410252D          

 14 16  0  0  0  0            999 V2000
    4.8518   -6.9162    0.0000 C   0  0  0  0  0  0  0  0  0  0  0  0
    4.8518   -7.7413    0.0000 C   0  0  0  0  0  0  0  0  0  0  0  0
    5.5663   -8.1538    0.0000 C   0  0  0  0  0  0  0  0  0  0  0  0
    6.2807   -7.7413    0.0000 C   0  0  0  0  0  0  0  0  0  0  0  0
    6.2807   -6.9162    0.0000 C   0  0  0  0  0  0  0  0  0  0  0  0
    5.5663   -6.5038    0.0000 C   0  0  0  0  0  0  0  0  0  0  0  0
    6.9952   -8.1538    0.0000 C   0  0  0  0  0  0  0  0  0  0  0  0
    7.7097   -7.7413    0.0000 C   0  0  0  0  0  0  0  0  0  0  0  0
    7.7097   -6.9162    0.0000 C   0  0  0  0  0  0  0  0  0  0  0  0
    6.9952   -6.5038    0.0000 C   0  0  0  0  0  0  0  0  0  0  0  0
    6.9952   -8.9788    0.0000 C   0  0  0  0  0  0  0  0  0  0  0  0
    7.7097   -9.3912    0.0000 C   0  0  0  0  0  0  0  0  0  0  0  0
    8.4242   -8.9788    0.0000 C   0  0  0  0  0  0  0  0  0  0  0  0
    8.4242   -8.1538    0.0000 N   0  0  0  0  0  0  0  0  0  0  0  0
  1  2  2  0  0  0  0
  2  3  1  0  0  0  0
  3  4  2  0  0  0  0
  4  5  1  0  0  0  0
  5  6  2  0  0  0  0
  6  1  1  0  0  0  0
  4  7  1  0  0  0  0
  7  8  2  0  0  0  0
  8  9  1  0  0  0  0
  9 10  2  0  0  0  0
 10  5  1  0  0  0  0
  7 11  1  0  0  0  0
 11 12  2  0  0  0  0
 12 13  1  0  0  0  0
 13 14  2  0  0  0  0
 14  8  1  0  0  0  0
M  END
>  <cdx:fragmentId>
5

$$$$
