92886.cdx
  Mrv1902 05222410242D          

  9 10  0  0  0  0            999 V2000
    4.6456   -6.9438    0.0000 C   0  0  0  0  0  0  0  0  0  0  0  0
    4.6456   -7.7687    0.0000 C   0  0  0  0  0  0  0  0  0  0  0  0
    5.3600   -8.1813    0.0000 C   0  0  0  0  0  0  0  0  0  0  0  0
    6.0745   -7.7687    0.0000 C   0  0  0  0  0  0  0  0  0  0  0  0
    6.0745   -6.9438    0.0000 C   0  0  0  0  0  0  0  0  0  0  0  0
    5.3600   -6.5313    0.0000 C   0  0  0  0  0  0  0  0  0  0  0  0
    6.8591   -8.0237    0.0000 N   0  0  0  0  0  0  0  0  0  0  0  0
    7.3440   -7.3563    0.0000 C   0  0  0  0  0  0  0  0  0  0  0  0
    6.8591   -6.6888    0.0000 S   0  0  0  0  0  0  0  0  0  0  0  0
  1  2  2  0  0  0  0
  2  3  1  0  0  0  0
  3  4  2  0  0  0  0
  4  5  1  0  0  0  0
  5  6  2  0  0  0  0
  6  1  1  0  0  0  0
  4  7  1  0  0  0  0
  7  8  2  0  0  0  0
  8  9  1  0  0  0  0
  9  5  1  0  0  0  0
M  END
>  <cdx:fragmentId>
5

$$$$
