92895.cdx
  Mrv1902 05222410262D          

 32 32  0  0  0  0            999 V2000
    6.5013  -10.2030    0.0000 C   0  0  0  0  0  0  0  0  0  0  0  0
    6.0888  -10.9175    0.0000 C   0  0  0  0  0  0  0  0  0  0  0  0
    6.5013  -11.6320    0.0000 C   0  0  0  0  0  0  0  0  0  0  0  0
    7.3263  -11.6320    0.0000 C   0  0  0  0  0  0  0  0  0  0  0  0
    7.7388  -10.9175    0.0000 C   0  0  0  0  0  0  0  0  0  0  0  0
    7.3263  -10.2030    0.0000 C   0  0  0  0  0  0  0  0  0  0  0  0
    7.7388   -9.4886    0.0000 C   0  0  0  0  0  0  0  0  0  0  0  0
    7.3263   -8.7741    0.0000 O   0  0  0  0  0  0  0  0  0  0  0  0
    8.5638   -9.4886    0.0000 O   0  0  0  0  0  0  0  0  0  0  0  0
    8.9763   -8.7741    0.0000 C   0  0  0  0  0  0  0  0  0  0  0  0
    9.8013   -8.7741    0.0000 C   0  0  0  0  0  0  0  0  0  0  0  0
   10.2138   -8.0596    0.0000 C   0  0  0  0  0  0  0  0  0  0  0  0
   11.0388   -8.0596    0.0000 C   0  0  0  0  0  0  0  0  0  0  0  0
   11.4513   -7.3451    0.0000 C   0  0  0  0  0  0  0  0  0  0  0  0
   11.0388   -6.6307    0.0000 C   0  0  0  0  0  0  0  0  0  0  0  0
    6.0888   -9.4886    0.0000 C   0  0  0  0  0  0  0  0  0  0  0  0
    6.5013   -8.7741    0.0000 O   0  0  0  0  0  0  0  0  0  0  0  0
    5.2638   -9.4886    0.0000 O   0  0  0  0  0  0  0  0  0  0  0  0
    4.8513   -8.7741    0.0000 C   0  0  0  0  0  0  0  0  0  0  0  0
    4.0263   -8.7741    0.0000 C   0  0  0  0  0  0  0  0  0  0  0  0
    3.6138   -8.0596    0.0000 C   0  0  0  0  0  0  0  0  0  0  0  0
    2.7888   -8.0596    0.0000 C   0  0  0  0  0  0  0  0  0  0  0  0
    2.3763   -7.3451    0.0000 C   0  0  0  0  0  0  0  0  0  0  0  0
    2.7888   -6.6307    0.0000 C   0  0  0  0  0  0  0  0  0  0  0  0
   10.2138   -9.4886    0.0000 C   0  0  0  0  0  0  0  0  0  0  0  0
   11.0388   -9.4886    0.0000 C   0  0  0  0  0  0  0  0  0  0  0  0
   11.4513  -10.2030    0.0000 C   0  0  0  0  0  0  0  0  0  0  0  0
   12.2763  -10.2030    0.0000 C   0  0  0  0  0  0  0  0  0  0  0  0
    3.6138   -9.4886    0.0000 C   0  0  0  0  0  0  0  0  0  0  0  0
    2.7888   -9.4886    0.0000 C   0  0  0  0  0  0  0  0  0  0  0  0
    2.3763  -10.2030    0.0000 C   0  0  0  0  0  0  0  0  0  0  0  0
    1.5513  -10.2030    0.0000 C   0  0  0  0  0  0  0  0  0  0  0  0
  1  2  2  0  0  0  0
  2  3  1  0  0  0  0
  3  4  2  0  0  0  0
  4  5  1  0  0  0  0
  5  6  2  0  0  0  0
  6  1  1  0  0  0  0
  6  7  1  0  0  0  0
  7  8  2  0  0  0  0
  7  9  1  0  0  0  0
  9 10  1  0  0  0  0
 10 11  1  0  0  0  0
 11 12  1  0  0  0  0
 12 13  1  0  0  0  0
 13 14  1  0  0  0  0
 14 15  1  0  0  0  0
  1 16  1  0  0  0  0
 16 17  2  0  0  0  0
 16 18  1  0  0  0  0
 18 19  1  0  0  0  0
 19 20  1  0  0  0  0
 20 21  1  0  0  0  0
 21 22  1  0  0  0  0
 22 23  1  0  0  0  0
 23 24  1  0  0  0  0
 11 25  1  0  0  0  0
 25 26  1  0  0  0  0
 26 27  1  0  0  0  0
 27 28  1  0  0  0  0
 20 29  1  0  0  0  0
 29 30  1  0  0  0  0
 30 31  1  0  0  0  0
 31 32  1  0  0  0  0
M  END
>  <cdx:fragmentId>
5

$$$$
