92899.cdx
  Mrv1902 05222410212D          

 33 36  0  0  0  0            999 V2000
    4.0131   -9.5563    0.0000 C   0  0  0  0  0  0  0  0  0  0  0  0
    4.0131  -10.3812    0.0000 C   0  0  1  0  0  0  0  0  0  0  0  0
    4.7275  -10.7937    0.0000 C   0  0  0  0  0  0  0  0  0  0  0  0
    5.4420  -10.3812    0.0000 C   0  0  0  0  0  0  0  0  0  0  0  0
    5.4420   -9.5563    0.0000 C   0  0  2  0  0  0  0  0  0  0  0  0
    4.7275   -9.1438    0.0000 C   0  0  0  0  0  0  0  0  0  0  0  0
    6.1565  -10.7937    0.0000 C   0  0  0  0  0  0  0  0  0  0  0  0
    6.8709  -10.3812    0.0000 C   0  0  0  0  0  0  0  0  0  0  0  0
    6.8709   -9.5563    0.0000 C   0  0  2  0  0  0  0  0  0  0  0  0
    6.1565   -9.1438    0.0000 C   0  0  2  0  0  0  0  0  0  0  0  0
    7.5854   -9.1438    0.0000 C   0  0  1  0  0  0  0  0  0  0  0  0
    7.5854   -8.3187    0.0000 C   0  0  1  0  0  0  0  0  0  0  0  0
    6.8709   -7.9063    0.0000 C   0  0  0  0  0  0  0  0  0  0  0  0
    6.1565   -8.3187    0.0000 C   0  0  0  0  0  0  0  0  0  0  0  0
    3.2986  -10.7937    0.0000 O   0  0  0  0  0  0  0  0  0  0  0  0
    5.4420   -8.7313    0.0000 C   0  0  0  0  0  0  0  0  0  0  0  0
    6.8709   -8.7313    0.0000 H   0  0  0  0  0  0  0  0  0  0  0  0
    7.5854   -7.4937    0.0000 C   0  0  0  0  0  0  0  0  0  0  0  0
    6.1565   -9.9687    0.0000 H   0  0  0  0  0  0  0  0  0  0  0  0
    7.5854   -9.9687    0.0000 H   0  0  0  0  0  0  0  0  0  0  0  0
    8.3700   -9.3987    0.0000 C   0  0  0  0  0  0  0  0  0  0  0  0
    8.8550   -8.7313    0.0000 C   0  0  0  0  0  0  0  0  0  0  0  0
    8.3700   -8.0638    0.0000 C   0  0  2  0  0  0  0  0  0  0  0  0
    8.6250   -7.2792    0.0000 C   0  0  2  0  0  0  0  0  0  0  0  0
    8.0729   -6.6661    0.0000 C   0  0  0  0  0  0  0  0  0  0  0  0
    9.4319   -7.1077    0.0000 C   0  0  0  0  0  0  0  0  0  0  0  0
    9.6869   -6.3230    0.0000 C   0  0  0  0  0  0  0  0  0  0  0  0
   10.4939   -6.1515    0.0000 C   0  0  2  0  0  0  0  0  0  0  0  0
   11.0459   -6.7646    0.0000 C   0  0  0  0  0  0  0  0  0  0  0  0
   10.7488   -5.3669    0.0000 C   0  0  0  0  0  0  0  0  0  0  0  0
   10.1968   -4.7538    0.0000 C   0  0  0  0  0  0  0  0  0  0  0  0
   11.5558   -5.1954    0.0000 C   0  0  0  0  0  0  0  0  0  0  0  0
    9.1547   -7.8089    0.0000 H   0  0  0  0  0  0  0  0  0  0  0  0
  1  2  1  0  0  0  0
  2  3  1  0  0  0  0
  3  4  1  0  0  0  0
  4  5  1  0  0  0  0
  5  6  1  0  0  0  0
  6  1  1  0  0  0  0
  4  7  2  0  0  0  0
  7  8  1  0  0  0  0
  8  9  1  0  0  0  0
  9 10  1  0  0  0  0
 10  5  1  0  0  0  0
  9 11  1  0  0  0  0
 11 12  1  0  0  0  0
 12 13  1  0  0  0  0
 13 14  1  0  0  0  0
 14 10  1  0  0  0  0
  2 15  1  1  0  0  0
  5 16  1  1  0  0  0
  9 17  1  1  0  0  0
 12 18  1  1  0  0  0
 10 19  1  6  0  0  0
 11 20  1  6  0  0  0
 11 21  1  0  0  0  0
 21 22  1  0  0  0  0
 22 23  1  0  0  0  0
 23 12  1  0  0  0  0
 23 24  1  0  0  0  0
 24 25  1  6  0  0  0
 24 26  1  0  0  0  0
 26 27  2  0  0  0  0
 27 28  1  0  0  0  0
 28 29  1  1  0  0  0
 28 30  1  0  0  0  0
 30 31  1  0  0  0  0
 30 32  1  0  0  0  0
 23 33  1  6  0  0  0
M  END
>  <cdx:fragmentId>
5

$$$$
