92894.cdx
  Mrv1902 05222410252D          

 50 53  0  0  0  0            999 V2000
   10.0977   -8.6366    0.0000 C   0  0  0  0  0  0  0  0  0  0  0  0
   10.8122   -8.2241    0.0000 C   0  0  1  0  0  0  0  0  0  0  0  0
   10.8122   -9.0491    0.0000 O   0  0  0  0  0  0  0  0  0  0  0  0
   11.5266   -8.6366    0.0000 C   0  0  0  0  0  0  0  0  0  0  0  0
   12.2411   -8.2241    0.0000 C   0  0  0  0  0  0  0  0  0  0  0  0
   10.0977   -9.4616    0.0000 O   0  0  0  0  0  0  0  0  0  0  0  0
    9.3832   -8.2241    0.0000 O   0  0  0  0  0  0  0  0  0  0  0  0
   12.2411   -7.3991    0.0000 O   0  0  0  0  0  0  0  0  0  0  0  0
   12.9556   -8.6366    0.0000 O   0  0  0  0  0  0  0  0  0  0  0  0
   10.8122   -7.3991    0.0000 C   0  0  0  0  0  0  0  0  0  0  0  0
   11.5266   -6.9866    0.0000 C   0  0  0  0  0  0  0  0  0  0  0  0
   10.0977   -6.9866    0.0000 C   0  0  0  0  0  0  0  0  0  0  0  0
    8.6688   -8.6366    0.0000 C   0  0  0  0  0  0  0  0  0  0  0  0
    7.9543   -8.2241    0.0000 C   0  0  0  0  0  0  0  0  0  0  0  0
    7.2398   -8.6366    0.0000 C   0  0  0  0  0  0  0  0  0  0  0  0
    6.5253   -8.2241    0.0000 C   0  0  0  0  0  0  0  0  0  0  0  0
    6.5253   -7.3991    0.0000 C   0  0  0  0  0  0  0  0  0  0  0  0
    7.2398   -6.9866    0.0000 C   0  0  0  0  0  0  0  0  0  0  0  0
    7.9543   -7.3991    0.0000 C   0  0  0  0  0  0  0  0  0  0  0  0
    5.8109   -6.9866    0.0000 O   0  0  0  0  0  0  0  0  0  0  0  0
    5.0964   -7.3991    0.0000 C   0  0  1  0  0  0  0  0  0  0  0  0
    5.0964   -8.2241    0.0000 C   0  0  2  0  0  0  0  0  0  0  0  0
    5.8109   -8.6366    0.0000 O   0  0  0  0  0  0  0  0  0  0  0  0
    4.3819   -8.6366    0.0000 C   0  0  1  0  0  0  0  0  0  0  0  0
    4.3819   -9.4616    0.0000 O   0  0  0  0  0  0  0  0  0  0  0  0
    3.6675   -8.2241    0.0000 C   0  0  2  0  0  0  0  0  0  0  0  0
    2.9530   -8.6366    0.0000 O   0  0  0  0  0  0  0  0  0  0  0  0
    3.6675   -7.3991    0.0000 C   0  0  2  0  0  0  0  0  0  0  0  0
    4.3819   -6.9866    0.0000 O   0  0  0  0  0  0  0  0  0  0  0  0
    2.9530   -6.9866    0.0000 C   0  0  0  0  0  0  0  0  0  0  0  0
    2.2385   -7.3991    0.0000 O   0  0  0  0  0  0  0  0  0  0  0  0
   13.6700   -8.2241    0.0000 C   0  0  0  0  0  0  0  0  0  0  0  0
   14.3845   -8.6366    0.0000 C   0  0  0  0  0  0  0  0  0  0  0  0
   15.0990   -8.2241    0.0000 C   0  0  0  0  0  0  0  0  0  0  0  0
   15.8135   -8.6366    0.0000 C   0  0  0  0  0  0  0  0  0  0  0  0
   15.8135   -9.4616    0.0000 C   0  0  0  0  0  0  0  0  0  0  0  0
   15.0990   -9.8741    0.0000 C   0  0  0  0  0  0  0  0  0  0  0  0
   14.3845   -9.4616    0.0000 C   0  0  0  0  0  0  0  0  0  0  0  0
   16.5279   -9.8741    0.0000 O   0  0  0  0  0  0  0  0  0  0  0  0
   17.2424   -9.4616    0.0000 C   0  0  1  0  0  0  0  0  0  0  0  0
   17.2424   -8.6366    0.0000 C   0  0  2  0  0  0  0  0  0  0  0  0
   16.5279   -8.2241    0.0000 O   0  0  0  0  0  0  0  0  0  0  0  0
   17.9569   -8.2241    0.0000 C   0  0  1  0  0  0  0  0  0  0  0  0
   17.9569   -7.3991    0.0000 O   0  0  0  0  0  0  0  0  0  0  0  0
   18.6713   -8.6366    0.0000 C   0  0  2  0  0  0  0  0  0  0  0  0
   19.3858   -8.2241    0.0000 O   0  0  0  0  0  0  0  0  0  0  0  0
   18.6713   -9.4616    0.0000 C   0  0  2  0  0  0  0  0  0  0  0  0
   17.9569   -9.8741    0.0000 O   0  0  0  0  0  0  0  0  0  0  0  0
   19.3858   -9.8741    0.0000 C   0  0  0  0  0  0  0  0  0  0  0  0
   20.1003   -9.4616    0.0000 O   0  0  0  0  0  0  0  0  0  0  0  0
  1  2  1  0  0  0  0
  2  3  1  1  0  0  0
  2  4  1  0  0  0  0
  4  5  1  0  0  0  0
  1  6  2  0  0  0  0
  1  7  1  0  0  0  0
  5  8  2  0  0  0  0
  5  9  1  0  0  0  0
 10 11  1  0  0  0  0
 10 12  1  0  0  0  0
  2 10  1  1  0  0  0
 13 14  1  0  0  0  0
 14 15  1  0  0  0  0
 15 16  2  0  0  0  0
 16 17  1  0  0  0  0
 17 18  2  0  0  0  0
 18 19  1  0  0  0  0
 14 19  2  0  0  0  0
 21 22  1  0  0  0  0
 22 23  1  6  0  0  0
 22 24  1  0  0  0  0
 24 25  1  1  0  0  0
 24 26  1  0  0  0  0
 26 27  1  6  0  0  0
 26 28  1  0  0  0  0
 28 29  1  0  0  0  0
 28 30  1  1  0  0  0
 30 31  1  0  0  0  0
 21 29  1  0  0  0  0
 21 20  1  1  0  0  0
 17 20  1  0  0  0  0
  7 13  1  0  0  0  0
 32 33  1  0  0  0  0
 33 34  1  0  0  0  0
 34 35  2  0  0  0  0
 35 36  1  0  0  0  0
 36 37  2  0  0  0  0
 37 38  1  0  0  0  0
 33 38  2  0  0  0  0
 40 41  1  0  0  0  0
 41 42  1  6  0  0  0
 41 43  1  0  0  0  0
 43 44  1  1  0  0  0
 43 45  1  0  0  0  0
 45 46  1  6  0  0  0
 45 47  1  0  0  0  0
 47 48  1  0  0  0  0
 47 49  1  1  0  0  0
 49 50  1  0  0  0  0
 40 48  1  0  0  0  0
 40 39  1  1  0  0  0
 36 39  1  0  0  0  0
  9 32  1  0  0  0  0
M  END
>  <cdx:fragmentId>
45

$$$$
