92893.cdx
  Mrv1902 05222410242D          

 28 30  0  0  0  0            999 V2000
    5.0856   -8.1813    0.0000 C   0  0  0  0  0  0  0  0  0  0  0  0
    5.0856   -9.0062    0.0000 C   0  0  0  0  0  0  0  0  0  0  0  0
    5.8000   -9.4187    0.0000 C   0  0  0  0  0  0  0  0  0  0  0  0
    6.5145   -9.0062    0.0000 C   0  0  0  0  0  0  0  0  0  0  0  0
    6.5145   -8.1813    0.0000 C   0  0  0  0  0  0  0  0  0  0  0  0
    5.8000   -7.7687    0.0000 C   0  0  0  0  0  0  0  0  0  0  0  0
    5.8000  -10.2437    0.0000 O   0  0  0  0  0  0  0  0  0  0  0  0
    5.8000   -6.9438    0.0000 C   0  0  0  0  0  0  0  0  0  0  0  0
    6.5145   -6.5313    0.0000 S   0  0  0  0  0  0  0  0  0  0  0  0
    6.5145   -5.7062    0.0000 C   0  0  0  0  0  0  0  0  0  0  0  0
    7.2290   -5.2938    0.0000 C   0  0  0  0  0  0  0  0  0  0  0  0
    7.9434   -5.7062    0.0000 C   0  0  0  0  0  0  0  0  0  0  0  0
    8.6579   -5.2938    0.0000 C   0  0  0  0  0  0  0  0  0  0  0  0
    8.6579   -4.4688    0.0000 C   0  0  0  0  0  0  0  0  0  0  0  0
    7.9434   -4.0563    0.0000 C   0  0  0  0  0  0  0  0  0  0  0  0
    7.2290   -4.4688    0.0000 C   0  0  0  0  0  0  0  0  0  0  0  0
    9.3724   -4.0563    0.0000 O   0  0  0  0  0  0  0  0  0  0  0  0
    5.0856  -10.6563    0.0000 C   0  0  2  0  0  0  0  0  0  0  0  0
    4.3711  -10.2437    0.0000 O   0  0  0  0  0  0  0  0  0  0  0  0
    3.6566  -10.6563    0.0000 C   0  0  1  0  0  0  0  0  0  0  0  0
    3.6566  -11.4813    0.0000 C   0  0  2  0  0  0  0  0  0  0  0  0
    4.3711  -11.8938    0.0000 C   0  0  1  0  0  0  0  0  0  0  0  0
    5.0856  -11.4813    0.0000 C   0  0  1  0  0  0  0  0  0  0  0  0
    2.9421  -10.2437    0.0000 C   0  0  0  0  0  0  0  0  0  0  0  0
    4.3711  -12.7188    0.0000 O   0  0  0  0  0  0  0  0  0  0  0  0
    2.9421  -11.8938    0.0000 O   0  0  0  0  0  0  0  0  0  0  0  0
    5.8000  -11.8938    0.0000 O   0  0  0  0  0  0  0  0  0  0  0  0
    2.2277  -10.6563    0.0000 O   0  0  0  0  0  0  0  0  0  0  0  0
  1  2  2  0  0  0  0
  2  3  1  0  0  0  0
  3  4  2  0  0  0  0
  4  5  1  0  0  0  0
  5  6  2  0  0  0  0
  6  1  1  0  0  0  0
  3  7  1  0  0  0  0
  6  8  1  0  0  0  0
  8  9  1  0  0  0  0
  9 10  1  0  0  0  0
 10 11  1  0  0  0  0
 11 12  2  0  0  0  0
 12 13  1  0  0  0  0
 13 14  2  0  0  0  0
 14 15  1  0  0  0  0
 15 16  2  0  0  0  0
 16 11  1  0  0  0  0
 14 17  1  0  0  0  0
 18  7  1  1  0  0  0
 18 19  1  0  0  0  0
 19 20  1  0  0  0  0
 20 21  1  0  0  0  0
 21 22  1  0  0  0  0
 22 23  1  0  0  0  0
 23 18  1  0  0  0  0
 20 24  1  1  0  0  0
 22 25  1  1  0  0  0
 21 26  1  6  0  0  0
 23 27  1  6  0  0  0
 24 28  1  0  0  0  0
M  END
>  <cdx:fragmentId>
5

$$$$
