92896.cdx
  Mrv1902 05222410252D          

 16 16  0  0  0  0            999 V2000
    6.3093   -8.0987    0.0000 C   0  0  0  0  0  0  0  0  0  0  0  0
    6.3093   -8.9238    0.0000 C   0  0  0  0  0  0  0  0  0  0  0  0
    7.0238   -9.3362    0.0000 C   0  0  0  0  0  0  0  0  0  0  0  0
    7.7382   -8.9238    0.0000 C   0  0  0  0  0  0  0  0  0  0  0  0
    7.7382   -8.0987    0.0000 C   0  0  0  0  0  0  0  0  0  0  0  0
    7.0238   -7.6863    0.0000 C   0  0  0  0  0  0  0  0  0  0  0  0
    7.0238  -10.1612    0.0000 C   0  0  0  0  0  0  0  0  0  0  0  0
    7.0238   -6.8613    0.0000 C   0  0  0  0  0  0  0  0  0  0  0  0
    6.3093   -6.4487    0.0000 C   0  0  0  0  0  0  0  0  0  0  0  0
    7.7382   -6.4487    0.0000 C   0  0  0  0  0  0  0  0  0  0  0  0
    8.4527   -6.8613    0.0000 C   0  0  0  0  0  0  0  0  0  0  0  0
    9.1672   -6.4487    0.0000 C   0  0  0  0  0  0  0  0  0  0  0  0
    9.8817   -6.8613    0.0000 C   0  0  0  0  0  0  0  0  0  0  0  0
   10.5961   -7.2738    0.0000 O   0  0  0  0  0  0  0  0  0  0  0  0
   10.2942   -6.1468    0.0000 C   0  0  0  0  0  0  0  0  0  0  0  0
    9.4692   -7.5757    0.0000 C   0  0  0  0  0  0  0  0  0  0  0  0
  1  2  1  0  0  0  0
  2  3  1  0  0  0  0
  3  4  2  0  0  0  0
  4  5  1  0  0  0  0
  5  6  1  0  0  0  0
  6  1  1  0  0  0  0
  3  7  1  0  0  0  0
  6  8  1  0  0  0  0
  8  9  1  0  0  0  0
  8 10  2  0  0  0  0
 10 11  1  0  0  0  0
 11 12  1  0  0  0  0
 12 13  1  0  0  0  0
 13 14  1  0  0  0  0
 13 15  1  0  0  0  0
 13 16  1  0  0  0  0
M  END
>  <cdx:fragmentId>
5

$$$$
