92898.cdx
  Mrv1902 05222410202D          

 16 16  0  0  0  0            999 V2000
    5.6081   -9.3225    0.0000 C   0  0  0  0  0  0  0  0  0  0  0  0
    5.6081  -10.1475    0.0000 C   0  0  0  0  0  0  0  0  0  0  0  0
    6.3225  -10.5600    0.0000 C   0  0  2  0  0  0  0  0  0  0  0  0
    7.0370  -10.1475    0.0000 C   0  0  0  0  0  0  0  0  0  0  0  0
    7.0370   -9.3225    0.0000 C   0  0  2  0  0  0  0  0  0  0  0  0
    6.3225   -8.9100    0.0000 C   0  0  1  0  0  0  0  0  0  0  0  0
    5.9100   -8.1955    0.0000 O   0  0  0  0  0  0  0  0  0  0  0  0
    7.7515   -8.9100    0.0000 C   0  0  0  0  0  0  0  0  0  0  0  0
    6.3225  -11.3850    0.0000 O   0  0  0  0  0  0  0  0  0  0  0  0
    4.8112   -9.5360    0.0000 C   0  0  0  0  0  0  0  0  0  0  0  0
    5.1956   -8.6080    0.0000 C   0  0  0  0  0  0  0  0  0  0  0  0
    6.7350   -8.1955    0.0000 C   0  0  0  0  0  0  0  0  0  0  0  0
    6.3225   -7.4811    0.0000 C   0  0  0  0  0  0  0  0  0  0  0  0
    6.7350   -6.7666    0.0000 C   0  0  0  0  0  0  0  0  0  0  0  0
    6.3225   -6.0521    0.0000 C   0  0  0  0  0  0  0  0  0  0  0  0
    7.5600   -6.7666    0.0000 O   0  0  0  0  0  0  0  0  0  0  0  0
  1  2  1  0  0  0  0
  2  3  1  0  0  0  0
  3  4  1  0  0  0  0
  4  5  1  0  0  0  0
  5  6  1  0  0  0  0
  6  1  1  0  0  0  0
  6  7  1  6  0  0  0
  5  8  1  6  0  0  0
  3  9  1  6  0  0  0
  1 10  1  0  0  0  0
  1 11  1  0  0  0  0
  6 12  1  0  0  0  0
 12 13  2  0  0  0  0
 13 14  1  0  0  0  0
 14 15  1  0  0  0  0
 14 16  2  0  0  0  0
M  END
>  <cdx:fragmentId>
5

$$$$
