92891.cdx
  Mrv1902 05222410232D          

 37 42  0  0  0  0            999 V2000
    8.1038   -6.9209    0.0000 C   0  0  2  0  0  0  0  0  0  0  0  0
    8.4639   -7.6632    0.0000 C   0  0  1  0  0  0  0  0  0  0  0  0
    8.1081   -8.4075    0.0000 C   0  0  1  0  0  0  0  0  0  0  0  0
    7.3043   -8.5935    0.0000 C   0  0  1  0  0  0  0  0  0  0  0  0
    6.6578   -8.0810    0.0000 C   0  0  1  0  0  0  0  0  0  0  0  0
    6.6554   -7.2560    0.0000 C   0  0  2  0  0  0  0  0  0  0  0  0
    7.2989   -6.7397    0.0000 C   0  0  2  0  0  0  0  0  0  0  0  0
    5.9446   -8.4955    0.0000 C   0  0  2  0  0  0  0  0  0  0  0  0
    5.2289   -8.0851    0.0000 C   0  0  0  0  0  0  0  0  0  0  0  0
    5.2265   -7.2601    0.0000 C   0  0  0  0  0  0  0  0  0  0  0  0
    5.9397   -6.8455    0.0000 C   0  0  2  0  0  0  0  0  0  0  0  0
    7.2226   -5.9182    0.0000 C   0  0  0  0  0  0  0  0  0  0  0  0
    7.9802   -5.5918    0.0000 C   0  0  1  0  0  0  0  0  0  0  0  0
    8.5248   -6.2115    0.0000 C   0  0  2  0  0  0  0  0  0  0  0  0
    5.9373   -6.0206    0.0000 O   0  0  0  0  0  0  0  0  0  0  0  0
    5.2262   -5.6024    0.0000 C   0  0  0  0  0  0  0  0  0  0  0  0
    5.9470   -9.3205    0.0000 C   0  0  0  0  0  0  0  0  0  0  0  0
    5.2337   -9.7351    0.0000 O   0  0  0  0  0  0  0  0  0  0  0  0
    5.2361  -10.5601    0.0000 C   0  0  0  0  0  0  0  0  0  0  0  0
    6.6550   -6.6000    0.0000 C   0  0  0  0  0  0  0  0  0  0  0  0
    5.9400   -7.6175    0.0000 N   0  0  0  0  0  0  0  0  0  0  0  0
    5.2250   -8.8000    0.0000 C   0  0  0  0  0  0  0  0  0  0  0  0
    9.2625   -7.4560    0.0000 C   0  0  0  0  0  0  0  0  0  0  0  0
    9.2400   -5.7475    0.0000 C   0  0  2  0  0  0  0  0  0  0  0  0
    8.6774   -8.4601    0.0000 O   0  0  0  0  0  0  0  0  0  0  0  0
    9.8450   -6.1600    0.0000 O   0  0  0  0  0  0  0  0  0  0  0  0
    6.6512   -8.9059    0.0000 H   0  0  0  0  0  0  0  0  0  0  0  0
    6.7156   -6.1563    0.0000 H   0  0  0  0  0  0  0  0  0  0  0  0
    8.9287   -6.9275    0.0000 H   0  0  0  0  0  0  0  0  0  0  0  0
    7.9802   -4.7668    0.0000 O   0  0  0  0  0  0  0  0  0  0  0  0
    8.1081   -9.2325    0.0000 H   0  0  0  0  0  0  0  0  0  0  0  0
    4.7575   -7.6175    0.0000 C   0  0  0  0  0  0  0  0  0  0  0  0
    7.3043   -9.4185    0.0000 O   0  0  0  0  0  0  0  0  0  0  0  0
    6.5899   -9.8310    0.0000 C   0  0  0  0  0  0  0  0  0  0  0  0
    4.1741   -7.0341    0.0000 C   0  0  0  0  0  0  0  0  0  0  0  0
    9.8545   -5.1970    0.0000 O   0  0  0  0  0  0  0  0  0  0  0  0
    9.8545   -4.3720    0.0000 C   0  0  0  0  0  0  0  0  0  0  0  0
  1  2  1  0  0  0  0
  2  3  1  0  0  0  0
  3  4  1  0  0  0  0
  4  5  1  0  0  0  0
  5  6  1  0  0  0  0
  6  7  1  0  0  0  0
  7  1  1  0  0  0  0
  5  8  1  0  0  0  0
  8  9  1  0  0  0  0
  9 10  1  0  0  0  0
 10 11  1  0  0  0  0
  6 11  1  1  0  0  0
  7 12  1  0  0  0  0
 12 13  1  0  0  0  0
 13 14  1  0  0  0  0
 14  1  1  0  0  0  0
 11 15  1  6  0  0  0
 15 16  1  0  0  0  0
  8 17  1  1  0  0  0
 17 18  1  0  0  0  0
 18 19  1  0  0  0  0
  6 20  1  0  0  0  0
  3 20  1  0  0  0  0
 20 21  1  0  0  0  0
 21 22  1  0  0  0  0
  8 22  1  0  0  0  0
  2 23  1  0  0  0  0
 13 24  1  0  0  0  0
 24 23  1  0  0  0  0
  2 25  1  1  0  0  0
 14 26  1  6  0  0  0
  5 27  1  1  0  0  0
  7 28  1  1  0  0  0
  1 29  1  1  0  0  0
 13 30  1  1  0  0  0
  3 31  1  6  0  0  0
 21 32  1  0  0  0  0
  4 33  1  6  0  0  0
 33 34  1  0  0  0  0
 32 35  1  0  0  0  0
 24 36  1  1  0  0  0
 36 37  1  0  0  0  0
M  END
>  <cdx:fragmentId>
491

$$$$
