92897.cdx
  Mrv1902 05222410242D          

 20 21  0  0  0  0            999 V2000
    4.2331   -6.1875    0.0000 C   0  0  0  0  0  0  0  0  0  0  0  0
    4.2331   -7.0125    0.0000 C   0  0  0  0  0  0  0  0  0  0  0  0
    4.9475   -7.4250    0.0000 C   0  0  0  0  0  0  0  0  0  0  0  0
    5.6620   -7.0125    0.0000 C   0  0  2  0  0  0  0  0  0  0  0  0
    5.6620   -6.1875    0.0000 C   0  0  2  0  0  0  0  0  0  0  0  0
    4.9475   -5.7750    0.0000 C   0  0  0  0  0  0  0  0  0  0  0  0
    6.4466   -7.2674    0.0000 O   0  0  0  0  0  0  0  0  0  0  0  0
    6.9315   -6.6000    0.0000 C   0  0  0  0  0  0  0  0  0  0  0  0
    6.4466   -5.9326    0.0000 C   0  0  2  0  0  0  0  0  0  0  0  0
    3.5186   -7.4250    0.0000 C   0  0  0  0  0  0  0  0  0  0  0  0
    4.9475   -4.9500    0.0000 O   0  0  0  0  0  0  0  0  0  0  0  0
    6.2331   -5.1357    0.0000 C   0  0  0  0  0  0  0  0  0  0  0  0
    7.7565   -6.6000    0.0000 C   0  0  0  0  0  0  0  0  0  0  0  0
    8.1690   -7.3145    0.0000 C   0  0  0  0  0  0  0  0  0  0  0  0
    8.9940   -7.3145    0.0000 C   0  0  0  0  0  0  0  0  0  0  0  0
    9.4065   -8.0289    0.0000 C   0  0  0  0  0  0  0  0  0  0  0  0
    9.4065   -6.6000    0.0000 C   0  0  0  0  0  0  0  0  0  0  0  0
    5.7482   -5.3670    0.0000 H   0  0  0  0  0  0  0  0  0  0  0  0
    5.7482   -7.8330    0.0000 H   0  0  0  0  0  0  0  0  0  0  0  0
    7.1611   -5.5201    0.0000 O   0  0  0  0  0  0  0  0  0  0  0  0
  1  2  2  0  0  0  0
  2  3  1  0  0  0  0
  3  4  1  0  0  0  0
  4  5  1  0  0  0  0
  5  6  1  0  0  0  0
  6  1  1  0  0  0  0
  4  7  1  0  0  0  0
  7  8  1  0  0  0  0
  8  9  1  0  0  0  0
  9  5  1  0  0  0  0
  2 10  1  0  0  0  0
  6 11  2  0  0  0  0
  9 12  1  0  0  0  0
  8 13  2  0  0  0  0
 13 14  1  0  0  0  0
 14 15  2  0  0  0  0
 15 16  1  0  0  0  0
 15 17  1  0  0  0  0
  5 18  1  1  0  0  0
  4 19  1  1  0  0  0
  9 20  1  6  0  0  0
M  END
>  <cdx:fragmentId>
5

$$$$
