92903.cdx
  Mrv1902 05222410232D          

 15 16  0  0  0  0            999 V2000
    5.1406   -6.2150    0.0000 C   0  0  0  0  0  0  0  0  0  0  0  0
    5.1406   -7.0400    0.0000 C   0  0  0  0  0  0  0  0  0  0  0  0
    5.8550   -7.4525    0.0000 C   0  0  0  0  0  0  0  0  0  0  0  0
    6.5695   -7.0400    0.0000 C   0  0  0  0  0  0  0  0  0  0  0  0
    6.5695   -6.2150    0.0000 C   0  0  0  0  0  0  0  0  0  0  0  0
    5.8550   -5.8025    0.0000 C   0  0  0  0  0  0  0  0  0  0  0  0
    7.2840   -7.4525    0.0000 C   0  0  0  0  0  0  0  0  0  0  0  0
    7.9984   -7.0400    0.0000 C   0  0  0  0  0  0  0  0  0  0  0  0
    7.9984   -6.2150    0.0000 C   0  0  0  0  0  0  0  0  0  0  0  0
    7.2840   -5.8025    0.0000 C   0  0  0  0  0  0  0  0  0  0  0  0
    5.8550   -4.9775    0.0000 C   0  0  0  0  0  0  0  0  0  0  0  0
    5.8550   -8.2775    0.0000 C   0  0  0  0  0  0  0  0  0  0  0  0
    6.5695   -8.6900    0.0000 C   0  0  0  0  0  0  0  0  0  0  0  0
    5.1406   -8.6900    0.0000 C   0  0  0  0  0  0  0  0  0  0  0  0
    8.7129   -7.4525    0.0000 C   0  0  0  0  0  0  0  0  0  0  0  0
  1  2  2  0  0  0  0
  2  3  1  0  0  0  0
  3  4  2  0  0  0  0
  4  5  1  0  0  0  0
  5  6  2  0  0  0  0
  6  1  1  0  0  0  0
  4  7  1  0  0  0  0
  7  8  2  0  0  0  0
  8  9  1  0  0  0  0
  9 10  2  0  0  0  0
 10  5  1  0  0  0  0
  6 11  1  0  0  0  0
  3 12  1  0  0  0  0
 12 13  1  0  0  0  0
 12 14  1  0  0  0  0
  8 15  1  0  0  0  0
M  END
>  <cdx:fragmentId>
5

$$$$
