92909.cdx
  Mrv1902 05222410252D          

 54 58  0  0  0  0            999 V2000
   10.2667  -10.5469    0.0000 O   0  0  0  0  0  0  0  0  0  0  0  0
   10.9915  -11.7783    0.0000 O   0  0  0  0  0  0  0  0  0  0  0  0
   10.9846  -10.9534    0.0000 C   0  0  2  0  0  0  0  0  0  0  0  0
   11.6956  -10.5349    0.0000 C   0  0  1  0  0  0  0  0  0  0  0  0
   12.4135  -10.9414    0.0000 C   0  0  2  0  0  0  0  0  0  0  0  0
   12.4204  -11.7663    0.0000 C   0  0  1  0  0  0  0  0  0  0  0  0
   11.7094  -12.1848    0.0000 C   0  0  1  0  0  0  0  0  0  0  0  0
   11.7163  -13.0098    0.0000 C   0  0  0  0  0  0  0  0  0  0  0  0
   12.4342  -13.4163    0.0000 O   0  0  0  0  0  0  0  0  0  0  0  0
   13.1383  -12.1728    0.0000 O   0  0  0  0  0  0  0  0  0  0  0  0
   13.1245  -10.5229    0.0000 O   0  0  0  0  0  0  0  0  0  0  0  0
   11.6886   -9.7099    0.0000 O   0  0  0  0  0  0  0  0  0  0  0  0
   10.9811   -6.0094    0.0000 C   0  0  0  0  0  0  0  0  0  0  0  0
    9.4660  -10.1298    0.0000 H   0  0  0  0  0  0  0  0  0  0  0  0
    9.4660   -7.6639    0.0000 H   0  0  0  0  0  0  0  0  0  0  0  0
    5.8077   -6.0390    0.0000 C   0  0  0  0  0  0  0  0  0  0  0  0
    6.2202   -6.7534    0.0000 C   0  0  0  0  0  0  0  0  0  0  0  0
    3.7452   -6.7534    0.0000 C   0  0  0  0  0  0  0  0  0  0  0  0
    4.5702   -6.7534    0.0000 C   0  0  0  0  0  0  0  0  0  0  0  0
    4.5825   -9.6041    0.0000 O   0  0  0  0  0  0  0  0  0  0  0  0
    3.7700  -11.0402    0.0000 O   0  0  0  0  0  0  0  0  0  0  0  0
    2.1201  -11.0545    0.0000 O   0  0  0  0  0  0  0  0  0  0  0  0
    0.8781  -10.3518    0.0000 O   0  0  0  0  0  0  0  0  0  0  0  0
    1.2827   -9.6328    0.0000 C   0  0  0  0  0  0  0  0  0  0  0  0
    2.1076   -9.6256    0.0000 C   0  0  2  0  0  0  0  0  0  0  0  0
    2.5263  -10.3365    0.0000 C   0  0  2  0  0  0  0  0  0  0  0  0
    3.3513  -10.3293    0.0000 C   0  0  1  0  0  0  0  0  0  0  0  0
    3.7576   -9.6113    0.0000 C   0  0  2  0  0  0  0  0  0  0  0  0
    3.3389   -8.9004    0.0000 C   0  0  1  0  0  0  0  0  0  0  0  0
    2.5139   -8.9076    0.0000 O   0  0  0  0  0  0  0  0  0  0  0  0
    3.7452   -8.1824    0.0000 O   0  0  0  0  0  0  0  0  0  0  0  0
    4.9827   -8.8969    0.0000 O   0  0  0  0  0  0  0  0  0  0  0  0
    5.8077   -8.8969    0.0000 C   0  0  0  0  0  0  0  0  0  0  0  0
    6.2202   -8.1824    0.0000 C   0  0  0  0  0  0  0  0  0  0  0  0
    5.8077   -7.4679    0.0000 C   0  0  2  0  0  0  0  0  0  0  0  0
    4.9827   -7.4679    0.0000 C   0  0  2  0  0  0  0  0  0  0  0  0
    4.5702   -8.1824    0.0000 C   0  0  2  0  0  0  0  0  0  0  0  0
    7.4577   -7.4679    0.0000 O   0  0  0  0  0  0  0  0  0  0  0  0
    7.0452   -8.1824    0.0000 C   0  0  0  0  0  0  0  0  0  0  0  0
    7.4577   -8.8969    0.0000 O   0  0  0  0  0  0  0  0  0  0  0  0
    8.5126  -10.3489    0.0000 C   0  0  0  0  0  0  0  0  0  0  0  0
   10.9811   -6.8344    0.0000 O   0  0  0  0  0  0  0  0  0  0  0  0
    9.5522   -6.8344    0.0000 O   0  0  0  0  0  0  0  0  0  0  0  0
   10.2667   -7.2469    0.0000 C   0  0  0  0  0  0  0  0  0  0  0  0
    8.7676   -9.5643    0.0000 C   0  0  1  0  0  0  0  0  0  0  0  0
    8.2827   -8.8969    0.0000 C   0  0  2  0  0  0  0  0  0  0  0  0
    8.7676   -8.2294    0.0000 C   0  0  0  0  0  0  0  0  0  0  0  0
   10.9811   -9.3094    0.0000 O   0  0  0  0  0  0  0  0  0  0  0  0
   10.9811   -8.4844    0.0000 C   0  0  0  0  0  0  0  0  0  0  0  0
   10.2667   -8.0719    0.0000 C   0  0  0  0  0  0  0  0  0  0  0  0
    9.5522   -8.4844    0.0000 C   0  0  2  0  0  0  0  0  0  0  0  0
    9.5522   -9.3094    0.0000 C   0  0  2  0  0  0  0  0  0  0  0  0
   10.2667   -9.7219    0.0000 C   0  0  2  0  0  0  0  0  0  0  0  0
    6.2202   -5.3245    0.0000 O   0  0  0  0  0  0  0  0  0  0  0  0
 42 13  1  0  0  0  0
 52 14  1  1  0  0  0
 51 15  1  1  0  0  0
 46 40  1  1  0  0  0
 40 39  1  0  0  0  0
 35 17  1  6  0  0  0
 17 16  1  0  0  0  0
 36 19  1  6  0  0  0
 19 18  2  0  0  0  0
 37 31  1  1  0  0  0
 29 31  1  1  0  0  0
 28 20  1  6  0  0  0
 27 21  1  1  0  0  0
 26 22  1  6  0  0  0
 25 24  1  1  0  0  0
 24 23  1  0  0  0  0
 30 25  1  0  0  0  0
 26 25  1  0  0  0  0
 27 26  1  0  0  0  0
 28 27  1  0  0  0  0
 29 28  1  0  0  0  0
 30 29  1  0  0  0  0
 39 34  1  0  0  0  0
 37 32  1  0  0  0  0
 33 32  1  0  0  0  0
 34 33  2  0  0  0  0
 35 34  1  0  0  0  0
 36 35  1  0  0  0  0
 37 36  1  0  0  0  0
 39 38  2  0  0  0  0
 45 41  1  1  0  0  0
 53  1  1  1  0  0  0
 50 44  1  0  0  0  0
 44 42  1  0  0  0  0
 44 43  2  0  0  0  0
 47 51  1  0  0  0  0
 45 52  1  0  0  0  0
 46 45  1  0  0  0  0
 47 46  1  0  0  0  0
 53 48  1  0  0  0  0
 49 48  1  0  0  0  0
 50 49  2  0  0  0  0
 51 50  1  0  0  0  0
 52 51  1  0  0  0  0
 53 52  1  0  0  0  0
  2  3  1  0  0  0  0
  3  4  1  0  0  0  0
  4  5  1  0  0  0  0
  5  6  1  0  0  0  0
  6  7  1  0  0  0  0
  2  7  1  0  0  0  0
  8  9  1  0  0  0  0
  7  8  1  1  0  0  0
  6 10  1  6  0  0  0
  5 11  1  1  0  0  0
  4 12  1  6  0  0  0
  3  1  1  1  0  0  0
 16 54  2  0  0  0  0
M  END
>  <cdx:fragmentId>
12979

$$$$
