92906.cdx
  Mrv1902 05222410212D          

 15 16  0  0  0  0            999 V2000
    5.5394   -5.8711    0.0000 C   0  0  0  0  0  0  0  0  0  0  0  0
    5.5393   -6.6961    0.0000 C   0  0  0  0  0  0  0  0  0  0  0  0
    6.2537   -7.1086    0.0000 C   0  0  2  0  0  0  0  0  0  0  0  0
    6.9682   -6.6962    0.0000 C   0  0  0  0  0  0  0  0  0  0  0  0
    6.9683   -5.8712    0.0000 C   0  0  0  0  0  0  0  0  0  0  0  0
    6.2539   -5.4586    0.0000 C   0  0  1  0  0  0  0  0  0  0  0  0
    7.6827   -7.1088    0.0000 C   0  0  0  0  0  0  0  0  0  0  0  0
    8.3972   -6.6964    0.0000 C   0  0  0  0  0  0  0  0  0  0  0  0
    8.3973   -5.8714    0.0000 C   0  0  0  0  0  0  0  0  0  0  0  0
    7.6828   -5.4588    0.0000 C   0  0  0  0  0  0  0  0  0  0  0  0
    9.1116   -7.1089    0.0000 C   0  0  0  0  0  0  0  0  0  0  0  0
    6.2540   -4.6336    0.0000 C   0  0  0  0  0  0  0  0  0  0  0  0
    6.2536   -7.9336    0.0000 C   0  0  0  0  0  0  0  0  0  0  0  0
    6.9681   -8.3462    0.0000 C   0  0  0  0  0  0  0  0  0  0  0  0
    5.5391   -8.3461    0.0000 C   0  0  0  0  0  0  0  0  0  0  0  0
  1  2  1  0  0  0  0
  2  3  1  0  0  0  0
  3  4  1  0  0  0  0
  4  5  2  0  0  0  0
  5  6  1  0  0  0  0
  6  1  1  0  0  0  0
  4  7  1  0  0  0  0
  7  8  2  0  0  0  0
  8  9  1  0  0  0  0
  9 10  2  0  0  0  0
 10  5  1  0  0  0  0
  8 11  1  0  0  0  0
  6 12  1  6  0  0  0
  3 13  1  6  0  0  0
 13 14  1  0  0  0  0
 13 15  1  0  0  0  0
M  END
>  <cdx:fragmentId>
5

$$$$
