92900.cdx
  Mrv1902 05222410222D          

 36 40  0  0  0  0            999 V2000
    8.7204   -4.4550    0.0000 C   0  0  0  0  0  0  0  0  0  0  0  0
    9.4349   -4.0425    0.0000 C   0  0  0  0  0  0  0  0  0  0  0  0
   10.1494   -4.4550    0.0000 C   0  0  0  0  0  0  0  0  0  0  0  0
   10.1494   -5.2800    0.0000 C   0  0  0  0  0  0  0  0  0  0  0  0
    9.4349   -5.6925    0.0000 C   0  0  2  0  0  0  0  0  0  0  0  0
    9.4349   -6.5175    0.0000 C   0  0  0  0  0  0  0  0  0  0  0  0
    8.7204   -6.9300    0.0000 C   0  0  0  0  0  0  0  0  0  0  0  0
    8.0060   -6.5175    0.0000 C   0  0  2  0  0  0  0  0  0  0  0  0
    7.2915   -6.9300    0.0000 C   0  0  1  0  0  0  0  0  0  0  0  0
    7.2915   -7.7550    0.0000 C   0  0  0  0  0  0  0  0  0  0  0  0
    6.5770   -8.1675    0.0000 C   0  0  0  0  0  0  0  0  0  0  0  0
    5.8626   -7.7550    0.0000 C   0  0  1  0  0  0  0  0  0  0  0  0
    5.1481   -8.1675    0.0000 C   0  0  0  0  0  0  0  0  0  0  0  0
    4.4336   -7.7550    0.0000 C   0  0  2  0  0  0  0  0  0  0  0  0
    4.4336   -6.9300    0.0000 C   0  0  0  0  0  0  0  0  0  0  0  0
    5.1481   -6.5175    0.0000 C   0  0  0  0  0  0  0  0  0  0  0  0
    5.8626   -6.9300    0.0000 C   0  0  1  0  0  0  0  0  0  0  0  0
    6.5770   -6.5175    0.0000 C   0  0  0  0  0  0  0  0  0  0  0  0
    6.5770   -5.6925    0.0000 C   0  0  0  0  0  0  0  0  0  0  0  0
    7.2915   -5.2800    0.0000 C   0  0  0  0  0  0  0  0  0  0  0  0
    8.0060   -5.6925    0.0000 C   0  0  0  0  0  0  0  0  0  0  0  0
    8.7204   -5.2800    0.0000 C   0  0  2  0  0  0  0  0  0  0  0  0
   10.1494   -6.1050    0.0000 C   0  0  0  0  0  0  0  0  0  0  0  0
   10.1494   -6.9300    0.0000 O   0  0  0  0  0  0  0  0  0  0  0  0
   10.8639   -5.6925    0.0000 O   0  0  0  0  0  0  0  0  0  0  0  0
    5.8626   -6.1050    0.0000 C   0  0  0  0  0  0  0  0  0  0  0  0
    5.5606   -8.8820    0.0000 C   0  0  0  0  0  0  0  0  0  0  0  0
    4.7356   -8.8820    0.0000 C   0  0  0  0  0  0  0  0  0  0  0  0
    8.0060   -7.3425    0.0000 C   0  0  0  0  0  0  0  0  0  0  0  0
    9.0224   -3.3280    0.0000 C   0  0  0  0  0  0  0  0  0  0  0  0
    9.8474   -3.3280    0.0000 C   0  0  0  0  0  0  0  0  0  0  0  0
    3.7191   -8.1675    0.0000 O   0  0  0  0  0  0  0  0  0  0  0  0
    5.8626   -8.5800    0.0000 H   0  0  0  0  0  0  0  0  0  0  0  0
    8.7204   -6.1050    0.0000 H   0  0  0  0  0  0  0  0  0  0  0  0
   11.5783   -6.1050    0.0000 C   0  0  0  0  0  0  0  0  0  0  0  0
    7.7040   -7.6445    0.0000 C   0  0  0  0  0  0  0  0  0  0  0  0
  1  2  1  0  0  0  0
  2  3  1  0  0  0  0
  3  4  1  0  0  0  0
  4  5  1  0  0  0  0
  5  6  1  0  0  0  0
  6  7  1  0  0  0  0
  7  8  1  0  0  0  0
  8  9  1  0  0  0  0
  9 10  1  0  0  0  0
 10 11  1  0  0  0  0
 11 12  1  0  0  0  0
 12 13  1  0  0  0  0
 13 14  1  0  0  0  0
 14 15  1  0  0  0  0
 15 16  1  0  0  0  0
 16 17  1  0  0  0  0
 12 17  1  0  0  0  0
 17 18  1  0  0  0  0
 18 19  1  0  0  0  0
 19 20  1  0  0  0  0
 20 21  2  0  0  0  0
  8 21  1  0  0  0  0
 21 22  1  0  0  0  0
  5 22  1  0  0  0  0
  1 22  1  0  0  0  0
 23 24  2  0  0  0  0
 23 25  1  0  0  0  0
  5 23  1  1  0  0  0
 17 26  1  6  0  0  0
 13 27  1  0  0  0  0
 13 28  1  0  0  0  0
  8 29  1  1  0  0  0
  2 30  1  0  0  0  0
  2 31  1  0  0  0  0
 14 32  1  1  0  0  0
 12 33  1  6  0  0  0
 22 34  1  1  0  0  0
 25 35  1  0  0  0  0
 18  9  1  0  0  0  0
  9 36  1  6  0  0  0
M  END
>  <cdx:groupId>
114

>  <cdx:fragmentId>
5

$$$$
