92907.cdx
  Mrv1902 05222410202D          

 17 19  0  0  0  0            999 V2000
    7.2055   -7.8650    0.0000 C   0  0  0  0  0  0  0  0  0  0  0  0
    7.2055   -8.6900    0.0000 C   0  0  1  0  0  0  0  0  0  0  0  0
    6.4209   -7.6101    0.0000 C   0  0  0  0  0  0  0  0  0  0  0  0
    5.9360   -8.2775    0.0000 C   0  0  0  0  0  0  0  0  0  0  0  0
    6.4209   -8.9449    0.0000 C   0  0  1  0  0  0  0  0  0  0  0  0
    6.1660   -9.7296    0.0000 C   0  0  0  0  0  0  0  0  0  0  0  0
    7.8505   -9.2044    0.0000 C   0  0  2  0  0  0  0  0  0  0  0  0
    8.6549   -9.0208    0.0000 C   0  0  0  0  0  0  0  0  0  0  0  0
    9.0128   -8.2775    0.0000 C   0  0  1  0  0  0  0  0  0  0  0  0
    8.6549   -7.5342    0.0000 C   0  0  0  0  0  0  0  0  0  0  0  0
    7.8505   -7.3506    0.0000 C   0  0  0  0  0  0  0  0  0  0  0  0
    7.6670  -10.0087    0.0000 O   0  0  0  0  0  0  0  0  0  0  0  0
    8.0641   -6.5537    0.0000 C   0  0  0  0  0  0  0  0  0  0  0  0
    7.2672   -6.7673    0.0000 C   0  0  0  0  0  0  0  0  0  0  0  0
    9.1692   -6.8892    0.0000 O   0  0  0  0  0  0  0  0  0  0  0  0
    8.0575   -8.0300    0.0000 C   0  0  0  0  0  0  0  0  0  0  0  0
    9.8378   -8.2775    0.0000 H   0  0  0  0  0  0  0  0  0  0  0  0
  1  2  1  0  0  0  0
  1  3  1  0  0  0  0
  3  4  1  0  0  0  0
  4  5  1  0  0  0  0
  5  2  1  0  0  0  0
  5  6  1  6  0  0  0
  2  7  1  0  0  0  0
  7  8  1  0  0  0  0
  8  9  1  0  0  0  0
  9 10  1  0  0  0  0
 10 11  1  0  0  0  0
 11  1  1  0  0  0  0
  7 12  1  6  0  0  0
 11 13  1  0  0  0  0
 11 14  1  0  0  0  0
 10 15  2  0  0  0  0
  2 16  1  1  0  0  0
 16  9  1  0  0  0  0
  9 17  1  1  0  0  0
M  END
>  <cdx:fragmentId>
81

$$$$
