92904.cdx
  Mrv1902 05222410212D          

 35 36  0  0  0  0            999 V2000
    2.0606   -6.7237    0.0000 C   0  0  0  0  0  0  0  0  0  0  0  0
    2.0606   -7.5488    0.0000 C   0  0  0  0  0  0  0  0  0  0  0  0
    2.7750   -7.9612    0.0000 C   0  0  0  0  0  0  0  0  0  0  0  0
    3.4895   -7.5488    0.0000 C   0  0  0  0  0  0  0  0  0  0  0  0
    3.4895   -6.7237    0.0000 C   0  0  0  0  0  0  0  0  0  0  0  0
    2.7750   -6.3113    0.0000 C   0  0  0  0  0  0  0  0  0  0  0  0
    4.2040   -7.9612    0.0000 C   0  0  0  0  0  0  0  0  0  0  0  0
    4.9184   -7.5488    0.0000 C   0  0  0  0  0  0  0  0  0  0  0  0
    5.6329   -7.9612    0.0000 C   0  0  0  0  0  0  0  0  0  0  0  0
    6.3474   -7.5488    0.0000 O   0  0  0  0  0  0  0  0  0  0  0  0
    7.0619   -7.9612    0.0000 C   0  0  0  0  0  0  0  0  0  0  0  0
    7.7763   -7.5488    0.0000 C   0  0  0  0  0  0  0  0  0  0  0  0
    8.4908   -7.9612    0.0000 O   0  0  0  0  0  0  0  0  0  0  0  0
    9.2053   -7.5488    0.0000 C   0  0  0  0  0  0  0  0  0  0  0  0
    9.2053   -6.7237    0.0000 O   0  0  0  0  0  0  0  0  0  0  0  0
    9.9197   -7.9612    0.0000 C   0  0  0  0  0  0  0  0  0  0  0  0
   10.6342   -7.5488    0.0000 C   0  0  0  0  0  0  0  0  0  0  0  0
   13.4921   -9.1987    0.0000 O   0  0  0  0  0  0  0  0  0  0  0  0
   13.4921   -7.5488    0.0000 O   0  0  0  0  0  0  0  0  0  0  0  0
   12.0631   -9.1987    0.0000 C   0  0  0  0  0  0  0  0  0  0  0  0
   12.7776   -8.7862    0.0000 C   0  0  0  0  0  0  0  0  0  0  0  0
   12.7776   -7.9612    0.0000 C   0  0  0  0  0  0  0  0  0  0  0  0
    1.3461   -6.3113    0.0000 O   0  0  0  0  0  0  0  0  0  0  0  0
    1.3461   -7.9612    0.0000 O   0  0  0  0  0  0  0  0  0  0  0  0
    5.6329   -8.7862    0.0000 O   0  0  0  0  0  0  0  0  0  0  0  0
    9.9197   -8.7862    0.0000 O   0  0  0  0  0  0  0  0  0  0  0  0
   12.0631   -7.5488    0.0000 C   0  0  0  0  0  0  0  0  0  0  0  0
   11.3487   -8.7862    0.0000 C   0  0  0  0  0  0  0  0  0  0  0  0
   11.3487   -7.9612    0.0000 C   0  0  0  0  0  0  0  0  0  0  0  0
    7.7763   -9.1987    0.0000 O   0  0  0  0  0  0  0  0  0  0  0  0
    6.3474   -9.1987    0.0000 O   0  0  0  0  0  0  0  0  0  0  0  0
    7.0619   -8.7862    0.0000 C   0  0  0  0  0  0  0  0  0  0  0  0
    7.0619   -6.3113    0.0000 O   0  0  0  0  0  0  0  0  0  0  0  0
    8.4908   -6.3113    0.0000 O   0  0  0  0  0  0  0  0  0  0  0  0
    7.7763   -6.7237    0.0000 C   0  0  0  0  0  0  0  0  0  0  0  0
  1  2  2  0  0  0  0
  2  3  1  0  0  0  0
  3  4  2  0  0  0  0
  4  5  1  0  0  0  0
  5  6  2  0  0  0  0
  6  1  1  0  0  0  0
  4  7  1  0  0  0  0
  7  8  2  0  0  0  0
  8  9  1  0  0  0  0
  9 10  1  0  0  0  0
 35 33  2  0  0  0  0
 10 11  1  0  0  0  0
 11 12  1  0  0  0  0
 12 35  1  0  0  0  0
 12 13  1  0  0  0  0
 13 14  1  0  0  0  0
 14 15  2  0  0  0  0
 14 16  1  0  0  0  0
 16 17  1  0  0  0  0
 21 18  1  0  0  0  0
 17 29  1  0  0  0  0
 22 19  1  0  0  0  0
 20 28  1  0  0  0  0
 21 20  2  0  0  0  0
 22 21  1  0  0  0  0
 27 22  2  0  0  0  0
 29 27  1  0  0  0  0
  1 23  1  0  0  0  0
  2 24  1  0  0  0  0
  9 25  2  0  0  0  0
 32 30  2  0  0  0  0
 11 32  1  0  0  0  0
 16 26  1  0  0  0  0
 29 28  2  0  0  0  0
 32 31  1  0  0  0  0
 35 34  1  0  0  0  0
M  END
>  <cdx:fragmentId>
5

$$$$
