92918.cdx
  Mrv1902 05222410242D          

 28 33  0  0  0  0            999 V2000
    5.9146   -6.8283    0.0000 O   0  0  0  0  0  0  0  0  0  0  0  0
    8.0762   -8.8716    0.0000 H   0  0  0  0  0  0  0  0  0  0  0  0
    5.9219   -7.6532    0.0000 H   0  0  0  0  0  0  0  0  0  0  0  0
    8.0836   -9.6966    0.0000 C   0  0  0  0  0  0  0  0  0  0  0  0
   10.2847   -8.2819    0.0000 O   0  0  0  0  0  0  0  0  0  0  0  0
   10.7636   -7.6102    0.0000 C   0  0  0  0  0  0  0  0  0  0  0  0
   10.2728   -6.9471    0.0000 O   0  0  0  0  0  0  0  0  0  0  0  0
    3.8995   -9.8734    0.0000 O   0  0  0  0  0  0  0  0  0  0  0  0
    4.2418  -10.6240    0.0000 C   0  0  0  0  0  0  0  0  0  0  0  0
    5.0615  -10.5305    0.0000 O   0  0  0  0  0  0  0  0  0  0  0  0
    8.7870   -8.4528    0.0000 C   0  0  0  0  0  0  0  0  0  0  0  0
    9.4978   -8.0339    0.0000 C   0  0  0  0  0  0  0  0  0  0  0  0
    9.4905   -7.2090    0.0000 C   0  0  0  0  0  0  0  0  0  0  0  0
    8.7723   -6.8029    0.0000 C   0  0  0  0  0  0  0  0  0  0  0  0
    8.0689   -8.0467    0.0000 C   0  0  0  0  0  0  0  0  0  0  0  0
    8.0616   -7.2217    0.0000 C   0  0  0  0  0  0  0  0  0  0  0  0
    7.3435   -6.8156    0.0000 C   0  0  0  0  0  0  0  0  0  0  0  0
    6.6327   -7.2344    0.0000 C   0  0  1  0  0  0  0  0  0  0  0  0
    6.6547   -9.7093    0.0000 C   0  0  0  0  0  0  0  0  0  0  0  0
    7.3655   -9.2905    0.0000 N   0  0  0  0  0  0  0  0  0  0  0  0
    7.3581   -8.4655    0.0000 C   0  0  1  0  0  0  0  0  0  0  0  0
    6.6400   -8.0594    0.0000 C   0  0  1  0  0  0  0  0  0  0  0  0
    4.5077   -9.3159    0.0000 C   0  0  0  0  0  0  0  0  0  0  0  0
    5.2258   -9.7220    0.0000 C   0  0  0  0  0  0  0  0  0  0  0  0
    5.9366   -9.3032    0.0000 C   0  0  0  0  0  0  0  0  0  0  0  0
    5.9292   -8.4782    0.0000 C   0  0  0  0  0  0  0  0  0  0  0  0
    5.2111   -8.0721    0.0000 C   0  0  0  0  0  0  0  0  0  0  0  0
    4.5004   -8.4909    0.0000 C   0  0  0  0  0  0  0  0  0  0  0  0
 18  1  1  1  0  0  0
 21  2  1  6  0  0  0
 22  3  1  6  0  0  0
 20  4  1  0  0  0  0
  5 12  1  0  0  0  0
  6  5  1  0  0  0  0
  7  6  1  0  0  0  0
 13  7  1  0  0  0  0
  8 23  1  0  0  0  0
  9  8  1  0  0  0  0
 10  9  1  0  0  0  0
 24 10  1  0  0  0  0
 11 15  1  0  0  0  0
 12 11  2  0  0  0  0
 13 12  1  0  0  0  0
 14 13  2  0  0  0  0
 16 14  1  0  0  0  0
 15 21  1  0  0  0  0
 16 15  2  0  0  0  0
 17 16  1  0  0  0  0
 18 17  1  0  0  0  0
 22 18  1  0  0  0  0
 19 25  1  0  0  0  0
 20 19  1  0  0  0  0
 21 20  1  0  0  0  0
 22 21  1  0  0  0  0
 26 22  1  0  0  0  0
 23 28  1  0  0  0  0
 24 23  2  0  0  0  0
 25 24  1  0  0  0  0
 26 25  2  0  0  0  0
 27 26  1  0  0  0  0
 28 27  2  0  0  0  0
M  END
>  <cdx:fragmentId>
5

$$$$
