92916.cdx
  Mrv1902 05222410222D          

 16 18  0  0  0  0            999 V2000
    7.1645   -7.7688    0.0000 C   0  0  0  0  0  0  0  0  0  0  0  0
    7.8011   -7.2441    0.0000 C   0  0  0  0  0  0  0  0  0  0  0  0
    7.7879   -6.4192    0.0000 C   0  0  0  0  0  0  0  0  0  0  0  0
    7.1347   -5.9152    0.0000 C   0  0  0  0  0  0  0  0  0  0  0  0
    6.3334   -6.1117    0.0000 C   0  0  0  0  0  0  0  0  0  0  0  0
    5.9875   -6.8607    0.0000 C   0  0  0  0  0  0  0  0  0  0  0  0
    6.3573   -7.5981    0.0000 C   0  0  0  0  0  0  0  0  0  0  0  0
    8.5897   -7.4864    0.0000 C   0  0  0  0  0  0  0  0  0  0  0  0
    9.0639   -6.8113    0.0000 C   0  0  0  0  0  0  0  0  0  0  0  0
    8.5683   -6.1517    0.0000 C   0  0  0  0  0  0  0  0  0  0  0  0
    5.1626   -6.8739    0.0000 C   0  0  0  0  0  0  0  0  0  0  0  0
    5.8088   -5.4750    0.0000 O   0  0  0  0  0  0  0  0  0  0  0  0
    8.8106   -5.3631    0.0000 C   0  0  0  0  0  0  0  0  0  0  0  0
    7.8360   -8.2480    0.0000 C   0  0  0  0  0  0  0  0  0  0  0  0
    6.8754   -8.5415    0.0000 C   0  0  0  0  0  0  0  0  0  0  0  0
    6.8995   -6.6787    0.0000 C   0  0  0  0  0  0  0  0  0  0  0  0
  1  2  1  0  0  0  0
  2  3  1  0  0  0  0
  3  4  1  0  0  0  0
  4  5  1  0  0  0  0
  5  6  1  0  0  0  0
  6  7  1  0  0  0  0
  7  1  1  0  0  0  0
  2  8  1  0  0  0  0
  8  9  1  0  0  0  0
  9 10  1  0  0  0  0
 10  3  1  0  0  0  0
  6 11  2  0  0  0  0
  5 12  1  0  0  0  0
 10 13  1  0  0  0  0
  1 14  1  0  0  0  0
  1 15  1  0  0  0  0
  7 16  1  0  0  0  0
 16  3  1  0  0  0  0
M  END
>  <cdx:fragmentId>
5

$$$$
