92914.cdx
  Mrv1902 05222410222D          

 23 24  0  0  0  0            999 V2000
    4.2331   -7.8364    0.0000 C   0  0  0  0  0  0  0  0  0  0  0  0
    4.2331   -8.6614    0.0000 C   0  0  0  0  0  0  0  0  0  0  0  0
    4.9475   -9.0739    0.0000 C   0  0  0  0  0  0  0  0  0  0  0  0
    5.6620   -8.6614    0.0000 C   0  0  0  0  0  0  0  0  0  0  0  0
    5.6620   -7.8364    0.0000 C   0  0  0  0  0  0  0  0  0  0  0  0
    4.9475   -7.4239    0.0000 C   0  0  0  0  0  0  0  0  0  0  0  0
    7.0909   -8.6614    0.0000 C   0  0  0  0  0  0  0  0  0  0  0  0
    7.0909   -7.8364    0.0000 C   0  0  0  0  0  0  0  0  0  0  0  0
    6.3765   -7.4239    0.0000 C   0  0  0  0  0  0  0  0  0  0  0  0
    7.8054   -9.0739    0.0000 C   0  0  0  0  0  0  0  0  0  0  0  0
    8.5199   -8.6614    0.0000 C   0  0  0  0  0  0  0  0  0  0  0  0
    8.5199   -7.8364    0.0000 C   0  0  0  0  0  0  0  0  0  0  0  0
    7.8054   -7.4239    0.0000 C   0  0  0  0  0  0  0  0  0  0  0  0
    4.9475   -6.5989    0.0000 O   0  0  0  0  0  0  0  0  0  0  0  0
    6.0745   -9.3759    0.0000 O   0  0  0  0  0  0  0  0  0  0  0  0
    6.6784   -9.3759    0.0000 C   0  0  0  0  0  0  0  0  0  0  0  0
    7.0909  -10.0903    0.0000 O   0  0  0  0  0  0  0  0  0  0  0  0
    6.2659  -10.0903    0.0000 O   0  0  0  0  0  0  0  0  0  0  0  0
    6.3765   -6.5989    0.0000 O   0  0  0  0  0  0  0  0  0  0  0  0
    7.8054   -6.5989    0.0000 O   0  0  0  0  0  0  0  0  0  0  0  0
    9.2344   -9.0739    0.0000 C   0  0  0  0  0  0  0  0  0  0  0  0
    9.9488   -8.6614    0.0000 O   0  0  0  0  0  0  0  0  0  0  0  0
    9.2344   -9.8989    0.0000 O   0  0  0  0  0  0  0  0  0  0  0  0
  1  2  2  0  0  0  0
  2  3  1  0  0  0  0
  3  4  2  0  0  0  0
  4  5  1  0  0  0  0
  5  6  2  0  0  0  0
  6  1  1  0  0  0  0
  7  8  2  0  0  0  0
  8  9  1  0  0  0  0
  9  5  1  0  0  0  0
  7 10  1  0  0  0  0
 10 11  2  0  0  0  0
 11 12  1  0  0  0  0
 12 13  2  0  0  0  0
 13  8  1  0  0  0  0
  6 14  1  0  0  0  0
  4 15  1  0  0  0  0
  7 16  1  0  0  0  0
 16 17  1  0  0  0  0
 16 18  2  0  0  0  0
  9 19  2  0  0  0  0
 13 20  1  0  0  0  0
 11 21  1  0  0  0  0
 21 22  2  0  0  0  0
 21 23  1  0  0  0  0
M  END
>  <cdx:fragmentId>
5

$$$$
