92910.cdx
  Mrv1902 05222410212D          

 19 21  0  0  0  0            999 V2000
    6.8391   -8.3254    0.0000 C   0  0  0  0  0  0  0  0  0  0  0  0
    6.1237   -7.9111    0.0000 C   0  0  2  0  0  0  0  0  0  0  0  0
    7.6504   -8.1822    0.0000 C   0  0  0  0  0  0  0  0  0  0  0  0
    8.1841   -7.5508    0.0000 C   0  0  2  0  0  0  0  0  0  0  0  0
    8.1825   -6.7269    0.0000 C   0  0  1  0  0  0  0  0  0  0  0  0
    7.6600   -6.0884    0.0000 C   0  0  0  0  0  0  0  0  0  0  0  0
    6.8478   -5.9393    0.0000 C   0  0  0  0  0  0  0  0  0  0  0  0
    6.1332   -6.3505    0.0000 C   0  0  0  0  0  0  0  0  0  0  0  0
    5.8592   -7.1281    0.0000 C   0  0  1  0  0  0  0  0  0  0  0  0
    5.3134   -7.7487    0.0000 O   0  0  0  0  0  0  0  0  0  0  0  0
    8.0794   -5.3780    0.0000 C   0  0  0  0  0  0  0  0  0  0  0  0
    9.0079   -7.5492    0.0000 C   0  0  0  0  0  0  0  0  0  0  0  0
    9.0063   -6.7253    0.0000 C   0  0  0  0  0  0  0  0  0  0  0  0
    9.8329   -7.5503    0.0000 C   0  0  0  0  0  0  0  0  0  0  0  0
    9.0068   -8.3742    0.0000 C   0  0  0  0  0  0  0  0  0  0  0  0
    8.3965   -8.3479    0.0000 H   0  0  0  0  0  0  0  0  0  0  0  0
    5.1474   -6.7110    0.0000 H   0  0  0  0  0  0  0  0  0  0  0  0
    5.8321   -8.6829    0.0000 C   0  0  0  0  0  0  0  0  0  0  0  0
    8.5959   -6.0130    0.0000 H   0  0  0  0  0  0  0  0  0  0  0  0
  1  2  1  0  0  0  0
  1  3  1  0  0  0  0
  3  4  1  0  0  0  0
  4  5  1  0  0  0  0
  5  6  1  0  0  0  0
  6  7  1  0  0  0  0
  7  8  1  0  0  0  0
  8  9  1  0  0  0  0
  2  9  1  0  0  0  0
  9 10  1  0  0  0  0
 10  2  1  0  0  0  0
  6 11  2  0  0  0  0
  4 12  1  0  0  0  0
 12 13  1  0  0  0  0
 13  5  1  0  0  0  0
 12 14  1  0  0  0  0
 12 15  1  0  0  0  0
  4 16  1  1  0  0  0
  9 17  1  1  0  0  0
  2 18  1  6  0  0  0
  5 19  1  6  0  0  0
M  END
>  <cdx:fragmentId>
739

$$$$
