92913.cdx
  Mrv1902 05222410202D          

 16 18  0  0  0  0            999 V2000
    7.6147   -7.0493    0.0000 C   0  0  0  0  0  0  0  0  0  0  0  0
    6.6112   -7.6570    0.0000 C   0  0  0  0  0  0  0  0  0  0  0  0
    5.9715   -7.4119    0.0000 C   0  0  0  0  0  0  0  0  0  0  0  0
    6.0062   -6.8008    0.0000 C   0  0  0  0  0  0  0  0  0  0  0  0
    6.4156   -6.5289    0.0000 C   0  0  0  0  0  0  0  0  0  0  0  0
    8.0624   -6.4763    0.0000 C   0  0  0  0  0  0  0  0  0  0  0  0
    7.5026   -5.7142    0.0000 C   0  0  0  0  0  0  0  0  0  0  0  0
    8.9059   -6.5102    0.0000 C   0  0  0  0  0  0  0  0  0  0  0  0
    8.5124   -7.4095    0.0000 C   0  0  0  0  0  0  0  0  0  0  0  0
    5.7264   -8.0516    0.0000 C   0  0  0  0  0  0  0  0  0  0  0  0
    6.3661   -8.2967    0.0000 C   0  0  0  0  0  0  0  0  0  0  0  0
    9.1121   -7.0597    0.0000 C   0  0  0  0  0  0  0  0  0  0  0  0
    8.6458   -5.8929    0.0000 C   0  0  0  0  0  0  0  0  0  0  0  0
    7.3810   -7.8051    0.0000 O   0  0  0  0  0  0  0  0  0  0  0  0
    4.9295   -7.8381    0.0000 C   0  0  0  0  0  0  0  0  0  0  0  0
    5.4716   -8.8363    0.0000 C   0  0  0  0  0  0  0  0  0  0  0  0
  1  2  1  0  0  0  0
  2  3  1  0  0  0  0
  3  4  1  0  0  0  0
  4  5  1  0  0  0  0
  5  6  1  0  0  0  0
  1  7  1  0  0  0  0
  6  7  1  0  0  0  0
  6  8  1  0  0  0  0
  1  9  1  0  0  0  0
  3 10  1  0  0  0  0
 10 11  1  0  0  0  0
 11  2  1  0  0  0  0
  8 12  1  0  0  0  0
  9 12  1  0  0  0  0
  6 13  1  0  0  0  0
  1 14  1  0  0  0  0
 10 15  1  0  0  0  0
 10 16  1  0  0  0  0
M  END
>  <cdx:groupId>
843

>  <cdx:fragmentId>
844

$$$$
