92915.cdx
  Mrv1902 05222410222D          

 21 23  0  0  0  0            999 V2000
    4.6181   -6.0225    0.0000 C   0  0  0  0  0  0  0  0  0  0  0  0
    4.6181   -6.8475    0.0000 C   0  0  0  0  0  0  0  0  0  0  0  0
    5.3325   -7.2600    0.0000 C   0  0  0  0  0  0  0  0  0  0  0  0
    6.0470   -6.8475    0.0000 C   0  0  0  0  0  0  0  0  0  0  0  0
    6.0470   -6.0225    0.0000 C   0  0  0  0  0  0  0  0  0  0  0  0
    5.3325   -5.6100    0.0000 C   0  0  0  0  0  0  0  0  0  0  0  0
    6.7615   -7.2600    0.0000 C   0  0  0  0  0  0  0  0  0  0  0  0
    7.4759   -6.8475    0.0000 C   0  0  0  0  0  0  0  0  0  0  0  0
    7.4759   -6.0225    0.0000 C   0  0  0  0  0  0  0  0  0  0  0  0
    6.7615   -5.6100    0.0000 C   0  0  0  0  0  0  0  0  0  0  0  0
    8.1904   -7.2600    0.0000 C   0  0  0  0  0  0  0  0  0  0  0  0
    8.9049   -6.8475    0.0000 C   0  0  0  0  0  0  0  0  0  0  0  0
    8.9049   -6.0225    0.0000 C   0  0  0  0  0  0  0  0  0  0  0  0
    8.1904   -5.6100    0.0000 C   0  0  0  0  0  0  0  0  0  0  0  0
    3.9036   -5.6100    0.0000 O   0  0  0  0  0  0  0  0  0  0  0  0
    5.3325   -8.0850    0.0000 O   0  0  0  0  0  0  0  0  0  0  0  0
    6.7615   -4.7850    0.0000 O   0  0  0  0  0  0  0  0  0  0  0  0
    6.7615   -8.0850    0.0000 O   0  0  0  0  0  0  0  0  0  0  0  0
    8.1904   -4.7850    0.0000 O   0  0  0  0  0  0  0  0  0  0  0  0
    8.1904   -8.0850    0.0000 O   0  0  0  0  0  0  0  0  0  0  0  0
    9.6194   -5.6100    0.0000 C   0  0  0  0  0  0  0  0  0  0  0  0
  1  2  2  0  0  0  0
  2  3  1  0  0  0  0
  3  4  2  0  0  0  0
  4  5  1  0  0  0  0
  5  6  2  0  0  0  0
  6  1  1  0  0  0  0
  4  7  1  0  0  0  0
  7  8  1  0  0  0  0
  8  9  2  0  0  0  0
  9 10  1  0  0  0  0
 10  5  1  0  0  0  0
  8 11  1  0  0  0  0
 11 12  2  0  0  0  0
 12 13  1  0  0  0  0
 13 14  2  0  0  0  0
 14  9  1  0  0  0  0
  1 15  1  0  0  0  0
  3 16  1  0  0  0  0
 10 17  2  0  0  0  0
  7 18  2  0  0  0  0
 14 19  1  0  0  0  0
 11 20  1  0  0  0  0
 13 21  1  0  0  0  0
M  END
>  <cdx:fragmentId>
5

$$$$
