92917.cdx
  Mrv1902 05222410232D          

 48 53  0  0  0  0            999 V2000
    2.1568   -7.0263    0.0000 C   0  0  0  0  0  0  0  0  0  0  0  0
    2.1568   -7.8513    0.0000 C   0  0  0  0  0  0  0  0  0  0  0  0
    2.8713   -8.2637    0.0000 C   0  0  0  0  0  0  0  0  0  0  0  0
    3.5857   -7.8513    0.0000 C   0  0  0  0  0  0  0  0  0  0  0  0
    3.5857   -7.0263    0.0000 C   0  0  0  0  0  0  0  0  0  0  0  0
    2.8713   -6.6137    0.0000 C   0  0  0  0  0  0  0  0  0  0  0  0
    4.3704   -8.1062    0.0000 O   0  0  0  0  0  0  0  0  0  0  0  0
    4.8553   -7.4387    0.0000 C   0  0  0  0  0  0  0  0  0  0  0  0
    4.3704   -6.7713    0.0000 C   0  0  0  0  0  0  0  0  0  0  0  0
    5.6803   -7.4387    0.0000 C   0  0  0  0  0  0  0  0  0  0  0  0
    6.0928   -8.1532    0.0000 C   0  0  0  0  0  0  0  0  0  0  0  0
    6.9178   -8.1532    0.0000 C   0  0  0  0  0  0  0  0  0  0  0  0
    7.3303   -7.4387    0.0000 C   0  0  0  0  0  0  0  0  0  0  0  0
    6.9178   -6.7243    0.0000 C   0  0  0  0  0  0  0  0  0  0  0  0
    6.0928   -6.7243    0.0000 C   0  0  0  0  0  0  0  0  0  0  0  0
    8.1553   -7.4387    0.0000 C   0  0  0  0  0  0  0  0  0  0  0  0
    8.1499   -8.2637    0.0000 C   0  0  0  0  0  0  0  0  0  0  0  0
    8.8616   -8.6809    0.0000 C   0  0  0  0  0  0  0  0  0  0  0  0
    9.5788   -8.2731    0.0000 C   0  0  0  0  0  0  0  0  0  0  0  0
    9.5842   -7.4481    0.0000 C   0  0  0  0  0  0  0  0  0  0  0  0
    8.8725   -7.0310    0.0000 C   0  0  0  0  0  0  0  0  0  0  0  0
   10.3014   -7.0403    0.0000 C   0  0  0  0  0  0  0  0  0  0  0  0
   11.0104   -7.4622    0.0000 C   0  0  0  0  0  0  0  0  0  0  0  0
   11.7302   -7.0591    0.0000 C   0  0  0  0  0  0  0  0  0  0  0  0
   11.7302   -6.2342    0.0000 C   0  0  0  0  0  0  0  0  0  0  0  0
   11.0104   -5.8123    0.0000 C   0  0  0  0  0  0  0  0  0  0  0  0
   10.3014   -6.2154    0.0000 C   0  0  0  0  0  0  0  0  0  0  0  0
    8.8562   -9.5059    0.0000 C   0  0  0  0  0  0  0  0  0  0  0  0
    7.3303   -8.8677    0.0000 O   0  0  0  0  0  0  0  0  0  0  0  0
   10.9995   -8.2871    0.0000 O   0  0  0  0  0  0  0  0  0  0  0  0
   12.4460   -5.8240    0.0000 O   0  0  0  0  0  0  0  0  0  0  0  0
    8.8779   -6.2060    0.0000 C   0  0  0  0  0  0  0  0  0  0  0  0
    8.1661   -5.7888    0.0000 O   0  0  0  0  0  0  0  0  0  0  0  0
    9.5950   -5.7982    0.0000 C   0  0  0  0  0  0  0  0  0  0  0  0
   10.4197   -5.7750    0.0000 C   0  0  0  0  0  0  0  0  0  0  0  0
   10.8120   -5.0492    0.0000 C   0  0  0  0  0  0  0  0  0  0  0  0
   10.3795   -4.3466    0.0000 C   0  0  0  0  0  0  0  0  0  0  0  0
    9.5549   -4.3698    0.0000 C   0  0  0  0  0  0  0  0  0  0  0  0
    9.1626   -5.0956    0.0000 C   0  0  0  0  0  0  0  0  0  0  0  0
    9.1224   -3.6672    0.0000 C   0  0  0  0  0  0  0  0  0  0  0  0
    1.4423   -8.2637    0.0000 O   0  0  0  0  0  0  0  0  0  0  0  0
    7.3303   -6.0098    0.0000 O   0  0  0  0  0  0  0  0  0  0  0  0
   10.7718   -3.6208    0.0000 O   0  0  0  0  0  0  0  0  0  0  0  0
    8.3379   -5.1188    0.0000 O   0  0  0  0  0  0  0  0  0  0  0  0
    9.5147   -2.9414    0.0000 C   0  0  0  0  0  0  0  0  0  0  0  0
    9.0823   -2.2388    0.0000 C   0  0  0  0  0  0  0  0  0  0  0  0
    9.4745   -1.5130    0.0000 C   0  0  0  0  0  0  0  0  0  0  0  0
    8.2576   -2.2620    0.0000 C   0  0  0  0  0  0  0  0  0  0  0  0
  1  2  2  0  0  0  0
  2  3  1  0  0  0  0
  3  4  2  0  0  0  0
  4  5  1  0  0  0  0
  5  6  2  0  0  0  0
  6  1  1  0  0  0  0
  4  7  1  0  0  0  0
  7  8  1  0  0  0  0
  8  9  2  0  0  0  0
  9  5  1  0  0  0  0
  8 10  1  0  0  0  0
 10 11  2  0  0  0  0
 11 12  1  0  0  0  0
 12 13  2  0  0  0  0
 13 14  1  0  0  0  0
 14 15  2  0  0  0  0
 15 10  1  0  0  0  0
 13 16  1  0  0  0  0
 16 17  1  0  0  0  0
 17 18  2  0  0  0  0
 18 19  1  0  0  0  0
 19 20  1  0  0  0  0
 20 21  1  0  0  0  0
 21 16  1  0  0  0  0
 20 22  1  0  0  0  0
 22 23  2  0  0  0  0
 23 24  1  0  0  0  0
 24 25  2  0  0  0  0
 25 26  1  0  0  0  0
 26 27  2  0  0  0  0
 27 22  1  0  0  0  0
 18 28  1  0  0  0  0
 12 29  1  0  0  0  0
 23 30  1  0  0  0  0
 25 31  1  0  0  0  0
 21 32  1  0  0  0  0
 32 33  2  0  0  0  0
 32 34  1  0  0  0  0
 34 35  2  0  0  0  0
 35 36  1  0  0  0  0
 36 37  2  0  0  0  0
 37 38  1  0  0  0  0
 38 39  2  0  0  0  0
 39 34  1  0  0  0  0
 38 40  1  0  0  0  0
  2 41  1  0  0  0  0
 14 42  1  0  0  0  0
 37 43  1  0  0  0  0
 39 44  1  0  0  0  0
 40 45  1  0  0  0  0
 45 46  2  0  0  0  0
 46 47  1  0  0  0  0
 46 48  1  0  0  0  0
M  END
>  <cdx:fragmentId>
5

$$$$
