92919.cdx
  Mrv1902 05222410242D          

 90 98  0  0  0  0            999 V2000
   15.5511   -8.2232    0.0000 O   0  0  0  0  0  0  0  0  0  0  0  0
   16.1179   -8.8072    0.0000 C   0  0  2  0  0  0  0  0  0  0  0  0
   12.2204  -10.6718    0.0000 C   0  0  0  0  0  0  0  0  0  0  0  0
   11.5060  -11.0843    0.0000 C   0  0  0  0  0  0  0  0  0  0  0  0
   11.5060  -11.9093    0.0000 C   0  0  1  0  0  0  0  0  0  0  0  0
   12.2204  -12.3218    0.0000 C   0  0  0  0  0  0  0  0  0  0  0  0
   12.9349  -11.9093    0.0000 C   0  0  2  0  0  0  0  0  0  0  0  0
   13.6494  -12.3218    0.0000 C   0  0  0  0  0  0  0  0  0  0  0  0
   14.3638  -11.9093    0.0000 C   0  0  0  0  0  0  0  0  0  0  0  0
   14.3638  -11.0843    0.0000 C   0  0  1  0  0  0  0  0  0  0  0  0
   15.0783  -10.6718    0.0000 C   0  0  2  0  0  0  0  0  0  0  0  0
   15.8629  -10.9267    0.0000 C   0  0  0  0  0  0  0  0  0  0  0  0
   16.3479  -10.2593    0.0000 C   0  0  0  0  0  0  0  0  0  0  0  0
   15.8629   -9.5919    0.0000 C   0  0  1  0  0  0  0  0  0  0  0  0
   15.0783   -9.8468    0.0000 C   0  0  1  0  0  0  0  0  0  0  0  0
   14.3638   -9.4343    0.0000 C   0  0  1  0  0  0  0  0  0  0  0  0
   13.6494   -9.8468    0.0000 C   0  0  0  0  0  0  0  0  0  0  0  0
   13.6494  -10.6718    0.0000 C   0  0  2  0  0  0  0  0  0  0  0  0
   12.9349  -11.0843    0.0000 C   0  0  1  0  0  0  0  0  0  0  0  0
   15.0783  -11.4968    0.0000 C   0  0  0  0  0  0  0  0  0  0  0  0
   12.9349  -10.2593    0.0000 C   0  0  0  0  0  0  0  0  0  0  0  0
   14.3638  -10.2593    0.0000 C   0  0  0  0  0  0  0  0  0  0  0  0
   12.6329  -13.0363    0.0000 C   0  0  0  0  0  0  0  0  0  0  0  0
   11.8079  -13.0363    0.0000 C   0  0  0  0  0  0  0  0  0  0  0  0
   14.3638   -8.6093    0.0000 O   0  0  0  0  0  0  0  0  0  0  0  0
   10.7915  -12.3218    0.0000 O   0  0  0  0  0  0  0  0  0  0  0  0
   10.0786  -11.0834    0.0000 O   0  0  0  0  0  0  0  0  0  0  0  0
   10.0775  -11.9084    0.0000 C   0  0  2  0  0  0  0  0  0  0  0  0
    9.3626  -12.3200    0.0000 C   0  0  1  0  0  0  0  0  0  0  0  0
    8.6486  -11.9066    0.0000 C   0  0  2  0  0  0  0  0  0  0  0  0
    8.6496  -11.0816    0.0000 C   0  0  1  0  0  0  0  0  0  0  0  0
    9.3646  -10.6700    0.0000 C   0  0  1  0  0  0  0  0  0  0  0  0
    9.3615  -13.1450    0.0000 O   0  0  0  0  0  0  0  0  0  0  0  0
    9.3657   -9.8450    0.0000 C   0  0  0  0  0  0  0  0  0  0  0  0
    8.6517   -9.4316    0.0000 O   0  0  0  0  0  0  0  0  0  0  0  0
    7.9357  -10.6682    0.0000 O   0  0  0  0  0  0  0  0  0  0  0  0
    7.9336  -12.3182    0.0000 O   0  0  0  0  0  0  0  0  0  0  0  0
   12.9349  -12.7343    0.0000 H   0  0  0  0  0  0  0  0  0  0  0  0
   13.6494  -11.4968    0.0000 H   0  0  0  0  0  0  0  0  0  0  0  0
   15.1646   -9.0263    0.0000 H   0  0  0  0  0  0  0  0  0  0  0  0
   16.6778   -9.4628    0.0000 H   0  0  0  0  0  0  0  0  0  0  0  0
   16.9249   -8.6357    0.0000 C   0  0  0  0  0  0  0  0  0  0  0  0
   17.4769   -9.2488    0.0000 C   0  0  0  0  0  0  0  0  0  0  0  0
   18.2839   -9.0773    0.0000 C   0  0  0  0  0  0  0  0  0  0  0  0
   18.8359   -9.6904    0.0000 C   0  0  0  0  0  0  0  0  0  0  0  0
   19.6429   -9.5189    0.0000 C   0  0  0  0  0  0  0  0  0  0  0  0
   18.5810  -10.4750    0.0000 C   0  0  0  0  0  0  0  0  0  0  0  0
   16.3728   -8.0226    0.0000 C   0  0  0  0  0  0  0  0  0  0  0  0
    8.6527   -8.6066    0.0000 C   0  0  2  0  0  0  0  0  0  0  0  0
    9.3670   -8.1937    0.0000 O   0  0  0  0  0  0  0  0  0  0  0  0
    9.3670   -7.3687    0.0000 C   0  0  0  0  0  0  0  0  0  0  0  0
    8.6527   -6.9566    0.0000 C   0  0  2  0  0  0  0  0  0  0  0  0
    7.9385   -7.3687    0.0000 C   0  0  1  0  0  0  0  0  0  0  0  0
    7.9385   -8.1937    0.0000 C   0  0  1  0  0  0  0  0  0  0  0  0
    7.2241   -6.9561    0.0000 O   0  0  0  0  0  0  0  0  0  0  0  0
    8.6527   -6.1316    0.0000 O   0  0  0  0  0  0  0  0  0  0  0  0
    7.2239   -8.6059    0.0000 O   0  0  0  0  0  0  0  0  0  0  0  0
    8.9700  -13.8712    0.0000 C   0  0  2  0  0  0  0  0  0  0  0  0
    8.1453  -13.8942    0.0000 O   0  0  0  0  0  0  0  0  0  0  0  0
    7.7548  -14.6230    0.0000 C   0  0  1  0  0  0  0  0  0  0  0  0
    8.1889  -15.3246    0.0000 C   0  0  2  0  0  0  0  0  0  0  0  0
    9.0153  -15.3005    0.0000 C   0  0  1  0  0  0  0  0  0  0  0  0
    9.4041  -14.5728    0.0000 C   0  0  1  0  0  0  0  0  0  0  0  0
    6.9302  -14.6486    0.0000 C   0  0  0  0  0  0  0  0  0  0  0  0
    9.4498  -16.0018    0.0000 O   0  0  0  0  0  0  0  0  0  0  0  0
   10.2286  -14.5467    0.0000 O   0  0  0  0  0  0  0  0  0  0  0  0
    7.7978  -16.0510    0.0000 O   0  0  0  0  0  0  0  0  0  0  0  0
    6.5401  -15.3755    0.0000 O   0  0  0  0  0  0  0  0  0  0  0  0
   15.5427   -7.3983    0.0000 C   0  0  2  0  0  0  0  0  0  0  0  0
   16.2530   -6.9786    0.0000 O   0  0  0  0  0  0  0  0  0  0  0  0
   16.2446   -6.1536    0.0000 C   0  0  1  0  0  0  0  0  0  0  0  0
   15.5260   -5.7483    0.0000 C   0  0  2  0  0  0  0  0  0  0  0  0
   14.8158   -6.1681    0.0000 C   0  0  1  0  0  0  0  0  0  0  0  0
   14.8241   -6.9930    0.0000 C   0  0  1  0  0  0  0  0  0  0  0  0
   16.9549   -5.7339    0.0000 C   0  0  0  0  0  0  0  0  0  0  0  0
   14.0972   -5.7628    0.0000 O   0  0  0  0  0  0  0  0  0  0  0  0
   16.9465   -4.9089    0.0000 O   0  0  0  0  0  0  0  0  0  0  0  0
   17.6568   -4.4892    0.0000 C   0  0  2  0  0  0  0  0  0  0  0  0
   18.3795   -4.8872    0.0000 O   0  0  0  0  0  0  0  0  0  0  0  0
   19.0855   -4.4603    0.0000 C   0  0  1  0  0  0  0  0  0  0  0  0
   19.0855   -3.6355    0.0000 C   0  0  2  0  0  0  0  0  0  0  0  0
   18.3795   -3.2375    0.0000 C   0  0  1  0  0  0  0  0  0  0  0  0
   17.6568   -3.6644    0.0000 C   0  0  1  0  0  0  0  0  0  0  0  0
   19.8041   -4.8655    0.0000 C   0  0  0  0  0  0  0  0  0  0  0  0
   18.3711   -2.4126    0.0000 O   0  0  0  0  0  0  0  0  0  0  0  0
   19.7978   -3.2193    0.0000 O   0  0  0  0  0  0  0  0  0  0  0  0
   16.9403   -3.2554    0.0000 O   0  0  0  0  0  0  0  0  0  0  0  0
   15.5177   -4.9234    0.0000 O   0  0  0  0  0  0  0  0  0  0  0  0
   14.1139   -7.4127    0.0000 O   0  0  0  0  0  0  0  0  0  0  0  0
   20.5143   -4.4458    0.0000 O   0  0  0  0  0  0  0  0  0  0  0  0
  3  4  1  0  0  0  0
  4  5  1  0  0  0  0
  5  6  1  0  0  0  0
  6  7  1  0  0  0  0
  7  8  1  0  0  0  0
  8  9  1  0  0  0  0
  9 10  1  0  0  0  0
 10 11  1  0  0  0  0
 11 12  1  0  0  0  0
 12 13  1  0  0  0  0
 14 13  1  0  0  0  0
 14 15  1  0  0  0  0
 11 15  1  0  0  0  0
 15 16  1  0  0  0  0
 16 17  1  0  0  0  0
 17 18  1  0  0  0  0
 10 18  1  0  0  0  0
 18 19  1  0  0  0  0
  7 19  1  0  0  0  0
  3 19  1  0  0  0  0
 11 20  1  6  0  0  0
 19 21  1  1  0  0  0
 10 22  1  1  0  0  0
  6 23  1  0  0  0  0
  6 24  1  0  0  0  0
 16 25  1  1  0  0  0
 27 28  1  0  0  0  0
 28 29  1  0  0  0  0
 29 30  1  0  0  0  0
 30 31  1  0  0  0  0
 31 32  1  0  0  0  0
 27 32  1  0  0  0  0
 29 33  1  6  0  0  0
 34 35  1  0  0  0  0
 32 34  1  1  0  0  0
 31 36  1  6  0  0  0
 30 37  1  1  0  0  0
 28 26  1  1  0  0  0
  5 26  1  1  0  0  0
  2 14  1  0  0  0  0
  7 38  1  6  0  0  0
 18 39  1  6  0  0  0
 15 40  1  1  0  0  0
 14 41  1  6  0  0  0
  2 42  1  0  0  0  0
 42 43  1  0  0  0  0
 43 44  1  0  0  0  0
 44 45  2  0  0  0  0
 45 46  1  0  0  0  0
 45 47  1  0  0  0  0
  2 48  1  6  0  0  0
  2  1  1  1  0  0  0
 49 35  1  1  0  0  0
 49 50  1  0  0  0  0
 50 51  1  0  0  0  0
 51 52  1  0  0  0  0
 52 53  1  0  0  0  0
 53 54  1  0  0  0  0
 54 49  1  0  0  0  0
 53 55  1  1  0  0  0
 52 56  1  6  0  0  0
 54 57  1  6  0  0  0
 58 33  1  1  0  0  0
 58 59  1  0  0  0  0
 59 60  1  0  0  0  0
 60 61  1  0  0  0  0
 61 62  1  0  0  0  0
 62 63  1  0  0  0  0
 63 58  1  0  0  0  0
 60 64  1  1  0  0  0
 62 65  1  1  0  0  0
 63 66  1  6  0  0  0
 61 67  1  6  0  0  0
 64 68  1  0  0  0  0
 69  1  1  1  0  0  0
 69 70  1  0  0  0  0
 70 71  1  0  0  0  0
 71 72  1  0  0  0  0
 72 73  1  0  0  0  0
 73 74  1  0  0  0  0
 74 69  1  0  0  0  0
 71 75  1  1  0  0  0
 73 76  1  1  0  0  0
 75 77  1  0  0  0  0
 78 77  1  1  0  0  0
 78 79  1  0  0  0  0
 79 80  1  0  0  0  0
 80 81  1  0  0  0  0
 81 82  1  0  0  0  0
 82 83  1  0  0  0  0
 83 78  1  0  0  0  0
 80 84  1  1  0  0  0
 82 85  1  1  0  0  0
 81 86  1  6  0  0  0
 83 87  1  6  0  0  0
 72 88  1  6  0  0  0
 74 89  1  6  0  0  0
 84 90  1  0  0  0  0
M  END
>  <cdx:fragmentId>
31943

$$$$
