92921.cdx
  Mrv1902 05222410252D          

 14 14  0  0  0  0            999 V2000
    6.2543   -7.1638    0.0000 C   0  0  0  0  0  0  0  0  0  0  0  0
    6.2543   -7.9888    0.0000 C   0  0  0  0  0  0  0  0  0  0  0  0
    6.9688   -8.4013    0.0000 C   0  0  0  0  0  0  0  0  0  0  0  0
    7.6832   -7.9888    0.0000 C   0  0  0  0  0  0  0  0  0  0  0  0
    7.6832   -7.1638    0.0000 C   0  0  0  0  0  0  0  0  0  0  0  0
    6.9688   -6.7512    0.0000 C   0  0  0  0  0  0  0  0  0  0  0  0
    5.5398   -6.7512    0.0000 Cl  0  0  0  0  0  0  0  0  0  0  0  0
    6.9688   -5.9262    0.0000 C   0  0  0  0  0  0  0  0  0  0  0  0
    8.3977   -6.7512    0.0000 Cl  0  0  0  0  0  0  0  0  0  0  0  0
    6.9688   -9.2263    0.0000 Cl  0  0  0  0  0  0  0  0  0  0  0  0
    8.3977   -8.4013    0.0000 Cl  0  0  0  0  0  0  0  0  0  0  0  0
    5.5398   -8.4013    0.0000 C   0  0  0  0  0  0  0  0  0  0  0  0
    6.9688   -5.1013    0.0000 N   0  0  0  0  0  0  0  0  0  0  0  0
    4.8254   -8.8138    0.0000 N   0  0  0  0  0  0  0  0  0  0  0  0
  1  2  2  0  0  0  0
  2  3  1  0  0  0  0
  3  4  2  0  0  0  0
  4  5  1  0  0  0  0
  5  6  2  0  0  0  0
  6  1  1  0  0  0  0
  1  7  1  0  0  0  0
  6  8  1  0  0  0  0
  5  9  1  0  0  0  0
  3 10  1  0  0  0  0
  4 11  1  0  0  0  0
  2 12  1  0  0  0  0
  8 13  3  0  0  0  0
 12 14  3  0  0  0  0
M  END
>  <cdx:fragmentId>
5

$$$$
