92929.cdx
  Mrv1902 05222410222D          

 22 24  0  0  0  0            999 V2000
    6.0587   -6.2769    0.0000 C   0  0  0  0  0  0  0  0  0  0  0  0
    5.2910   -6.5785    0.0000 C   0  0  0  0  0  0  0  0  0  0  0  0
    5.6435   -5.8326    0.0000 C   0  0  0  0  0  0  0  0  0  0  0  0
    6.3996   -5.5034    0.0000 C   0  0  0  0  0  0  0  0  0  0  0  0
    5.8800   -4.9232    0.0000 N   0  0  0  0  0  0  0  0  0  0  0  0
    7.1572   -5.8297    0.0000 C   0  0  0  0  0  0  0  0  0  0  0  0
    6.8706   -6.4887    0.0000 C   0  0  0  0  0  0  0  0  0  0  0  0
    7.6015   -7.1787    0.0000 C   0  0  1  0  0  0  0  0  0  0  0  0
    7.6015   -8.0037    0.0000 O   0  0  0  0  0  0  0  0  0  0  0  0
    4.4941   -6.3649    0.0000 O   0  0  0  0  0  0  0  0  0  0  0  0
    5.8800   -4.0982    0.0000 C   0  0  0  0  0  0  0  0  0  0  0  0
    8.3160   -8.4162    0.0000 C   0  0  0  0  0  0  0  0  0  0  0  0
    8.3160   -9.2412    0.0000 O   0  0  0  0  0  0  0  0  0  0  0  0
    9.0304   -8.0037    0.0000 C   0  0  0  0  0  0  0  0  0  0  0  0
    9.7449   -8.4162    0.0000 C   0  0  0  0  0  0  0  0  0  0  0  0
    9.0304   -7.1787    0.0000 C   0  0  0  0  0  0  0  0  0  0  0  0
   10.4594   -8.0037    0.0000 O   0  0  0  0  0  0  0  0  0  0  0  0
    9.7449   -6.7662    0.0000 C   0  0  0  0  0  0  0  0  0  0  0  0
    9.7449   -5.9412    0.0000 C   0  0  0  0  0  0  0  0  0  0  0  0
    9.0304   -5.5287    0.0000 C   0  0  0  0  0  0  0  0  0  0  0  0
    8.3160   -5.9412    0.0000 C   0  0  0  0  0  0  0  0  0  0  0  0
    8.3160   -6.7662    0.0000 C   0  0  0  0  0  0  0  0  0  0  0  0
  1  2  1  0  0  0  0
  2  3  1  0  0  0  0
  3  4  1  0  0  0  0
  1  5  1  0  0  0  0
  4  5  1  0  0  0  0
  4  6  1  0  0  0  0
  1  7  1  0  0  0  0
  6  8  1  0  0  0  0
  7  8  1  0  0  0  0
  8  9  1  6  0  0  0
  2 10  1  0  0  0  0
  5 11  1  0  0  0  0
  9 12  1  0  0  0  0
 12 13  2  0  0  0  0
 12 14  1  0  0  0  0
 14 15  1  0  0  0  0
 14 16  1  0  0  0  0
 15 17  1  0  0  0  0
 16 18  2  0  0  0  0
 18 19  1  0  0  0  0
 19 20  2  0  0  0  0
 20 21  1  0  0  0  0
 21 22  2  0  0  0  0
 22 16  1  0  0  0  0
M  END
>  <cdx:groupId>
816

>  <cdx:fragmentId>
817

$$$$
