92923.cdx
  Mrv1902 05222410252D          

 12 12  0  0  0  0            999 V2000
    5.0168   -8.0300    0.0000 C   0  0  0  0  0  0  0  0  0  0  0  0
    5.0168   -8.8550    0.0000 C   0  0  0  0  0  0  0  0  0  0  0  0
    5.7313   -9.2675    0.0000 C   0  0  0  0  0  0  0  0  0  0  0  0
    6.4457   -8.8550    0.0000 C   0  0  0  0  0  0  0  0  0  0  0  0
    6.4457   -8.0300    0.0000 C   0  0  0  0  0  0  0  0  0  0  0  0
    5.7313   -7.6175    0.0000 C   0  0  0  0  0  0  0  0  0  0  0  0
    7.1602   -9.2675    0.0000 O   0  0  0  0  0  0  0  0  0  0  0  0
    7.1602   -7.6175    0.0000 C   0  0  0  0  0  0  0  0  0  0  0  0
    7.1602   -6.7925    0.0000 C   0  0  0  0  0  0  0  0  0  0  0  0
    7.8747   -6.3800    0.0000 C   0  0  0  0  0  0  0  0  0  0  0  0
    7.8747   -5.5550    0.0000 O   0  0  0  0  0  0  0  0  0  0  0  0
    8.5892   -6.7925    0.0000 O   0  0  0  0  0  0  0  0  0  0  0  0
  1  2  2  0  0  0  0
  2  3  1  0  0  0  0
  3  4  2  0  0  0  0
  4  5  1  0  0  0  0
  5  6  2  0  0  0  0
  6  1  1  0  0  0  0
  4  7  1  0  0  0  0
  5  8  1  0  0  0  0
  8  9  2  0  0  0  0
  9 10  1  0  0  0  0
 10 11  1  0  0  0  0
 10 12  2  0  0  0  0
M  END
>  <cdx:fragmentId>
5

$$$$
