92920.cdx
  Mrv1902 05222410252D          

 16 17  0  0  0  0            999 V2000
    9.0457   -5.0558    0.0000 C   0  0  0  0  0  0  0  0  0  0  0  0
    6.1750   -7.5160    0.0000 C   0  0  0  0  0  0  0  0  0  0  0  0
    5.4798   -3.7998    0.0000 C   0  0  0  0  0  0  0  0  0  0  0  0
    7.6211   -4.2234    0.0000 O   0  0  0  0  0  0  0  0  0  0  0  0
    6.9087   -3.8072    0.0000 C   0  0  0  0  0  0  0  0  0  0  0  0
    6.1921   -4.2160    0.0000 C   0  0  0  0  0  0  0  0  0  0  0  0
    7.6082   -6.6984    0.0000 C   0  0  0  0  0  0  0  0  0  0  0  0
    8.3248   -6.2896    0.0000 C   0  0  0  0  0  0  0  0  0  0  0  0
    8.3291   -5.4646    0.0000 C   0  0  0  0  0  0  0  0  0  0  0  0
    7.6168   -5.0484    0.0000 C   0  0  0  0  0  0  0  0  0  0  0  0
    5.4670   -6.2748    0.0000 C   0  0  0  0  0  0  0  0  0  0  0  0
    6.1793   -6.6910    0.0000 C   0  0  0  0  0  0  0  0  0  0  0  0
    6.8959   -6.2822    0.0000 C   0  0  0  0  0  0  0  0  0  0  0  0
    6.9002   -5.4572    0.0000 C   0  0  0  0  0  0  0  0  0  0  0  0
    6.1879   -5.0410    0.0000 C   0  0  0  0  0  0  0  0  0  0  0  0
    5.4713   -5.4498    0.0000 C   0  0  0  0  0  0  0  0  0  0  0  0
  9  1  2  0  0  0  0
 12  2  1  0  0  0  0
  6  3  1  0  0  0  0
  4 10  2  0  0  0  0
  6  5  1  0  0  0  0
 15  6  1  0  0  0  0
  7 13  1  0  0  0  0
  8  7  1  0  0  0  0
  9  8  1  0  0  0  0
 10  9  1  0  0  0  0
 14 10  1  0  0  0  0
 11 16  1  0  0  0  0
 12 11  2  0  0  0  0
 13 12  1  0  0  0  0
 14 13  1  0  0  0  0
 15 14  1  0  0  0  0
 16 15  1  0  0  0  0
M  END
>  <cdx:fragmentId>
5

$$$$
