92928.cdx
  Mrv1902 05222410222D          

 54 63  0  0  0  0            999 V2000
    8.4538   -6.3393    0.0000 C   0  0  0  0  0  0  0  0  0  0  0  0
    8.0413   -7.0537    0.0000 C   0  0  0  0  0  0  0  0  0  0  0  0
    8.4538   -7.7682    0.0000 C   0  0  0  0  0  0  0  0  0  0  0  0
    9.2788   -7.7682    0.0000 C   0  0  0  0  0  0  0  0  0  0  0  0
    9.6913   -7.0537    0.0000 C   0  0  0  0  0  0  0  0  0  0  0  0
    9.2788   -6.3393    0.0000 C   0  0  0  0  0  0  0  0  0  0  0  0
    8.1988   -8.5528    0.0000 C   0  0  2  0  0  0  0  0  0  0  0  0
    8.8663   -9.0378    0.0000 C   0  0  1  0  0  0  0  0  0  0  0  0
    9.5337   -8.5528    0.0000 O   0  0  0  0  0  0  0  0  0  0  0  0
    7.6155   -9.1362    0.0000 C   0  0  0  0  0  0  0  0  0  0  0  0
    6.7905   -9.1362    0.0000 C   0  0  0  0  0  0  0  0  0  0  0  0
    6.3780   -9.8507    0.0000 C   0  0  0  0  0  0  0  0  0  0  0  0
    6.7905  -10.5651    0.0000 C   0  0  0  0  0  0  0  0  0  0  0  0
    7.6155  -10.5651    0.0000 C   0  0  0  0  0  0  0  0  0  0  0  0
    8.0280   -9.8507    0.0000 C   0  0  0  0  0  0  0  0  0  0  0  0
    6.2384   -8.5231    0.0000 C   0  0  2  0  0  0  0  0  0  0  0  0
    5.4848   -8.8587    0.0000 C   0  0  1  0  0  0  0  0  0  0  0  0
    5.5710   -9.6791    0.0000 O   0  0  0  0  0  0  0  0  0  0  0  0
    6.0249   -7.7262    0.0000 C   0  0  0  0  0  0  0  0  0  0  0  0
    6.4249   -7.0047    0.0000 C   0  0  0  0  0  0  0  0  0  0  0  0
    6.0000   -6.2975    0.0000 C   0  0  0  0  0  0  0  0  0  0  0  0
    5.1751   -6.3119    0.0000 C   0  0  0  0  0  0  0  0  0  0  0  0
    4.7751   -7.0335    0.0000 C   0  0  0  0  0  0  0  0  0  0  0  0
    5.2000   -7.7406    0.0000 C   0  0  0  0  0  0  0  0  0  0  0  0
    7.2287   -6.8191    0.0000 C   0  0  1  0  0  0  0  0  0  0  0  0
    7.3006   -5.9972    0.0000 C   0  0  2  0  0  0  0  0  0  0  0  0
    6.5412   -5.6749    0.0000 O   0  0  0  0  0  0  0  0  0  0  0  0
    3.9502   -7.0479    0.0000 O   0  0  0  0  0  0  0  0  0  0  0  0
    9.6913   -5.6248    0.0000 O   0  0  0  0  0  0  0  0  0  0  0  0
    8.0280  -11.2796    0.0000 O   0  0  0  0  0  0  0  0  0  0  0  0
    8.0078   -5.5723    0.0000 C   0  0  0  0  0  0  0  0  0  0  0  0
    8.7362   -5.9596    0.0000 C   0  0  0  0  0  0  0  0  0  0  0  0
    9.4358   -5.5224    0.0000 C   0  0  0  0  0  0  0  0  0  0  0  0
    9.4070   -4.6979    0.0000 C   0  0  0  0  0  0  0  0  0  0  0  0
    8.6786   -4.3106    0.0000 C   0  0  0  0  0  0  0  0  0  0  0  0
    7.9789   -4.7478    0.0000 C   0  0  0  0  0  0  0  0  0  0  0  0
   10.1066   -4.2607    0.0000 O   0  0  0  0  0  0  0  0  0  0  0  0
    8.6498   -3.4861    0.0000 O   0  0  0  0  0  0  0  0  0  0  0  0
    9.0798   -9.8347    0.0000 C   0  0  0  0  0  0  0  0  0  0  0  0
    8.4964  -10.4180    0.0000 C   0  0  0  0  0  0  0  0  0  0  0  0
    8.7100  -11.2149    0.0000 C   0  0  0  0  0  0  0  0  0  0  0  0
    9.5069  -11.4284    0.0000 C   0  0  0  0  0  0  0  0  0  0  0  0
   10.0902  -10.8451    0.0000 C   0  0  0  0  0  0  0  0  0  0  0  0
    9.8767  -10.0482    0.0000 C   0  0  0  0  0  0  0  0  0  0  0  0
    9.7204  -12.2253    0.0000 O   0  0  0  0  0  0  0  0  0  0  0  0
   10.8871  -11.0586    0.0000 O   0  0  0  0  0  0  0  0  0  0  0  0
    4.6879   -8.6451    0.0000 C   0  0  0  0  0  0  0  0  0  0  0  0
    4.4744   -7.8483    0.0000 C   0  0  0  0  0  0  0  0  0  0  0  0
    3.6775   -7.6347    0.0000 C   0  0  0  0  0  0  0  0  0  0  0  0
    3.0941   -8.2181    0.0000 C   0  0  0  0  0  0  0  0  0  0  0  0
    3.3076   -9.0150    0.0000 C   0  0  0  0  0  0  0  0  0  0  0  0
    4.1045   -9.2285    0.0000 C   0  0  0  0  0  0  0  0  0  0  0  0
    2.2972   -8.0046    0.0000 O   0  0  0  0  0  0  0  0  0  0  0  0
    2.7243   -9.5983    0.0000 O   0  0  0  0  0  0  0  0  0  0  0  0
  1  2  2  0  0  0  0
  2  3  1  0  0  0  0
  3  4  2  0  0  0  0
  4  5  1  0  0  0  0
  5  6  2  0  0  0  0
  6  1  1  0  0  0  0
  3  7  1  0  0  0  0
  7  8  1  0  0  0  0
  8  9  1  0  0  0  0
  9  4  1  0  0  0  0
  7 10  1  6  0  0  0
 10 11  2  0  0  0  0
 11 12  1  0  0  0  0
 12 13  2  0  0  0  0
 13 14  1  0  0  0  0
 14 15  2  0  0  0  0
 15 10  1  0  0  0  0
 11 16  1  0  0  0  0
 16 17  1  0  0  0  0
 17 18  1  0  0  0  0
 18 12  1  0  0  0  0
 16 19  1  6  0  0  0
 19 20  2  0  0  0  0
 20 21  1  0  0  0  0
 21 22  2  0  0  0  0
 22 23  1  0  0  0  0
 23 24  2  0  0  0  0
 24 19  1  0  0  0  0
 20 25  1  0  0  0  0
 25 26  1  0  0  0  0
 26 27  1  0  0  0  0
 27 21  1  0  0  0  0
 25  2  1  1  0  0  0
 23 28  1  0  0  0  0
  6 29  1  0  0  0  0
 14 30  1  0  0  0  0
 26 31  1  6  0  0  0
 31 32  2  0  0  0  0
 32 33  1  0  0  0  0
 33 34  2  0  0  0  0
 34 35  1  0  0  0  0
 35 36  2  0  0  0  0
 36 31  1  0  0  0  0
 34 37  1  0  0  0  0
 35 38  1  0  0  0  0
  8 39  1  1  0  0  0
 39 40  2  0  0  0  0
 40 41  1  0  0  0  0
 41 42  2  0  0  0  0
 42 43  1  0  0  0  0
 43 44  2  0  0  0  0
 44 39  1  0  0  0  0
 42 45  1  0  0  0  0
 43 46  1  0  0  0  0
 17 47  1  1  0  0  0
 47 48  2  0  0  0  0
 48 49  1  0  0  0  0
 49 50  2  0  0  0  0
 50 51  1  0  0  0  0
 51 52  2  0  0  0  0
 52 47  1  0  0  0  0
 50 53  1  0  0  0  0
 51 54  1  0  0  0  0
M  END
>  <cdx:fragmentId>
5

$$$$
