92934.cdx
  Mrv1902 05222410252D          

 39 41  0  0  0  0            999 V2000
    4.3018   -7.5900    0.0000 C   0  0  0  0  0  0  0  0  0  0  0  0
    4.3018   -8.4150    0.0000 C   0  0  0  0  0  0  0  0  0  0  0  0
    5.0163   -8.8275    0.0000 C   0  0  0  0  0  0  0  0  0  0  0  0
    5.7307   -8.4150    0.0000 C   0  0  0  0  0  0  0  0  0  0  0  0
    5.7307   -7.5900    0.0000 C   0  0  0  0  0  0  0  0  0  0  0  0
    5.0163   -7.1775    0.0000 C   0  0  0  0  0  0  0  0  0  0  0  0
    3.5873   -8.8275    0.0000 O   0  0  0  0  0  0  0  0  0  0  0  0
    5.0163   -9.6525    0.0000 O   0  0  0  0  0  0  0  0  0  0  0  0
    6.4452   -8.8275    0.0000 O   0  0  0  0  0  0  0  0  0  0  0  0
    5.4288   -6.4630    0.0000 O   0  0  0  0  0  0  0  0  0  0  0  0
    4.6038   -6.4630    0.0000 C   0  0  0  0  0  0  0  0  0  0  0  0
    5.0163   -5.7486    0.0000 O   0  0  0  0  0  0  0  0  0  0  0  0
    3.7788   -6.4630    0.0000 O   0  0  0  0  0  0  0  0  0  0  0  0
    8.5329  -12.5611    0.0000 C   0  0  0  0  0  0  0  0  0  0  0  0
    9.2534  -12.1593    0.0000 C   0  0  0  0  0  0  0  0  0  0  0  0
    9.2657  -11.3344    0.0000 C   0  0  0  0  0  0  0  0  0  0  0  0
    8.5574  -10.9113    0.0000 C   0  0  0  0  0  0  0  0  0  0  0  0
    7.8369  -11.3131    0.0000 C   0  0  0  0  0  0  0  0  0  0  0  0
    7.8246  -12.1380    0.0000 C   0  0  0  0  0  0  0  0  0  0  0  0
    9.9617  -12.5824    0.0000 O   0  0  0  0  0  0  0  0  0  0  0  0
    8.5206  -13.3860    0.0000 O   0  0  0  0  0  0  0  0  0  0  0  0
    7.8001  -13.7879    0.0000 C   0  0  0  0  0  0  0  0  0  0  0  0
    7.1286  -10.8901    0.0000 C   0  0  0  0  0  0  0  0  0  0  0  0
    7.1409  -10.0652    0.0000 C   0  0  0  0  0  0  0  0  0  0  0  0
    6.4326   -9.6421    0.0000 C   0  0  0  0  0  0  0  0  0  0  0  0
    5.7121  -10.0439    0.0000 O   0  0  0  0  0  0  0  0  0  0  0  0
    9.1104   -4.2584    0.0000 C   0  0  0  0  0  0  0  0  0  0  0  0
    8.6868   -3.5505    0.0000 C   0  0  0  0  0  0  0  0  0  0  0  0
    7.8619   -3.5634    0.0000 C   0  0  0  0  0  0  0  0  0  0  0  0
    7.4607   -4.2843    0.0000 C   0  0  0  0  0  0  0  0  0  0  0  0
    7.8843   -4.9922    0.0000 C   0  0  0  0  0  0  0  0  0  0  0  0
    8.7092   -4.9792    0.0000 C   0  0  0  0  0  0  0  0  0  0  0  0
    9.0880   -2.8296    0.0000 O   0  0  0  0  0  0  0  0  0  0  0  0
    9.9353   -4.2454    0.0000 O   0  0  0  0  0  0  0  0  0  0  0  0
   10.3590   -4.9533    0.0000 C   0  0  0  0  0  0  0  0  0  0  0  0
    7.4831   -5.7131    0.0000 C   0  0  0  0  0  0  0  0  0  0  0  0
    6.6582   -5.7260    0.0000 C   0  0  0  0  0  0  0  0  0  0  0  0
    6.2570   -6.4469    0.0000 C   0  0  0  0  0  0  0  0  0  0  0  0
    6.6806   -7.1548    0.0000 O   0  0  0  0  0  0  0  0  0  0  0  0
  1  2  1  0  0  0  0
  2  3  1  0  0  0  0
  3  4  1  0  0  0  0
  4  5  1  0  0  0  0
  5  6  1  0  0  0  0
  6  1  1  0  0  0  0
  2  7  1  0  0  0  0
  3  8  1  0  0  0  0
  4  9  1  0  0  0  0
  6 10  1  0  0  0  0
  6 11  1  0  0  0  0
 11 12  2  0  0  0  0
 11 13  1  0  0  0  0
 14 15  2  0  0  0  0
 15 16  1  0  0  0  0
 16 17  2  0  0  0  0
 17 18  1  0  0  0  0
 18 19  2  0  0  0  0
 19 14  1  0  0  0  0
 15 20  1  0  0  0  0
 14 21  1  0  0  0  0
 21 22  1  0  0  0  0
 18 23  1  0  0  0  0
 23 24  2  0  0  0  0
 24 25  1  0  0  0  0
 25 26  2  0  0  0  0
 27 28  2  0  0  0  0
 28 29  1  0  0  0  0
 29 30  2  0  0  0  0
 30 31  1  0  0  0  0
 31 32  2  0  0  0  0
 32 27  1  0  0  0  0
 28 33  1  0  0  0  0
 27 34  1  0  0  0  0
 34 35  1  0  0  0  0
 31 36  1  0  0  0  0
 36 37  2  0  0  0  0
 37 38  1  0  0  0  0
 38 39  2  0  0  0  0
 38 10  1  0  0  0  0
 25  9  1  0  0  0  0
M  END
>  <cdx:fragmentId>
5

$$$$
