92930.cdx
  Mrv1902 05222410242D          

 47 51  0  0  0  0            999 V2000
    2.1962   -8.3225    0.0000 O   0  0  0  0  0  0  0  0  0  0  0  0
    2.1961   -7.4971    0.0000 C   0  0  2  0  0  0  0  0  0  0  0  0
    2.9067   -7.0786    0.0000 O   0  0  0  0  0  0  0  0  0  0  0  0
    2.8996   -6.2539    0.0000 C   0  0  1  0  0  0  0  0  0  0  0  0
    2.1818   -5.8477    0.0000 C   0  0  2  0  0  0  0  0  0  0  0  0
    1.4712   -6.2663    0.0000 C   0  0  1  0  0  0  0  0  0  0  0  0
    1.4783   -7.0910    0.0000 C   0  0  1  0  0  0  0  0  0  0  0  0
    3.6103   -5.8354    0.0000 C   0  0  0  0  0  0  0  0  0  0  0  0
    0.7534   -5.8601    0.0000 O   0  0  0  0  0  0  0  0  0  0  0  0
    2.1747   -5.0230    0.0000 O   0  0  0  0  0  0  0  0  0  0  0  0
    0.7676   -7.5095    0.0000 O   0  0  0  0  0  0  0  0  0  0  0  0
    3.6103   -4.8045    0.0000 O   0  0  0  0  0  0  0  0  0  0  0  0
   10.3355   -9.1472    0.0000 O   0  0  0  0  0  0  0  0  0  0  0  0
   11.0527   -9.5544    0.0000 C   0  0  2  0  0  0  0  0  0  0  0  0
   11.0586  -10.3792    0.0000 O   0  0  0  0  0  0  0  0  0  0  0  0
   11.7758  -10.7864    0.0000 C   0  0  1  0  0  0  0  0  0  0  0  0
   12.4871  -10.3689    0.0000 C   0  0  2  0  0  0  0  0  0  0  0  0
   12.4812   -9.5442    0.0000 C   0  0  1  0  0  0  0  0  0  0  0  0
   11.7640   -9.1370    0.0000 C   0  0  1  0  0  0  0  0  0  0  0  0
   11.7817  -11.6111    0.0000 C   0  0  0  0  0  0  0  0  0  0  0  0
   13.1924   -9.1267    0.0000 O   0  0  0  0  0  0  0  0  0  0  0  0
   13.2043  -10.7762    0.0000 O   0  0  0  0  0  0  0  0  0  0  0  0
   11.7581   -8.3122    0.0000 O   0  0  0  0  0  0  0  0  0  0  0  0
   12.6745  -12.1266    0.0000 O   0  0  0  0  0  0  0  0  0  0  0  0
    2.9104   -8.7348    0.0000 C   0  0  0  0  0  0  0  0  0  0  0  0
    3.6247   -8.3225    0.0000 C   0  0  0  0  0  0  0  0  0  0  0  0
    4.3389  -11.2091    0.0000 C   0  0  0  0  0  0  0  0  0  0  0  0
    5.0532  -10.7967    0.0000 O   0  0  0  0  0  0  0  0  0  0  0  0
    6.2548   -7.0827    0.0000 O   0  0  0  0  0  0  0  0  0  0  0  0
    6.8066   -7.6956    0.0000 C   0  0  0  0  0  0  0  0  0  0  0  0
    5.0532   -8.3225    0.0000 C   0  0  0  0  0  0  0  0  0  0  0  0
    4.3389   -8.7348    0.0000 C   0  0  0  0  0  0  0  0  0  0  0  0
    4.3389   -9.5596    0.0000 C   0  0  0  0  0  0  0  0  0  0  0  0
    5.0532   -9.9720    0.0000 C   0  0  0  0  0  0  0  0  0  0  0  0
    6.5518   -8.4800    0.0000 C   0  0  1  0  0  0  0  0  0  0  0  0
    5.7674   -8.7348    0.0000 C   0  0  0  0  0  0  0  0  0  0  0  0
    5.7674   -9.5596    0.0000 C   0  0  0  0  0  0  0  0  0  0  0  0
    6.5518   -9.8144    0.0000 O   0  0  0  0  0  0  0  0  0  0  0  0
    7.0366   -9.1472    0.0000 C   0  0  2  0  0  0  0  0  0  0  0  0
    9.0984  -11.2900    0.0000 C   0  0  0  0  0  0  0  0  0  0  0  0
    9.5108  -10.5757    0.0000 O   0  0  0  0  0  0  0  0  0  0  0  0
    8.2737   -8.4330    0.0000 C   0  0  0  0  0  0  0  0  0  0  0  0
    7.8613   -9.1472    0.0000 C   0  0  0  0  0  0  0  0  0  0  0  0
    8.2737   -9.8615    0.0000 C   0  0  0  0  0  0  0  0  0  0  0  0
    9.0984   -9.8615    0.0000 C   0  0  0  0  0  0  0  0  0  0  0  0
    9.5108   -9.1472    0.0000 C   0  0  0  0  0  0  0  0  0  0  0  0
    9.0984   -8.4330    0.0000 C   0  0  0  0  0  0  0  0  0  0  0  0
  2  3  1  0  0  0  0
  3  4  1  0  0  0  0
  4  5  1  0  0  0  0
  5  6  1  0  0  0  0
  6  7  1  0  0  0  0
  7  2  1  0  0  0  0
  4  8  1  1  0  0  0
  6  9  1  1  0  0  0
  5 10  1  6  0  0  0
  7 11  1  6  0  0  0
  8 12  1  0  0  0  0
 14 13  1  1  0  0  0
 14 15  1  0  0  0  0
 15 16  1  0  0  0  0
 16 17  1  0  0  0  0
 17 18  1  0  0  0  0
 18 19  1  0  0  0  0
 19 14  1  0  0  0  0
 16 20  1  1  0  0  0
 18 21  1  1  0  0  0
 17 22  1  6  0  0  0
 19 23  1  6  0  0  0
 25  1  1  0  0  0  0
  2  1  1  1  0  0  0
 26 25  2  0  0  0  0
 32 26  1  0  0  0  0
 28 27  1  0  0  0  0
 34 28  1  0  0  0  0
 30 29  1  0  0  0  0
 35 30  1  6  0  0  0
 31 36  1  0  0  0  0
 32 31  2  0  0  0  0
 33 32  1  0  0  0  0
 34 33  2  0  0  0  0
 37 34  1  0  0  0  0
 35 39  1  0  0  0  0
 36 35  1  0  0  0  0
 37 36  2  0  0  0  0
 38 37  1  0  0  0  0
 39 38  1  0  0  0  0
 39 43  1  1  0  0  0
 41 40  1  0  0  0  0
 45 41  1  0  0  0  0
 46 13  1  0  0  0  0
 20 24  1  0  0  0  0
 42 47  1  0  0  0  0
 43 42  2  0  0  0  0
 44 43  1  0  0  0  0
 45 44  2  0  0  0  0
 46 45  1  0  0  0  0
 47 46  2  0  0  0  0
M  END
>  <cdx:fragmentId>
5

$$$$
