92932.cdx
  Mrv1902 05222410232D          

 25 28  0  0  0  0            999 V2000
   10.1128   -6.3250    0.0000 C   0  0  0  0  0  0  0  0  0  0  0  0
    9.3976   -5.9138    0.0000 C   0  0  0  0  0  0  0  0  0  0  0  0
    8.6839   -6.3275    0.0000 C   0  0  0  0  0  0  0  0  0  0  0  0
    8.6853   -7.1525    0.0000 C   0  0  0  0  0  0  0  0  0  0  0  0
    9.4005   -7.5638    0.0000 C   0  0  0  0  0  0  0  0  0  0  0  0
   10.1142   -7.1500    0.0000 C   0  0  0  0  0  0  0  0  0  0  0  0
    7.9716   -7.5663    0.0000 C   0  0  0  0  0  0  0  0  0  0  0  0
    7.9730   -8.3913    0.0000 N   0  3  0  0  0  0  0  0  0  0  0  0
    8.6882   -8.8025    0.0000 C   0  0  0  0  0  0  0  0  0  0  0  0
    9.4019   -8.3888    0.0000 C   0  0  0  0  0  0  0  0  0  0  0  0
    7.2564   -7.1550    0.0000 C   0  0  0  0  0  0  0  0  0  0  0  0
    6.5426   -7.5688    0.0000 C   0  0  0  0  0  0  0  0  0  0  0  0
    6.5441   -8.3938    0.0000 C   0  0  0  0  0  0  0  0  0  0  0  0
    7.2593   -8.8050    0.0000 C   0  0  0  0  0  0  0  0  0  0  0  0
    5.8274   -7.1575    0.0000 C   0  0  0  0  0  0  0  0  0  0  0  0
    5.1137   -7.5713    0.0000 C   0  0  0  0  0  0  0  0  0  0  0  0
    5.1151   -8.3963    0.0000 C   0  0  0  0  0  0  0  0  0  0  0  0
    5.8303   -8.8075    0.0000 C   0  0  0  0  0  0  0  0  0  0  0  0
   10.8265   -5.9113    0.0000 O   0  0  0  0  0  0  0  0  0  0  0  0
    9.3962   -5.0888    0.0000 O   0  0  0  0  0  0  0  0  0  0  0  0
    7.9744   -9.2163    0.0000 C   0  0  0  0  0  0  0  0  0  0  0  0
    5.8318   -9.6325    0.0000 O   0  0  0  0  0  0  0  0  0  0  0  0
    4.4014   -8.8100    0.0000 O   0  0  0  0  0  0  0  0  0  0  0  0
    5.1180  -10.0463    0.0000 C   0  0  0  0  0  0  0  0  0  0  0  0
    3.6862   -8.3988    0.0000 C   0  0  0  0  0  0  0  0  0  0  0  0
  1  2  2  0  0  0  0
  2  3  1  0  0  0  0
  3  4  2  0  0  0  0
  4  5  1  0  0  0  0
  5  6  2  0  0  0  0
  6  1  1  0  0  0  0
  4  7  1  0  0  0  0
  7  8  1  0  0  0  0
  8  9  1  0  0  0  0
  9 10  1  0  0  0  0
 10  5  1  0  0  0  0
  7 11  1  0  0  0  0
 11 12  1  0  0  0  0
 12 13  2  0  0  0  0
 13 14  1  0  0  0  0
 14  8  1  0  0  0  0
 12 15  1  0  0  0  0
 15 16  2  0  0  0  0
 16 17  1  0  0  0  0
 17 18  2  0  0  0  0
 18 13  1  0  0  0  0
  1 19  1  0  0  0  0
  2 20  1  0  0  0  0
  8 21  1  0  0  0  0
 18 22  1  0  0  0  0
 17 23  1  0  0  0  0
 22 24  1  0  0  0  0
 23 25  1  0  0  0  0
M  CHG  1   8   1
M  END
>  <cdx:fragmentId>
5

$$$$
