92938.cdx
  Mrv1902 05222410212D          

 17 17  0  0  0  0            999 V2000
    6.5487   -7.5567    0.0000 C   0  0  0  0  0  0  0  0  0  0  0  0
    7.2684   -7.9599    0.0000 C   0  0  0  0  0  0  0  0  0  0  0  0
    7.9775   -7.5383    0.0000 C   0  0  1  0  0  0  0  0  0  0  0  0
    7.9669   -6.7133    0.0000 C   0  0  0  0  0  0  0  0  0  0  0  0
    7.2472   -6.3101    0.0000 C   0  0  0  0  0  0  0  0  0  0  0  0
    6.5381   -6.7317    0.0000 C   0  0  0  0  0  0  0  0  0  0  0  0
    5.8396   -7.9783    0.0000 C   0  0  0  0  0  0  0  0  0  0  0  0
    5.8502   -8.8033    0.0000 C   0  0  0  0  0  0  0  0  0  0  0  0
    6.5700   -9.2065    0.0000 C   0  0  0  0  0  0  0  0  0  0  0  0
    7.2791   -8.7849    0.0000 C   0  0  0  0  0  0  0  0  0  0  0  0
    5.8184   -6.3285    0.0000 C   0  0  0  0  0  0  0  0  0  0  0  0
    5.1093   -6.7502    0.0000 C   0  0  0  0  0  0  0  0  0  0  0  0
    5.8077   -5.5036    0.0000 C   0  0  0  0  0  0  0  0  0  0  0  0
    8.6760   -6.2917    0.0000 O   0  0  0  0  0  0  0  0  0  0  0  0
    8.6973   -7.9415    0.0000 C   0  0  0  0  0  0  0  0  0  0  0  0
    5.1411   -9.2249    0.0000 C   0  0  0  0  0  0  0  0  0  0  0  0
    7.2578   -7.1350    0.0000 O   0  0  0  0  0  0  0  0  0  0  0  0
  2  3  1  0  0  0  0
  3  4  1  0  0  0  0
  4  5  1  0  0  0  0
  5  6  1  0  0  0  0
  6  1  1  0  0  0  0
  1  7  1  0  0  0  0
  7  8  1  0  0  0  0
  8  9  2  0  0  0  0
  9 10  1  0  0  0  0
 10  2  1  0  0  0  0
  6 11  2  0  0  0  0
 11 12  1  0  0  0  0
 11 13  1  0  0  0  0
  4 14  2  0  0  0  0
  3 15  1  1  0  0  0
  8 16  1  0  0  0  0
  1 17  2  0  0  0  0
M  END
>  <cdx:fragmentId>
76

$$$$
