92936.cdx
  Mrv1902 05222410252D          

 16 16  0  0  0  0            999 V2000
   10.1453   -3.2677    0.0000 C   0  0  0  0  0  0  0  0  0  0  0  0
   10.1420   -4.0926    0.0000 C   0  0  0  0  0  0  0  0  0  0  0  0
    9.4258   -4.5022    0.0000 C   0  0  0  0  0  0  0  0  0  0  0  0
    8.7130   -4.0868    0.0000 C   0  0  0  0  0  0  0  0  0  0  0  0
    7.9969   -4.4964    0.0000 C   0  0  0  0  0  0  0  0  0  0  0  0
    7.2841   -4.0810    0.0000 C   0  0  2  0  0  0  0  0  0  0  0  0
    7.2875   -3.2560    0.0000 C   0  0  0  0  0  0  0  0  0  0  0  0
    8.7164   -3.2618    0.0000 O   0  0  0  0  0  0  0  0  0  0  0  0
    6.5680   -4.4905    0.0000 C   0  0  0  0  0  0  0  0  0  0  0  0
    6.5646   -5.3155    0.0000 C   0  0  0  0  0  0  0  0  0  0  0  0
    5.8484   -5.7251    0.0000 C   0  0  0  0  0  0  0  0  0  0  0  0
    5.1356   -5.3097    0.0000 C   0  0  0  0  0  0  0  0  0  0  0  0
    5.1390   -4.4847    0.0000 C   0  0  0  0  0  0  0  0  0  0  0  0
    5.8552   -4.0751    0.0000 C   0  0  0  0  0  0  0  0  0  0  0  0
    4.4195   -5.7193    0.0000 C   0  0  0  0  0  0  0  0  0  0  0  0
   10.8547   -4.5081    0.0000 C   0  0  0  0  0  0  0  0  0  0  0  0
  1  2  1  0  0  0  0
  2  3  1  0  0  0  0
  3  4  1  0  0  0  0
  4  5  1  0  0  0  0
  5  6  1  0  0  0  0
  6  7  1  1  0  0  0
  4  8  2  0  0  0  0
  9 10  2  0  0  0  0
 10 11  1  0  0  0  0
 11 12  2  0  0  0  0
 12 13  1  0  0  0  0
 13 14  2  0  0  0  0
  9 14  1  0  0  0  0
 12 15  1  0  0  0  0
  6  9  1  0  0  0  0
  2 16  1  0  0  0  0
M  END
>  <cdx:fragmentId>
3443

$$$$
