92949.cdx
  Mrv1902 05222410202D          

 15 14  0  0  0  0            999 V2000
    5.2500   -6.4075    0.0000 O   0  0  0  0  0  0  0  0  0  0  0  0
    5.8334   -6.9909    0.0000 C   0  0  0  0  0  0  0  0  0  0  0  0
    6.6584   -6.9909    0.0000 C   0  0  0  0  0  0  0  0  0  0  0  0
    7.0709   -7.7053    0.0000 C   0  0  0  0  0  0  0  0  0  0  0  0
    7.4834   -8.4198    0.0000 O   0  0  0  0  0  0  0  0  0  0  0  0
    7.7854   -7.2928    0.0000 C   0  0  0  0  0  0  0  0  0  0  0  0
    6.3564   -8.1178    0.0000 C   0  0  0  0  0  0  0  0  0  0  0  0
    8.4998   -7.7053    0.0000 O   0  5  0  0  0  0  0  0  0  0  0  0
    7.7854   -6.4678    0.0000 O   0  0  0  0  0  0  0  0  0  0  0  0
    6.3564   -8.9428    0.0000 C   0  0  0  0  0  0  0  0  0  0  0  0
    5.6419   -9.3553    0.0000 O   0  0  0  0  0  0  0  0  0  0  0  0
    7.0709   -9.3553    0.0000 O   0  0  0  0  0  0  0  0  0  0  0  0
    4.9275   -8.9428    0.0000 C   0  0  0  0  0  0  0  0  0  0  0  0
    5.5177   -7.7531    0.0000 O   0  0  0  0  0  0  0  0  0  0  0  0
    5.6375   -5.4725    0.0000 C   0  0  0  0  0  0  0  0  0  0  0  0
  1  2  1  0  0  0  0
  2  3  1  0  0  0  0
  3  4  1  0  0  0  0
  4  5  1  0  0  0  0
  4  6  1  0  0  0  0
  4  7  1  0  0  0  0
  6  8  1  0  0  0  0
  6  9  2  0  0  0  0
  7 10  1  0  0  0  0
 10 11  1  0  0  0  0
 10 12  2  0  0  0  0
 11 13  1  0  0  0  0
  2 14  2  0  0  0  0
  1 15  1  0  0  0  0
M  CHG  1   8  -1
M  END
>  <cdx:fragmentId>
3

$$$$
