9294.cdx
  Mrv1902 05222410222D          

 12 12  0  0  0  0            999 V2000
    4.7224   -2.4679    0.0000 C   0  0  2  0  0  0  0  0  0  0  0  0
    5.4369   -2.8804    0.0000 C   0  0  2  0  0  0  0  0  0  0  0  0
    5.4369   -3.7054    0.0000 C   0  0  0  0  0  0  0  0  0  0  0  0
    4.7224   -1.6429    0.0000 O   0  0  0  0  0  0  0  0  0  0  0  0
    4.0080   -2.8804    0.0000 C   0  0  0  0  0  0  0  0  0  0  0  0
    4.0080   -3.7054    0.0000 C   0  0  0  0  0  0  0  0  0  0  0  0
    3.2935   -4.1179    0.0000 C   0  0  0  0  0  0  0  0  0  0  0  0
    2.5790   -3.7054    0.0000 C   0  0  0  0  0  0  0  0  0  0  0  0
    2.5790   -2.8804    0.0000 C   0  0  0  0  0  0  0  0  0  0  0  0
    3.2935   -2.4679    0.0000 C   0  0  0  0  0  0  0  0  0  0  0  0
    6.1514   -2.4679    0.0000 N   0  0  0  0  0  0  0  0  0  0  0  0
    6.8659   -2.8804    0.0000 C   0  0  0  0  0  0  0  0  0  0  0  0
  1  2  1  0  0  0  0
  2  3  1  0  0  0  0
  1  4  1  1  0  0  0
  5  6  1  0  0  0  0
  6  7  2  0  0  0  0
  7  8  1  0  0  0  0
  8  9  2  0  0  0  0
  9 10  1  0  0  0  0
  5 10  2  0  0  0  0
  1  5  1  0  0  0  0
 11 12  1  0  0  0  0
  2 11  1  1  0  0  0
M  END
>  <cdx:groupId>
38

>  <cdx:fragmentId>
13

$$$$
