92948.cdx
  Mrv1902 05222410202D          

 34 37  0  0  0  0            999 V2000
    5.7181   -5.3075    0.0000 C   0  0  0  0  0  0  0  0  0  0  0  0
    5.7181   -6.1325    0.0000 C   0  0  0  0  0  0  0  0  0  0  0  0
    6.4325   -6.5450    0.0000 C   0  0  0  0  0  0  0  0  0  0  0  0
    7.1470   -6.1325    0.0000 C   0  0  0  0  0  0  0  0  0  0  0  0
    7.1470   -5.3075    0.0000 C   0  0  0  0  0  0  0  0  0  0  0  0
    6.4325   -4.8950    0.0000 C   0  0  0  0  0  0  0  0  0  0  0  0
    6.4325   -7.3700    0.0000 C   0  0  0  0  0  0  0  0  0  0  0  0
    7.1470   -7.7825    0.0000 C   0  0  0  0  0  0  0  0  0  0  0  0
    7.8615   -7.3700    0.0000 C   0  0  0  0  0  0  0  0  0  0  0  0
    7.8615   -6.5450    0.0000 O   0  0  0  0  0  0  0  0  0  0  0  0
    5.0036   -6.5450    0.0000 O   0  0  0  0  0  0  0  0  0  0  0  0
    5.7181   -7.7825    0.0000 O   0  0  0  0  0  0  0  0  0  0  0  0
    7.1470   -8.6075    0.0000 O   0  0  0  0  0  0  0  0  0  0  0  0
    8.5759   -8.6075    0.0000 C   0  0  0  0  0  0  0  0  0  0  0  0
    8.5759   -7.7825    0.0000 C   0  0  0  0  0  0  0  0  0  0  0  0
    9.2904   -9.0200    0.0000 C   0  0  0  0  0  0  0  0  0  0  0  0
   10.0049   -8.6075    0.0000 C   0  0  0  0  0  0  0  0  0  0  0  0
   10.0049   -7.7825    0.0000 C   0  0  0  0  0  0  0  0  0  0  0  0
    9.2904   -7.3700    0.0000 C   0  0  0  0  0  0  0  0  0  0  0  0
    5.7181   -8.6075    0.0000 O   0  0  0  0  0  0  0  0  0  0  0  0
    6.4325   -9.0200    0.0000 C   0  0  2  0  0  0  0  0  0  0  0  0
    5.0036   -9.0200    0.0000 C   0  0  2  0  0  0  0  0  0  0  0  0
    5.0036   -9.8450    0.0000 C   0  0  1  0  0  0  0  0  0  0  0  0
    5.7181  -10.2575    0.0000 C   0  0  2  0  0  0  0  0  0  0  0  0
    6.4325   -9.8450    0.0000 C   0  0  1  0  0  0  0  0  0  0  0  0
    6.4325   -4.0700    0.0000 O   0  0  0  0  0  0  0  0  0  0  0  0
   10.7194   -7.3700    0.0000 O   0  0  0  0  0  0  0  0  0  0  0  0
   10.7194   -9.0200    0.0000 O   0  0  0  0  0  0  0  0  0  0  0  0
    4.2891  -10.2575    0.0000 O   0  0  0  0  0  0  0  0  0  0  0  0
    4.2891   -8.6075    0.0000 C   0  0  0  0  0  0  0  0  0  0  0  0
    5.7181  -11.0825    0.0000 O   0  0  0  0  0  0  0  0  0  0  0  0
    7.1470  -10.2575    0.0000 O   0  0  0  0  0  0  0  0  0  0  0  0
    5.7181   -3.6575    0.0000 C   0  0  0  0  0  0  0  0  0  0  0  0
    4.2891   -6.1325    0.0000 C   0  0  0  0  0  0  0  0  0  0  0  0
  1  2  1  0  0  0  0
  2  3  2  0  0  0  0
  3  4  1  0  0  0  0
  4  5  2  0  0  0  0
  5  6  1  0  0  0  0
  6  1  2  0  0  0  0
  3  7  1  0  0  0  0
  7  8  1  0  0  0  0
  8  9  2  0  0  0  0
  9 10  1  0  0  0  0
 10  4  1  0  0  0  0
  2 11  1  0  0  0  0
 12  7  2  0  0  0  0
  8 13  1  0  0  0  0
 14 15  1  0  0  0  0
 15  9  1  0  0  0  0
 14 16  2  0  0  0  0
 16 17  1  0  0  0  0
 17 18  2  0  0  0  0
 18 19  1  0  0  0  0
 19 15  2  0  0  0  0
 20 21  1  0  0  0  0
 21 13  1  1  0  0  0
 20 22  1  0  0  0  0
 22 23  1  0  0  0  0
 23 24  1  0  0  0  0
 24 25  1  0  0  0  0
 25 21  1  0  0  0  0
  6 26  1  0  0  0  0
 18 27  1  0  0  0  0
 17 28  1  0  0  0  0
 23 29  1  1  0  0  0
 22 30  1  6  0  0  0
 24 31  1  6  0  0  0
 25 32  1  6  0  0  0
 26 33  1  0  0  0  0
 11 34  1  0  0  0  0
M  END
>  <cdx:fragmentId>
5

$$$$
