92944.cdx
  Mrv1902 05222410262D          

 20 23  0  0  0  0            999 V2000
    9.3045   -6.2754    0.0000 C   0  0  0  0  0  0  0  0  0  0  0  0
    9.0495   -8.3949    0.0000 O   0  0  0  0  0  0  0  0  0  0  0  0
    9.5345   -7.7275    0.0000 C   0  0  0  0  0  0  0  0  0  0  0  0
    9.0495   -7.0601    0.0000 C   0  0  1  0  0  0  0  0  0  0  0  0
    5.4070  -10.6150    0.0000 C   0  0  0  0  0  0  0  0  0  0  0  0
    6.1215   -6.9025    0.0000 O   0  0  0  0  0  0  0  0  0  0  0  0
    5.4070   -8.1400    0.0000 C   0  0  0  0  0  0  0  0  0  0  0  0
    4.6926   -8.5525    0.0000 C   0  0  0  0  0  0  0  0  0  0  0  0
    4.6926   -9.3775    0.0000 C   0  0  0  0  0  0  0  0  0  0  0  0
    5.4070   -9.7900    0.0000 C   0  0  0  0  0  0  0  0  0  0  0  0
    6.1215   -8.5525    0.0000 C   0  0  0  0  0  0  0  0  0  0  0  0
    6.1215   -9.3775    0.0000 C   0  0  0  0  0  0  0  0  0  0  0  0
    6.8360   -9.7900    0.0000 C   0  0  0  0  0  0  0  0  0  0  0  0
    7.5504   -9.3775    0.0000 C   0  0  0  0  0  0  0  0  0  0  0  0
    7.5504   -6.9025    0.0000 O   0  0  0  0  0  0  0  0  0  0  0  0
    6.8360   -7.3150    0.0000 C   0  0  0  0  0  0  0  0  0  0  0  0
    6.8360   -8.1400    0.0000 C   0  0  0  0  0  0  0  0  0  0  0  0
    7.5504   -8.5525    0.0000 C   0  0  0  0  0  0  0  0  0  0  0  0
    8.2649   -8.1400    0.0000 C   0  0  0  0  0  0  0  0  0  0  0  0
    8.2649   -7.3150    0.0000 C   0  0  0  0  0  0  0  0  0  0  0  0
  4  1  1  1  0  0  0
  2 19  1  0  0  0  0
  3  2  1  0  0  0  0
  4  3  1  0  0  0  0
 20  4  1  0  0  0  0
 10  5  1  0  0  0  0
 16  6  2  0  0  0  0
  7 11  1  0  0  0  0
  8  7  2  0  0  0  0
  9  8  1  0  0  0  0
 10  9  2  0  0  0  0
 12 10  1  0  0  0  0
 11 17  2  0  0  0  0
 12 11  1  0  0  0  0
 13 12  2  0  0  0  0
 14 13  1  0  0  0  0
 18 14  2  0  0  0  0
 15 20  1  0  0  0  0
 16 15  1  0  0  0  0
 17 16  1  0  0  0  0
 18 17  1  0  0  0  0
 19 18  1  0  0  0  0
 20 19  2  0  0  0  0
M  END
>  <cdx:fragmentId>
5

$$$$
