92941.cdx
  Mrv1902 05222410282D          

 23 25  0  0  0  0            999 V2000
    6.9397   -5.3031    0.0000 H   0  0  0  0  0  0  0  0  0  0  0  0
    9.8086   -4.5172    0.0000 O   0  0  0  0  0  0  0  0  0  0  0  0
    6.9510   -4.4782    0.0000 O   0  0  0  0  0  0  0  0  0  0  0  0
    6.1860   -8.1806    0.0000 O   0  0  0  0  0  0  0  0  0  0  0  0
    4.7572   -8.1612    0.0000 O   0  0  0  0  0  0  0  0  0  0  0  0
    3.3621   -5.6669    0.0000 O   0  0  0  0  0  0  0  0  0  0  0  0
    9.0773   -5.7448    0.0000 C   0  0  0  0  0  0  0  0  0  0  0  0
    9.0886   -4.9199    0.0000 C   0  0  0  0  0  0  0  0  0  0  0  0
    8.3798   -4.4977    0.0000 C   0  0  0  0  0  0  0  0  0  0  0  0
    7.6598   -4.9004    0.0000 C   0  0  0  0  0  0  0  0  0  0  0  0
    7.6260   -7.3752    0.0000 O   0  0  0  0  0  0  0  0  0  0  0  0
    8.3573   -6.1475    0.0000 C   0  0  0  0  0  0  0  0  0  0  0  0
    7.6485   -5.7253    0.0000 C   0  0  0  0  0  0  0  0  0  0  0  0
    6.1972   -7.3557    0.0000 C   0  0  0  0  0  0  0  0  0  0  0  0
    6.9172   -6.9530    0.0000 C   0  0  1  0  0  0  0  0  0  0  0  0
    6.9285   -6.1281    0.0000 C   0  0  2  0  0  0  0  0  0  0  0  0
    6.2197   -5.7059    0.0000 O   0  0  0  0  0  0  0  0  0  0  0  0
    4.7684   -7.3362    0.0000 C   0  0  0  0  0  0  0  0  0  0  0  0
    5.4884   -6.9335    0.0000 C   0  0  0  0  0  0  0  0  0  0  0  0
    5.4997   -6.1086    0.0000 C   0  0  0  0  0  0  0  0  0  0  0  0
    4.7909   -5.6864    0.0000 C   0  0  0  0  0  0  0  0  0  0  0  0
    4.0709   -6.0891    0.0000 C   0  0  0  0  0  0  0  0  0  0  0  0
    4.0596   -6.9140    0.0000 C   0  0  0  0  0  0  0  0  0  0  0  0
 16  1  1  1  0  0  0
  8  2  1  0  0  0  0
 10  3  1  0  0  0  0
 14  4  2  0  0  0  0
 18  5  1  0  0  0  0
 22  6  1  0  0  0  0
  7 12  1  0  0  0  0
  8  7  2  0  0  0  0
  9  8  1  0  0  0  0
 10  9  2  0  0  0  0
 13 10  1  0  0  0  0
 15 11  1  1  0  0  0
 13 12  2  0  0  0  0
 16 13  1  0  0  0  0
 14 19  1  0  0  0  0
 15 14  1  0  0  0  0
 16 15  1  0  0  0  0
 17 16  1  0  0  0  0
 20 17  1  0  0  0  0
 18 23  1  0  0  0  0
 19 18  2  0  0  0  0
 20 19  1  0  0  0  0
 21 20  2  0  0  0  0
 22 21  1  0  0  0  0
 23 22  2  0  0  0  0
M  END
>  <cdx:fragmentId>
5

$$$$
