92940.cdx
  Mrv1902 05222410282D          

 21 23  0  0  0  0            999 V2000
    4.7281   -6.4487    0.0000 C   0  0  0  0  0  0  0  0  0  0  0  0
    4.7281   -7.2738    0.0000 C   0  0  0  0  0  0  0  0  0  0  0  0
    5.4425   -7.6863    0.0000 C   0  0  0  0  0  0  0  0  0  0  0  0
    6.1570   -7.2738    0.0000 C   0  0  0  0  0  0  0  0  0  0  0  0
    6.1570   -6.4487    0.0000 C   0  0  0  0  0  0  0  0  0  0  0  0
    5.4425   -6.0362    0.0000 C   0  0  0  0  0  0  0  0  0  0  0  0
    6.8715   -7.6863    0.0000 C   0  0  0  0  0  0  0  0  0  0  0  0
    7.5859   -7.2738    0.0000 C   0  0  0  0  0  0  0  0  0  0  0  0
    7.5859   -6.4487    0.0000 C   0  0  0  0  0  0  0  0  0  0  0  0
    6.8715   -6.0362    0.0000 O   0  0  0  0  0  0  0  0  0  0  0  0
    5.4425   -8.5113    0.0000 O   0  0  0  0  0  0  0  0  0  0  0  0
    6.8715   -8.5113    0.0000 O   0  0  0  0  0  0  0  0  0  0  0  0
    8.3004   -7.6863    0.0000 O   0  0  0  0  0  0  0  0  0  0  0  0
    9.0149   -6.4487    0.0000 C   0  0  0  0  0  0  0  0  0  0  0  0
    8.3004   -6.0362    0.0000 C   0  0  0  0  0  0  0  0  0  0  0  0
    9.7294   -6.0362    0.0000 C   0  0  0  0  0  0  0  0  0  0  0  0
    9.7294   -5.2113    0.0000 C   0  0  0  0  0  0  0  0  0  0  0  0
    9.0149   -4.7988    0.0000 C   0  0  0  0  0  0  0  0  0  0  0  0
    8.3004   -5.2113    0.0000 C   0  0  0  0  0  0  0  0  0  0  0  0
   10.4438   -4.7988    0.0000 O   0  0  0  0  0  0  0  0  0  0  0  0
    4.0136   -6.0362    0.0000 O   0  0  0  0  0  0  0  0  0  0  0  0
  1  2  2  0  0  0  0
  2  3  1  0  0  0  0
  3  4  2  0  0  0  0
  4  5  1  0  0  0  0
  5  6  2  0  0  0  0
  6  1  1  0  0  0  0
  4  7  1  0  0  0  0
  7  8  1  0  0  0  0
  8  9  1  0  0  0  0
  9 10  1  0  0  0  0
 10  5  1  0  0  0  0
  3 11  1  0  0  0  0
 12  7  2  0  0  0  0
  8 13  1  0  0  0  0
 14 15  2  0  0  0  0
 15  9  1  0  0  0  0
 14 16  1  0  0  0  0
 16 17  2  0  0  0  0
 17 18  1  0  0  0  0
 18 19  2  0  0  0  0
 19 15  1  0  0  0  0
 17 20  1  0  0  0  0
  1 21  1  0  0  0  0
M  END
>  <cdx:fragmentId>
5

$$$$
