92958.cdx
  Mrv1902 05222410182D          

  6  5  0  0  0  0            999 V2000
    6.6663   -7.3425    0.0000 C   0  0  0  0  0  0  0  0  0  0  0  0
    7.3807   -6.9300    0.0000 C   0  0  0  0  0  0  0  0  0  0  0  0
    8.0952   -7.3425    0.0000 C   0  0  0  0  0  0  0  0  0  0  0  0
    8.8097   -6.9300    0.0000 C   0  0  0  0  0  0  0  0  0  0  0  0
    7.3807   -6.1050    0.0000 O   0  0  0  0  0  0  0  0  0  0  0  0
    8.0952   -8.1675    0.0000 O   0  0  0  0  0  0  0  0  0  0  0  0
  1  2  1  0  0  0  0
  2  3  1  0  0  0  0
  3  4  1  0  0  0  0
  2  5  1  0  0  0  0
  3  6  1  0  0  0  0
M  END
>  <cdx:fragmentId>
3

$$$$
