92953.cdx
  Mrv1902 05222410272D          

 67 75  0  0  0  0            999 V2000
   15.8013   -9.2094    0.0000 C   0  0  1  0  0  0  0  0  0  0  0  0
   16.5127   -8.7918    0.0000 C   0  0  2  0  0  0  0  0  0  0  0  0
   17.2992   -9.0410    0.0000 C   0  0  0  0  0  0  0  0  0  0  0  0
   17.7793   -8.3701    0.0000 C   0  0  2  0  0  0  0  0  0  0  0  0
   18.5620   -8.1095    0.0000 O   0  0  0  0  0  0  0  0  0  0  0  0
   18.5561   -7.2845    0.0000 C   0  0  2  0  0  0  0  0  0  0  0  0
   17.7696   -7.0353    0.0000 C   0  0  2  0  0  0  0  0  0  0  0  0
   17.2895   -7.7062    0.0000 C   0  0  2  0  0  0  0  0  0  0  0  0
   16.5068   -7.9668    0.0000 C   0  0  1  0  0  0  0  0  0  0  0  0
   15.7894   -7.5594    0.0000 C   0  0  0  0  0  0  0  0  0  0  0  0
   15.0779   -7.9771    0.0000 C   0  0  0  0  0  0  0  0  0  0  0  0
   15.0838   -8.8021    0.0000 C   0  0  2  0  0  0  0  0  0  0  0  0
   14.3724   -9.2197    0.0000 C   0  0  1  0  0  0  0  0  0  0  0  0
   13.6549   -8.8124    0.0000 C   0  0  0  0  0  0  0  0  0  0  0  0
   12.9435   -9.2300    0.0000 C   0  0  0  0  0  0  0  0  0  0  0  0
   12.9494  -10.0550    0.0000 C   0  0  1  0  0  0  0  0  0  0  0  0
   13.6668  -10.4623    0.0000 C   0  0  0  0  0  0  0  0  0  0  0  0
   14.3783  -10.0447    0.0000 C   0  0  0  0  0  0  0  0  0  0  0  0
   15.0958  -10.4520    0.0000 C   0  0  0  0  0  0  0  0  0  0  0  0
   15.8072  -10.0344    0.0000 C   0  0  0  0  0  0  0  0  0  0  0  0
   18.4639   -6.4647    0.0000 O   0  0  0  0  0  0  0  0  0  0  0  0
   19.3122   -7.6146    0.0000 C   0  0  0  0  0  0  0  0  0  0  0  0
   19.9761   -7.1249    0.0000 C   0  0  0  0  0  0  0  0  0  0  0  0
   19.8839   -6.3051    0.0000 C   0  0  2  0  0  0  0  0  0  0  0  0
   19.1278   -5.9750    0.0000 C   0  0  0  0  0  0  0  0  0  0  0  0
   12.2379  -10.4727    0.0000 O   0  0  0  0  0  0  0  0  0  0  0  0
   14.3664   -8.3947    0.0000 C   0  0  0  0  0  0  0  0  0  0  0  0
   16.5068   -7.1418    0.0000 C   0  0  0  0  0  0  0  0  0  0  0  0
   17.5090   -6.2525    0.0000 C   0  0  0  0  0  0  0  0  0  0  0  0
   20.5478   -5.8153    0.0000 C   0  0  0  0  0  0  0  0  0  0  0  0
   15.7953   -8.3844    0.0000 H   0  0  0  0  0  0  0  0  0  0  0  0
   18.2690   -9.0340    0.0000 H   0  0  0  0  0  0  0  0  0  0  0  0
   16.9225   -6.9673    0.0000 H   0  0  0  0  0  0  0  0  0  0  0  0
   15.0898   -9.6270    0.0000 H   0  0  0  0  0  0  0  0  0  0  0  0
   11.5205  -10.0653    0.0000 C   0  0  2  0  0  0  0  0  0  0  0  0
   11.5116   -9.2404    0.0000 O   0  0  0  0  0  0  0  0  0  0  0  0
   10.7927   -8.8357    0.0000 C   0  0  1  0  0  0  0  0  0  0  0  0
   10.0827   -9.2404    0.0000 C   0  0  2  0  0  0  0  0  0  0  0  0
   10.0827  -10.0653    0.0000 C   0  0  1  0  0  0  0  0  0  0  0  0
   10.7927  -10.4700    0.0000 C   0  0  1  0  0  0  0  0  0  0  0  0
   10.7904   -8.0107    0.0000 C   0  0  0  0  0  0  0  0  0  0  0  0
    9.3694  -10.4798    0.0000 O   0  0  0  0  0  0  0  0  0  0  0  0
   10.7883  -11.2950    0.0000 O   0  0  0  0  0  0  0  0  0  0  0  0
    9.3694   -8.8259    0.0000 O   0  0  0  0  0  0  0  0  0  0  0  0
   10.0760   -7.5982    0.0000 O   0  0  0  0  0  0  0  0  0  0  0  0
    8.6538  -10.0692    0.0000 C   0  0  2  0  0  0  0  0  0  0  0  0
    8.6504   -9.2442    0.0000 O   0  0  0  0  0  0  0  0  0  0  0  0
    7.9342   -8.8347    0.0000 C   0  0  1  0  0  0  0  0  0  0  0  0
    7.2214   -9.2442    0.0000 C   0  0  2  0  0  0  0  0  0  0  0  0
    7.2214  -10.0692    0.0000 C   0  0  1  0  0  0  0  0  0  0  0  0
    7.9342  -10.4788    0.0000 C   0  0  1  0  0  0  0  0  0  0  0  0
    7.9334   -8.0097    0.0000 C   0  0  0  0  0  0  0  0  0  0  0  0
    6.5074  -10.4825    0.0000 O   0  0  0  0  0  0  0  0  0  0  0  0
    6.5074   -8.8310    0.0000 O   0  0  0  0  0  0  0  0  0  0  0  0
    7.9325  -11.3038    0.0000 O   0  0  0  0  0  0  0  0  0  0  0  0
    7.2189   -7.5972    0.0000 O   0  0  0  0  0  0  0  0  0  0  0  0
   11.1855  -12.0181    0.0000 C   0  0  2  0  0  0  0  0  0  0  0  0
   10.7561  -12.7225    0.0000 O   0  0  0  0  0  0  0  0  0  0  0  0
   11.1514  -13.4466    0.0000 C   0  0  2  0  0  0  0  0  0  0  0  0
   11.9820  -13.4565    0.0000 C   0  0  1  0  0  0  0  0  0  0  0  0
   12.4058  -12.7487    0.0000 C   0  0  2  0  0  0  0  0  0  0  0  0
   12.0048  -12.0212    0.0000 C   0  0  1  0  0  0  0  0  0  0  0  0
   12.3846  -14.1767    0.0000 O   0  0  0  0  0  0  0  0  0  0  0  0
   10.7262  -14.1536    0.0000 C   0  0  0  0  0  0  0  0  0  0  0  0
   13.2307  -12.7635    0.0000 O   0  0  0  0  0  0  0  0  0  0  0  0
   12.4258  -11.3117    0.0000 O   0  0  0  0  0  0  0  0  0  0  0  0
   16.5187   -9.6167    0.0000 H   0  0  0  0  0  0  0  0  0  0  0  0
  1  2  1  0  0  0  0
  2  3  1  0  0  0  0
  3  4  1  0  0  0  0
  4  5  1  0  0  0  0
  6  5  1  6  0  0  0
  6  7  1  0  0  0  0
  7  8  1  0  0  0  0
  8  9  1  0  0  0  0
  9 10  1  0  0  0  0
 10 11  1  0  0  0  0
 11 12  1  0  0  0  0
 12 13  1  0  0  0  0
 13 14  1  0  0  0  0
 14 15  1  0  0  0  0
 15 16  1  0  0  0  0
 16 17  1  0  0  0  0
 17 18  1  0  0  0  0
 18 19  2  0  0  0  0
 19 20  1  0  0  0  0
  1 20  1  0  0  0  0
  1 12  1  0  0  0  0
 13 18  1  0  0  0  0
  2  9  1  0  0  0  0
  4  8  1  0  0  0  0
 22 23  1  0  0  0  0
 23 24  1  0  0  0  0
 24 25  1  0  0  0  0
 21 25  1  0  0  0  0
  6 21  1  0  0  0  0
  6 22  1  0  0  0  0
 16 26  1  1  0  0  0
 13 27  1  1  0  0  0
  9 28  1  1  0  0  0
  7 29  1  6  0  0  0
 24 30  1  6  0  0  0
  1 31  1  1  0  0  0
  4 32  1  6  0  0  0
  8 33  1  6  0  0  0
 12 34  1  6  0  0  0
 35 26  1  1  0  0  0
 35 36  1  0  0  0  0
 36 37  1  0  0  0  0
 37 38  1  0  0  0  0
 38 39  1  0  0  0  0
 39 40  1  0  0  0  0
 40 35  1  0  0  0  0
 37 41  1  1  0  0  0
 39 42  1  1  0  0  0
 40 43  1  6  0  0  0
 38 44  1  6  0  0  0
 41 45  1  0  0  0  0
 46 42  1  1  0  0  0
 46 47  1  0  0  0  0
 47 48  1  0  0  0  0
 48 49  1  0  0  0  0
 49 50  1  0  0  0  0
 50 51  1  0  0  0  0
 51 46  1  0  0  0  0
 48 52  1  1  0  0  0
 50 53  1  1  0  0  0
 49 54  1  6  0  0  0
 51 55  1  6  0  0  0
 52 56  1  0  0  0  0
 57 43  1  1  0  0  0
 57 58  1  0  0  0  0
 58 59  1  0  0  0  0
 59 60  1  0  0  0  0
 60 61  1  0  0  0  0
 61 62  1  0  0  0  0
 62 57  1  0  0  0  0
 60 63  1  1  0  0  0
 59 64  1  6  0  0  0
 61 65  1  6  0  0  0
 62 66  1  6  0  0  0
  2 67  1  6  0  0  0
M  END
>  <cdx:fragmentId>
5

$$$$
