92952.cdx
  Mrv1902 05222410272D          

 55 61  0  0  0  0            999 V2000
    8.2756   -6.9025    0.0000 C   0  0  0  0  0  0  0  0  0  0  0  0
    8.2756   -7.7275    0.0000 C   0  0  0  0  0  0  0  0  0  0  0  0
    8.9900   -8.1400    0.0000 C   0  0  0  0  0  0  0  0  0  0  0  0
    9.7045   -7.7275    0.0000 C   0  0  0  0  0  0  0  0  0  0  0  0
    9.7045   -6.9025    0.0000 C   0  0  2  0  0  0  0  0  0  0  0  0
    8.9900   -6.4900    0.0000 C   0  0  0  0  0  0  0  0  0  0  0  0
   10.4190   -8.1400    0.0000 C   0  0  0  0  0  0  0  0  0  0  0  0
   11.1334   -7.7275    0.0000 C   0  0  0  0  0  0  0  0  0  0  0  0
   11.1334   -6.9025    0.0000 C   0  0  0  0  0  0  0  0  0  0  0  0
   10.4190   -6.4900    0.0000 C   0  0  0  0  0  0  0  0  0  0  0  0
   11.8479   -6.4900    0.0000 C   0  0  0  0  0  0  0  0  0  0  0  0
   11.8479   -5.6650    0.0000 C   0  0  2  0  0  0  0  0  0  0  0  0
   11.1334   -5.2525    0.0000 C   0  0  0  0  0  0  0  0  0  0  0  0
   10.4190   -5.6650    0.0000 C   0  0  0  0  0  0  0  0  0  0  0  0
   13.2769   -6.4900    0.0000 C   0  0  0  0  0  0  0  0  0  0  0  0
   13.2769   -5.6650    0.0000 C   0  0  0  0  0  0  0  0  0  0  0  0
   12.5624   -5.2525    0.0000 C   0  0  0  0  0  0  0  0  0  0  0  0
   12.5624   -4.4275    0.0000 C   0  0  0  0  0  0  0  0  0  0  0  0
   11.8479   -4.0150    0.0000 C   0  0  0  0  0  0  0  0  0  0  0  0
   13.2769   -4.0150    0.0000 O   0  0  0  0  0  0  0  0  0  0  0  0
    7.5611   -8.1400    0.0000 O   0  0  0  0  0  0  0  0  0  0  0  0
   11.8479   -4.8400    0.0000 C   0  0  0  0  0  0  0  0  0  0  0  0
    9.7045   -6.0775    0.0000 C   0  0  0  0  0  0  0  0  0  0  0  0
    6.8466   -7.7275    0.0000 C   0  0  2  0  0  0  0  0  0  0  0  0
    6.8466   -6.9025    0.0000 O   0  0  0  0  0  0  0  0  0  0  0  0
    6.1321   -6.4900    0.0000 C   0  0  1  0  0  0  0  0  0  0  0  0
    5.4177   -6.9025    0.0000 C   0  0  2  0  0  0  0  0  0  0  0  0
    5.4177   -7.7275    0.0000 C   0  0  1  0  0  0  0  0  0  0  0  0
    6.1321   -8.1400    0.0000 C   0  0  1  0  0  0  0  0  0  0  0  0
    6.1321   -5.6650    0.0000 C   0  0  0  0  0  0  0  0  0  0  0  0
    4.7032   -8.1400    0.0000 O   0  0  0  0  0  0  0  0  0  0  0  0
    4.7032   -6.4900    0.0000 O   0  0  0  0  0  0  0  0  0  0  0  0
    6.1321   -8.9650    0.0000 O   0  0  0  0  0  0  0  0  0  0  0  0
    5.4177   -5.2525    0.0000 O   0  0  0  0  0  0  0  0  0  0  0  0
    5.4177   -9.3775    0.0000 C   0  0  2  0  0  0  0  0  0  0  0  0
    4.7032   -8.9650    0.0000 O   0  0  0  0  0  0  0  0  0  0  0  0
    3.9887   -9.3775    0.0000 C   0  0  2  0  0  0  0  0  0  0  0  0
    3.9887  -10.2025    0.0000 C   0  0  1  0  0  0  0  0  0  0  0  0
    4.7032  -10.6150    0.0000 C   0  0  2  0  0  0  0  0  0  0  0  0
    5.4177  -10.2025    0.0000 C   0  0  1  0  0  0  0  0  0  0  0  0
    3.2743  -10.6150    0.0000 O   0  0  0  0  0  0  0  0  0  0  0  0
    3.2743   -8.9650    0.0000 C   0  0  0  0  0  0  0  0  0  0  0  0
    4.7032  -11.4400    0.0000 O   0  0  0  0  0  0  0  0  0  0  0  0
    6.1321  -10.6150    0.0000 O   0  0  0  0  0  0  0  0  0  0  0  0
    3.9887   -7.7275    0.0000 C   0  0  2  0  0  0  0  0  0  0  0  0
    3.9887   -6.9025    0.0000 O   0  0  0  0  0  0  0  0  0  0  0  0
    3.2743   -6.4900    0.0000 C   0  0  1  0  0  0  0  0  0  0  0  0
    2.5598   -6.9025    0.0000 C   0  0  2  0  0  0  0  0  0  0  0  0
    2.5598   -7.7275    0.0000 C   0  0  1  0  0  0  0  0  0  0  0  0
    3.2743   -8.1400    0.0000 C   0  0  1  0  0  0  0  0  0  0  0  0
    3.2743   -5.6650    0.0000 C   0  0  0  0  0  0  0  0  0  0  0  0
    1.8453   -8.1400    0.0000 O   0  0  0  0  0  0  0  0  0  0  0  0
    1.8453   -6.4900    0.0000 O   0  0  0  0  0  0  0  0  0  0  0  0
    2.5598   -8.5525    0.0000 O   0  0  0  0  0  0  0  0  0  0  0  0
    2.5598   -5.2525    0.0000 O   0  0  0  0  0  0  0  0  0  0  0  0
  1  2  1  0  0  0  0
  2  3  1  0  0  0  0
  3  4  1  0  0  0  0
  4  5  1  0  0  0  0
  5  6  1  0  0  0  0
  6  1  1  0  0  0  0
  4  7  2  0  0  0  0
  7  8  1  0  0  0  0
  8  9  1  0  0  0  0
  9 10  1  0  0  0  0
 10  5  1  0  0  0  0
  9 11  1  0  0  0  0
 11 12  1  0  0  0  0
 12 13  1  0  0  0  0
 13 14  1  0  0  0  0
 14 10  1  0  0  0  0
 15 16  1  0  0  0  0
 16 17  2  0  0  0  0
 17 12  1  0  0  0  0
 17 18  1  0  0  0  0
 18 19  1  0  0  0  0
 18 20  2  0  0  0  0
  2 21  1  0  0  0  0
 11 15  1  0  0  0  0
 12 22  1  1  0  0  0
  5 23  1  1  0  0  0
 24 21  1  1  0  0  0
 24 25  1  0  0  0  0
 25 26  1  0  0  0  0
 26 27  1  0  0  0  0
 27 28  1  0  0  0  0
 28 29  1  0  0  0  0
 29 24  1  0  0  0  0
 26 30  1  1  0  0  0
 28 31  1  1  0  0  0
 27 32  1  6  0  0  0
 29 33  1  6  0  0  0
 30 34  1  0  0  0  0
 35 33  1  1  0  0  0
 35 36  1  0  0  0  0
 36 37  1  0  0  0  0
 37 38  1  0  0  0  0
 38 39  1  0  0  0  0
 39 40  1  0  0  0  0
 40 35  1  0  0  0  0
 38 41  1  1  0  0  0
 37 42  1  6  0  0  0
 39 43  1  6  0  0  0
 40 44  1  6  0  0  0
 45 31  1  1  0  0  0
 45 46  1  0  0  0  0
 46 47  1  0  0  0  0
 47 48  1  0  0  0  0
 48 49  1  0  0  0  0
 49 50  1  0  0  0  0
 50 45  1  0  0  0  0
 47 51  1  1  0  0  0
 49 52  1  1  0  0  0
 48 53  1  6  0  0  0
 50 54  1  6  0  0  0
 51 55  1  0  0  0  0
M  END
>  <cdx:fragmentId>
5

$$$$
