92959.cdx
  Mrv1902 05222410182D          

 20 22  0  0  0  0            999 V2000
    5.2058   -5.2162    0.0000 C   0  0  0  0  0  0  0  0  0  0  0  0
    5.2058   -6.0412    0.0000 C   0  0  0  0  0  0  0  0  0  0  0  0
    5.9203   -6.4537    0.0000 C   0  0  0  0  0  0  0  0  0  0  0  0
    6.6347   -6.0412    0.0000 C   0  0  0  0  0  0  0  0  0  0  0  0
    7.3492   -6.4537    0.0000 C   0  0  0  0  0  0  0  0  0  0  0  0
    8.0637   -6.0412    0.0000 C   0  0  0  0  0  0  0  0  0  0  0  0
    8.0637   -5.2162    0.0000 C   0  0  0  0  0  0  0  0  0  0  0  0
    7.3492   -4.8037    0.0000 C   0  0  0  0  0  0  0  0  0  0  0  0
    6.6347   -5.2162    0.0000 C   0  0  0  0  0  0  0  0  0  0  0  0
    5.9203   -4.8037    0.0000 O   0  0  0  0  0  0  0  0  0  0  0  0
    8.8483   -4.9612    0.0000 O   0  0  0  0  0  0  0  0  0  0  0  0
    8.8483   -6.2961    0.0000 C   0  0  0  0  0  0  0  0  0  0  0  0
    9.3332   -5.6287    0.0000 C   0  0  0  0  0  0  0  0  0  0  0  0
    5.9203   -7.2787    0.0000 O   0  0  0  0  0  0  0  0  0  0  0  0
   10.5707   -6.3431    0.0000 C   0  0  0  0  0  0  0  0  0  0  0  0
   10.1582   -5.6287    0.0000 C   0  0  0  0  0  0  0  0  0  0  0  0
   10.5707   -4.9142    0.0000 C   0  0  0  0  0  0  0  0  0  0  0  0
    4.4913   -4.8037    0.0000 C   0  0  0  0  0  0  0  0  0  0  0  0
    3.7768   -5.2162    0.0000 O   0  0  0  0  0  0  0  0  0  0  0  0
    7.3492   -7.2787    0.0000 O   0  0  0  0  0  0  0  0  0  0  0  0
  1  2  2  0  0  0  0
  2  3  1  0  0  0  0
  3  4  1  0  0  0  0
  4  5  2  0  0  0  0
  5  6  1  0  0  0  0
  6  7  2  0  0  0  0
  7  8  1  0  0  0  0
  8  9  2  0  0  0  0
  4  9  1  0  0  0  0
  9 10  1  0  0  0  0
  1 10  1  0  0  0  0
 12 13  1  0  0  0  0
 11 13  1  0  0  0  0
 12  6  1  0  0  0  0
 11  7  1  0  0  0  0
  3 14  2  0  0  0  0
 15 16  2  0  0  0  0
 16 17  1  0  0  0  0
 13 16  1  0  0  0  0
 18 19  1  0  0  0  0
  1 18  1  0  0  0  0
  5 20  1  0  0  0  0
M  END
>  <cdx:fragmentId>
92905

$$$$
