9296.cdx
  Mrv1902 05222410232D          

 24 25  0  0  0  0            999 V2000
    5.3712   -8.3036    0.0000 O   0  0  0  0  0  0  0  0  0  0  0  0
    5.4001   -5.0038    0.0000 O   0  0  0  0  0  0  0  0  0  0  0  0
    6.8289   -5.0163    0.0000 O   0  0  0  0  0  0  0  0  0  0  0  0
    6.8001   -8.3161    0.0000 O   0  0  0  0  0  0  0  0  0  0  0  0
    6.1037   -6.2475    0.0000 C   0  0  0  0  0  0  0  0  0  0  0  0
    5.3928   -5.8287    0.0000 C   0  0  0  0  0  0  0  0  0  0  0  0
    4.6748   -6.2350    0.0000 C   0  0  0  0  0  0  0  0  0  0  0  0
    4.6676   -7.0599    0.0000 C   0  0  0  0  0  0  0  0  0  0  0  0
    5.3784   -7.4787    0.0000 C   0  0  0  0  0  0  0  0  0  0  0  0
    6.0964   -7.0724    0.0000 C   0  0  0  0  0  0  0  0  0  0  0  0
    6.8073   -7.4912    0.0000 C   0  0  0  0  0  0  0  0  0  0  0  0
    7.5253   -7.0849    0.0000 C   0  0  0  0  0  0  0  0  0  0  0  0
    7.5326   -6.2600    0.0000 C   0  0  0  0  0  0  0  0  0  0  0  0
    6.8217   -5.8412    0.0000 C   0  0  0  0  0  0  0  0  0  0  0  0
   10.3831   -7.1099    0.0000 C   0  0  0  0  0  0  0  0  0  0  0  0
   11.1084   -5.8787    0.0000 C   0  0  0  0  0  0  0  0  0  0  0  0
   10.3903   -6.2850    0.0000 C   0  0  0  0  0  0  0  0  0  0  0  0
    9.6795   -5.8662    0.0000 C   0  0  0  0  0  0  0  0  0  0  0  0
    8.9614   -6.2725    0.0000 C   0  0  0  0  0  0  0  0  0  0  0  0
    8.2506   -5.8537    0.0000 C   0  0  1  0  0  0  0  0  0  0  0  0
    8.2578   -5.0288    0.0000 O   0  0  0  0  0  0  0  0  0  0  0  0
    8.9926   -3.8032    0.0000 O   0  0  0  0  0  0  0  0  0  0  0  0
    9.6866   -5.0523    0.0000 C   0  0  0  0  0  0  0  0  0  0  0  0
    8.9790   -4.6281    0.0000 C   0  0  0  0  0  0  0  0  0  0  0  0
 20 21  1  6  0  0  0
 20 13  1  0  0  0  0
  9  1  1  0  0  0  0
  6  2  1  0  0  0  0
 14  3  2  0  0  0  0
 11  4  2  0  0  0  0
 10  5  2  0  0  0  0
 14  5  1  0  0  0  0
  6  5  1  0  0  0  0
  7  6  2  0  0  0  0
  8  7  1  0  0  0  0
  9  8  2  0  0  0  0
 10  9  1  0  0  0  0
 11 10  1  0  0  0  0
 12 11  1  0  0  0  0
 13 12  2  0  0  0  0
 14 13  1  0  0  0  0
 17 15  1  0  0  0  0
 17 16  1  0  0  0  0
 18 17  2  0  0  0  0
 19 18  1  0  0  0  0
 20 19  1  0  0  0  0
 24 21  1  0  0  0  0
 24 22  2  0  0  0  0
 24 23  1  0  0  0  0
M  END
>  <cdx:fragmentId>
57476

$$$$
