92965.cdx
  Mrv1902 05222410182D          

 10  9  0  0  0  0            999 V2000
    6.0063   -8.0437    0.0000 C   0  0  0  0  0  0  0  0  0  0  0  0
    6.7207   -7.6313    0.0000 C   0  0  0  0  0  0  0  0  0  0  0  0
    7.4352   -8.0437    0.0000 C   0  0  0  0  0  0  0  0  0  0  0  0
    8.1497   -7.6313    0.0000 C   0  0  0  0  0  0  0  0  0  0  0  0
    8.8642   -8.0437    0.0000 O   0  0  0  0  0  0  0  0  0  0  0  0
    9.5786   -7.6313    0.0000 C   0  0  0  0  0  0  0  0  0  0  0  0
   10.2931   -8.0437    0.0000 C   0  0  0  0  0  0  0  0  0  0  0  0
    6.7207   -6.8062    0.0000 O   0  0  0  0  0  0  0  0  0  0  0  0
    7.4352   -8.8688    0.0000 C   0  0  0  0  0  0  0  0  0  0  0  0
    8.1497   -6.8062    0.0000 O   0  0  0  0  0  0  0  0  0  0  0  0
  1  2  1  0  0  0  0
  2  3  1  0  0  0  0
  3  4  1  0  0  0  0
  4  5  1  0  0  0  0
  5  6  1  0  0  0  0
  6  7  1  0  0  0  0
  2  8  2  0  0  0  0
  3  9  1  0  0  0  0
  4 10  2  0  0  0  0
M  END
>  <cdx:fragmentId>
3

$$$$
