92968.cdx
  Mrv1902 05222410282D          

 41 42  0  0  0  0            999 V2000
    8.1012  -11.4729    0.0000 N   0  0  0  0  0  0  0  0  0  0  0  0
    8.5132  -10.7581    0.0000 C   0  0  0  0  0  0  0  0  0  0  0  0
    9.3382  -10.7575    0.0000 C   0  0  1  0  0  0  0  0  0  0  0  0
    9.7501  -10.0427    0.0000 N   0  0  0  0  0  0  0  0  0  0  0  0
    9.3371   -9.3285    0.0000 C   0  0  0  0  0  0  0  0  0  0  0  0
    9.7490   -8.6137    0.0000 C   0  0  1  0  0  0  0  0  0  0  0  0
    9.3360   -7.8996    0.0000 N   0  0  0  0  0  0  0  0  0  0  0  0
    8.5110   -7.9002    0.0000 C   0  0  0  0  0  0  0  0  0  0  0  0
    8.0979   -7.1861    0.0000 C   0  0  1  0  0  0  0  0  0  0  0  0
    7.2729   -7.1867    0.0000 N   0  0  0  0  0  0  0  0  0  0  0  0
    6.8610   -7.9015    0.0000 C   0  0  0  0  0  0  0  0  0  0  0  0
    6.0360   -7.9021    0.0000 C   0  0  0  0  0  0  0  0  0  0  0  0
    5.6240   -8.6169    0.0000 N   0  0  0  0  0  0  0  0  0  0  0  0
    6.0371   -9.3311    0.0000 C   0  0  0  0  0  0  0  0  0  0  0  0
    5.6251  -10.0459    0.0000 C   0  0  1  0  0  0  0  0  0  0  0  0
    6.0382  -10.7600    0.0000 N   0  0  0  0  0  0  0  0  0  0  0  0
    6.8632  -10.7594    0.0000 C   0  0  0  0  0  0  0  0  0  0  0  0
    7.2762  -11.4735    0.0000 C   0  0  2  0  0  0  0  0  0  0  0  0
    7.0219  -12.2584    0.0000 C   0  0  0  0  0  0  0  0  0  0  0  0
    7.6897  -12.7428    0.0000 C   0  0  0  0  0  0  0  0  0  0  0  0
    8.3568  -12.2573    0.0000 C   0  0  0  0  0  0  0  0  0  0  0  0
    8.1001  -10.0440    0.0000 O   0  0  0  0  0  0  0  0  0  0  0  0
    8.5121   -9.3292    0.0000 O   0  0  0  0  0  0  0  0  0  0  0  0
    8.0990   -8.6150    0.0000 O   0  0  0  0  0  0  0  0  0  0  0  0
    7.2740   -8.6157    0.0000 O   0  0  0  0  0  0  0  0  0  0  0  0
    6.8621   -9.3304    0.0000 O   0  0  0  0  0  0  0  0  0  0  0  0
    7.2751  -10.0446    0.0000 O   0  0  0  0  0  0  0  0  0  0  0  0
   10.9871   -9.3273    0.0000 C   0  0  0  0  0  0  0  0  0  0  0  0
   10.5740   -8.6131    0.0000 C   0  0  0  0  0  0  0  0  0  0  0  0
   10.9860   -7.8983    0.0000 C   0  0  0  0  0  0  0  0  0  0  0  0
    8.5099   -6.4713    0.0000 C   0  0  0  0  0  0  0  0  0  0  0  0
    8.0968   -5.7571    0.0000 C   0  0  0  0  0  0  0  0  0  0  0  0
    7.2718   -5.7578    0.0000 C   0  0  0  0  0  0  0  0  0  0  0  0
    8.5088   -5.0423    0.0000 C   0  0  0  0  0  0  0  0  0  0  0  0
    9.7512  -11.4716    0.0000 C   0  0  0  0  0  0  0  0  0  0  0  0
   10.5762  -11.4710    0.0000 C   0  0  0  0  0  0  0  0  0  0  0  0
   10.9882  -10.7562    0.0000 C   0  0  0  0  0  0  0  0  0  0  0  0
   10.9893  -12.1851    0.0000 C   0  0  0  0  0  0  0  0  0  0  0  0
    4.8001  -10.0465    0.0000 C   0  0  0  0  0  0  0  0  0  0  0  0
    4.3882  -10.7613    0.0000 O   0  0  0  0  0  0  0  0  0  0  0  0
    6.4558  -11.5604    0.0000 H   0  0  0  0  0  0  0  0  0  0  0  0
  1  2  1  0  0  0  0
  2  3  1  0  0  0  0
  3  4  1  0  0  0  0
  4  5  1  0  0  0  0
  5  6  1  0  0  0  0
  6  7  1  0  0  0  0
  7  8  1  0  0  0  0
  8  9  1  0  0  0  0
  9 10  1  0  0  0  0
 10 11  1  0  0  0  0
 11 12  1  0  0  0  0
 12 13  1  0  0  0  0
 13 14  1  0  0  0  0
 14 15  1  0  0  0  0
 15 16  1  0  0  0  0
 16 17  1  0  0  0  0
 17 18  1  0  0  0  0
 18 19  1  0  0  0  0
 19 20  1  0  0  0  0
 20 21  1  0  0  0  0
  1 21  1  0  0  0  0
  1 18  1  0  0  0  0
  2 22  2  0  0  0  0
  5 23  2  0  0  0  0
  8 24  2  0  0  0  0
 11 25  2  0  0  0  0
 14 26  2  0  0  0  0
 17 27  2  0  0  0  0
 28 29  1  0  0  0  0
 29 30  1  0  0  0  0
  6 29  1  1  0  0  0
 31 32  1  0  0  0  0
 32 33  1  0  0  0  0
 32 34  1  0  0  0  0
  9 31  1  1  0  0  0
 35 36  1  0  0  0  0
 36 37  1  0  0  0  0
 36 38  1  0  0  0  0
  3 35  1  1  0  0  0
 39 40  1  0  0  0  0
 15 39  1  1  0  0  0
 18 41  1  6  0  0  0
M  END
>  <cdx:fragmentId>
5

$$$$
