92961.cdx
  Mrv1902 05222410202D          

 27 28  0  0  0  0            999 V2000
    4.7006   -5.0600    0.0000 C   0  0  0  0  0  0  0  0  0  0  0  0
    4.7006   -5.8850    0.0000 C   0  0  0  0  0  0  0  0  0  0  0  0
    5.4150   -6.2975    0.0000 C   0  0  0  0  0  0  0  0  0  0  0  0
    6.1295   -5.8850    0.0000 C   0  0  0  0  0  0  0  0  0  0  0  0
    6.1295   -5.0600    0.0000 C   0  0  0  0  0  0  0  0  0  0  0  0
    5.4150   -4.6475    0.0000 C   0  0  0  0  0  0  0  0  0  0  0  0
    3.9861   -4.6475    0.0000 O   0  0  0  0  0  0  0  0  0  0  0  0
    6.8440   -4.6475    0.0000 C   0  0  0  0  0  0  0  0  0  0  0  0
    5.0025   -7.0120    0.0000 C   0  0  0  0  0  0  0  0  0  0  0  0
    5.8275   -7.0120    0.0000 C   0  0  0  0  0  0  0  0  0  0  0  0
    6.8440   -6.2975    0.0000 C   0  0  0  0  0  0  0  0  0  0  0  0
    7.5584   -5.8850    0.0000 C   0  0  0  0  0  0  0  0  0  0  0  0
    8.2729   -6.2975    0.0000 C   0  0  0  0  0  0  0  0  0  0  0  0
    8.9874   -5.8850    0.0000 C   0  0  0  0  0  0  0  0  0  0  0  0
    8.2729   -7.1225    0.0000 O   0  0  0  0  0  0  0  0  0  0  0  0
    6.8440   -5.4725    0.0000 O   0  0  0  0  0  0  0  0  0  0  0  0
    8.2729   -7.9475    0.0000 C   0  0  2  0  0  0  0  0  0  0  0  0
    7.5584   -8.3600    0.0000 O   0  0  0  0  0  0  0  0  0  0  0  0
    7.5584   -9.1850    0.0000 C   0  0  1  0  0  0  0  0  0  0  0  0
    8.2729   -9.5975    0.0000 C   0  0  2  0  0  0  0  0  0  0  0  0
    8.9874   -9.1850    0.0000 C   0  0  1  0  0  0  0  0  0  0  0  0
    8.9874   -8.3600    0.0000 C   0  0  1  0  0  0  0  0  0  0  0  0
    6.8440   -9.5975    0.0000 C   0  0  0  0  0  0  0  0  0  0  0  0
    9.7019   -9.5975    0.0000 O   0  0  0  0  0  0  0  0  0  0  0  0
    9.7019   -7.9475    0.0000 O   0  0  0  0  0  0  0  0  0  0  0  0
    8.2729  -10.4225    0.0000 O   0  0  0  0  0  0  0  0  0  0  0  0
    6.1295   -9.1850    0.0000 O   0  0  0  0  0  0  0  0  0  0  0  0
  1  2  1  0  0  0  0
  2  3  1  0  0  0  0
  3  4  1  0  0  0  0
  4  5  1  0  0  0  0
  5  6  2  0  0  0  0
  6  1  1  0  0  0  0
  1  7  2  0  0  0  0
  5  8  1  0  0  0  0
  3  9  1  0  0  0  0
  3 10  1  0  0  0  0
  4 11  1  0  0  0  0
 11 12  2  0  0  0  0
 12 13  1  0  0  0  0
 13 14  1  0  0  0  0
 13 15  1  0  0  0  0
  4 16  1  0  0  0  0
 17 15  1  1  0  0  0
 17 18  1  0  0  0  0
 18 19  1  0  0  0  0
 19 20  1  0  0  0  0
 20 21  1  0  0  0  0
 21 22  1  0  0  0  0
 22 17  1  0  0  0  0
 19 23  1  1  0  0  0
 21 24  1  1  0  0  0
 22 25  1  6  0  0  0
 20 26  1  6  0  0  0
 23 27  1  0  0  0  0
M  END
>  <cdx:fragmentId>
5

$$$$
