92964.cdx
  Mrv1902 05222410182D          

 24 25  0  0  0  0            999 V2000
    7.5023   -8.1568    0.0000 C   0  0  0  0  0  0  0  0  0  0  0  0
    8.2178   -8.5675    0.0000 C   0  0  0  0  0  0  0  0  0  0  0  0
    8.9312   -8.1531    0.0000 C   0  0  0  0  0  0  0  0  0  0  0  0
    8.9291   -7.3281    0.0000 C   0  0  0  0  0  0  0  0  0  0  0  0
    8.2135   -6.9175    0.0000 C   0  0  0  0  0  0  0  0  0  0  0  0
    7.5001   -7.3318    0.0000 C   0  0  0  0  0  0  0  0  0  0  0  0
    8.2200   -9.3925    0.0000 O   0  0  0  0  0  0  0  0  0  0  0  0
    8.2114   -6.0925    0.0000 C   0  0  0  0  0  0  0  0  0  0  0  0
    7.4958   -5.6818    0.0000 C   0  0  0  0  0  0  0  0  0  0  0  0
    7.4936   -4.8568    0.0000 C   0  0  0  0  0  0  0  0  0  0  0  0
    6.7781   -4.4462    0.0000 O   0  0  0  0  0  0  0  0  0  0  0  0
    8.2070   -4.4425    0.0000 O   0  0  0  0  0  0  0  0  0  0  0  0
    6.7889   -8.5712    0.0000 O   0  0  0  0  0  0  0  0  0  0  0  0
    7.5066   -9.8068    0.0000 C   0  0  2  0  0  0  0  0  0  0  0  0
    6.7900   -9.3981    0.0000 O   0  0  0  0  0  0  0  0  0  0  0  0
    6.0777   -9.8068    0.0000 C   0  0  1  0  0  0  0  0  0  0  0  0
    6.0777  -10.6318    0.0000 C   0  0  2  0  0  0  0  0  0  0  0  0
    6.7900  -11.0406    0.0000 C   0  0  1  0  0  0  0  0  0  0  0  0
    7.5066  -10.6318    0.0000 C   0  0  1  0  0  0  0  0  0  0  0  0
    5.3637   -9.3934    0.0000 C   0  0  0  0  0  0  0  0  0  0  0  0
    6.7889  -11.8656    0.0000 O   0  0  0  0  0  0  0  0  0  0  0  0
    5.3637  -11.0452    0.0000 O   0  0  0  0  0  0  0  0  0  0  0  0
    8.2200  -11.0462    0.0000 O   0  0  0  0  0  0  0  0  0  0  0  0
    4.6487   -9.8049    0.0000 O   0  0  0  0  0  0  0  0  0  0  0  0
  1  2  2  0  0  0  0
  2  3  1  0  0  0  0
  3  4  2  0  0  0  0
  4  5  1  0  0  0  0
  5  6  2  0  0  0  0
  6  1  1  0  0  0  0
  2  7  1  0  0  0  0
  5  8  1  0  0  0  0
  8  9  2  0  0  0  0
  9 10  1  0  0  0  0
 10 11  2  0  0  0  0
 10 12  1  0  0  0  0
  1 13  1  0  0  0  0
 14  7  1  1  0  0  0
 14 15  1  0  0  0  0
 15 16  1  0  0  0  0
 16 17  1  0  0  0  0
 17 18  1  0  0  0  0
 18 19  1  0  0  0  0
 19 14  1  0  0  0  0
 16 20  1  1  0  0  0
 18 21  1  1  0  0  0
 17 22  1  6  0  0  0
 19 23  1  6  0  0  0
 20 24  1  0  0  0  0
M  END
>  <cdx:fragmentId>
5

$$$$
