(-)-sibiricumin A.cdx
  Mrv1902 05222410192D          

 42 45  0  0  0  0            999 V2000
    8.3510   -6.0748    0.0000 H   0  0  0  0  0  0  0  0  0  0  0  0
    6.9204   -7.0906    0.0000 H   0  0  0  0  0  0  0  0  0  0  0  0
    6.7303   -7.9315    0.0000 C   0  0  2  0  0  0  0  0  0  0  0  0
    6.1099   -7.3877    0.0000 C   0  0  0  0  0  0  0  0  0  0  0  0
    5.3288   -7.6531    0.0000 O   0  0  0  0  0  0  0  0  0  0  0  0
    5.2953  -13.7805    0.0000 O   0  0  0  0  0  0  0  0  0  0  0  0
    4.9097  -13.0512    0.0000 C   0  0  0  0  0  0  0  0  0  0  0  0
    5.3485  -12.3525    0.0000 C   0  0  0  0  0  0  0  0  0  0  0  0
    4.9629  -11.6232    0.0000 C   0  0  0  0  0  0  0  0  0  0  0  0
    4.0949   -8.7781    0.0000 C   0  0  0  0  0  0  0  0  0  0  0  0
    4.9198   -8.7656    0.0000 O   0  0  0  0  0  0  0  0  0  0  0  0
    5.3430   -9.4738    0.0000 C   0  0  0  0  0  0  0  0  0  0  0  0
    4.9414  -10.1944    0.0000 C   0  0  0  0  0  0  0  0  0  0  0  0
    5.3646  -10.9026    0.0000 C   0  0  0  0  0  0  0  0  0  0  0  0
    6.1895  -10.8901    0.0000 C   0  0  0  0  0  0  0  0  0  0  0  0
    6.5696   -8.7407    0.0000 O   0  0  0  0  0  0  0  0  0  0  0  0
    6.1679   -9.4613    0.0000 C   0  0  0  0  0  0  0  0  0  0  0  0
    6.5912  -10.1695    0.0000 C   0  0  0  0  0  0  0  0  0  0  0  0
    9.3176   -3.3473    0.0000 C   0  0  0  0  0  0  0  0  0  0  0  0
    8.8416   -4.0212    0.0000 O   0  0  0  0  0  0  0  0  0  0  0  0
   10.4847   -4.1717    0.0000 O   0  0  0  0  0  0  0  0  0  0  0  0
    9.8784   -6.2686    0.0000 C   0  0  0  0  0  0  0  0  0  0  0  0
   10.3543   -5.5947    0.0000 C   0  0  0  0  0  0  0  0  0  0  0  0
   10.0087   -4.8456    0.0000 C   0  0  0  0  0  0  0  0  0  0  0  0
    9.1872   -4.7703    0.0000 C   0  0  0  0  0  0  0  0  0  0  0  0
    8.7112   -5.4442    0.0000 C   0  0  0  0  0  0  0  0  0  0  0  0
   10.2399   -7.3326    0.0000 O   0  0  0  0  0  0  0  0  0  0  0  0
    9.6342   -7.8927    0.0000 C   0  0  0  0  0  0  0  0  0  0  0  0
    9.0568   -6.1933    0.0000 C   0  0  0  0  0  0  0  0  0  0  0  0
    9.6472  -10.5978    0.0000 C   0  0  0  0  0  0  0  0  0  0  0  0
    9.6362   -9.7729    0.0000 O   0  0  0  0  0  0  0  0  0  0  0  0
    8.2184  -10.6169    0.0000 O   0  0  0  0  0  0  0  0  0  0  0  0
    8.8462   -7.6483    0.0000 C   0  0  1  0  0  0  0  0  0  0  0  0
    8.5809   -6.8672    0.0000 C   0  0  1  0  0  0  0  0  0  0  0  0
    7.7559   -6.8782    0.0000 O   0  0  0  0  0  0  0  0  0  0  0  0
    7.5115   -7.6661    0.0000 C   0  0  2  0  0  0  0  0  0  0  0  0
    8.9053   -8.5450    0.0000 C   0  0  0  0  0  0  0  0  0  0  0  0
    8.1853   -8.1421    0.0000 C   0  0  0  0  0  0  0  0  0  0  0  0
    7.4764   -8.5641    0.0000 C   0  0  0  0  0  0  0  0  0  0  0  0
    7.4875   -9.3890    0.0000 C   0  0  0  0  0  0  0  0  0  0  0  0
    8.2074   -9.7920    0.0000 C   0  0  0  0  0  0  0  0  0  0  0  0
    8.9163   -9.3700    0.0000 C   0  0  0  0  0  0  0  0  0  0  0  0
 34  1  1  6  0  0  0
 36  2  1  1  0  0  0
  7  6  1  0  0  0  0
  8  7  1  0  0  0  0
  3  4  1  0  0  0  0
  4  5  1  0  0  0  0
  9  8  2  0  0  0  0
  3 16  1  1  0  0  0
 14  9  1  0  0  0  0
 11 10  1  0  0  0  0
 12 11  1  0  0  0  0
 12 17  1  0  0  0  0
 13 12  2  0  0  0  0
 14 13  1  0  0  0  0
 15 14  2  0  0  0  0
 18 15  1  0  0  0  0
 17 16  1  0  0  0  0
 18 17  2  0  0  0  0
 36  3  1  0  0  0  0
 20 19  1  0  0  0  0
 25 20  1  0  0  0  0
 24 21  1  0  0  0  0
 22 29  1  0  0  0  0
 23 22  2  0  0  0  0
 24 23  1  0  0  0  0
 25 24  2  0  0  0  0
 26 25  1  0  0  0  0
 29 26  2  0  0  0  0
 28 27  1  0  0  0  0
 33 28  1  6  0  0  0
 34 29  1  0  0  0  0
 31 30  1  0  0  0  0
 42 31  1  0  0  0  0
 41 32  2  0  0  0  0
 33 38  1  0  0  0  0
 34 33  1  0  0  0  0
 35 34  1  0  0  0  0
 36 35  1  0  0  0  0
 38 36  1  0  0  0  0
 37 42  2  0  0  0  0
 38 37  1  0  0  0  0
 39 38  1  0  0  0  0
 40 39  2  0  0  0  0
 41 40  1  0  0  0  0
 42 41  1  0  0  0  0
M  END
>  <cdx:fragmentId>
5

$$$$
