92975.cdx
  Mrv1902 05222410202D          

 42 45  0  0  0  0            999 V2000
    4.3274   -8.7753    0.0000 C   0  0  0  0  0  0  0  0  0  0  0  0
    5.0448   -9.1827    0.0000 C   0  0  0  0  0  0  0  0  0  0  0  0
    5.7563   -8.7651    0.0000 C   0  0  0  0  0  0  0  0  0  0  0  0
    5.7505   -7.9401    0.0000 C   0  0  0  0  0  0  0  0  0  0  0  0
    5.0331   -7.5327    0.0000 C   0  0  0  0  0  0  0  0  0  0  0  0
    4.3215   -7.9503    0.0000 C   0  0  0  0  0  0  0  0  0  0  0  0
    5.6970   -7.0430    0.0000 C   0  0  2  0  0  0  0  0  0  0  0  0
    5.4365   -6.2602    0.0000 O   0  0  0  0  0  0  0  0  0  0  0  0
    4.6115   -6.2661    0.0000 C   0  0  1  0  0  0  0  0  0  0  0  0
    4.3622   -7.0526    0.0000 C   0  0  1  0  0  0  0  0  0  0  0  0
    5.0507  -10.0076    0.0000 O   0  0  0  0  0  0  0  0  0  0  0  0
    3.6159   -9.1929    0.0000 O   0  0  0  0  0  0  0  0  0  0  0  0
    3.6218  -10.0178    0.0000 C   0  0  0  0  0  0  0  0  0  0  0  0
    4.1218   -5.6022    0.0000 C   0  0  0  0  0  0  0  0  0  0  0  0
    3.5794   -7.3131    0.0000 C   0  0  0  0  0  0  0  0  0  0  0  0
    2.9624   -6.7654    0.0000 O   0  0  0  0  0  0  0  0  0  0  0  0
    4.4520   -4.8461    0.0000 C   0  0  0  0  0  0  0  0  0  0  0  0
    3.9623   -4.1822    0.0000 C   0  0  0  0  0  0  0  0  0  0  0  0
    3.1425   -4.2742    0.0000 C   0  0  0  0  0  0  0  0  0  0  0  0
    2.8123   -5.0303    0.0000 C   0  0  0  0  0  0  0  0  0  0  0  0
    3.3020   -5.6943    0.0000 C   0  0  0  0  0  0  0  0  0  0  0  0
    2.6528   -3.6103    0.0000 O   0  0  0  0  0  0  0  0  0  0  0  0
    4.2925   -3.4261    0.0000 O   0  0  0  0  0  0  0  0  0  0  0  0
    3.8028   -2.7621    0.0000 C   0  0  0  0  0  0  0  0  0  0  0  0
    6.6746   -9.5270    0.0000 C   0  0  0  0  0  0  0  0  0  0  0  0
    7.0801   -8.8085    0.0000 C   0  0  0  0  0  0  0  0  0  0  0  0
    6.6607   -8.0981    0.0000 O   0  0  0  0  0  0  0  0  0  0  0  0
    7.0940  -10.2374    0.0000 C   0  0  0  0  0  0  0  0  0  0  0  0
    7.9189  -10.2294    0.0000 C   0  0  0  0  0  0  0  0  0  0  0  0
    8.3245   -9.5110    0.0000 C   0  0  0  0  0  0  0  0  0  0  0  0
    7.9051   -8.8005    0.0000 C   0  0  0  0  0  0  0  0  0  0  0  0
    8.3106   -8.0821    0.0000 O   0  0  0  0  0  0  0  0  0  0  0  0
    9.1356   -8.0741    0.0000 C   0  0  0  0  0  0  0  0  0  0  0  0
    8.3383  -10.9399    0.0000 C   0  0  0  0  0  0  0  0  0  0  0  0
    7.9709  -11.6785    0.0000 C   0  0  0  0  0  0  0  0  0  0  0  0
    8.4269  -12.3660    0.0000 C   0  0  0  0  0  0  0  0  0  0  0  0
    8.0595  -13.1047    0.0000 O   0  0  0  0  0  0  0  0  0  0  0  0
    7.8790   -6.9853    0.0000 O   0  0  0  0  0  0  0  0  0  0  0  0
    7.0926   -6.7360    0.0000 C   0  0  0  0  0  0  0  0  0  0  0  0
    6.4834   -7.2924    0.0000 C   0  0  2  0  0  0  0  0  0  0  0  0
    6.2762   -6.4555    0.0000 H   0  0  0  0  0  0  0  0  0  0  0  0
    4.8250   -5.4692    0.0000 H   0  0  0  0  0  0  0  0  0  0  0  0
  1  2  1  0  0  0  0
  2  3  1  0  0  0  0
  3  4  2  0  0  0  0
  4  5  1  0  0  0  0
  5  6  1  0  0  0  0
  6  1  2  0  0  0  0
  5  7  1  0  0  0  0
  7  8  1  0  0  0  0
  8  9  1  0  0  0  0
  9 10  1  0  0  0  0
 10  5  1  0  0  0  0
  2 11  2  0  0  0  0
  1 12  1  0  0  0  0
 12 13  1  0  0  0  0
  9 14  1  0  0  0  0
 10 15  1  6  0  0  0
 15 16  1  0  0  0  0
 14 17  2  0  0  0  0
 17 18  1  0  0  0  0
 18 19  2  0  0  0  0
 19 20  1  0  0  0  0
 20 21  2  0  0  0  0
 21 14  1  0  0  0  0
 19 22  1  0  0  0  0
 18 23  1  0  0  0  0
 23 24  1  0  0  0  0
  7 40  1  0  0  0  0
 25 26  2  0  0  0  0
 26 27  1  0  0  0  0
 25 28  1  0  0  0  0
 28 29  2  0  0  0  0
 29 30  1  0  0  0  0
 30 31  2  0  0  0  0
 31 26  1  0  0  0  0
 31 32  1  0  0  0  0
 32 33  1  0  0  0  0
 29 34  1  0  0  0  0
 40 27  1  1  0  0  0
 34 35  2  0  0  0  0
 39 38  1  0  0  0  0
 40 39  1  0  0  0  0
 35 36  1  0  0  0  0
 36 37  1  0  0  0  0
  7 41  1  1  0  0  0
  9 42  1  6  0  0  0
M  END
>  <cdx:fragmentId>
5

$$$$
