92976.cdx
  Mrv1902 05222410192D          

 31 34  0  0  0  0            999 V2000
    2.8581   -8.5113    0.0000 C   0  0  2  0  0  0  0  0  0  0  0  0
    2.8581   -9.3362    0.0000 C   0  0  2  0  0  0  0  0  0  0  0  0
    3.5725   -9.7487    0.0000 C   0  0  1  0  0  0  0  0  0  0  0  0
    4.2870   -9.3362    0.0000 C   0  0  2  0  0  0  0  0  0  0  0  0
    4.2870   -8.5113    0.0000 C   0  0  1  0  0  0  0  0  0  0  0  0
    3.5725   -8.0987    0.0000 O   0  0  0  0  0  0  0  0  0  0  0  0
    5.0015   -9.7487    0.0000 O   0  0  0  0  0  0  0  0  0  0  0  0
    5.7159   -9.3362    0.0000 C   0  0  0  0  0  0  0  0  0  0  0  0
    5.7159   -8.5113    0.0000 C   0  0  0  0  0  0  0  0  0  0  0  0
    5.0015   -8.0987    0.0000 O   0  0  0  0  0  0  0  0  0  0  0  0
    6.4304   -9.7487    0.0000 C   0  0  0  0  0  0  0  0  0  0  0  0
    7.1449   -9.3362    0.0000 C   0  0  0  0  0  0  0  0  0  0  0  0
    7.1449   -8.5113    0.0000 C   0  0  0  0  0  0  0  0  0  0  0  0
    6.4304   -8.0987    0.0000 C   0  0  0  0  0  0  0  0  0  0  0  0
    7.8594   -9.7487    0.0000 C   0  0  0  0  0  0  0  0  0  0  0  0
    8.5738   -9.3362    0.0000 C   0  0  0  0  0  0  0  0  0  0  0  0
    8.5738   -8.5113    0.0000 C   0  0  0  0  0  0  0  0  0  0  0  0
    7.8594   -8.0987    0.0000 O   0  0  0  0  0  0  0  0  0  0  0  0
   10.0028   -8.5113    0.0000 C   0  0  0  0  0  0  0  0  0  0  0  0
    9.2883   -8.0987    0.0000 C   0  0  0  0  0  0  0  0  0  0  0  0
   10.7172   -8.0987    0.0000 C   0  0  0  0  0  0  0  0  0  0  0  0
   10.7172   -7.2738    0.0000 C   0  0  0  0  0  0  0  0  0  0  0  0
   10.0028   -6.8613    0.0000 C   0  0  0  0  0  0  0  0  0  0  0  0
    9.2883   -7.2738    0.0000 C   0  0  0  0  0  0  0  0  0  0  0  0
   11.4317   -6.8613    0.0000 O   0  0  0  0  0  0  0  0  0  0  0  0
   11.4317   -8.5113    0.0000 O   0  0  0  0  0  0  0  0  0  0  0  0
    6.4304  -10.5737    0.0000 O   0  0  0  0  0  0  0  0  0  0  0  0
    2.1436   -8.0987    0.0000 C   0  0  0  0  0  0  0  0  0  0  0  0
    1.4291   -8.5113    0.0000 O   0  0  0  0  0  0  0  0  0  0  0  0
    3.5725  -10.5737    0.0000 O   0  0  0  0  0  0  0  0  0  0  0  0
    2.1436   -9.7487    0.0000 O   0  0  0  0  0  0  0  0  0  0  0  0
  1  2  1  0  0  0  0
  2  3  1  0  0  0  0
  3  4  1  0  0  0  0
  4  5  1  0  0  0  0
  5  6  1  0  0  0  0
  6  1  1  0  0  0  0
  4  7  1  6  0  0  0
  8  9  1  0  0  0  0
  9 10  1  0  0  0  0
  5 10  1  1  0  0  0
  8 11  2  0  0  0  0
 11 12  1  0  0  0  0
 12 13  2  0  0  0  0
 13 14  1  0  0  0  0
 14  9  2  0  0  0  0
 12 15  1  0  0  0  0
 15 16  1  0  0  0  0
 16 17  1  0  0  0  0
 17 18  1  0  0  0  0
 18 13  1  0  0  0  0
 19 20  2  0  0  0  0
 20 17  1  0  0  0  0
 19 21  1  0  0  0  0
 21 22  2  0  0  0  0
 22 23  1  0  0  0  0
 23 24  2  0  0  0  0
 24 20  1  0  0  0  0
 22 25  1  0  0  0  0
 21 26  1  0  0  0  0
 11 27  1  0  0  0  0
  1 28  1  1  0  0  0
 28 29  1  0  0  0  0
  3 30  1  1  0  0  0
  2 31  1  6  0  0  0
M  END
>  <cdx:fragmentId>
5

$$$$
