92972.cdx
  Mrv1902 05222410192D          

 28 31  0  0  0  0            999 V2000
    4.9068   -6.9850    0.0000 C   0  0  0  0  0  0  0  0  0  0  0  0
    4.9068   -7.8100    0.0000 C   0  0  0  0  0  0  0  0  0  0  0  0
    5.6213   -8.2225    0.0000 C   0  0  2  0  0  0  0  0  0  0  0  0
    6.3357   -7.8100    0.0000 C   0  0  0  0  0  0  0  0  0  0  0  0
    6.3357   -6.9850    0.0000 C   0  0  1  0  0  0  0  0  0  0  0  0
    5.6213   -6.5725    0.0000 C   0  0  0  0  0  0  0  0  0  0  0  0
    7.0502   -8.2225    0.0000 C   0  0  0  0  0  0  0  0  0  0  0  0
    7.7647   -7.8100    0.0000 C   0  0  0  0  0  0  0  0  0  0  0  0
    7.7647   -6.9850    0.0000 C   0  0  2  0  0  0  0  0  0  0  0  0
    7.0502   -6.5725    0.0000 C   0  0  0  0  0  0  0  0  0  0  0  0
    8.4792   -6.5725    0.0000 C   0  0  0  0  0  0  0  0  0  0  0  0
    8.4792   -5.7475    0.0000 C   0  0  1  0  0  0  0  0  0  0  0  0
    7.7647   -5.3350    0.0000 C   0  0  0  0  0  0  0  0  0  0  0  0
    7.0502   -5.7475    0.0000 C   0  0  0  0  0  0  0  0  0  0  0  0
    8.4792   -7.3975    0.0000 C   0  0  0  0  0  0  0  0  0  0  0  0
    9.1936   -6.1600    0.0000 C   0  0  0  0  0  0  0  0  0  0  0  0
    6.3357   -6.1600    0.0000 C   0  0  0  0  0  0  0  0  0  0  0  0
    6.2046   -8.8059    0.0000 C   0  0  0  0  0  0  0  0  0  0  0  0
    5.0379   -8.8059    0.0000 C   0  0  0  0  0  0  0  0  0  0  0  0
    7.0015   -8.5923    0.0000 O   0  0  0  0  0  0  0  0  0  0  0  0
    5.9911   -9.6028    0.0000 O   0  0  0  0  0  0  0  0  0  0  0  0
    9.9081   -6.5725    0.0000 C   0  0  0  0  0  0  0  0  0  0  0  0
   10.6226   -6.1600    0.0000 O   0  0  0  0  0  0  0  0  0  0  0  0
   11.3370   -6.5725    0.0000 C   0  0  0  0  0  0  0  0  0  0  0  0
   12.0515   -6.1600    0.0000 C   0  0  0  0  0  0  0  0  0  0  0  0
   12.7660   -6.5725    0.0000 C   0  0  0  0  0  0  0  0  0  0  0  0
   12.0515   -5.3350    0.0000 C   0  0  0  0  0  0  0  0  0  0  0  0
   11.3370   -7.3975    0.0000 O   0  0  0  0  0  0  0  0  0  0  0  0
  1  2  1  0  0  0  0
  2  3  1  0  0  0  0
  3  4  1  0  0  0  0
  4  5  1  0  0  0  0
  5  6  1  0  0  0  0
  6  1  1  0  0  0  0
  4  7  1  0  0  0  0
  7  8  1  0  0  0  0
  8  9  1  0  0  0  0
  9 10  1  0  0  0  0
 10  5  1  0  0  0  0
  9 11  1  6  0  0  0
 12 11  1  6  0  0  0
 12 13  1  0  0  0  0
 13 14  1  0  0  0  0
 14 10  1  0  0  0  0
  9 15  1  0  0  0  0
 12 16  1  0  0  0  0
 16 15  1  0  0  0  0
  5 17  1  6  0  0  0
  3 18  1  6  0  0  0
  3 19  1  1  0  0  0
 18 20  1  0  0  0  0
 18 21  2  0  0  0  0
 16 22  1  0  0  0  0
 22 23  1  0  0  0  0
 23 24  1  0  0  0  0
 24 25  1  0  0  0  0
 25 26  1  0  0  0  0
 25 27  1  0  0  0  0
 24 28  2  0  0  0  0
M  END
>  <cdx:fragmentId>
5

$$$$
