92979.cdx
  Mrv1902 05222410262D          

 55 58  0  0  0  0            999 V2000
    7.1796   -7.3505    0.0000 C   0  0  2  0  0  0  0  0  0  0  0  0
    6.4645   -7.7619    0.0000 C   0  0  0  0  0  0  0  0  0  0  0  0
    6.4632   -8.5869    0.0000 C   0  0  2  0  0  0  0  0  0  0  0  0
    7.1770   -9.0005    0.0000 C   0  0  1  0  0  0  0  0  0  0  0  0
    7.8922   -8.5891    0.0000 C   0  0  1  0  0  0  0  0  0  0  0  0
    7.8934   -7.7641    0.0000 C   0  0  0  0  0  0  0  0  0  0  0  0
    7.1758   -9.8255    0.0000 O   0  0  0  0  0  0  0  0  0  0  0  0
    6.4607  -10.2369    0.0000 C   0  0  0  0  0  0  0  0  0  0  0  0
    6.4594  -11.0619    0.0000 C   0  0  0  0  0  0  0  0  0  0  0  0
    5.7443  -11.4733    0.0000 C   0  0  0  0  0  0  0  0  0  0  0  0
    5.7468   -9.8233    0.0000 O   0  0  0  0  0  0  0  0  0  0  0  0
    5.7430  -12.2983    0.0000 O   0  0  0  0  0  0  0  0  0  0  0  0
    2.8902   -8.9978    0.0000 C   0  0  0  0  0  0  0  0  0  0  0  0
    2.1758   -8.5852    0.0000 C   0  0  0  0  0  0  0  0  0  0  0  0
    1.4613   -8.9976    0.0000 C   0  0  0  0  0  0  0  0  0  0  0  0
    1.4611   -9.8226    0.0000 C   0  0  0  0  0  0  0  0  0  0  0  0
    2.1755  -10.2352    0.0000 C   0  0  0  0  0  0  0  0  0  0  0  0
    2.8901   -9.8228    0.0000 C   0  0  0  0  0  0  0  0  0  0  0  0
    0.7466  -10.2350    0.0000 O   0  0  0  0  0  0  0  0  0  0  0  0
    0.7469   -8.5850    0.0000 O   0  0  0  0  0  0  0  0  0  0  0  0
    5.0338   -7.7607    0.0000 O   0  0  0  0  0  0  0  0  0  0  0  0
    3.6048   -8.5854    0.0000 C   0  0  0  0  0  0  0  0  0  0  0  0
    4.3192   -8.9981    0.0000 C   0  0  0  0  0  0  0  0  0  0  0  0
    5.0337   -8.5857    0.0000 C   0  0  0  0  0  0  0  0  0  0  0  0
    5.7481   -8.9983    0.0000 O   0  0  0  0  0  0  0  0  0  0  0  0
    6.7671   -6.6360    0.0000 O   0  0  0  0  0  0  0  0  0  0  0  0
    7.5921   -6.6360    0.0000 C   0  0  0  0  0  0  0  0  0  0  0  0
    7.1796   -5.9216    0.0000 O   0  0  0  0  0  0  0  0  0  0  0  0
    8.4171   -6.6360    0.0000 O   0  0  0  0  0  0  0  0  0  0  0  0
    5.9355   -6.6117    0.0000 C   0  0  0  0  0  0  0  0  0  0  0  0
    5.5295   -5.8936    0.0000 C   0  0  0  0  0  0  0  0  0  0  0  0
    4.7045   -5.8862    0.0000 C   0  0  0  0  0  0  0  0  0  0  0  0
    5.5166   -7.3225    0.0000 O   0  0  0  0  0  0  0  0  0  0  0  0
    4.2984   -5.1680    0.0000 C   0  0  0  0  0  0  0  0  0  0  0  0
    4.7173   -4.4573    0.0000 C   0  0  0  0  0  0  0  0  0  0  0  0
    4.3113   -3.7392    0.0000 C   0  0  0  0  0  0  0  0  0  0  0  0
    3.4863   -3.7317    0.0000 C   0  0  0  0  0  0  0  0  0  0  0  0
    3.0674   -4.4425    0.0000 C   0  0  0  0  0  0  0  0  0  0  0  0
    3.4735   -5.1606    0.0000 C   0  0  0  0  0  0  0  0  0  0  0  0
    3.0802   -3.0136    0.0000 O   0  0  0  0  0  0  0  0  0  0  0  0
    4.7302   -3.0284    0.0000 O   0  0  0  0  0  0  0  0  0  0  0  0
    9.3182   -8.5890    0.0000 C   0  0  0  0  0  0  0  0  0  0  0  0
   10.0324   -9.0019    0.0000 C   0  0  0  0  0  0  0  0  0  0  0  0
   10.7471   -8.5899    0.0000 C   0  0  0  0  0  0  0  0  0  0  0  0
    9.3187   -7.7640    0.0000 O   0  0  0  0  0  0  0  0  0  0  0  0
   13.6050   -8.5918    0.0000 O   0  0  0  0  0  0  0  0  0  0  0  0
   13.6039  -10.2418    0.0000 O   0  0  0  0  0  0  0  0  0  0  0  0
   11.4608   -9.8279    0.0000 C   0  0  0  0  0  0  0  0  0  0  0  0
   12.1750  -10.2409    0.0000 C   0  0  0  0  0  0  0  0  0  0  0  0
   12.8897   -9.8288    0.0000 C   0  0  0  0  0  0  0  0  0  0  0  0
   12.8903   -9.0038    0.0000 C   0  0  0  0  0  0  0  0  0  0  0  0
   12.1761   -8.5909    0.0000 C   0  0  0  0  0  0  0  0  0  0  0  0
   11.4613   -9.0029    0.0000 C   0  0  0  0  0  0  0  0  0  0  0  0
    8.6060   -9.0027    0.0000 O   0  0  0  0  0  0  0  0  0  0  0  0
    5.0304  -11.0597    0.0000 O   0  0  0  0  0  0  0  0  0  0  0  0
 42 54  1  0  0  0  0
 25 24  1  0  0  0  0
 22 13  1  0  0  0  0
 24 21  2  0  0  0  0
 23 22  2  0  0  0  0
 24 23  1  0  0  0  0
  1  2  1  0  0  0  0
  2  3  1  0  0  0  0
  3  4  1  0  0  0  0
  4  5  1  0  0  0  0
  5  6  1  0  0  0  0
  1  6  1  0  0  0  0
  5 54  1  1  0  0  0
  8  9  1  0  0  0  0
  9 10  1  0  0  0  0
  8 11  2  0  0  0  0
 10 12  1  0  0  0  0
  7  8  1  0  0  0  0
  4  7  1  1  0  0  0
 13 14  1  0  0  0  0
 14 15  2  0  0  0  0
 15 16  1  0  0  0  0
 16 17  2  0  0  0  0
 17 18  1  0  0  0  0
 13 18  2  0  0  0  0
 16 19  1  0  0  0  0
 15 20  1  0  0  0  0
  3 25  1  6  0  0  0
  1 26  1  1  0  0  0
  1 27  1  0  0  0  0
 27 28  2  0  0  0  0
 27 29  1  0  0  0  0
 30 31  1  0  0  0  0
 31 32  2  0  0  0  0
 30 33  2  0  0  0  0
 34 35  1  0  0  0  0
 35 36  2  0  0  0  0
 36 37  1  0  0  0  0
 37 38  2  0  0  0  0
 38 39  1  0  0  0  0
 34 39  2  0  0  0  0
 37 40  1  0  0  0  0
 36 41  1  0  0  0  0
 32 34  1  0  0  0  0
 30 26  1  0  0  0  0
 51 46  1  0  0  0  0
 50 47  1  0  0  0  0
 53 48  2  0  0  0  0
 49 48  1  0  0  0  0
 50 49  2  0  0  0  0
 51 50  1  0  0  0  0
 52 51  2  0  0  0  0
 53 52  1  0  0  0  0
 42 43  1  0  0  0  0
 43 44  2  0  0  0  0
 42 45  2  0  0  0  0
 44 53  1  0  0  0  0
 10 55  2  0  0  0  0
M  END
>  <cdx:fragmentId>
37

$$$$
