92974.cdx
  Mrv1902 05222410202D          

 49 52  0  0  0  0            999 V2000
   13.6344  -10.7356    0.0000 C   0  0  0  0  0  0  0  0  0  0  0  0
   13.6344  -11.5604    0.0000 C   0  0  1  0  0  0  0  0  0  0  0  0
   14.3487  -11.9727    0.0000 C   0  0  0  0  0  0  0  0  0  0  0  0
   15.0629  -11.5604    0.0000 C   0  0  1  0  0  0  0  0  0  0  0  0
   15.0629  -10.7356    0.0000 C   0  0  2  0  0  0  0  0  0  0  0  0
   14.3487  -10.3233    0.0000 C   0  0  0  0  0  0  0  0  0  0  0  0
   15.7772  -11.9727    0.0000 C   0  0  0  0  0  0  0  0  0  0  0  0
   16.4914  -11.5604    0.0000 C   0  0  0  0  0  0  0  0  0  0  0  0
   16.4914  -10.7356    0.0000 C   0  0  0  0  0  0  0  0  0  0  0  0
   15.7772  -10.3233    0.0000 C   0  0  2  0  0  0  0  0  0  0  0  0
   17.2057  -10.3233    0.0000 C   0  0  1  0  0  0  0  0  0  0  0  0
   17.2057   -9.4985    0.0000 C   0  0  2  0  0  0  0  0  0  0  0  0
   16.4914   -9.0861    0.0000 C   0  0  0  0  0  0  0  0  0  0  0  0
   15.7772   -9.4985    0.0000 C   0  0  0  0  0  0  0  0  0  0  0  0
   17.9901  -10.5781    0.0000 C   0  0  0  0  0  0  0  0  0  0  0  0
   18.4748   -9.9109    0.0000 C   0  0  0  0  0  0  0  0  0  0  0  0
   17.9901   -9.2437    0.0000 C   0  0  2  0  0  0  0  0  0  0  0  0
   12.9112  -11.9865    0.0000 O   0  0  0  0  0  0  0  0  0  0  0  0
   12.1970  -11.5741    0.0000 C   0  0  0  0  0  0  0  0  0  0  0  0
   11.4827  -11.9865    0.0000 C   0  0  0  0  0  0  0  0  0  0  0  0
   10.7685  -11.5741    0.0000 C   0  0  0  0  0  0  0  0  0  0  0  0
   10.0542  -11.9865    0.0000 C   0  0  0  0  0  0  0  0  0  0  0  0
    9.3400  -11.5741    0.0000 C   0  0  0  0  0  0  0  0  0  0  0  0
    8.6257  -11.9865    0.0000 C   0  0  0  0  0  0  0  0  0  0  0  0
    7.9115  -11.5741    0.0000 C   0  0  0  0  0  0  0  0  0  0  0  0
    7.1972  -11.9865    0.0000 C   0  0  0  0  0  0  0  0  0  0  0  0
    6.4830  -11.5741    0.0000 C   0  0  0  0  0  0  0  0  0  0  0  0
    5.7688  -11.9865    0.0000 C   0  0  0  0  0  0  0  0  0  0  0  0
    5.0545  -11.5741    0.0000 C   0  0  0  0  0  0  0  0  0  0  0  0
    4.3403  -11.9865    0.0000 C   0  0  0  0  0  0  0  0  0  0  0  0
    3.6260  -11.5741    0.0000 C   0  0  0  0  0  0  0  0  0  0  0  0
    2.9118  -11.9865    0.0000 C   0  0  0  0  0  0  0  0  0  0  0  0
    2.1975  -11.5741    0.0000 C   0  0  0  0  0  0  0  0  0  0  0  0
   18.2449   -8.4593    0.0000 C   0  0  2  0  0  0  0  0  0  0  0  0
   17.6931   -7.8464    0.0000 C   0  0  0  0  0  0  0  0  0  0  0  0
   19.0516   -8.2878    0.0000 C   0  0  0  0  0  0  0  0  0  0  0  0
   19.2651   -7.4912    0.0000 C   0  0  0  0  0  0  0  0  0  0  0  0
   20.0617   -7.2777    0.0000 C   0  0  1  0  0  0  0  0  0  0  0  0
   20.2752   -6.4811    0.0000 C   0  0  0  0  0  0  0  0  0  0  0  0
   21.0718   -6.2676    0.0000 C   0  0  0  0  0  0  0  0  0  0  0  0
   19.6920   -5.8979    0.0000 C   0  0  0  0  0  0  0  0  0  0  0  0
   20.6449   -7.8609    0.0000 C   0  0  0  0  0  0  0  0  0  0  0  0
   17.2057   -8.6735    0.0000 C   0  0  0  0  0  0  0  0  0  0  0  0
   15.0629   -9.9109    0.0000 C   0  0  0  0  0  0  0  0  0  0  0  0
   15.0629  -12.3851    0.0000 H   0  0  0  0  0  0  0  0  0  0  0  0
   15.7772  -11.1483    0.0000 H   0  0  0  0  0  0  0  0  0  0  0  0
   17.2057  -11.1483    0.0000 H   0  0  0  0  0  0  0  0  0  0  0  0
   18.8046   -9.1146    0.0000 H   0  0  0  0  0  0  0  0  0  0  0  0
   12.1970  -10.7494    0.0000 O   0  0  0  0  0  0  0  0  0  0  0  0
  1  2  1  0  0  0  0
  2  3  1  0  0  0  0
  3  4  1  0  0  0  0
  4  5  1  0  0  0  0
  5  6  1  0  0  0  0
  6  1  1  0  0  0  0
  4  7  1  0  0  0  0
  7  8  1  0  0  0  0
  8  9  2  0  0  0  0
  9 10  1  0  0  0  0
 10  5  1  0  0  0  0
  9 11  1  0  0  0  0
 11 12  1  0  0  0  0
 12 13  1  0  0  0  0
 13 14  1  0  0  0  0
 14 10  1  0  0  0  0
 11 15  1  0  0  0  0
 15 16  1  0  0  0  0
 16 17  1  0  0  0  0
 17 12  1  0  0  0  0
 19 18  1  0  0  0  0
 20 19  1  0  0  0  0
 21 20  1  0  0  0  0
 22 21  1  0  0  0  0
 23 22  1  0  0  0  0
 24 23  1  0  0  0  0
 25 24  1  0  0  0  0
 26 25  1  0  0  0  0
 27 26  1  0  0  0  0
 28 27  1  0  0  0  0
 29 28  1  0  0  0  0
 30 29  1  0  0  0  0
 31 30  1  0  0  0  0
 32 31  1  0  0  0  0
 33 32  1  0  0  0  0
 17 34  1  0  0  0  0
 34 35  1  6  0  0  0
 34 36  1  0  0  0  0
 36 37  2  0  0  0  0
 37 38  1  0  0  0  0
 38 39  1  0  0  0  0
 39 40  1  0  0  0  0
 39 41  1  0  0  0  0
 38 42  1  1  0  0  0
 12 43  1  1  0  0  0
  5 44  1  1  0  0  0
  4 45  1  6  0  0  0
 10 46  1  6  0  0  0
 11 47  1  6  0  0  0
 17 48  1  6  0  0  0
 19 49  2  0  0  0  0
  2 18  1  1  0  0  0
M  END
>  <cdx:fragmentId>
5

$$$$
