92973.cdx
  Mrv1902 05222410192D          

 16 16  0  0  0  0            999 V2000
    5.8006   -7.4663    0.0000 C   0  0  0  0  0  0  0  0  0  0  0  0
    5.8006   -8.2912    0.0000 C   0  0  0  0  0  0  0  0  0  0  0  0
    6.5150   -8.7037    0.0000 C   0  0  1  0  0  0  0  0  0  0  0  0
    7.2295   -8.2912    0.0000 C   0  0  0  0  0  0  0  0  0  0  0  0
    7.2295   -7.4663    0.0000 C   0  0  1  0  0  0  0  0  0  0  0  0
    6.5150   -7.0537    0.0000 C   0  0  2  0  0  0  0  0  0  0  0  0
    6.5150   -9.5287    0.0000 O   0  0  0  0  0  0  0  0  0  0  0  0
    7.9440   -7.0537    0.0000 C   0  0  0  0  0  0  0  0  0  0  0  0
    4.9756   -7.4663    0.0000 C   0  0  0  0  0  0  0  0  0  0  0  0
    5.3881   -6.7518    0.0000 C   0  0  0  0  0  0  0  0  0  0  0  0
    6.9275   -6.3393    0.0000 C   0  0  0  0  0  0  0  0  0  0  0  0
    6.5150   -5.6248    0.0000 C   0  0  0  0  0  0  0  0  0  0  0  0
    6.9275   -4.9103    0.0000 C   0  0  0  0  0  0  0  0  0  0  0  0
    6.5150   -4.1959    0.0000 C   0  0  0  0  0  0  0  0  0  0  0  0
    7.7525   -4.9103    0.0000 O   0  0  0  0  0  0  0  0  0  0  0  0
    6.1025   -6.3393    0.0000 O   0  0  0  0  0  0  0  0  0  0  0  0
  1  2  1  0  0  0  0
  2  3  1  0  0  0  0
  3  4  1  0  0  0  0
  4  5  1  0  0  0  0
  5  6  1  0  0  0  0
  6  1  1  0  0  0  0
  3  7  1  1  0  0  0
  5  8  1  1  0  0  0
  1  9  1  0  0  0  0
  1 10  1  0  0  0  0
  6 11  1  0  0  0  0
 11 12  2  0  0  0  0
 12 13  1  0  0  0  0
 13 14  1  0  0  0  0
 13 15  2  0  0  0  0
  6 16  1  6  0  0  0
M  END
>  <cdx:fragmentId>
5

$$$$
