92984.cdx
  Mrv1902 05222410272D          

  9  8  0  0  0  0            999 V2000
    5.6059   -4.6403    0.0000 C   0  0  0  0  0  0  0  0  0  0  0  0
    6.3175   -4.2228    0.0000 C   0  0  0  0  0  0  0  0  0  0  0  0
    7.0348   -4.6304    0.0000 C   0  0  0  0  0  0  0  0  0  0  0  0
    7.7464   -4.2130    0.0000 C   0  0  0  0  0  0  0  0  0  0  0  0
    8.4637   -4.6205    0.0000 C   0  0  0  0  0  0  0  0  0  0  0  0
    9.1753   -4.2031    0.0000 C   0  0  0  0  0  0  0  0  0  0  0  0
    9.1810   -5.0281    0.0000 C   0  0  0  0  0  0  0  0  0  0  0  0
    8.4694   -5.4455    0.0000 C   0  0  0  0  0  0  0  0  0  0  0  0
    7.0405   -5.4554    0.0000 C   0  0  0  0  0  0  0  0  0  0  0  0
  1  2  2  0  0  0  0
  2  3  1  0  0  0  0
  3  4  1  0  0  0  0
  4  5  1  0  0  0  0
  5  6  1  0  0  0  0
  5  7  1  0  0  0  0
  5  8  1  0  0  0  0
  3  9  1  0  0  0  0
M  END
>  <cdx:fragmentId>
5

$$$$
