929868.cdx
  Mrv1902 05222410272D          

 32 35  0  0  0  0            999 V2000
    9.0544  -12.4157    0.0000 C   0  0  0  0  0  0  0  0  0  0  0  0
    9.7689  -12.8282    0.0000 C   0  0  0  0  0  0  0  0  0  0  0  0
    9.7689  -13.6532    0.0000 C   0  0  0  0  0  0  0  0  0  0  0  0
    9.0544  -14.0657    0.0000 C   0  0  0  0  0  0  0  0  0  0  0  0
    8.3400  -13.6532    0.0000 C   0  0  0  0  0  0  0  0  0  0  0  0
    7.6255  -14.0657    0.0000 C   0  0  1  0  0  0  0  0  0  0  0  0
    6.9110  -13.6532    0.0000 C   0  0  0  0  0  0  0  0  0  0  0  0
    6.1965  -14.0657    0.0000 C   0  0  0  0  0  0  0  0  0  0  0  0
    5.4821  -13.6532    0.0000 C   0  0  0  0  0  0  0  0  0  0  0  0
    5.4821  -12.8282    0.0000 C   0  0  0  0  0  0  0  0  0  0  0  0
    6.1965  -12.4157    0.0000 C   0  0  0  0  0  0  0  0  0  0  0  0
    6.9110  -12.8282    0.0000 C   0  0  0  0  0  0  0  0  0  0  0  0
    7.6255  -12.4157    0.0000 C   0  0  0  0  0  0  0  0  0  0  0  0
    8.3400  -12.8282    0.0000 C   0  0  0  0  0  0  0  0  0  0  0  0
    7.6255  -11.5907    0.0000 O   0  0  0  0  0  0  0  0  0  0  0  0
    6.9110  -15.3032    0.0000 O   0  0  0  0  0  0  0  0  0  0  0  0
    7.6255  -14.8907    0.0000 C   0  0  2  0  0  0  0  0  0  0  0  0
    8.3400  -15.3032    0.0000 C   0  0  1  0  0  0  0  0  0  0  0  0
    8.3400  -16.1282    0.0000 C   0  0  2  0  0  0  0  0  0  0  0  0
    7.6255  -16.5407    0.0000 C   0  0  1  0  0  0  0  0  0  0  0  0
    6.9110  -16.1282    0.0000 C   0  0  1  0  0  0  0  0  0  0  0  0
    6.1965  -16.5407    0.0000 C   0  0  0  0  0  0  0  0  0  0  0  0
    6.1965  -17.3657    0.0000 O   0  0  0  0  0  0  0  0  0  0  0  0
    7.6255  -17.3657    0.0000 O   0  0  0  0  0  0  0  0  0  0  0  0
    9.0544  -16.5407    0.0000 O   0  0  0  0  0  0  0  0  0  0  0  0
    9.0544  -14.8907    0.0000 O   0  0  0  0  0  0  0  0  0  0  0  0
    4.7676  -14.0657    0.0000 O   0  0  0  0  0  0  0  0  0  0  0  0
    8.3400  -14.4782    0.0000 O   0  0  0  0  0  0  0  0  0  0  0  0
    6.1965  -11.5907    0.0000 O   0  0  0  0  0  0  0  0  0  0  0  0
   10.4834  -14.0657    0.0000 C   0  0  0  0  0  0  0  0  0  0  0  0
    9.0544  -11.5907    0.0000 O   0  0  0  0  0  0  0  0  0  0  0  0
    6.9110  -14.4782    0.0000 H   0  0  0  0  0  0  0  0  0  0  0  0
  1  2  1  0  0  0  0
  2  3  2  0  0  0  0
  3  4  1  0  0  0  0
  4  5  2  0  0  0  0
  5  6  1  0  0  0  0
  6  7  1  0  0  0  0
  7  8  1  0  0  0  0
  8  9  2  0  0  0  0
  9 10  1  0  0  0  0
 10 11  2  0  0  0  0
 11 12  1  0  0  0  0
  7 12  2  0  0  0  0
 12 13  1  0  0  0  0
 13 14  1  0  0  0  0
  5 14  1  0  0  0  0
  1 14  2  0  0  0  0
 13 15  2  0  0  0  0
 17 16  1  0  0  0  0
 17 18  1  0  0  0  0
 18 19  1  0  0  0  0
 19 20  1  0  0  0  0
 20 21  1  0  0  0  0
 16 21  1  0  0  0  0
 22 23  1  0  0  0  0
 21 22  1  1  0  0  0
 20 24  1  6  0  0  0
 19 25  1  1  0  0  0
 18 26  1  6  0  0  0
  6 17  1  0  0  0  0
  9 27  1  0  0  0  0
  6 28  1  1  0  0  0
 11 29  1  0  0  0  0
  3 30  1  0  0  0  0
  1 31  1  0  0  0  0
 17 32  1  6  0  0  0
M  END
>  <cdx:groupId>
212936

>  <cdx:fragmentId>
212840

$$$$
