92981.cdx
  Mrv1902 05222410272D          

 14 16  0  0  0  0            999 V2000
    6.2831   -5.6301    0.0000 C   0  0  0  0  0  0  0  0  0  0  0  0
    6.0121   -6.4093    0.0000 C   0  0  0  0  0  0  0  0  0  0  0  0
    6.6694   -6.9078    0.0000 C   0  0  0  0  0  0  0  0  0  0  0  0
    7.3467   -6.4367    0.0000 C   0  0  0  0  0  0  0  0  0  0  0  0
    7.1079   -5.6470    0.0000 C   0  0  0  0  0  0  0  0  0  0  0  0
    6.6524   -7.7327    0.0000 C   0  0  0  0  0  0  0  0  0  0  0  0
    5.2976   -6.8218    0.0000 C   0  0  0  0  0  0  0  0  0  0  0  0
    8.1259   -6.7078    0.0000 C   0  0  0  0  0  0  0  0  0  0  0  0
    5.2976   -7.6468    0.0000 C   0  0  0  0  0  0  0  0  0  0  0  0
    7.4493   -7.9462    0.0000 C   0  0  0  0  0  0  0  0  0  0  0  0
    7.9419   -5.8655    0.0000 O   0  0  0  0  0  0  0  0  0  0  0  0
    8.7342   -6.0954    0.0000 C   0  0  0  0  0  0  0  0  0  0  0  0
    5.3763   -5.8835    0.0000 O   0  0  0  0  0  0  0  0  0  0  0  0
    4.6031   -6.1713    0.0000 C   0  0  0  0  0  0  0  0  0  0  0  0
  1  2  1  0  0  0  0
  2  3  1  0  0  0  0
  3  4  1  0  0  0  0
  4  5  1  0  0  0  0
  5  1  2  0  0  0  0
  3  6  1  0  0  0  0
  2  7  1  0  0  0  0
  4  8  1  0  0  0  0
  7  9  2  0  0  0  0
  9  6  1  0  0  0  0
  6 10  1  0  0  0  0
  8 10  2  0  0  0  0
  4 11  1  0  0  0  0
 11 12  1  0  0  0  0
  2 13  1  0  0  0  0
 13 14  1  0  0  0  0
M  END
>  <cdx:fragmentId>
5

$$$$
