92980.cdx
  Mrv1902 05222410272D          

 58 61  0  0  0  0            999 V2000
    6.4193   -8.9100    0.0000 C   0  0  0  0  0  0  0  0  0  0  0  0
    6.4193   -9.7350    0.0000 C   0  0  2  0  0  0  0  0  0  0  0  0
    7.1338  -10.1475    0.0000 C   0  0  1  0  0  0  0  0  0  0  0  0
    7.8482   -9.7350    0.0000 C   0  0  1  0  0  0  0  0  0  0  0  0
    7.8482   -8.9100    0.0000 C   0  0  0  0  0  0  0  0  0  0  0  0
    7.1338   -8.4975    0.0000 C   0  0  2  0  0  0  0  0  0  0  0  0
    6.7213   -7.7830    0.0000 O   0  0  0  0  0  0  0  0  0  0  0  0
    7.5463   -7.7830    0.0000 C   0  0  0  0  0  0  0  0  0  0  0  0
    7.1338   -7.0686    0.0000 O   0  0  0  0  0  0  0  0  0  0  0  0
    8.3713   -7.7830    0.0000 O   0  0  0  0  0  0  0  0  0  0  0  0
    8.5627  -10.1475    0.0000 O   0  0  0  0  0  0  0  0  0  0  0  0
    7.1338  -10.9725    0.0000 O   0  0  0  0  0  0  0  0  0  0  0  0
    5.7048  -10.1475    0.0000 O   0  0  0  0  0  0  0  0  0  0  0  0
    4.9904   -9.7350    0.0000 C   0  0  0  0  0  0  0  0  0  0  0  0
    4.2759  -10.1475    0.0000 C   0  0  0  0  0  0  0  0  0  0  0  0
    4.9904   -8.9100    0.0000 O   0  0  0  0  0  0  0  0  0  0  0  0
    3.5614   -9.7350    0.0000 C   0  0  0  0  0  0  0  0  0  0  0  0
    2.8469  -10.1475    0.0000 C   0  0  0  0  0  0  0  0  0  0  0  0
    2.1325   -9.7350    0.0000 C   0  0  0  0  0  0  0  0  0  0  0  0
    1.4180  -10.1475    0.0000 C   0  0  0  0  0  0  0  0  0  0  0  0
    1.4180  -10.9725    0.0000 C   0  0  0  0  0  0  0  0  0  0  0  0
    2.1325  -11.3850    0.0000 C   0  0  0  0  0  0  0  0  0  0  0  0
    2.8469  -10.9725    0.0000 C   0  0  0  0  0  0  0  0  0  0  0  0
    0.7035   -9.7350    0.0000 O   0  0  0  0  0  0  0  0  0  0  0  0
    0.7035  -11.3850    0.0000 O   0  0  0  0  0  0  0  0  0  0  0  0
    5.8963   -7.7830    0.0000 C   0  0  0  0  0  0  0  0  0  0  0  0
    5.4838   -7.0686    0.0000 C   0  0  0  0  0  0  0  0  0  0  0  0
    5.4838   -8.4975    0.0000 O   0  0  0  0  0  0  0  0  0  0  0  0
    4.6588   -7.0686    0.0000 C   0  0  0  0  0  0  0  0  0  0  0  0
    4.2463   -6.3541    0.0000 C   0  0  0  0  0  0  0  0  0  0  0  0
    4.6588   -5.6396    0.0000 C   0  0  0  0  0  0  0  0  0  0  0  0
    4.2463   -4.9251    0.0000 C   0  0  0  0  0  0  0  0  0  0  0  0
    3.4213   -4.9251    0.0000 C   0  0  0  0  0  0  0  0  0  0  0  0
    3.0088   -5.6396    0.0000 C   0  0  0  0  0  0  0  0  0  0  0  0
    3.4213   -6.3541    0.0000 C   0  0  0  0  0  0  0  0  0  0  0  0
    3.0088   -4.2107    0.0000 O   0  0  0  0  0  0  0  0  0  0  0  0
    4.6588   -4.2107    0.0000 O   0  0  0  0  0  0  0  0  0  0  0  0
    9.3877  -10.1480    0.0000 C   0  0  0  0  0  0  0  0  0  0  0  0
    9.7998  -10.8628    0.0000 C   0  0  0  0  0  0  0  0  0  0  0  0
    9.8007   -9.4338    0.0000 O   0  0  0  0  0  0  0  0  0  0  0  0
   10.6248  -10.8633    0.0000 C   0  0  0  0  0  0  0  0  0  0  0  0
   11.0368  -11.5780    0.0000 C   0  0  0  0  0  0  0  0  0  0  0  0
   11.7397   -9.7311    0.0000 C   0  0  0  0  0  0  0  0  0  0  0  0
   11.8618  -11.5785    0.0000 O   0  0  0  0  0  0  0  0  0  0  0  0
   10.6239  -12.2922    0.0000 O   0  0  0  0  0  0  0  0  0  0  0  0
   12.2739  -12.2933    0.0000 C   0  0  0  0  0  0  0  0  0  0  0  0
   12.4511  -10.1490    0.0000 O   0  0  0  0  0  0  0  0  0  0  0  0
   11.7460   -8.9061    0.0000 C   0  0  0  0  0  0  0  0  0  0  0  0
   12.4636   -8.4991    0.0000 C   0  0  0  0  0  0  0  0  0  0  0  0
   12.4698   -7.6741    0.0000 C   0  0  0  0  0  0  0  0  0  0  0  0
   13.1876   -7.2675    0.0000 C   0  0  0  0  0  0  0  0  0  0  0  0
   13.1929   -6.4416    0.0000 C   0  0  0  0  0  0  0  0  0  0  0  0
   12.4813   -6.0241    0.0000 C   0  0  0  0  0  0  0  0  0  0  0  0
   11.7629   -6.4316    0.0000 C   0  0  0  0  0  0  0  0  0  0  0  0
   11.7582   -7.2566    0.0000 C   0  0  0  0  0  0  0  0  0  0  0  0
   12.4872   -5.1991    0.0000 O   0  0  0  0  0  0  0  0  0  0  0  0
   13.9100   -6.0338    0.0000 O   0  0  0  0  0  0  0  0  0  0  0  0
   11.0377  -10.1491    0.0000 O   0  0  0  0  0  0  0  0  0  0  0  0
  1  2  1  0  0  0  0
  2  3  1  0  0  0  0
  3  4  1  0  0  0  0
  4  5  1  0  0  0  0
  5  6  1  0  0  0  0
  6  1  1  0  0  0  0
  6  7  1  1  0  0  0
  6  8  1  0  0  0  0
  8  9  2  0  0  0  0
  8 10  1  0  0  0  0
  4 11  1  1  0  0  0
  3 12  1  1  0  0  0
  2 13  1  6  0  0  0
 13 14  1  0  0  0  0
 14 15  1  0  0  0  0
 14 16  2  0  0  0  0
 15 17  2  0  0  0  0
 17 18  1  0  0  0  0
 18 19  2  0  0  0  0
 19 20  1  0  0  0  0
 20 21  2  0  0  0  0
 21 22  1  0  0  0  0
 22 23  2  0  0  0  0
 23 18  1  0  0  0  0
 20 24  1  0  0  0  0
 21 25  1  0  0  0  0
  7 26  1  0  0  0  0
 26 27  1  0  0  0  0
 26 28  2  0  0  0  0
 27 29  2  0  0  0  0
 29 30  1  0  0  0  0
 30 31  2  0  0  0  0
 31 32  1  0  0  0  0
 32 33  2  0  0  0  0
 33 34  1  0  0  0  0
 34 35  2  0  0  0  0
 35 30  1  0  0  0  0
 33 36  1  0  0  0  0
 32 37  1  0  0  0  0
 11 38  1  0  0  0  0
 38 39  1  0  0  0  0
 38 40  2  0  0  0  0
 39 41  1  0  0  0  0
 41 42  1  0  0  0  0
 42 44  1  0  0  0  0
 42 45  2  0  0  0  0
 44 46  1  0  0  0  0
 43 47  2  0  0  0  0
 43 48  1  0  0  0  0
 48 49  2  0  0  0  0
 49 50  1  0  0  0  0
 50 51  2  0  0  0  0
 51 52  1  0  0  0  0
 52 53  2  0  0  0  0
 53 54  1  0  0  0  0
 54 55  2  0  0  0  0
 55 50  1  0  0  0  0
 53 56  1  0  0  0  0
 52 57  1  0  0  0  0
 41 58  1  0  0  0  0
 43 58  1  0  0  0  0
M  END
>  <cdx:fragmentId>
5

$$$$
