92986.cdx
  Mrv1902 05222410262D          

 15 14  0  0  0  0            999 V2000
   12.0214   -6.2837    0.0000 Cl  0  0  0  0  0  0  0  0  0  0  0  0
   11.3069   -6.6962    0.0000 C   0  0  0  0  0  0  0  0  0  0  0  0
   10.5924   -6.2837    0.0000 C   0  0  0  0  0  0  0  0  0  0  0  0
    9.8780   -6.6962    0.0000 C   0  0  0  0  0  0  0  0  0  0  0  0
    9.1635   -6.2837    0.0000 C   0  0  0  0  0  0  0  0  0  0  0  0
    8.4490   -6.6962    0.0000 C   0  0  0  0  0  0  0  0  0  0  0  0
    7.7345   -6.2837    0.0000 C   0  0  0  0  0  0  0  0  0  0  0  0
    7.0201   -6.6962    0.0000 C   0  0  0  0  0  0  0  0  0  0  0  0
    6.3056   -6.2837    0.0000 C   0  0  0  0  0  0  0  0  0  0  0  0
    5.5911   -6.6962    0.0000 C   0  0  0  0  0  0  0  0  0  0  0  0
    4.8767   -6.2837    0.0000 C   0  0  0  0  0  0  0  0  0  0  0  0
    4.1622   -6.6962    0.0000 C   0  0  0  0  0  0  0  0  0  0  0  0
    3.4477   -6.2837    0.0000 C   0  0  0  0  0  0  0  0  0  0  0  0
    2.7332   -6.6962    0.0000 C   0  0  0  0  0  0  0  0  0  0  0  0
    2.0188   -6.2837    0.0000 C   0  0  0  0  0  0  0  0  0  0  0  0
  2  1  1  0  0  0  0
  3  2  1  0  0  0  0
  4  3  1  0  0  0  0
  5  4  1  0  0  0  0
  6  5  1  0  0  0  0
  7  6  1  0  0  0  0
  8  7  1  0  0  0  0
  9  8  1  0  0  0  0
 10  9  1  0  0  0  0
 11 10  1  0  0  0  0
 12 11  1  0  0  0  0
 13 12  1  0  0  0  0
 14 13  1  0  0  0  0
 15 14  1  0  0  0  0
M  END
>  <cdx:fragmentId>
3

$$$$
