92983.cdx
  Mrv1902 05222410282D          

 18 19  0  0  0  0            999 V2000
    5.4723   -4.6612    0.0000 C   0  0  0  0  0  0  0  0  0  0  0  0
    4.7578   -4.2488    0.0000 C   0  0  0  0  0  0  0  0  0  0  0  0
    4.7578   -3.4238    0.0000 C   0  0  0  0  0  0  0  0  0  0  0  0
    4.0433   -3.0112    0.0000 C   0  0  0  0  0  0  0  0  0  0  0  0
    4.0433   -2.1863    0.0000 C   0  0  0  0  0  0  0  0  0  0  0  0
    4.7578   -1.7737    0.0000 C   0  0  0  0  0  0  0  0  0  0  0  0
    5.4723   -2.1863    0.0000 C   0  0  0  0  0  0  0  0  0  0  0  0
    5.4723   -3.0112    0.0000 C   0  0  0  0  0  0  0  0  0  0  0  0
    6.1867   -5.0737    0.0000 N   0  0  0  0  0  0  0  0  0  0  0  0
    3.3288   -4.2488    0.0000 C   0  0  0  0  0  0  0  0  0  0  0  0
    2.6144   -4.6612    0.0000 C   0  0  0  0  0  0  0  0  0  0  0  0
    2.6144   -5.4863    0.0000 C   0  0  0  0  0  0  0  0  0  0  0  0
    1.8999   -5.8988    0.0000 C   0  0  0  0  0  0  0  0  0  0  0  0
    1.1854   -5.4863    0.0000 C   0  0  0  0  0  0  0  0  0  0  0  0
    1.1854   -4.6612    0.0000 C   0  0  0  0  0  0  0  0  0  0  0  0
    1.8999   -4.2487    0.0000 C   0  0  0  0  0  0  0  0  0  0  0  0
    3.3288   -3.4238    0.0000 O   0  0  0  0  0  0  0  0  0  0  0  0
    4.0433   -4.6612    0.0000 O   0  0  0  0  0  0  0  0  0  0  0  0
  1  2  1  0  0  0  0
  2  3  1  0  0  0  0
  3  4  1  0  0  0  0
  4  5  2  0  0  0  0
  5  6  1  0  0  0  0
  6  7  2  0  0  0  0
  7  8  1  0  0  0  0
  3  8  2  0  0  0  0
  1  9  3  0  0  0  0
 10 11  1  0  0  0  0
 11 12  1  0  0  0  0
 12 13  2  0  0  0  0
 13 14  1  0  0  0  0
 14 15  2  0  0  0  0
 15 16  1  0  0  0  0
 11 16  2  0  0  0  0
 10 17  2  0  0  0  0
 10 18  1  0  0  0  0
  2 18  1  0  0  0  0
M  END
>  <cdx:groupId>
57

>  <cdx:fragmentId>
23

$$$$
