92982.cdx
  Mrv1902 05222410282D          

 21 22  0  0  0  0            999 V2000
    5.4843   -8.1675    0.0000 C   0  0  2  0  0  0  0  0  0  0  0  0
    5.4843   -8.9925    0.0000 C   0  0  2  0  0  0  0  0  0  0  0  0
    6.1988   -9.4050    0.0000 C   0  0  1  0  0  0  0  0  0  0  0  0
    6.9132   -8.9925    0.0000 C   0  0  2  0  0  0  0  0  0  0  0  0
    6.9132   -8.1675    0.0000 C   0  0  1  0  0  0  0  0  0  0  0  0
    6.1988   -7.7550    0.0000 O   0  0  0  0  0  0  0  0  0  0  0  0
    7.6277   -7.7550    0.0000 O   0  0  0  0  0  0  0  0  0  0  0  0
    7.6277   -6.9300    0.0000 C   0  0  0  0  0  0  0  0  0  0  0  0
    6.9132   -6.5175    0.0000 O   0  0  0  0  0  0  0  0  0  0  0  0
    8.3422   -6.5175    0.0000 C   0  0  0  0  0  0  0  0  0  0  0  0
    8.3422   -5.6925    0.0000 C   0  0  0  0  0  0  0  0  0  0  0  0
    9.0567   -6.9300    0.0000 C   0  0  0  0  0  0  0  0  0  0  0  0
    9.7711   -6.5175    0.0000 C   0  0  0  0  0  0  0  0  0  0  0  0
    9.7711   -5.6925    0.0000 C   0  0  0  0  0  0  0  0  0  0  0  0
    9.0567   -5.2800    0.0000 C   0  0  0  0  0  0  0  0  0  0  0  0
   10.4856   -5.2800    0.0000 O   0  0  0  0  0  0  0  0  0  0  0  0
    4.7698   -7.7550    0.0000 C   0  0  0  0  0  0  0  0  0  0  0  0
    4.0554   -8.1675    0.0000 O   0  0  0  0  0  0  0  0  0  0  0  0
    6.1988  -10.2300    0.0000 O   0  0  0  0  0  0  0  0  0  0  0  0
    4.7698   -9.4050    0.0000 O   0  0  0  0  0  0  0  0  0  0  0  0
    7.6277   -9.4050    0.0000 O   0  0  0  0  0  0  0  0  0  0  0  0
  1  2  1  0  0  0  0
  2  3  1  0  0  0  0
  3  4  1  0  0  0  0
  4  5  1  0  0  0  0
  5  6  1  0  0  0  0
  6  1  1  0  0  0  0
  5  7  1  1  0  0  0
  7  8  1  0  0  0  0
  8  9  2  0  0  0  0
  8 10  1  0  0  0  0
 10 11  2  0  0  0  0
 10 12  1  0  0  0  0
 12 13  2  0  0  0  0
 13 14  1  0  0  0  0
 14 15  2  0  0  0  0
 15 11  1  0  0  0  0
 14 16  1  0  0  0  0
  1 17  1  1  0  0  0
 17 18  1  0  0  0  0
  3 19  1  1  0  0  0
  2 20  1  6  0  0  0
  4 21  1  6  0  0  0
M  END
>  <cdx:fragmentId>
5

$$$$
