92991.cdx
  Mrv1902 05222410272D          

  8  8  0  0  0  0            999 V2000
    6.6837   -5.2922    0.0000 C   0  0  0  0  0  0  0  0  0  0  0  0
    7.3458   -4.8000    0.0000 C   0  0  0  0  0  0  0  0  0  0  0  0
    8.0185   -5.2776    0.0000 C   0  0  0  0  0  0  0  0  0  0  0  0
    7.7722   -6.0649    0.0000 C   0  0  0  0  0  0  0  0  0  0  0  0
    6.9472   -6.0740    0.0000 C   0  0  0  0  0  0  0  0  0  0  0  0
    5.8964   -5.0458    0.0000 O   0  0  0  0  0  0  0  0  0  0  0  0
    7.3368   -3.9750    0.0000 C   0  0  0  0  0  0  0  0  0  0  0  0
    8.0382   -3.5406    0.0000 C   0  0  0  0  0  0  0  0  0  0  0  0
  1  2  1  0  0  0  0
  2  3  1  0  0  0  0
  3  4  1  0  0  0  0
  4  5  1  0  0  0  0
  1  5  1  0  0  0  0
  1  6  2  0  0  0  0
  7  8  1  0  0  0  0
  2  7  1  0  0  0  0
M  END
>  <cdx:fragmentId>
5

$$$$
