92997.cdx
  Mrv1902 05222410282D          

 12 13  0  0  0  0            999 V2000
    7.9934   -7.4004    0.0000 C   0  0  0  0  0  0  0  0  0  0  0  0
    7.3627   -6.7781    0.0000 C   0  0  0  0  0  0  0  0  0  0  0  0
    6.1585   -7.6214    0.0000 C   0  0  0  0  0  0  0  0  0  0  0  0
    5.5634   -7.3240    0.0000 C   0  0  0  0  0  0  0  0  0  0  0  0
    5.9751   -6.6980    0.0000 C   0  0  0  0  0  0  0  0  0  0  0  0
    6.8859   -7.2660    0.0000 C   0  0  0  0  0  0  0  0  0  0  0  0
    6.8919   -5.8939    0.0000 C   0  0  0  0  0  0  0  0  0  0  0  0
    4.7667   -7.5384    0.0000 O   0  0  0  0  0  0  0  0  0  0  0  0
    6.1549   -8.4464    0.0000 C   0  0  0  0  0  0  0  0  0  0  0  0
    7.0229   -8.0796    0.0000 H   0  0  0  0  0  0  0  0  0  0  0  0
    8.7903   -7.1869    0.0000 C   0  0  0  0  0  0  0  0  0  0  0  0
    8.2070   -8.1973    0.0000 C   0  0  0  0  0  0  0  0  0  0  0  0
  6  1  1  0  0  0  0
  1  2  1  0  0  0  0
  2  7  1  0  0  0  0
  6  3  1  0  0  0  0
  3  4  1  0  0  0  0
  4  5  1  0  0  0  0
  2  5  1  0  0  0  0
  6  7  1  0  0  0  0
  4  8  2  0  0  0  0
  3  9  1  0  0  0  0
  6 10  1  0  0  0  0
  1 11  1  0  0  0  0
  1 12  1  0  0  0  0
M  END
>  <cdx:groupId>
813

>  <cdx:fragmentId>
814

$$$$
