92996.cdx
  Mrv1902 05222410282D          

 24 25  0  0  0  0            999 V2000
    5.3712   -8.3093    0.0000 O   0  0  0  0  0  0  0  0  0  0  0  0
    5.4001   -5.0094    0.0000 O   0  0  0  0  0  0  0  0  0  0  0  0
    6.8289   -5.0219    0.0000 O   0  0  0  0  0  0  0  0  0  0  0  0
    6.8001   -8.3218    0.0000 O   0  0  0  0  0  0  0  0  0  0  0  0
    6.1037   -6.2531    0.0000 C   0  0  0  0  0  0  0  0  0  0  0  0
    5.3928   -5.8344    0.0000 C   0  0  0  0  0  0  0  0  0  0  0  0
    4.6748   -6.2406    0.0000 C   0  0  0  0  0  0  0  0  0  0  0  0
    4.6676   -7.0656    0.0000 C   0  0  0  0  0  0  0  0  0  0  0  0
    5.3784   -7.4843    0.0000 C   0  0  0  0  0  0  0  0  0  0  0  0
    6.0964   -7.0781    0.0000 C   0  0  0  0  0  0  0  0  0  0  0  0
    6.8073   -7.4968    0.0000 C   0  0  0  0  0  0  0  0  0  0  0  0
    7.5253   -7.0906    0.0000 C   0  0  0  0  0  0  0  0  0  0  0  0
    7.5326   -6.2656    0.0000 C   0  0  0  0  0  0  0  0  0  0  0  0
    6.8217   -5.8469    0.0000 C   0  0  0  0  0  0  0  0  0  0  0  0
   10.3831   -7.1156    0.0000 C   0  0  0  0  0  0  0  0  0  0  0  0
   11.1084   -5.8844    0.0000 C   0  0  0  0  0  0  0  0  0  0  0  0
   10.3903   -6.2906    0.0000 C   0  0  0  0  0  0  0  0  0  0  0  0
    9.6795   -5.8719    0.0000 C   0  0  0  0  0  0  0  0  0  0  0  0
    8.9614   -6.2781    0.0000 C   0  0  0  0  0  0  0  0  0  0  0  0
    8.2506   -5.8594    0.0000 C   0  0  2  0  0  0  0  0  0  0  0  0
    8.2578   -5.0344    0.0000 O   0  0  0  0  0  0  0  0  0  0  0  0
    9.6867   -5.0469    0.0000 C   0  0  0  0  0  0  0  0  0  0  0  0
    8.9831   -3.8032    0.0000 O   0  0  0  0  0  0  0  0  0  0  0  0
    8.9759   -4.6282    0.0000 C   0  0  0  0  0  0  0  0  0  0  0  0
 20 21  1  1  0  0  0
 20 13  1  0  0  0  0
  9  1  1  0  0  0  0
  6  2  1  0  0  0  0
 14  3  2  0  0  0  0
 11  4  2  0  0  0  0
 10  5  2  0  0  0  0
 14  5  1  0  0  0  0
  6  5  1  0  0  0  0
  7  6  2  0  0  0  0
  8  7  1  0  0  0  0
  9  8  2  0  0  0  0
 10  9  1  0  0  0  0
 11 10  1  0  0  0  0
 12 11  1  0  0  0  0
 13 12  2  0  0  0  0
 14 13  1  0  0  0  0
 17 15  1  0  0  0  0
 17 16  1  0  0  0  0
 18 17  2  0  0  0  0
 19 18  1  0  0  0  0
 20 19  1  0  0  0  0
 24 21  1  0  0  0  0
 24 22  1  0  0  0  0
 24 23  2  0  0  0  0
M  END
>  <cdx:fragmentId>
57384

$$$$
