92993.cdx
  Mrv1902 05222410262D          

  8  8  0  0  0  0            999 V2000
    5.9518   -7.9337    0.0000 C   0  0  0  0  0  0  0  0  0  0  0  0
    5.9518   -8.7588    0.0000 C   0  0  0  0  0  0  0  0  0  0  0  0
    6.6663   -9.1713    0.0000 C   0  0  0  0  0  0  0  0  0  0  0  0
    7.3807   -8.7588    0.0000 C   0  0  0  0  0  0  0  0  0  0  0  0
    7.3807   -7.9337    0.0000 C   0  0  0  0  0  0  0  0  0  0  0  0
    6.6663   -7.5213    0.0000 C   0  0  0  0  0  0  0  0  0  0  0  0
    6.6663   -6.6962    0.0000 C   0  0  0  0  0  0  0  0  0  0  0  0
    7.3807   -6.2837    0.0000 O   0  0  0  0  0  0  0  0  0  0  0  0
  1  2  1  0  0  0  0
  2  3  1  0  0  0  0
  3  4  2  0  0  0  0
  4  5  2  0  0  0  0
  5  6  1  0  0  0  0
  6  1  1  0  0  0  0
  6  7  1  0  0  0  0
  7  8  1  0  0  0  0
M  END
>  <cdx:fragmentId>
5

$$$$
