92998.cdx
  Mrv1902 05222410192D          

 12 13  0  0  0  0            999 V2000
    8.0368   -4.8583    0.0000 C   0  0  0  0  0  0  0  0  0  0  0  0
    7.3223   -4.4458    0.0000 C   0  0  0  0  0  0  0  0  0  0  0  0
    6.6078   -4.8583    0.0000 C   0  0  0  0  0  0  0  0  0  0  0  0
    6.6078   -5.6833    0.0000 C   0  0  0  0  0  0  0  0  0  0  0  0
    7.3223   -6.0958    0.0000 C   0  0  0  0  0  0  0  0  0  0  0  0
    8.0368   -5.6833    0.0000 C   0  0  0  0  0  0  0  0  0  0  0  0
    8.7512   -5.2708    0.0000 O   0  0  0  0  0  0  0  0  0  0  0  0
    7.3223   -3.6208    0.0000 O   0  0  0  0  0  0  0  0  0  0  0  0
    5.8934   -4.4458    0.0000 C   0  0  0  0  0  0  0  0  0  0  0  0
    5.8934   -3.6208    0.0000 C   0  0  0  0  0  0  0  0  0  0  0  0
    5.1789   -4.8583    0.0000 C   0  0  0  0  0  0  0  0  0  0  0  0
    8.4493   -6.3977    0.0000 C   0  0  0  0  0  0  0  0  0  0  0  0
  1  2  1  0  0  0  0
  2  3  1  0  0  0  0
  3  4  1  0  0  0  0
  4  5  1  0  0  0  0
  5  6  1  0  0  0  0
  6  7  1  0  0  0  0
  1  7  1  0  0  0  0
  1  6  1  0  0  0  0
  2  8  2  0  0  0  0
  9 10  1  0  0  0  0
  9 11  1  0  0  0  0
  3  9  1  0  0  0  0
  6 12  1  0  0  0  0
M  END
>  <cdx:fragmentId>
5

$$$$
