92990.cdx
  Mrv1902 05222410272D          

 34 36  0  0  0  0            999 V2000
    5.1109  -11.0962    0.0000 O   0  0  0  0  0  0  0  0  0  0  0  0
    5.8254  -10.6837    0.0000 C   0  0  0  0  0  0  0  0  0  0  0  0
    6.5399  -11.0962    0.0000 C   0  0  2  0  0  0  0  0  0  0  0  0
    6.5399  -11.9213    0.0000 C   0  0  2  0  0  0  0  0  0  0  0  0
    7.2544  -12.3338    0.0000 C   0  0  1  0  0  0  0  0  0  0  0  0
    7.9688  -11.9213    0.0000 C   0  0  2  0  0  0  0  0  0  0  0  0
    7.9688  -11.0962    0.0000 C   0  0  2  0  0  0  0  0  0  0  0  0
    7.2544  -10.6837    0.0000 O   0  0  0  0  0  0  0  0  0  0  0  0
    5.8254  -12.3337    0.0000 O   0  0  0  0  0  0  0  0  0  0  0  0
    7.2544  -13.1588    0.0000 O   0  0  0  0  0  0  0  0  0  0  0  0
    8.6833  -12.3338    0.0000 O   0  0  0  0  0  0  0  0  0  0  0  0
    8.6833  -10.6837    0.0000 O   0  0  0  0  0  0  0  0  0  0  0  0
    8.6833   -9.8588    0.0000 C   0  0  1  0  0  0  0  0  0  0  0  0
    9.3507   -9.3738    0.0000 C   0  0  2  0  0  0  0  0  0  0  0  0
    9.0958   -8.5892    0.0000 C   0  0  1  0  0  0  0  0  0  0  0  0
    8.2708   -8.5892    0.0000 C   0  0  2  0  0  0  0  0  0  0  0  0
    8.0159   -9.3738    0.0000 O   0  0  0  0  0  0  0  0  0  0  0  0
    7.7859   -7.9218    0.0000 C   0  0  0  0  0  0  0  0  0  0  0  0
    8.1214   -7.1681    0.0000 O   0  0  0  0  0  0  0  0  0  0  0  0
    9.5807   -7.9218    0.0000 O   0  0  0  0  0  0  0  0  0  0  0  0
   10.1354   -9.6288    0.0000 O   0  0  0  0  0  0  0  0  0  0  0  0
    9.3978  -10.2713    0.0000 C   0  0  0  0  0  0  0  0  0  0  0  0
    9.3978  -11.0962    0.0000 O   0  0  0  0  0  0  0  0  0  0  0  0
    5.2661   -7.1851    0.0000 C   0  0  0  0  0  0  0  0  0  0  0  0
    5.2701   -8.0101    0.0000 C   0  0  0  0  0  0  0  0  0  0  0  0
    5.9865   -8.4192    0.0000 C   0  0  0  0  0  0  0  0  0  0  0  0
    6.6990   -8.0032    0.0000 C   0  0  0  0  0  0  0  0  0  0  0  0
    6.6950   -7.1782    0.0000 C   0  0  0  0  0  0  0  0  0  0  0  0
    5.9786   -6.7692    0.0000 C   0  0  0  0  0  0  0  0  0  0  0  0
    4.5496   -6.7761    0.0000 O   0  0  0  0  0  0  0  0  0  0  0  0
    4.5576   -8.4260    0.0000 O   0  0  0  0  0  0  0  0  0  0  0  0
    5.9905   -9.2442    0.0000 O   0  0  0  0  0  0  0  0  0  0  0  0
    7.4075   -6.7623    0.0000 C   0  0  0  0  0  0  0  0  0  0  0  0
    7.4035   -5.9373    0.0000 O   0  0  0  0  0  0  0  0  0  0  0  0
  1  2  1  0  0  0  0
  3  2  1  1  0  0  0
  3  4  1  0  0  0  0
  4  5  1  0  0  0  0
  5  6  1  0  0  0  0
  6  7  1  0  0  0  0
  7  8  1  0  0  0  0
  8  3  1  0  0  0  0
  4  9  1  6  0  0  0
  5 10  1  1  0  0  0
  6 11  1  6  0  0  0
  7 12  1  6  0  0  0
 13 12  1  6  0  0  0
 13 14  1  0  0  0  0
 14 15  1  0  0  0  0
 15 16  1  0  0  0  0
 16 17  1  0  0  0  0
 17 13  1  0  0  0  0
 16 18  1  6  0  0  0
 18 19  1  0  0  0  0
 15 20  1  1  0  0  0
 14 21  1  6  0  0  0
 13 22  1  1  0  0  0
 22 23  1  0  0  0  0
 24 25  2  0  0  0  0
 25 26  1  0  0  0  0
 26 27  2  0  0  0  0
 27 28  1  0  0  0  0
 28 29  2  0  0  0  0
 29 24  1  0  0  0  0
 24 30  1  0  0  0  0
 25 31  1  0  0  0  0
 26 32  1  0  0  0  0
 28 33  1  0  0  0  0
 33 34  2  0  0  0  0
 33 19  1  0  0  0  0
M  END
>  <cdx:fragmentId>
5

$$$$
