93007.cdx
  Mrv1902 05222410212D          

 27 29  0  0  0  0            999 V2000
    3.7171   -7.7921    0.0000 C   0  0  0  0  0  0  0  0  0  0  0  0
    4.3480   -8.3237    0.0000 C   0  0  0  0  0  0  0  0  0  0  0  0
    5.1238   -8.0431    0.0000 C   0  0  0  0  0  0  0  0  0  0  0  0
    5.2687   -7.2309    0.0000 C   0  0  0  0  0  0  0  0  0  0  0  0
    4.6378   -6.6993    0.0000 C   0  0  0  0  0  0  0  0  0  0  0  0
    3.8620   -6.9799    0.0000 C   0  0  0  0  0  0  0  0  0  0  0  0
    2.9413   -8.0727    0.0000 O   0  0  0  0  0  0  0  0  0  0  0  0
    2.7963   -8.8849    0.0000 C   0  0  0  0  0  0  0  0  0  0  0  0
    6.0445   -6.9503    0.0000 C   0  0  1  0  0  0  0  0  0  0  0  0
    6.7275   -7.4131    0.0000 O   0  0  0  0  0  0  0  0  0  0  0  0
    7.3787   -6.9064    0.0000 C   0  0  1  0  0  0  0  0  0  0  0  0
    7.0981   -6.1306    0.0000 C   0  0  2  0  0  0  0  0  0  0  0  0
    6.2735   -6.1578    0.0000 C   0  0  2  0  0  0  0  0  0  0  0  0
    5.7669   -5.5066    0.0000 C   0  0  0  0  0  0  0  0  0  0  0  0
    8.1713   -7.1355    0.0000 C   0  0  0  0  0  0  0  0  0  0  0  0
    8.3692   -7.9364    0.0000 C   0  0  0  0  0  0  0  0  0  0  0  0
    9.1618   -8.1654    0.0000 C   0  0  0  0  0  0  0  0  0  0  0  0
    9.7564   -7.5935    0.0000 C   0  0  0  0  0  0  0  0  0  0  0  0
    9.5584   -6.7926    0.0000 C   0  0  0  0  0  0  0  0  0  0  0  0
    8.7659   -6.5636    0.0000 C   0  0  0  0  0  0  0  0  0  0  0  0
   10.5490   -7.8225    0.0000 O   0  0  0  0  0  0  0  0  0  0  0  0
   10.7625   -8.6194    0.0000 C   0  0  0  0  0  0  0  0  0  0  0  0
    9.3598   -8.9663    0.0000 O   0  0  0  0  0  0  0  0  0  0  0  0
    8.9473   -9.6807    0.0000 C   0  0  0  0  0  0  0  0  0  0  0  0
    7.5608   -5.4476    0.0000 C   0  0  0  0  0  0  0  0  0  0  0  0
    4.2031   -9.1359    0.0000 O   0  0  0  0  0  0  0  0  0  0  0  0
    4.8340   -9.6675    0.0000 C   0  0  0  0  0  0  0  0  0  0  0  0
  1  2  2  0  0  0  0
  2  3  1  0  0  0  0
  3  4  2  0  0  0  0
  4  5  1  0  0  0  0
  5  6  2  0  0  0  0
  6  1  1  0  0  0  0
  1  7  1  0  0  0  0
  7  8  1  0  0  0  0
  9  4  1  6  0  0  0
  9 10  1  0  0  0  0
 10 11  1  0  0  0  0
 11 12  1  0  0  0  0
 12 13  1  0  0  0  0
 13  9  1  0  0  0  0
 13 14  1  1  0  0  0
 11 15  1  1  0  0  0
 15 16  2  0  0  0  0
 16 17  1  0  0  0  0
 17 18  2  0  0  0  0
 18 19  1  0  0  0  0
 19 20  2  0  0  0  0
 20 15  1  0  0  0  0
 18 21  1  0  0  0  0
 21 22  1  0  0  0  0
 17 23  1  0  0  0  0
 23 24  1  0  0  0  0
 12 25  1  6  0  0  0
  2 26  1  0  0  0  0
 26 27  1  0  0  0  0
M  END
>  <cdx:fragmentId>
5

$$$$
