93000.cdx
  Mrv1902 05222410222D          

 12 12  0  0  0  0            999 V2000
    6.8731   -8.4700    0.0000 C   0  0  0  0  0  0  0  0  0  0  0  0
    6.8731   -9.2950    0.0000 C   0  0  0  0  0  0  0  0  0  0  0  0
    7.5875   -9.7075    0.0000 C   0  0  0  0  0  0  0  0  0  0  0  0
    8.3020   -9.2950    0.0000 C   0  0  0  0  0  0  0  0  0  0  0  0
    8.3020   -8.4700    0.0000 C   0  0  0  0  0  0  0  0  0  0  0  0
    7.5875   -8.0575    0.0000 C   0  0  0  0  0  0  0  0  0  0  0  0
    7.5875   -7.2325    0.0000 C   0  0  0  0  0  0  0  0  0  0  0  0
    6.8731   -6.8200    0.0000 C   0  0  0  0  0  0  0  0  0  0  0  0
    8.3020   -6.8200    0.0000 C   0  0  0  0  0  0  0  0  0  0  0  0
    8.3020   -5.9950    0.0000 C   0  0  0  0  0  0  0  0  0  0  0  0
    9.0165   -5.5825    0.0000 C   0  0  0  0  0  0  0  0  0  0  0  0
    7.5875   -5.5825    0.0000 C   0  0  0  0  0  0  0  0  0  0  0  0
  1  2  2  0  0  0  0
  2  3  1  0  0  0  0
  3  4  2  0  0  0  0
  4  5  1  0  0  0  0
  5  6  2  0  0  0  0
  6  1  1  0  0  0  0
  6  7  1  0  0  0  0
  7  8  1  0  0  0  0
  7  9  1  0  0  0  0
  9 10  2  0  0  0  0
 10 11  1  0  0  0  0
 10 12  1  0  0  0  0
M  END
>  <cdx:fragmentId>
5

$$$$
