93004.cdx
  Mrv1902 05222410212D          

 16 16  0  0  0  0            999 V2000
    6.3506   -5.3075    0.0000 C   0  0  1  0  0  0  0  0  0  0  0  0
    6.3506   -6.1325    0.0000 C   0  0  2  0  0  0  0  0  0  0  0  0
    7.0650   -6.5450    0.0000 C   0  0  0  0  0  0  0  0  0  0  0  0
    7.7795   -6.1325    0.0000 C   0  0  2  0  0  0  0  0  0  0  0  0
    7.7795   -5.3075    0.0000 C   0  0  0  0  0  0  0  0  0  0  0  0
    7.0650   -4.8950    0.0000 C   0  0  0  0  0  0  0  0  0  0  0  0
    8.4940   -6.5450    0.0000 C   0  0  0  0  0  0  0  0  0  0  0  0
    9.2084   -6.1325    0.0000 C   0  0  0  0  0  0  0  0  0  0  0  0
    8.4940   -7.3700    0.0000 C   0  0  0  0  0  0  0  0  0  0  0  0
    9.2084   -5.3075    0.0000 O   0  0  0  0  0  0  0  0  0  0  0  0
    5.9381   -4.5930    0.0000 C   0  0  0  0  0  0  0  0  0  0  0  0
    5.6361   -6.5450    0.0000 C   0  0  0  0  0  0  0  0  0  0  0  0
    4.9216   -6.1325    0.0000 C   0  0  0  0  0  0  0  0  0  0  0  0
    5.6361   -7.3700    0.0000 C   0  0  0  0  0  0  0  0  0  0  0  0
    5.5537   -5.5210    0.0000 C   0  0  0  0  0  0  0  0  0  0  0  0
    4.9703   -4.9377    0.0000 C   0  0  0  0  0  0  0  0  0  0  0  0
  1  2  1  0  0  0  0
  2  3  1  0  0  0  0
  3  4  1  0  0  0  0
  4  5  1  0  0  0  0
  5  6  1  0  0  0  0
  6  1  1  0  0  0  0
  4  7  1  6  0  0  0
  7  8  1  0  0  0  0
  7  9  2  0  0  0  0
  8 10  1  0  0  0  0
  1 11  1  6  0  0  0
  2 12  1  6  0  0  0
 12 13  2  0  0  0  0
 12 14  1  0  0  0  0
  1 15  1  1  0  0  0
 15 16  2  0  0  0  0
M  END
>  <cdx:fragmentId>
5

$$$$
