93001.cdx
  Mrv1902 05222410222D          

 20 19  0  0  0  0            999 V2000
   12.8897   -8.2912    0.0000 C   0  0  0  0  0  0  0  0  0  0  0  0
   12.1753   -8.7037    0.0000 C   0  0  0  0  0  0  0  0  0  0  0  0
   11.4608   -8.2912    0.0000 C   0  0  0  0  0  0  0  0  0  0  0  0
   10.7463   -8.7037    0.0000 C   0  0  0  0  0  0  0  0  0  0  0  0
   10.0319   -8.2912    0.0000 C   0  0  0  0  0  0  0  0  0  0  0  0
    9.3174   -8.7037    0.0000 C   0  0  0  0  0  0  0  0  0  0  0  0
    8.6029   -8.2912    0.0000 C   0  0  0  0  0  0  0  0  0  0  0  0
    7.8884   -8.7037    0.0000 C   0  0  0  0  0  0  0  0  0  0  0  0
    7.1740   -8.2912    0.0000 C   0  0  0  0  0  0  0  0  0  0  0  0
    6.4595   -8.7037    0.0000 C   0  0  0  0  0  0  0  0  0  0  0  0
    5.7450   -8.2912    0.0000 C   0  0  0  0  0  0  0  0  0  0  0  0
    6.4595   -9.5287    0.0000 O   0  0  0  0  0  0  0  0  0  0  0  0
    7.1740   -7.4663    0.0000 O   0  0  0  0  0  0  0  0  0  0  0  0
    5.0306   -7.8788    0.0000 C   0  0  0  0  0  0  0  0  0  0  0  0
    4.3161   -7.4663    0.0000 C   0  0  0  0  0  0  0  0  0  0  0  0
    3.6016   -7.0537    0.0000 C   0  0  0  0  0  0  0  0  0  0  0  0
    2.8871   -6.6413    0.0000 C   0  0  0  0  0  0  0  0  0  0  0  0
    2.8871   -5.8163    0.0000 C   0  0  0  0  0  0  0  0  0  0  0  0
    2.1727   -7.0537    0.0000 O   0  0  0  0  0  0  0  0  0  0  0  0
    2.1727   -5.4037    0.0000 C   0  0  0  0  0  0  0  0  0  0  0  0
  2  1  1  0  0  0  0
  3  2  1  0  0  0  0
  4  3  1  0  0  0  0
  5  4  1  0  0  0  0
  6  5  1  0  0  0  0
  7  6  1  0  0  0  0
  8  7  2  0  0  0  0
  9  8  1  0  0  0  0
 10  9  1  0  0  0  0
 11 10  1  0  0  0  0
 10 12  1  0  0  0  0
  9 13  1  0  0  0  0
 11 14  3  0  0  0  0
 14 15  1  0  0  0  0
 15 16  3  0  0  0  0
 16 17  1  0  0  0  0
 17 18  1  0  0  0  0
 17 19  1  0  0  0  0
 18 20  2  0  0  0  0
M  END
>  <cdx:fragmentId>
3

$$$$
