93002.cdx
  Mrv1902 05222410232D          

 26 29  0  0  0  0            999 V2000
    7.0847   -7.3587    0.0000 C   0  0  2  0  0  0  0  0  0  0  0  0
    7.7317   -6.9492    0.0000 N   0  0  0  0  0  0  0  0  0  0  0  0
    7.5730   -6.3004    0.0000 C   0  0  0  0  0  0  0  0  0  0  0  0
    6.1138   -5.9102    0.0000 C   0  0  1  0  0  0  0  0  0  0  0  0
    4.9622   -5.9737    0.0000 C   0  0  0  0  0  0  0  0  0  0  0  0
    4.5474   -6.6083    0.0000 N   0  0  0  0  0  0  0  0  0  0  0  0
    4.9893   -7.0687    0.0000 C   0  0  0  0  0  0  0  0  0  0  0  0
    6.1465   -6.7196    0.0000 C   0  0  2  0  0  0  0  0  0  0  0  0
    6.8065   -5.1993    0.0000 C   0  0  0  0  0  0  0  0  0  0  0  0
    4.6200   -5.2972    0.0000 C   0  0  0  0  0  0  0  0  0  0  0  0
    3.8630   -5.2553    0.0000 C   0  0  0  0  0  0  0  0  0  0  0  0
    3.4482   -5.8899    0.0000 C   0  0  0  0  0  0  0  0  0  0  0  0
    3.7904   -6.5664    0.0000 C   0  0  0  0  0  0  0  0  0  0  0  0
    7.1158   -8.1239    0.0000 C   0  0  0  0  0  0  0  0  0  0  0  0
    7.7941   -8.4795    0.0000 C   0  0  1  0  0  0  0  0  0  0  0  0
    8.4412   -8.0699    0.0000 C   0  0  0  0  0  0  0  0  0  0  0  0
    8.4100   -7.3048    0.0000 C   0  0  2  0  0  0  0  0  0  0  0  0
    3.3390   -7.2570    0.0000 O   0  0  0  0  0  0  0  0  0  0  0  0
    9.1071   -6.8635    0.0000 C   0  0  2  0  0  0  0  0  0  0  0  0
    9.1071   -6.0385    0.0000 C   0  0  0  0  0  0  0  0  0  0  0  0
    7.8277   -9.3038    0.0000 O   0  0  0  0  0  0  0  0  0  0  0  0
    5.9330   -7.5165    0.0000 H   0  0  0  0  0  0  0  0  0  0  0  0
    5.9002   -5.1133    0.0000 H   0  0  0  0  0  0  0  0  0  0  0  0
    6.3633   -7.7591    0.0000 H   0  0  0  0  0  0  0  0  0  0  0  0
    9.8298   -7.2614    0.0000 O   0  0  0  0  0  0  0  0  0  0  0  0
    7.6955   -7.7173    0.0000 H   0  0  0  0  0  0  0  0  0  0  0  0
  8  1  1  0  0  0  0
  1  2  1  0  0  0  0
  2  3  1  0  0  0  0
  3  4  1  0  0  0  0
  4  9  1  0  0  0  0
  4  5  1  0  0  0  0
  5  6  1  0  0  0  0
  7  6  1  0  0  0  0
  8  7  1  0  0  0  0
  8  9  1  0  0  0  0
  5 10  2  0  0  0  0
 10 11  1  0  0  0  0
 11 12  2  0  0  0  0
 12 13  1  0  0  0  0
 13  6  1  0  0  0  0
  1 14  1  0  0  0  0
 14 15  1  0  0  0  0
 15 16  1  0  0  0  0
 16 17  1  0  0  0  0
 17  2  1  0  0  0  0
 13 18  2  0  0  0  0
 17 19  1  0  0  0  0
 19 20  1  0  0  0  0
 15 21  1  1  0  0  0
  8 22  1  1  0  0  0
  4 23  1  6  0  0  0
  1 24  1  6  0  0  0
 19 25  1  6  0  0  0
 17 26  1  6  0  0  0
M  END
>  <cdx:groupId>
819

>  <cdx:fragmentId>
820

$$$$
