93003.cdx
  Mrv1902 05222410222D          

 29 32  0  0  0  0            999 V2000
   10.3782   -8.2422    0.0000 C   0  0  0  0  0  0  0  0  0  0  0  0
    9.9021   -7.5685    0.0000 C   0  0  0  0  0  0  0  0  0  0  0  0
    9.0805   -7.6440    0.0000 C   0  0  0  0  0  0  0  0  0  0  0  0
    8.7351   -8.3932    0.0000 C   0  0  0  0  0  0  0  0  0  0  0  0
    9.2113   -9.0669    0.0000 C   0  0  0  0  0  0  0  0  0  0  0  0
   10.0328   -8.9914    0.0000 C   0  0  0  0  0  0  0  0  0  0  0  0
   10.5090   -9.6652    0.0000 O   0  0  0  0  0  0  0  0  0  0  0  0
   10.1636  -10.4144    0.0000 C   0  0  0  0  0  0  0  0  0  0  0  0
   11.1998   -8.1667    0.0000 O   0  0  0  0  0  0  0  0  0  0  0  0
   11.6759   -8.8404    0.0000 C   0  0  0  0  0  0  0  0  0  0  0  0
   10.2475   -6.8193    0.0000 O   0  0  0  0  0  0  0  0  0  0  0  0
   11.0690   -6.7438    0.0000 C   0  0  0  0  0  0  0  0  0  0  0  0
    7.9136   -8.4687    0.0000 C   0  0  0  0  0  0  0  0  0  0  0  0
    7.4375   -7.7950    0.0000 C   0  0  1  0  0  0  0  0  0  0  0  0
    7.7026   -7.0138    0.0000 C   0  0  0  0  0  0  0  0  0  0  0  0
    7.0416   -6.5202    0.0000 O   0  0  0  0  0  0  0  0  0  0  0  0
    6.3679   -6.9963    0.0000 C   0  0  0  0  0  0  0  0  0  0  0  0
    6.6125   -7.7842    0.0000 C   0  0  2  0  0  0  0  0  0  0  0  0
    8.4905   -6.7691    0.0000 O   0  0  0  0  0  0  0  0  0  0  0  0
    6.1189   -8.4452    0.0000 C   0  0  0  0  0  0  0  0  0  0  0  0
    5.2996   -8.3483    0.0000 C   0  0  0  0  0  0  0  0  0  0  0  0
    4.9740   -7.5903    0.0000 C   0  0  0  0  0  0  0  0  0  0  0  0
    4.1547   -7.4933    0.0000 C   0  0  0  0  0  0  0  0  0  0  0  0
    3.6611   -8.1544    0.0000 C   0  0  0  0  0  0  0  0  0  0  0  0
    3.9867   -8.9124    0.0000 C   0  0  0  0  0  0  0  0  0  0  0  0
    4.8060   -9.0093    0.0000 C   0  0  0  0  0  0  0  0  0  0  0  0
    2.8395   -8.2299    0.0000 O   0  0  0  0  0  0  0  0  0  0  0  0
    2.6575   -9.0345    0.0000 C   0  0  0  0  0  0  0  0  0  0  0  0
    3.3665   -9.4563    0.0000 O   0  0  0  0  0  0  0  0  0  0  0  0
  1  2  2  0  0  0  0
  2  3  1  0  0  0  0
  3  4  2  0  0  0  0
  4  5  1  0  0  0  0
  5  6  2  0  0  0  0
  6  1  1  0  0  0  0
  6  7  1  0  0  0  0
  7  8  1  0  0  0  0
  1  9  1  0  0  0  0
  9 10  1  0  0  0  0
  2 11  1  0  0  0  0
 11 12  1  0  0  0  0
  4 13  1  0  0  0  0
 14 13  1  6  0  0  0
 14 15  1  0  0  0  0
 15 16  1  0  0  0  0
 16 17  1  0  0  0  0
 17 18  1  0  0  0  0
 18 14  1  0  0  0  0
 15 19  1  0  0  0  0
 18 20  1  1  0  0  0
 20 21  1  0  0  0  0
 21 22  2  0  0  0  0
 22 23  1  0  0  0  0
 23 24  2  0  0  0  0
 24 25  1  0  0  0  0
 25 26  2  0  0  0  0
 26 21  1  0  0  0  0
 24 27  1  0  0  0  0
 27 28  1  0  0  0  0
 28 29  1  0  0  0  0
 29 25  1  0  0  0  0
M  END
>  <cdx:fragmentId>
5

$$$$
