30185.cdx
  Mrv1902 05222410242D          

 12 12  0  0  0  0            999 V2000
    5.8109   -8.9158    0.0000 C   0  0  0  0  0  0  0  0  0  0  0  0
    5.8109   -9.7408    0.0000 C   0  0  0  0  0  0  0  0  0  0  0  0
    6.5253  -10.1533    0.0000 C   0  0  0  0  0  0  0  0  0  0  0  0
    7.2398   -9.7408    0.0000 C   0  0  0  0  0  0  0  0  0  0  0  0
    7.2398   -8.9158    0.0000 C   0  0  0  0  0  0  0  0  0  0  0  0
    6.5253   -8.5033    0.0000 C   0  0  0  0  0  0  0  0  0  0  0  0
    5.0964  -10.1533    0.0000 C   0  0  0  0  0  0  0  0  0  0  0  0
    5.0964  -10.9783    0.0000 C   0  0  0  0  0  0  0  0  0  0  0  0
    6.5253   -7.6783    0.0000 C   0  0  0  0  0  0  0  0  0  0  0  0
    5.8109   -7.2658    0.0000 O   0  0  0  0  0  0  0  0  0  0  0  0
    7.2398   -7.2658    0.0000 C   0  0  0  0  0  0  0  0  0  0  0  0
    7.2398   -6.4408    0.0000 O   0  0  0  0  0  0  0  0  0  0  0  0
  1  2  2  0  0  0  0
  2  3  1  0  0  0  0
  3  4  2  0  0  0  0
  4  5  1  0  0  0  0
  5  6  2  0  0  0  0
  6  1  1  0  0  0  0
  2  7  1  0  0  0  0
  7  8  1  0  0  0  0
  6  9  1  0  0  0  0
  9 10  1  0  0  0  0
  9 11  1  0  0  0  0
 11 12  1  0  0  0  0
M  END
>  <cdx:fragmentId>
5

$$$$
