93015.cdx
  Mrv1902 05222410222D          

 19 21  0  0  0  0            999 V2000
    6.3460   -5.8025    0.0000 C   0  0  0  0  0  0  0  0  0  0  0  0
    6.3460   -6.6275    0.0000 C   0  0  0  0  0  0  0  0  0  0  0  0
    6.9910   -7.1419    0.0000 C   0  0  0  0  0  0  0  0  0  0  0  0
    7.7953   -6.9583    0.0000 C   0  0  0  0  0  0  0  0  0  0  0  0
    8.1532   -6.2150    0.0000 C   0  0  0  0  0  0  0  0  0  0  0  0
    7.7953   -5.4717    0.0000 C   0  0  0  0  0  0  0  0  0  0  0  0
    6.9910   -5.2881    0.0000 C   0  0  0  0  0  0  0  0  0  0  0  0
    5.5210   -5.8025    0.0000 C   0  0  0  0  0  0  0  0  0  0  0  0
    5.9335   -5.0880    0.0000 C   0  0  0  0  0  0  0  0  0  0  0  0
    5.9335   -7.3420    0.0000 C   0  0  0  0  0  0  0  0  0  0  0  0
    7.5818   -7.7552    0.0000 C   0  0  0  0  0  0  0  0  0  0  0  0
    8.5688   -7.2453    0.0000 C   0  0  0  0  0  0  0  0  0  0  0  0
    8.2962   -8.1677    0.0000 C   0  0  0  0  0  0  0  0  0  0  0  0
    8.2962   -8.9927    0.0000 O   0  0  0  0  0  0  0  0  0  0  0  0
    9.0107   -9.4052    0.0000 C   0  0  0  0  0  0  0  0  0  0  0  0
    9.0107  -10.2302    0.0000 C   0  0  0  0  0  0  0  0  0  0  0  0
    9.7252   -8.9927    0.0000 O   0  0  0  0  0  0  0  0  0  0  0  0
    6.1470   -8.1389    0.0000 C   0  0  0  0  0  0  0  0  0  0  0  0
    6.9439   -7.9253    0.0000 C   0  0  0  0  0  0  0  0  0  0  0  0
  1  2  1  0  0  0  0
  2  3  1  0  0  0  0
  3  4  1  0  0  0  0
  4  5  1  0  0  0  0
  5  6  1  0  0  0  0
  6  7  1  0  0  0  0
  7  1  1  0  0  0  0
  1  8  1  0  0  0  0
  1  9  1  0  0  0  0
  2 10  1  0  0  0  0
  4 11  1  0  0  0  0
  4 12  1  0  0  0  0
 10 11  1  0  0  0  0
 11 13  1  0  0  0  0
 13 14  1  0  0  0  0
 14 15  1  0  0  0  0
 15 16  1  0  0  0  0
 15 17  2  0  0  0  0
 10 18  1  0  0  0  0
 18 19  1  0  0  0  0
  3 19  1  0  0  0  0
M  END
>  <cdx:fragmentId>
5

$$$$
