93011.cdx
  Mrv1902 05222410212D          

 26 29  0  0  0  0            999 V2000
    7.7884   -8.7630    0.0000 C   0  0  0  0  0  0  0  0  0  0  0  0
    9.9078   -9.2847    0.0000 C   0  0  0  0  0  0  0  0  0  0  0  0
    9.0863   -9.3606    0.0000 C   0  0  0  0  0  0  0  0  0  0  0  0
    8.6099   -8.6871    0.0000 C   0  0  0  0  0  0  0  0  0  0  0  0
    8.9549   -7.9377    0.0000 C   0  0  0  0  0  0  0  0  0  0  0  0
   10.2529   -8.5353    0.0000 C   0  0  0  0  0  0  0  0  0  0  0  0
    9.7764   -7.8618    0.0000 C   0  0  0  0  0  0  0  0  0  0  0  0
   10.2697   -7.2005    0.0000 O   0  0  0  0  0  0  0  0  0  0  0  0
   11.0510   -7.4653    0.0000 C   0  0  0  0  0  0  0  0  0  0  0  0
   11.0406   -8.2902    0.0000 O   0  0  0  0  0  0  0  0  0  0  0  0
    2.7163   -8.3541    0.0000 O   0  0  0  0  0  0  0  0  0  0  0  0
    4.2302   -6.3970    0.0000 C   0  0  0  0  0  0  0  0  0  0  0  0
    3.7029   -7.0315    0.0000 O   0  0  0  0  0  0  0  0  0  0  0  0
    4.6810   -9.3051    0.0000 C   0  0  0  0  0  0  0  0  0  0  0  0
    3.8617   -9.2085    0.0000 C   0  0  0  0  0  0  0  0  0  0  0  0
    3.5357   -8.4506    0.0000 C   0  0  0  0  0  0  0  0  0  0  0  0
    4.0290   -7.7894    0.0000 C   0  0  0  0  0  0  0  0  0  0  0  0
    4.8483   -7.8859    0.0000 C   0  0  0  0  0  0  0  0  0  0  0  0
    5.1743   -8.6438    0.0000 C   0  0  0  0  0  0  0  0  0  0  0  0
    5.9937   -8.7403    0.0000 C   0  0  0  0  0  0  0  0  0  0  0  0
    8.3645   -7.0631    0.0000 O   0  0  0  0  0  0  0  0  0  0  0  0
    6.2419   -7.2913    0.0000 C   0  0  0  0  0  0  0  0  0  0  0  0
    6.4870   -8.0791    0.0000 C   0  0  1  0  0  0  0  0  0  0  0  0
    7.3119   -8.0895    0.0000 C   0  0  2  0  0  0  0  0  0  0  0  0
    7.5767   -7.3081    0.0000 C   0  0  0  0  0  0  0  0  0  0  0  0
    6.9154   -6.8148    0.0000 O   0  0  0  0  0  0  0  0  0  0  0  0
 24  1  1  6  0  0  0
  5  7  2  0  0  0  0
  2  6  2  0  0  0  0
  3  2  1  0  0  0  0
  4  3  2  0  0  0  0
  5  4  1  0  0  0  0
 10  6  1  0  0  0  0
  7  6  1  0  0  0  0
  8  7  1  0  0  0  0
  9  8  1  0  0  0  0
 10  9  1  0  0  0  0
 23 20  1  1  0  0  0
 20 19  1  0  0  0  0
 16 11  1  0  0  0  0
 17 13  1  0  0  0  0
 13 12  1  0  0  0  0
 19 14  2  0  0  0  0
 15 14  1  0  0  0  0
 16 15  2  0  0  0  0
 17 16  1  0  0  0  0
 18 17  2  0  0  0  0
 19 18  1  0  0  0  0
 25 21  2  0  0  0  0
 26 22  1  0  0  0  0
 23 22  1  0  0  0  0
 24 23  1  0  0  0  0
 25 24  1  0  0  0  0
 26 25  1  0  0  0  0
  1  4  1  0  0  0  0
M  END
>  <cdx:fragmentId>
19

$$$$
