9301.cdx
  Mrv1902 05222410252D          

 51 56  0  0  0  0            999 V2000
    4.3500   -9.3033    0.0000 O   0  0  0  0  0  0  0  0  0  0  0  0
    5.0644   -9.7158    0.0000 C   0  0  2  0  0  0  0  0  0  0  0  0
    5.0644  -10.5408    0.0000 C   0  0  1  0  0  0  0  0  0  0  0  0
    4.3500  -10.9533    0.0000 C   0  0  1  0  0  0  0  0  0  0  0  0
    3.6355  -10.5408    0.0000 C   0  0  2  0  0  0  0  0  0  0  0  0
    3.6355   -9.7158    0.0000 C   0  0  2  0  0  0  0  0  0  0  0  0
    5.7789  -10.9533    0.0000 O   0  0  0  0  0  0  0  0  0  0  0  0
    4.3500  -11.7783    0.0000 O   0  0  0  0  0  0  0  0  0  0  0  0
    2.9210  -10.9533    0.0000 O   0  0  0  0  0  0  0  0  0  0  0  0
    2.9210   -9.3033    0.0000 C   0  0  0  0  0  0  0  0  0  0  0  0
    5.7789   -9.3033    0.0000 O   0  0  0  0  0  0  0  0  0  0  0  0
    6.4934   -9.7158    0.0000 C   0  0  0  0  0  0  0  0  0  0  0  0
    7.2078   -8.4783    0.0000 O   0  0  0  0  0  0  0  0  0  0  0  0
    7.2078   -9.3033    0.0000 C   0  0  1  0  0  0  0  0  0  0  0  0
    7.9223   -9.7158    0.0000 C   0  0  2  0  0  0  0  0  0  0  0  0
    8.6368   -9.3033    0.0000 C   0  0  1  0  0  0  0  0  0  0  0  0
    8.6368   -8.4783    0.0000 C   0  0  2  0  0  0  0  0  0  0  0  0
    7.9223   -8.0658    0.0000 C   0  0  2  0  0  0  0  0  0  0  0  0
    9.3513   -8.0658    0.0000 O   0  0  0  0  0  0  0  0  0  0  0  0
   10.0657   -9.3033    0.0000 O   0  0  0  0  0  0  0  0  0  0  0  0
   10.0657   -8.4783    0.0000 C   0  0  2  0  0  0  0  0  0  0  0  0
   10.7802   -8.0658    0.0000 C   0  0  1  0  0  0  0  0  0  0  0  0
   11.4947   -8.4783    0.0000 C   0  0  2  0  0  0  0  0  0  0  0  0
   11.4947   -9.3033    0.0000 C   0  0  1  0  0  0  0  0  0  0  0  0
   10.7802   -9.7158    0.0000 C   0  0  0  0  0  0  0  0  0  0  0  0
   12.2091   -9.7158    0.0000 O   0  0  0  0  0  0  0  0  0  0  0  0
   12.2091   -8.0658    0.0000 O   0  0  0  0  0  0  0  0  0  0  0  0
   10.7802   -7.2408    0.0000 O   0  0  0  0  0  0  0  0  0  0  0  0
    9.3513   -9.7158    0.0000 O   0  0  0  0  0  0  0  0  0  0  0  0
    7.9223  -10.5408    0.0000 O   0  0  0  0  0  0  0  0  0  0  0  0
    7.9223   -7.2408    0.0000 O   0  0  0  0  0  0  0  0  0  0  0  0
    7.2078   -6.0033    0.0000 C   0  0  0  0  0  0  0  0  0  0  0  0
    7.2078   -6.8283    0.0000 C   0  0  0  0  0  0  0  0  0  0  0  0
    6.4934   -7.2408    0.0000 C   0  0  0  0  0  0  0  0  0  0  0  0
    5.7789   -6.8283    0.0000 C   0  0  0  0  0  0  0  0  0  0  0  0
    5.0644   -7.2408    0.0000 C   0  0  0  0  0  0  0  0  0  0  0  0
    4.3500   -6.8283    0.0000 C   0  0  0  0  0  0  0  0  0  0  0  0
    4.3500   -6.0033    0.0000 C   0  0  0  0  0  0  0  0  0  0  0  0
    5.0644   -5.5908    0.0000 C   0  0  0  0  0  0  0  0  0  0  0  0
    5.7789   -6.0033    0.0000 C   0  0  0  0  0  0  0  0  0  0  0  0
    6.4934   -5.5908    0.0000 O   0  3  0  0  0  0  0  0  0  0  0  0
    3.6355   -5.5908    0.0000 O   0  0  0  0  0  0  0  0  0  0  0  0
    5.0644   -8.0658    0.0000 O   0  0  0  0  0  0  0  0  0  0  0  0
    7.9223   -5.5908    0.0000 C   0  0  0  0  0  0  0  0  0  0  0  0
    8.6368   -6.0033    0.0000 C   0  0  0  0  0  0  0  0  0  0  0  0
    9.3513   -5.5908    0.0000 C   0  0  0  0  0  0  0  0  0  0  0  0
    9.3513   -4.7658    0.0000 C   0  0  0  0  0  0  0  0  0  0  0  0
    8.6368   -4.3533    0.0000 C   0  0  0  0  0  0  0  0  0  0  0  0
    7.9223   -4.7658    0.0000 C   0  0  0  0  0  0  0  0  0  0  0  0
   10.0657   -4.3533    0.0000 O   0  0  0  0  0  0  0  0  0  0  0  0
   10.0657   -6.0033    0.0000 O   0  0  0  0  0  0  0  0  0  0  0  0
  1  2  1  0  0  0  0
  2  3  1  0  0  0  0
  3  4  1  0  0  0  0
  4  5  1  0  0  0  0
  5  6  1  0  0  0  0
  1  6  1  0  0  0  0
  3  7  1  6  0  0  0
  4  8  1  6  0  0  0
  5  9  1  1  0  0  0
  6 10  1  6  0  0  0
 11 12  1  0  0  0  0
 13 14  1  0  0  0  0
 14 15  1  0  0  0  0
 15 16  1  0  0  0  0
 16 17  1  0  0  0  0
 17 18  1  0  0  0  0
 13 18  1  0  0  0  0
 20 21  1  0  0  0  0
 21 22  1  0  0  0  0
 22 23  1  0  0  0  0
 23 24  1  0  0  0  0
 24 25  1  0  0  0  0
 20 25  1  0  0  0  0
 24 26  1  6  0  0  0
 23 27  1  1  0  0  0
 22 28  1  6  0  0  0
 21 19  1  1  0  0  0
 17 19  1  6  0  0  0
 16 29  1  1  0  0  0
 15 30  1  6  0  0  0
 32 33  1  0  0  0  0
 33 34  2  0  0  0  0
 34 35  1  0  0  0  0
 35 36  1  0  0  0  0
 36 37  2  0  0  0  0
 37 38  1  0  0  0  0
 38 39  2  0  0  0  0
 39 40  1  0  0  0  0
 35 40  2  0  0  0  0
 40 41  1  0  0  0  0
 32 41  2  0  0  0  0
 38 42  1  0  0  0  0
 36 43  1  0  0  0  0
 44 45  1  0  0  0  0
 45 46  2  0  0  0  0
 46 47  1  0  0  0  0
 47 48  2  0  0  0  0
 48 49  1  0  0  0  0
 44 49  2  0  0  0  0
 47 50  1  0  0  0  0
 46 51  1  0  0  0  0
 32 44  1  0  0  0  0
 31 33  1  0  0  0  0
 18 31  1  1  0  0  0
 14 12  1  1  0  0  0
  2 11  1  1  0  0  0
M  CHG  1  41   1
M  END
>  <cdx:fragmentId>
16186

$$$$
