93019.cdx
  Mrv1902 05222410242D          

 10 10  0  0  0  0            999 V2000
    7.6496   -6.0456    0.0000 C   0  0  0  0  0  0  0  0  0  0  0  0
    8.3640   -5.6328    0.0000 C   0  0  0  0  0  0  0  0  0  0  0  0
    8.3637   -4.8078    0.0000 C   0  0  0  0  0  0  0  0  0  0  0  0
    7.6491   -4.3956    0.0000 C   0  0  0  0  0  0  0  0  0  0  0  0
    6.9347   -4.8083    0.0000 C   0  0  0  0  0  0  0  0  0  0  0  0
    6.9350   -5.6333    0.0000 C   0  0  0  0  0  0  0  0  0  0  0  0
    7.6499   -6.8706    0.0000 C   0  0  0  0  0  0  0  0  0  0  0  0
    7.6488   -3.5706    0.0000 C   0  0  0  0  0  0  0  0  0  0  0  0
    6.9342   -3.1583    0.0000 O   0  0  0  0  0  0  0  0  0  0  0  0
    8.3631   -3.1578    0.0000 C   0  0  0  0  0  0  0  0  0  0  0  0
  1  2  2  0  0  0  0
  2  3  1  0  0  0  0
  3  4  1  0  0  0  0
  4  5  1  0  0  0  0
  5  6  1  0  0  0  0
  1  6  1  0  0  0  0
  1  7  1  0  0  0  0
  8  9  2  0  0  0  0
  8 10  1  0  0  0  0
  4  8  1  0  0  0  0
M  END
>  <cdx:fragmentId>
5

$$$$
