93010.cdx
  Mrv1902 05222410212D          

 18 19  0  0  0  0            999 V2000
    4.5585   -5.9538    0.0000 C   0  0  0  0  0  0  0  0  0  0  0  0
    4.5585   -6.7788    0.0000 C   0  0  0  0  0  0  0  0  0  0  0  0
    5.2035   -7.2931    0.0000 C   0  0  0  0  0  0  0  0  0  0  0  0
    6.0078   -7.1095    0.0000 C   0  0  1  0  0  0  0  0  0  0  0  0
    6.3657   -6.3662    0.0000 C   0  0  0  0  0  0  0  0  0  0  0  0
    6.0078   -5.6230    0.0000 C   0  0  0  0  0  0  0  0  0  0  0  0
    5.2035   -5.4394    0.0000 C   0  0  0  0  0  0  0  0  0  0  0  0
    6.6041   -7.6797    0.0000 C   0  0  1  0  0  0  0  0  0  0  0  0
    7.3306   -7.2887    0.0000 C   0  0  0  0  0  0  0  0  0  0  0  0
    7.1833   -6.4770    0.0000 C   0  0  0  0  0  0  0  0  0  0  0  0
    6.5222   -4.9779    0.0000 C   0  0  0  0  0  0  0  0  0  0  0  0
    6.2208   -4.2100    0.0000 O   0  0  0  0  0  0  0  0  0  0  0  0
    7.3380   -5.1009    0.0000 O   0  0  0  0  0  0  0  0  0  0  0  0
    3.8152   -7.1367    0.0000 C   0  0  0  0  0  0  0  0  0  0  0  0
    3.1335   -6.6720    0.0000 C   0  0  0  0  0  0  0  0  0  0  0  0
    3.7535   -7.9594    0.0000 C   0  0  0  0  0  0  0  0  0  0  0  0
    6.4933   -8.4972    0.0000 C   0  0  0  0  0  0  0  0  0  0  0  0
    5.7943   -7.9064    0.0000 H   0  0  0  0  0  0  0  0  0  0  0  0
  1  2  1  0  0  0  0
  2  3  1  0  0  0  0
  3  4  1  0  0  0  0
  4  5  1  0  0  0  0
  5  6  2  0  0  0  0
  6  7  1  0  0  0  0
  7  1  1  0  0  0  0
  4  8  1  0  0  0  0
  8  9  1  0  0  0  0
  9 10  1  0  0  0  0
 10  5  1  0  0  0  0
  6 11  1  0  0  0  0
 11 12  1  0  0  0  0
 11 13  2  0  0  0  0
 14  2  1  1  0  0  0
 14 15  1  0  0  0  0
 14 16  2  0  0  0  0
  8 17  1  1  0  0  0
  4 18  1  6  0  0  0
M  END
>  <cdx:fragmentId>
5

$$$$
