93018.cdx
  Mrv1902 05222410242D          

 23 25  0  0  0  0            999 V2000
    4.2606   -6.9025    0.0000 C   0  0  0  0  0  0  0  0  0  0  0  0
    4.2606   -7.7275    0.0000 C   0  0  0  0  0  0  0  0  0  0  0  0
    4.9750   -8.1400    0.0000 C   0  0  0  0  0  0  0  0  0  0  0  0
    5.6895   -7.7275    0.0000 C   0  0  0  0  0  0  0  0  0  0  0  0
    5.6895   -6.9025    0.0000 C   0  0  0  0  0  0  0  0  0  0  0  0
    4.9750   -6.4900    0.0000 C   0  0  0  0  0  0  0  0  0  0  0  0
    6.4040   -8.1400    0.0000 O   0  0  0  0  0  0  0  0  0  0  0  0
    7.1184   -7.7275    0.0000 C   0  0  0  0  0  0  0  0  0  0  0  0
    7.1184   -6.9025    0.0000 C   0  0  1  0  0  0  0  0  0  0  0  0
    6.4040   -6.4900    0.0000 C   0  0  0  0  0  0  0  0  0  0  0  0
    7.8329   -6.4900    0.0000 C   0  0  0  0  0  0  0  0  0  0  0  0
    8.5474   -6.9025    0.0000 C   0  0  0  0  0  0  0  0  0  0  0  0
    9.2619   -6.4900    0.0000 C   0  0  0  0  0  0  0  0  0  0  0  0
    9.2619   -5.6650    0.0000 C   0  0  0  0  0  0  0  0  0  0  0  0
    8.5474   -5.2525    0.0000 C   0  0  0  0  0  0  0  0  0  0  0  0
    7.8329   -5.6650    0.0000 C   0  0  0  0  0  0  0  0  0  0  0  0
    7.1184   -5.2525    0.0000 O   0  0  0  0  0  0  0  0  0  0  0  0
    7.1184   -4.4275    0.0000 C   0  0  0  0  0  0  0  0  0  0  0  0
    8.5474   -4.4275    0.0000 O   0  0  0  0  0  0  0  0  0  0  0  0
    9.9763   -5.2525    0.0000 O   0  0  0  0  0  0  0  0  0  0  0  0
   10.6908   -5.6650    0.0000 C   0  0  0  0  0  0  0  0  0  0  0  0
    3.5461   -8.1400    0.0000 O   0  0  0  0  0  0  0  0  0  0  0  0
    7.1184   -6.0775    0.0000 H   0  0  0  0  0  0  0  0  0  0  0  0
  1  2  2  0  0  0  0
  2  3  1  0  0  0  0
  3  4  2  0  0  0  0
  4  5  1  0  0  0  0
  5  6  2  0  0  0  0
  6  1  1  0  0  0  0
  4  7  1  0  0  0  0
  7  8  1  0  0  0  0
  8  9  1  0  0  0  0
  9 10  1  0  0  0  0
 10  5  1  0  0  0  0
  9 11  1  0  0  0  0
 11 12  2  0  0  0  0
 12 13  1  0  0  0  0
 13 14  2  0  0  0  0
 14 15  1  0  0  0  0
 15 16  2  0  0  0  0
 16 11  1  0  0  0  0
 16 17  1  0  0  0  0
 17 18  1  0  0  0  0
 15 19  1  0  0  0  0
 14 20  1  0  0  0  0
 20 21  1  0  0  0  0
  2 22  1  0  0  0  0
  9 23  1  6  0  0  0
M  END
>  <cdx:fragmentId>
5

$$$$
