930181.cdx
  Mrv1902 05222410252D          

 17 18  0  0  0  0            999 V2000
    6.6903   -6.4276    0.0000 C   0  0  0  0  0  0  0  0  0  0  0  0
    5.8653   -6.4276    0.0000 C   0  0  0  0  0  0  0  0  0  0  0  0
    5.4528   -7.1420    0.0000 C   0  0  0  0  0  0  0  0  0  0  0  0
    5.8653   -7.8565    0.0000 C   0  0  0  0  0  0  0  0  0  0  0  0
    6.6903   -7.8565    0.0000 C   0  0  0  0  0  0  0  0  0  0  0  0
    7.1028   -7.1420    0.0000 C   0  0  0  0  0  0  0  0  0  0  0  0
    5.4528   -8.5710    0.0000 C   0  0  0  0  0  0  0  0  0  0  0  0
    7.1028   -5.7131    0.0000 C   0  0  0  0  0  0  0  0  0  0  0  0
    6.6903   -8.6815    0.0000 O   0  0  0  0  0  0  0  0  0  0  0  0
    7.4872   -8.0700    0.0000 C   0  0  0  0  0  0  0  0  0  0  0  0
    7.5878   -7.8095    0.0000 C   0  0  0  0  0  0  0  0  0  0  0  0
    8.3724   -7.5545    0.0000 C   0  0  0  0  0  0  0  0  0  0  0  0
    8.3724   -6.7295    0.0000 C   0  0  0  0  0  0  0  0  0  0  0  0
    7.5878   -6.4746    0.0000 C   0  0  0  0  0  0  0  0  0  0  0  0
    9.0398   -6.2446    0.0000 C   0  0  0  0  0  0  0  0  0  0  0  0
    9.8367   -6.4581    0.0000 C   0  0  0  0  0  0  0  0  0  0  0  0
    8.8895   -5.4334    0.0000 O   0  0  0  0  0  0  0  0  0  0  0  0
  1  2  2  0  0  0  0
  2  3  1  0  0  0  0
  3  4  1  0  0  0  0
  4  5  1  0  0  0  0
  5  6  1  0  0  0  0
  6  1  1  0  0  0  0
  4  7  1  0  0  0  0
  1  8  1  0  0  0  0
  5  9  1  0  0  0  0
  5 10  1  0  0  0  0
  6 11  1  0  0  0  0
 11 12  1  0  0  0  0
 12 13  1  0  0  0  0
 13 14  1  0  0  0  0
 14  6  1  0  0  0  0
 13 15  1  0  0  0  0
 15 16  1  0  0  0  0
 15 17  2  0  0  0  0
M  END
>  <cdx:fragmentId>
5

$$$$
