93013.cdx
  Mrv1902 05222410212D          

 34 38  0  0  0  0            999 V2000
    2.7068   -4.2488    0.0000 C   0  0  0  0  0  0  0  0  0  0  0  0
    2.7068   -5.0737    0.0000 C   0  0  0  0  0  0  0  0  0  0  0  0
    3.4213   -5.4863    0.0000 C   0  0  0  0  0  0  0  0  0  0  0  0
    4.1357   -5.0737    0.0000 C   0  0  0  0  0  0  0  0  0  0  0  0
    4.1357   -4.2488    0.0000 C   0  0  0  0  0  0  0  0  0  0  0  0
    3.4213   -3.8363    0.0000 C   0  0  0  0  0  0  0  0  0  0  0  0
    4.8502   -5.4863    0.0000 O   0  0  0  0  0  0  0  0  0  0  0  0
    5.5647   -5.0737    0.0000 C   0  0  0  0  0  0  0  0  0  0  0  0
    5.5647   -4.2488    0.0000 C   0  0  0  0  0  0  0  0  0  0  0  0
    4.8502   -3.8363    0.0000 C   0  0  0  0  0  0  0  0  0  0  0  0
    6.2792   -5.4863    0.0000 C   0  0  0  0  0  0  0  0  0  0  0  0
    6.9936   -5.0737    0.0000 C   0  0  0  0  0  0  0  0  0  0  0  0
    6.2792   -6.3113    0.0000 C   0  0  0  0  0  0  0  0  0  0  0  0
    6.9936   -6.7237    0.0000 C   0  0  0  0  0  0  0  0  0  0  0  0
    7.7081   -6.3113    0.0000 C   0  0  0  0  0  0  0  0  0  0  0  0
    7.7081   -5.4863    0.0000 C   0  0  0  0  0  0  0  0  0  0  0  0
    8.4226   -6.7237    0.0000 O   0  0  0  0  0  0  0  0  0  0  0  0
    9.1370   -6.3113    0.0000 C   0  0  0  0  0  0  0  0  0  0  0  0
    9.1370   -5.4863    0.0000 C   0  0  0  0  0  0  0  0  0  0  0  0
    8.4226   -5.0737    0.0000 O   0  0  0  0  0  0  0  0  0  0  0  0
    9.8515   -6.7237    0.0000 C   0  0  0  0  0  0  0  0  0  0  0  0
   10.5660   -6.3113    0.0000 C   0  0  0  0  0  0  0  0  0  0  0  0
    9.8515   -5.0737    0.0000 C   0  0  0  0  0  0  0  0  0  0  0  0
    9.8515   -7.5488    0.0000 C   0  0  0  0  0  0  0  0  0  0  0  0
   10.5660   -7.9612    0.0000 C   0  0  0  0  0  0  0  0  0  0  0  0
   11.2805   -7.5488    0.0000 C   0  0  0  0  0  0  0  0  0  0  0  0
   11.2805   -6.7237    0.0000 C   0  0  0  0  0  0  0  0  0  0  0  0
    9.8515   -9.1987    0.0000 C   0  0  0  0  0  0  0  0  0  0  0  0
   10.5660   -8.7862    0.0000 O   0  0  0  0  0  0  0  0  0  0  0  0
    1.9923   -5.4863    0.0000 O   0  0  0  0  0  0  0  0  0  0  0  0
    3.4213   -3.0112    0.0000 O   0  0  0  0  0  0  0  0  0  0  0  0
    4.8502   -3.0112    0.0000 O   0  0  0  0  0  0  0  0  0  0  0  0
    9.8515   -4.2488    0.0000 O   0  0  0  0  0  0  0  0  0  0  0  0
   11.9949   -7.9612    0.0000 O   0  0  0  0  0  0  0  0  0  0  0  0
  1  2  2  0  0  0  0
  2  3  1  0  0  0  0
  3  4  2  0  0  0  0
  4  5  1  0  0  0  0
  5  6  2  0  0  0  0
  6  1  1  0  0  0  0
  4  7  1  0  0  0  0
  7  8  1  0  0  0  0
  8  9  2  0  0  0  0
  9 10  1  0  0  0  0
 10  5  1  0  0  0  0
  8 11  1  0  0  0  0
 11 12  2  0  0  0  0
 11 13  1  0  0  0  0
 13 14  2  0  0  0  0
 14 15  1  0  0  0  0
 15 16  2  0  0  0  0
 16 12  1  0  0  0  0
 15 17  1  0  0  0  0
 17 18  1  0  0  0  0
 18 19  1  0  0  0  0
 19 20  1  0  0  0  0
 20 16  1  0  0  0  0
 18 21  1  0  0  0  0
 21 22  2  0  0  0  0
 23 19  1  0  0  0  0
 21 24  1  0  0  0  0
 24 25  2  0  0  0  0
 25 26  1  0  0  0  0
 26 27  2  0  0  0  0
 27 22  1  0  0  0  0
 28 29  1  0  0  0  0
 29 25  1  0  0  0  0
  2 30  1  0  0  0  0
  6 31  1  0  0  0  0
 10 32  2  0  0  0  0
 23 33  1  0  0  0  0
 26 34  1  0  0  0  0
M  END
>  <cdx:fragmentId>
5

$$$$
