93016.cdx
  Mrv1902 05222410232D          

 31 33  0  0  0  0            999 V2000
    9.7354   -7.2202    0.0000 C   0  0  0  0  0  0  0  0  0  0  0  0
   10.2051   -6.5420    0.0000 C   0  0  0  0  0  0  0  0  0  0  0  0
    9.8527   -5.7960    0.0000 C   0  0  0  0  0  0  0  0  0  0  0  0
    9.0305   -5.7283    0.0000 C   0  0  0  0  0  0  0  0  0  0  0  0
    8.5607   -6.4065    0.0000 C   0  0  0  0  0  0  0  0  0  0  0  0
    8.9132   -7.1524    0.0000 C   0  0  0  0  0  0  0  0  0  0  0  0
   10.0878   -7.9661    0.0000 O   0  0  0  0  0  0  0  0  0  0  0  0
   10.9100   -8.0338    0.0000 C   0  0  0  0  0  0  0  0  0  0  0  0
   10.3225   -5.1179    0.0000 O   0  0  0  0  0  0  0  0  0  0  0  0
   11.1447   -5.1856    0.0000 C   0  0  0  0  0  0  0  0  0  0  0  0
    8.6781   -4.9824    0.0000 O   0  0  0  0  0  0  0  0  0  0  0  0
    9.1478   -4.3042    0.0000 C   0  0  0  0  0  0  0  0  0  0  0  0
    8.4434   -7.8306    0.0000 C   0  0  1  0  0  0  0  0  0  0  0  0
    7.6186   -7.8492    0.0000 C   0  0  1  0  0  0  0  0  0  0  0  0
    7.3814   -8.6393    0.0000 C   0  0  2  0  0  0  0  0  0  0  0  0
    8.0596   -9.1091    0.0000 O   0  0  0  0  0  0  0  0  0  0  0  0
    8.7159   -8.6093    0.0000 C   0  0  1  0  0  0  0  0  0  0  0  0
    6.6027   -8.9119    0.0000 C   0  0  0  0  0  0  0  0  0  0  0  0
    5.9773   -8.3738    0.0000 C   0  0  0  0  0  0  0  0  0  0  0  0
    5.1986   -8.6463    0.0000 C   0  0  0  0  0  0  0  0  0  0  0  0
    5.0453   -9.4569    0.0000 C   0  0  0  0  0  0  0  0  0  0  0  0
    5.6707   -9.9950    0.0000 C   0  0  0  0  0  0  0  0  0  0  0  0
    6.4494   -9.7225    0.0000 C   0  0  0  0  0  0  0  0  0  0  0  0
    5.5174  -10.8057    0.0000 O   0  0  0  0  0  0  0  0  0  0  0  0
    6.1956  -11.2754    0.0000 C   0  0  0  0  0  0  0  0  0  0  0  0
    4.2666   -9.7295    0.0000 O   0  0  0  0  0  0  0  0  0  0  0  0
    3.7332   -9.1002    0.0000 C   0  0  0  0  0  0  0  0  0  0  0  0
    6.1306   -7.5631    0.0000 O   0  0  0  0  0  0  0  0  0  0  0  0
    5.5972   -6.9338    0.0000 C   0  0  0  0  0  0  0  0  0  0  0  0
    9.5061   -8.8465    0.0000 C   0  0  0  0  0  0  0  0  0  0  0  0
    7.1188   -7.1928    0.0000 C   0  0  0  0  0  0  0  0  0  0  0  0
  1  2  2  0  0  0  0
  2  3  1  0  0  0  0
  3  4  2  0  0  0  0
  4  5  1  0  0  0  0
  5  6  2  0  0  0  0
  6  1  1  0  0  0  0
  1  7  1  0  0  0  0
  7  8  1  0  0  0  0
  3  9  1  0  0  0  0
  9 10  1  0  0  0  0
  4 11  1  0  0  0  0
 11 12  1  0  0  0  0
 13  6  1  6  0  0  0
 13 14  1  0  0  0  0
 14 15  1  0  0  0  0
 15 16  1  0  0  0  0
 16 17  1  0  0  0  0
 17 13  1  0  0  0  0
 15 18  1  6  0  0  0
 18 19  2  0  0  0  0
 19 20  1  0  0  0  0
 20 21  2  0  0  0  0
 21 22  1  0  0  0  0
 22 23  2  0  0  0  0
 23 18  1  0  0  0  0
 22 24  1  0  0  0  0
 24 25  1  0  0  0  0
 21 26  1  0  0  0  0
 26 27  1  0  0  0  0
 19 28  1  0  0  0  0
 28 29  1  0  0  0  0
 17 30  1  6  0  0  0
 14 31  1  1  0  0  0
M  END
>  <cdx:fragmentId>
5

$$$$
