930248.cdx
  Mrv1902 05222410202D          

 25 27  0  0  0  0            999 V2000
    5.6075  -10.6894    0.0000 C   0  0  0  0  0  0  0  0  0  0  0  0
    3.7661   -9.9750    0.0000 O   0  0  0  0  0  0  0  0  0  0  0  0
    5.9095   -7.9125    0.0000 C   0  0  0  0  0  0  0  0  0  0  0  0
    4.7825  -10.6894    0.0000 C   0  0  0  0  0  0  0  0  0  0  0  0
    7.8814   -5.0430    0.0000 O   0  0  0  0  0  0  0  0  0  0  0  0
    7.0609   -4.9568    0.0000 C   0  0  0  0  0  0  0  0  0  0  0  0
    6.7253   -5.7104    0.0000 C   0  0  0  0  0  0  0  0  0  0  0  0
    8.7674   -6.2625    0.0000 O   0  0  0  0  0  0  0  0  0  0  0  0
    8.0529   -5.8500    0.0000 C   0  0  0  0  0  0  0  0  0  0  0  0
    7.3384   -6.2625    0.0000 C   0  0  0  0  0  0  0  0  0  0  0  0
    8.0529   -8.3250    0.0000 C   0  0  0  0  0  0  0  0  0  0  0  0
    7.3384   -7.0875    0.0000 C   0  0  0  0  0  0  0  0  0  0  0  0
    6.6240   -7.5000    0.0000 C   0  0  0  0  0  0  0  0  0  0  0  0
    6.6240   -9.9750    0.0000 C   0  0  0  0  0  0  0  0  0  0  0  0
    7.3384   -9.5625    0.0000 C   0  0  0  0  0  0  0  0  0  0  0  0
    7.3384   -8.7375    0.0000 C   0  0  0  0  0  0  0  0  0  0  0  0
    6.6240   -8.3250    0.0000 C   0  0  2  0  0  0  0  0  0  0  0  0
    5.1950   -9.9750    0.0000 C   0  0  2  0  0  0  0  0  0  0  0  0
    5.9095   -9.5625    0.0000 C   0  0  2  0  0  0  0  0  0  0  0  0
    5.9095   -8.7375    0.0000 C   0  0  2  0  0  0  0  0  0  0  0  0
    5.1950   -8.3250    0.0000 C   0  0  0  0  0  0  0  0  0  0  0  0
    4.4806   -8.7375    0.0000 C   0  0  0  0  0  0  0  0  0  0  0  0
    4.4806   -9.5625    0.0000 C   0  0  1  0  0  0  0  0  0  0  0  0
    5.1950  -11.4039    0.0000 O   0  0  0  0  0  0  0  0  0  0  0  0
    5.9095  -10.3875    0.0000 H   0  0  0  0  0  0  0  0  0  0  0  0
 18  1  1  1  0  0  0
 23  2  1  6  0  0  0
 20  3  1  6  0  0  0
 18  4  1  6  0  0  0
  5  9  1  0  0  0  0
  6  5  1  0  0  0  0
  7  6  1  0  0  0  0
 10  7  2  0  0  0  0
  9  8  2  0  0  0  0
 10  9  1  0  0  0  0
 12 10  1  0  0  0  0
 11 16  2  0  0  0  0
 13 12  1  0  0  0  0
 17 13  1  6  0  0  0
 14 19  1  0  0  0  0
 15 14  1  0  0  0  0
 16 15  1  0  0  0  0
 17 16  1  0  0  0  0
 20 17  1  0  0  0  0
 18 23  1  0  0  0  0
 19 18  1  0  0  0  0
 20 19  1  0  0  0  0
 21 20  1  0  0  0  0
 22 21  1  0  0  0  0
 23 22  1  0  0  0  0
  4 24  1  0  0  0  0
 19 25  1  1  0  0  0
M  END
>  <cdx:fragmentId>
5

$$$$
