93027.cdx
  Mrv1902 05222410232D          

 18 19  0  0  0  0            999 V2000
    6.2255   -3.4301    0.0000 H   0  0  0  0  0  0  0  0  0  0  0  0
    7.9790   -8.2746    0.0000 C   0  0  0  0  0  0  0  0  0  0  0  0
    7.4941   -7.6072    0.0000 C   0  0  0  0  0  0  0  0  0  0  0  0
    7.8296   -6.8535    0.0000 C   0  0  0  0  0  0  0  0  0  0  0  0
    7.3447   -6.1861    0.0000 C   0  0  0  0  0  0  0  0  0  0  0  0
    7.6803   -5.4324    0.0000 C   0  0  0  0  0  0  0  0  0  0  0  0
    5.2583   -5.6624    0.0000 O   0  0  0  0  0  0  0  0  0  0  0  0
    6.9404   -2.6454    0.0000 O   0  0  0  0  0  0  0  0  0  0  0  0
    8.6474   -4.9949    0.0000 C   0  0  0  0  0  0  0  0  0  0  0  0
    8.6474   -3.2001    0.0000 C   0  0  0  0  0  0  0  0  0  0  0  0
    5.9258   -4.3524    0.0000 C   0  0  0  0  0  0  0  0  0  0  0  0
    5.9258   -5.1774    0.0000 C   0  0  0  0  0  0  0  0  0  0  0  0
    6.7104   -5.4324    0.0000 O   0  0  0  0  0  0  0  0  0  0  0  0
    7.1953   -3.4301    0.0000 C   0  0  0  0  0  0  0  0  0  0  0  0
    6.7104   -4.0975    0.0000 C   0  0  1  0  0  0  0  0  0  0  0  0
    7.1953   -4.7649    0.0000 C   0  0  2  0  0  0  0  0  0  0  0  0
    7.9800   -4.5100    0.0000 C   0  0  0  0  0  0  0  0  0  0  0  0
    7.9800   -3.6850    0.0000 C   0  0  0  0  0  0  0  0  0  0  0  0
 15  1  1  6  0  0  0
  3  2  1  0  0  0  0
  4  3  1  0  0  0  0
  5  4  1  0  0  0  0
  6  5  1  0  0  0  0
 16  6  1  6  0  0  0
 12  7  2  0  0  0  0
 14  8  2  0  0  0  0
 17  9  1  0  0  0  0
 18 10  1  0  0  0  0
 11 15  1  0  0  0  0
 12 11  1  0  0  0  0
 13 12  1  0  0  0  0
 16 13  1  0  0  0  0
 14 18  1  0  0  0  0
 15 14  1  0  0  0  0
 16 15  1  0  0  0  0
 17 16  1  0  0  0  0
 18 17  2  0  0  0  0
M  END
>  <cdx:fragmentId>
2121

$$$$
