93023.cdx
  Mrv1902 05222410262D          

 50 55  0  0  0  0            999 V2000
    2.6793  -13.0625    0.0000 O   0  0  0  0  0  0  0  0  0  0  0  0
    3.3938  -14.3000    0.0000 O   0  0  0  0  0  0  0  0  0  0  0  0
    4.1082  -13.8875    0.0000 C   0  0  2  0  0  0  0  0  0  0  0  0
    4.1082  -13.0625    0.0000 C   0  0  1  0  0  0  0  0  0  0  0  0
    3.3938  -12.6500    0.0000 C   0  0  0  0  0  0  0  0  0  0  0  0
    4.8227  -14.3000    0.0000 C   0  0  1  0  0  0  0  0  0  0  0  0
    5.5372  -13.8875    0.0000 C   0  0  2  0  0  0  0  0  0  0  0  0
    5.5372  -13.0625    0.0000 C   0  0  1  0  0  0  0  0  0  0  0  0
    4.8227  -12.6500    0.0000 O   0  0  0  0  0  0  0  0  0  0  0  0
    6.2517  -12.6500    0.0000 O   0  0  0  0  0  0  0  0  0  0  0  0
    6.2517  -11.8250    0.0000 C   0  0  0  0  0  0  0  0  0  0  0  0
    5.5372  -11.4125    0.0000 C   0  0  0  0  0  0  0  0  0  0  0  0
    4.8227  -11.8250    0.0000 O   0  0  0  0  0  0  0  0  0  0  0  0
    6.9661  -11.4125    0.0000 C   0  0  0  0  0  0  0  0  0  0  0  0
    6.9661  -10.5875    0.0000 C   0  0  0  0  0  0  0  0  0  0  0  0
    6.2517  -10.1750    0.0000 C   0  0  0  0  0  0  0  0  0  0  0  0
    5.5372  -10.5875    0.0000 C   0  0  0  0  0  0  0  0  0  0  0  0
    6.2517   -9.3500    0.0000 C   0  0  1  0  0  0  0  0  0  0  0  0
    6.9191   -8.8651    0.0000 C   0  0  1  0  0  0  0  0  0  0  0  0
    6.6642   -8.0805    0.0000 C   0  0  1  0  0  0  0  0  0  0  0  0
    5.8392   -8.0805    0.0000 C   0  0  0  0  0  0  0  0  0  0  0  0
    5.5842   -8.8651    0.0000 O   0  0  0  0  0  0  0  0  0  0  0  0
    7.7441   -8.8651    0.0000 C   0  0  0  0  0  0  0  0  0  0  0  0
    7.9990   -8.0805    0.0000 O   0  0  0  0  0  0  0  0  0  0  0  0
    7.3316   -7.5955    0.0000 C   0  0  1  0  0  0  0  0  0  0  0  0
    7.3316   -6.7705    0.0000 C   0  0  0  0  0  0  0  0  0  0  0  0
    8.0461   -6.3580    0.0000 C   0  0  0  0  0  0  0  0  0  0  0  0
    8.0461   -5.5330    0.0000 C   0  0  0  0  0  0  0  0  0  0  0  0
    7.3316   -5.1205    0.0000 C   0  0  0  0  0  0  0  0  0  0  0  0
    6.6171   -5.5330    0.0000 C   0  0  0  0  0  0  0  0  0  0  0  0
    6.6171   -6.3580    0.0000 C   0  0  0  0  0  0  0  0  0  0  0  0
    7.3316   -4.2955    0.0000 O   0  0  0  0  0  0  0  0  0  0  0  0
    6.6171   -3.8830    0.0000 C   0  0  1  0  0  0  0  0  0  0  0  0
    5.9027   -4.2955    0.0000 C   0  0  1  0  0  0  0  0  0  0  0  0
    6.6171   -3.0580    0.0000 O   0  0  0  0  0  0  0  0  0  0  0  0
    5.9027   -2.6455    0.0000 C   0  0  1  0  0  0  0  0  0  0  0  0
    5.1882   -3.0580    0.0000 C   0  0  2  0  0  0  0  0  0  0  0  0
    5.1882   -3.8830    0.0000 C   0  0  2  0  0  0  0  0  0  0  0  0
    4.1082  -11.4125    0.0000 C   0  0  0  0  0  0  0  0  0  0  0  0
    5.9027   -1.8205    0.0000 C   0  0  0  0  0  0  0  0  0  0  0  0
    5.1882   -1.4080    0.0000 O   0  0  0  0  0  0  0  0  0  0  0  0
    8.7605   -5.1205    0.0000 O   0  0  0  0  0  0  0  0  0  0  0  0
    9.4750   -5.5330    0.0000 C   0  0  0  0  0  0  0  0  0  0  0  0
    4.4737   -4.2955    0.0000 O   0  0  0  0  0  0  0  0  0  0  0  0
    4.4737   -2.6455    0.0000 O   0  0  0  0  0  0  0  0  0  0  0  0
    5.9027   -5.1205    0.0000 O   0  0  0  0  0  0  0  0  0  0  0  0
    6.2517  -14.3000    0.0000 O   0  0  0  0  0  0  0  0  0  0  0  0
    4.8227  -15.1250    0.0000 O   0  0  0  0  0  0  0  0  0  0  0  0
    6.4092   -7.2958    0.0000 H   0  0  0  0  0  0  0  0  0  0  0  0
    7.1740   -9.6497    0.0000 H   0  0  0  0  0  0  0  0  0  0  0  0
  3  2  1  6  0  0  0
  3  4  1  0  0  0  0
  4  5  1  1  0  0  0
  5  1  1  0  0  0  0
  3  6  1  0  0  0  0
  6  7  1  0  0  0  0
  7  8  1  0  0  0  0
  8  9  1  0  0  0  0
  9  4  1  0  0  0  0
  8 10  1  1  0  0  0
 10 11  1  0  0  0  0
 11 12  2  0  0  0  0
 12 13  1  0  0  0  0
 11 14  1  0  0  0  0
 14 15  2  0  0  0  0
 15 16  1  0  0  0  0
 16 17  2  0  0  0  0
 17 12  1  0  0  0  0
 18 16  1  6  0  0  0
 18 19  1  0  0  0  0
 19 20  1  0  0  0  0
 20 21  1  0  0  0  0
 21 22  1  0  0  0  0
 22 18  1  0  0  0  0
 19 23  1  0  0  0  0
 23 24  1  0  0  0  0
 24 25  1  0  0  0  0
 25 20  1  0  0  0  0
 25 26  1  6  0  0  0
 26 27  2  0  0  0  0
 27 28  1  0  0  0  0
 28 29  2  0  0  0  0
 29 30  1  0  0  0  0
 30 31  2  0  0  0  0
 31 26  1  0  0  0  0
 32 29  1  0  0  0  0
 33 32  1  1  0  0  0
 33 34  1  0  0  0  0
 33 35  1  0  0  0  0
 35 36  1  0  0  0  0
 36 37  1  0  0  0  0
 37 38  1  0  0  0  0
 38 34  1  0  0  0  0
 13 39  1  0  0  0  0
 36 40  1  1  0  0  0
 40 41  1  0  0  0  0
 28 42  1  0  0  0  0
 42 43  1  0  0  0  0
 38 44  1  1  0  0  0
 37 45  1  6  0  0  0
 34 46  1  6  0  0  0
  7 47  1  6  0  0  0
  6 48  1  1  0  0  0
 20 49  1  6  0  0  0
 19 50  1  6  0  0  0
M  END
>  <cdx:fragmentId>
5

$$$$
