93026.cdx
  Mrv1902 05222410232D          

 28 30  0  0  0  0            999 V2000
    4.8243   -6.6137    0.0000 C   0  0  0  0  0  0  0  0  0  0  0  0
    4.8243   -7.4387    0.0000 C   0  0  0  0  0  0  0  0  0  0  0  0
    5.5388   -7.8513    0.0000 C   0  0  0  0  0  0  0  0  0  0  0  0
    6.2532   -7.4387    0.0000 C   0  0  0  0  0  0  0  0  0  0  0  0
    6.2532   -6.6137    0.0000 C   0  0  0  0  0  0  0  0  0  0  0  0
    5.5388   -6.2012    0.0000 C   0  0  0  0  0  0  0  0  0  0  0  0
    7.0379   -7.6937    0.0000 O   0  0  0  0  0  0  0  0  0  0  0  0
    7.5228   -7.0263    0.0000 C   0  0  2  0  0  0  0  0  0  0  0  0
    7.0379   -6.3588    0.0000 C   0  0  2  0  0  0  0  0  0  0  0  0
    5.5388   -8.6762    0.0000 O   0  0  0  0  0  0  0  0  0  0  0  0
    4.8243   -9.0887    0.0000 C   0  0  0  0  0  0  0  0  0  0  0  0
    4.1098   -6.2012    0.0000 C   0  0  0  0  0  0  0  0  0  0  0  0
    3.3954   -6.6137    0.0000 C   0  0  0  0  0  0  0  0  0  0  0  0
    2.6809   -6.2012    0.0000 C   0  0  0  0  0  0  0  0  0  0  0  0
    1.9664   -6.6137    0.0000 O   0  0  0  0  0  0  0  0  0  0  0  0
    7.2928   -5.5742    0.0000 C   0  0  0  0  0  0  0  0  0  0  0  0
    6.7408   -4.9611    0.0000 O   0  0  0  0  0  0  0  0  0  0  0  0
    8.3478   -7.0263    0.0000 C   0  0  0  0  0  0  0  0  0  0  0  0
    8.7603   -7.7407    0.0000 C   0  0  0  0  0  0  0  0  0  0  0  0
    9.5853   -7.7407    0.0000 C   0  0  0  0  0  0  0  0  0  0  0  0
    9.9978   -7.0263    0.0000 C   0  0  0  0  0  0  0  0  0  0  0  0
    9.5853   -6.3118    0.0000 C   0  0  0  0  0  0  0  0  0  0  0  0
    8.7603   -6.3118    0.0000 C   0  0  0  0  0  0  0  0  0  0  0  0
   10.8228   -7.0263    0.0000 O   0  0  0  0  0  0  0  0  0  0  0  0
    9.9978   -5.5973    0.0000 O   0  0  0  0  0  0  0  0  0  0  0  0
    9.5853   -4.8828    0.0000 C   0  0  0  0  0  0  0  0  0  0  0  0
    9.9978   -8.4552    0.0000 O   0  0  0  0  0  0  0  0  0  0  0  0
    9.5853   -9.1697    0.0000 C   0  0  0  0  0  0  0  0  0  0  0  0
  1  2  2  0  0  0  0
  2  3  1  0  0  0  0
  3  4  2  0  0  0  0
  4  5  1  0  0  0  0
  5  6  2  0  0  0  0
  6  1  1  0  0  0  0
  4  7  1  0  0  0  0
  7  8  1  0  0  0  0
  8  9  1  0  0  0  0
  9  5  1  0  0  0  0
  3 10  1  0  0  0  0
 10 11  1  0  0  0  0
  1 12  1  0  0  0  0
 12 13  2  0  0  0  0
 13 14  1  0  0  0  0
 14 15  1  0  0  0  0
  9 16  1  1  0  0  0
 16 17  1  0  0  0  0
  8 18  1  6  0  0  0
 18 19  2  0  0  0  0
 19 20  1  0  0  0  0
 20 21  2  0  0  0  0
 21 22  1  0  0  0  0
 22 23  2  0  0  0  0
 23 18  1  0  0  0  0
 21 24  1  0  0  0  0
 22 25  1  0  0  0  0
 25 26  1  0  0  0  0
 20 27  1  0  0  0  0
 27 28  1  0  0  0  0
M  END
>  <cdx:fragmentId>
5

$$$$
