93022.cdx
  Mrv1902 05222410252D          

  8  9  0  0  0  0            999 V2000
    5.3224   -8.2452    0.0000 C   0  0  0  0  0  0  0  0  0  0  0  0
    6.1192   -8.0311    0.0000 C   0  0  0  0  0  0  0  0  0  0  0  0
    6.9159   -8.2452    0.0000 C   0  0  0  0  0  0  0  0  0  0  0  0
    7.3296   -7.5315    0.0000 C   0  0  0  0  0  0  0  0  0  0  0  0
    5.2548   -7.5590    0.0000 C   0  0  0  0  0  0  0  0  0  0  0  0
    6.5328   -7.3174    0.0000 C   0  0  0  0  0  0  0  0  0  0  0  0
    6.1206   -6.6037    0.0000 C   0  0  0  0  0  0  0  0  0  0  0  0
    4.6677   -8.7471    0.0000 O   0  0  0  0  0  0  0  0  0  0  0  0
  1  2  1  0  0  0  0
  2  3  1  0  0  0  0
  3  4  2  0  0  0  0
  1  5  1  0  0  0  0
  5  6  1  0  0  0  0
  4  6  1  0  0  0  0
  6  7  1  0  0  0  0
  2  7  1  0  0  0  0
  1  8  2  0  0  0  0
M  END
>  <cdx:groupId>
799

>  <cdx:fragmentId>
800

$$$$
