93025.cdx
  Mrv1902 05222410242D          

 46 51  0  0  0  0            999 V2000
    9.1693   -8.1813    0.0000 C   0  0  0  0  0  0  0  0  0  0  0  0
    9.1693   -9.0062    0.0000 C   0  0  0  0  0  0  0  0  0  0  0  0
    9.8838   -9.4187    0.0000 C   0  0  0  0  0  0  0  0  0  0  0  0
   10.5982   -9.0062    0.0000 C   0  0  0  0  0  0  0  0  0  0  0  0
   10.5982   -8.1813    0.0000 C   0  0  0  0  0  0  0  0  0  0  0  0
    9.8838   -7.7687    0.0000 C   0  0  0  0  0  0  0  0  0  0  0  0
   11.3127   -7.7687    0.0000 O   0  0  0  0  0  0  0  0  0  0  0  0
   11.3127   -9.4187    0.0000 O   0  0  0  0  0  0  0  0  0  0  0  0
    8.3847   -7.9263    0.0000 C   0  0  2  0  0  0  0  0  0  0  0  0
    7.8998   -8.5938    0.0000 C   0  0  2  0  0  0  0  0  0  0  0  0
    8.3847   -9.2612    0.0000 C   0  0  2  0  0  0  0  0  0  0  0  0
    7.8998   -7.2589    0.0000 C   0  0  2  0  0  0  0  0  0  0  0  0
    7.1151   -7.5138    0.0000 C   0  0  0  0  0  0  0  0  0  0  0  0
    7.1151   -8.3388    0.0000 C   0  0  0  0  0  0  0  0  0  0  0  0
    7.1151   -8.8487    0.0000 C   0  0  0  0  0  0  0  0  0  0  0  0
    7.1151   -9.6737    0.0000 C   0  0  0  0  0  0  0  0  0  0  0  0
    7.8998   -9.9286    0.0000 C   0  0  0  0  0  0  0  0  0  0  0  0
    8.1547  -10.7132    0.0000 O   0  0  0  0  0  0  0  0  0  0  0  0
    8.1547   -6.4743    0.0000 C   0  0  0  0  0  0  0  0  0  0  0  0
    7.6027   -5.8612    0.0000 O   0  0  0  0  0  0  0  0  0  0  0  0
    8.9617   -6.3027    0.0000 N   0  0  0  0  0  0  0  0  0  0  0  0
    9.1752   -5.5058    0.0000 C   0  0  0  0  0  0  0  0  0  0  0  0
    9.9721   -5.2923    0.0000 C   0  0  0  0  0  0  0  0  0  0  0  0
   10.1856   -4.4954    0.0000 C   0  0  0  0  0  0  0  0  0  0  0  0
   10.9825   -4.2819    0.0000 C   0  0  0  0  0  0  0  0  0  0  0  0
   11.1960   -3.4850    0.0000 C   0  0  0  0  0  0  0  0  0  0  0  0
   10.6127   -2.9016    0.0000 C   0  0  0  0  0  0  0  0  0  0  0  0
    9.8158   -3.1152    0.0000 C   0  0  0  0  0  0  0  0  0  0  0  0
    9.6022   -3.9121    0.0000 C   0  0  0  0  0  0  0  0  0  0  0  0
   10.8262   -2.1048    0.0000 O   0  0  0  0  0  0  0  0  0  0  0  0
    6.4477   -7.0289    0.0000 C   0  0  0  0  0  0  0  0  0  0  0  0
    5.6940   -7.3644    0.0000 N   0  0  0  0  0  0  0  0  0  0  0  0
    6.5339   -6.2084    0.0000 O   0  0  0  0  0  0  0  0  0  0  0  0
    5.0266   -6.8795    0.0000 C   0  0  0  0  0  0  0  0  0  0  0  0
    4.2729   -7.2151    0.0000 C   0  0  0  0  0  0  0  0  0  0  0  0
    3.6055   -6.7302    0.0000 C   0  0  0  0  0  0  0  0  0  0  0  0
    3.6917   -5.9097    0.0000 C   0  0  0  0  0  0  0  0  0  0  0  0
    3.0243   -5.4248    0.0000 C   0  0  0  0  0  0  0  0  0  0  0  0
    2.2706   -5.7603    0.0000 C   0  0  0  0  0  0  0  0  0  0  0  0
    2.1844   -6.5808    0.0000 C   0  0  0  0  0  0  0  0  0  0  0  0
    2.8518   -7.0657    0.0000 C   0  0  0  0  0  0  0  0  0  0  0  0
    1.6032   -5.2754    0.0000 O   0  0  0  0  0  0  0  0  0  0  0  0
    7.4873   -6.5444    0.0000 H   0  0  0  0  0  0  0  0  0  0  0  0
    8.8696   -7.2589    0.0000 H   0  0  0  0  0  0  0  0  0  0  0  0
    8.8696   -9.9286    0.0000 O   0  0  0  0  0  0  0  0  0  0  0  0
    9.5841  -10.3411    0.0000 C   0  0  0  0  0  0  0  0  0  0  0  0
  1  2  2  0  0  0  0
  2  3  1  0  0  0  0
  3  4  2  0  0  0  0
  4  5  1  0  0  0  0
  5  6  2  0  0  0  0
  6  1  1  0  0  0  0
  5  7  1  0  0  0  0
  4  8  1  0  0  0  0
  1  9  1  0  0  0  0
  9 10  1  0  0  0  0
 10 11  1  0  0  0  0
 11  2  1  0  0  0  0
  9 12  1  0  0  0  0
 12 13  1  0  0  0  0
 13 14  2  0  0  0  0
 10 14  1  6  0  0  0
 10 15  1  1  0  0  0
 15 16  2  0  0  0  0
 16 17  1  0  0  0  0
 11 17  1  1  0  0  0
 17 18  2  0  0  0  0
 12 19  1  0  0  0  0
 19 20  2  0  0  0  0
 19 21  1  0  0  0  0
 21 22  1  0  0  0  0
 22 23  1  0  0  0  0
 23 24  1  0  0  0  0
 24 25  2  0  0  0  0
 25 26  1  0  0  0  0
 26 27  2  0  0  0  0
 27 28  1  0  0  0  0
 28 29  2  0  0  0  0
 29 24  1  0  0  0  0
 27 30  1  0  0  0  0
 13 31  1  0  0  0  0
 31 32  1  0  0  0  0
 31 33  2  0  0  0  0
 32 34  1  0  0  0  0
 34 35  1  0  0  0  0
 35 36  1  0  0  0  0
 36 37  2  0  0  0  0
 37 38  1  0  0  0  0
 38 39  2  0  0  0  0
 39 40  1  0  0  0  0
 40 41  2  0  0  0  0
 41 36  1  0  0  0  0
 39 42  1  0  0  0  0
 12 43  1  1  0  0  0
  9 44  1  1  0  0  0
 11 45  1  6  0  0  0
 45 46  1  0  0  0  0
M  END
>  <cdx:fragmentId>
5

$$$$
