93020.cdx
  Mrv1902 05222410252D          

 24 26  0  0  0  0            999 V2000
    4.7831   -6.5038    0.0000 C   0  0  0  0  0  0  0  0  0  0  0  0
    4.7831   -7.3287    0.0000 C   0  0  0  0  0  0  0  0  0  0  0  0
    5.4975   -7.7413    0.0000 C   0  0  0  0  0  0  0  0  0  0  0  0
    6.2120   -7.3287    0.0000 C   0  0  0  0  0  0  0  0  0  0  0  0
    6.2120   -6.5038    0.0000 C   0  0  0  0  0  0  0  0  0  0  0  0
    5.4975   -6.0912    0.0000 C   0  0  0  0  0  0  0  0  0  0  0  0
    6.9966   -7.5837    0.0000 N   0  0  0  0  0  0  0  0  0  0  0  0
    7.4815   -6.9162    0.0000 C   0  0  0  0  0  0  0  0  0  0  0  0
    6.9966   -6.2488    0.0000 C   0  0  0  0  0  0  0  0  0  0  0  0
    8.3065   -6.9162    0.0000 C   0  0  0  0  0  0  0  0  0  0  0  0
    9.1315   -6.9162    0.0000 C   0  0  0  0  0  0  0  0  0  0  0  0
    8.3065   -6.0912    0.0000 C   0  0  0  0  0  0  0  0  0  0  0  0
    8.3065   -7.7413    0.0000 C   0  0  0  0  0  0  0  0  0  0  0  0
    9.5440   -7.6307    0.0000 C   0  0  0  0  0  0  0  0  0  0  0  0
    7.2516   -5.4642    0.0000 C   0  0  0  0  0  0  0  0  0  0  0  0
    6.6995   -4.8511    0.0000 C   0  0  0  0  0  0  0  0  0  0  0  0
    6.9545   -4.0665    0.0000 C   0  0  0  0  0  0  0  0  0  0  0  0
    6.4024   -3.4534    0.0000 N   0  0  0  0  0  0  0  0  0  0  0  0
    5.5955   -3.6249    0.0000 C   0  0  2  0  0  0  0  0  0  0  0  0
    5.3405   -4.4095    0.0000 C   0  0  0  0  0  0  0  0  0  0  0  0
    5.8926   -5.0226    0.0000 N   0  0  0  0  0  0  0  0  0  0  0  0
    4.5335   -4.5811    0.0000 O   0  0  0  0  0  0  0  0  0  0  0  0
    7.7614   -3.8949    0.0000 O   0  0  0  0  0  0  0  0  0  0  0  0
    5.0434   -3.0118    0.0000 C   0  0  0  0  0  0  0  0  0  0  0  0
  1  2  2  0  0  0  0
  2  3  1  0  0  0  0
  3  4  2  0  0  0  0
  4  5  1  0  0  0  0
  5  6  2  0  0  0  0
  6  1  1  0  0  0  0
  4  7  1  0  0  0  0
  7  8  1  0  0  0  0
  8  9  2  0  0  0  0
  9  5  1  0  0  0  0
  8 10  1  0  0  0  0
 10 11  1  0  0  0  0
 10 12  1  0  0  0  0
 10 13  1  0  0  0  0
 11 14  2  0  0  0  0
  9 15  1  0  0  0  0
 15 16  2  0  0  0  0
 16 17  1  0  0  0  0
 17 18  1  0  0  0  0
 18 19  1  0  0  0  0
 19 20  1  0  0  0  0
 20 21  1  0  0  0  0
 21 16  1  0  0  0  0
 20 22  2  0  0  0  0
 17 23  2  0  0  0  0
 19 24  1  6  0  0  0
M  END
>  <cdx:fragmentId>
5

$$$$
