93029.cdx
  Mrv1902 05222410222D          

 27 29  0  0  0  0            999 V2000
    5.1066   -9.6346    0.0000 C   0  0  0  0  0  0  0  0  0  0  0  0
    4.5232   -9.0513    0.0000 O   0  0  0  0  0  0  0  0  0  0  0  0
    3.0939   -8.7326    0.0000 C   0  0  0  0  0  0  0  0  0  0  0  0
    3.3075   -7.9357    0.0000 O   0  0  0  0  0  0  0  0  0  0  0  0
    5.0606   -6.6353    0.0000 C   0  0  0  0  0  0  0  0  0  0  0  0
    4.2736   -6.8828    0.0000 C   0  0  0  0  0  0  0  0  0  0  0  0
    4.0945   -7.6881    0.0000 C   0  0  0  0  0  0  0  0  0  0  0  0
    4.7023   -8.2459    0.0000 C   0  0  0  0  0  0  0  0  0  0  0  0
    5.4893   -7.9984    0.0000 C   0  0  0  0  0  0  0  0  0  0  0  0
    6.2391   -5.4914    0.0000 C   0  0  0  0  0  0  0  0  0  0  0  0
    5.6684   -7.1931    0.0000 C   0  0  0  0  0  0  0  0  0  0  0  0
    8.0339   -5.5083    0.0000 C   0  0  0  0  0  0  0  0  0  0  0  0
    7.5427   -6.1711    0.0000 C   0  0  1  0  0  0  0  0  0  0  0  0
    6.7177   -6.1634    0.0000 C   0  0  1  0  0  0  0  0  0  0  0  0
    6.4554   -6.9456    0.0000 C   0  0  2  0  0  0  0  0  0  0  0  0
    7.1183   -7.4367    0.0000 O   0  0  0  0  0  0  0  0  0  0  0  0
    7.7902   -6.9581    0.0000 C   0  0  1  0  0  0  0  0  0  0  0  0
   11.0829   -8.8160    0.0000 C   0  0  0  0  0  0  0  0  0  0  0  0
   10.9190   -8.0074    0.0000 O   0  0  0  0  0  0  0  0  0  0  0  0
    9.9729   -6.9366    0.0000 C   0  0  0  0  0  0  0  0  0  0  0  0
    9.1907   -6.6742    0.0000 C   0  0  0  0  0  0  0  0  0  0  0  0
    8.5724   -7.2205    0.0000 C   0  0  0  0  0  0  0  0  0  0  0  0
    8.7363   -8.0290    0.0000 C   0  0  0  0  0  0  0  0  0  0  0  0
    9.5185   -8.2913    0.0000 C   0  0  0  0  0  0  0  0  0  0  0  0
   10.1368   -7.7451    0.0000 C   0  0  0  0  0  0  0  0  0  0  0  0
    9.6824   -9.0999    0.0000 O   0  0  0  0  0  0  0  0  0  0  0  0
    9.0642   -9.6461    0.0000 C   0  0  0  0  0  0  0  0  0  0  0  0
  2  1  1  0  0  0  0
  8  2  1  0  0  0  0
  4  3  1  0  0  0  0
  7  4  1  0  0  0  0
  5 11  1  0  0  0  0
  6  5  2  0  0  0  0
  7  6  1  0  0  0  0
  8  7  2  0  0  0  0
  9  8  1  0  0  0  0
 11  9  2  0  0  0  0
 14 10  1  1  0  0  0
 15 11  1  6  0  0  0
 13 12  1  6  0  0  0
 13 17  1  0  0  0  0
 14 13  1  0  0  0  0
 15 14  1  0  0  0  0
 16 15  1  0  0  0  0
 17 16  1  0  0  0  0
 17 22  1  6  0  0  0
 19 18  1  0  0  0  0
 25 19  1  0  0  0  0
 20 25  1  0  0  0  0
 21 20  2  0  0  0  0
 22 21  1  0  0  0  0
 23 22  2  0  0  0  0
 24 23  1  0  0  0  0
 25 24  2  0  0  0  0
 24 26  1  0  0  0  0
 26 27  1  0  0  0  0
M  END
>  <cdx:fragmentId>
5

$$$$
