93038.cdx
  Mrv1902 05222410212D          

 17 19  0  0  0  0            999 V2000
    4.9068   -6.8475    0.0000 C   0  0  0  0  0  0  0  0  0  0  0  0
    4.9068   -7.6725    0.0000 C   0  0  0  0  0  0  0  0  0  0  0  0
    5.6213   -8.0850    0.0000 O   0  0  0  0  0  0  0  0  0  0  0  0
    6.3357   -7.6725    0.0000 C   0  0  0  0  0  0  0  0  0  0  0  0
    6.3357   -6.8475    0.0000 C   0  0  0  0  0  0  0  0  0  0  0  0
    5.6213   -6.4350    0.0000 C   0  0  0  0  0  0  0  0  0  0  0  0
    7.0502   -8.0850    0.0000 C   0  0  0  0  0  0  0  0  0  0  0  0
    7.7647   -7.6725    0.0000 C   0  0  0  0  0  0  0  0  0  0  0  0
    7.7647   -6.8475    0.0000 C   0  0  0  0  0  0  0  0  0  0  0  0
    7.0502   -6.4350    0.0000 C   0  0  0  0  0  0  0  0  0  0  0  0
    8.5493   -7.9274    0.0000 O   0  0  0  0  0  0  0  0  0  0  0  0
    9.0342   -7.2600    0.0000 C   0  0  0  0  0  0  0  0  0  0  0  0
    8.5493   -6.5926    0.0000 C   0  0  0  0  0  0  0  0  0  0  0  0
    4.1923   -8.0850    0.0000 C   0  0  0  0  0  0  0  0  0  0  0  0
    5.6213   -5.6100    0.0000 O   0  0  0  0  0  0  0  0  0  0  0  0
    7.0502   -5.6100    0.0000 O   0  0  0  0  0  0  0  0  0  0  0  0
    7.7647   -5.1975    0.0000 C   0  0  0  0  0  0  0  0  0  0  0  0
  1  2  2  0  0  0  0
  2  3  1  0  0  0  0
  3  4  1  0  0  0  0
  4  5  2  0  0  0  0
  5  6  1  0  0  0  0
  6  1  1  0  0  0  0
  4  7  1  0  0  0  0
  7  8  2  0  0  0  0
  8  9  1  0  0  0  0
  9 10  2  0  0  0  0
 10  5  1  0  0  0  0
  8 11  1  0  0  0  0
 11 12  1  0  0  0  0
 12 13  2  0  0  0  0
 13  9  1  0  0  0  0
  2 14  1  0  0  0  0
  6 15  2  0  0  0  0
 10 16  1  0  0  0  0
 16 17  1  0  0  0  0
M  END
>  <cdx:fragmentId>
5

$$$$
