93037.cdx
  Mrv1902 05222410252D          

 40 40  0  0  0  0            999 V2000
    6.6020  -10.0591    0.0000 N   0  0  0  0  0  0  0  0  0  0  0  0
    7.4271  -10.0591    0.0000 C   0  0  0  0  0  0  0  0  0  0  0  0
    8.1796   -9.7192    0.0000 C   0  0  0  0  0  0  0  0  0  0  0  0
    8.7321   -9.1067    0.0000 N   0  0  0  0  0  0  0  0  0  0  0  0
    8.9883   -8.3216    0.0000 C   0  0  0  0  0  0  0  0  0  0  0  0
    8.8975   -7.5019    0.0000 C   0  0  0  0  0  0  0  0  0  0  0  0
    8.4794   -6.7895    0.0000 N   0  0  0  0  0  0  0  0  0  0  0  0
    7.8088   -6.3097    0.0000 C   0  0  0  0  0  0  0  0  0  0  0  0
    7.0019   -6.1388    0.0000 C   0  0  0  0  0  0  0  0  0  0  0  0
    6.1949   -6.3097    0.0000 N   0  0  0  0  0  0  0  0  0  0  0  0
    5.5297   -6.7986    0.0000 C   0  0  0  0  0  0  0  0  0  0  0  0
    5.1226   -7.5165    0.0000 C   0  0  0  0  0  0  0  0  0  0  0  0
    5.0317   -8.3361    0.0000 N   0  0  0  0  0  0  0  0  0  0  0  0
    5.2934   -9.1176    0.0000 C   0  0  0  0  0  0  0  0  0  0  0  0
    5.8441   -9.7319    0.0000 C   0  0  0  0  0  0  0  0  0  0  0  0
    8.1413   -5.5546    0.0000 O   0  0  0  0  0  0  0  0  0  0  0  0
    7.0019   -5.3138    0.0000 C   0  0  0  0  0  0  0  0  0  0  0  0
    6.2874   -4.9013    0.0000 C   0  0  0  0  0  0  0  0  0  0  0  0
    6.2874   -4.0763    0.0000 C   0  0  0  0  0  0  0  0  0  0  0  0
    5.5729   -5.3138    0.0000 C   0  0  0  0  0  0  0  0  0  0  0  0
    4.9130   -6.2506    0.0000 O   0  0  0  0  0  0  0  0  0  0  0  0
    4.3377   -7.2623    0.0000 C   0  0  0  0  0  0  0  0  0  0  0  0
    3.7252   -7.8150    0.0000 C   0  0  0  0  0  0  0  0  0  0  0  0
    2.9403   -7.5608    0.0000 C   0  0  0  0  0  0  0  0  0  0  0  0
    3.8975   -8.6218    0.0000 C   0  0  0  0  0  0  0  0  0  0  0  0
    4.5804   -9.5326    0.0000 O   0  0  0  0  0  0  0  0  0  0  0  0
    5.3623  -10.4016    0.0000 C   0  0  0  0  0  0  0  0  0  0  0  0
    5.7013  -11.1537    0.0000 C   0  0  0  0  0  0  0  0  0  0  0  0
    4.5414  -10.3191    0.0000 C   0  0  0  0  0  0  0  0  0  0  0  0
    5.2195  -11.8234    0.0000 C   0  0  0  0  0  0  0  0  0  0  0  0
    7.6008  -10.8656    0.0000 O   0  0  0  0  0  0  0  0  0  0  0  0
    8.6660  -10.3856    0.0000 C   0  0  0  0  0  0  0  0  0  0  0  0
    9.4910  -10.3856    0.0000 C   0  0  0  0  0  0  0  0  0  0  0  0
    9.9035  -11.1000    0.0000 C   0  0  0  0  0  0  0  0  0  0  0  0
    9.9035   -9.6711    0.0000 C   0  0  0  0  0  0  0  0  0  0  0  0
    9.8090   -8.4060    0.0000 O   0  0  0  0  0  0  0  0  0  0  0  0
    9.6804   -7.2420    0.0000 C   0  0  0  0  0  0  0  0  0  0  0  0
   10.2970   -7.7901    0.0000 C   0  0  0  0  0  0  0  0  0  0  0  0
    9.8468   -6.4340    0.0000 C   0  0  0  0  0  0  0  0  0  0  0  0
   10.6437   -6.2204    0.0000 C   0  0  0  0  0  0  0  0  0  0  0  0
  1  2  1  0  0  0  0
  2  3  1  0  0  0  0
  3  4  1  0  0  0  0
  4  5  1  0  0  0  0
  5  6  1  0  0  0  0
  6  7  1  0  0  0  0
  7  8  1  0  0  0  0
  8  9  1  0  0  0  0
  9 10  1  0  0  0  0
 10 11  1  0  0  0  0
 11 12  1  0  0  0  0
 12 13  1  0  0  0  0
 13 14  1  0  0  0  0
 14 15  1  0  0  0  0
  1 15  1  0  0  0  0
  8 16  2  0  0  0  0
  9 17  1  0  0  0  0
 17 18  1  0  0  0  0
 18 19  1  0  0  0  0
 18 20  1  0  0  0  0
 11 21  2  0  0  0  0
 12 22  1  0  0  0  0
 22 23  1  0  0  0  0
 23 24  1  0  0  0  0
 23 25  1  0  0  0  0
 14 26  2  0  0  0  0
 15 27  1  0  0  0  0
 27 28  1  0  0  0  0
 27 29  1  0  0  0  0
 28 30  1  0  0  0  0
  2 31  2  0  0  0  0
  3 32  1  0  0  0  0
 32 33  1  0  0  0  0
 33 34  1  0  0  0  0
 33 35  1  0  0  0  0
  5 36  2  0  0  0  0
  6 37  1  0  0  0  0
 37 38  1  0  0  0  0
 37 39  1  0  0  0  0
 39 40  1  0  0  0  0
M  END
>  <cdx:groupId>
774

>  <cdx:fragmentId>
775

$$$$
