93032.cdx
  Mrv1902 05222410232D          

 19 21  0  0  0  0            999 V2000
    4.9206   -8.2363    0.0000 C   0  0  0  0  0  0  0  0  0  0  0  0
    4.9206   -9.0613    0.0000 N   0  0  0  0  0  0  0  0  0  0  0  0
    5.6350   -9.4738    0.0000 C   0  0  0  0  0  0  0  0  0  0  0  0
    6.3495   -9.0613    0.0000 C   0  0  0  0  0  0  0  0  0  0  0  0
    6.3495   -8.2363    0.0000 C   0  0  0  0  0  0  0  0  0  0  0  0
    5.6350   -7.8237    0.0000 N   0  0  0  0  0  0  0  0  0  0  0  0
    7.1341   -9.3162    0.0000 N   0  0  0  0  0  0  0  0  0  0  0  0
    7.6190   -8.6487    0.0000 C   0  0  0  0  0  0  0  0  0  0  0  0
    7.1341   -7.9813    0.0000 N   0  0  0  0  0  0  0  0  0  0  0  0
    5.6350  -10.2988    0.0000 N   0  0  0  0  0  0  0  0  0  0  0  0
    7.3891   -7.1967    0.0000 C   0  0  2  0  0  0  0  0  0  0  0  0
    8.1737   -6.9418    0.0000 O   0  0  0  0  0  0  0  0  0  0  0  0
    8.1737   -6.1168    0.0000 C   0  0  1  0  0  0  0  0  0  0  0  0
    7.3891   -5.8618    0.0000 C   0  0  2  0  0  0  0  0  0  0  0  0
    6.9041   -6.5293    0.0000 C   0  0  2  0  0  0  0  0  0  0  0  0
    8.8411   -5.6318    0.0000 C   0  0  0  0  0  0  0  0  0  0  0  0
    8.8411   -4.8068    0.0000 O   0  0  0  0  0  0  0  0  0  0  0  0
    6.0791   -6.5293    0.0000 O   0  0  0  0  0  0  0  0  0  0  0  0
    7.1341   -5.0772    0.0000 O   0  0  0  0  0  0  0  0  0  0  0  0
  1  2  2  0  0  0  0
  2  3  1  0  0  0  0
  3  4  2  0  0  0  0
  4  5  1  0  0  0  0
  5  6  2  0  0  0  0
  6  1  1  0  0  0  0
  4  7  1  0  0  0  0
  7  8  2  0  0  0  0
  8  9  1  0  0  0  0
  9  5  1  0  0  0  0
  3 10  1  0  0  0  0
 11  9  1  1  0  0  0
 11 12  1  0  0  0  0
 12 13  1  0  0  0  0
 13 14  1  0  0  0  0
 14 15  1  0  0  0  0
 15 11  1  0  0  0  0
 13 16  1  1  0  0  0
 16 17  1  0  0  0  0
 15 18  1  1  0  0  0
 14 19  1  6  0  0  0
M  END
>  <cdx:fragmentId>
5

$$$$
