93030.cdx
  Mrv1902 05222410242D          

 17 16  0  0  0  0            999 V2000
   11.7523   -3.5602    0.0000 C   0  0  0  0  0  0  0  0  0  0  0  0
   11.0378   -3.9727    0.0000 C   0  0  0  0  0  0  0  0  0  0  0  0
   10.3233   -3.5602    0.0000 C   0  0  0  0  0  0  0  0  0  0  0  0
    9.6089   -3.9727    0.0000 C   0  0  0  0  0  0  0  0  0  0  0  0
    8.8944   -3.5602    0.0000 C   0  0  0  0  0  0  0  0  0  0  0  0
    8.1799   -3.9727    0.0000 C   0  0  0  0  0  0  0  0  0  0  0  0
    7.4655   -3.5602    0.0000 C   0  0  0  0  0  0  0  0  0  0  0  0
    6.7510   -3.9727    0.0000 C   0  0  0  0  0  0  0  0  0  0  0  0
    6.0365   -3.5602    0.0000 C   0  0  0  0  0  0  0  0  0  0  0  0
    5.3220   -3.9727    0.0000 C   0  0  0  0  0  0  0  0  0  0  0  0
    4.6076   -3.5602    0.0000 C   0  0  0  0  0  0  0  0  0  0  0  0
    3.8931   -3.9727    0.0000 C   0  0  0  0  0  0  0  0  0  0  0  0
    3.1786   -3.5602    0.0000 C   0  0  0  0  0  0  0  0  0  0  0  0
    2.4642   -3.9727    0.0000 C   0  0  0  0  0  0  0  0  0  0  0  0
    1.7497   -3.5602    0.0000 C   0  0  0  0  0  0  0  0  0  0  0  0
    1.0352   -3.9727    0.0000 C   0  0  0  0  0  0  0  0  0  0  0  0
   10.3233   -2.7352    0.0000 C   0  0  0  0  0  0  0  0  0  0  0  0
  1  2  1  0  0  0  0
  2  3  1  0  0  0  0
  3  4  1  0  0  0  0
  4  5  1  0  0  0  0
  5  6  1  0  0  0  0
  6  7  1  0  0  0  0
  7  8  1  0  0  0  0
  8  9  1  0  0  0  0
  9 10  1  0  0  0  0
 10 11  1  0  0  0  0
 11 12  1  0  0  0  0
 12 13  1  0  0  0  0
 13 14  1  0  0  0  0
 14 15  1  0  0  0  0
 15 16  1  0  0  0  0
  3 17  1  0  0  0  0
M  END
>  <cdx:groupId>
52

>  <cdx:fragmentId>
5

$$$$
