93039.cdx
  Mrv1902 05222410212D          

 21 21  0  0  0  0            999 V2000
    6.0343  -12.3338    0.0000 C   0  0  0  0  0  0  0  0  0  0  0  0
    6.0343  -13.1588    0.0000 C   0  0  0  0  0  0  0  0  0  0  0  0
    6.7488  -13.5713    0.0000 C   0  0  0  0  0  0  0  0  0  0  0  0
    7.4632  -13.1588    0.0000 C   0  0  0  0  0  0  0  0  0  0  0  0
    7.4632  -12.3338    0.0000 C   0  0  0  0  0  0  0  0  0  0  0  0
    6.7488  -11.9213    0.0000 C   0  0  0  0  0  0  0  0  0  0  0  0
    5.2374  -12.5473    0.0000 C   0  0  0  0  0  0  0  0  0  0  0  0
    5.6218  -11.6193    0.0000 C   0  0  0  0  0  0  0  0  0  0  0  0
    8.1777  -11.9213    0.0000 C   0  0  0  0  0  0  0  0  0  0  0  0
    6.7500  -11.0963    0.0000 C   0  0  0  0  0  0  0  0  0  0  0  0
    7.4650  -10.6848    0.0000 C   0  0  0  0  0  0  0  0  0  0  0  0
    7.4662   -9.8598    0.0000 C   0  0  0  0  0  0  0  0  0  0  0  0
    8.1813   -9.4483    0.0000 C   0  0  0  0  0  0  0  0  0  0  0  0
    8.1825   -8.6233    0.0000 C   0  0  0  0  0  0  0  0  0  0  0  0
    8.8976   -8.2119    0.0000 C   0  0  0  0  0  0  0  0  0  0  0  0
    8.8987   -7.3869    0.0000 C   0  0  0  0  0  0  0  0  0  0  0  0
    9.6138   -6.9754    0.0000 C   0  0  0  0  0  0  0  0  0  0  0  0
    9.6150   -6.1504    0.0000 C   0  0  0  0  0  0  0  0  0  0  0  0
   10.3301   -5.7389    0.0000 O   0  0  0  0  0  0  0  0  0  0  0  0
    6.7524   -9.4463    0.0000 C   0  0  0  0  0  0  0  0  0  0  0  0
    8.1849   -6.9733    0.0000 C   0  0  0  0  0  0  0  0  0  0  0  0
  1  2  1  0  0  0  0
  2  3  1  0  0  0  0
  3  4  1  0  0  0  0
  4  5  1  0  0  0  0
  5  6  2  0  0  0  0
  6  1  1  0  0  0  0
  1  7  1  0  0  0  0
  1  8  1  0  0  0  0
  5  9  1  0  0  0  0
 10 11  2  0  0  0  0
 11 12  1  0  0  0  0
 12 13  2  0  0  0  0
 13 14  1  0  0  0  0
 14 15  2  0  0  0  0
 15 16  1  0  0  0  0
 16 17  2  0  0  0  0
 17 18  1  0  0  0  0
 18 19  1  0  0  0  0
 10  6  1  0  0  0  0
 12 20  1  0  0  0  0
 16 21  1  0  0  0  0
M  END
>  <cdx:fragmentId>
5

$$$$
