93036.cdx
  Mrv1902 05222410252D          

 22 21  0  0  0  0            999 V2000
   13.0679   -6.6516    0.0000 C   0  0  0  0  0  0  0  0  0  0  0  0
   12.4963   -6.9816    0.0000 C   0  0  0  0  0  0  0  0  0  0  0  0
   11.9248   -6.6516    0.0000 C   0  0  0  0  0  0  0  0  0  0  0  0
   11.3532   -6.9816    0.0000 C   0  0  0  0  0  0  0  0  0  0  0  0
   10.7816   -6.6516    0.0000 C   0  0  0  0  0  0  0  0  0  0  0  0
   10.2100   -6.9816    0.0000 C   0  0  0  0  0  0  0  0  0  0  0  0
    9.6385   -6.6516    0.0000 C   0  0  0  0  0  0  0  0  0  0  0  0
    9.0669   -6.9816    0.0000 C   0  0  0  0  0  0  0  0  0  0  0  0
    8.4953   -6.6516    0.0000 C   0  0  0  0  0  0  0  0  0  0  0  0
    7.9237   -6.9816    0.0000 C   0  0  0  0  0  0  0  0  0  0  0  0
    7.3521   -6.6516    0.0000 C   0  0  0  0  0  0  0  0  0  0  0  0
    6.7806   -6.9816    0.0000 C   0  0  0  0  0  0  0  0  0  0  0  0
    6.2090   -6.6516    0.0000 C   0  0  0  0  0  0  0  0  0  0  0  0
    5.6374   -6.9816    0.0000 C   0  0  0  0  0  0  0  0  0  0  0  0
    5.0658   -6.6516    0.0000 C   0  0  0  0  0  0  0  0  0  0  0  0
    4.4943   -6.9816    0.0000 C   0  0  0  0  0  0  0  0  0  0  0  0
    3.9227   -6.6516    0.0000 C   0  0  0  0  0  0  0  0  0  0  0  0
    3.3511   -6.9816    0.0000 C   0  0  0  0  0  0  0  0  0  0  0  0
    2.7795   -6.6516    0.0000 O   0  0  0  0  0  0  0  0  0  0  0  0
    2.2080   -6.9816    0.0000 C   0  0  0  0  0  0  0  0  0  0  0  0
    1.6364   -6.6516    0.0000 C   0  0  0  0  0  0  0  0  0  0  0  0
    3.3511   -7.6416    0.0000 O   0  0  0  0  0  0  0  0  0  0  0  0
  2  1  1  0  0  0  0
  3  2  1  0  0  0  0
  4  3  1  0  0  0  0
  5  4  1  0  0  0  0
  6  5  1  0  0  0  0
  7  6  1  0  0  0  0
  8  7  1  0  0  0  0
  9  8  1  0  0  0  0
 10  9  1  0  0  0  0
 11 10  1  0  0  0  0
 12 11  1  0  0  0  0
 13 12  1  0  0  0  0
 14 13  1  0  0  0  0
 15 14  1  0  0  0  0
 16 15  1  0  0  0  0
 17 16  1  0  0  0  0
 18 17  1  0  0  0  0
 19 18  1  0  0  0  0
 20 19  1  0  0  0  0
 21 20  2  0  0  0  0
 18 22  2  0  0  0  0
M  END
>  <cdx:fragmentId>
3

$$$$
