93033.cdx
  Mrv1902 05222410232D          

 28 31  0  0  0  0            999 V2000
    5.5672   -2.9735    0.0000 C   0  0  0  0  0  0  0  0  0  0  0  0
    5.0897   -3.6462    0.0000 C   0  0  0  0  0  0  0  0  0  0  0  0
    5.4336   -4.3961    0.0000 C   0  0  0  0  0  0  0  0  0  0  0  0
    6.2550   -4.4733    0.0000 C   0  0  0  0  0  0  0  0  0  0  0  0
    6.7325   -3.8005    0.0000 C   0  0  0  0  0  0  0  0  0  0  0  0
    6.3886   -3.0506    0.0000 C   0  0  0  0  0  0  0  0  0  0  0  0
    6.7473   -5.1353    0.0000 N   0  0  0  0  0  0  0  0  0  0  0  0
    7.5290   -4.8716    0.0000 C   0  0  0  0  0  0  0  0  0  0  0  0
    7.5199   -4.0467    0.0000 C   0  0  0  0  0  0  0  0  0  0  0  0
    8.2481   -5.2762    0.0000 C   0  0  2  0  0  0  0  0  0  0  0  0
    8.9579   -4.8558    0.0000 N   0  0  0  0  0  0  0  0  0  0  0  0
    8.9487   -4.0308    0.0000 C   0  0  0  0  0  0  0  0  0  0  0  0
    8.2297   -3.6263    0.0000 C   0  0  0  0  0  0  0  0  0  0  0  0
    8.2572   -6.1011    0.0000 C   0  0  0  0  0  0  0  0  0  0  0  0
    8.9762   -6.5057    0.0000 C   0  0  1  0  0  0  0  0  0  0  0  0
    9.6861   -6.0852    0.0000 C   0  0  0  0  0  0  0  0  0  0  0  0
    9.6769   -5.2603    0.0000 C   0  0  0  0  0  0  0  0  0  0  0  0
    7.5630   -8.9100    0.0000 C   0  0  0  0  0  0  0  0  0  0  0  0
   10.4142   -7.3147    0.0000 C   0  0  0  0  0  0  0  0  0  0  0  0
   10.4051   -6.4898    0.0000 C   0  0  0  0  0  0  0  0  0  0  0  0
    8.2775   -8.4975    0.0000 O   0  0  0  0  0  0  0  0  0  0  0  0
    7.5611   -7.3385    0.0000 O   0  0  0  0  0  0  0  0  0  0  0  0
    9.7136   -8.5601    0.0000 O   0  0  0  0  0  0  0  0  0  0  0  0
    9.7044   -7.7351    0.0000 C   0  0  0  0  0  0  0  0  0  0  0  0
   10.4326   -8.9646    0.0000 C   0  0  0  0  0  0  0  0  0  0  0  0
    8.2755   -7.7510    0.0000 C   0  0  0  0  0  0  0  0  0  0  0  0
    8.9854   -7.3306    0.0000 C   0  0  0  0  0  0  0  0  0  0  0  0
    7.5219   -5.6677    0.0000 H   0  0  0  0  0  0  0  0  0  0  0  0
  1  2  2  0  0  0  0
  2  3  1  0  0  0  0
  3  4  2  0  0  0  0
  4  5  1  0  0  0  0
  5  6  2  0  0  0  0
  6  1  1  0  0  0  0
  4  7  1  0  0  0  0
  7  8  1  0  0  0  0
  8  9  2  0  0  0  0
  9  5  1  0  0  0  0
  8 10  1  0  0  0  0
 10 11  1  0  0  0  0
 11 12  1  0  0  0  0
 12 13  1  0  0  0  0
 13  9  1  0  0  0  0
 10 14  1  0  0  0  0
 14 15  1  0  0  0  0
 15 16  1  0  0  0  0
 16 17  1  0  0  0  0
 17 11  1  0  0  0  0
 21 18  1  0  0  0  0
 15 27  1  1  0  0  0
 26 21  1  0  0  0  0
 19 20  1  0  0  0  0
 20 16  2  0  0  0  0
 26 22  2  0  0  0  0
 24 27  2  0  0  0  0
 23 24  1  0  0  0  0
 23 25  1  0  0  0  0
 27 26  1  0  0  0  0
 10 28  1  1  0  0  0
M  END
>  <cdx:fragmentId>
5

$$$$
