93045.cdx
  Mrv1902 05222410262D          

 34 36  0  0  0  0            999 V2000
    4.2740   -6.5861    0.0000 C   0  0  0  0  0  0  0  0  0  0  0  0
    4.9894   -6.9970    0.0000 C   0  0  0  0  0  0  0  0  0  0  0  0
    5.7029   -6.5829    0.0000 C   0  0  0  0  0  0  0  0  0  0  0  0
    5.7011   -5.7579    0.0000 C   0  0  0  0  0  0  0  0  0  0  0  0
    4.9857   -5.3470    0.0000 C   0  0  0  0  0  0  0  0  0  0  0  0
    4.2721   -5.7611    0.0000 C   0  0  0  0  0  0  0  0  0  0  0  0
    6.4183   -6.9939    0.0000 C   0  0  0  0  0  0  0  0  0  0  0  0
    7.1319   -6.5798    0.0000 C   0  0  0  0  0  0  0  0  0  0  0  0
    7.1300   -5.7548    0.0000 C   0  0  0  0  0  0  0  0  0  0  0  0
    6.4146   -5.3439    0.0000 O   0  3  0  0  0  0  0  0  0  0  0  0
    7.8472   -6.9907    0.0000 O   0  0  0  0  0  0  0  0  0  0  0  0
    8.5590   -5.7516    0.0000 C   0  0  0  0  0  0  0  0  0  0  0  0
    7.8436   -5.3407    0.0000 C   0  0  0  0  0  0  0  0  0  0  0  0
    9.2725   -5.3375    0.0000 C   0  0  0  0  0  0  0  0  0  0  0  0
    9.2707   -4.5125    0.0000 C   0  0  0  0  0  0  0  0  0  0  0  0
    8.5553   -4.1016    0.0000 C   0  0  0  0  0  0  0  0  0  0  0  0
    7.8417   -4.5157    0.0000 C   0  0  0  0  0  0  0  0  0  0  0  0
    7.1355   -8.2298    0.0000 O   0  0  0  0  0  0  0  0  0  0  0  0
    7.8491   -7.8157    0.0000 C   0  0  2  0  0  0  0  0  0  0  0  0
    7.1374   -9.0548    0.0000 C   0  0  1  0  0  0  0  0  0  0  0  0
    7.8528   -9.4657    0.0000 C   0  0  1  0  0  0  0  0  0  0  0  0
    8.5663   -9.0516    0.0000 C   0  0  1  0  0  0  0  0  0  0  0  0
    8.5645   -8.2266    0.0000 C   0  0  1  0  0  0  0  0  0  0  0  0
    6.4238   -9.4688    0.0000 C   0  0  0  0  0  0  0  0  0  0  0  0
    6.4257  -10.2938    0.0000 O   0  0  0  0  0  0  0  0  0  0  0  0
    7.8546  -10.2907    0.0000 O   0  0  0  0  0  0  0  0  0  0  0  0
    3.5567   -5.3502    0.0000 O   0  0  0  0  0  0  0  0  0  0  0  0
    4.9912   -7.8220    0.0000 O   0  0  0  0  0  0  0  0  0  0  0  0
    8.5534   -3.2766    0.0000 O   0  0  0  0  0  0  0  0  0  0  0  0
    9.9842   -4.0984    0.0000 O   0  0  0  0  0  0  0  0  0  0  0  0
    9.9879   -5.7484    0.0000 O   0  0  0  0  0  0  0  0  0  0  0  0
    9.2817   -9.4625    0.0000 O   0  0  0  0  0  0  0  0  0  0  0  0
    9.2780   -7.8125    0.0000 O   0  0  0  0  0  0  0  0  0  0  0  0
    6.3225   -4.6571    0.0000 Cl  0  5  0  0  0  0  0  0  0  0  0  0
  1  2  2  0  0  0  0
  2  3  1  0  0  0  0
  3  4  2  0  0  0  0
  4  5  1  0  0  0  0
  5  6  2  0  0  0  0
  6  1  1  0  0  0  0
  3  7  1  0  0  0  0
  7  8  2  0  0  0  0
  8  9  1  0  0  0  0
  9 10  2  0  0  0  0
 10  4  1  0  0  0  0
  8 11  1  0  0  0  0
 12 13  2  0  0  0  0
 13  9  1  0  0  0  0
 12 14  1  0  0  0  0
 14 15  2  0  0  0  0
 15 16  1  0  0  0  0
 16 17  2  0  0  0  0
 17 13  1  0  0  0  0
 18 19  1  0  0  0  0
 19 11  1  1  0  0  0
 18 20  1  0  0  0  0
 20 21  1  0  0  0  0
 21 22  1  0  0  0  0
 22 23  1  0  0  0  0
 23 19  1  0  0  0  0
 20 24  1  1  0  0  0
 24 25  1  0  0  0  0
 21 26  1  1  0  0  0
  6 27  1  0  0  0  0
  2 28  1  0  0  0  0
 16 29  1  0  0  0  0
 15 30  1  0  0  0  0
 14 31  1  0  0  0  0
 22 32  1  1  0  0  0
 23 33  1  6  0  0  0
M  CHG  2  10   1  34  -1
M  END
>  <cdx:fragmentId>
119

$$$$
