93041.cdx
  Mrv1902 05222410282D          

 26 28  0  0  0  0            999 V2000
    8.4384   -3.5337    0.0000 O   0  0  0  0  0  0  0  0  0  0  0  0
    7.0095   -9.3087    0.0000 O   0  0  0  0  0  0  0  0  0  0  0  0
    8.4384   -9.3087    0.0000 C   0  0  0  0  0  0  0  0  0  0  0  0
    8.4384   -8.4838    0.0000 O   0  0  0  0  0  0  0  0  0  0  0  0
    6.2950   -7.2462    0.0000 C   0  0  0  0  0  0  0  0  0  0  0  0
    6.2950   -8.0713    0.0000 C   0  0  0  0  0  0  0  0  0  0  0  0
    7.0095   -8.4838    0.0000 C   0  0  0  0  0  0  0  0  0  0  0  0
    7.7240   -8.0713    0.0000 C   0  0  0  0  0  0  0  0  0  0  0  0
    7.0095   -6.8338    0.0000 C   0  0  0  0  0  0  0  0  0  0  0  0
    7.7240   -7.2462    0.0000 C   0  0  0  0  0  0  0  0  0  0  0  0
    8.4384   -6.0087    0.0000 C   0  0  0  0  0  0  0  0  0  0  0  0
    9.1529   -5.5962    0.0000 O   0  0  0  0  0  0  0  0  0  0  0  0
    8.4384   -4.3587    0.0000 C   0  0  0  0  0  0  0  0  0  0  0  0
    4.1516   -6.0088    0.0000 O   0  0  0  0  0  0  0  0  0  0  0  0
    4.8661   -7.2462    0.0000 C   0  0  0  0  0  0  0  0  0  0  0  0
    5.5806   -6.8338    0.0000 O   0  0  0  0  0  0  0  0  0  0  0  0
    5.5806   -4.3587    0.0000 C   0  0  0  0  0  0  0  0  0  0  0  0
    4.8661   -4.7713    0.0000 C   0  0  0  0  0  0  0  0  0  0  0  0
    4.8661   -5.5962    0.0000 C   0  0  0  0  0  0  0  0  0  0  0  0
    5.5806   -6.0088    0.0000 C   0  0  0  0  0  0  0  0  0  0  0  0
    7.0095   -4.3587    0.0000 C   0  0  0  0  0  0  0  0  0  0  0  0
    6.2950   -4.7713    0.0000 C   0  0  0  0  0  0  0  0  0  0  0  0
    6.2950   -5.5962    0.0000 C   0  0  0  0  0  0  0  0  0  0  0  0
    7.0095   -6.0088    0.0000 C   0  0  1  0  0  0  0  0  0  0  0  0
    7.7240   -5.5962    0.0000 C   0  0  2  0  0  0  0  0  0  0  0  0
    7.7240   -4.7713    0.0000 C   0  0  0  0  0  0  0  0  0  0  0  0
 13  1  2  0  0  0  0
  2  7  1  0  0  0  0
  4  3  1  0  0  0  0
  8  4  1  0  0  0  0
  5  9  1  0  0  0  0
  6  5  2  0  0  0  0
  7  6  1  0  0  0  0
  8  7  2  0  0  0  0
 10  8  1  0  0  0  0
 24  9  1  1  0  0  0
 10  9  2  0  0  0  0
 25 11  1  6  0  0  0
 12 11  1  0  0  0  0
 26 13  1  0  0  0  0
 14 19  1  0  0  0  0
 16 15  1  0  0  0  0
 20 16  1  0  0  0  0
 17 22  1  0  0  0  0
 18 17  2  0  0  0  0
 19 18  1  0  0  0  0
 20 19  2  0  0  0  0
 23 20  1  0  0  0  0
 21 26  2  0  0  0  0
 22 21  1  0  0  0  0
 23 22  2  0  0  0  0
 24 23  1  0  0  0  0
 25 24  1  0  0  0  0
 26 25  1  0  0  0  0
M  END
>  <cdx:fragmentId>
5

$$$$
