93043.cdx
  Mrv1902 05222410272D          

 28 30  0  0  0  0            999 V2000
    5.6631   -5.4175    0.0000 C   0  0  0  0  0  0  0  0  0  0  0  0
    5.6631   -6.2425    0.0000 C   0  0  2  0  0  0  0  0  0  0  0  0
    6.3775   -6.6550    0.0000 C   0  0  1  0  0  0  0  0  0  0  0  0
    7.0920   -6.2425    0.0000 C   0  0  2  0  0  0  0  0  0  0  0  0
    7.0920   -5.4175    0.0000 C   0  0  1  0  0  0  0  0  0  0  0  0
    6.3775   -5.0050    0.0000 C   0  0  2  0  0  0  0  0  0  0  0  0
    7.8065   -6.6550    0.0000 C   0  0  0  0  0  0  0  0  0  0  0  0
    8.5209   -6.2425    0.0000 C   0  0  0  0  0  0  0  0  0  0  0  0
    8.5209   -5.4175    0.0000 C   0  0  0  0  0  0  0  0  0  0  0  0
    7.8065   -5.0050    0.0000 C   0  0  0  0  0  0  0  0  0  0  0  0
    7.3940   -4.2905    0.0000 C   0  0  0  0  0  0  0  0  0  0  0  0
    8.2190   -4.2905    0.0000 C   0  0  0  0  0  0  0  0  0  0  0  0
    6.3775   -4.1800    0.0000 O   0  0  0  0  0  0  0  0  0  0  0  0
    5.6631   -3.7675    0.0000 C   0  0  0  0  0  0  0  0  0  0  0  0
    5.6631   -2.9425    0.0000 C   0  0  0  0  0  0  0  0  0  0  0  0
    4.9486   -4.1800    0.0000 O   0  0  0  0  0  0  0  0  0  0  0  0
    5.9650   -7.3695    0.0000 C   0  0  0  0  0  0  0  0  0  0  0  0
    6.3775   -8.0839    0.0000 C   0  0  0  0  0  0  0  0  0  0  0  0
    5.9650   -8.7984    0.0000 C   0  0  0  0  0  0  0  0  0  0  0  0
    5.1445   -8.8846    0.0000 C   0  0  0  0  0  0  0  0  0  0  0  0
    4.9730   -9.6916    0.0000 C   0  0  0  0  0  0  0  0  0  0  0  0
    5.6875  -10.1041    0.0000 O   0  0  0  0  0  0  0  0  0  0  0  0
    6.3006   -9.5521    0.0000 C   0  0  0  0  0  0  0  0  0  0  0  0
    4.2193  -10.0272    0.0000 O   0  0  0  0  0  0  0  0  0  0  0  0
    4.9486   -6.6550    0.0000 C   0  0  0  0  0  0  0  0  0  0  0  0
    7.8065   -5.8300    0.0000 H   0  0  0  0  0  0  0  0  0  0  0  0
    6.7900   -7.3695    0.0000 O   0  0  0  0  0  0  0  0  0  0  0  0
    7.3055   -7.0394    0.0000 C   0  0  0  0  0  0  0  0  0  0  0  0
  1  2  1  0  0  0  0
  2  3  1  0  0  0  0
  3  4  1  0  0  0  0
  4  5  1  0  0  0  0
  5  6  1  0  0  0  0
  6  1  1  0  0  0  0
  4  7  1  0  0  0  0
  7  8  1  0  0  0  0
  8  9  1  0  0  0  0
  9 10  1  0  0  0  0
 10  5  1  0  0  0  0
 10 11  1  0  0  0  0
 10 12  1  0  0  0  0
  6 13  1  1  0  0  0
 13 14  1  0  0  0  0
 14 15  1  0  0  0  0
 14 16  2  0  0  0  0
  3 17  1  0  0  0  0
 17 18  1  0  0  0  0
 18 19  1  0  0  0  0
 19 20  2  0  0  0  0
 20 21  1  0  0  0  0
 21 22  1  0  0  0  0
 22 23  1  0  0  0  0
 23 19  1  0  0  0  0
 21 24  2  0  0  0  0
  2 25  1  6  0  0  0
  5 26  1  6  0  0  0
  3 27  1  6  0  0  0
  4 28  1  1  0  0  0
M  END
>  <cdx:fragmentId>
5

$$$$
