93048.cdx
  Mrv1902 05222410202D          

 54 59  0  0  0  0            999 V2000
    4.7418   -4.1113    0.0000 C   0  0  0  0  0  0  0  0  0  0  0  0
    4.7418   -4.9363    0.0000 C   0  0  0  0  0  0  0  0  0  0  0  0
    5.4563   -5.3487    0.0000 C   0  0  0  0  0  0  0  0  0  0  0  0
    6.1707   -4.9363    0.0000 C   0  0  0  0  0  0  0  0  0  0  0  0
    6.1707   -4.1113    0.0000 C   0  0  0  0  0  0  0  0  0  0  0  0
    5.4563   -3.6988    0.0000 C   0  0  0  0  0  0  0  0  0  0  0  0
    6.1707   -6.5863    0.0000 O   0  0  0  0  0  0  0  0  0  0  0  0
    6.8852   -6.1737    0.0000 C   0  0  0  0  0  0  0  0  0  0  0  0
    6.8852   -5.3487    0.0000 C   0  0  0  0  0  0  0  0  0  0  0  0
    7.5997   -6.5863    0.0000 C   0  0  0  0  0  0  0  0  0  0  0  0
    8.3142   -6.1737    0.0000 C   0  0  0  0  0  0  0  0  0  0  0  0
    8.3142   -5.3487    0.0000 C   0  0  0  0  0  0  0  0  0  0  0  0
    7.5997   -4.9363    0.0000 O   0  3  0  0  0  0  0  0  0  0  0  0
    9.0286   -6.5863    0.0000 C   0  0  0  0  0  0  0  0  0  0  0  0
    9.7431   -6.1737    0.0000 C   0  0  0  0  0  0  0  0  0  0  0  0
    9.7431   -5.3487    0.0000 C   0  0  0  0  0  0  0  0  0  0  0  0
    9.0286   -4.9363    0.0000 C   0  0  0  0  0  0  0  0  0  0  0  0
    9.0286   -7.4112    0.0000 O   0  0  0  0  0  0  0  0  0  0  0  0
    9.7431   -7.8237    0.0000 C   0  0  1  0  0  0  0  0  0  0  0  0
   10.4576   -7.4112    0.0000 C   0  0  0  0  0  0  0  0  0  0  0  0
   10.4576   -6.5863    0.0000 O   0  0  0  0  0  0  0  0  0  0  0  0
    9.7431   -8.6487    0.0000 O   0  0  0  0  0  0  0  0  0  0  0  0
   10.4576   -9.0612    0.0000 C   0  0  0  0  0  0  0  0  0  0  0  0
   11.1720   -8.6487    0.0000 C   0  0  2  0  0  0  0  0  0  0  0  0
   11.1720   -7.8237    0.0000 C   0  0  2  0  0  0  0  0  0  0  0  0
   10.4576   -9.8862    0.0000 C   0  0  0  0  0  0  0  0  0  0  0  0
   11.1720  -10.2987    0.0000 O   0  0  0  0  0  0  0  0  0  0  0  0
   11.8865   -9.0612    0.0000 O   0  0  0  0  0  0  0  0  0  0  0  0
    6.1707   -7.4112    0.0000 C   0  0  1  0  0  0  0  0  0  0  0  0
    6.8852   -7.8237    0.0000 C   0  0  0  0  0  0  0  0  0  0  0  0
    7.5997   -7.4112    0.0000 O   0  0  0  0  0  0  0  0  0  0  0  0
    5.4563   -7.8237    0.0000 O   0  0  0  0  0  0  0  0  0  0  0  0
    5.4563   -8.6487    0.0000 C   0  0  0  0  0  0  0  0  0  0  0  0
    6.1707   -9.0613    0.0000 C   0  0  2  0  0  0  0  0  0  0  0  0
    6.8852   -8.6487    0.0000 C   0  0  0  0  0  0  0  0  0  0  0  0
    4.7418   -9.0613    0.0000 C   0  0  0  0  0  0  0  0  0  0  0  0
    4.7418   -9.8863    0.0000 O   0  0  0  0  0  0  0  0  0  0  0  0
    6.1707   -9.8863    0.0000 O   0  0  0  0  0  0  0  0  0  0  0  0
    3.3129   -9.8863    0.0000 O   0  0  0  0  0  0  0  0  0  0  0  0
    4.0273  -10.2987    0.0000 C   0  0  2  0  0  0  0  0  0  0  0  0
    2.5984  -10.2987    0.0000 C   0  0  0  0  0  0  0  0  0  0  0  0
    2.5984  -11.1237    0.0000 C   0  0  1  0  0  0  0  0  0  0  0  0
    3.3129  -11.5362    0.0000 C   0  0  1  0  0  0  0  0  0  0  0  0
    4.0273  -11.1237    0.0000 C   0  0  0  0  0  0  0  0  0  0  0  0
    4.0273   -5.3487    0.0000 O   0  0  0  0  0  0  0  0  0  0  0  0
    4.0273   -3.6988    0.0000 O   0  0  0  0  0  0  0  0  0  0  0  0
    5.4563   -2.8738    0.0000 O   0  0  0  0  0  0  0  0  0  0  0  0
   10.4576   -4.9362    0.0000 O   0  0  0  0  0  0  0  0  0  0  0  0
    7.5997   -9.0613    0.0000 O   0  0  0  0  0  0  0  0  0  0  0  0
    1.8839   -9.8862    0.0000 C   0  0  0  0  0  0  0  0  0  0  0  0
    4.7418  -11.5362    0.0000 O   0  0  0  0  0  0  0  0  0  0  0  0
    3.3129  -12.3612    0.0000 O   0  0  0  0  0  0  0  0  0  0  0  0
    1.8839  -11.5362    0.0000 O   0  0  0  0  0  0  0  0  0  0  0  0
   11.8865   -7.4112    0.0000 O   0  0  0  0  0  0  0  0  0  0  0  0
  1  2  2  0  0  0  0
  2  3  1  0  0  0  0
  3  4  2  0  0  0  0
  4  5  1  0  0  0  0
  5  6  2  0  0  0  0
  6  1  1  0  0  0  0
  7  8  1  0  0  0  0
  8  9  2  0  0  0  0
  9  4  1  0  0  0  0
  8 10  1  0  0  0  0
 10 11  2  0  0  0  0
 11 12  1  0  0  0  0
 12 13  2  0  0  0  0
 13  9  1  0  0  0  0
 11 14  1  0  0  0  0
 14 15  2  0  0  0  0
 15 16  1  0  0  0  0
 16 17  2  0  0  0  0
 17 12  1  0  0  0  0
 14 18  1  0  0  0  0
 19 18  1  1  0  0  0
 19 20  1  0  0  0  0
 20 21  1  0  0  0  0
 19 22  1  0  0  0  0
 22 23  1  0  0  0  0
 23 24  1  0  0  0  0
 24 25  1  0  0  0  0
 25 20  1  0  0  0  0
 23 26  1  0  0  0  0
 26 27  1  0  0  0  0
 24 28  1  6  0  0  0
 29  7  1  1  0  0  0
 29 30  1  0  0  0  0
 30 31  1  0  0  0  0
 29 32  1  0  0  0  0
 32 33  1  0  0  0  0
 33 34  1  0  0  0  0
 34 35  1  0  0  0  0
 35 30  1  0  0  0  0
 33 36  1  0  0  0  0
 36 37  1  0  0  0  0
 34 38  1  6  0  0  0
 39 40  1  0  0  0  0
 40 37  1  1  0  0  0
 39 41  1  0  0  0  0
 41 42  1  0  0  0  0
 42 43  1  0  0  0  0
 43 44  1  0  0  0  0
 44 40  1  0  0  0  0
  2 45  1  0  0  0  0
  1 46  1  0  0  0  0
  6 47  1  0  0  0  0
 16 48  1  0  0  0  0
 35 49  1  0  0  0  0
 41 50  1  0  0  0  0
 44 51  1  0  0  0  0
 43 52  1  1  0  0  0
 42 53  1  1  0  0  0
 25 54  1  1  0  0  0
M  CHG  1  13   1
M  END
>  <cdx:fragmentId>
5

$$$$
