93047.cdx
  Mrv1902 05222410262D          

 50 54  0  0  0  0            999 V2000
    6.8326   -7.0420    0.0000 C   0  0  0  0  0  0  0  0  0  0  0  0
    7.5440   -7.4597    0.0000 C   0  0  0  0  0  0  0  0  0  0  0  0
    8.2615   -7.0523    0.0000 C   0  0  0  0  0  0  0  0  0  0  0  0
    8.2675   -6.2274    0.0000 C   0  0  0  0  0  0  0  0  0  0  0  0
    7.5560   -5.8097    0.0000 C   0  0  0  0  0  0  0  0  0  0  0  0
    6.8385   -6.2170    0.0000 C   0  0  0  0  0  0  0  0  0  0  0  0
    8.9729   -7.4700    0.0000 C   0  0  0  0  0  0  0  0  0  0  0  0
    9.6904   -7.0627    0.0000 C   0  0  0  0  0  0  0  0  0  0  0  0
    9.6964   -6.2377    0.0000 C   0  0  0  0  0  0  0  0  0  0  0  0
    8.9849   -5.8200    0.0000 O   0  3  0  0  0  0  0  0  0  0  0  0
   10.4018   -7.4804    0.0000 O   0  0  0  0  0  0  0  0  0  0  0  0
   11.1253   -6.2481    0.0000 C   0  0  0  0  0  0  0  0  0  0  0  0
   10.4138   -5.8304    0.0000 C   0  0  0  0  0  0  0  0  0  0  0  0
   11.8427   -5.8407    0.0000 C   0  0  0  0  0  0  0  0  0  0  0  0
   11.8487   -5.0158    0.0000 C   0  0  0  0  0  0  0  0  0  0  0  0
   11.1372   -4.5981    0.0000 C   0  0  0  0  0  0  0  0  0  0  0  0
   10.4198   -5.0054    0.0000 C   0  0  0  0  0  0  0  0  0  0  0  0
    9.6784   -8.7126    0.0000 O   0  0  0  0  0  0  0  0  0  0  0  0
   10.3959   -8.3053    0.0000 C   0  0  2  0  0  0  0  0  0  0  0  0
    9.6725   -9.5376    0.0000 C   0  0  1  0  0  0  0  0  0  0  0  0
   10.3839   -9.9553    0.0000 C   0  0  2  0  0  0  0  0  0  0  0  0
   11.1014   -9.5480    0.0000 C   0  0  1  0  0  0  0  0  0  0  0  0
   11.1073   -8.7230    0.0000 C   0  0  1  0  0  0  0  0  0  0  0  0
    8.9550   -9.9449    0.0000 C   0  0  0  0  0  0  0  0  0  0  0  0
    8.9490  -10.7699    0.0000 O   0  0  0  0  0  0  0  0  0  0  0  0
   10.3779  -10.7803    0.0000 O   0  0  0  0  0  0  0  0  0  0  0  0
    6.1271   -5.7993    0.0000 O   0  0  0  0  0  0  0  0  0  0  0  0
   11.1432   -3.7731    0.0000 O   0  0  0  0  0  0  0  0  0  0  0  0
   12.5661   -4.6085    0.0000 O   0  0  0  0  0  0  0  0  0  0  0  0
   12.5542   -6.2584    0.0000 O   0  0  0  0  0  0  0  0  0  0  0  0
   11.8128   -9.9656    0.0000 O   0  0  0  0  0  0  0  0  0  0  0  0
   11.8248   -8.3157    0.0000 O   0  0  0  0  0  0  0  0  0  0  0  0
    7.5341   -8.2966    0.0000 O   0  0  0  0  0  0  0  0  0  0  0  0
    6.1052   -8.2824    0.0000 O   0  0  0  0  0  0  0  0  0  0  0  0
    6.8155   -8.7020    0.0000 C   0  0  2  0  0  0  0  0  0  0  0  0
    5.3867   -8.6878    0.0000 C   0  0  1  0  0  0  0  0  0  0  0  0
    5.3785   -9.5128    0.0000 C   0  0  2  0  0  0  0  0  0  0  0  0
    6.0888   -9.9324    0.0000 C   0  0  1  0  0  0  0  0  0  0  0  0
    6.8073   -9.5270    0.0000 C   0  0  1  0  0  0  0  0  0  0  0  0
    4.6763   -8.2682    0.0000 C   0  0  0  0  0  0  0  0  0  0  0  0
    3.9578   -8.6736    0.0000 O   0  0  0  0  0  0  0  0  0  0  0  0
    4.6599   -9.9182    0.0000 O   0  0  0  0  0  0  0  0  0  0  0  0
    6.0806  -10.7573    0.0000 O   0  0  0  0  0  0  0  0  0  0  0  0
    7.5177   -9.9465    0.0000 O   0  0  0  0  0  0  0  0  0  0  0  0
    3.2474   -8.2541    0.0000 C   0  0  0  0  0  0  0  0  0  0  0  0
    2.5289   -8.6595    0.0000 C   0  0  0  0  0  0  0  0  0  0  0  0
    1.8186   -8.2399    0.0000 C   0  0  0  0  0  0  0  0  0  0  0  0
    1.1000   -8.6453    0.0000 O   0  0  0  0  0  0  0  0  0  0  0  0
    1.8268   -7.4149    0.0000 O   0  0  0  0  0  0  0  0  0  0  0  0
    3.2556   -7.4291    0.0000 O   0  0  0  0  0  0  0  0  0  0  0  0
  1  2  2  0  0  0  0
  2  3  1  0  0  0  0
  3  4  2  0  0  0  0
  4  5  1  0  0  0  0
  5  6  2  0  0  0  0
  6  1  1  0  0  0  0
  3  7  1  0  0  0  0
  7  8  2  0  0  0  0
  8  9  1  0  0  0  0
  9 10  2  0  0  0  0
 10  4  1  0  0  0  0
  8 11  1  0  0  0  0
 12 13  2  0  0  0  0
 13  9  1  0  0  0  0
 12 14  1  0  0  0  0
 14 15  2  0  0  0  0
 15 16  1  0  0  0  0
 16 17  2  0  0  0  0
 17 13  1  0  0  0  0
 18 19  1  0  0  0  0
 19 11  1  1  0  0  0
 18 20  1  0  0  0  0
 20 21  1  0  0  0  0
 21 22  1  0  0  0  0
 22 23  1  0  0  0  0
 23 19  1  0  0  0  0
 20 24  1  1  0  0  0
 24 25  1  0  0  0  0
 21 26  1  6  0  0  0
  6 27  1  0  0  0  0
 16 28  1  0  0  0  0
 15 29  1  0  0  0  0
 14 30  1  0  0  0  0
 22 31  1  1  0  0  0
 23 32  1  6  0  0  0
 34 35  1  0  0  0  0
 35 33  1  1  0  0  0
 34 36  1  0  0  0  0
 36 37  1  0  0  0  0
 37 38  1  0  0  0  0
 38 39  1  0  0  0  0
 39 35  1  0  0  0  0
 36 40  1  1  0  0  0
 40 41  1  0  0  0  0
 37 42  1  6  0  0  0
 38 43  1  1  0  0  0
 39 44  1  6  0  0  0
  2 33  1  0  0  0  0
 41 45  1  0  0  0  0
 45 46  1  0  0  0  0
 46 47  1  0  0  0  0
 47 48  1  0  0  0  0
 47 49  2  0  0  0  0
 45 50  2  0  0  0  0
M  CHG  1  10   1
M  END
>  <cdx:fragmentId>
5

$$$$
