93049.cdx
  Mrv1902 05222410202D          

 23 25  0  0  0  0            999 V2000
    4.5218   -7.1775    0.0000 C   0  0  0  0  0  0  0  0  0  0  0  0
    4.5218   -8.0025    0.0000 C   0  0  0  0  0  0  0  0  0  0  0  0
    5.2363   -8.4150    0.0000 C   0  0  0  0  0  0  0  0  0  0  0  0
    5.9507   -8.0025    0.0000 C   0  0  0  0  0  0  0  0  0  0  0  0
    5.9507   -7.1775    0.0000 C   0  0  0  0  0  0  0  0  0  0  0  0
    5.2363   -6.7650    0.0000 C   0  0  0  0  0  0  0  0  0  0  0  0
    6.6652   -8.4150    0.0000 C   0  0  0  0  0  0  0  0  0  0  0  0
    7.3797   -8.0025    0.0000 O   0  0  0  0  0  0  0  0  0  0  0  0
    7.3797   -7.1775    0.0000 C   0  0  1  0  0  0  0  0  0  0  0  0
    6.6652   -6.7650    0.0000 C   0  0  1  0  0  0  0  0  0  0  0  0
    8.0942   -6.7650    0.0000 C   0  0  2  0  0  0  0  0  0  0  0  0
    8.0942   -5.9400    0.0000 C   0  0  1  0  0  0  0  0  0  0  0  0
    7.3797   -5.5275    0.0000 C   0  0  2  0  0  0  0  0  0  0  0  0
    6.6652   -5.9400    0.0000 O   0  0  0  0  0  0  0  0  0  0  0  0
    7.3797   -4.7025    0.0000 C   0  0  0  0  0  0  0  0  0  0  0  0
    6.6652   -4.2900    0.0000 O   0  0  0  0  0  0  0  0  0  0  0  0
    5.2363   -5.9400    0.0000 O   0  0  0  0  0  0  0  0  0  0  0  0
    3.8073   -8.4150    0.0000 O   0  0  0  0  0  0  0  0  0  0  0  0
    6.6652   -9.2400    0.0000 O   0  0  0  0  0  0  0  0  0  0  0  0
    7.3797   -6.3525    0.0000 H   0  0  0  0  0  0  0  0  0  0  0  0
    8.8086   -7.1775    0.0000 O   0  0  0  0  0  0  0  0  0  0  0  0
    8.8086   -5.5275    0.0000 O   0  0  0  0  0  0  0  0  0  0  0  0
    6.6652   -7.5900    0.0000 H   0  0  0  0  0  0  0  0  0  0  0  0
  1  2  2  0  0  0  0
  2  3  1  0  0  0  0
  3  4  2  0  0  0  0
  4  5  1  0  0  0  0
  5  6  2  0  0  0  0
  6  1  1  0  0  0  0
  4  7  1  0  0  0  0
  7  8  1  0  0  0  0
  8  9  1  0  0  0  0
  9 10  1  0  0  0  0
 10  5  1  0  0  0  0
  9 11  1  0  0  0  0
 11 12  1  0  0  0  0
 12 13  1  0  0  0  0
 13 14  1  0  0  0  0
 14 10  1  0  0  0  0
 13 15  1  6  0  0  0
 15 16  1  0  0  0  0
  6 17  1  0  0  0  0
  2 18  1  0  0  0  0
  7 19  2  0  0  0  0
  9 20  1  6  0  0  0
 11 21  1  6  0  0  0
 12 22  1  1  0  0  0
 10 23  1  1  0  0  0
M  END
>  <cdx:fragmentId>
5

$$$$
