93040.cdx
  Mrv1902 05222410282D          

 15 14  0  0  0  0            999 V2000
    6.3225   -7.1500    0.0000 C   0  0  0  0  0  0  0  0  0  0  0  0
    7.0370   -6.7375    0.0000 C   0  0  2  0  0  0  0  0  0  0  0  0
    7.7515   -7.1500    0.0000 C   0  0  0  0  0  0  0  0  0  0  0  0
    8.4659   -6.7375    0.0000 N   0  0  0  0  0  0  0  0  0  0  0  0
    9.1804   -7.1500    0.0000 C   0  0  0  0  0  0  0  0  0  0  0  0
    9.8949   -6.7375    0.0000 C   0  0  0  0  0  0  0  0  0  0  0  0
   10.6094   -7.1500    0.0000 C   0  0  0  0  0  0  0  0  0  0  0  0
   11.3238   -6.7375    0.0000 O   0  0  0  0  0  0  0  0  0  0  0  0
   10.6094   -7.9750    0.0000 O   0  0  0  0  0  0  0  0  0  0  0  0
    7.7515   -7.9750    0.0000 O   0  0  0  0  0  0  0  0  0  0  0  0
    5.6081   -7.5625    0.0000 C   0  0  0  0  0  0  0  0  0  0  0  0
    5.9100   -6.4355    0.0000 C   0  0  0  0  0  0  0  0  0  0  0  0
    6.7350   -7.8645    0.0000 C   0  0  0  0  0  0  0  0  0  0  0  0
    4.8936   -7.1500    0.0000 O   0  0  0  0  0  0  0  0  0  0  0  0
    7.0370   -5.9125    0.0000 O   0  0  0  0  0  0  0  0  0  0  0  0
  1  2  1  0  0  0  0
  2  3  1  0  0  0  0
  3  4  1  0  0  0  0
  4  5  1  0  0  0  0
  5  6  1  0  0  0  0
  6  7  1  0  0  0  0
  7  8  1  0  0  0  0
  7  9  2  0  0  0  0
  3 10  2  0  0  0  0
  1 11  1  0  0  0  0
  1 12  1  0  0  0  0
  1 13  1  0  0  0  0
 11 14  1  0  0  0  0
  2 15  1  1  0  0  0
M  END
>  <cdx:fragmentId>
3

$$$$
