93046.cdx
  Mrv1902 05222410272D          

 13 15  0  0  0  0            999 V2000
    5.3793   -9.1114    0.0000 O   0  0  0  0  0  0  0  0  0  0  0  0
    7.7168   -6.9246    0.0000 H   0  0  0  0  0  0  0  0  0  0  0  0
    6.5130   -8.8745    0.0000 H   0  0  0  0  0  0  0  0  0  0  0  0
    8.7725   -8.1675    0.0000 C   0  0  0  0  0  0  0  0  0  0  0  0
    8.1400   -8.9370    0.0000 C   0  0  0  0  0  0  0  0  0  0  0  0
    6.2043   -9.1114    0.0000 C   0  0  0  0  0  0  0  0  0  0  0  0
    6.5725   -6.3250    0.0000 C   0  0  0  0  0  0  0  0  0  0  0  0
    6.5130   -8.0495    0.0000 C   0  0  1  0  0  0  0  0  0  0  0  0
    7.1334   -7.5079    0.0000 C   0  0  2  0  0  0  0  0  0  0  0  0
    7.9475   -8.1675    0.0000 C   0  0  0  0  0  0  0  0  0  0  0  0
    5.7232   -7.5006    0.0000 C   0  0  0  0  0  0  0  0  0  0  0  0
    5.0969   -7.9984    0.0000 C   0  0  0  0  0  0  0  0  0  0  0  0
    5.7918   -8.3970    0.0000 C   0  0  0  0  0  0  0  0  0  0  0  0
  1  6  1  0  0  0  0
 13  1  1  0  0  0  0
  9  2  1  1  0  0  0
  8  3  1  6  0  0  0
 10  4  1  0  0  0  0
 10  5  1  0  0  0  0
 13  6  1  0  0  0  0
  8  7  1  0  0  0  0
  9 11  1  0  0  0  0
  9 10  1  0  0  0  0
  8 10  1  0  0  0  0
  9  7  1  0  0  0  0
 12 11  1  0  0  0  0
 13 12  1  0  0  0  0
  8 13  1  0  0  0  0
M  END
>  <cdx:fragmentId>
871

$$$$
