93044.cdx
  Mrv1902 05222410262D          

 21 23  0  0  0  0            999 V2000
    4.9893   -7.8100    0.0000 C   0  0  0  0  0  0  0  0  0  0  0  0
    4.9893   -8.6350    0.0000 C   0  0  0  0  0  0  0  0  0  0  0  0
    5.7038   -9.0475    0.0000 C   0  0  0  0  0  0  0  0  0  0  0  0
    6.4182   -8.6350    0.0000 C   0  0  2  0  0  0  0  0  0  0  0  0
    6.4182   -7.8100    0.0000 C   0  0  2  0  0  0  0  0  0  0  0  0
    5.7038   -7.3975    0.0000 C   0  0  0  0  0  0  0  0  0  0  0  0
    7.1327   -9.0475    0.0000 C   0  0  0  0  0  0  0  0  0  0  0  0
    7.8472   -8.6350    0.0000 C   0  0  0  0  0  0  0  0  0  0  0  0
    7.8472   -7.8100    0.0000 C   0  0  0  0  0  0  0  0  0  0  0  0
    7.1327   -7.3975    0.0000 C   0  0  0  0  0  0  0  0  0  0  0  0
    8.5617   -7.3975    0.0000 C   0  0  0  0  0  0  0  0  0  0  0  0
    8.5617   -6.5725    0.0000 C   0  0  0  0  0  0  0  0  0  0  0  0
    7.8472   -6.1600    0.0000 C   0  0  0  0  0  0  0  0  0  0  0  0
    7.1327   -6.5725    0.0000 C   0  0  0  0  0  0  0  0  0  0  0  0
    4.2748   -9.0475    0.0000 O   0  0  0  0  0  0  0  0  0  0  0  0
    5.7038   -6.5725    0.0000 O   0  0  0  0  0  0  0  0  0  0  0  0
    4.9893   -6.1600    0.0000 C   0  0  0  0  0  0  0  0  0  0  0  0
    6.4182   -6.1600    0.0000 O   0  0  0  0  0  0  0  0  0  0  0  0
    8.5617   -9.0475    0.0000 O   0  0  0  0  0  0  0  0  0  0  0  0
    6.4182   -9.4600    0.0000 H   0  0  0  0  0  0  0  0  0  0  0  0
    6.4182   -6.9850    0.0000 O   0  0  0  0  0  0  0  0  0  0  0  0
  1  2  1  0  0  0  0
  2  3  1  0  0  0  0
  3  4  1  0  0  0  0
  4  5  1  0  0  0  0
  5  6  1  0  0  0  0
  6  1  2  0  0  0  0
  4  7  1  0  0  0  0
  7  8  1  0  0  0  0
  8  9  1  0  0  0  0
  9 10  1  0  0  0  0
 10  5  1  0  0  0  0
  9 11  2  0  0  0  0
 11 12  1  0  0  0  0
 12 13  2  0  0  0  0
 13 14  1  0  0  0  0
 14 10  2  0  0  0  0
  2 15  2  0  0  0  0
  6 16  1  0  0  0  0
 16 17  1  0  0  0  0
 14 18  1  0  0  0  0
  8 19  2  0  0  0  0
  4 20  1  1  0  0  0
  5 21  1  1  0  0  0
M  END
>  <cdx:fragmentId>
5

$$$$
