93053.cdx
  Mrv1902 05222410262D          

 14 16  0  0  0  0            999 V2000
    5.8281   -6.1737    0.0000 C   0  0  0  0  0  0  0  0  0  0  0  0
    5.8281   -6.9988    0.0000 C   0  0  0  0  0  0  0  0  0  0  0  0
    6.5425   -7.4112    0.0000 C   0  0  0  0  0  0  0  0  0  0  0  0
    7.2570   -6.9988    0.0000 C   0  0  1  0  0  0  0  0  0  0  0  0
    7.2570   -6.1737    0.0000 C   0  0  2  0  0  0  0  0  0  0  0  0
    6.5425   -5.7612    0.0000 C   0  0  0  0  0  0  0  0  0  0  0  0
    6.5425   -6.5863    0.0000 C   0  0  0  0  0  0  0  0  0  0  0  0
    7.2570   -7.8237    0.0000 O   0  0  0  0  0  0  0  0  0  0  0  0
    7.9715   -5.7612    0.0000 H   0  0  0  0  0  0  0  0  0  0  0  0
    8.0820   -6.9988    0.0000 C   0  0  0  0  0  0  0  0  0  0  0  0
    8.4945   -7.7132    0.0000 O   0  0  0  0  0  0  0  0  0  0  0  0
    9.3195   -7.7132    0.0000 C   0  0  0  0  0  0  0  0  0  0  0  0
    5.9400   -7.5350    0.0000 C   0  0  0  0  0  0  0  0  0  0  0  0
    7.0675   -7.5080    0.0000 C   0  0  0  0  0  0  0  0  0  0  0  0
  1  2  1  0  0  0  0
  2  3  1  0  0  0  0
  3  4  1  0  0  0  0
  4  5  1  0  0  0  0
  5  6  1  0  0  0  0
  6  1  1  0  0  0  0
  1  7  1  0  0  0  0
  7  5  1  0  0  0  0
  3  8  1  0  0  0  0
  8  4  1  0  0  0  0
  5  9  1  6  0  0  0
  4 10  1  6  0  0  0
 10 11  1  0  0  0  0
 11 12  1  0  0  0  0
 13  7  1  0  0  0  0
 14  7  1  0  0  0  0
M  END
>  <cdx:fragmentId>
5

$$$$
