93056.cdx
  Mrv1902 05222410272D          

 20 23  0  0  0  0            999 V2000
    4.3524   -7.7094    0.0000 C   0  0  0  0  0  0  0  0  0  0  0  0
    4.1808   -8.5164    0.0000 C   0  0  0  0  0  0  0  0  0  0  0  0
    4.7938   -9.0685    0.0000 C   0  0  0  0  0  0  0  0  0  0  0  0
    5.5784   -8.8137    0.0000 C   0  0  0  0  0  0  0  0  0  0  0  0
    5.7501   -8.0068    0.0000 C   0  0  0  0  0  0  0  0  0  0  0  0
    5.1371   -7.4546    0.0000 C   0  0  0  0  0  0  0  0  0  0  0  0
    3.6380   -7.2968    0.0000 O   0  0  0  0  0  0  0  0  0  0  0  0
    3.0248   -7.8487    0.0000 C   0  0  0  0  0  0  0  0  0  0  0  0
    3.3603   -8.6025    0.0000 O   0  0  0  0  0  0  0  0  0  0  0  0
    6.5348   -7.7520    0.0000 C   0  0  2  0  0  0  0  0  0  0  0  0
    7.2021   -8.2370    0.0000 O   0  0  0  0  0  0  0  0  0  0  0  0
    7.8696   -7.7522    0.0000 C   0  0  0  0  0  0  0  0  0  0  0  0
    7.6148   -6.9676    0.0000 C   0  0  1  0  0  0  0  0  0  0  0  0
    6.7898   -6.9674    0.0000 C   0  0  2  0  0  0  0  0  0  0  0  0
    7.8699   -6.1830    0.0000 C   0  0  0  0  0  0  0  0  0  0  0  0
    7.2026   -5.6979    0.0000 O   0  0  0  0  0  0  0  0  0  0  0  0
    6.5350   -6.1827    0.0000 C   0  0  0  0  0  0  0  0  0  0  0  0
    8.6546   -5.9282    0.0000 O   0  0  0  0  0  0  0  0  0  0  0  0
    5.9648   -6.9673    0.0000 H   0  0  0  0  0  0  0  0  0  0  0  0
    8.4398   -6.9677    0.0000 H   0  0  0  0  0  0  0  0  0  0  0  0
  1  2  2  0  0  0  0
  2  3  1  0  0  0  0
  3  4  2  0  0  0  0
  4  5  1  0  0  0  0
  5  6  2  0  0  0  0
  6  1  1  0  0  0  0
  1  7  1  0  0  0  0
  7  8  1  0  0  0  0
  8  9  1  0  0  0  0
  9  2  1  0  0  0  0
 10  5  1  1  0  0  0
 10 11  1  0  0  0  0
 11 12  1  0  0  0  0
 12 13  1  0  0  0  0
 13 14  1  0  0  0  0
 14 10  1  0  0  0  0
 13 15  1  0  0  0  0
 15 16  1  0  0  0  0
 16 17  1  0  0  0  0
 17 14  1  0  0  0  0
 15 18  2  0  0  0  0
 14 19  1  6  0  0  0
 13 20  1  6  0  0  0
M  END
>  <cdx:fragmentId>
5

$$$$
