93058.cdx
  Mrv1902 05222410182D          

 11 10  0  0  0  0            999 V2000
    9.4401   -7.0812    0.0000 C   0  0  0  0  0  0  0  0  0  0  0  0
    8.7256   -6.6688    0.0000 C   0  0  0  0  0  0  0  0  0  0  0  0
    8.0111   -7.0812    0.0000 C   0  0  0  0  0  0  0  0  0  0  0  0
    7.2967   -6.6688    0.0000 C   0  0  0  0  0  0  0  0  0  0  0  0
    6.5822   -7.0812    0.0000 C   0  0  2  0  0  0  0  0  0  0  0  0
    5.8677   -6.6688    0.0000 C   0  0  0  0  0  0  0  0  0  0  0  0
    5.1532   -7.0812    0.0000 C   0  0  0  0  0  0  0  0  0  0  0  0
    4.4388   -6.6688    0.0000 C   0  0  0  0  0  0  0  0  0  0  0  0
    5.1532   -7.9063    0.0000 C   0  0  0  0  0  0  0  0  0  0  0  0
    8.0111   -7.9063    0.0000 C   0  0  0  0  0  0  0  0  0  0  0  0
    6.5822   -7.9063    0.0000 O   0  0  0  0  0  0  0  0  0  0  0  0
  2  1  2  0  0  0  0
  3  2  1  0  0  0  0
  4  3  1  0  0  0  0
  5  4  1  0  0  0  0
  6  5  1  0  0  0  0
  7  6  2  0  0  0  0
  8  7  1  0  0  0  0
  7  9  1  0  0  0  0
  3 10  2  0  0  0  0
  5 11  1  1  0  0  0
M  END
>  <cdx:fragmentId>
3

$$$$
