93052.cdx
  Mrv1902 05222410272D          

 29 32  0  0  0  0            999 V2000
    6.7842   -6.5863    0.0000 C   0  0  1  0  0  0  0  0  0  0  0  0
    6.7842   -7.4112    0.0000 C   0  0  0  0  0  0  0  0  0  0  0  0
    7.3675   -7.9946    0.0000 C   0  0  2  0  0  0  0  0  0  0  0  0
    8.2750   -7.9259    0.0000 C   0  0  1  0  0  0  0  0  0  0  0  0
    8.7759   -6.5863    0.0000 C   0  0  0  0  0  0  0  0  0  0  0  0
    8.1925   -6.0029    0.0000 C   0  0  0  0  0  0  0  0  0  0  0  0
    7.3675   -6.0029    0.0000 C   0  0  0  0  0  0  0  0  0  0  0  0
    5.9995   -6.3313    0.0000 C   0  0  0  0  0  0  0  0  0  0  0  0
    5.5146   -6.9988    0.0000 C   0  0  1  0  0  0  0  0  0  0  0  0
    5.9995   -7.6662    0.0000 C   0  0  2  0  0  0  0  0  0  0  0  0
    9.6000   -6.5480    0.0000 C   0  0  2  0  0  0  0  0  0  0  0  0
   10.0452   -7.2426    0.0000 C   0  0  2  0  0  0  0  0  0  0  0  0
    9.8688   -8.0485    0.0000 C   0  0  0  0  0  0  0  0  0  0  0  0
    9.0827   -8.2988    0.0000 C   0  0  0  0  0  0  0  0  0  0  0  0
    8.5082   -5.2407    0.0000 C   0  0  0  0  0  0  0  0  0  0  0  0
   10.4250   -6.5480    0.0000 C   0  0  0  0  0  0  0  0  0  0  0  0
   10.8375   -5.8335    0.0000 C   0  0  0  0  0  0  0  0  0  0  0  0
    7.8808   -8.7462    0.0000 O   0  0  0  0  0  0  0  0  0  0  0  0
    5.7446   -8.4508    0.0000 O   0  0  0  0  0  0  0  0  0  0  0  0
    4.6896   -6.9988    0.0000 C   0  0  0  0  0  0  0  0  0  0  0  0
    6.5706   -5.7894    0.0000 O   0  0  0  0  0  0  0  0  0  0  0  0
   11.2500   -6.5480    0.0000 C   0  0  0  0  0  0  0  0  0  0  0  0
    7.0518   -5.2407    0.0000 O   0  0  0  0  0  0  0  0  0  0  0  0
    8.6875   -7.2114    0.0000 C   0  0  0  0  0  0  0  0  0  0  0  0
    5.8562   -5.3769    0.0000 C   0  0  0  0  0  0  0  0  0  0  0  0
    5.8562   -4.5519    0.0000 O   0  0  0  0  0  0  0  0  0  0  0  0
    5.1417   -5.7894    0.0000 C   0  0  0  0  0  0  0  0  0  0  0  0
    9.3865   -5.7511    0.0000 H   0  0  0  0  0  0  0  0  0  0  0  0
   10.7597   -7.6551    0.0000 H   0  0  0  0  0  0  0  0  0  0  0  0
  1  2  1  0  0  0  0
  2  3  1  0  0  0  0
  3  4  1  0  0  0  0
  5  6  2  0  0  0  0
  6  7  1  0  0  0  0
  7  1  1  0  0  0  0
  1  8  1  0  0  0  0
  8  9  1  0  0  0  0
  9 10  1  0  0  0  0
 10  2  1  0  0  0  0
  5 11  1  0  0  0  0
 11 12  1  0  0  0  0
 12 13  1  0  0  0  0
 13 14  1  0  0  0  0
  4 14  1  0  0  0  0
  6 15  1  0  0  0  0
 11 16  1  0  0  0  0
 12 16  1  0  0  0  0
 16 17  1  0  0  0  0
  3 18  1  6  0  0  0
  4 18  1  1  0  0  0
 10 19  1  1  0  0  0
  9 20  1  1  0  0  0
  1 21  1  1  0  0  0
 16 22  1  0  0  0  0
  7 23  2  0  0  0  0
  4 24  1  6  0  0  0
 21 25  1  0  0  0  0
 25 26  2  0  0  0  0
 25 27  1  0  0  0  0
 11 28  1  6  0  0  0
 12 29  1  6  0  0  0
M  END
>  <cdx:fragmentId>
5

$$$$
