93055.cdx
  Mrv1902 05222410282D          

 17 18  0  0  0  0            999 V2000
    8.6702   -7.3085    0.0000 C   0  0  0  0  0  0  0  0  0  0  0  0
    8.0408   -7.8419    0.0000 C   0  0  0  0  0  0  0  0  0  0  0  0
    7.2642   -7.5636    0.0000 C   0  0  0  0  0  0  0  0  0  0  0  0
    6.6349   -8.0970    0.0000 C   0  0  0  0  0  0  0  0  0  0  0  0
    4.3108  -10.2348    0.0000 O   0  0  0  0  0  0  0  0  0  0  0  0
    3.7320   -8.0101    0.0000 C   0  0  0  0  0  0  0  0  0  0  0  0
    4.3375   -6.3205    0.0000 C   0  0  0  0  0  0  0  0  0  0  0  0
    6.1316   -6.3742    0.0000 O   0  0  0  0  0  0  0  0  0  0  0  0
    5.8582   -7.8187    0.0000 C   0  0  2  0  0  0  0  0  0  0  0  0
    5.6269   -7.0268    0.0000 C   0  0  0  0  0  0  0  0  0  0  0  0
    4.8023   -7.0021    0.0000 C   0  0  0  0  0  0  0  0  0  0  0  0
    4.5239   -7.7788    0.0000 C   0  0  0  0  0  0  0  0  0  0  0  0
    5.1766   -8.2835    0.0000 C   0  0  1  0  0  0  0  0  0  0  0  0
    4.5171   -8.7792    0.0000 O   0  0  0  0  0  0  0  0  0  0  0  0
    4.7848   -9.5595    0.0000 C   0  0  0  0  0  0  0  0  0  0  0  0
    5.6097   -9.5461    0.0000 C   0  0  0  0  0  0  0  0  0  0  0  0
    5.8518   -8.7575    0.0000 C   0  0  0  0  0  0  0  0  0  0  0  0
  2  1  1  0  0  0  0
  3  2  1  0  0  0  0
  4  3  1  0  0  0  0
  9  4  1  1  0  0  0
 15  5  2  0  0  0  0
 12  6  1  0  0  0  0
 11  7  1  0  0  0  0
 10  8  2  0  0  0  0
  9 13  1  0  0  0  0
 10  9  1  0  0  0  0
 11 10  1  0  0  0  0
 12 11  2  0  0  0  0
 13 12  1  0  0  0  0
 13 17  1  1  0  0  0
 13 14  1  6  0  0  0
 15 14  1  0  0  0  0
 16 15  1  0  0  0  0
 17 16  1  0  0  0  0
M  END
>  <cdx:fragmentId>
5

$$$$
