93066.cdx
  Mrv1902 05222410182D          

 26 29  0  0  0  0            999 V2000
    5.7410   -6.8338    0.0000 C   0  0  1  0  0  0  0  0  0  0  0  0
    5.7410   -7.6587    0.0000 C   0  0  1  0  0  0  0  0  0  0  0  0
    6.3860   -8.1731    0.0000 C   0  0  2  0  0  0  0  0  0  0  0  0
    7.1903   -7.9895    0.0000 C   0  0  0  0  0  0  0  0  0  0  0  0
    7.5482   -7.2462    0.0000 C   0  0  0  0  0  0  0  0  0  0  0  0
    7.1903   -6.5030    0.0000 C   0  0  0  0  0  0  0  0  0  0  0  0
    6.3860   -6.3194    0.0000 C   0  0  2  0  0  0  0  0  0  0  0  0
    4.9563   -6.5788    0.0000 C   0  0  0  0  0  0  0  0  0  0  0  0
    4.4714   -7.2462    0.0000 C   0  0  0  0  0  0  0  0  0  0  0  0
    4.9563   -7.9137    0.0000 O   0  0  0  0  0  0  0  0  0  0  0  0
    6.3120   -8.9948    0.0000 C   0  0  1  0  0  0  0  0  0  0  0  0
    7.0706   -9.3191    0.0000 C   0  0  1  0  0  0  0  0  0  0  0  0
    7.6134   -8.6978    0.0000 C   0  0  0  0  0  0  0  0  0  0  0  0
    8.3732   -7.2462    0.0000 C   0  0  0  0  0  0  0  0  0  0  0  0
    6.2024   -5.5151    0.0000 O   0  0  0  0  0  0  0  0  0  0  0  0
    6.8072   -4.9539    0.0000 C   0  0  0  0  0  0  0  0  0  0  0  0
    6.6236   -4.1496    0.0000 C   0  0  0  0  0  0  0  0  0  0  0  0
    7.5955   -5.1971    0.0000 O   0  0  0  0  0  0  0  0  0  0  0  0
    4.7014   -5.7942    0.0000 C   0  0  0  0  0  0  0  0  0  0  0  0
    3.6464   -7.2462    0.0000 O   0  0  0  0  0  0  0  0  0  0  0  0
    6.4105   -9.8139    0.0000 O   0  0  0  0  0  0  0  0  0  0  0  0
    6.4843   -7.1917    0.0000 H   0  0  0  0  0  0  0  0  0  0  0  0
    5.8026   -8.7565    0.0000 H   0  0  0  0  0  0  0  0  0  0  0  0
    5.3285   -8.3732    0.0000 H   0  0  0  0  0  0  0  0  0  0  0  0
    5.5975   -9.4073    0.0000 C   0  0  0  0  0  0  0  0  0  0  0  0
    7.6318   -9.9238    0.0000 H   0  0  0  0  0  0  0  0  0  0  0  0
  1  2  1  0  0  0  0
  2  3  1  0  0  0  0
  3  4  1  0  0  0  0
  4  5  2  0  0  0  0
  5  6  1  0  0  0  0
  6  7  1  0  0  0  0
  7  1  1  0  0  0  0
  1  8  1  0  0  0  0
  8  9  1  0  0  0  0
  9 10  1  0  0  0  0
 10  2  1  0  0  0  0
  3 11  1  0  0  0  0
 11 12  1  0  0  0  0
 12 13  1  0  0  0  0
 13  4  1  0  0  0  0
  5 14  1  0  0  0  0
  7 15  1  1  0  0  0
 15 16  1  0  0  0  0
 16 17  1  0  0  0  0
 16 18  2  0  0  0  0
  8 19  2  0  0  0  0
  9 20  2  0  0  0  0
 11 21  1  0  0  0  0
 21 12  1  0  0  0  0
  1 22  1  1  0  0  0
  3 23  1  1  0  0  0
  2 24  1  6  0  0  0
 11 25  1  6  0  0  0
 12 26  1  6  0  0  0
M  END
>  <cdx:fragmentId>
5

$$$$
