93065.cdx
  Mrv1902 05222410182D          

 19 18  0  0  0  0            999 V2000
    1.0839   -3.9314    0.0000 C   0  0  0  0  0  0  0  0  0  0  0  0
    1.7983   -3.5189    0.0000 C   0  0  0  0  0  0  0  0  0  0  0  0
    2.5128   -3.9314    0.0000 C   0  0  0  0  0  0  0  0  0  0  0  0
    3.2273   -3.5189    0.0000 C   0  0  0  0  0  0  0  0  0  0  0  0
    3.9418   -3.9314    0.0000 C   0  0  0  0  0  0  0  0  0  0  0  0
    4.6562   -3.5189    0.0000 C   0  0  0  0  0  0  0  0  0  0  0  0
    5.3707   -3.9314    0.0000 C   0  0  0  0  0  0  0  0  0  0  0  0
    6.0852   -3.5189    0.0000 C   0  0  0  0  0  0  0  0  0  0  0  0
    6.7996   -3.9314    0.0000 C   0  0  0  0  0  0  0  0  0  0  0  0
    7.5141   -3.5189    0.0000 C   0  0  0  0  0  0  0  0  0  0  0  0
    8.2286   -3.9314    0.0000 C   0  0  0  0  0  0  0  0  0  0  0  0
    8.9431   -3.5189    0.0000 C   0  0  0  0  0  0  0  0  0  0  0  0
    9.6575   -3.9314    0.0000 C   0  0  0  0  0  0  0  0  0  0  0  0
   10.3720   -3.5189    0.0000 C   0  0  0  0  0  0  0  0  0  0  0  0
   11.0865   -3.9314    0.0000 C   0  0  0  0  0  0  0  0  0  0  0  0
   11.8009   -3.5189    0.0000 C   0  0  0  0  0  0  0  0  0  0  0  0
   12.5154   -3.9314    0.0000 C   0  0  0  0  0  0  0  0  0  0  0  0
   13.2299   -3.5189    0.0000 C   0  0  0  0  0  0  0  0  0  0  0  0
    4.6562   -2.6939    0.0000 C   0  0  0  0  0  0  0  0  0  0  0  0
  1  2  1  0  0  0  0
  2  3  1  0  0  0  0
  3  4  1  0  0  0  0
  4  5  1  0  0  0  0
  5  6  1  0  0  0  0
  6  7  1  0  0  0  0
  7  8  1  0  0  0  0
  8  9  1  0  0  0  0
  9 10  1  0  0  0  0
 10 11  1  0  0  0  0
 11 12  1  0  0  0  0
 12 13  1  0  0  0  0
 13 14  1  0  0  0  0
 14 15  1  0  0  0  0
 15 16  1  0  0  0  0
 16 17  1  0  0  0  0
 17 18  1  0  0  0  0
  6 19  1  0  0  0  0
M  END
>  <cdx:groupId>
58

>  <cdx:fragmentId>
5

$$$$
