93067.cdx
  Mrv1902 05222410192D          

 26 30  0  0  0  0            999 V2000
    6.1276   -6.3951    0.0000 C   0  0  0  0  0  0  0  0  0  0  0  0
    6.3808   -7.1803    0.0000 C   0  0  1  0  0  0  0  0  0  0  0  0
    7.2058   -7.1821    0.0000 C   0  0  1  0  0  0  0  0  0  0  0  0
    7.4625   -6.3981    0.0000 C   0  0  2  0  0  0  0  0  0  0  0  0
    6.7962   -5.9117    0.0000 O   0  0  0  0  0  0  0  0  0  0  0  0
    6.1241   -7.9644    0.0000 C   0  0  2  0  0  0  0  0  0  0  0  0
    6.7905   -8.4508    0.0000 O   0  0  0  0  0  0  0  0  0  0  0  0
    7.4590   -7.9673    0.0000 C   0  0  0  0  0  0  0  0  0  0  0  0
    8.2477   -6.1449    0.0000 C   0  0  0  0  0  0  0  0  0  0  0  0
    8.0308   -7.1840    0.0000 H   0  0  0  0  0  0  0  0  0  0  0  0
    5.5558   -7.1785    0.0000 H   0  0  0  0  0  0  0  0  0  0  0  0
    5.3390   -8.2175    0.0000 C   0  0  0  0  0  0  0  0  0  0  0  0
    8.8596   -6.6983    0.0000 C   0  0  0  0  0  0  0  0  0  0  0  0
    9.6447   -6.4451    0.0000 C   0  0  0  0  0  0  0  0  0  0  0  0
    9.8181   -5.6385    0.0000 C   0  0  0  0  0  0  0  0  0  0  0  0
    9.2062   -5.0851    0.0000 C   0  0  0  0  0  0  0  0  0  0  0  0
    8.4210   -5.3383    0.0000 C   0  0  0  0  0  0  0  0  0  0  0  0
    4.7271   -7.6642    0.0000 C   0  0  0  0  0  0  0  0  0  0  0  0
    3.9419   -7.9173    0.0000 C   0  0  0  0  0  0  0  0  0  0  0  0
    3.7686   -8.7239    0.0000 C   0  0  0  0  0  0  0  0  0  0  0  0
    4.3805   -9.2773    0.0000 C   0  0  0  0  0  0  0  0  0  0  0  0
    5.1656   -9.0241    0.0000 C   0  0  0  0  0  0  0  0  0  0  0  0
    3.0532   -9.1348    0.0000 O   0  0  0  0  0  0  0  0  0  0  0  0
    3.2229   -9.9422    0.0000 C   0  0  0  0  0  0  0  0  0  0  0  0
    4.0432  -10.0303    0.0000 O   0  0  0  0  0  0  0  0  0  0  0  0
   10.6033   -5.3853    0.0000 O   0  0  0  0  0  0  0  0  0  0  0  0
  1  2  1  0  0  0  0
  2  3  1  0  0  0  0
  3  4  1  0  0  0  0
  4  5  1  0  0  0  0
  5  1  1  0  0  0  0
  2  6  1  0  0  0  0
  6  7  1  0  0  0  0
  7  8  1  0  0  0  0
  8  3  1  0  0  0  0
  4  9  1  6  0  0  0
  3 10  1  6  0  0  0
  2 11  1  6  0  0  0
  6 12  1  6  0  0  0
  9 13  2  0  0  0  0
 13 14  1  0  0  0  0
 14 15  2  0  0  0  0
 15 16  1  0  0  0  0
 16 17  2  0  0  0  0
 17  9  1  0  0  0  0
 12 18  2  0  0  0  0
 18 19  1  0  0  0  0
 19 20  2  0  0  0  0
 20 21  1  0  0  0  0
 21 22  2  0  0  0  0
 22 12  1  0  0  0  0
 20 23  1  0  0  0  0
 23 24  1  0  0  0  0
 24 25  1  0  0  0  0
 25 21  1  0  0  0  0
 15 26  1  0  0  0  0
M  END
>  <cdx:fragmentId>
5

$$$$
