93069.cdx
  Mrv1902 05222410282D          

 25 26  0  0  0  0            999 V2000
    3.6968   -5.1837    0.0000 C   0  0  0  0  0  0  0  0  0  0  0  0
    3.6968   -6.0088    0.0000 C   0  0  0  0  0  0  0  0  0  0  0  0
    4.4113   -6.4213    0.0000 C   0  0  0  0  0  0  0  0  0  0  0  0
    5.1257   -6.0088    0.0000 C   0  0  0  0  0  0  0  0  0  0  0  0
    5.1257   -5.1837    0.0000 C   0  0  0  0  0  0  0  0  0  0  0  0
    4.4113   -4.7713    0.0000 C   0  0  0  0  0  0  0  0  0  0  0  0
    4.4113   -3.9463    0.0000 O   0  0  0  0  0  0  0  0  0  0  0  0
    2.2679   -6.0088    0.0000 O   0  0  0  0  0  0  0  0  0  0  0  0
    2.9823   -6.4212    0.0000 C   0  0  0  0  0  0  0  0  0  0  0  0
    5.8402   -6.4213    0.0000 C   0  0  1  0  0  0  0  0  0  0  0  0
    6.5547   -6.0088    0.0000 C   0  0  0  0  0  0  0  0  0  0  0  0
    5.8402   -4.7713    0.0000 O   0  0  0  0  0  0  0  0  0  0  0  0
    5.8402   -7.2462    0.0000 C   0  0  0  0  0  0  0  0  0  0  0  0
    6.5547   -7.6587    0.0000 O   0  0  0  0  0  0  0  0  0  0  0  0
    7.2692   -7.2462    0.0000 C   0  0  0  0  0  0  0  0  0  0  0  0
    7.2692   -6.4213    0.0000 C   0  0  0  0  0  0  0  0  0  0  0  0
    7.9836   -7.6587    0.0000 C   0  0  0  0  0  0  0  0  0  0  0  0
    8.6981   -7.2462    0.0000 C   0  0  0  0  0  0  0  0  0  0  0  0
    8.6981   -6.4213    0.0000 C   0  0  0  0  0  0  0  0  0  0  0  0
    7.9836   -6.0088    0.0000 C   0  0  0  0  0  0  0  0  0  0  0  0
    9.4126   -7.6587    0.0000 O   0  0  0  0  0  0  0  0  0  0  0  0
   10.1270   -6.4213    0.0000 C   0  0  0  0  0  0  0  0  0  0  0  0
    9.4126   -6.0088    0.0000 O   0  0  0  0  0  0  0  0  0  0  0  0
    2.9823   -7.2462    0.0000 O   0  0  0  0  0  0  0  0  0  0  0  0
    3.6968   -3.5337    0.0000 C   0  0  0  0  0  0  0  0  0  0  0  0
  1  2  2  0  0  0  0
  2  3  1  0  0  0  0
  3  4  2  0  0  0  0
  4  5  1  0  0  0  0
  5  6  2  0  0  0  0
  6  1  1  0  0  0  0
  6  7  1  0  0  0  0
  8  9  1  0  0  0  0
  9  2  1  0  0  0  0
  4 10  1  0  0  0  0
 10 11  1  0  0  0  0
 12  5  1  0  0  0  0
 10 13  1  1  0  0  0
 13 14  1  0  0  0  0
 15 16  2  0  0  0  0
 16 11  1  0  0  0  0
 15 17  1  0  0  0  0
 17 18  2  0  0  0  0
 18 19  1  0  0  0  0
 19 20  2  0  0  0  0
 20 16  1  0  0  0  0
 18 21  1  0  0  0  0
 22 23  1  0  0  0  0
 23 19  1  0  0  0  0
  9 24  2  0  0  0  0
  7 25  1  0  0  0  0
M  END
>  <cdx:fragmentId>
5

$$$$
