93078.cdx
  Mrv1902 05222410262D          

 18 19  0  0  0  0            999 V2000
    4.7143   -7.5625    0.0000 C   0  0  0  0  0  0  0  0  0  0  0  0
    4.7143   -8.3875    0.0000 C   0  0  0  0  0  0  0  0  0  0  0  0
    5.4288   -8.8000    0.0000 C   0  0  1  0  0  0  0  0  0  0  0  0
    6.1432   -8.3875    0.0000 C   0  0  1  0  0  0  0  0  0  0  0  0
    6.1432   -7.5625    0.0000 C   0  0  2  0  0  0  0  0  0  0  0  0
    5.4288   -7.1500    0.0000 C   0  0  0  0  0  0  0  0  0  0  0  0
    6.8577   -8.8000    0.0000 C   0  0  0  0  0  0  0  0  0  0  0  0
    7.5722   -8.3875    0.0000 C   0  0  1  0  0  0  0  0  0  0  0  0
    7.5722   -7.5625    0.0000 C   0  0  0  0  0  0  0  0  0  0  0  0
    6.8577   -7.1500    0.0000 C   0  0  2  0  0  0  0  0  0  0  0  0
    8.2867   -8.8000    0.0000 C   0  0  0  0  0  0  0  0  0  0  0  0
    9.0011   -8.3875    0.0000 C   0  0  0  0  0  0  0  0  0  0  0  0
    8.2867   -9.6250    0.0000 C   0  0  0  0  0  0  0  0  0  0  0  0
    6.8577   -6.3250    0.0000 O   0  0  0  0  0  0  0  0  0  0  0  0
    6.1432   -6.7375    0.0000 C   0  0  0  0  0  0  0  0  0  0  0  0
    6.1432   -9.2125    0.0000 H   0  0  0  0  0  0  0  0  0  0  0  0
    5.8413   -9.5145    0.0000 C   0  0  0  0  0  0  0  0  0  0  0  0
    5.0163   -9.5145    0.0000 O   0  0  0  0  0  0  0  0  0  0  0  0
  1  2  1  0  0  0  0
  2  3  1  0  0  0  0
  3  4  1  0  0  0  0
  4  5  1  0  0  0  0
  5  6  1  0  0  0  0
  6  1  1  0  0  0  0
  4  7  1  0  0  0  0
  7  8  1  0  0  0  0
  8  9  1  0  0  0  0
  9 10  1  0  0  0  0
 10  5  1  0  0  0  0
  8 11  1  1  0  0  0
 11 12  1  0  0  0  0
 11 13  2  0  0  0  0
 10 14  1  1  0  0  0
  5 15  1  1  0  0  0
  4 16  1  6  0  0  0
  3 17  1  1  0  0  0
  3 18  1  6  0  0  0
M  END
>  <cdx:fragmentId>
5

$$$$
