93073.cdx
  Mrv1902 05222410192D          

 21 21  0  0  0  0            999 V2000
    5.6694   -3.4817    0.0000 C   0  0  0  0  0  0  0  0  0  0  0  0
    4.9566   -3.0663    0.0000 C   0  0  0  0  0  0  0  0  0  0  0  0
    4.2405   -3.4758    0.0000 C   0  0  0  0  0  0  0  0  0  0  0  0
    4.2371   -4.3008    0.0000 C   0  0  0  0  0  0  0  0  0  0  0  0
    4.9498   -4.7163    0.0000 C   0  0  0  0  0  0  0  0  0  0  0  0
    5.6660   -4.3067    0.0000 C   0  0  0  0  0  0  0  0  0  0  0  0
    6.3855   -3.0721    0.0000 O   0  0  0  0  0  0  0  0  0  0  0  0
    6.3889   -2.2471    0.0000 C   0  0  0  0  0  0  0  0  0  0  0  0
    4.9600   -2.2413    0.0000 O   0  0  0  0  0  0  0  0  0  0  0  0
    4.9465   -5.5412    0.0000 C   0  0  0  0  0  0  0  0  0  0  0  0
    5.6609   -5.9537    0.0000 C   0  0  0  0  0  0  0  0  0  0  0  0
    6.3754   -5.5412    0.0000 C   0  0  0  0  0  0  0  0  0  0  0  0
    7.0899   -5.9537    0.0000 N   0  3  0  0  0  0  0  0  0  0  0  0
    6.3754   -4.7162    0.0000 O   0  0  0  0  0  0  0  0  0  0  0  0
    7.8044   -5.5412    0.0000 C   0  0  0  0  0  0  0  0  0  0  0  0
    8.5188   -5.9537    0.0000 C   0  0  0  0  0  0  0  0  0  0  0  0
    9.2333   -5.5412    0.0000 C   0  0  0  0  0  0  0  0  0  0  0  0
    9.9478   -5.9537    0.0000 C   0  0  0  0  0  0  0  0  0  0  0  0
   10.6622   -5.5412    0.0000 O   0  0  0  0  0  0  0  0  0  0  0  0
    9.9478   -6.7787    0.0000 O   0  0  0  0  0  0  0  0  0  0  0  0
   11.3767   -5.9537    0.0000 C   0  0  0  0  0  0  0  0  0  0  0  0
  1  2  2  0  0  0  0
  2  3  1  0  0  0  0
  3  4  2  0  0  0  0
  4  5  1  0  0  0  0
  5  6  2  0  0  0  0
  6  1  1  0  0  0  0
  1  7  1  0  0  0  0
  7  8  1  0  0  0  0
  2  9  1  0  0  0  0
  5 10  1  0  0  0  0
 10 11  2  0  0  0  0
 11 12  1  0  0  0  0
 12 13  2  0  0  0  0
 12 14  1  0  0  0  0
 13 15  1  0  0  0  0
 15 16  1  0  0  0  0
 16 17  1  0  0  0  0
 17 18  1  0  0  0  0
 18 19  1  0  0  0  0
 18 20  2  0  0  0  0
 19 21  1  0  0  0  0
M  CHG  1  13   1
M  END
>  <cdx:fragmentId>
5

$$$$
