93071.cdx
  Mrv1902 05222410182D          

 25 27  0  0  0  0            999 V2000
    4.3568   -6.7193    0.0000 C   0  0  0  0  0  0  0  0  0  0  0  0
    4.3568   -5.8943    0.0000 C   0  0  0  0  0  0  0  0  0  0  0  0
    5.0713   -5.4818    0.0000 C   0  0  0  0  0  0  0  0  0  0  0  0
    5.7857   -5.8943    0.0000 C   0  0  0  0  0  0  0  0  0  0  0  0
    5.7857   -6.7193    0.0000 C   0  0  0  0  0  0  0  0  0  0  0  0
    5.0713   -7.1318    0.0000 C   0  0  0  0  0  0  0  0  0  0  0  0
    5.0713   -7.9568    0.0000 O   0  0  0  0  0  0  0  0  0  0  0  0
    4.3568   -8.3693    0.0000 C   0  0  0  0  0  0  0  0  0  0  0  0
    3.6423   -5.4818    0.0000 C   0  0  0  0  0  0  0  0  0  0  0  0
    2.9279   -5.8943    0.0000 O   0  0  0  0  0  0  0  0  0  0  0  0
    3.6423   -4.6568    0.0000 O   0  0  0  0  0  0  0  0  0  0  0  0
    6.5704   -5.6393    0.0000 C   0  0  2  0  0  0  0  0  0  0  0  0
    7.0553   -6.3068    0.0000 C   0  0  1  0  0  0  0  0  0  0  0  0
    6.5704   -6.9742    0.0000 O   0  0  0  0  0  0  0  0  0  0  0  0
    6.8253   -4.8547    0.0000 C   0  0  0  0  0  0  0  0  0  0  0  0
    6.4128   -4.1402    0.0000 O   0  0  0  0  0  0  0  0  0  0  0  0
    7.8803   -6.3068    0.0000 C   0  0  0  0  0  0  0  0  0  0  0  0
    8.2928   -5.5923    0.0000 C   0  0  0  0  0  0  0  0  0  0  0  0
    9.1178   -5.5923    0.0000 C   0  0  0  0  0  0  0  0  0  0  0  0
    9.5303   -6.3068    0.0000 C   0  0  0  0  0  0  0  0  0  0  0  0
    9.1178   -7.0212    0.0000 C   0  0  0  0  0  0  0  0  0  0  0  0
    8.2928   -7.0212    0.0000 C   0  0  0  0  0  0  0  0  0  0  0  0
   10.3553   -6.3068    0.0000 O   0  0  0  0  0  0  0  0  0  0  0  0
    9.5303   -7.7357    0.0000 O   0  0  0  0  0  0  0  0  0  0  0  0
   10.3553   -7.7357    0.0000 C   0  0  0  0  0  0  0  0  0  0  0  0
  1  2  2  0  0  0  0
  2  3  1  0  0  0  0
  3  4  2  0  0  0  0
  4  5  1  0  0  0  0
  5  6  2  0  0  0  0
  6  1  1  0  0  0  0
  6  7  1  0  0  0  0
  7  8  1  0  0  0  0
  2  9  1  0  0  0  0
  9 10  1  0  0  0  0
  9 11  2  0  0  0  0
  4 12  1  0  0  0  0
 12 13  1  0  0  0  0
 13 14  1  0  0  0  0
 14  5  1  0  0  0  0
 12 15  1  1  0  0  0
 15 16  1  0  0  0  0
 13 17  1  6  0  0  0
 17 18  2  0  0  0  0
 18 19  1  0  0  0  0
 19 20  2  0  0  0  0
 20 21  1  0  0  0  0
 21 22  2  0  0  0  0
 22 17  1  0  0  0  0
 20 23  1  0  0  0  0
 21 24  1  0  0  0  0
 24 25  1  0  0  0  0
M  END
>  <cdx:fragmentId>
5

$$$$
