93070.cdx
  Mrv1902 05222410182D          

 25 27  0  0  0  0            999 V2000
    4.9893   -6.3893    0.0000 C   0  0  0  0  0  0  0  0  0  0  0  0
    4.9893   -5.5643    0.0000 C   0  0  0  0  0  0  0  0  0  0  0  0
    5.7038   -5.1518    0.0000 C   0  0  0  0  0  0  0  0  0  0  0  0
    6.4182   -5.5643    0.0000 C   0  0  0  0  0  0  0  0  0  0  0  0
    6.4182   -6.3893    0.0000 C   0  0  0  0  0  0  0  0  0  0  0  0
    5.7038   -6.8018    0.0000 C   0  0  0  0  0  0  0  0  0  0  0  0
    5.7038   -7.6268    0.0000 O   0  0  0  0  0  0  0  0  0  0  0  0
    4.9893   -8.0393    0.0000 C   0  0  0  0  0  0  0  0  0  0  0  0
    4.2748   -5.1518    0.0000 C   0  0  0  0  0  0  0  0  0  0  0  0
    3.5604   -5.5643    0.0000 O   0  0  0  0  0  0  0  0  0  0  0  0
    4.2748   -4.3268    0.0000 O   0  0  0  0  0  0  0  0  0  0  0  0
    7.2029   -5.3093    0.0000 C   0  0  1  0  0  0  0  0  0  0  0  0
    7.6878   -5.9768    0.0000 C   0  0  2  0  0  0  0  0  0  0  0  0
    7.2029   -6.6442    0.0000 O   0  0  0  0  0  0  0  0  0  0  0  0
    7.4578   -4.5247    0.0000 C   0  0  0  0  0  0  0  0  0  0  0  0
    7.0453   -3.8102    0.0000 O   0  0  0  0  0  0  0  0  0  0  0  0
    8.5128   -5.9768    0.0000 C   0  0  0  0  0  0  0  0  0  0  0  0
    8.9253   -5.2623    0.0000 C   0  0  0  0  0  0  0  0  0  0  0  0
    9.7503   -5.2623    0.0000 C   0  0  0  0  0  0  0  0  0  0  0  0
   10.1628   -5.9768    0.0000 C   0  0  0  0  0  0  0  0  0  0  0  0
    9.7503   -6.6912    0.0000 C   0  0  0  0  0  0  0  0  0  0  0  0
    8.9253   -6.6912    0.0000 C   0  0  0  0  0  0  0  0  0  0  0  0
   10.9878   -5.9768    0.0000 O   0  0  0  0  0  0  0  0  0  0  0  0
   10.1628   -7.4057    0.0000 O   0  0  0  0  0  0  0  0  0  0  0  0
   10.9878   -7.4057    0.0000 C   0  0  0  0  0  0  0  0  0  0  0  0
  1  2  2  0  0  0  0
  2  3  1  0  0  0  0
  3  4  2  0  0  0  0
  4  5  1  0  0  0  0
  5  6  2  0  0  0  0
  6  1  1  0  0  0  0
  6  7  1  0  0  0  0
  7  8  1  0  0  0  0
  2  9  1  0  0  0  0
  9 10  1  0  0  0  0
  9 11  2  0  0  0  0
  4 12  1  0  0  0  0
 12 13  1  0  0  0  0
 13 14  1  0  0  0  0
 14  5  1  0  0  0  0
 12 15  1  6  0  0  0
 15 16  1  0  0  0  0
 13 17  1  1  0  0  0
 17 18  2  0  0  0  0
 18 19  1  0  0  0  0
 19 20  2  0  0  0  0
 20 21  1  0  0  0  0
 21 22  2  0  0  0  0
 22 17  1  0  0  0  0
 20 23  1  0  0  0  0
 21 24  1  0  0  0  0
 24 25  1  0  0  0  0
M  END
>  <cdx:fragmentId>
101

$$$$
