93075.cdx
  Mrv1902 05222410202D          

 15 16  0  0  0  0            999 V2000
    8.0841   -6.0948    0.0000 C   0  0  0  0  0  0  0  0  0  0  0  0
    7.3627   -5.6946    0.0000 C   0  0  0  0  0  0  0  0  0  0  0  0
    6.6554   -6.1192    0.0000 C   0  0  0  0  0  0  0  0  0  0  0  0
    6.6695   -6.9441    0.0000 C   0  0  0  0  0  0  0  0  0  0  0  0
    7.3909   -7.3443    0.0000 C   0  0  0  0  0  0  0  0  0  0  0  0
    8.0982   -6.9197    0.0000 C   0  0  0  0  0  0  0  0  0  0  0  0
    7.4050   -8.1692    0.0000 C   0  0  0  0  0  0  0  0  0  0  0  0
    7.3486   -4.8697    0.0000 C   0  0  1  0  0  0  0  0  0  0  0  0
    7.6950   -4.1209    0.0000 C   0  0  0  0  0  0  0  0  0  0  0  0
    7.0900   -3.5601    0.0000 C   0  0  0  0  0  0  0  0  0  0  0  0
    6.3696   -3.9622    0.0000 C   0  0  0  0  0  0  0  0  0  0  0  0
    6.5295   -4.7716    0.0000 C   0  0  0  0  0  0  0  0  0  0  0  0
    8.2683   -3.5277    0.0000 C   0  0  0  0  0  0  0  0  0  0  0  0
    8.4954   -4.3208    0.0000 C   0  0  0  0  0  0  0  0  0  0  0  0
    8.1558   -5.0401    0.0000 C   0  0  0  0  0  0  0  0  0  0  0  0
  1  2  2  0  0  0  0
  2  3  1  0  0  0  0
  3  4  2  0  0  0  0
  4  5  1  0  0  0  0
  5  6  2  0  0  0  0
  6  1  1  0  0  0  0
  5  7  1  0  0  0  0
  2  8  1  0  0  0  0
  8  9  1  0  0  0  0
  9 10  1  0  0  0  0
 10 11  1  0  0  0  0
 11 12  1  0  0  0  0
 12  8  1  0  0  0  0
  9 13  1  0  0  0  0
  9 14  1  0  0  0  0
  8 15  1  1  0  0  0
M  END
>  <cdx:fragmentId>
5

$$$$
