93079.cdx
  Mrv1902 05222410262D          

 17 18  0  0  0  0            999 V2000
    3.8893   -6.8475    0.0000 C   0  0  0  0  0  0  0  0  0  0  0  0
    3.8893   -7.6725    0.0000 C   0  0  0  0  0  0  0  0  0  0  0  0
    4.6038   -8.0850    0.0000 C   0  0  0  0  0  0  0  0  0  0  0  0
    5.3182   -7.6725    0.0000 C   0  0  0  0  0  0  0  0  0  0  0  0
    5.3182   -6.8475    0.0000 C   0  0  2  0  0  0  0  0  0  0  0  0
    4.6038   -6.4350    0.0000 C   0  0  0  0  0  0  0  0  0  0  0  0
    6.0327   -8.0850    0.0000 C   0  0  0  0  0  0  0  0  0  0  0  0
    6.7472   -7.6725    0.0000 C   0  0  1  0  0  0  0  0  0  0  0  0
    6.7472   -6.8475    0.0000 C   0  0  0  0  0  0  0  0  0  0  0  0
    6.0327   -6.4350    0.0000 C   0  0  0  0  0  0  0  0  0  0  0  0
    7.4617   -8.0850    0.0000 C   0  0  0  0  0  0  0  0  0  0  0  0
    8.1761   -7.6725    0.0000 C   0  0  0  0  0  0  0  0  0  0  0  0
    4.6038   -8.9100    0.0000 C   0  0  0  0  0  0  0  0  0  0  0  0
    7.4617   -8.9100    0.0000 C   0  0  0  0  0  0  0  0  0  0  0  0
    5.3182   -6.0225    0.0000 C   0  0  0  0  0  0  0  0  0  0  0  0
    8.8906   -8.0850    0.0000 O   0  0  0  0  0  0  0  0  0  0  0  0
    5.3182   -9.3225    0.0000 O   0  0  0  0  0  0  0  0  0  0  0  0
  1  2  1  0  0  0  0
  2  3  1  0  0  0  0
  3  4  2  0  0  0  0
  4  5  1  0  0  0  0
  5  6  1  0  0  0  0
  6  1  1  0  0  0  0
  4  7  1  0  0  0  0
  7  8  1  0  0  0  0
  8  9  1  0  0  0  0
  9 10  1  0  0  0  0
 10  5  1  0  0  0  0
  8 11  1  1  0  0  0
 11 12  1  0  0  0  0
  3 13  1  0  0  0  0
 11 14  2  0  0  0  0
  5 15  1  1  0  0  0
 12 16  1  0  0  0  0
 13 17  2  0  0  0  0
M  END
>  <cdx:fragmentId>
5

$$$$
