93074.cdx
  Mrv1902 05222410202D          

 21 23  0  0  0  0            999 V2000
    5.4293   -5.5962    0.0000 C   0  0  0  0  0  0  0  0  0  0  0  0
    5.4293   -6.4213    0.0000 C   0  0  0  0  0  0  0  0  0  0  0  0
    6.1438   -6.8338    0.0000 C   0  0  2  0  0  0  0  0  0  0  0  0
    6.8582   -6.4213    0.0000 C   0  0  2  0  0  0  0  0  0  0  0  0
    6.8582   -5.5962    0.0000 C   0  0  0  0  0  0  0  0  0  0  0  0
    6.1438   -5.1837    0.0000 O   0  0  0  0  0  0  0  0  0  0  0  0
    7.5727   -6.8338    0.0000 C   0  0  0  0  0  0  0  0  0  0  0  0
    8.2872   -6.4213    0.0000 C   0  0  2  0  0  0  0  0  0  0  0  0
    8.2872   -5.5962    0.0000 C   0  0  1  0  0  0  0  0  0  0  0  0
    7.5727   -5.1837    0.0000 C   0  0  1  0  0  0  0  0  0  0  0  0
    4.7148   -5.1837    0.0000 O   0  0  0  0  0  0  0  0  0  0  0  0
    6.8582   -7.2462    0.0000 C   0  0  0  0  0  0  0  0  0  0  0  0
    7.5727   -7.6587    0.0000 C   0  0  0  0  0  0  0  0  0  0  0  0
    7.5727   -8.4838    0.0000 C   0  0  0  0  0  0  0  0  0  0  0  0
    8.2872   -7.2462    0.0000 C   0  0  0  0  0  0  0  0  0  0  0  0
    8.6997   -4.8818    0.0000 C   0  0  0  0  0  0  0  0  0  0  0  0
    9.0017   -6.8338    0.0000 O   0  0  0  0  0  0  0  0  0  0  0  0
    7.5727   -4.3587    0.0000 O   0  0  0  0  0  0  0  0  0  0  0  0
    9.1122   -5.5962    0.0000 O   0  0  0  0  0  0  0  0  0  0  0  0
    7.4416   -6.1796    0.0000 O   0  0  0  0  0  0  0  0  0  0  0  0
    6.1438   -7.6587    0.0000 C   0  0  0  0  0  0  0  0  0  0  0  0
  1  2  1  0  0  0  0
  2  3  1  0  0  0  0
  3  4  1  0  0  0  0
  4  5  1  0  0  0  0
  5  6  1  1  0  0  0
  6  1  1  0  0  0  0
  4  7  1  0  0  0  0
  7  8  1  0  0  0  0
  8  9  1  0  0  0  0
  9 10  1  0  0  0  0
 10  5  1  0  0  0  0
  1 11  2  0  0  0  0
  4 12  1  1  0  0  0
 12 13  1  0  0  0  0
 13 14  1  0  0  0  0
 13 15  1  0  0  0  0
  9 16  1  1  0  0  0
  8 17  1  1  0  0  0
 10 18  1  6  0  0  0
  9 19  1  6  0  0  0
  5 20  1  6  0  0  0
  8 20  1  6  0  0  0
  3 21  1  6  0  0  0
M  END
>  <cdx:fragmentId>
5

$$$$
