93072.cdx
  Mrv1902 05222410182D          

 21 21  0  0  0  0            999 V2000
    2.8031   -5.9538    0.0000 C   0  0  0  0  0  0  0  0  0  0  0  0
    2.8031   -6.7788    0.0000 C   0  0  0  0  0  0  0  0  0  0  0  0
    3.5175   -7.1913    0.0000 C   0  0  0  0  0  0  0  0  0  0  0  0
    4.2320   -6.7788    0.0000 C   0  0  0  0  0  0  0  0  0  0  0  0
    4.2320   -5.9538    0.0000 C   0  0  0  0  0  0  0  0  0  0  0  0
    3.5175   -5.5413    0.0000 C   0  0  0  0  0  0  0  0  0  0  0  0
    2.0886   -5.5413    0.0000 O   0  0  0  0  0  0  0  0  0  0  0  0
    1.3741   -5.9538    0.0000 C   0  0  0  0  0  0  0  0  0  0  0  0
    2.0886   -7.1913    0.0000 O   0  0  0  0  0  0  0  0  0  0  0  0
    4.9465   -5.5412    0.0000 C   0  0  0  0  0  0  0  0  0  0  0  0
    5.6609   -5.9537    0.0000 C   0  0  0  0  0  0  0  0  0  0  0  0
    6.3754   -5.5412    0.0000 C   0  0  0  0  0  0  0  0  0  0  0  0
    7.0899   -5.9537    0.0000 N   0  0  0  0  0  0  0  0  0  0  0  0
    6.3754   -4.7162    0.0000 O   0  0  0  0  0  0  0  0  0  0  0  0
    7.8044   -5.5412    0.0000 C   0  0  0  0  0  0  0  0  0  0  0  0
    8.5188   -5.9537    0.0000 C   0  0  0  0  0  0  0  0  0  0  0  0
    9.2333   -5.5412    0.0000 C   0  0  0  0  0  0  0  0  0  0  0  0
    9.9478   -5.9537    0.0000 C   0  0  0  0  0  0  0  0  0  0  0  0
   10.6622   -5.5412    0.0000 O   0  0  0  0  0  0  0  0  0  0  0  0
    9.9478   -6.7787    0.0000 O   0  0  0  0  0  0  0  0  0  0  0  0
   11.3767   -5.9537    0.0000 C   0  0  0  0  0  0  0  0  0  0  0  0
  1  2  2  0  0  0  0
  2  3  1  0  0  0  0
  3  4  2  0  0  0  0
  4  5  1  0  0  0  0
  5  6  2  0  0  0  0
  6  1  1  0  0  0  0
  1  7  1  0  0  0  0
  7  8  1  0  0  0  0
  2  9  1  0  0  0  0
  5 10  1  0  0  0  0
 10 11  2  0  0  0  0
 11 12  1  0  0  0  0
 12 13  1  0  0  0  0
 12 14  2  0  0  0  0
 13 15  1  0  0  0  0
 15 16  1  0  0  0  0
 16 17  1  0  0  0  0
 17 18  1  0  0  0  0
 18 19  1  0  0  0  0
 18 20  2  0  0  0  0
 19 21  1  0  0  0  0
M  END
>  <cdx:fragmentId>
5

$$$$
