93087.cdx
  Mrv1902 05222410262D          

 16 17  0  0  0  0            999 V2000
    7.3635   -7.0812    0.0000 C   0  0  0  0  0  0  0  0  0  0  0  0
    7.3635   -7.9063    0.0000 C   0  0  0  0  0  0  0  0  0  0  0  0
    8.1481   -8.1612    0.0000 C   0  0  0  0  0  0  0  0  0  0  0  0
    8.6331   -7.4937    0.0000 C   0  0  0  0  0  0  0  0  0  0  0  0
    8.1481   -6.8263    0.0000 C   0  0  0  0  0  0  0  0  0  0  0  0
    6.5385   -7.0812    0.0000 C   0  0  0  0  0  0  0  0  0  0  0  0
    6.5385   -7.9063    0.0000 C   0  0  0  0  0  0  0  0  0  0  0  0
    8.4031   -6.0417    0.0000 O   0  0  0  0  0  0  0  0  0  0  0  0
    9.3475   -7.0812    0.0000 C   0  0  0  0  0  0  0  0  0  0  0  0
    9.3475   -7.9063    0.0000 C   0  0  0  0  0  0  0  0  0  0  0  0
    5.7135   -7.9063    0.0000 O   0  0  0  0  0  0  0  0  0  0  0  0
    6.5385   -8.7313    0.0000 C   0  0  0  0  0  0  0  0  0  0  0  0
    5.8240   -9.1438    0.0000 C   0  0  0  0  0  0  0  0  0  0  0  0
    7.3635   -8.7313    0.0000 C   0  0  0  0  0  0  0  0  0  0  0  0
    8.0780   -9.1438    0.0000 C   0  0  0  0  0  0  0  0  0  0  0  0
    8.0780   -9.9688    0.0000 O   0  0  0  0  0  0  0  0  0  0  0  0
  1  2  1  0  0  0  0
  2  3  1  0  0  0  0
  3  4  1  0  0  0  0
  4  5  1  0  0  0  0
  5  1  1  0  0  0  0
  1  6  1  0  0  0  0
  6  7  1  0  0  0  0
  7  2  1  0  0  0  0
  5  8  2  0  0  0  0
  4  9  1  0  0  0  0
  4 10  1  0  0  0  0
  7 11  1  0  0  0  0
  7 12  1  0  0  0  0
 12 13  2  0  0  0  0
  2 14  1  0  0  0  0
 14 15  1  0  0  0  0
 15 16  2  0  0  0  0
M  END
>  <cdx:fragmentId>
5

$$$$
