93083.cdx
  Mrv1902 05222410282D          

 40 40  0  0  0  0            999 V2000
    3.0781   -9.3087    0.0000 C   0  0  0  0  0  0  0  0  0  0  0  0
    3.0781  -10.1338    0.0000 C   0  0  0  0  0  0  0  0  0  0  0  0
    3.7925  -10.5463    0.0000 C   0  0  0  0  0  0  0  0  0  0  0  0
    4.5070  -10.1338    0.0000 C   0  0  0  0  0  0  0  0  0  0  0  0
    4.5070   -9.3087    0.0000 C   0  0  0  0  0  0  0  0  0  0  0  0
    3.7925   -8.8963    0.0000 C   0  0  0  0  0  0  0  0  0  0  0  0
    5.2215  -10.5463    0.0000 C   0  0  2  0  0  0  0  0  0  0  0  0
    5.9359  -10.1338    0.0000 O   0  0  0  0  0  0  0  0  0  0  0  0
    5.2215   -8.8963    0.0000 C   0  0  0  0  0  0  0  0  0  0  0  0
    6.6504  -10.5463    0.0000 C   0  0  0  0  0  0  0  0  0  0  0  0
    7.3649  -10.1338    0.0000 C   0  0  0  0  0  0  0  0  0  0  0  0
    8.0794  -10.5463    0.0000 C   0  0  0  0  0  0  0  0  0  0  0  0
    8.7938  -10.1338    0.0000 C   0  0  0  0  0  0  0  0  0  0  0  0
    8.7938   -9.3087    0.0000 C   0  0  0  0  0  0  0  0  0  0  0  0
    9.5083   -8.8963    0.0000 C   0  0  0  0  0  0  0  0  0  0  0  0
    9.5083   -8.0713    0.0000 C   0  0  0  0  0  0  0  0  0  0  0  0
   10.2228   -7.6587    0.0000 C   0  0  0  0  0  0  0  0  0  0  0  0
   10.2228   -6.8338    0.0000 C   0  0  0  0  0  0  0  0  0  0  0  0
    9.5083   -6.4213    0.0000 C   0  0  0  0  0  0  0  0  0  0  0  0
    8.7938   -6.8338    0.0000 C   0  0  0  0  0  0  0  0  0  0  0  0
    8.7938   -5.1837    0.0000 C   0  0  0  0  0  0  0  0  0  0  0  0
    8.0794   -5.5962    0.0000 C   0  0  0  0  0  0  0  0  0  0  0  0
    8.0794   -6.4213    0.0000 C   0  0  1  0  0  0  0  0  0  0  0  0
    6.6504  -11.3712    0.0000 O   0  0  0  0  0  0  0  0  0  0  0  0
    8.7938   -4.3587    0.0000 C   0  0  0  0  0  0  0  0  0  0  0  0
    9.5083   -3.9463    0.0000 C   0  0  0  0  0  0  0  0  0  0  0  0
    9.5083   -3.1212    0.0000 C   0  0  0  0  0  0  0  0  0  0  0  0
   10.2228   -2.7088    0.0000 C   0  0  0  0  0  0  0  0  0  0  0  0
    7.3649   -6.8338    0.0000 O   0  0  0  0  0  0  0  0  0  0  0  0
    6.6504   -6.4213    0.0000 C   0  0  0  0  0  0  0  0  0  0  0  0
    5.9359   -6.8338    0.0000 C   0  0  0  0  0  0  0  0  0  0  0  0
    6.6504   -5.5962    0.0000 O   0  0  0  0  0  0  0  0  0  0  0  0
    5.9359   -7.6587    0.0000 C   0  0  0  0  0  0  0  0  0  0  0  0
    5.2215   -8.0713    0.0000 C   0  0  0  0  0  0  0  0  0  0  0  0
    5.2215  -11.3712    0.0000 C   0  0  0  0  0  0  0  0  0  0  0  0
    4.5070  -11.7837    0.0000 C   0  0  0  0  0  0  0  0  0  0  0  0
    4.5070  -12.6088    0.0000 C   0  0  0  0  0  0  0  0  0  0  0  0
    3.7925  -13.0213    0.0000 C   0  0  0  0  0  0  0  0  0  0  0  0
    3.7925  -13.8462    0.0000 C   0  0  0  0  0  0  0  0  0  0  0  0
    3.0781  -14.2587    0.0000 C   0  0  0  0  0  0  0  0  0  0  0  0
  1  2  1  0  0  0  0
  2  3  2  0  0  0  0
  3  4  1  0  0  0  0
  5  6  1  0  0  0  0
  6  1  1  0  0  0  0
  4  7  1  0  0  0  0
  7  8  1  0  0  0  0
  9  5  1  0  0  0  0
  8 10  1  0  0  0  0
 10 11  1  0  0  0  0
 11 12  1  0  0  0  0
 12 13  1  0  0  0  0
 13 14  1  0  0  0  0
 14 15  1  0  0  0  0
 15 16  1  0  0  0  0
 16 17  1  0  0  0  0
 17 18  1  0  0  0  0
 18 19  2  0  0  0  0
 19 20  1  0  0  0  0
 21 22  1  0  0  0  0
 23 22  1  6  0  0  0
 23 20  1  0  0  0  0
 10 24  2  0  0  0  0
 21 25  1  0  0  0  0
 25 26  1  0  0  0  0
 26 27  1  0  0  0  0
 27 28  1  0  0  0  0
 23 29  1  0  0  0  0
 29 30  1  0  0  0  0
 30 31  1  0  0  0  0
 30 32  2  0  0  0  0
 31 33  1  0  0  0  0
 33 34  1  0  0  0  0
 34  9  1  0  0  0  0
  7 35  1  6  0  0  0
 35 36  1  0  0  0  0
 36 37  1  0  0  0  0
 37 38  1  0  0  0  0
 38 39  1  0  0  0  0
 39 40  1  0  0  0  0
M  END
>  <cdx:fragmentId>
5

$$$$
