93084.cdx
  Mrv1902 05222410262D          

 29 31  0  0  0  0            999 V2000
    7.2856   -6.9300    0.0000 C   0  0  0  0  0  0  0  0  0  0  0  0
    7.2856   -7.7550    0.0000 C   0  0  0  0  0  0  0  0  0  0  0  0
    8.0000   -8.1675    0.0000 C   0  0  1  0  0  0  0  0  0  0  0  0
    8.7145   -7.7550    0.0000 O   0  0  0  0  0  0  0  0  0  0  0  0
    8.7145   -6.9300    0.0000 C   0  0  0  0  0  0  0  0  0  0  0  0
    8.0000   -6.5175    0.0000 C   0  0  0  0  0  0  0  0  0  0  0  0
    6.5009   -6.6751    0.0000 C   0  0  2  0  0  0  0  0  0  0  0  0
    6.0160   -7.3425    0.0000 C   0  0  2  0  0  0  0  0  0  0  0  0
    6.5009   -8.0099    0.0000 C   0  0  2  0  0  0  0  0  0  0  0  0
    5.1910   -7.3425    0.0000 O   0  0  0  0  0  0  0  0  0  0  0  0
    6.2460   -5.8904    0.0000 O   0  0  0  0  0  0  0  0  0  0  0  0
    7.1993   -6.1095    0.0000 H   0  0  0  0  0  0  0  0  0  0  0  0
    8.0000   -5.6925    0.0000 C   0  0  0  0  0  0  0  0  0  0  0  0
    7.2856   -5.2800    0.0000 O   0  0  0  0  0  0  0  0  0  0  0  0
    8.7145   -5.2800    0.0000 O   0  0  0  0  0  0  0  0  0  0  0  0
    9.4290   -5.6925    0.0000 C   0  0  0  0  0  0  0  0  0  0  0  0
    6.2460   -8.7946    0.0000 C   0  0  0  0  0  0  0  0  0  0  0  0
    8.0000   -8.9925    0.0000 O   0  0  0  0  0  0  0  0  0  0  0  0
    7.4167   -9.5759    0.0000 C   0  0  2  0  0  0  0  0  0  0  0  0
    6.6198   -9.3623    0.0000 O   0  0  0  0  0  0  0  0  0  0  0  0
    6.0364   -9.9457    0.0000 C   0  0  1  0  0  0  0  0  0  0  0  0
    6.2499  -10.7426    0.0000 C   0  0  2  0  0  0  0  0  0  0  0  0
    7.0468  -10.9561    0.0000 C   0  0  1  0  0  0  0  0  0  0  0  0
    7.6302  -10.3728    0.0000 C   0  0  1  0  0  0  0  0  0  0  0  0
    5.2395   -9.7322    0.0000 C   0  0  0  0  0  0  0  0  0  0  0  0
    7.2603  -11.7530    0.0000 O   0  0  0  0  0  0  0  0  0  0  0  0
    5.6666  -11.3260    0.0000 O   0  0  0  0  0  0  0  0  0  0  0  0
    8.4271  -10.5863    0.0000 O   0  0  0  0  0  0  0  0  0  0  0  0
    4.6562  -10.3155    0.0000 O   0  0  0  0  0  0  0  0  0  0  0  0
  1  2  1  0  0  0  0
  2  3  1  0  0  0  0
  3  4  1  0  0  0  0
  4  5  1  0  0  0  0
  5  6  2  0  0  0  0
  6  1  1  0  0  0  0
  1  7  1  0  0  0  0
  7  8  1  0  0  0  0
  8  9  1  0  0  0  0
  9  2  1  0  0  0  0
  8 10  1  6  0  0  0
  7 11  1  6  0  0  0
  1 12  1  0  0  0  0
  6 13  1  0  0  0  0
 13 14  2  0  0  0  0
 13 15  1  0  0  0  0
 15 16  1  0  0  0  0
  9 17  1  1  0  0  0
  3 18  1  1  0  0  0
 19 18  1  1  0  0  0
 19 20  1  0  0  0  0
 20 21  1  0  0  0  0
 21 22  1  0  0  0  0
 22 23  1  0  0  0  0
 23 24  1  0  0  0  0
 24 19  1  0  0  0  0
 21 25  1  1  0  0  0
 23 26  1  1  0  0  0
 22 27  1  6  0  0  0
 24 28  1  6  0  0  0
 25 29  1  0  0  0  0
M  END
>  <cdx:fragmentId>
5

$$$$
