93085.cdx
  Mrv1902 05222410272D          

 16 16  0  0  0  0            999 V2000
    5.9626  -11.1281    0.0000 C   0  0  0  0  0  0  0  0  0  0  0  0
    6.2109  -11.9149    0.0000 C   0  0  0  0  0  0  0  0  0  0  0  0
    7.0358  -11.9219    0.0000 C   0  0  0  0  0  0  0  0  0  0  0  0
    7.2975  -11.1395    0.0000 O   0  0  0  0  0  0  0  0  0  0  0  0
    6.6342  -10.6489    0.0000 C   0  0  0  0  0  0  0  0  0  0  0  0
    5.1802  -10.8664    0.0000 C   0  0  0  0  0  0  0  0  0  0  0  0
    7.5150  -12.5935    0.0000 C   0  0  0  0  0  0  0  0  0  0  0  0
    6.6413   -9.8239    0.0000 C   0  0  0  0  0  0  0  0  0  0  0  0
    6.6413   -8.9989    0.0000 C   0  0  0  0  0  0  0  0  0  0  0  0
    5.8163   -9.8204    0.0000 C   0  0  0  0  0  0  0  0  0  0  0  0
    7.4663   -9.8275    0.0000 C   0  0  0  0  0  0  0  0  0  0  0  0
    7.3558   -8.5864    0.0000 C   0  0  0  0  0  0  0  0  0  0  0  0
    7.3558   -7.7614    0.0000 C   0  0  0  0  0  0  0  0  0  0  0  0
    8.0702   -7.3489    0.0000 C   0  0  0  0  0  0  0  0  0  0  0  0
    8.0702   -6.5239    0.0000 C   0  0  0  0  0  0  0  0  0  0  0  0
    8.7847   -7.7614    0.0000 O   0  0  0  0  0  0  0  0  0  0  0  0
  1  2  1  0  0  0  0
  2  3  2  0  0  0  0
  3  4  1  0  0  0  0
  4  5  1  0  0  0  0
  5  1  2  0  0  0  0
  1  6  1  0  0  0  0
  3  7  1  0  0  0  0
  5  8  1  0  0  0  0
  8  9  1  0  0  0  0
  8 10  1  0  0  0  0
  8 11  1  0  0  0  0
  9 12  1  0  0  0  0
 12 13  1  0  0  0  0
 13 14  1  0  0  0  0
 14 15  1  0  0  0  0
 14 16  2  0  0  0  0
M  END
>  <cdx:fragmentId>
5

$$$$
