93081.cdx
  Mrv1902 05222410272D          

 17 19  0  0  0  0            999 V2000
    7.0725   -6.0083    0.0000 C   0  0  2  0  0  0  0  0  0  0  0  0
    7.2440   -5.2013    0.0000 C   0  0  0  0  0  0  0  0  0  0  0  0
    8.0645   -5.1151    0.0000 C   0  0  0  0  0  0  0  0  0  0  0  0
    8.4001   -5.8688    0.0000 C   0  0  0  0  0  0  0  0  0  0  0  0
    7.7870   -6.4208    0.0000 C   0  0  2  0  0  0  0  0  0  0  0  0
    7.0725   -6.8333    0.0000 C   0  0  1  0  0  0  0  0  0  0  0  0
    6.3580   -7.2458    0.0000 C   0  0  1  0  0  0  0  0  0  0  0  0
    5.6436   -6.8333    0.0000 C   0  0  0  0  0  0  0  0  0  0  0  0
    5.6436   -6.0083    0.0000 C   0  0  0  0  0  0  0  0  0  0  0  0
    6.3580   -5.5958    0.0000 C   0  0  1  0  0  0  0  0  0  0  0  0
    7.0725   -8.4833    0.0000 C   0  0  0  0  0  0  0  0  0  0  0  0
    6.3580   -8.0708    0.0000 C   0  0  0  0  0  0  0  0  0  0  0  0
    5.6436   -8.4833    0.0000 C   0  0  0  0  0  0  0  0  0  0  0  0
    9.2070   -6.0403    0.0000 C   0  0  0  0  0  0  0  0  0  0  0  0
    6.3580   -4.7708    0.0000 C   0  0  0  0  0  0  0  0  0  0  0  0
    8.2719   -7.0882    0.0000 H   0  0  0  0  0  0  0  0  0  0  0  0
    7.4850   -7.5478    0.0000 H   0  0  0  0  0  0  0  0  0  0  0  0
  1  2  1  6  0  0  0
  2  3  1  0  0  0  0
  3  4  1  0  0  0  0
  4  5  1  0  0  0  0
  5  6  1  0  0  0  0
  6  7  1  0  0  0  0
  7  8  1  0  0  0  0
  8  9  1  0  0  0  0
  9 10  1  0  0  0  0
  1 10  1  0  0  0  0
  1  6  1  0  0  0  0
  1  5  1  0  0  0  0
 11 12  1  0  0  0  0
 12 13  1  0  0  0  0
  7 12  1  6  0  0  0
  4 14  2  0  0  0  0
 10 15  1  1  0  0  0
  5 16  1  1  0  0  0
  6 17  1  6  0  0  0
M  END
>  <cdx:groupId>
55

>  <cdx:fragmentId>
5

$$$$
