93080.cdx
  Mrv1902 05222410272D          

 16 17  0  0  0  0            999 V2000
    5.7318   -5.4863    0.0000 C   0  0  0  0  0  0  0  0  0  0  0  0
    5.7318   -6.3113    0.0000 C   0  0  0  0  0  0  0  0  0  0  0  0
    6.4463   -6.7237    0.0000 C   0  0  1  0  0  0  0  0  0  0  0  0
    7.1607   -6.3113    0.0000 C   0  0  2  0  0  0  0  0  0  0  0  0
    7.1607   -5.4863    0.0000 C   0  0  0  0  0  0  0  0  0  0  0  0
    6.4463   -5.0737    0.0000 C   0  0  0  0  0  0  0  0  0  0  0  0
    7.8752   -6.7237    0.0000 C   0  0  0  0  0  0  0  0  0  0  0  0
    8.5897   -6.3113    0.0000 C   0  0  1  0  0  0  0  0  0  0  0  0
    8.5897   -5.4863    0.0000 C   0  0  0  0  0  0  0  0  0  0  0  0
    7.8752   -5.0737    0.0000 C   0  0  0  0  0  0  0  0  0  0  0  0
    9.3042   -5.0737    0.0000 O   0  0  0  0  0  0  0  0  0  0  0  0
    9.3042   -6.7237    0.0000 C   0  0  0  0  0  0  0  0  0  0  0  0
   10.0186   -6.3113    0.0000 C   0  0  0  0  0  0  0  0  0  0  0  0
    9.3042   -7.5488    0.0000 C   0  0  0  0  0  0  0  0  0  0  0  0
    6.4463   -7.5488    0.0000 C   0  0  0  0  0  0  0  0  0  0  0  0
    7.1607   -7.1362    0.0000 C   0  0  0  0  0  0  0  0  0  0  0  0
  1  2  1  0  0  0  0
  2  3  1  0  0  0  0
  3  4  1  0  0  0  0
  4  5  1  0  0  0  0
  5  6  1  0  0  0  0
  6  1  1  0  0  0  0
  4  7  1  0  0  0  0
  7  8  1  0  0  0  0
  8  9  1  0  0  0  0
  9 10  1  0  0  0  0
 10  5  2  0  0  0  0
  9 11  2  0  0  0  0
  8 12  1  1  0  0  0
 12 13  1  0  0  0  0
 12 14  2  0  0  0  0
  3 15  1  1  0  0  0
  4 16  1  1  0  0  0
M  END
>  <cdx:fragmentId>
5

$$$$
