93089.cdx
  Mrv1902 05222410192D          

 21 23  0  0  0  0            999 V2000
    4.3842   -7.4805    0.0000 C   0  0  0  0  0  0  0  0  0  0  0  0
    4.3842   -8.3055    0.0000 C   0  0  0  0  0  0  0  0  0  0  0  0
    5.0987   -8.7180    0.0000 C   0  0  0  0  0  0  0  0  0  0  0  0
    5.8132   -8.3055    0.0000 C   0  0  0  0  0  0  0  0  0  0  0  0
    6.5276   -8.7180    0.0000 C   0  0  0  0  0  0  0  0  0  0  0  0
    7.2421   -8.3055    0.0000 C   0  0  0  0  0  0  0  0  0  0  0  0
    7.2421   -7.4805    0.0000 C   0  0  0  0  0  0  0  0  0  0  0  0
    6.5276   -7.0680    0.0000 C   0  0  0  0  0  0  0  0  0  0  0  0
    5.8132   -7.4805    0.0000 C   0  0  0  0  0  0  0  0  0  0  0  0
    5.0987   -7.0680    0.0000 O   0  0  0  0  0  0  0  0  0  0  0  0
    3.6697   -7.0680    0.0000 O   0  0  0  0  0  0  0  0  0  0  0  0
    5.5112   -9.4325    0.0000 C   0  0  0  0  0  0  0  0  0  0  0  0
    4.6862   -9.4325    0.0000 C   0  0  0  0  0  0  0  0  0  0  0  0
    7.9566   -8.7180    0.0000 O   0  0  0  0  0  0  0  0  0  0  0  0
    8.6710   -8.3055    0.0000 C   0  0  0  0  0  0  0  0  0  0  0  0
    9.3855   -8.7180    0.0000 C   0  0  0  0  0  0  0  0  0  0  0  0
   10.1000   -8.3055    0.0000 C   0  0  0  0  0  0  0  0  0  0  0  0
   10.8145   -8.7180    0.0000 C   0  0  0  0  0  0  0  0  0  0  0  0
   10.8145   -9.5430    0.0000 C   0  0  0  0  0  0  0  0  0  0  0  0
   10.1000   -9.9555    0.0000 C   0  0  0  0  0  0  0  0  0  0  0  0
    9.3855   -9.5430    0.0000 C   0  0  0  0  0  0  0  0  0  0  0  0
  1  2  1  0  0  0  0
  2  3  1  0  0  0  0
  3  4  1  0  0  0  0
  4  5  1  0  0  0  0
  5  6  2  0  0  0  0
  6  7  1  0  0  0  0
  7  8  2  0  0  0  0
  8  9  1  0  0  0  0
  4  9  2  0  0  0  0
  9 10  1  0  0  0  0
  1 10  1  0  0  0  0
  1 11  2  0  0  0  0
  3 12  1  0  0  0  0
  3 13  1  0  0  0  0
 15 16  1  0  0  0  0
 16 17  1  0  0  0  0
 17 18  2  0  0  0  0
 18 19  1  0  0  0  0
 19 20  2  0  0  0  0
 20 21  1  0  0  0  0
 16 21  2  0  0  0  0
 14 15  1  0  0  0  0
  6 14  1  0  0  0  0
M  END
>  <cdx:fragmentId>
5

$$$$
