93094.cdx
  Mrv1902 05222410272D          

 14 14  0  0  0  0            999 V2000
    7.6918   -8.9219    0.0000 O   0  0  0  0  0  0  0  0  0  0  0  0
    8.4764   -8.6669    0.0000 C   0  0  0  0  0  0  0  0  0  0  0  0
    8.4764   -7.8419    0.0000 C   0  0  0  0  0  0  0  0  0  0  0  0
    7.6918   -7.5870    0.0000 C   0  0  0  0  0  0  0  0  0  0  0  0
    7.2069   -8.2544    0.0000 C   0  0  0  0  0  0  0  0  0  0  0  0
    9.1439   -9.1519    0.0000 O   0  0  0  0  0  0  0  0  0  0  0  0
    6.4924   -8.6669    0.0000 C   0  0  0  0  0  0  0  0  0  0  0  0
    5.7780   -8.2544    0.0000 C   0  0  0  0  0  0  0  0  0  0  0  0
    5.0635   -8.6669    0.0000 C   0  0  0  0  0  0  0  0  0  0  0  0
    4.3490   -8.2544    0.0000 C   0  0  0  0  0  0  0  0  0  0  0  0
    3.6345   -8.6669    0.0000 C   0  0  0  0  0  0  0  0  0  0  0  0
    7.4369   -6.8024    0.0000 C   0  0  0  0  0  0  0  0  0  0  0  0
    9.1439   -7.3570    0.0000 C   0  0  0  0  0  0  0  0  0  0  0  0
    6.4924   -7.8419    0.0000 O   0  0  0  0  0  0  0  0  0  0  0  0
  1  2  1  0  0  0  0
  2  3  1  0  0  0  0
  3  4  2  0  0  0  0
  4  5  1  0  0  0  0
  1  5  1  0  0  0  0
  2  6  2  0  0  0  0
  7  8  1  0  0  0  0
  8  9  1  0  0  0  0
  9 10  1  0  0  0  0
 10 11  1  0  0  0  0
  5  7  1  0  0  0  0
  4 12  1  0  0  0  0
  3 13  1  0  0  0  0
  5 14  1  0  0  0  0
M  END
>  <cdx:groupId>
44

>  <cdx:fragmentId>
5

$$$$
