93098.cdx
  Mrv1902 05222410192D          

 12 11  0  0  0  0            999 V2000
    9.5468   -7.9079    0.0000 C   0  0  0  0  0  0  0  0  0  0  0  0
    8.8323   -8.3204    0.0000 C   0  0  0  0  0  0  0  0  0  0  0  0
    8.1179   -7.9079    0.0000 C   0  0  0  0  0  0  0  0  0  0  0  0
    7.4034   -8.3204    0.0000 C   0  0  2  0  0  0  0  0  0  0  0  0
    6.6889   -7.9079    0.0000 C   0  0  0  0  0  0  0  0  0  0  0  0
    5.9745   -8.3204    0.0000 C   0  0  0  0  0  0  0  0  0  0  0  0
    5.2600   -7.9079    0.0000 C   0  0  0  0  0  0  0  0  0  0  0  0
    4.5455   -8.3204    0.0000 C   0  0  0  0  0  0  0  0  0  0  0  0
    3.8310   -7.9079    0.0000 C   0  0  0  0  0  0  0  0  0  0  0  0
    9.5468   -7.0829    0.0000 O   0  0  0  0  0  0  0  0  0  0  0  0
   10.2613   -8.3204    0.0000 O   0  0  0  0  0  0  0  0  0  0  0  0
    7.4034   -9.1454    0.0000 O   0  0  0  0  0  0  0  0  0  0  0  0
  1  2  1  0  0  0  0
  2  3  2  0  0  0  0
  3  4  1  0  0  0  0
  4  5  1  0  0  0  0
  5  6  1  0  0  0  0
  6  7  1  0  0  0  0
  7  8  1  0  0  0  0
  8  9  1  0  0  0  0
  1 10  2  0  0  0  0
  1 11  1  0  0  0  0
  4 12  1  1  0  0  0
M  END
>  <cdx:fragmentId>
5

$$$$
