93097.cdx
  Mrv1902 05222410282D          

 20 19  0  0  0  0            999 V2000
    3.1166   -8.7182    0.0000 C   0  0  0  0  0  0  0  0  0  0  0  0
    3.8310   -8.3057    0.0000 C   0  0  0  0  0  0  0  0  0  0  0  0
    4.5455   -8.7182    0.0000 C   0  0  1  0  0  0  0  0  0  0  0  0
    5.2600   -8.3057    0.0000 C   0  0  0  0  0  0  0  0  0  0  0  0
    5.9745   -8.7182    0.0000 C   0  0  0  0  0  0  0  0  0  0  0  0
    6.6889   -8.3057    0.0000 C   0  0  0  0  0  0  0  0  0  0  0  0
    7.4034   -8.7182    0.0000 C   0  0  0  0  0  0  0  0  0  0  0  0
    8.1179   -8.3057    0.0000 C   0  0  0  0  0  0  0  0  0  0  0  0
    8.8323   -7.8932    0.0000 C   0  0  0  0  0  0  0  0  0  0  0  0
    9.5468   -7.4807    0.0000 C   0  0  0  0  0  0  0  0  0  0  0  0
   10.2613   -7.0682    0.0000 C   0  0  0  0  0  0  0  0  0  0  0  0
   10.9758   -6.6557    0.0000 C   0  0  0  0  0  0  0  0  0  0  0  0
   11.6902   -7.0682    0.0000 C   0  0  0  0  0  0  0  0  0  0  0  0
   12.4047   -6.6557    0.0000 C   0  0  0  0  0  0  0  0  0  0  0  0
    4.5455   -9.5432    0.0000 O   0  0  0  0  0  0  0  0  0  0  0  0
   13.1192   -7.0682    0.0000 O   0  0  0  0  0  0  0  0  0  0  0  0
    2.4021   -8.3057    0.0000 O   0  0  0  0  0  0  0  0  0  0  0  0
    1.6876   -8.7182    0.0000 C   0  0  0  0  0  0  0  0  0  0  0  0
    1.6876   -9.5432    0.0000 O   0  0  0  0  0  0  0  0  0  0  0  0
    0.9732   -8.3057    0.0000 C   0  0  0  0  0  0  0  0  0  0  0  0
  1  2  1  0  0  0  0
  2  3  1  0  0  0  0
  3  4  1  0  0  0  0
  4  5  2  0  0  0  0
  5  6  1  0  0  0  0
  6  7  2  0  0  0  0
  7  8  1  0  0  0  0
  8  9  3  0  0  0  0
  9 10  1  0  0  0  0
 10 11  3  0  0  0  0
 11 12  1  0  0  0  0
 12 13  2  0  0  0  0
 13 14  1  0  0  0  0
  3 15  1  1  0  0  0
 14 16  1  0  0  0  0
 18 19  2  0  0  0  0
 18 20  1  0  0  0  0
 17 18  1  0  0  0  0
  1 17  1  0  0  0  0
M  END
>  <cdx:groupId>
61

>  <cdx:fragmentId>
5

$$$$
