93093.cdx
  Mrv1902 05222410262D          

 18 19  0  0  0  0            999 V2000
    6.6617  -10.2309    0.0000 C   0  0  0  0  0  0  0  0  0  0  0  0
    7.3779   -9.8213    0.0000 C   0  0  0  0  0  0  0  0  0  0  0  0
    7.3812   -8.9963    0.0000 C   0  0  0  0  0  0  0  0  0  0  0  0
    6.6684   -8.5810    0.0000 C   0  0  0  0  0  0  0  0  0  0  0  0
    5.9523   -8.9906    0.0000 C   0  0  0  0  0  0  0  0  0  0  0  0
    5.9489   -9.8156    0.0000 C   0  0  0  0  0  0  0  0  0  0  0  0
    6.6584  -11.0559    0.0000 O   0  0  0  0  0  0  0  0  0  0  0  0
    5.2395   -8.5752    0.0000 O   0  0  0  0  0  0  0  0  0  0  0  0
    4.5233   -8.9848    0.0000 C   0  0  0  0  0  0  0  0  0  0  0  0
    8.0973   -8.5867    0.0000 C   0  0  0  0  0  0  0  0  0  0  0  0
    8.8101   -9.0021    0.0000 C   0  0  0  0  0  0  0  0  0  0  0  0
    9.5263   -8.5925    0.0000 C   0  0  0  0  0  0  0  0  0  0  0  0
   10.2391   -9.0079    0.0000 C   0  0  0  0  0  0  0  0  0  0  0  0
   10.9552   -8.5983    0.0000 C   0  0  0  0  0  0  0  0  0  0  0  0
   10.9585   -7.7733    0.0000 C   0  0  0  0  0  0  0  0  0  0  0  0
   10.2457   -7.3579    0.0000 C   0  0  0  0  0  0  0  0  0  0  0  0
    9.5296   -7.7675    0.0000 C   0  0  0  0  0  0  0  0  0  0  0  0
   11.6680   -9.0137    0.0000 O   0  0  0  0  0  0  0  0  0  0  0  0
  1  2  1  0  0  0  0
  2  3  2  0  0  0  0
  3  4  1  0  0  0  0
  4  5  2  0  0  0  0
  5  6  1  0  0  0  0
  1  6  2  0  0  0  0
  1  7  1  0  0  0  0
  8  9  1  0  0  0  0
  5  8  1  0  0  0  0
 10 11  1  0  0  0  0
 12 13  1  0  0  0  0
 13 14  2  0  0  0  0
 14 15  1  0  0  0  0
 15 16  2  0  0  0  0
 16 17  1  0  0  0  0
 12 17  2  0  0  0  0
 14 18  1  0  0  0  0
 11 12  1  0  0  0  0
  3 10  1  0  0  0  0
M  END
>  <cdx:fragmentId>
27

$$$$
