93092.cdx
  Mrv1902 05222410262D          

 33 36  0  0  0  0            999 V2000
    8.2674   -7.0210    0.0000 C   0  0  0  0  0  0  0  0  0  0  0  0
    8.2674   -7.8460    0.0000 C   0  0  0  0  0  0  0  0  0  0  0  0
    7.5529   -8.2585    0.0000 C   0  0  0  0  0  0  0  0  0  0  0  0
    7.5529   -9.0835    0.0000 O   0  0  0  0  0  0  0  0  0  0  0  0
    6.8384   -7.8460    0.0000 C   0  0  0  0  0  0  0  0  0  0  0  0
    6.1239   -8.2585    0.0000 C   0  0  0  0  0  0  0  0  0  0  0  0
    5.4095   -7.8460    0.0000 C   0  0  0  0  0  0  0  0  0  0  0  0
    5.4095   -7.0210    0.0000 C   0  0  0  0  0  0  0  0  0  0  0  0
    6.1239   -6.6085    0.0000 C   0  0  0  0  0  0  0  0  0  0  0  0
    6.8384   -7.0210    0.0000 C   0  0  0  0  0  0  0  0  0  0  0  0
    7.5529   -6.6085    0.0000 O   0  0  0  0  0  0  0  0  0  0  0  0
    8.9818   -6.6085    0.0000 C   0  0  0  0  0  0  0  0  0  0  0  0
    9.6963   -7.0210    0.0000 C   0  0  0  0  0  0  0  0  0  0  0  0
   10.4108   -6.6085    0.0000 C   0  0  0  0  0  0  0  0  0  0  0  0
   10.4108   -5.7835    0.0000 C   0  0  0  0  0  0  0  0  0  0  0  0
    9.6963   -5.3710    0.0000 C   0  0  0  0  0  0  0  0  0  0  0  0
    8.9818   -5.7835    0.0000 C   0  0  0  0  0  0  0  0  0  0  0  0
    4.6950   -6.6085    0.0000 O   0  0  0  0  0  0  0  0  0  0  0  0
    3.9805   -7.0210    0.0000 C   0  0  0  0  0  0  0  0  0  0  0  0
   11.1252   -5.3710    0.0000 O   0  0  0  0  0  0  0  0  0  0  0  0
   11.1252   -7.0210    0.0000 O   0  0  0  0  0  0  0  0  0  0  0  0
    6.1239   -9.0835    0.0000 O   0  0  0  0  0  0  0  0  0  0  0  0
    2.6000   -6.9989    0.0000 O   0  0  0  0  0  0  0  0  0  0  0  0
    2.5990   -7.8239    0.0000 C   0  0  0  0  0  0  0  0  0  0  0  0
    4.0279   -7.8256    0.0000 O   0  0  0  0  0  0  0  0  0  0  0  0
    3.3129   -8.2373    0.0000 C   0  0  1  0  0  0  0  0  0  0  0  0
    2.5969   -9.4739    0.0000 O   0  0  0  0  0  0  0  0  0  0  0  0
    3.3119   -9.0623    0.0000 C   0  0  1  0  0  0  0  0  0  0  0  0
    4.0249  -10.3006    0.0000 O   0  0  0  0  0  0  0  0  0  0  0  0
    4.0259   -9.4756    0.0000 C   0  0  2  0  0  0  0  0  0  0  0  0
    5.4548   -9.4774    0.0000 O   0  0  0  0  0  0  0  0  0  0  0  0
    4.7408   -9.0640    0.0000 C   0  0  1  0  0  0  0  0  0  0  0  0
    4.7419   -8.2390    0.0000 C   0  0  2  0  0  0  0  0  0  0  0  0
 33 25  1  0  0  0  0
 24 23  1  0  0  0  0
 26 24  1  1  0  0  0
 26 25  1  0  0  0  0
 28 26  1  0  0  0  0
 28 27  1  6  0  0  0
 30 28  1  0  0  0  0
 30 29  1  1  0  0  0
 32 30  1  0  0  0  0
 32 31  1  6  0  0  0
 33 32  1  0  0  0  0
  1  2  2  0  0  0  0
  2  3  1  0  0  0  0
  3  4  2  0  0  0  0
  3  5  1  0  0  0  0
  5  6  1  0  0  0  0
  6  7  2  0  0  0  0
  7  8  1  0  0  0  0
  8  9  2  0  0  0  0
  9 10  1  0  0  0  0
  5 10  2  0  0  0  0
 10 11  1  0  0  0  0
  1 11  1  0  0  0  0
  1 12  1  0  0  0  0
 12 13  1  0  0  0  0
 13 14  2  0  0  0  0
 14 15  1  0  0  0  0
 15 16  2  0  0  0  0
 16 17  1  0  0  0  0
 12 17  2  0  0  0  0
 18 19  1  0  0  0  0
  8 18  1  0  0  0  0
 15 20  1  0  0  0  0
 14 21  1  0  0  0  0
  6 22  1  0  0  0  0
 33  7  1  1  0  0  0
M  END
>  <cdx:groupId>
107

>  <cdx:fragmentId>
5

$$$$
