931.cdx
  Mrv1902 05222410192D          

 10 11  0  0  0  0            999 V2000
    4.0516   -1.5056    0.0000 C   0  0  0  0  0  0  0  0  0  0  0  0
    4.7661   -1.9181    0.0000 C   0  0  0  0  0  0  0  0  0  0  0  0
    4.7661   -2.7431    0.0000 C   0  0  0  0  0  0  0  0  0  0  0  0
    4.0516   -3.1556    0.0000 C   0  0  0  0  0  0  0  0  0  0  0  0
    3.3371   -2.7431    0.0000 C   0  0  0  0  0  0  0  0  0  0  0  0
    2.6227   -3.1556    0.0000 C   0  0  0  0  0  0  0  0  0  0  0  0
    1.9082   -2.7431    0.0000 C   0  0  0  0  0  0  0  0  0  0  0  0
    1.9082   -1.9181    0.0000 C   0  0  0  0  0  0  0  0  0  0  0  0
    2.6227   -1.5056    0.0000 C   0  0  0  0  0  0  0  0  0  0  0  0
    3.3371   -1.9181    0.0000 C   0  0  0  0  0  0  0  0  0  0  0  0
  1  2  1  0  0  0  0
  2  3  2  0  0  0  0
  3  4  1  0  0  0  0
  4  5  2  0  0  0  0
  5  6  1  0  0  0  0
  6  7  2  0  0  0  0
  7  8  1  0  0  0  0
  8  9  2  0  0  0  0
  9 10  1  0  0  0  0
  1 10  2  0  0  0  0
  5 10  1  0  0  0  0
M  END
>  <cdx:groupId>
33

>  <cdx:fragmentId>
5

$$$$
