93109.cdx
  Mrv1902 05222410282D          

 69 77  0  0  0  0            999 V2000
   13.6686  -10.4170    0.0000 C   0  0  1  0  0  0  0  0  0  0  0  0
   14.3831  -10.0045    0.0000 C   0  0  2  0  0  0  0  0  0  0  0  0
   15.1677  -10.2594    0.0000 C   0  0  0  0  0  0  0  0  0  0  0  0
   15.6526   -9.5920    0.0000 C   0  0  2  0  0  0  0  0  0  0  0  0
   16.4373   -9.3370    0.0000 O   0  0  0  0  0  0  0  0  0  0  0  0
   16.4373   -8.5120    0.0000 C   0  0  2  0  0  0  0  0  0  0  0  0
   15.6526   -8.2571    0.0000 C   0  0  2  0  0  0  0  0  0  0  0  0
   15.1677   -8.9245    0.0000 C   0  0  2  0  0  0  0  0  0  0  0  0
   14.3831   -9.1795    0.0000 C   0  0  1  0  0  0  0  0  0  0  0  0
   13.6686   -8.7670    0.0000 C   0  0  0  0  0  0  0  0  0  0  0  0
   12.9542   -9.1795    0.0000 C   0  0  0  0  0  0  0  0  0  0  0  0
   12.9542  -10.0045    0.0000 C   0  0  2  0  0  0  0  0  0  0  0  0
   12.2397  -10.4170    0.0000 C   0  0  1  0  0  0  0  0  0  0  0  0
   11.5252  -10.0045    0.0000 C   0  0  0  0  0  0  0  0  0  0  0  0
   10.8107  -10.4170    0.0000 C   0  0  0  0  0  0  0  0  0  0  0  0
   10.8107  -11.2420    0.0000 C   0  0  1  0  0  0  0  0  0  0  0  0
   11.5252  -11.6545    0.0000 C   0  0  0  0  0  0  0  0  0  0  0  0
   12.2397  -11.2420    0.0000 C   0  0  2  0  0  0  0  0  0  0  0  0
   12.9542  -11.6545    0.0000 C   0  0  0  0  0  0  0  0  0  0  0  0
   13.6686  -11.2420    0.0000 C   0  0  0  0  0  0  0  0  0  0  0  0
   16.3510   -7.6916    0.0000 O   0  0  0  0  0  0  0  0  0  0  0  0
   17.1909   -8.8476    0.0000 C   0  0  0  0  0  0  0  0  0  0  0  0
   17.8584   -8.3627    0.0000 C   0  0  0  0  0  0  0  0  0  0  0  0
   17.7721   -7.5422    0.0000 C   0  0  1  0  0  0  0  0  0  0  0  0
   17.0185   -7.2066    0.0000 C   0  0  0  0  0  0  0  0  0  0  0  0
   12.2397   -9.5920    0.0000 C   0  0  0  0  0  0  0  0  0  0  0  0
   14.3831   -8.3545    0.0000 C   0  0  0  0  0  0  0  0  0  0  0  0
   15.3977   -7.4725    0.0000 C   0  0  0  0  0  0  0  0  0  0  0  0
   18.4396   -7.0573    0.0000 C   0  0  0  0  0  0  0  0  0  0  0  0
   10.0963  -11.6545    0.0000 O   0  0  0  0  0  0  0  0  0  0  0  0
   13.6686   -9.5920    0.0000 H   0  0  0  0  0  0  0  0  0  0  0  0
   14.3831  -10.8295    0.0000 H   0  0  0  0  0  0  0  0  0  0  0  0
   16.1376  -10.2594    0.0000 H   0  0  0  0  0  0  0  0  0  0  0  0
   14.8061   -8.1830    0.0000 H   0  0  0  0  0  0  0  0  0  0  0  0
   12.9542  -10.8295    0.0000 H   0  0  0  0  0  0  0  0  0  0  0  0
   12.2397  -12.0670    0.0000 H   0  0  0  0  0  0  0  0  0  0  0  0
    9.3714  -11.2394    0.0000 C   0  0  1  0  0  0  0  0  0  0  0  0
    8.6565  -11.6512    0.0000 C   0  0  2  0  0  0  0  0  0  0  0  0
    8.6557  -12.4762    0.0000 O   0  0  0  0  0  0  0  0  0  0  0  0
    7.9425  -11.2380    0.0000 C   0  0  1  0  0  0  0  0  0  0  0  0
    7.2276  -11.6498    0.0000 O   0  0  0  0  0  0  0  0  0  0  0  0
    7.9433  -10.4130    0.0000 C   0  0  1  0  0  0  0  0  0  0  0  0
    7.2293   -9.9998    0.0000 O   0  0  0  0  0  0  0  0  0  0  0  0
    8.6582  -10.0012    0.0000 C   0  0  2  0  0  0  0  0  0  0  0  0
    9.3723  -10.4144    0.0000 O   0  0  0  0  0  0  0  0  0  0  0  0
    8.6590   -9.1762    0.0000 C   0  0  0  0  0  0  0  0  0  0  0  0
    7.9450   -8.7630    0.0000 O   0  0  0  0  0  0  0  0  0  0  0  0
    6.4043  -10.0013    0.0000 C   0  0  2  0  0  0  0  0  0  0  0  0
    5.9911   -9.2872    0.0000 O   0  0  0  0  0  0  0  0  0  0  0  0
    5.1647   -9.2904    0.0000 C   0  0  1  0  0  0  0  0  0  0  0  0
    4.7543  -10.0061    0.0000 C   0  0  2  0  0  0  0  0  0  0  0  0
    5.1688  -10.7210    0.0000 C   0  0  1  0  0  0  0  0  0  0  0  0
    5.9938  -10.7170    0.0000 C   0  0  1  0  0  0  0  0  0  0  0  0
    6.4091  -11.4298    0.0000 O   0  0  0  0  0  0  0  0  0  0  0  0
    4.7587  -11.4369    0.0000 O   0  0  0  0  0  0  0  0  0  0  0  0
    3.9293  -10.0080    0.0000 O   0  0  0  0  0  0  0  0  0  0  0  0
    4.7498   -8.5773    0.0000 C   0  0  0  0  0  0  0  0  0  0  0  0
    3.9248   -8.5801    0.0000 O   0  0  0  0  0  0  0  0  0  0  0  0
    6.4277  -12.2546    0.0000 C   0  0  2  0  0  0  0  0  0  0  0  0
    5.7235  -12.6845    0.0000 O   0  0  0  0  0  0  0  0  0  0  0  0
    5.7437  -13.5092    0.0000 C   0  0  1  0  0  0  0  0  0  0  0  0
    6.4609  -13.9084    0.0000 C   0  0  2  0  0  0  0  0  0  0  0  0
    7.1675  -13.4827    0.0000 C   0  0  1  0  0  0  0  0  0  0  0  0
    7.1498  -12.6621    0.0000 C   0  0  1  0  0  0  0  0  0  0  0  0
    5.0376  -13.9360    0.0000 C   0  0  0  0  0  0  0  0  0  0  0  0
    7.8902  -13.8808    0.0000 O   0  0  0  0  0  0  0  0  0  0  0  0
    7.8577  -12.2384    0.0000 O   0  0  0  0  0  0  0  0  0  0  0  0
    6.4751  -14.7333    0.0000 O   0  0  0  0  0  0  0  0  0  0  0  0
    5.0542  -14.7608    0.0000 O   0  0  0  0  0  0  0  0  0  0  0  0
  1  2  1  0  0  0  0
  2  3  1  0  0  0  0
  3  4  1  0  0  0  0
  4  5  1  0  0  0  0
  6  5  1  6  0  0  0
  6  7  1  0  0  0  0
  7  8  1  0  0  0  0
  8  9  1  0  0  0  0
  9 10  1  0  0  0  0
 10 11  1  0  0  0  0
 11 12  1  0  0  0  0
 12 13  1  0  0  0  0
 13 14  1  0  0  0  0
 14 15  1  0  0  0  0
 15 16  1  0  0  0  0
 16 17  1  0  0  0  0
 17 18  1  0  0  0  0
 18 19  1  0  0  0  0
 19 20  1  0  0  0  0
  1 20  1  0  0  0  0
  1 12  1  0  0  0  0
 13 18  1  0  0  0  0
  2  9  1  0  0  0  0
  4  8  1  0  0  0  0
 22 23  1  0  0  0  0
 23 24  1  0  0  0  0
 24 25  1  0  0  0  0
 21 25  1  0  0  0  0
  6 21  1  0  0  0  0
  6 22  1  0  0  0  0
 13 26  1  1  0  0  0
  9 27  1  1  0  0  0
  7 28  1  6  0  0  0
 24 29  1  1  0  0  0
 16 30  1  1  0  0  0
  1 31  1  1  0  0  0
  2 32  1  6  0  0  0
  4 33  1  6  0  0  0
  8 34  1  6  0  0  0
 12 35  1  6  0  0  0
 18 36  1  6  0  0  0
 37 38  1  0  0  0  0
 38 39  1  6  0  0  0
 38 40  1  0  0  0  0
 40 41  1  1  0  0  0
 40 42  1  0  0  0  0
 42 43  1  1  0  0  0
 42 44  1  0  0  0  0
 44 45  1  0  0  0  0
 44 46  1  1  0  0  0
 46 47  1  0  0  0  0
 37 45  1  0  0  0  0
 37 30  1  1  0  0  0
 48 43  1  1  0  0  0
 48 49  1  0  0  0  0
 49 50  1  0  0  0  0
 50 51  1  0  0  0  0
 51 52  1  0  0  0  0
 52 53  1  0  0  0  0
 53 48  1  0  0  0  0
 53 54  1  6  0  0  0
 52 55  1  1  0  0  0
 51 56  1  6  0  0  0
 50 57  1  1  0  0  0
 57 58  1  0  0  0  0
 59 54  1  1  0  0  0
 59 60  1  0  0  0  0
 60 61  1  0  0  0  0
 61 62  1  0  0  0  0
 62 63  1  0  0  0  0
 63 64  1  0  0  0  0
 64 59  1  0  0  0  0
 61 65  1  1  0  0  0
 63 66  1  1  0  0  0
 64 67  1  6  0  0  0
 62 68  1  6  0  0  0
 65 69  1  0  0  0  0
M  END
>  <cdx:fragmentId>
5

$$$$
