93100.cdx
  Mrv1902 05222410202D          

 14 13  0  0  0  0            999 V2000
   10.2613   -9.4385    0.0000 C   0  0  0  0  0  0  0  0  0  0  0  0
    9.5468   -9.8510    0.0000 C   0  0  0  0  0  0  0  0  0  0  0  0
    8.8323   -9.4385    0.0000 C   0  0  2  0  0  0  0  0  0  0  0  0
    8.1179   -9.8510    0.0000 C   0  0  0  0  0  0  0  0  0  0  0  0
    7.4034   -9.4385    0.0000 C   0  0  0  0  0  0  0  0  0  0  0  0
    6.6889   -9.0260    0.0000 C   0  0  0  0  0  0  0  0  0  0  0  0
    5.9745   -8.6135    0.0000 C   0  0  0  0  0  0  0  0  0  0  0  0
    5.2600   -8.2010    0.0000 C   0  0  0  0  0  0  0  0  0  0  0  0
    4.5455   -7.7885    0.0000 C   0  0  0  0  0  0  0  0  0  0  0  0
    3.8310   -7.3760    0.0000 C   0  0  0  0  0  0  0  0  0  0  0  0
    3.1166   -6.9635    0.0000 C   0  0  0  0  0  0  0  0  0  0  0  0
   10.2613   -8.6135    0.0000 O   0  0  0  0  0  0  0  0  0  0  0  0
   10.9758   -9.8510    0.0000 O   0  0  0  0  0  0  0  0  0  0  0  0
    8.8323   -8.6135    0.0000 O   0  0  0  0  0  0  0  0  0  0  0  0
  1  2  1  0  0  0  0
  2  3  1  0  0  0  0
  3  4  1  0  0  0  0
  4  5  1  0  0  0  0
  5  6  3  0  0  0  0
  6  7  1  0  0  0  0
  7  8  3  0  0  0  0
  8  9  1  0  0  0  0
  9 10  3  0  0  0  0
 10 11  1  0  0  0  0
  1 12  2  0  0  0  0
  1 13  1  0  0  0  0
  3 14  1  6  0  0  0
M  END
>  <cdx:groupId>
43

>  <cdx:fragmentId>
5

$$$$
