93105.cdx
  Mrv1902 05222410182D          

 19 18  0  0  0  0            999 V2000
    3.8288   -6.0029    0.0000 C   0  0  0  0  0  0  0  0  0  0  0  0
    4.5433   -6.4154    0.0000 C   0  0  0  0  0  0  0  0  0  0  0  0
    5.2578   -6.0029    0.0000 C   0  0  0  0  0  0  0  0  0  0  0  0
    5.9723   -6.4154    0.0000 C   0  0  0  0  0  0  0  0  0  0  0  0
    6.6867   -6.8279    0.0000 C   0  0  0  0  0  0  0  0  0  0  0  0
    7.4012   -7.2404    0.0000 C   0  0  0  0  0  0  0  0  0  0  0  0
    8.1157   -7.6529    0.0000 C   0  0  0  0  0  0  0  0  0  0  0  0
    8.8301   -8.0654    0.0000 C   0  0  0  0  0  0  0  0  0  0  0  0
    9.5446   -7.6529    0.0000 C   0  0  0  0  0  0  0  0  0  0  0  0
    3.1144   -6.4154    0.0000 O   0  0  0  0  0  0  0  0  0  0  0  0
    8.8301   -8.8904    0.0000 O   0  0  0  0  0  0  0  0  0  0  0  0
   10.2591   -8.0654    0.0000 C   0  0  0  0  0  0  0  0  0  0  0  0
   10.2591   -8.8904    0.0000 C   0  0  0  0  0  0  0  0  0  0  0  0
   10.9735   -9.3029    0.0000 C   0  0  0  0  0  0  0  0  0  0  0  0
   10.9735  -10.1279    0.0000 C   0  0  0  0  0  0  0  0  0  0  0  0
   11.6880  -10.5404    0.0000 C   0  0  0  0  0  0  0  0  0  0  0  0
   11.6880  -11.3654    0.0000 C   0  0  0  0  0  0  0  0  0  0  0  0
   12.4025  -11.7779    0.0000 C   0  0  0  0  0  0  0  0  0  0  0  0
   12.4025  -12.6029    0.0000 C   0  0  0  0  0  0  0  0  0  0  0  0
  1  2  1  0  0  0  0
  2  3  1  0  0  0  0
  3  4  1  0  0  0  0
  4  5  3  0  0  0  0
  5  6  1  0  0  0  0
  6  7  3  0  0  0  0
  7  8  1  0  0  0  0
  8  9  1  0  0  0  0
  1 10  1  0  0  0  0
  8 11  1  0  0  0  0
  9 12  2  0  0  0  0
 12 13  1  0  0  0  0
 13 14  1  0  0  0  0
 14 15  1  0  0  0  0
 15 16  1  0  0  0  0
 16 17  1  0  0  0  0
 17 18  1  0  0  0  0
 18 19  1  0  0  0  0
M  END
>  <cdx:groupId>
58

>  <cdx:fragmentId>
5

$$$$
