93101.cdx
  Mrv1902 05222410202D          

 14 14  0  0  0  0            999 V2000
    7.1911   -8.6473    0.0000 O   0  0  0  0  0  0  0  0  0  0  0  0
    9.5762   -9.9030    0.0000 C   0  0  0  0  0  0  0  0  0  0  0  0
    7.7814   -9.9217    0.0000 C   0  0  0  0  0  0  0  0  0  0  0  0
    4.7108   -7.0053    0.0000 C   0  0  0  0  0  0  0  0  0  0  0  0
    5.2692   -7.6126    0.0000 C   0  0  0  0  0  0  0  0  0  0  0  0
    6.0744   -7.4326    0.0000 C   0  0  0  0  0  0  0  0  0  0  0  0
    6.6327   -8.0400    0.0000 C   0  0  0  0  0  0  0  0  0  0  0  0
    7.4379   -7.8600    0.0000 C   0  0  0  0  0  0  0  0  0  0  0  0
   10.1130   -8.1903    0.0000 O   0  0  0  0  0  0  0  0  0  0  0  0
    7.9963   -8.4673    0.0000 C   0  0  2  0  0  0  0  0  0  0  0  0
    8.2594   -9.2493    0.0000 C   0  0  0  0  0  0  0  0  0  0  0  0
    9.0843   -9.2407    0.0000 C   0  0  0  0  0  0  0  0  0  0  0  0
    9.3311   -8.4534    0.0000 C   0  0  0  0  0  0  0  0  0  0  0  0
    8.6586   -7.9755    0.0000 O   0  0  0  0  0  0  0  0  0  0  0  0
 10  1  1  1  0  0  0
 12  2  1  0  0  0  0
 11  3  1  0  0  0  0
 10  8  1  6  0  0  0
  5  4  1  0  0  0  0
  6  5  1  0  0  0  0
  7  6  1  0  0  0  0
  8  7  1  0  0  0  0
 13  9  2  0  0  0  0
 14 10  1  0  0  0  0
 11 10  1  0  0  0  0
 12 11  2  0  0  0  0
 13 12  1  0  0  0  0
 14 13  1  0  0  0  0
M  END
>  <cdx:groupId>
44

>  <cdx:fragmentId>
5

$$$$
