93108.cdx
  Mrv1902 05222410282D          

 77 86  0  0  0  0            999 V2000
   15.8365  -11.3844    0.0000 C   0  0  1  0  0  0  0  0  0  0  0  0
   16.5509  -10.9719    0.0000 C   0  0  2  0  0  0  0  0  0  0  0  0
   17.3355  -11.2269    0.0000 C   0  0  0  0  0  0  0  0  0  0  0  0
   17.8205  -10.5594    0.0000 C   0  0  2  0  0  0  0  0  0  0  0  0
   18.6051  -10.3045    0.0000 O   0  0  0  0  0  0  0  0  0  0  0  0
   18.6051   -9.4795    0.0000 C   0  0  2  0  0  0  0  0  0  0  0  0
   17.8205   -9.2245    0.0000 C   0  0  2  0  0  0  0  0  0  0  0  0
   17.3355   -9.8920    0.0000 C   0  0  2  0  0  0  0  0  0  0  0  0
   16.5509  -10.1469    0.0000 C   0  0  1  0  0  0  0  0  0  0  0  0
   15.8365   -9.7344    0.0000 C   0  0  0  0  0  0  0  0  0  0  0  0
   15.1220  -10.1469    0.0000 C   0  0  0  0  0  0  0  0  0  0  0  0
   15.1220  -10.9719    0.0000 C   0  0  2  0  0  0  0  0  0  0  0  0
   14.4075  -11.3844    0.0000 C   0  0  1  0  0  0  0  0  0  0  0  0
   13.6930  -10.9719    0.0000 C   0  0  0  0  0  0  0  0  0  0  0  0
   12.9786  -11.3844    0.0000 C   0  0  0  0  0  0  0  0  0  0  0  0
   12.9786  -12.2094    0.0000 C   0  0  1  0  0  0  0  0  0  0  0  0
   13.6930  -12.6219    0.0000 C   0  0  0  0  0  0  0  0  0  0  0  0
   14.4075  -12.2094    0.0000 C   0  0  0  0  0  0  0  0  0  0  0  0
   15.1220  -12.6219    0.0000 C   0  0  0  0  0  0  0  0  0  0  0  0
   15.8365  -12.2094    0.0000 C   0  0  0  0  0  0  0  0  0  0  0  0
   18.5189   -8.6590    0.0000 O   0  0  0  0  0  0  0  0  0  0  0  0
   19.3588   -9.8150    0.0000 C   0  0  0  0  0  0  0  0  0  0  0  0
   20.0262   -9.3301    0.0000 C   0  0  0  0  0  0  0  0  0  0  0  0
   19.9400   -8.5096    0.0000 C   0  0  1  0  0  0  0  0  0  0  0  0
   19.1863   -8.1741    0.0000 C   0  0  0  0  0  0  0  0  0  0  0  0
   14.4075  -10.5594    0.0000 C   0  0  0  0  0  0  0  0  0  0  0  0
   16.5509   -9.3219    0.0000 C   0  0  0  0  0  0  0  0  0  0  0  0
   17.5655   -8.4399    0.0000 C   0  0  0  0  0  0  0  0  0  0  0  0
   20.6074   -8.0247    0.0000 C   0  0  0  0  0  0  0  0  0  0  0  0
   15.8365  -10.5594    0.0000 H   0  0  0  0  0  0  0  0  0  0  0  0
   16.5509  -11.7969    0.0000 O   0  0  0  0  0  0  0  0  0  0  0  0
   18.3054  -11.2269    0.0000 H   0  0  0  0  0  0  0  0  0  0  0  0
   16.9739   -9.1505    0.0000 H   0  0  0  0  0  0  0  0  0  0  0  0
   15.1220  -11.7969    0.0000 H   0  0  0  0  0  0  0  0  0  0  0  0
    9.4064  -12.5930    0.0000 O   0  0  0  0  0  0  0  0  0  0  0  0
    9.4230  -10.9431    0.0000 O   0  0  0  0  0  0  0  0  0  0  0  0
   10.1458   -9.7201    0.0000 O   0  0  0  0  0  0  0  0  0  0  0  0
   10.8602  -10.1326    0.0000 C   0  0  0  0  0  0  0  0  0  0  0  0
   12.2641  -12.6219    0.0000 O   0  0  0  0  0  0  0  0  0  0  0  0
   10.8519  -10.9576    0.0000 C   0  0  2  0  0  0  0  0  0  0  0  0
   10.1333  -11.3628    0.0000 C   0  0  1  0  0  0  0  0  0  0  0  0
   10.1250  -12.1878    0.0000 C   0  0  1  0  0  0  0  0  0  0  0  0
   10.8352  -12.6075    0.0000 C   0  0  2  0  0  0  0  0  0  0  0  0
   11.5538  -12.2022    0.0000 C   0  0  1  0  0  0  0  0  0  0  0  0
   11.5622  -11.3773    0.0000 O   0  0  0  0  0  0  0  0  0  0  0  0
   10.8269  -13.4324    0.0000 O   0  0  0  0  0  0  0  0  0  0  0  0
    9.0143  -10.2265    0.0000 C   0  0  2  0  0  0  0  0  0  0  0  0
    9.4376   -9.5184    0.0000 O   0  0  0  0  0  0  0  0  0  0  0  0
    9.0361   -8.7977    0.0000 C   0  0  1  0  0  0  0  0  0  0  0  0
    8.2113   -8.8018    0.0000 C   0  0  2  0  0  0  0  0  0  0  0  0
    7.7880   -9.5266    0.0000 C   0  0  1  0  0  0  0  0  0  0  0  0
    8.1894  -10.2306    0.0000 C   0  0  1  0  0  0  0  0  0  0  0  0
    9.4523   -8.0854    0.0000 C   0  0  0  0  0  0  0  0  0  0  0  0
    6.9630   -9.5223    0.0000 O   0  0  0  0  0  0  0  0  0  0  0  0
    7.7988   -8.0873    0.0000 O   0  0  0  0  0  0  0  0  0  0  0  0
    7.7768  -10.9450    0.0000 O   0  0  0  0  0  0  0  0  0  0  0  0
    9.0435   -7.3688    0.0000 O   0  0  0  0  0  0  0  0  0  0  0  0
    7.0637  -11.3599    0.0000 C   0  0  2  0  0  0  0  0  0  0  0  0
    6.3448  -10.9551    0.0000 O   0  0  0  0  0  0  0  0  0  0  0  0
    5.6349  -11.3541    0.0000 C   0  0  1  0  0  0  0  0  0  0  0  0
    5.6316  -12.1790    0.0000 C   0  0  2  0  0  0  0  0  0  0  0  0
    6.3383  -12.5838    0.0000 C   0  0  1  0  0  0  0  0  0  0  0  0
    7.0604  -12.1848    0.0000 C   0  0  1  0  0  0  0  0  0  0  0  0
    4.9237  -10.9361    0.0000 C   0  0  0  0  0  0  0  0  0  0  0  0
    6.3320  -13.4087    0.0000 O   0  0  0  0  0  0  0  0  0  0  0  0
    4.9170  -12.5914    0.0000 O   0  0  0  0  0  0  0  0  0  0  0  0
    7.7701  -12.6054    0.0000 O   0  0  0  0  0  0  0  0  0  0  0  0
    4.2060  -11.3431    0.0000 O   0  0  0  0  0  0  0  0  0  0  0  0
    6.2501   -9.1071    0.0000 C   0  0  2  0  0  0  0  0  0  0  0  0
    6.2501   -8.2821    0.0000 C   0  0  0  0  0  0  0  0  0  0  0  0
    5.5403   -7.8617    0.0000 C   0  0  0  0  0  0  0  0  0  0  0  0
    4.8304   -8.2664    0.0000 C   0  0  2  0  0  0  0  0  0  0  0  0
    4.8169   -9.0834    0.0000 C   0  0  1  0  0  0  0  0  0  0  0  0
    5.5267   -9.5037    0.0000 C   0  0  1  0  0  0  0  0  0  0  0  0
    5.5130  -10.3286    0.0000 O   0  0  0  0  0  0  0  0  0  0  0  0
    4.0968   -9.4859    0.0000 O   0  0  0  0  0  0  0  0  0  0  0  0
    4.1206   -7.8460    0.0000 O   0  0  0  0  0  0  0  0  0  0  0  0
 43 46  1  6  0  0  0
 42 35  1  1  0  0  0
 41 36  1  1  0  0  0
 40 38  1  1  0  0  0
 38 37  1  0  0  0  0
 44 39  1  1  0  0  0
 45 40  1  0  0  0  0
 41 40  1  0  0  0  0
 42 41  1  0  0  0  0
 43 42  1  0  0  0  0
 44 43  1  0  0  0  0
 45 44  1  0  0  0  0
  1  2  1  0  0  0  0
  2  3  1  0  0  0  0
  3  4  1  0  0  0  0
  4  5  1  0  0  0  0
  6  5  1  6  0  0  0
  6  7  1  0  0  0  0
  7  8  1  0  0  0  0
  8  9  1  0  0  0  0
  9 10  1  0  0  0  0
 10 11  1  0  0  0  0
 11 12  1  0  0  0  0
 12 13  1  0  0  0  0
 13 14  1  0  0  0  0
 14 15  1  0  0  0  0
 15 16  1  0  0  0  0
 16 17  1  0  0  0  0
 17 18  1  0  0  0  0
 18 19  2  0  0  0  0
 19 20  1  0  0  0  0
  1 20  1  0  0  0  0
  1 12  1  0  0  0  0
 13 18  1  0  0  0  0
  2  9  1  0  0  0  0
  4  8  1  0  0  0  0
 22 23  1  0  0  0  0
 23 24  1  0  0  0  0
 24 25  1  0  0  0  0
 21 25  1  0  0  0  0
  6 21  1  0  0  0  0
  6 22  1  0  0  0  0
 13 26  1  1  0  0  0
  9 27  1  1  0  0  0
  7 28  1  6  0  0  0
 24 29  1  1  0  0  0
 16 39  1  1  0  0  0
  1 30  1  1  0  0  0
  2 31  1  6  0  0  0
  4 32  1  6  0  0  0
  8 33  1  6  0  0  0
 12 34  1  6  0  0  0
 47 36  1  1  0  0  0
 47 48  1  0  0  0  0
 48 49  1  0  0  0  0
 49 50  1  0  0  0  0
 50 51  1  0  0  0  0
 51 52  1  0  0  0  0
 52 47  1  0  0  0  0
 49 53  1  1  0  0  0
 51 54  1  1  0  0  0
 50 55  1  6  0  0  0
 52 56  1  6  0  0  0
 53 57  1  0  0  0  0
 58 56  1  1  0  0  0
 58 59  1  0  0  0  0
 59 60  1  0  0  0  0
 60 61  1  0  0  0  0
 61 62  1  0  0  0  0
 62 63  1  0  0  0  0
 63 58  1  0  0  0  0
 60 64  1  1  0  0  0
 62 65  1  1  0  0  0
 61 66  1  6  0  0  0
 63 67  1  6  0  0  0
 64 68  1  0  0  0  0
 69 54  1  1  0  0  0
 69 70  1  0  0  0  0
 70 71  1  0  0  0  0
 71 72  1  0  0  0  0
 72 73  1  0  0  0  0
 73 74  1  0  0  0  0
 74 69  1  0  0  0  0
 74 75  1  6  0  0  0
 73 76  1  1  0  0  0
 72 77  1  6  0  0  0
M  END
>  <cdx:fragmentId>
198565

$$$$
