93118.cdx
  Mrv1902 05222410262D          

  7  6  0  0  0  0            999 V2000
    8.4751   -9.0321    0.0000 C   0  0  0  0  0  0  0  0  0  0  0  0
    7.7606   -8.6196    0.0000 C   0  0  0  0  0  0  0  0  0  0  0  0
    7.0462   -9.0321    0.0000 C   0  0  0  0  0  0  0  0  0  0  0  0
    6.3317   -8.6196    0.0000 C   0  0  0  0  0  0  0  0  0  0  0  0
    5.6172   -8.2071    0.0000 C   0  0  0  0  0  0  0  0  0  0  0  0
    4.9028   -7.7946    0.0000 C   0  0  0  0  0  0  0  0  0  0  0  0
    9.1896   -8.6196    0.0000 O   0  0  0  0  0  0  0  0  0  0  0  0
  1  2  1  0  0  0  0
  2  3  2  0  0  0  0
  3  4  1  0  0  0  0
  4  5  3  0  0  0  0
  5  6  1  0  0  0  0
  1  7  1  0  0  0  0
M  END
>  <cdx:groupId>
22

>  <cdx:fragmentId>
5

$$$$
