93113.cdx
  Mrv1902 05222410192D          

 16 17  0  0  0  0            999 V2000
    6.6795   -8.1419    0.0000 C   0  0  0  0  0  0  0  0  0  0  0  0
    5.9650   -8.5544    0.0000 C   0  0  0  0  0  0  0  0  0  0  0  0
    5.2506   -8.1419    0.0000 C   0  0  0  0  0  0  0  0  0  0  0  0
    5.2506   -7.3169    0.0000 C   0  0  0  0  0  0  0  0  0  0  0  0
    5.9650   -6.9044    0.0000 C   0  0  0  0  0  0  0  0  0  0  0  0
    6.6795   -7.3169    0.0000 C   0  0  0  0  0  0  0  0  0  0  0  0
    7.3940   -7.7294    0.0000 O   0  0  0  0  0  0  0  0  0  0  0  0
    6.6795   -9.5708    0.0000 C   0  0  0  0  0  0  0  0  0  0  0  0
    7.0920   -8.8564    0.0000 C   0  0  0  0  0  0  0  0  0  0  0  0
    7.9170   -8.8564    0.0000 C   0  0  0  0  0  0  0  0  0  0  0  0
    8.3295   -9.5708    0.0000 C   0  0  0  0  0  0  0  0  0  0  0  0
    7.9170  -10.2853    0.0000 C   0  0  0  0  0  0  0  0  0  0  0  0
    9.1545   -9.5708    0.0000 C   0  0  0  0  0  0  0  0  0  0  0  0
    7.0920   -6.6024    0.0000 C   0  0  0  0  0  0  0  0  0  0  0  0
    6.3775   -9.2689    0.0000 C   0  0  0  0  0  0  0  0  0  0  0  0
    5.5525   -9.2689    0.0000 C   0  0  0  0  0  0  0  0  0  0  0  0
  1  2  1  0  0  0  0
  2  3  1  0  0  0  0
  3  4  1  0  0  0  0
  4  5  1  0  0  0  0
  5  6  1  0  0  0  0
  6  7  1  0  0  0  0
  1  7  1  0  0  0  0
  1  6  1  0  0  0  0
  8  9  1  0  0  0  0
  9 10  2  0  0  0  0
 10 11  1  0  0  0  0
 11 12  2  0  0  0  0
 11 13  1  0  0  0  0
  1  9  1  0  0  0  0
  6 14  1  0  0  0  0
  2 15  1  0  0  0  0
  2 16  1  0  0  0  0
M  END
>  <cdx:groupId>
51

>  <cdx:fragmentId>
5

$$$$
