9311.cdx
  Mrv1902 05222410232D          

 26 28  0  0  0  0            999 V2000
    5.2805   -5.7475    0.0000 C   0  0  0  0  0  0  0  0  0  0  0  0
    5.2805   -6.5725    0.0000 C   0  0  0  0  0  0  0  0  0  0  0  0
    5.9950   -6.9850    0.0000 C   0  0  0  0  0  0  0  0  0  0  0  0
    6.7095   -6.5725    0.0000 C   0  0  0  0  0  0  0  0  0  0  0  0
    6.7095   -5.7475    0.0000 C   0  0  0  0  0  0  0  0  0  0  0  0
    5.9950   -5.3350    0.0000 C   0  0  0  0  0  0  0  0  0  0  0  0
    7.4239   -6.9850    0.0000 C   0  0  1  0  0  0  0  0  0  0  0  0
    8.1384   -6.5725    0.0000 C   0  0  2  0  0  0  0  0  0  0  0  0
    8.1384   -5.7475    0.0000 C   0  0  0  0  0  0  0  0  0  0  0  0
    7.4239   -5.3350    0.0000 C   0  0  0  0  0  0  0  0  0  0  0  0
    7.4239   -7.8100    0.0000 C   0  0  0  0  0  0  0  0  0  0  0  0
    6.7095   -8.2225    0.0000 C   0  0  0  0  0  0  0  0  0  0  0  0
    6.7095   -9.0475    0.0000 C   0  0  0  0  0  0  0  0  0  0  0  0
    7.4239   -9.4600    0.0000 C   0  0  0  0  0  0  0  0  0  0  0  0
    8.1384   -9.0475    0.0000 C   0  0  0  0  0  0  0  0  0  0  0  0
    8.1384   -8.2225    0.0000 C   0  0  0  0  0  0  0  0  0  0  0  0
    7.4239  -10.2850    0.0000 O   0  0  0  0  0  0  0  0  0  0  0  0
    8.8529   -9.4600    0.0000 O   0  0  0  0  0  0  0  0  0  0  0  0
    9.5674   -9.0475    0.0000 C   0  0  0  0  0  0  0  0  0  0  0  0
    8.8529   -6.9850    0.0000 C   0  0  0  0  0  0  0  0  0  0  0  0
    9.5674   -6.5725    0.0000 O   0  0  0  0  0  0  0  0  0  0  0  0
    8.8529   -5.3350    0.0000 C   0  0  0  0  0  0  0  0  0  0  0  0
    8.8529   -4.5100    0.0000 O   0  0  0  0  0  0  0  0  0  0  0  0
    4.5661   -5.3350    0.0000 O   0  0  0  0  0  0  0  0  0  0  0  0
    4.5661   -6.9850    0.0000 O   0  0  0  0  0  0  0  0  0  0  0  0
    3.8516   -5.7475    0.0000 C   0  0  0  0  0  0  0  0  0  0  0  0
  1  2  2  0  0  0  0
  2  3  1  0  0  0  0
  3  4  2  0  0  0  0
  4  5  1  0  0  0  0
  5  6  2  0  0  0  0
  6  1  1  0  0  0  0
  4  7  1  0  0  0  0
  7  8  1  0  0  0  0
  8  9  1  0  0  0  0
  9 10  2  0  0  0  0
 10  5  1  0  0  0  0
  7 11  1  1  0  0  0
 11 12  2  0  0  0  0
 12 13  1  0  0  0  0
 13 14  2  0  0  0  0
 14 15  1  0  0  0  0
 15 16  2  0  0  0  0
 16 11  1  0  0  0  0
 14 17  1  0  0  0  0
 15 18  1  0  0  0  0
 18 19  1  0  0  0  0
  8 20  1  6  0  0  0
 20 21  1  0  0  0  0
  9 22  1  0  0  0  0
 22 23  2  0  0  0  0
  1 24  1  0  0  0  0
  2 25  1  0  0  0  0
 24 26  1  0  0  0  0
M  END
>  <cdx:fragmentId>
548

$$$$
