93116.cdx
  Mrv1902 05222410192D          

 26 27  0  0  0  0            999 V2000
    5.9128   -7.6397    0.0000 O   0  0  0  0  0  0  0  0  0  0  0  0
    5.1983   -8.0522    0.0000 C   0  0  1  0  0  0  0  0  0  0  0  0
    5.1983   -8.8772    0.0000 C   0  0  2  0  0  0  0  0  0  0  0  0
    5.9128   -9.2897    0.0000 O   0  0  0  0  0  0  0  0  0  0  0  0
    4.4838   -9.2897    0.0000 C   0  0  1  0  0  0  0  0  0  0  0  0
    4.4838  -10.1147    0.0000 O   0  0  0  0  0  0  0  0  0  0  0  0
    3.7693   -8.8772    0.0000 C   0  0  2  0  0  0  0  0  0  0  0  0
    3.0549   -9.2897    0.0000 O   0  0  0  0  0  0  0  0  0  0  0  0
    3.7693   -8.0522    0.0000 C   0  0  2  0  0  0  0  0  0  0  0  0
    4.4838   -7.6397    0.0000 O   0  0  0  0  0  0  0  0  0  0  0  0
    3.0549   -7.6397    0.0000 C   0  0  0  0  0  0  0  0  0  0  0  0
    2.3404   -8.0522    0.0000 O   0  0  0  0  0  0  0  0  0  0  0  0
    6.6272   -8.0522    0.0000 C   0  0  0  0  0  0  0  0  0  0  0  0
    7.3417   -7.6397    0.0000 C   0  0  0  0  0  0  0  0  0  0  0  0
    8.0562   -8.0522    0.0000 C   0  0  0  0  0  0  0  0  0  0  0  0
    8.7706   -7.6397    0.0000 C   0  0  0  0  0  0  0  0  0  0  0  0
    8.0562   -8.8772    0.0000 C   0  0  0  0  0  0  0  0  0  0  0  0
    9.4851   -8.0522    0.0000 O   0  0  0  0  0  0  0  0  0  0  0  0
   10.1996   -7.6397    0.0000 C   0  0  0  0  0  0  0  0  0  0  0  0
   10.9141   -8.0522    0.0000 C   0  0  0  0  0  0  0  0  0  0  0  0
   11.6285   -7.6397    0.0000 C   0  0  0  0  0  0  0  0  0  0  0  0
   12.3430   -8.0522    0.0000 C   0  0  0  0  0  0  0  0  0  0  0  0
   12.3430   -8.8772    0.0000 C   0  0  0  0  0  0  0  0  0  0  0  0
   11.6285   -9.2897    0.0000 C   0  0  0  0  0  0  0  0  0  0  0  0
   10.9141   -8.8772    0.0000 C   0  0  0  0  0  0  0  0  0  0  0  0
   10.1996   -6.8147    0.0000 O   0  0  0  0  0  0  0  0  0  0  0  0
  2  1  1  1  0  0  0
  2  3  1  0  0  0  0
  3  4  1  6  0  0  0
  3  5  1  0  0  0  0
  5  6  1  1  0  0  0
  5  7  1  0  0  0  0
  7  8  1  6  0  0  0
  7  9  1  0  0  0  0
  9 10  1  0  0  0  0
  9 11  1  1  0  0  0
 11 12  1  0  0  0  0
  2 10  1  0  0  0  0
 13 14  1  0  0  0  0
 14 15  2  0  0  0  0
 15 16  1  0  0  0  0
 15 17  1  0  0  0  0
 19 20  1  0  0  0  0
 20 21  1  0  0  0  0
 21 22  2  0  0  0  0
 22 23  1  0  0  0  0
 23 24  2  0  0  0  0
 24 25  1  0  0  0  0
 20 25  2  0  0  0  0
 19 26  2  0  0  0  0
 18 19  1  0  0  0  0
 16 18  1  0  0  0  0
  1 13  1  0  0  0  0
M  END
>  <cdx:groupId>
81

>  <cdx:fragmentId>
41

$$$$
