93117.cdx
  Mrv1902 05222410192D          

 24 25  0  0  0  0            999 V2000
    3.6266   -8.0993    0.0000 C   0  0  0  0  0  0  0  0  0  0  0  0
    2.9121   -8.5118    0.0000 C   0  0  0  0  0  0  0  0  0  0  0  0
    3.6266   -7.2743    0.0000 O   0  0  0  0  0  0  0  0  0  0  0  0
    4.3411   -8.5118    0.0000 O   0  0  0  0  0  0  0  0  0  0  0  0
    5.0555   -8.0993    0.0000 C   0  0  0  0  0  0  0  0  0  0  0  0
    5.7700   -8.5118    0.0000 C   0  0  0  0  0  0  0  0  0  0  0  0
    6.4845   -8.0993    0.0000 C   0  0  0  0  0  0  0  0  0  0  0  0
    7.1990   -8.5118    0.0000 C   0  0  0  0  0  0  0  0  0  0  0  0
    7.9134   -8.0993    0.0000 C   0  0  0  0  0  0  0  0  0  0  0  0
    6.4845   -7.2743    0.0000 C   0  0  0  0  0  0  0  0  0  0  0  0
   10.6699   -7.9598    0.0000 C   0  0  0  0  0  0  0  0  0  0  0  0
   10.3344   -7.2061    0.0000 C   0  0  0  0  0  0  0  0  0  0  0  0
    9.5139   -7.2923    0.0000 C   0  0  0  0  0  0  0  0  0  0  0  0
    9.3424   -8.0993    0.0000 C   0  0  0  0  0  0  0  0  0  0  0  0
    8.6279   -8.5118    0.0000 C   0  0  0  0  0  0  0  0  0  0  0  0
    8.6279   -9.3368    0.0000 C   0  0  0  0  0  0  0  0  0  0  0  0
    9.3424   -9.7493    0.0000 C   0  0  0  0  0  0  0  0  0  0  0  0
   10.0568   -9.3368    0.0000 C   0  0  0  0  0  0  0  0  0  0  0  0
   10.0568   -8.5118    0.0000 C   0  0  0  0  0  0  0  0  0  0  0  0
    7.9134   -9.7493    0.0000 C   0  0  0  0  0  0  0  0  0  0  0  0
    8.6279   -7.6868    0.0000 C   0  0  0  0  0  0  0  0  0  0  0  0
   10.8105   -8.8473    0.0000 C   0  0  0  0  0  0  0  0  0  0  0  0
   10.8968   -9.6678    0.0000 C   0  0  0  0  0  0  0  0  0  0  0  0
   11.4780   -8.3624    0.0000 C   0  0  0  0  0  0  0  0  0  0  0  0
  1  2  1  0  0  0  0
  1  3  2  0  0  0  0
  1  4  1  0  0  0  0
  5  6  1  0  0  0  0
  6  7  2  0  0  0  0
  7  8  1  0  0  0  0
  8  9  1  0  0  0  0
  7 10  1  0  0  0  0
 11 12  1  0  0  0  0
 12 13  1  0  0  0  0
 13 14  1  0  0  0  0
 14 15  1  0  0  0  0
 15 16  1  0  0  0  0
 16 17  1  0  0  0  0
 17 18  1  0  0  0  0
 18 19  1  0  0  0  0
 11 19  1  0  0  0  0
 14 19  1  0  0  0  0
 16 20  1  0  0  0  0
 15 21  1  0  0  0  0
 22 23  2  0  0  0  0
 22 24  1  0  0  0  0
 19 22  1  0  0  0  0
  9 15  1  0  0  0  0
  4  5  1  0  0  0  0
M  END
>  <cdx:groupId>
75

>  <cdx:fragmentId>
25

$$$$
