93114.cdx
  Mrv1902 05222410202D          

 16 16  0  0  0  0            999 V2000
    8.2550   -8.9682    0.0000 C   0  0  0  0  0  0  0  0  0  0  0  0
    7.5405   -8.5557    0.0000 C   0  0  0  0  0  0  0  0  0  0  0  0
    7.5405   -7.7307    0.0000 C   0  0  0  0  0  0  0  0  0  0  0  0
    8.2550   -7.3182    0.0000 C   0  0  0  0  0  0  0  0  0  0  0  0
    8.9695   -7.7307    0.0000 C   0  0  0  0  0  0  0  0  0  0  0  0
    8.9695   -8.5557    0.0000 C   0  0  0  0  0  0  0  0  0  0  0  0
    8.2550   -9.7932    0.0000 O   0  0  0  0  0  0  0  0  0  0  0  0
    9.6839   -8.9682    0.0000 C   0  0  0  0  0  0  0  0  0  0  0  0
    6.8260   -8.9682    0.0000 C   0  0  0  0  0  0  0  0  0  0  0  0
    6.1116   -8.5557    0.0000 C   0  0  0  0  0  0  0  0  0  0  0  0
    5.3971   -8.9682    0.0000 C   0  0  0  0  0  0  0  0  0  0  0  0
    5.3971   -9.7932    0.0000 C   0  0  0  0  0  0  0  0  0  0  0  0
    4.6826   -8.5557    0.0000 C   0  0  0  0  0  0  0  0  0  0  0  0
    6.7155   -7.7307    0.0000 C   0  0  0  0  0  0  0  0  0  0  0  0
    7.1280   -7.0162    0.0000 C   0  0  0  0  0  0  0  0  0  0  0  0
    7.5405   -9.3807    0.0000 C   0  0  0  0  0  0  0  0  0  0  0  0
  1  2  1  0  0  0  0
  2  3  1  0  0  0  0
  3  4  1  0  0  0  0
  4  5  1  0  0  0  0
  5  6  1  0  0  0  0
  1  6  1  0  0  0  0
  1  7  2  0  0  0  0
  6  8  2  0  0  0  0
  9 10  2  0  0  0  0
 10 11  1  0  0  0  0
 11 12  2  0  0  0  0
 11 13  1  0  0  0  0
  2  9  1  0  0  0  0
  3 14  1  0  0  0  0
  3 15  1  0  0  0  0
  2 16  1  0  0  0  0
M  END
>  <cdx:groupId>
50

>  <cdx:fragmentId>
5

$$$$
