93115.cdx
  Mrv1902 05222410202D          

 13 13  0  0  0  0            999 V2000
    6.6775   -8.2222    0.0000 C   0  0  0  0  0  0  0  0  0  0  0  0
    7.3920   -8.6347    0.0000 C   0  0  0  0  0  0  0  0  0  0  0  0
    8.1064   -8.2222    0.0000 C   0  0  0  0  0  0  0  0  0  0  0  0
    8.8209   -8.6347    0.0000 C   0  0  0  0  0  0  0  0  0  0  0  0
    9.2334   -7.9202    0.0000 C   0  0  0  0  0  0  0  0  0  0  0  0
    6.6775   -7.3972    0.0000 O   0  0  0  0  0  0  0  0  0  0  0  0
    8.4084   -9.3492    0.0000 C   0  0  0  0  0  0  0  0  0  0  0  0
    9.5354   -9.0472    0.0000 O   0  0  0  0  0  0  0  0  0  0  0  0
    4.6573   -8.9122    0.0000 C   0  0  0  0  0  0  0  0  0  0  0  0
    5.2094   -8.2992    0.0000 C   0  0  0  0  0  0  0  0  0  0  0  0
    5.9630   -8.6347    0.0000 C   0  0  0  0  0  0  0  0  0  0  0  0
    5.8768   -9.4552    0.0000 C   0  0  0  0  0  0  0  0  0  0  0  0
    5.0698   -9.6267    0.0000 O   0  0  0  0  0  0  0  0  0  0  0  0
 13  9  1  0  0  0  0
 10  9  2  0  0  0  0
 11 10  1  0  0  0  0
 12 11  2  0  0  0  0
 13 12  1  0  0  0  0
  1  2  1  0  0  0  0
  2  3  2  0  0  0  0
  3  4  1  0  0  0  0
  4  5  1  0  0  0  0
  1  6  2  0  0  0  0
  4  7  1  0  0  0  0
  4  8  1  0  0  0  0
  1 11  1  0  0  0  0
M  END
>  <cdx:fragmentId>
5

$$$$
