93111.cdx
  Mrv1902 05222410182D          

 20 20  0  0  0  0            999 V2000
    8.6246   -8.0437    0.0000 C   0  0  0  0  0  0  0  0  0  0  0  0
    8.6246   -8.8688    0.0000 C   0  0  0  0  0  0  0  0  0  0  0  0
    9.3391   -9.2813    0.0000 C   0  0  0  0  0  0  0  0  0  0  0  0
   10.0535   -8.8687    0.0000 C   0  0  0  0  0  0  0  0  0  0  0  0
   10.0535   -8.0437    0.0000 C   0  0  0  0  0  0  0  0  0  0  0  0
    9.3391   -7.6313    0.0000 C   0  0  0  0  0  0  0  0  0  0  0  0
    7.9101   -7.6313    0.0000 O   0  0  0  0  0  0  0  0  0  0  0  0
    9.3391   -6.8062    0.0000 C   0  0  0  0  0  0  0  0  0  0  0  0
   10.7680   -9.2812    0.0000 O   0  0  0  0  0  0  0  0  0  0  0  0
   11.4825   -8.8687    0.0000 C   0  0  0  0  0  0  0  0  0  0  0  0
    7.9101   -9.2813    0.0000 C   0  0  0  0  0  0  0  0  0  0  0  0
    7.1956   -8.8688    0.0000 C   0  0  0  0  0  0  0  0  0  0  0  0
    6.4812   -9.2813    0.0000 C   0  0  0  0  0  0  0  0  0  0  0  0
    5.7667   -8.8688    0.0000 C   0  0  0  0  0  0  0  0  0  0  0  0
    5.0522   -9.2813    0.0000 C   0  0  0  0  0  0  0  0  0  0  0  0
    4.3378   -8.8687    0.0000 C   0  0  0  0  0  0  0  0  0  0  0  0
    3.6233   -9.2812    0.0000 C   0  0  0  0  0  0  0  0  0  0  0  0
    3.6233  -10.1062    0.0000 C   0  0  0  0  0  0  0  0  0  0  0  0
    2.9088   -8.8687    0.0000 C   0  0  0  0  0  0  0  0  0  0  0  0
    6.4812  -10.1063    0.0000 C   0  0  0  0  0  0  0  0  0  0  0  0
  1  2  1  0  0  0  0
  2  3  2  0  0  0  0
  3  4  1  0  0  0  0
  4  5  2  0  0  0  0
  5  6  1  0  0  0  0
  1  6  2  0  0  0  0
  1  7  1  0  0  0  0
  6  8  1  0  0  0  0
  9 10  1  0  0  0  0
  4  9  1  0  0  0  0
 11 12  1  0  0  0  0
 12 13  2  0  0  0  0
 13 14  1  0  0  0  0
 14 15  1  0  0  0  0
 15 16  1  0  0  0  0
 16 17  2  0  0  0  0
 17 18  1  0  0  0  0
 17 19  1  0  0  0  0
 13 20  1  0  0  0  0
  2 11  1  0  0  0  0
M  END
>  <cdx:groupId>
62

>  <cdx:fragmentId>
5

$$$$
