93128.cdx
  Mrv1902 05222410202D          

 24 25  0  0  0  0            999 V2000
    7.9515   -9.2494    0.0000 C   0  0  1  0  0  0  0  0  0  0  0  0
    8.3673   -8.5369    0.0000 C   0  0  1  0  0  0  0  0  0  0  0  0
    9.1923   -8.5408    0.0000 C   0  0  2  0  0  0  0  0  0  0  0  0
    9.6014   -9.2572    0.0000 C   0  0  1  0  0  0  0  0  0  0  0  0
    9.1855   -9.9698    0.0000 C   0  0  2  0  0  0  0  0  0  0  0  0
    8.3606   -9.9658    0.0000 O   0  0  0  0  0  0  0  0  0  0  0  0
    7.9582   -7.8205    0.0000 O   0  0  0  0  0  0  0  0  0  0  0  0
    9.6082   -7.8283    0.0000 O   0  0  0  0  0  0  0  0  0  0  0  0
   10.4264   -9.2612    0.0000 O   0  0  0  0  0  0  0  0  0  0  0  0
    9.5947  -10.6862    0.0000 C   0  0  0  0  0  0  0  0  0  0  0  0
   10.4197  -10.6862    0.0000 O   0  0  0  0  0  0  0  0  0  0  0  0
    7.1265   -9.2455    0.0000 O   0  0  0  0  0  0  0  0  0  0  0  0
    7.1132   -7.5956    0.0000 O   0  0  0  0  0  0  0  0  0  0  0  0
    6.0910   -6.8893    0.0000 O   0  0  0  0  0  0  0  0  0  0  0  0
    5.2660   -6.8959    0.0000 C   0  0  0  0  0  0  0  0  0  0  0  0
    6.4220  -10.4887    0.0000 C   0  0  0  0  0  0  0  0  0  0  0  0
    5.7042  -10.0820    0.0000 C   0  0  0  0  0  0  0  0  0  0  0  0
    4.9931  -10.5002    0.0000 C   0  0  0  0  0  0  0  0  0  0  0  0
    5.6976   -9.2570    0.0000 C   0  0  0  0  0  0  0  0  0  0  0  0
    4.9798   -8.8503    0.0000 C   0  0  0  0  0  0  0  0  0  0  0  0
    4.9732   -8.0253    0.0000 C   0  0  0  0  0  0  0  0  0  0  0  0
    5.6843   -7.6071    0.0000 C   0  0  2  0  0  0  0  0  0  0  0  0
    6.4021   -8.0138    0.0000 C   0  0  1  0  0  0  0  0  0  0  0  0
    6.4087   -8.8388    0.0000 C   0  0  0  0  0  0  0  0  0  0  0  0
 24 12  1  0  0  0  0
 23 13  1  6  0  0  0
 22 14  1  1  0  0  0
 22 15  1  6  0  0  0
 19 17  2  0  0  0  0
 17 16  1  0  0  0  0
 18 17  1  0  0  0  0
 24 19  1  0  0  0  0
 20 19  1  0  0  0  0
 21 20  1  0  0  0  0
 22 21  1  0  0  0  0
 23 22  1  0  0  0  0
 24 23  1  0  0  0  0
  1  2  1  0  0  0  0
  2  3  1  0  0  0  0
  3  4  1  0  0  0  0
  4  5  1  0  0  0  0
  5  6  1  0  0  0  0
  1  6  1  0  0  0  0
  2  7  1  6  0  0  0
  3  8  1  1  0  0  0
  4  9  1  6  0  0  0
 10 11  1  0  0  0  0
  5 10  1  1  0  0  0
  1 12  1  1  0  0  0
M  END
>  <cdx:fragmentId>
29

$$$$
