93123.cdx
  Mrv1902 05222410272D          

 15 16  0  0  0  0            999 V2000
    7.6007  -10.3431    0.0000 N   0  0  0  0  0  0  0  0  0  0  0  0
    8.0856   -9.6756    0.0000 C   0  0  0  0  0  0  0  0  0  0  0  0
    7.6007   -9.0082    0.0000 C   0  0  0  0  0  0  0  0  0  0  0  0
    6.8161   -9.2631    0.0000 C   0  0  0  0  0  0  0  0  0  0  0  0
    6.1016   -8.8506    0.0000 C   0  0  0  0  0  0  0  0  0  0  0  0
    5.3872   -9.2631    0.0000 C   0  0  0  0  0  0  0  0  0  0  0  0
    5.3872  -10.0881    0.0000 C   0  0  0  0  0  0  0  0  0  0  0  0
    6.1016  -10.5006    0.0000 C   0  0  0  0  0  0  0  0  0  0  0  0
    6.8161  -10.0881    0.0000 C   0  0  0  0  0  0  0  0  0  0  0  0
    8.9106   -9.6756    0.0000 O   0  0  0  0  0  0  0  0  0  0  0  0
    7.8557   -8.2236    0.0000 C   0  0  0  0  0  0  0  0  0  0  0  0
    7.3036   -7.6105    0.0000 C   0  0  0  0  0  0  0  0  0  0  0  0
    7.5586   -6.8259    0.0000 C   0  0  0  0  0  0  0  0  0  0  0  0
    8.3655   -6.6543    0.0000 C   0  0  0  0  0  0  0  0  0  0  0  0
    6.9752   -6.2425    0.0000 C   0  0  0  0  0  0  0  0  0  0  0  0
  1  2  1  0  0  0  0
  2  3  1  0  0  0  0
  3  4  1  0  0  0  0
  4  5  1  0  0  0  0
  5  6  2  0  0  0  0
  6  7  1  0  0  0  0
  7  8  2  0  0  0  0
  8  9  1  0  0  0  0
  1  9  1  0  0  0  0
  4  9  2  0  0  0  0
  2 10  2  0  0  0  0
 11 12  1  0  0  0  0
 12 13  2  0  0  0  0
 13 14  1  0  0  0  0
 13 15  1  0  0  0  0
  3 11  2  0  0  0  0
M  END
>  <cdx:fragmentId>
5

$$$$
