93125.cdx
  Mrv1902 05222410262D          

 23 25  0  0  0  0            999 V2000
    4.4379   -9.1302    0.0000 N   0  0  0  0  0  0  0  0  0  0  0  0
    4.9899   -9.7433    0.0000 C   0  0  0  0  0  0  0  0  0  0  0  0
    5.7436   -9.4078    0.0000 C   0  0  0  0  0  0  0  0  0  0  0  0
    5.6573   -8.5873    0.0000 C   0  0  0  0  0  0  0  0  0  0  0  0
    4.8504   -8.4158    0.0000 C   0  0  0  0  0  0  0  0  0  0  0  0
    4.8184  -10.5503    0.0000 O   0  0  0  0  0  0  0  0  0  0  0  0
    6.2704   -8.0353    0.0000 C   0  0  0  0  0  0  0  0  0  0  0  0
    6.0989   -7.2283    0.0000 C   0  0  0  0  0  0  0  0  0  0  0  0
    6.7120   -6.6763    0.0000 C   0  0  0  0  0  0  0  0  0  0  0  0
    7.4966   -6.9312    0.0000 C   0  0  0  0  0  0  0  0  0  0  0  0
    7.6682   -7.7382    0.0000 C   0  0  0  0  0  0  0  0  0  0  0  0
    7.0551   -8.2902    0.0000 C   0  0  0  0  0  0  0  0  0  0  0  0
    8.1097   -6.3792    0.0000 O   0  0  0  0  0  0  0  0  0  0  0  0
    6.4799   -9.7790    0.0000 C   0  0  0  0  0  0  0  0  0  0  0  0
    7.1944   -9.3665    0.0000 C   0  0  0  0  0  0  0  0  0  0  0  0
    7.9088   -9.7790    0.0000 C   0  0  0  0  0  0  0  0  0  0  0  0
    8.6233   -9.3665    0.0000 C   0  0  0  0  0  0  0  0  0  0  0  0
    8.6233   -8.5415    0.0000 C   0  0  0  0  0  0  0  0  0  0  0  0
    7.9638   -8.1290    0.0000 C   0  0  0  0  0  0  0  0  0  0  0  0
    7.1944   -8.5415    0.0000 C   0  0  0  0  0  0  0  0  0  0  0  0
    9.3378   -9.7790    0.0000 O   0  0  0  0  0  0  0  0  0  0  0  0
   10.0522   -9.3665    0.0000 C   0  0  0  0  0  0  0  0  0  0  0  0
    9.3378   -8.1290    0.0000 O   0  0  0  0  0  0  0  0  0  0  0  0
  1  2  1  0  0  0  0
  2  3  1  0  0  0  0
  3  4  1  0  0  0  0
  4  5  1  0  0  0  0
  1  5  1  0  0  0  0
  2  6  2  0  0  0  0
  7  8  1  0  0  0  0
  8  9  2  0  0  0  0
  9 10  1  0  0  0  0
 10 11  2  0  0  0  0
 11 12  1  0  0  0  0
  7 12  2  0  0  0  0
 10 13  1  0  0  0  0
  4  7  1  0  0  0  0
 14 15  1  0  0  0  0
 15 16  1  0  0  0  0
 16 17  2  0  0  0  0
 17 18  1  0  0  0  0
 18 19  2  0  0  0  0
 19 20  1  0  0  0  0
 15 20  2  0  0  0  0
 21 22  1  0  0  0  0
 17 21  1  0  0  0  0
 18 23  1  0  0  0  0
  3 14  2  0  0  0  0
M  END
>  <cdx:fragmentId>
17

$$$$
