931239.cdx
  Mrv1902 05222410262D          

 38 42  0  0  0  0            999 V2000
    8.1753   -6.5829    0.0000 H   0  0  0  0  0  0  0  0  0  0  0  0
    9.9259   -8.0874    0.0000 H   0  0  0  0  0  0  0  0  0  0  0  0
    9.8501   -8.7523    0.0000 H   0  0  0  0  0  0  0  0  0  0  0  0
    7.4430  -10.8737    0.0000 O   0  0  0  0  0  0  0  0  0  0  0  0
    8.0517  -11.3806    0.0000 O   0  0  0  0  0  0  0  0  0  0  0  0
    9.5540  -11.0378    0.0000 C   0  0  0  0  0  0  0  0  0  0  0  0
    5.4957   -9.6494    0.0000 C   0  0  0  0  0  0  0  0  0  0  0  0
    9.4326   -6.2577    0.0000 C   0  0  0  0  0  0  0  0  0  0  0  0
   10.0583   -6.7954    0.0000 C   0  0  0  0  0  0  0  0  0  0  0  0
    6.3023   -8.4325    0.0000 C   0  0  0  0  0  0  0  0  0  0  0  0
    8.0517   -7.9183    0.0000 O   0  0  0  0  0  0  0  0  0  0  0  0
    8.2353   -8.7226    0.0000 C   0  0  0  0  0  0  0  0  0  0  0  0
    7.1273   -8.4325    0.0000 C   0  0  2  0  0  0  0  0  0  0  0  0
    7.4991   -7.5821    0.0000 C   0  0  0  0  0  0  0  0  0  0  0  0
    8.4039   -7.3756    0.0000 C   0  0  1  0  0  0  0  0  0  0  0  0
    9.2798   -7.0684    0.0000 C   0  0  0  0  0  0  0  0  0  0  0  0
    9.1079   -7.9805    0.0000 C   0  0  1  0  0  0  0  0  0  0  0  0
    9.0396   -8.9061    0.0000 C   0  0  2  0  0  0  0  0  0  0  0  0
    9.3975   -9.6494    0.0000 C   0  0  0  0  0  0  0  0  0  0  0  0
    9.0396  -10.3927    0.0000 C   0  0  0  0  0  0  0  0  0  0  0  0
    8.2353  -10.5763    0.0000 C   0  0  2  0  0  0  0  0  0  0  0  0
    7.5903  -10.0619    0.0000 C   0  0  1  0  0  0  0  0  0  0  0  0
    6.8056  -10.3169    0.0000 C   0  0  2  0  0  0  0  0  0  0  0  0
    6.3207   -9.6494    0.0000 C   0  0  0  0  0  0  0  0  0  0  0  0
    6.8056   -8.9820    0.0000 C   0  0  0  0  0  0  0  0  0  0  0  0
    7.5903   -9.2369    0.0000 C   0  0  0  0  0  0  0  0  0  0  0  0
    6.5507  -11.1015    0.0000 O   0  0  0  0  0  0  0  0  0  0  0  0
    5.4888  -12.0577    0.0000 O   0  0  0  0  0  0  0  0  0  0  0  0
    5.1917  -10.6599    0.0000 C   0  0  0  0  0  0  0  0  0  0  0  0
    5.7437  -11.2730    0.0000 C   0  0  0  0  0  0  0  0  0  0  0  0
    5.4466   -9.8753    0.0000 C   0  0  0  0  0  0  0  0  0  0  0  0
    4.8946   -9.2622    0.0000 C   0  0  0  0  0  0  0  0  0  0  0  0
    4.0876   -9.4338    0.0000 C   0  0  0  0  0  0  0  0  0  0  0  0
    3.8327  -10.2184    0.0000 C   0  0  0  0  0  0  0  0  0  0  0  0
    4.3847  -10.8315    0.0000 C   0  0  0  0  0  0  0  0  0  0  0  0
    8.6565  -11.9418    0.0000 C   0  0  0  0  0  0  0  0  0  0  0  0
    8.4729  -12.7461    0.0000 O   0  0  0  0  0  0  0  0  0  0  0  0
    9.4448  -11.6986    0.0000 C   0  0  0  0  0  0  0  0  0  0  0  0
 15  1  1  6  0  0  0
 17  2  1  6  0  0  0
 18  3  1  1  0  0  0
 23 27  1  1  0  0  0
 22  4  1  1  0  0  0
 21  5  1  1  0  0  0
 20  6  1  0  0  0  0
 24  7  1  0  0  0  0
 16  8  1  0  0  0  0
 16  9  1  0  0  0  0
 13 10  1  6  0  0  0
 12 11  2  0  0  0  0
 26 22  1  0  0  0  0
 17 15  1  0  0  0  0
 18 12  1  0  0  0  0
 26 12  1  0  0  0  0
 26 13  1  0  0  0  0
 14 13  1  0  0  0  0
 15 14  1  0  0  0  0
 16 15  1  0  0  0  0
 17 16  1  0  0  0  0
 18 17  1  0  0  0  0
 19 18  1  0  0  0  0
 20 19  2  0  0  0  0
 21 20  1  0  0  0  0
 22 21  1  0  0  0  0
 23 22  1  0  0  0  0
 24 23  1  0  0  0  0
 25 24  2  0  0  0  0
 26 25  1  0  0  0  0
 30 27  1  0  0  0  0
 30 28  2  0  0  0  0
 30 29  1  0  0  0  0
 29 31  2  0  0  0  0
 31 32  1  0  0  0  0
 32 33  2  0  0  0  0
 33 34  1  0  0  0  0
 34 35  2  0  0  0  0
 35 29  1  0  0  0  0
  5 36  1  0  0  0  0
 36 37  2  0  0  0  0
 36 38  1  0  0  0  0
M  END
>  <cdx:groupId>
947

>  <cdx:fragmentId>
854

$$$$
