93122.cdx
  Mrv1902 05222410272D          

 16 17  0  0  0  0            999 V2000
    7.6007  -10.1170    0.0000 N   0  0  0  0  0  0  0  0  0  0  0  0
    8.0856   -9.4495    0.0000 C   0  0  0  0  0  0  0  0  0  0  0  0
    7.6007   -8.7821    0.0000 C   0  0  0  0  0  0  0  0  0  0  0  0
    6.8161   -9.0370    0.0000 C   0  0  0  0  0  0  0  0  0  0  0  0
    6.1016   -8.6245    0.0000 C   0  0  0  0  0  0  0  0  0  0  0  0
    5.3872   -9.0370    0.0000 C   0  0  0  0  0  0  0  0  0  0  0  0
    5.3872   -9.8620    0.0000 C   0  0  0  0  0  0  0  0  0  0  0  0
    6.1016  -10.2745    0.0000 C   0  0  0  0  0  0  0  0  0  0  0  0
    6.8161   -9.8620    0.0000 C   0  0  0  0  0  0  0  0  0  0  0  0
    8.9106   -9.4495    0.0000 O   0  0  0  0  0  0  0  0  0  0  0  0
    7.8557  -10.9016    0.0000 C   0  0  0  0  0  0  0  0  0  0  0  0
    7.8557   -7.9975    0.0000 C   0  0  0  0  0  0  0  0  0  0  0  0
    7.3036   -7.3844    0.0000 C   0  0  0  0  0  0  0  0  0  0  0  0
    7.5586   -6.5997    0.0000 C   0  0  0  0  0  0  0  0  0  0  0  0
    8.3655   -6.4282    0.0000 C   0  0  0  0  0  0  0  0  0  0  0  0
    6.9752   -6.0164    0.0000 C   0  0  0  0  0  0  0  0  0  0  0  0
  1  2  1  0  0  0  0
  2  3  1  0  0  0  0
  3  4  1  0  0  0  0
  4  5  1  0  0  0  0
  5  6  2  0  0  0  0
  6  7  1  0  0  0  0
  7  8  2  0  0  0  0
  8  9  1  0  0  0  0
  1  9  1  0  0  0  0
  4  9  2  0  0  0  0
  2 10  2  0  0  0  0
  1 11  1  0  0  0  0
 12 13  1  0  0  0  0
 13 14  2  0  0  0  0
 14 15  1  0  0  0  0
 14 16  1  0  0  0  0
  3 12  2  0  0  0  0
M  END
>  <cdx:fragmentId>
5

$$$$
