93126.cdx
  Mrv1902 05222410272D          

 20 20  0  0  0  0            999 V2000
    6.4812   -7.7907    0.0000 C   0  0  0  0  0  0  0  0  0  0  0  0
    6.4812   -8.6157    0.0000 C   0  0  2  0  0  0  0  0  0  0  0  0
    7.1956   -9.0282    0.0000 C   0  0  0  0  0  0  0  0  0  0  0  0
    7.9101   -8.6157    0.0000 C   0  0  0  0  0  0  0  0  0  0  0  0
    7.9101   -7.7907    0.0000 C   0  0  0  0  0  0  0  0  0  0  0  0
    7.1956   -7.3782    0.0000 C   0  0  0  0  0  0  0  0  0  0  0  0
    6.0687   -7.0762    0.0000 O   0  0  0  0  0  0  0  0  0  0  0  0
    8.6246   -9.0282    0.0000 C   0  0  0  0  0  0  0  0  0  0  0  0
    9.3391   -8.6157    0.0000 C   0  0  0  0  0  0  0  0  0  0  0  0
   10.0535   -9.0282    0.0000 C   0  0  0  0  0  0  0  0  0  0  0  0
   10.0535   -9.8532    0.0000 C   0  0  0  0  0  0  0  0  0  0  0  0
   10.7680   -8.6157    0.0000 C   0  0  0  0  0  0  0  0  0  0  0  0
    8.6246   -7.3782    0.0000 C   0  0  0  0  0  0  0  0  0  0  0  0
    7.1956   -9.8532    0.0000 C   0  0  0  0  0  0  0  0  0  0  0  0
    5.6562   -7.7907    0.0000 C   0  0  0  0  0  0  0  0  0  0  0  0
    5.7667   -9.0282    0.0000 C   0  0  0  0  0  0  0  0  0  0  0  0
    5.0522   -8.6157    0.0000 O   0  0  0  0  0  0  0  0  0  0  0  0
    4.3378   -9.0282    0.0000 C   0  0  0  0  0  0  0  0  0  0  0  0
    4.3378   -9.8532    0.0000 O   0  0  0  0  0  0  0  0  0  0  0  0
    3.6233   -8.6157    0.0000 C   0  0  0  0  0  0  0  0  0  0  0  0
  1  2  1  0  0  0  0
  2  3  1  0  0  0  0
  3  4  1  0  0  0  0
  4  5  1  0  0  0  0
  5  6  1  0  0  0  0
  1  6  1  0  0  0  0
  1  7  1  0  0  0  0
  8  9  1  0  0  0  0
  9 10  2  0  0  0  0
 10 11  1  0  0  0  0
 10 12  1  0  0  0  0
  4  8  1  0  0  0  0
  5 13  1  0  0  0  0
  3 14  1  0  0  0  0
  1 15  1  0  0  0  0
 18 19  2  0  0  0  0
 18 20  1  0  0  0  0
 17 18  1  0  0  0  0
 16 17  1  0  0  0  0
  2 16  1  6  0  0  0
M  END
>  <cdx:groupId>
62

>  <cdx:fragmentId>
5

$$$$
