93120.cdx
  Mrv1902 05222410282D          

 15 16  0  0  0  0            999 V2000
    7.9770   -5.7720    0.0000 C   0  0  0  0  0  0  0  0  0  0  0  0
    7.9740   -6.5970    0.0000 C   0  0  0  0  0  0  0  0  0  0  0  0
    7.2580   -7.0068    0.0000 C   0  0  0  0  0  0  0  0  0  0  0  0
    6.5451   -6.5917    0.0000 C   0  0  0  0  0  0  0  0  0  0  0  0
    6.5481   -5.7667    0.0000 C   0  0  0  0  0  0  0  0  0  0  0  0
    7.2641   -5.3568    0.0000 C   0  0  1  0  0  0  0  0  0  0  0  0
    6.5512   -4.9417    0.0000 C   0  0  0  0  0  0  0  0  0  0  0  0
    6.5542   -4.1167    0.0000 C   0  0  0  0  0  0  0  0  0  0  0  0
    7.2702   -3.7068    0.0000 C   0  0  0  0  0  0  0  0  0  0  0  0
    7.9831   -4.1220    0.0000 C   0  0  0  0  0  0  0  0  0  0  0  0
    7.9801   -4.9470    0.0000 C   0  0  0  0  0  0  0  0  0  0  0  0
    8.6930   -5.3621    0.0000 C   0  0  0  0  0  0  0  0  0  0  0  0
    6.1360   -5.6546    0.0000 C   0  0  0  0  0  0  0  0  0  0  0  0
    5.7262   -4.9387    0.0000 C   0  0  0  0  0  0  0  0  0  0  0  0
    7.2550   -7.8318    0.0000 C   0  0  0  0  0  0  0  0  0  0  0  0
  1  2  1  0  0  0  0
  2  3  1  0  0  0  0
  3  4  2  0  0  0  0
  4  5  1  0  0  0  0
  5  6  1  0  0  0  0
  6  7  1  0  0  0  0
  7  8  1  0  0  0  0
  8  9  1  0  0  0  0
  9 10  1  0  0  0  0
 10 11  1  0  0  0  0
  6  1  1  1  0  0  0
 11  6  1  0  0  0  0
 11 12  2  0  0  0  0
  7 13  1  0  0  0  0
  7 14  1  0  0  0  0
  3 15  1  0  0  0  0
M  END
>  <cdx:fragmentId>
5

$$$$
