93129.cdx
  Mrv1902 05222410202D          

 53 59  0  0  0  0            999 V2000
    7.9449  -10.7817    0.0000 O   0  0  0  0  0  0  0  0  0  0  0  0
    9.3393   -8.2871    0.0000 O   0  0  0  0  0  0  0  0  0  0  0  0
    3.6813  -12.4910    0.0000 O   0  0  0  0  0  0  0  0  0  0  0  0
    5.1216  -13.2961    0.0000 O   0  0  0  0  0  0  0  0  0  0  0  0
    6.5389  -12.4513    0.0000 O   0  0  0  0  0  0  0  0  0  0  0  0
    5.8074  -11.2239    0.0000 C   0  0  0  0  0  0  0  0  0  0  0  0
    5.8188  -12.0488    0.0000 C   0  0  0  0  0  0  0  0  0  0  0  0
    5.1101  -12.4712    0.0000 C   0  0  0  0  0  0  0  0  0  0  0  0
    4.3900  -12.0686    0.0000 C   0  0  0  0  0  0  0  0  0  0  0  0
    4.3786  -11.2437    0.0000 C   0  0  0  0  0  0  0  0  0  0  0  0
    5.0872  -10.8213    0.0000 C   0  0  0  0  0  0  0  0  0  0  0  0
    5.0758   -9.9964    0.0000 O   0  0  0  0  0  0  0  0  0  0  0  0
    4.3099   -6.2942    0.0000 O   0  0  0  0  0  0  0  0  0  0  0  0
    2.8925   -7.1389    0.0000 O   0  0  0  0  0  0  0  0  0  0  0  0
    2.9154   -8.7888    0.0000 O   0  0  0  0  0  0  0  0  0  0  0  0
    4.3442   -8.7690    0.0000 C   0  0  0  0  0  0  0  0  0  0  0  0
    3.6241   -8.3664    0.0000 C   0  0  0  0  0  0  0  0  0  0  0  0
    3.6127   -7.5415    0.0000 C   0  0  0  0  0  0  0  0  0  0  0  0
    4.3213   -7.1191    0.0000 C   0  0  0  0  0  0  0  0  0  0  0  0
    5.0415   -7.5217    0.0000 C   0  0  0  0  0  0  0  0  0  0  0  0
    5.0529   -8.3466    0.0000 C   0  0  0  0  0  0  0  0  0  0  0  0
    6.4817   -8.3267    0.0000 O   0  0  0  0  0  0  0  0  0  0  0  0
    7.2018   -8.7293    0.0000 C   0  0  0  0  0  0  0  0  0  0  0  0
    7.9105   -8.3069    0.0000 C   0  0  0  0  0  0  0  0  0  0  0  0
    8.6306   -8.7095    0.0000 C   0  0  0  0  0  0  0  0  0  0  0  0
    8.6421   -9.5344    0.0000 C   0  0  0  0  0  0  0  0  0  0  0  0
    7.9334   -9.9568    0.0000 C   0  0  0  0  0  0  0  0  0  0  0  0
    7.2133   -9.5542    0.0000 C   0  0  0  0  0  0  0  0  0  0  0  0
    6.5046   -9.9766    0.0000 C   0  0  0  0  0  0  0  0  0  0  0  0
    5.7845   -9.5740    0.0000 C   0  0  2  0  0  0  0  0  0  0  0  0
    5.7730   -8.7491    0.0000 C   0  0  1  0  0  0  0  0  0  0  0  0
   11.4470   -5.8926    0.0000 O   0  0  0  0  0  0  0  0  0  0  0  0
   11.4241   -4.2428    0.0000 O   0  0  0  0  0  0  0  0  0  0  0  0
    9.9839   -3.4377    0.0000 O   0  0  0  0  0  0  0  0  0  0  0  0
    9.2867   -4.6850    0.0000 C   0  0  0  0  0  0  0  0  0  0  0  0
    9.9953   -4.2626    0.0000 C   0  0  0  0  0  0  0  0  0  0  0  0
   10.7155   -4.6651    0.0000 C   0  0  0  0  0  0  0  0  0  0  0  0
   10.7269   -5.4900    0.0000 C   0  0  0  0  0  0  0  0  0  0  0  0
   10.0182   -5.9124    0.0000 C   0  0  0  0  0  0  0  0  0  0  0  0
    9.2981   -5.5099    0.0000 C   0  0  0  0  0  0  0  0  0  0  0  0
    5.0117   -5.5694    0.0000 O   0  0  0  0  0  0  0  0  0  0  0  0
    6.4748   -8.0243    0.0000 O   0  0  0  0  0  0  0  0  0  0  0  0
    9.3210   -7.1597    0.0000 O   0  0  0  0  0  0  0  0  0  0  0  0
    7.8693   -5.5297    0.0000 O   0  0  0  0  0  0  0  0  0  0  0  0
    7.1606   -5.9521    0.0000 C   0  0  0  0  0  0  0  0  0  0  0  0
    6.4405   -5.5495    0.0000 C   0  0  0  0  0  0  0  0  0  0  0  0
    5.7318   -5.9719    0.0000 C   0  0  0  0  0  0  0  0  0  0  0  0
    5.7433   -6.7968    0.0000 C   0  0  0  0  0  0  0  0  0  0  0  0
    6.4634   -7.1994    0.0000 C   0  0  0  0  0  0  0  0  0  0  0  0
    7.1721   -6.7770    0.0000 C   0  0  0  0  0  0  0  0  0  0  0  0
    7.8922   -7.1795    0.0000 C   0  0  1  0  0  0  0  0  0  0  0  0
    8.6009   -6.7572    0.0000 C   0  0  1  0  0  0  0  0  0  0  0  0
    8.5894   -5.9322    0.0000 C   0  0  1  0  0  0  0  0  0  0  0  0
 51 24  1  1  0  0  0
 27  1  1  0  0  0  0
 25  2  1  0  0  0  0
 30 12  1  1  0  0  0
  9  3  1  0  0  0  0
  8  4  1  0  0  0  0
  7  5  1  0  0  0  0
 12 11  1  0  0  0  0
 11  6  2  0  0  0  0
  7  6  1  0  0  0  0
  8  7  2  0  0  0  0
  9  8  1  0  0  0  0
 10  9  2  0  0  0  0
 11 10  1  0  0  0  0
 31 21  1  1  0  0  0
 19 13  1  0  0  0  0
 18 14  1  0  0  0  0
 17 15  1  0  0  0  0
 21 16  2  0  0  0  0
 17 16  1  0  0  0  0
 18 17  2  0  0  0  0
 19 18  1  0  0  0  0
 20 19  2  0  0  0  0
 21 20  1  0  0  0  0
 31 22  1  0  0  0  0
 23 22  1  0  0  0  0
 28 23  2  0  0  0  0
 24 23  1  0  0  0  0
 25 24  2  0  0  0  0
 26 25  1  0  0  0  0
 27 26  2  0  0  0  0
 28 27  1  0  0  0  0
 29 28  1  0  0  0  0
 30 29  1  0  0  0  0
 31 30  1  0  0  0  0
 53 40  1  6  0  0  0
 38 32  1  0  0  0  0
 37 33  1  0  0  0  0
 36 34  1  0  0  0  0
 40 35  2  0  0  0  0
 36 35  1  0  0  0  0
 37 36  2  0  0  0  0
 38 37  1  0  0  0  0
 39 38  2  0  0  0  0
 40 39  1  0  0  0  0
 47 41  1  0  0  0  0
 49 42  1  0  0  0  0
 52 43  1  1  0  0  0
 53 44  1  0  0  0  0
 45 44  1  0  0  0  0
 50 45  2  0  0  0  0
 46 45  1  0  0  0  0
 47 46  2  0  0  0  0
 48 47  1  0  0  0  0
 49 48  2  0  0  0  0
 50 49  1  0  0  0  0
 51 50  1  0  0  0  0
 52 51  1  0  0  0  0
 53 52  1  0  0  0  0
M  END
>  <cdx:fragmentId>
49

$$$$
