93134.cdx
  Mrv1902 05222410282D          

 17 18  0  0  0  0            999 V2000
    7.0498   -9.2813    0.0000 C   0  0  0  0  0  0  0  0  0  0  0  0
    7.7642   -8.8688    0.0000 C   0  0  1  0  0  0  0  0  0  0  0  0
    7.7642   -8.0437    0.0000 C   0  0  0  0  0  0  0  0  0  0  0  0
    7.0498   -7.6313    0.0000 C   0  0  1  0  0  0  0  0  0  0  0  0
    6.3353   -8.0437    0.0000 C   0  0  1  0  0  0  0  0  0  0  0  0
    5.6208   -7.6313    0.0000 C   0  0  0  0  0  0  0  0  0  0  0  0
    4.9063   -8.0437    0.0000 C   0  0  0  0  0  0  0  0  0  0  0  0
    4.9063   -8.8688    0.0000 C   0  0  0  0  0  0  0  0  0  0  0  0
    5.6208   -9.2813    0.0000 C   0  0  0  0  0  0  0  0  0  0  0  0
    6.3353   -8.8688    0.0000 C   0  0  0  0  0  0  0  0  0  0  0  0
    8.4787   -9.2813    0.0000 C   0  0  0  0  0  0  0  0  0  0  0  0
    9.1932   -9.6937    0.0000 O   0  0  0  0  0  0  0  0  0  0  0  0
    5.6208  -10.1063    0.0000 C   0  0  0  0  0  0  0  0  0  0  0  0
    7.0498   -6.8062    0.0000 C   0  0  0  0  0  0  0  0  0  0  0  0
    6.3353   -7.2188    0.0000 H   0  0  0  0  0  0  0  0  0  0  0  0
    8.8912   -8.5668    0.0000 C   0  0  0  0  0  0  0  0  0  0  0  0
    8.0662   -9.9957    0.0000 C   0  0  0  0  0  0  0  0  0  0  0  0
  2  1  1  1  0  0  0
  2  3  1  0  0  0  0
  3  4  1  0  0  0  0
  4  5  1  0  0  0  0
  5  6  1  0  0  0  0
  6  7  1  0  0  0  0
  7  8  1  0  0  0  0
  8  9  1  0  0  0  0
  9 10  2  0  0  0  0
  1 10  1  0  0  0  0
  5 10  1  0  0  0  0
 11 12  1  0  0  0  0
  2 11  1  0  0  0  0
  9 13  1  0  0  0  0
  4 14  1  1  0  0  0
  5 15  1  1  0  0  0
 11 16  1  0  0  0  0
 11 17  1  0  0  0  0
M  END
>  <cdx:fragmentId>
3

$$$$
