93132.cdx
  Mrv1902 05222410272D          

 24 26  0  0  0  0            999 V2000
    5.3906   -9.1580    0.0000 C   0  0  0  0  0  0  0  0  0  0  0  0
    4.6761   -9.5705    0.0000 C   0  0  0  0  0  0  0  0  0  0  0  0
    4.6761  -10.3955    0.0000 C   0  0  0  0  0  0  0  0  0  0  0  0
    5.3906  -10.8080    0.0000 C   0  0  2  0  0  0  0  0  0  0  0  0
    5.8031  -11.5224    0.0000 C   0  0  0  0  0  0  0  0  0  0  0  0
    4.9781  -11.5224    0.0000 C   0  0  0  0  0  0  0  0  0  0  0  0
    6.1050  -10.3955    0.0000 C   0  0  2  0  0  0  0  0  0  0  0  0
    6.1050  -11.2205    0.0000 H   0  0  0  0  0  0  0  0  0  0  0  0
    6.7501  -10.9098    0.0000 C   0  0  0  0  0  0  0  0  0  0  0  0
    7.5544  -10.7263    0.0000 C   0  0  0  0  0  0  0  0  0  0  0  0
    7.9123   -9.9830    0.0000 C   0  0  1  0  0  0  0  0  0  0  0  0
    8.7373   -9.9830    0.0000 C   0  0  0  0  0  0  0  0  0  0  0  0
    7.1286   -9.2557    0.0000 C   0  0  1  0  0  0  0  0  0  0  0  0
    6.1050   -9.5705    0.0000 C   0  0  1  0  0  0  0  0  0  0  0  0
    6.7501   -9.0561    0.0000 C   0  0  0  0  0  0  0  0  0  0  0  0
    7.3125   -8.4515    0.0000 C   0  0  0  0  0  0  0  0  0  0  0  0
    8.1009   -8.2086    0.0000 C   0  0  0  0  0  0  0  0  0  0  0  0
    8.2849   -7.4044    0.0000 C   0  0  0  0  0  0  0  0  0  0  0  0
    9.0733   -7.1616    0.0000 C   0  0  0  0  0  0  0  0  0  0  0  0
    7.7015   -6.8210    0.0000 C   0  0  0  0  0  0  0  0  0  0  0  0
    7.9150   -6.0241    0.0000 C   0  0  0  0  0  0  0  0  0  0  0  0
    7.5544   -9.2397    0.0000 O   0  0  0  0  0  0  0  0  0  0  0  0
    7.3317   -5.4408    0.0000 O   0  0  0  0  0  0  0  0  0  0  0  0
    9.6567   -7.7449    0.0000 O   0  0  0  0  0  0  0  0  0  0  0  0
  1  2  1  0  0  0  0
  2  3  1  0  0  0  0
  3  4  1  0  0  0  0
  4  5  1  6  0  0  0
  4  6  1  1  0  0  0
  4  7  1  0  0  0  0
  7  8  1  6  0  0  0
  7  9  1  0  0  0  0
  9 10  1  0  0  0  0
 10 11  1  0  0  0  0
 11 12  1  0  0  0  0
 11 13  1  0  0  0  0
 13 14  1  0  0  0  0
  7 14  1  0  0  0  0
  1 14  1  0  0  0  0
 14 15  1  1  0  0  0
 13 16  1  1  0  0  0
 16 17  1  0  0  0  0
 17 18  2  0  0  0  0
 18 19  1  0  0  0  0
 18 20  1  0  0  0  0
 20 21  1  0  0  0  0
 11 22  1  1  0  0  0
 15 22  1  0  0  0  0
 21 23  2  0  0  0  0
 19 24  2  0  0  0  0
M  END
>  <cdx:groupId>
76

>  <cdx:fragmentId>
5

$$$$
