93138.cdx
  Mrv1902 05222410182D          

 27 29  0  0  0  0            999 V2000
    4.6950  -11.0683    0.0000 C   0  0  0  0  0  0  0  0  0  0  0  0
    5.4095  -10.6558    0.0000 O   0  0  0  0  0  0  0  0  0  0  0  0
    3.2661   -8.5933    0.0000 C   0  0  0  0  0  0  0  0  0  0  0  0
    3.9805   -8.1808    0.0000 O   0  0  0  0  0  0  0  0  0  0  0  0
    9.6963   -9.8308    0.0000 C   0  0  0  0  0  0  0  0  0  0  0  0
    8.9818   -9.4183    0.0000 O   0  0  0  0  0  0  0  0  0  0  0  0
   11.1252   -8.1808    0.0000 C   0  0  0  0  0  0  0  0  0  0  0  0
   10.4108   -8.5933    0.0000 O   0  0  0  0  0  0  0  0  0  0  0  0
   11.1252   -7.3558    0.0000 C   0  0  0  0  0  0  0  0  0  0  0  0
   10.4108   -6.9433    0.0000 O   0  0  0  0  0  0  0  0  0  0  0  0
    8.2674   -7.3558    0.0000 C   0  0  0  0  0  0  0  0  0  0  0  0
    8.9818   -6.9433    0.0000 C   0  0  0  0  0  0  0  0  0  0  0  0
    9.6963   -7.3558    0.0000 C   0  0  0  0  0  0  0  0  0  0  0  0
    9.6963   -8.1808    0.0000 C   0  0  0  0  0  0  0  0  0  0  0  0
    8.9818   -8.5933    0.0000 C   0  0  0  0  0  0  0  0  0  0  0  0
    8.2674   -8.1808    0.0000 C   0  0  0  0  0  0  0  0  0  0  0  0
    6.8384  -10.6558    0.0000 O   0  0  0  0  0  0  0  0  0  0  0  0
    6.8384   -8.1808    0.0000 O   0  0  0  0  0  0  0  0  0  0  0  0
    6.1239   -8.5933    0.0000 C   0  0  0  0  0  0  0  0  0  0  0  0
    5.4095   -8.1808    0.0000 C   0  0  0  0  0  0  0  0  0  0  0  0
    4.6950   -8.5933    0.0000 C   0  0  0  0  0  0  0  0  0  0  0  0
    4.6950   -9.4183    0.0000 C   0  0  0  0  0  0  0  0  0  0  0  0
    5.4095   -9.8308    0.0000 C   0  0  0  0  0  0  0  0  0  0  0  0
    6.1239   -9.4183    0.0000 C   0  0  0  0  0  0  0  0  0  0  0  0
    6.8384   -9.8308    0.0000 C   0  0  0  0  0  0  0  0  0  0  0  0
    7.5529   -9.4183    0.0000 C   0  0  0  0  0  0  0  0  0  0  0  0
    7.5529   -8.5933    0.0000 C   0  0  1  0  0  0  0  0  0  0  0  0
 23  2  1  0  0  0  0
  2  1  1  0  0  0  0
 21  4  1  0  0  0  0
  4  3  1  0  0  0  0
 27 16  1  6  0  0  0
 15  6  1  0  0  0  0
  6  5  1  0  0  0  0
 14  8  1  0  0  0  0
  8  7  1  0  0  0  0
 13 10  1  0  0  0  0
 10  9  1  0  0  0  0
 16 11  2  0  0  0  0
 12 11  1  0  0  0  0
 13 12  2  0  0  0  0
 14 13  1  0  0  0  0
 15 14  2  0  0  0  0
 16 15  1  0  0  0  0
 25 17  2  0  0  0  0
 27 18  1  0  0  0  0
 19 18  1  0  0  0  0
 24 19  2  0  0  0  0
 20 19  1  0  0  0  0
 21 20  2  0  0  0  0
 22 21  1  0  0  0  0
 23 22  2  0  0  0  0
 24 23  1  0  0  0  0
 25 24  1  0  0  0  0
 26 25  1  0  0  0  0
 27 26  1  0  0  0  0
M  END
>  <cdx:fragmentId>
27

$$$$
