93130.cdx
  Mrv1902 05222410262D          

 12 11  0  0  0  0            999 V2000
    5.7667   -8.6710    0.0000 C   0  0  0  0  0  0  0  0  0  0  0  0
    5.0522   -9.0835    0.0000 C   0  0  0  0  0  0  0  0  0  0  0  0
    4.3378   -8.6710    0.0000 C   0  0  0  0  0  0  0  0  0  0  0  0
    3.6233   -9.0835    0.0000 C   0  0  0  0  0  0  0  0  0  0  0  0
    5.7667   -7.8460    0.0000 O   0  0  0  0  0  0  0  0  0  0  0  0
    6.4812   -9.0835    0.0000 O   0  0  0  0  0  0  0  0  0  0  0  0
    7.1956   -8.6710    0.0000 C   0  0  0  0  0  0  0  0  0  0  0  0
    7.9101   -9.0835    0.0000 C   0  0  0  0  0  0  0  0  0  0  0  0
    8.6246   -8.6710    0.0000 C   0  0  0  0  0  0  0  0  0  0  0  0
    9.3391   -9.0835    0.0000 C   0  0  0  0  0  0  0  0  0  0  0  0
   10.0535   -8.6710    0.0000 C   0  0  0  0  0  0  0  0  0  0  0  0
   10.7680   -9.0835    0.0000 C   0  0  0  0  0  0  0  0  0  0  0  0
  1  2  1  0  0  0  0
  2  3  1  0  0  0  0
  3  4  1  0  0  0  0
  1  5  2  0  0  0  0
  1  6  1  0  0  0  0
  7  8  1  0  0  0  0
  8  9  1  0  0  0  0
  9 10  1  0  0  0  0
 10 11  2  0  0  0  0
 11 12  1  0  0  0  0
  6  7  1  0  0  0  0
M  END
>  <cdx:groupId>
37

>  <cdx:fragmentId>
17

$$$$
