93136.cdx
  Mrv1902 05222410272D          

 32 35  0  0  0  0            999 V2000
    8.9818   -8.2585    0.0000 C   0  0  2  0  0  0  0  0  0  0  0  0
    8.9818   -9.0835    0.0000 C   0  0  0  0  0  0  0  0  0  0  0  0
    8.2674   -9.4960    0.0000 C   0  0  0  0  0  0  0  0  0  0  0  0
    8.2674  -10.3210    0.0000 O   0  0  0  0  0  0  0  0  0  0  0  0
    7.5529   -9.0835    0.0000 C   0  0  0  0  0  0  0  0  0  0  0  0
    6.8384   -9.4960    0.0000 C   0  0  0  0  0  0  0  0  0  0  0  0
    6.1239   -9.0835    0.0000 C   0  0  0  0  0  0  0  0  0  0  0  0
    6.1239   -8.2585    0.0000 C   0  0  0  0  0  0  0  0  0  0  0  0
    6.8384   -7.8460    0.0000 C   0  0  0  0  0  0  0  0  0  0  0  0
    7.5529   -8.2585    0.0000 C   0  0  0  0  0  0  0  0  0  0  0  0
    8.2674   -7.8460    0.0000 O   0  0  0  0  0  0  0  0  0  0  0  0
    9.6963   -7.8460    0.0000 C   0  0  0  0  0  0  0  0  0  0  0  0
    9.6963   -7.0210    0.0000 C   0  0  0  0  0  0  0  0  0  0  0  0
   10.4108   -6.6085    0.0000 C   0  0  0  0  0  0  0  0  0  0  0  0
   11.1252   -7.0210    0.0000 C   0  0  0  0  0  0  0  0  0  0  0  0
   11.1252   -7.8460    0.0000 C   0  0  0  0  0  0  0  0  0  0  0  0
   10.4108   -8.2585    0.0000 C   0  0  0  0  0  0  0  0  0  0  0  0
    5.4095   -7.8460    0.0000 O   0  0  0  0  0  0  0  0  0  0  0  0
    6.8384  -10.3210    0.0000 O   0  0  0  0  0  0  0  0  0  0  0  0
   11.8397   -6.6085    0.0000 O   0  0  0  0  0  0  0  0  0  0  0  0
    5.4095   -9.4960    0.0000 O   0  0  0  0  0  0  0  0  0  0  0  0
    4.6950   -9.0835    0.0000 C   0  0  1  0  0  0  0  0  0  0  0  0
    3.9805   -9.4960    0.0000 C   0  0  2  0  0  0  0  0  0  0  0  0
    3.9805  -10.3210    0.0000 O   0  0  0  0  0  0  0  0  0  0  0  0
    3.2661   -9.0835    0.0000 C   0  0  1  0  0  0  0  0  0  0  0  0
    2.5516   -9.4960    0.0000 O   0  0  0  0  0  0  0  0  0  0  0  0
    3.2661   -8.2585    0.0000 C   0  0  2  0  0  0  0  0  0  0  0  0
    2.5516   -7.8460    0.0000 O   0  0  0  0  0  0  0  0  0  0  0  0
    3.9805   -7.8460    0.0000 C   0  0  2  0  0  0  0  0  0  0  0  0
    4.6950   -8.2585    0.0000 O   0  0  0  0  0  0  0  0  0  0  0  0
    3.9805   -7.0210    0.0000 C   0  0  0  0  0  0  0  0  0  0  0  0
    3.2661   -6.6085    0.0000 O   0  0  0  0  0  0  0  0  0  0  0  0
  1  2  1  0  0  0  0
  2  3  1  0  0  0  0
  3  4  2  0  0  0  0
  3  5  1  0  0  0  0
  5  6  1  0  0  0  0
  6  7  2  0  0  0  0
  7  8  1  0  0  0  0
  8  9  2  0  0  0  0
  9 10  1  0  0  0  0
  5 10  2  0  0  0  0
 10 11  1  0  0  0  0
  1 11  1  0  0  0  0
  1 12  1  6  0  0  0
 12 13  1  0  0  0  0
 13 14  2  0  0  0  0
 14 15  1  0  0  0  0
 15 16  2  0  0  0  0
 16 17  1  0  0  0  0
 12 17  2  0  0  0  0
  8 18  1  0  0  0  0
  6 19  1  0  0  0  0
 15 20  1  0  0  0  0
 22 21  1  1  0  0  0
 22 23  1  0  0  0  0
 23 24  1  6  0  0  0
 23 25  1  0  0  0  0
 25 26  1  1  0  0  0
 25 27  1  0  0  0  0
 27 28  1  6  0  0  0
 27 29  1  0  0  0  0
 29 30  1  0  0  0  0
 29 31  1  1  0  0  0
 31 32  1  0  0  0  0
 22 30  1  0  0  0  0
  7 21  1  0  0  0  0
M  END
>  <cdx:groupId>
101

>  <cdx:fragmentId>
5

$$$$
