untitled.cdx
  Mrv1902 05222410282D          

 16 16  0  0  0  0            999 V2000
    6.9877   -3.7823    0.0000 C   0  0  0  0  0  0  0  0  0  0  0  0
    6.9877   -2.9573    0.0000 C   0  0  0  0  0  0  0  0  0  0  0  0
    6.2732   -2.5448    0.0000 C   0  0  0  0  0  0  0  0  0  0  0  0
    5.5587   -2.9573    0.0000 C   0  0  0  0  0  0  0  0  0  0  0  0
    5.5587   -3.7823    0.0000 C   0  0  0  0  0  0  0  0  0  0  0  0
    6.2732   -4.1948    0.0000 C   0  0  0  0  0  0  0  0  0  0  0  0
    7.7021   -4.1948    0.0000 O   0  0  0  0  0  0  0  0  0  0  0  0
    4.8442   -5.0198    0.0000 C   0  0  0  0  0  0  0  0  0  0  0  0
    4.8442   -4.1948    0.0000 C   0  0  2  0  0  0  0  0  0  0  0  0
    4.1298   -3.7823    0.0000 C   0  0  0  0  0  0  0  0  0  0  0  0
    3.4153   -4.1948    0.0000 C   0  0  0  0  0  0  0  0  0  0  0  0
    2.7008   -3.7823    0.0000 C   0  0  0  0  0  0  0  0  0  0  0  0
    1.9864   -4.1948    0.0000 C   0  0  0  0  0  0  0  0  0  0  0  0
    1.9864   -5.0198    0.0000 C   0  0  0  0  0  0  0  0  0  0  0  0
    1.2719   -3.7823    0.0000 C   0  0  0  0  0  0  0  0  0  0  0  0
    7.7021   -2.5448    0.0000 C   0  0  0  0  0  0  0  0  0  0  0  0
  1  2  1  0  0  0  0
  2  3  2  0  0  0  0
  3  4  1  0  0  0  0
  4  5  2  0  0  0  0
  5  6  1  0  0  0  0
  1  6  2  0  0  0  0
  1  7  1  0  0  0  0
  9  8  1  6  0  0  0
  9 10  1  0  0  0  0
 10 11  1  0  0  0  0
 11 12  1  0  0  0  0
 12 13  2  0  0  0  0
 13 14  1  0  0  0  0
 13 15  1  0  0  0  0
  5  9  1  0  0  0  0
  2 16  1  0  0  0  0
M  END
>  <cdx:groupId>
50

>  <cdx:fragmentId>
17

$$$$
