93131.cdx
  Mrv1902 05222410262D          

 22 24  0  0  0  0            999 V2000
    7.9067   -9.2897    0.0000 C   0  0  0  0  0  0  0  0  0  0  0  0
    7.9067   -8.4647    0.0000 C   0  0  0  0  0  0  0  0  0  0  0  0
    7.1922   -8.0522    0.0000 C   0  0  0  0  0  0  0  0  0  0  0  0
    6.4777   -8.4647    0.0000 C   0  0  0  0  0  0  0  0  0  0  0  0
    5.7633   -8.0522    0.0000 C   0  0  0  0  0  0  0  0  0  0  0  0
    5.0488   -8.4647    0.0000 C   0  0  0  0  0  0  0  0  0  0  0  0
    5.0488   -9.2897    0.0000 C   0  0  0  0  0  0  0  0  0  0  0  0
    5.7633   -9.7022    0.0000 C   0  0  0  0  0  0  0  0  0  0  0  0
    6.4777   -9.2897    0.0000 C   0  0  0  0  0  0  0  0  0  0  0  0
    7.1922   -9.7022    0.0000 O   0  0  0  0  0  0  0  0  0  0  0  0
    7.1922   -7.2272    0.0000 O   0  0  0  0  0  0  0  0  0  0  0  0
    8.6212   -8.0522    0.0000 C   0  0  0  0  0  0  0  0  0  0  0  0
    9.3356   -8.4647    0.0000 C   0  0  0  0  0  0  0  0  0  0  0  0
    9.3356   -9.2897    0.0000 C   0  0  0  0  0  0  0  0  0  0  0  0
   10.0501   -9.7022    0.0000 C   0  0  0  0  0  0  0  0  0  0  0  0
   10.7646   -9.2897    0.0000 C   0  0  0  0  0  0  0  0  0  0  0  0
   10.7646   -8.4647    0.0000 C   0  0  0  0  0  0  0  0  0  0  0  0
   10.0501   -8.0522    0.0000 C   0  0  0  0  0  0  0  0  0  0  0  0
    8.6212   -9.7022    0.0000 O   0  0  0  0  0  0  0  0  0  0  0  0
    4.3343   -9.7022    0.0000 O   0  0  0  0  0  0  0  0  0  0  0  0
    3.6199   -9.2897    0.0000 C   0  0  0  0  0  0  0  0  0  0  0  0
    5.7633   -7.2272    0.0000 O   0  0  0  0  0  0  0  0  0  0  0  0
  1  2  1  0  0  0  0
  2  3  1  0  0  0  0
  3  4  1  0  0  0  0
  4  5  1  0  0  0  0
  5  6  2  0  0  0  0
  6  7  1  0  0  0  0
  7  8  2  0  0  0  0
  8  9  1  0  0  0  0
  4  9  2  0  0  0  0
  9 10  1  0  0  0  0
  1 10  1  0  0  0  0
  3 11  2  0  0  0  0
 12 13  1  0  0  0  0
 13 14  1  0  0  0  0
 14 15  2  0  0  0  0
 15 16  1  0  0  0  0
 16 17  2  0  0  0  0
 17 18  1  0  0  0  0
 13 18  2  0  0  0  0
 14 19  1  0  0  0  0
  2 12  1  0  0  0  0
 20 21  1  0  0  0  0
  7 20  1  0  0  0  0
  5 22  1  0  0  0  0
M  END
>  <cdx:groupId>
70

>  <cdx:fragmentId>
5

$$$$
