93137.cdx
  Mrv1902 05222410272D          

 32 35  0  0  0  0            999 V2000
    8.6246   -9.2897    0.0000 C   0  0  2  0  0  0  0  0  0  0  0  0
    8.6246  -10.1147    0.0000 C   0  0  0  0  0  0  0  0  0  0  0  0
    7.9101  -10.5272    0.0000 C   0  0  0  0  0  0  0  0  0  0  0  0
    7.9101  -11.3522    0.0000 O   0  0  0  0  0  0  0  0  0  0  0  0
    7.1956  -10.1147    0.0000 C   0  0  0  0  0  0  0  0  0  0  0  0
    6.4812  -10.5272    0.0000 C   0  0  0  0  0  0  0  0  0  0  0  0
    5.7667  -10.1147    0.0000 C   0  0  0  0  0  0  0  0  0  0  0  0
    5.7667   -9.2897    0.0000 C   0  0  0  0  0  0  0  0  0  0  0  0
    6.4812   -8.8772    0.0000 C   0  0  0  0  0  0  0  0  0  0  0  0
    7.1956   -9.2897    0.0000 C   0  0  0  0  0  0  0  0  0  0  0  0
    7.9101   -8.8772    0.0000 O   0  0  0  0  0  0  0  0  0  0  0  0
    9.3391   -8.8772    0.0000 C   0  0  0  0  0  0  0  0  0  0  0  0
    9.3391   -8.0522    0.0000 C   0  0  0  0  0  0  0  0  0  0  0  0
   10.0535   -7.6397    0.0000 C   0  0  0  0  0  0  0  0  0  0  0  0
   10.7680   -8.0522    0.0000 C   0  0  0  0  0  0  0  0  0  0  0  0
   10.7680   -8.8772    0.0000 C   0  0  0  0  0  0  0  0  0  0  0  0
   10.0535   -9.2897    0.0000 C   0  0  0  0  0  0  0  0  0  0  0  0
    5.0522   -8.8772    0.0000 O   0  0  0  0  0  0  0  0  0  0  0  0
    6.4812  -11.3522    0.0000 O   0  0  0  0  0  0  0  0  0  0  0  0
   11.4825   -7.6397    0.0000 O   0  0  0  0  0  0  0  0  0  0  0  0
    6.4812   -8.0522    0.0000 O   0  0  0  0  0  0  0  0  0  0  0  0
    5.7667   -7.6397    0.0000 C   0  0  1  0  0  0  0  0  0  0  0  0
    5.7667   -6.8147    0.0000 C   0  0  2  0  0  0  0  0  0  0  0  0
    6.4812   -6.4022    0.0000 O   0  0  0  0  0  0  0  0  0  0  0  0
    5.0522   -6.4022    0.0000 C   0  0  1  0  0  0  0  0  0  0  0  0
    5.0522   -5.5772    0.0000 O   0  0  0  0  0  0  0  0  0  0  0  0
    4.3378   -6.8147    0.0000 C   0  0  2  0  0  0  0  0  0  0  0  0
    3.6233   -6.4022    0.0000 O   0  0  0  0  0  0  0  0  0  0  0  0
    4.3378   -7.6397    0.0000 C   0  0  2  0  0  0  0  0  0  0  0  0
    5.0522   -8.0522    0.0000 O   0  0  0  0  0  0  0  0  0  0  0  0
    3.6233   -8.0522    0.0000 C   0  0  0  0  0  0  0  0  0  0  0  0
    2.9088   -7.6397    0.0000 O   0  0  0  0  0  0  0  0  0  0  0  0
  1  2  1  0  0  0  0
  2  3  1  0  0  0  0
  3  4  2  0  0  0  0
  3  5  1  0  0  0  0
  5  6  1  0  0  0  0
  6  7  2  0  0  0  0
  7  8  1  0  0  0  0
  8  9  2  0  0  0  0
  9 10  1  0  0  0  0
  5 10  2  0  0  0  0
 10 11  1  0  0  0  0
  1 11  1  0  0  0  0
  1 12  1  6  0  0  0
 12 13  1  0  0  0  0
 13 14  2  0  0  0  0
 14 15  1  0  0  0  0
 15 16  2  0  0  0  0
 16 17  1  0  0  0  0
 12 17  2  0  0  0  0
  8 18  1  0  0  0  0
  6 19  1  0  0  0  0
 15 20  1  0  0  0  0
 22 21  1  6  0  0  0
 22 23  1  0  0  0  0
 23 24  1  1  0  0  0
 23 25  1  0  0  0  0
 25 26  1  6  0  0  0
 25 27  1  0  0  0  0
 27 28  1  1  0  0  0
 27 29  1  0  0  0  0
 29 30  1  0  0  0  0
 29 31  1  6  0  0  0
 31 32  1  0  0  0  0
 22 30  1  0  0  0  0
  9 21  1  0  0  0  0
M  END
>  <cdx:groupId>
101

>  <cdx:fragmentId>
5

$$$$
