93145.cdx
  Mrv1902 05222410242D          

 12 11  0  0  0  0            999 V2000
    5.1425   -7.9750    0.0000 O   0  0  0  0  0  0  0  0  0  0  0  0
    5.8570   -7.5625    0.0000 C   0  0  0  0  0  0  0  0  0  0  0  0
    6.5714   -7.9750    0.0000 C   0  0  0  0  0  0  0  0  0  0  0  0
    7.2859   -7.5625    0.0000 C   0  0  0  0  0  0  0  0  0  0  0  0
    7.6984   -8.2770    0.0000 C   0  0  0  0  0  0  0  0  0  0  0  0
    6.8734   -6.8480    0.0000 O   0  0  0  0  0  0  0  0  0  0  0  0
    8.0004   -7.1500    0.0000 C   0  0  0  0  0  0  0  0  0  0  0  0
    8.7149   -7.5625    0.0000 C   0  0  0  0  0  0  0  0  0  0  0  0
    8.0004   -6.3250    0.0000 C   0  0  0  0  0  0  0  0  0  0  0  0
    9.4293   -7.1500    0.0000 O   0  0  0  0  0  0  0  0  0  0  0  0
    8.7149   -8.3875    0.0000 O   0  0  0  0  0  0  0  0  0  0  0  0
    5.8570   -6.7375    0.0000 O   0  0  0  0  0  0  0  0  0  0  0  0
  1  2  1  0  0  0  0
  2  3  1  0  0  0  0
  3  4  1  0  0  0  0
  4  5  1  0  0  0  0
  4  6  1  0  0  0  0
  4  7  1  0  0  0  0
  7  8  1  0  0  0  0
  7  9  1  0  0  0  0
  8 10  1  0  0  0  0
  8 11  2  0  0  0  0
  2 12  2  0  0  0  0
M  END
>  <cdx:fragmentId>
32765

$$$$
