93149.cdx
  Mrv1902 05222410222D          

 52 55  0  0  0  0            999 V2000
   12.2380  -10.2575    0.0000 C   0  0  2  0  0  0  0  0  0  0  0  0
   12.2380  -11.0825    0.0000 C   0  0  2  0  0  0  0  0  0  0  0  0
   12.9525  -11.4950    0.0000 C   0  0  1  0  0  0  0  0  0  0  0  0
   13.6670  -11.0825    0.0000 C   0  0  2  0  0  0  0  0  0  0  0  0
   13.6670  -10.2575    0.0000 C   0  0  2  0  0  0  0  0  0  0  0  0
   12.9525   -9.8450    0.0000 O   0  0  0  0  0  0  0  0  0  0  0  0
   11.5236   -9.8450    0.0000 C   0  0  0  0  0  0  0  0  0  0  0  0
   14.3814   -9.8450    0.0000 O   0  0  0  0  0  0  0  0  0  0  0  0
   14.3814  -11.4950    0.0000 O   0  0  0  0  0  0  0  0  0  0  0  0
   12.9525  -12.3200    0.0000 O   0  0  0  0  0  0  0  0  0  0  0  0
   11.5236  -11.4950    0.0000 O   0  0  0  0  0  0  0  0  0  0  0  0
   10.8091  -10.2575    0.0000 O   0  0  0  0  0  0  0  0  0  0  0  0
   10.0946   -9.8450    0.0000 C   0  0  0  0  0  0  0  0  0  0  0  0
    9.3801  -10.2575    0.0000 C   0  0  0  0  0  0  0  0  0  0  0  0
   10.0946   -9.0200    0.0000 O   0  0  0  0  0  0  0  0  0  0  0  0
    8.6657   -9.8450    0.0000 C   0  0  0  0  0  0  0  0  0  0  0  0
    7.9512  -10.2575    0.0000 C   0  0  0  0  0  0  0  0  0  0  0  0
    7.2367   -9.8450    0.0000 C   0  0  0  0  0  0  0  0  0  0  0  0
    6.5223  -10.2575    0.0000 C   0  0  0  0  0  0  0  0  0  0  0  0
    6.5223  -11.0825    0.0000 C   0  0  0  0  0  0  0  0  0  0  0  0
    7.2367  -11.4950    0.0000 C   0  0  0  0  0  0  0  0  0  0  0  0
    7.9512  -11.0825    0.0000 C   0  0  0  0  0  0  0  0  0  0  0  0
    5.8078  -11.4950    0.0000 O   0  0  0  0  0  0  0  0  0  0  0  0
    5.8078   -9.8450    0.0000 O   0  0  0  0  0  0  0  0  0  0  0  0
    5.0933  -10.2575    0.0000 C   0  0  0  0  0  0  0  0  0  0  0  0
   14.3814   -9.0200    0.0000 C   0  0  2  0  0  0  0  0  0  0  0  0
   14.6719   -8.2478    0.0000 C   0  0  1  0  0  0  0  0  0  0  0  0
   14.0273   -7.7330    0.0000 C   0  0  2  0  0  0  0  0  0  0  0  0
   13.3384   -8.1869    0.0000 C   0  0  1  0  0  0  0  0  0  0  0  0
   13.5573   -8.9824    0.0000 O   0  0  0  0  0  0  0  0  0  0  0  0
   12.5662   -7.8965    0.0000 C   0  0  0  0  0  0  0  0  0  0  0  0
   12.4317   -7.0825    0.0000 O   0  0  0  0  0  0  0  0  0  0  0  0
   14.0649   -6.9088    0.0000 O   0  0  0  0  0  0  0  0  0  0  0  0
   15.4673   -8.0289    0.0000 O   0  0  0  0  0  0  0  0  0  0  0  0
   15.1931   -9.1676    0.0000 C   0  0  0  0  0  0  0  0  0  0  0  0
   15.7268   -8.5385    0.0000 O   0  0  0  0  0  0  0  0  0  0  0  0
   15.8004   -7.2742    0.0000 C   0  0  0  0  0  0  0  0  0  0  0  0
   15.3133   -6.6083    0.0000 O   0  0  0  0  0  0  0  0  0  0  0  0
   16.6206   -7.1853    0.0000 C   0  0  0  0  0  0  0  0  0  0  0  0
   16.9537   -6.4305    0.0000 C   0  0  0  0  0  0  0  0  0  0  0  0
   17.7739   -6.3416    0.0000 C   0  0  0  0  0  0  0  0  0  0  0  0
   18.2610   -7.0075    0.0000 C   0  0  0  0  0  0  0  0  0  0  0  0
   19.0812   -6.9186    0.0000 C   0  0  0  0  0  0  0  0  0  0  0  0
   19.4143   -6.1638    0.0000 C   0  0  0  0  0  0  0  0  0  0  0  0
   18.9272   -5.4979    0.0000 C   0  0  0  0  0  0  0  0  0  0  0  0
   18.1070   -5.5868    0.0000 C   0  0  0  0  0  0  0  0  0  0  0  0
   19.2603   -4.7432    0.0000 O   0  0  0  0  0  0  0  0  0  0  0  0
   20.2345   -6.0749    0.0000 O   0  0  0  0  0  0  0  0  0  0  0  0
   19.5683   -7.5844    0.0000 O   0  0  0  0  0  0  0  0  0  0  0  0
   19.2352   -8.3392    0.0000 C   0  0  0  0  0  0  0  0  0  0  0  0
   20.7216   -6.7407    0.0000 C   0  0  0  0  0  0  0  0  0  0  0  0
   18.7732   -4.0773    0.0000 C   0  0  0  0  0  0  0  0  0  0  0  0
  1  2  1  0  0  0  0
  2  3  1  0  0  0  0
  3  4  1  0  0  0  0
  4  5  1  0  0  0  0
  5  6  1  0  0  0  0
  6  1  1  0  0  0  0
  1  7  1  1  0  0  0
  5  8  1  6  0  0  0
  4  9  1  6  0  0  0
  3 10  1  1  0  0  0
  2 11  1  6  0  0  0
  7 12  1  0  0  0  0
 12 13  1  0  0  0  0
 13 14  1  0  0  0  0
 13 15  2  0  0  0  0
 14 16  2  0  0  0  0
 16 17  1  0  0  0  0
 17 18  2  0  0  0  0
 18 19  1  0  0  0  0
 19 20  2  0  0  0  0
 20 21  1  0  0  0  0
 21 22  2  0  0  0  0
 22 17  1  0  0  0  0
 20 23  1  0  0  0  0
 19 24  1  0  0  0  0
 24 25  1  0  0  0  0
 26  8  1  1  0  0  0
 26 27  1  0  0  0  0
 27 28  1  0  0  0  0
 28 29  1  0  0  0  0
 29 30  1  0  0  0  0
 30 26  1  0  0  0  0
 29 31  1  1  0  0  0
 31 32  1  0  0  0  0
 28 33  1  6  0  0  0
 27 34  1  1  0  0  0
 26 35  1  0  0  0  0
 35 36  1  0  0  0  0
 34 37  1  0  0  0  0
 37 38  2  0  0  0  0
 37 39  1  0  0  0  0
 39 40  2  0  0  0  0
 40 41  1  0  0  0  0
 41 42  2  0  0  0  0
 42 43  1  0  0  0  0
 43 44  2  0  0  0  0
 44 45  1  0  0  0  0
 45 46  2  0  0  0  0
 46 41  1  0  0  0  0
 45 47  1  0  0  0  0
 44 48  1  0  0  0  0
 43 49  1  0  0  0  0
 49 50  1  0  0  0  0
 48 51  1  0  0  0  0
 47 52  1  0  0  0  0
M  END
>  <cdx:fragmentId>
32804

$$$$
