93148.cdx
  Mrv1902 05222410222D          

 20 21  0  0  0  0            999 V2000
    6.9845   -8.6107    0.0000 C   0  0  0  0  0  0  0  0  0  0  0  0
    6.2700   -8.1982    0.0000 C   0  0  0  0  0  0  0  0  0  0  0  0
    6.2700   -7.3732    0.0000 C   0  0  0  0  0  0  0  0  0  0  0  0
    6.9845   -6.9607    0.0000 C   0  0  0  0  0  0  0  0  0  0  0  0
    7.6989   -7.3732    0.0000 C   0  0  0  0  0  0  0  0  0  0  0  0
    8.4134   -6.9607    0.0000 C   0  0  0  0  0  0  0  0  0  0  0  0
    9.1279   -7.3732    0.0000 C   0  0  0  0  0  0  0  0  0  0  0  0
    9.1279   -8.1982    0.0000 C   0  0  0  0  0  0  0  0  0  0  0  0
    8.4134   -8.6107    0.0000 C   0  0  0  0  0  0  0  0  0  0  0  0
    7.6989   -8.1982    0.0000 C   0  0  0  0  0  0  0  0  0  0  0  0
    5.8575   -8.9126    0.0000 O   0  0  0  0  0  0  0  0  0  0  0  0
    7.6989   -9.0232    0.0000 C   0  0  0  0  0  0  0  0  0  0  0  0
    8.0009   -6.2462    0.0000 C   0  0  0  0  0  0  0  0  0  0  0  0
    8.8259   -6.2462    0.0000 C   0  0  0  0  0  0  0  0  0  0  0  0
    5.4450   -8.1982    0.0000 C   0  0  0  0  0  0  0  0  0  0  0  0
    6.9845   -9.4357    0.0000 C   0  0  0  0  0  0  0  0  0  0  0  0
    6.2700   -9.8482    0.0000 C   0  0  0  0  0  0  0  0  0  0  0  0
    5.5555   -9.4357    0.0000 C   0  0  0  0  0  0  0  0  0  0  0  0
    6.2700  -10.6732    0.0000 C   0  0  0  0  0  0  0  0  0  0  0  0
    5.5555  -10.2607    0.0000 O   0  0  0  0  0  0  0  0  0  0  0  0
  1  2  1  0  0  0  0
  2  3  1  0  0  0  0
  3  4  2  0  0  0  0
  4  5  1  0  0  0  0
  5  6  1  0  0  0  0
  6  7  1  0  0  0  0
  7  8  1  0  0  0  0
  8  9  1  0  0  0  0
  9 10  1  0  0  0  0
  1 10  1  0  0  0  0
  5 10  1  0  0  0  0
  2 11  1  0  0  0  0
 10 12  1  0  0  0  0
  6 13  1  0  0  0  0
  6 14  1  0  0  0  0
  2 15  1  0  0  0  0
 16 17  1  0  0  0  0
 17 18  1  0  0  0  0
 17 19  1  0  0  0  0
 17 20  1  0  0  0  0
  1 16  1  0  0  0  0
M  END
>  <cdx:groupId>
63

>  <cdx:fragmentId>
5

$$$$
