93141.cdx
  Mrv1902 05222410252D          

 18 19  0  0  0  0            999 V2000
    5.0488   -8.0993    0.0000 C   0  0  0  0  0  0  0  0  0  0  0  0
    4.3343   -8.5118    0.0000 C   0  0  0  0  0  0  0  0  0  0  0  0
    5.0488   -7.2743    0.0000 O   0  0  0  0  0  0  0  0  0  0  0  0
    5.7633   -8.5118    0.0000 O   0  0  0  0  0  0  0  0  0  0  0  0
    6.4777   -8.0993    0.0000 C   0  0  0  0  0  0  0  0  0  0  0  0
    7.9067   -8.0993    0.0000 C   0  0  0  0  0  0  0  0  0  0  0  0
    7.1922   -8.5118    0.0000 C   0  0  0  0  0  0  0  0  0  0  0  0
    7.1922   -9.3368    0.0000 C   0  0  0  0  0  0  0  0  0  0  0  0
    7.9067   -9.7493    0.0000 C   0  0  0  0  0  0  0  0  0  0  0  0
    8.6212   -9.3368    0.0000 C   0  0  0  0  0  0  0  0  0  0  0  0
    9.3356   -9.7493    0.0000 C   0  0  0  0  0  0  0  0  0  0  0  0
   10.0501   -9.3368    0.0000 C   0  0  0  0  0  0  0  0  0  0  0  0
   10.0501   -8.5118    0.0000 C   0  0  0  0  0  0  0  0  0  0  0  0
    9.3356   -8.0993    0.0000 C   0  0  0  0  0  0  0  0  0  0  0  0
    8.6212   -8.5118    0.0000 C   0  0  0  0  0  0  0  0  0  0  0  0
    8.9231   -7.3848    0.0000 C   0  0  0  0  0  0  0  0  0  0  0  0
    9.7481   -7.3848    0.0000 C   0  0  0  0  0  0  0  0  0  0  0  0
    6.4777   -9.7493    0.0000 C   0  0  0  0  0  0  0  0  0  0  0  0
  1  2  1  0  0  0  0
  1  3  2  0  0  0  0
  1  4  1  0  0  0  0
  6  7  1  0  0  0  0
  7  8  1  0  0  0  0
  8  9  1  0  0  0  0
  9 10  1  0  0  0  0
 10 11  1  0  0  0  0
 11 12  1  0  0  0  0
 12 13  1  0  0  0  0
 13 14  1  0  0  0  0
 14 15  1  0  0  0  0
  6 15  1  0  0  0  0
 10 15  2  0  0  0  0
 14 16  1  0  0  0  0
 14 17  1  0  0  0  0
  8 18  1  0  0  0  0
  5  7  1  0  0  0  0
  4  5  1  0  0  0  0
M  END
>  <cdx:groupId>
57

>  <cdx:fragmentId>
15

$$$$
