93140.cdx
  Mrv1902 05222410252D          

 12 11  0  0  0  0            999 V2000
   10.4108   -9.4466    0.0000 C   0  0  0  0  0  0  0  0  0  0  0  0
    9.6963   -9.0341    0.0000 C   0  0  0  0  0  0  0  0  0  0  0  0
    8.9818   -9.4466    0.0000 C   0  0  0  0  0  0  0  0  0  0  0  0
    8.2674   -9.0341    0.0000 C   0  0  0  0  0  0  0  0  0  0  0  0
    7.5529   -8.6216    0.0000 C   0  0  0  0  0  0  0  0  0  0  0  0
    6.8384   -8.2091    0.0000 C   0  0  0  0  0  0  0  0  0  0  0  0
    6.1239   -7.7966    0.0000 C   0  0  0  0  0  0  0  0  0  0  0  0
    5.4095   -7.3841    0.0000 C   0  0  0  0  0  0  0  0  0  0  0  0
    4.6950   -7.7966    0.0000 C   0  0  0  0  0  0  0  0  0  0  0  0
    3.9805   -7.3841    0.0000 C   0  0  0  0  0  0  0  0  0  0  0  0
   11.1252   -9.0341    0.0000 O   0  0  0  0  0  0  0  0  0  0  0  0
    3.2661   -7.7966    0.0000 O   0  0  0  0  0  0  0  0  0  0  0  0
  1  2  1  0  0  0  0
  2  3  2  0  0  0  0
  3  4  1  0  0  0  0
  4  5  3  0  0  0  0
  5  6  1  0  0  0  0
  6  7  3  0  0  0  0
  7  8  1  0  0  0  0
  8  9  1  0  0  0  0
  9 10  1  0  0  0  0
  1 11  1  0  0  0  0
 10 12  1  0  0  0  0
M  END
>  <cdx:groupId>
37

>  <cdx:fragmentId>
5

$$$$
