93142.cdx
  Mrv1902 05222410252D          

 10  9  0  0  0  0            999 V2000
    8.9818   -7.7887    0.0000 C   0  0  0  0  0  0  0  0  0  0  0  0
    8.9818   -8.6137    0.0000 C   0  0  0  0  0  0  0  0  0  0  0  0
    8.2674   -9.0262    0.0000 C   0  0  0  0  0  0  0  0  0  0  0  0
    7.5529   -8.6137    0.0000 C   0  0  0  0  0  0  0  0  0  0  0  0
    6.8384   -9.0262    0.0000 C   0  0  0  0  0  0  0  0  0  0  0  0
    6.1239   -8.6137    0.0000 C   0  0  0  0  0  0  0  0  0  0  0  0
    5.4095   -9.0262    0.0000 C   0  0  0  0  0  0  0  0  0  0  0  0
    4.6950   -8.6137    0.0000 C   0  0  0  0  0  0  0  0  0  0  0  0
    6.1239   -7.7887    0.0000 C   0  0  0  0  0  0  0  0  0  0  0  0
    9.6963   -9.0262    0.0000 C   0  0  0  0  0  0  0  0  0  0  0  0
  1  2  2  0  0  0  0
  2  3  1  0  0  0  0
  3  4  2  0  0  0  0
  4  5  1  0  0  0  0
  5  6  2  0  0  0  0
  6  7  1  0  0  0  0
  7  8  2  0  0  0  0
  6  9  1  0  0  0  0
  2 10  1  0  0  0  0
M  END
>  <cdx:groupId>
31

>  <cdx:fragmentId>
5

$$$$
