93147.cdx
  Mrv1902 05222410232D          

  8  8  0  0  0  0            999 V2000
    7.2523   -8.5712    0.0000 C   0  0  0  0  0  0  0  0  0  0  0  0
    8.0059   -8.2357    0.0000 C   0  0  0  0  0  0  0  0  0  0  0  0
    8.5580   -8.8488    0.0000 C   0  0  0  0  0  0  0  0  0  0  0  0
    8.1455   -9.5632    0.0000 C   0  0  0  0  0  0  0  0  0  0  0  0
    7.3385   -9.3917    0.0000 C   0  0  0  0  0  0  0  0  0  0  0  0
    6.5378   -8.1587    0.0000 C   0  0  0  0  0  0  0  0  0  0  0  0
    6.5378   -7.3337    0.0000 C   0  0  0  0  0  0  0  0  0  0  0  0
    5.8233   -8.5712    0.0000 C   0  0  0  0  0  0  0  0  0  0  0  0
  1  2  2  0  0  0  0
  2  3  1  0  0  0  0
  3  4  1  0  0  0  0
  4  5  1  0  0  0  0
  1  5  1  0  0  0  0
  6  7  1  0  0  0  0
  6  8  1  0  0  0  0
  1  6  1  0  0  0  0
M  END
>  <cdx:groupId>
26

>  <cdx:fragmentId>
5

$$$$
