52931427.cdx
  Mrv1902 05222410202D          

 78 85  0  0  0  0            999 V2000
    2.4524  -12.9469    0.0000 O   0  0  0  0  0  0  0  0  0  0  0  0
    1.7379  -13.3594    0.0000 C   0  0  2  0  0  0  0  0  0  0  0  0
    1.0235  -12.9469    0.0000 C   0  0  1  0  0  0  0  0  0  0  0  0
    1.0235  -12.1219    0.0000 C   0  0  0  0  0  0  0  0  0  0  0  0
    1.7379  -11.7094    0.0000 C   0  0  2  0  0  0  0  0  0  0  0  0
    2.4524  -12.1219    0.0000 C   0  0  0  0  0  0  0  0  0  0  0  0
    0.3090  -13.3594    0.0000 O   0  0  0  0  0  0  0  0  0  0  0  0
    0.3090  -11.7094    0.0000 O   0  0  0  0  0  0  0  0  0  0  0  0
    1.7379  -10.8844    0.0000 O   0  0  0  0  0  0  0  0  0  0  0  0
    3.1669  -11.7094    0.0000 C   0  0  0  0  0  0  0  0  0  0  0  0
    1.7379  -14.1844    0.0000 O   0  0  0  0  0  0  0  0  0  0  0  0
    3.3812  -15.9582    0.0000 O   0  0  0  0  0  0  0  0  0  0  0  0
    2.6667  -15.5457    0.0000 C   0  0  0  0  0  0  0  0  0  0  0  0
    2.6667  -14.7207    0.0000 C   0  0  2  0  0  0  0  0  0  0  0  0
    3.3812  -14.3082    0.0000 C   0  0  1  0  0  0  0  0  0  0  0  0
    4.0957  -14.7207    0.0000 C   0  0  0  0  0  0  0  0  0  0  0  0
    4.0957  -15.5457    0.0000 C   0  0  2  0  0  0  0  0  0  0  0  0
    5.0245  -14.1844    0.0000 O   0  0  0  0  0  0  0  0  0  0  0  0
    4.3100  -12.9469    0.0000 O   0  0  0  0  0  0  0  0  0  0  0  0
    5.0245  -13.3594    0.0000 C   0  0  2  0  0  0  0  0  0  0  0  0
    5.7390  -12.9469    0.0000 C   0  0  2  0  0  0  0  0  0  0  0  0
    5.7390  -12.1219    0.0000 C   0  0  0  0  0  0  0  0  0  0  0  0
    5.0245  -11.7094    0.0000 C   0  0  2  0  0  0  0  0  0  0  0  0
    4.3100  -12.1219    0.0000 C   0  0  0  0  0  0  0  0  0  0  0  0
    3.5955  -11.7094    0.0000 C   0  0  0  0  0  0  0  0  0  0  0  0
    5.0245  -10.8844    0.0000 O   0  0  0  0  0  0  0  0  0  0  0  0
    6.4534  -11.7094    0.0000 O   0  0  0  0  0  0  0  0  0  0  0  0
    6.4534  -13.3594    0.0000 O   0  0  0  0  0  0  0  0  0  0  0  0
    1.9523  -15.9582    0.0000 C   0  0  0  0  0  0  0  0  0  0  0  0
    1.2378  -15.5457    0.0000 O   0  0  0  0  0  0  0  0  0  0  0  0
    3.3812  -13.4832    0.0000 O   0  0  0  0  0  0  0  0  0  0  0  0
    4.8101  -15.9582    0.0000 O   0  0  0  0  0  0  0  0  0  0  0  0
    6.2391  -14.3082    0.0000 C   0  0  0  0  0  0  0  0  0  0  0  0
    5.5246  -14.7207    0.0000 C   0  0  0  0  0  0  0  0  0  0  0  0
    5.5246  -15.5457    0.0000 C   0  0  1  0  0  0  0  0  0  0  0  0
    6.2391  -15.9582    0.0000 C   0  0  0  0  0  0  0  0  0  0  0  0
    6.9536  -15.5457    0.0000 C   0  0  0  0  0  0  0  0  0  0  0  0
    7.6680  -15.9582    0.0000 C   0  0  0  0  0  0  0  0  0  0  0  0
    8.3825  -15.5457    0.0000 C   0  0  0  0  0  0  0  0  0  0  0  0
    8.3825  -14.7207    0.0000 C   0  0  1  0  0  0  0  0  0  0  0  0
    9.0970  -14.3082    0.0000 C   0  0  2  0  0  0  0  0  0  0  0  0
    9.8816  -14.5631    0.0000 C   0  0  0  0  0  0  0  0  0  0  0  0
   10.3665  -13.8957    0.0000 C   0  0  1  0  0  0  0  0  0  0  0  0
    9.8816  -13.2282    0.0000 C   0  0  1  0  0  0  0  0  0  0  0  0
    9.0970  -13.4832    0.0000 C   0  0  1  0  0  0  0  0  0  0  0  0
    8.3825  -13.0707    0.0000 C   0  0  0  0  0  0  0  0  0  0  0  0
    7.6680  -13.4832    0.0000 C   0  0  0  0  0  0  0  0  0  0  0  0
    7.6680  -14.3082    0.0000 C   0  0  2  0  0  0  0  0  0  0  0  0
    6.9536  -14.7207    0.0000 C   0  0  1  0  0  0  0  0  0  0  0  0
    9.1832  -12.6627    0.0000 C   0  0  0  0  0  0  0  0  0  0  0  0
    6.9536  -13.8957    0.0000 C   0  0  0  0  0  0  0  0  0  0  0  0
   11.1915  -13.8957    0.0000 O   0  0  0  0  0  0  0  0  0  0  0  0
   11.1915  -15.3246    0.0000 C   0  0  0  0  0  0  0  0  0  0  0  0
   11.6040  -14.6101    0.0000 C   0  0  0  0  0  0  0  0  0  0  0  0
   12.4290  -14.6101    0.0000 C   0  0  2  0  0  0  0  0  0  0  0  0
   12.8415  -15.3246    0.0000 C   0  0  0  0  0  0  0  0  0  0  0  0
   13.6665  -15.3246    0.0000 C   0  0  2  0  0  0  0  0  0  0  0  0
   14.0790  -16.0391    0.0000 C   0  0  0  0  0  0  0  0  0  0  0  0
   14.9040  -16.0391    0.0000 O   0  0  0  0  0  0  0  0  0  0  0  0
   16.1415  -16.7535    0.0000 O   0  0  0  0  0  0  0  0  0  0  0  0
   15.3165  -16.7535    0.0000 C   0  0  2  0  0  0  0  0  0  0  0  0
   14.9040  -17.4680    0.0000 C   0  0  0  0  0  0  0  0  0  0  0  0
   15.3165  -18.1825    0.0000 C   0  0  2  0  0  0  0  0  0  0  0  0
   16.1415  -18.1825    0.0000 C   0  0  1  0  0  0  0  0  0  0  0  0
   16.5540  -17.4680    0.0000 C   0  0  0  0  0  0  0  0  0  0  0  0
   17.3790  -17.4680    0.0000 C   0  0  0  0  0  0  0  0  0  0  0  0
   17.7915  -16.7535    0.0000 O   0  0  0  0  0  0  0  0  0  0  0  0
   16.5540  -18.8970    0.0000 O   0  0  0  0  0  0  0  0  0  0  0  0
   14.9040  -18.8970    0.0000 O   0  0  0  0  0  0  0  0  0  0  0  0
   14.0790  -17.4680    0.0000 O   0  0  0  0  0  0  0  0  0  0  0  0
   14.0790  -14.6101    0.0000 C   0  0  0  0  0  0  0  0  0  0  0  0
   12.8415  -13.8957    0.0000 O   0  0  0  0  0  0  0  0  0  0  0  0
   13.6665  -13.8957    0.0000 C   0  0  0  0  0  0  0  0  0  0  0  0
   10.1365  -12.4436    0.0000 C   0  0  0  0  0  0  0  0  0  0  0  0
   10.9435  -12.2721    0.0000 C   0  0  0  0  0  0  0  0  0  0  0  0
    8.3825  -13.8957    0.0000 H   0  0  0  0  0  0  0  0  0  0  0  0
    7.6680  -15.1332    0.0000 H   0  0  0  0  0  0  0  0  0  0  0  0
    9.0970  -15.1332    0.0000 H   0  0  0  0  0  0  0  0  0  0  0  0
  1  2  1  0  0  0  0
  2  3  1  0  0  0  0
  3  4  1  0  0  0  0
  4  5  1  0  0  0  0
  5  6  1  0  0  0  0
  1  6  1  0  0  0  0
  3  7  1  6  0  0  0
  4  8  1  0  0  0  0
  5  9  1  1  0  0  0
  6 10  1  0  0  0  0
 12 13  1  0  0  0  0
 13 14  1  0  0  0  0
 14 15  1  0  0  0  0
 15 16  1  0  0  0  0
 16 17  1  0  0  0  0
 12 17  1  0  0  0  0
 19 20  1  0  0  0  0
 20 21  1  0  0  0  0
 21 22  1  0  0  0  0
 22 23  1  0  0  0  0
 23 24  1  0  0  0  0
 19 24  1  0  0  0  0
 24 25  1  0  0  0  0
 23 26  1  6  0  0  0
 22 27  1  0  0  0  0
 21 28  1  6  0  0  0
 20 18  1  6  0  0  0
 16 18  1  0  0  0  0
 29 30  1  0  0  0  0
 13 29  1  0  0  0  0
 15 31  1  6  0  0  0
 33 34  1  0  0  0  0
 34 35  1  0  0  0  0
 35 36  1  0  0  0  0
 36 37  1  0  0  0  0
 37 38  2  0  0  0  0
 38 39  1  0  0  0  0
 39 40  1  0  0  0  0
 40 41  1  0  0  0  0
 41 42  1  0  0  0  0
 42 43  1  0  0  0  0
 43 44  1  0  0  0  0
 44 45  1  0  0  0  0
 41 45  1  0  0  0  0
 45 46  1  0  0  0  0
 46 47  1  0  0  0  0
 47 48  1  0  0  0  0
 40 48  1  0  0  0  0
 48 49  1  0  0  0  0
 37 49  1  0  0  0  0
 33 49  1  0  0  0  0
 45 50  1  1  0  0  0
 49 51  1  1  0  0  0
 53 54  2  0  0  0  0
 54 55  1  0  0  0  0
 55 56  1  0  0  0  0
 56 57  1  0  0  0  0
 57 58  1  0  0  0  0
 60 61  1  0  0  0  0
 61 62  1  0  0  0  0
 62 63  1  0  0  0  0
 63 64  1  0  0  0  0
 64 65  1  0  0  0  0
 60 65  1  0  0  0  0
 66 67  1  0  0  0  0
 65 66  1  0  0  0  0
 64 68  1  1  0  0  0
 63 69  1  6  0  0  0
 62 70  1  0  0  0  0
 61 59  1  6  0  0  0
 58 59  1  0  0  0  0
 57 71  1  1  0  0  0
 72 73  1  0  0  0  0
 55 72  1  1  0  0  0
 52 54  1  0  0  0  0
 43 52  1  1  0  0  0
 74 75  1  0  0  0  0
 44 74  1  1  0  0  0
 35 32  1  1  0  0  0
 17 32  1  6  0  0  0
 14 11  1  1  0  0  0
  2 11  1  1  0  0  0
 40 76  1  1  0  0  0
 48 77  1  6  0  0  0
 41 78  1  6  0  0  0
M  END
>  <cdx:groupId>
185709

>  <cdx:fragmentId>
185589

$$$$
