93151.cdx
  Mrv1902 05222410242D          

 45 48  0  0  0  0            999 V2000
    8.6246   -7.0210    0.0000 O   0  0  0  0  0  0  0  0  0  0  0  0
    7.9101   -7.4335    0.0000 C   0  0  1  0  0  0  0  0  0  0  0  0
    7.9101   -8.2585    0.0000 C   0  0  2  0  0  0  0  0  0  0  0  0
    8.6246   -8.6710    0.0000 O   0  0  0  0  0  0  0  0  0  0  0  0
    7.1956   -8.6710    0.0000 C   0  0  1  0  0  0  0  0  0  0  0  0
    7.1956   -9.4960    0.0000 O   0  0  0  0  0  0  0  0  0  0  0  0
    6.4812   -8.2585    0.0000 C   0  0  2  0  0  0  0  0  0  0  0  0
    5.7667   -8.6710    0.0000 O   0  0  0  0  0  0  0  0  0  0  0  0
    6.4812   -7.4335    0.0000 C   0  0  2  0  0  0  0  0  0  0  0  0
    7.1956   -7.0210    0.0000 O   0  0  0  0  0  0  0  0  0  0  0  0
    5.7667   -7.0210    0.0000 C   0  0  0  0  0  0  0  0  0  0  0  0
    5.7667   -6.1960    0.0000 O   0  0  0  0  0  0  0  0  0  0  0  0
    5.0522   -5.7835    0.0000 C   0  0  0  0  0  0  0  0  0  0  0  0
    4.3378   -6.1960    0.0000 C   0  0  0  0  0  0  0  0  0  0  0  0
    3.6233   -5.7835    0.0000 C   0  0  0  0  0  0  0  0  0  0  0  0
    2.9088   -6.1960    0.0000 C   0  0  0  0  0  0  0  0  0  0  0  0
    2.1944   -5.7835    0.0000 O   0  0  0  0  0  0  0  0  0  0  0  0
    2.9088   -7.0210    0.0000 C   0  0  0  0  0  0  0  0  0  0  0  0
    2.1944   -7.4335    0.0000 O   0  0  0  0  0  0  0  0  0  0  0  0
    3.6233   -7.4335    0.0000 C   0  0  0  0  0  0  0  0  0  0  0  0
    3.6233   -8.2585    0.0000 O   0  0  0  0  0  0  0  0  0  0  0  0
    4.3378   -7.0210    0.0000 C   0  0  0  0  0  0  0  0  0  0  0  0
    5.0522   -4.9585    0.0000 O   0  0  0  0  0  0  0  0  0  0  0  0
    5.7667   -9.4960    0.0000 C   0  0  0  0  0  0  0  0  0  0  0  0
    5.0522   -9.9085    0.0000 C   0  0  0  0  0  0  0  0  0  0  0  0
    5.0522  -10.7335    0.0000 C   0  0  0  0  0  0  0  0  0  0  0  0
    4.3378  -11.1460    0.0000 C   0  0  0  0  0  0  0  0  0  0  0  0
    4.3378  -11.9710    0.0000 O   0  0  0  0  0  0  0  0  0  0  0  0
    3.6233  -10.7335    0.0000 C   0  0  0  0  0  0  0  0  0  0  0  0
    2.9088  -11.1460    0.0000 O   0  0  0  0  0  0  0  0  0  0  0  0
    3.6233   -9.9085    0.0000 C   0  0  0  0  0  0  0  0  0  0  0  0
    2.9088   -9.4960    0.0000 O   0  0  0  0  0  0  0  0  0  0  0  0
    4.3378   -9.4960    0.0000 C   0  0  0  0  0  0  0  0  0  0  0  0
    6.4812   -9.9085    0.0000 O   0  0  0  0  0  0  0  0  0  0  0  0
    9.3391   -7.4335    0.0000 C   0  0  0  0  0  0  0  0  0  0  0  0
   10.0535   -7.0210    0.0000 C   0  0  0  0  0  0  0  0  0  0  0  0
   10.7680   -7.4335    0.0000 C   0  0  0  0  0  0  0  0  0  0  0  0
   11.4825   -7.0210    0.0000 C   0  0  0  0  0  0  0  0  0  0  0  0
   12.1969   -7.4335    0.0000 O   0  0  0  0  0  0  0  0  0  0  0  0
   11.4825   -6.1960    0.0000 C   0  0  0  0  0  0  0  0  0  0  0  0
   12.1969   -5.7835    0.0000 O   0  0  0  0  0  0  0  0  0  0  0  0
   10.7680   -5.7835    0.0000 C   0  0  0  0  0  0  0  0  0  0  0  0
   10.7680   -4.9585    0.0000 O   0  0  0  0  0  0  0  0  0  0  0  0
   10.0535   -6.1960    0.0000 C   0  0  0  0  0  0  0  0  0  0  0  0
    9.3391   -8.2585    0.0000 O   0  0  0  0  0  0  0  0  0  0  0  0
  2  1  1  1  0  0  0
  2  3  1  0  0  0  0
  3  4  1  6  0  0  0
  3  5  1  0  0  0  0
  5  6  1  1  0  0  0
  5  7  1  0  0  0  0
  7  8  1  6  0  0  0
  7  9  1  0  0  0  0
  9 10  1  0  0  0  0
  9 11  1  1  0  0  0
 11 12  1  0  0  0  0
  2 10  1  0  0  0  0
 13 14  1  0  0  0  0
 14 15  1  0  0  0  0
 15 16  2  0  0  0  0
 16 17  1  0  0  0  0
 16 18  1  0  0  0  0
 18 19  1  0  0  0  0
 18 20  2  0  0  0  0
 20 21  1  0  0  0  0
 20 22  1  0  0  0  0
 14 22  2  0  0  0  0
 13 23  2  0  0  0  0
 12 13  1  0  0  0  0
 24 25  1  0  0  0  0
 25 26  1  0  0  0  0
 26 27  2  0  0  0  0
 27 28  1  0  0  0  0
 27 29  1  0  0  0  0
 29 30  1  0  0  0  0
 29 31  2  0  0  0  0
 31 32  1  0  0  0  0
 31 33  1  0  0  0  0
 25 33  2  0  0  0  0
 24 34  2  0  0  0  0
  8 24  1  0  0  0  0
 35 36  1  0  0  0  0
 36 37  1  0  0  0  0
 37 38  2  0  0  0  0
 38 39  1  0  0  0  0
 38 40  1  0  0  0  0
 40 41  1  0  0  0  0
 40 42  2  0  0  0  0
 42 43  1  0  0  0  0
 42 44  1  0  0  0  0
 36 44  2  0  0  0  0
 35 45  2  0  0  0  0
  1 35  1  0  0  0  0
M  END
>  <cdx:groupId>
140

>  <cdx:fragmentId>
3

$$$$
