93152.cdx
  Mrv1902 05222410232D          

 22 21  0  0  0  0            999 V2000
    1.3468   -7.7360    0.0000 O   0  0  0  0  0  0  0  0  0  0  0  0
    2.0610   -8.9731    0.0000 O   0  0  0  0  0  0  0  0  0  0  0  0
    9.9177   -7.7360    0.0000 C   0  0  0  0  0  0  0  0  0  0  0  0
    9.2035   -8.1483    0.0000 C   0  0  0  0  0  0  0  0  0  0  0  0
    8.4892   -7.7360    0.0000 C   0  0  0  0  0  0  0  0  0  0  0  0
    7.7750   -8.1483    0.0000 C   0  0  0  0  0  0  0  0  0  0  0  0
    7.0608   -7.7360    0.0000 C   0  0  0  0  0  0  0  0  0  0  0  0
    6.3465   -8.1483    0.0000 C   0  0  0  0  0  0  0  0  0  0  0  0
    5.6323   -7.7360    0.0000 C   0  0  0  0  0  0  0  0  0  0  0  0
    4.9180   -8.1483    0.0000 C   0  0  0  0  0  0  0  0  0  0  0  0
    4.2038   -7.7360    0.0000 C   0  0  0  0  0  0  0  0  0  0  0  0
    3.4895   -8.1483    0.0000 C   0  0  0  0  0  0  0  0  0  0  0  0
    2.7753   -7.7360    0.0000 C   0  0  0  0  0  0  0  0  0  0  0  0
    2.0610   -8.1483    0.0000 C   0  0  0  0  0  0  0  0  0  0  0  0
   10.6322   -8.1485    0.0000 C   0  0  0  0  0  0  0  0  0  0  0  0
   11.3467   -7.7360    0.0000 C   0  0  0  0  0  0  0  0  0  0  0  0
   12.0612   -8.1485    0.0000 C   0  0  0  0  0  0  0  0  0  0  0  0
   12.7756   -7.7360    0.0000 C   0  0  0  0  0  0  0  0  0  0  0  0
   13.4901   -8.1485    0.0000 C   0  0  0  0  0  0  0  0  0  0  0  0
   14.2046   -7.7360    0.0000 C   0  0  0  0  0  0  0  0  0  0  0  0
   14.9190   -8.1485    0.0000 C   0  0  0  0  0  0  0  0  0  0  0  0
   15.6335   -7.7360    0.0000 C   0  0  0  0  0  0  0  0  0  0  0  0
 14  1  1  0  0  0  0
 14  2  2  0  0  0  0
  4  3  2  0  0  0  0
  5  4  1  0  0  0  0
  6  5  1  0  0  0  0
  7  6  1  0  0  0  0
  8  7  1  0  0  0  0
  9  8  1  0  0  0  0
 10  9  1  0  0  0  0
 11 10  1  0  0  0  0
 12 11  1  0  0  0  0
 13 12  1  0  0  0  0
 14 13  1  0  0  0  0
  3 15  1  0  0  0  0
 15 16  1  0  0  0  0
 16 17  2  0  0  0  0
 17 18  1  0  0  0  0
 18 19  1  0  0  0  0
 19 20  1  0  0  0  0
 20 21  1  0  0  0  0
 21 22  1  0  0  0  0
M  END
>  <cdx:fragmentId>
5

$$$$
