93153.cdx
  Mrv1902 05222410232D          

 28 31  0  0  0  0            999 V2000
    4.6201  -10.1161    0.0000 C   0  0  0  0  0  0  0  0  0  0  0  0
    4.6201   -9.2911    0.0000 C   0  0  0  0  0  0  0  0  0  0  0  0
    5.3346   -8.8786    0.0000 C   0  0  0  0  0  0  0  0  0  0  0  0
    5.3346  -10.5286    0.0000 C   0  0  0  0  0  0  0  0  0  0  0  0
    6.0491  -10.1161    0.0000 C   0  0  0  0  0  0  0  0  0  0  0  0
    6.7636  -10.5286    0.0000 C   0  0  0  0  0  0  0  0  0  0  0  0
    7.4780  -10.1161    0.0000 C   0  0  0  0  0  0  0  0  0  0  0  0
    7.4780   -9.2911    0.0000 C   0  0  1  0  0  0  0  0  0  0  0  0
    8.1925   -8.8786    0.0000 C   0  0  2  0  0  0  0  0  0  0  0  0
    8.9771   -9.1335    0.0000 C   0  0  0  0  0  0  0  0  0  0  0  0
    9.4620   -8.4661    0.0000 C   0  0  2  0  0  0  0  0  0  0  0  0
    8.9771   -7.7986    0.0000 C   0  0  2  0  0  0  0  0  0  0  0  0
    9.2321   -7.0140    0.0000 C   0  0  0  0  0  0  0  0  0  0  0  0
   10.0390   -6.8425    0.0000 C   0  0  0  0  0  0  0  0  0  0  0  0
    8.1925   -8.0536    0.0000 C   0  0  2  0  0  0  0  0  0  0  0  0
    8.1925   -7.2286    0.0000 C   0  0  0  0  0  0  0  0  0  0  0  0
    7.4780   -7.6411    0.0000 C   0  0  0  0  0  0  0  0  0  0  0  0
    6.7636   -8.0536    0.0000 C   0  0  2  0  0  0  0  0  0  0  0  0
    6.7636   -8.8786    0.0000 C   0  0  2  0  0  0  0  0  0  0  0  0
    6.0491   -9.2911    0.0000 C   0  0  1  0  0  0  0  0  0  0  0  0
    6.0491   -8.4661    0.0000 C   0  0  0  0  0  0  0  0  0  0  0  0
    3.9057  -10.5286    0.0000 O   0  0  0  0  0  0  0  0  0  0  0  0
    8.6800   -6.4009    0.0000 O   0  0  0  0  0  0  0  0  0  0  0  0
   10.2870   -8.4661    0.0000 O   0  0  0  0  0  0  0  0  0  0  0  0
    6.0491   -7.6411    0.0000 O   0  0  0  0  0  0  0  0  0  0  0  0
    6.7636   -9.7036    0.0000 H   0  0  0  0  0  0  0  0  0  0  0  0
    7.4780   -8.4661    0.0000 H   0  0  0  0  0  0  0  0  0  0  0  0
    8.1925   -9.7036    0.0000 H   0  0  0  0  0  0  0  0  0  0  0  0
  1  2  1  0  0  0  0
  2  3  1  0  0  0  0
  1  4  1  0  0  0  0
  4  5  2  0  0  0  0
  5  6  1  0  0  0  0
  6  7  1  0  0  0  0
  7  8  1  0  0  0  0
  8  9  1  0  0  0  0
  9 10  1  0  0  0  0
 10 11  1  0  0  0  0
 11 12  1  0  0  0  0
 12 13  1  1  0  0  0
 13 14  1  0  0  0  0
 12 15  1  0  0  0  0
  9 15  1  0  0  0  0
 15 16  1  1  0  0  0
 15 17  1  0  0  0  0
 17 18  1  0  0  0  0
 18 19  1  0  0  0  0
  8 19  1  0  0  0  0
 19 20  1  0  0  0  0
  3 20  1  0  0  0  0
  5 20  1  0  0  0  0
 20 21  1  1  0  0  0
  1 22  2  0  0  0  0
 13 23  2  0  0  0  0
 11 24  1  6  0  0  0
 18 25  1  6  0  0  0
 19 26  1  6  0  0  0
  8 27  1  1  0  0  0
  9 28  1  6  0  0  0
M  END
>  <cdx:groupId>
89

>  <cdx:fragmentId>
5

$$$$
