93158.cdx
  Mrv1902 05222410212D          

 29 30  0  0  0  0            999 V2000
    5.6172   -7.8435    0.0000 C   0  0  0  0  0  0  0  0  0  0  0  0
    6.3317   -8.2560    0.0000 C   0  0  0  0  0  0  0  0  0  0  0  0
    6.3317   -9.0810    0.0000 C   0  0  0  0  0  0  0  0  0  0  0  0
    5.6172   -7.0185    0.0000 O   0  0  0  0  0  0  0  0  0  0  0  0
    5.6172   -9.4935    0.0000 O   0  0  0  0  0  0  0  0  0  0  0  0
    7.0462   -7.8435    0.0000 O   0  0  0  0  0  0  0  0  0  0  0  0
    7.7606   -8.2560    0.0000 C   0  0  0  0  0  0  0  0  0  0  0  0
    8.4751   -7.8435    0.0000 C   0  0  0  0  0  0  0  0  0  0  0  0
    9.1896   -8.2560    0.0000 C   0  0  0  0  0  0  0  0  0  0  0  0
    9.1896   -9.0810    0.0000 C   0  0  0  0  0  0  0  0  0  0  0  0
    8.4751   -9.4935    0.0000 C   0  0  0  0  0  0  0  0  0  0  0  0
    7.7606   -9.0810    0.0000 C   0  0  0  0  0  0  0  0  0  0  0  0
    7.0462   -9.4935    0.0000 O   0  0  0  0  0  0  0  0  0  0  0  0
    7.0462  -10.3185    0.0000 C   0  0  0  0  0  0  0  0  0  0  0  0
    8.4751   -7.0185    0.0000 O   0  0  0  0  0  0  0  0  0  0  0  0
    9.1896   -6.6060    0.0000 C   0  0  0  0  0  0  0  0  0  0  0  0
    9.9040   -9.4935    0.0000 C   0  0  0  0  0  0  0  0  0  0  0  0
   10.6185   -9.0810    0.0000 C   0  0  0  0  0  0  0  0  0  0  0  0
   11.3330   -9.4935    0.0000 C   0  0  0  0  0  0  0  0  0  0  0  0
   12.0475   -9.0810    0.0000 O   0  0  0  0  0  0  0  0  0  0  0  0
    4.9028   -8.2560    0.0000 C   0  0  0  0  0  0  0  0  0  0  0  0
    4.1883   -7.8435    0.0000 C   0  0  0  0  0  0  0  0  0  0  0  0
    3.4738   -8.2560    0.0000 C   0  0  0  0  0  0  0  0  0  0  0  0
    3.4738   -9.0810    0.0000 C   0  0  0  0  0  0  0  0  0  0  0  0
    4.1883   -9.4935    0.0000 C   0  0  0  0  0  0  0  0  0  0  0  0
    4.9028   -9.0810    0.0000 C   0  0  0  0  0  0  0  0  0  0  0  0
    2.7593   -7.8435    0.0000 O   0  0  0  0  0  0  0  0  0  0  0  0
    2.0449   -8.2560    0.0000 C   0  0  0  0  0  0  0  0  0  0  0  0
    2.7593   -9.4935    0.0000 O   0  0  0  0  0  0  0  0  0  0  0  0
  1  2  1  0  0  0  0
  2  3  1  0  0  0  0
  1  4  1  0  0  0  0
  3  5  1  0  0  0  0
  7  8  1  0  0  0  0
  8  9  2  0  0  0  0
  9 10  1  0  0  0  0
 10 11  2  0  0  0  0
 11 12  1  0  0  0  0
  7 12  2  0  0  0  0
  6  7  1  0  0  0  0
 13 14  1  0  0  0  0
 12 13  1  0  0  0  0
 15 16  1  0  0  0  0
  8 15  1  0  0  0  0
 17 18  2  0  0  0  0
 18 19  1  0  0  0  0
 19 20  1  0  0  0  0
 10 17  1  0  0  0  0
  2  6  1  0  0  0  0
 21 22  1  0  0  0  0
 22 23  2  0  0  0  0
 23 24  1  0  0  0  0
 24 25  2  0  0  0  0
 25 26  1  0  0  0  0
 21 26  2  0  0  0  0
 27 28  1  0  0  0  0
 23 27  1  0  0  0  0
 24 29  1  0  0  0  0
  1 21  1  0  0  0  0
M  END
>  <cdx:fragmentId>
17

$$$$
