93159.cdx
  Mrv1902 05222410212D          

 37 40  0  0  0  0            999 V2000
    3.5552   -9.6813    0.0000 C   0  0  2  0  0  0  0  0  0  0  0  0
    3.5552   -8.8563    0.0000 C   0  0  1  0  0  0  0  0  0  0  0  0
    4.2696   -8.4438    0.0000 C   0  0  0  0  0  0  0  0  0  0  0  0
    4.2696  -10.0938    0.0000 C   0  0  2  0  0  0  0  0  0  0  0  0
    4.6821  -10.8083    0.0000 C   0  0  0  0  0  0  0  0  0  0  0  0
    3.8571  -10.8083    0.0000 C   0  0  0  0  0  0  0  0  0  0  0  0
    4.9841   -9.6813    0.0000 C   0  0  2  0  0  0  0  0  0  0  0  0
    4.9841  -10.5063    0.0000 H   0  0  0  0  0  0  0  0  0  0  0  0
    5.6986  -10.0938    0.0000 C   0  0  0  0  0  0  0  0  0  0  0  0
    6.4130   -9.6813    0.0000 C   0  0  0  0  0  0  0  0  0  0  0  0
    6.4130   -8.8563    0.0000 C   0  0  1  0  0  0  0  0  0  0  0  0
    6.4130   -8.0313    0.0000 C   0  0  0  0  0  0  0  0  0  0  0  0
    7.1275   -8.4438    0.0000 C   0  0  2  0  0  0  0  0  0  0  0  0
    7.1275   -9.2688    0.0000 C   0  0  0  0  0  0  0  0  0  0  0  0
    7.8420   -8.8563    0.0000 C   0  0  0  0  0  0  0  0  0  0  0  0
    8.5565   -8.4438    0.0000 C   0  0  0  0  0  0  0  0  0  0  0  0
    8.5565   -7.6188    0.0000 C   0  0  1  0  0  0  0  0  0  0  0  0
    8.9690   -6.9044    0.0000 C   0  0  0  0  0  0  0  0  0  0  0  0
    9.3815   -7.6188    0.0000 C   0  0  0  0  0  0  0  0  0  0  0  0
    9.7940   -8.3333    0.0000 C   0  0  0  0  0  0  0  0  0  0  0  0
   10.6190   -8.3333    0.0000 C   0  0  1  0  0  0  0  0  0  0  0  0
   11.0315   -7.6188    0.0000 C   0  0  0  0  0  0  0  0  0  0  0  0
   11.0315   -9.0478    0.0000 C   0  0  0  0  0  0  0  0  0  0  0  0
   11.8565   -9.0478    0.0000 C   0  0  0  0  0  0  0  0  0  0  0  0
    7.8420   -7.2063    0.0000 C   0  0  0  0  0  0  0  0  0  0  0  0
    7.1275   -7.6188    0.0000 C   0  0  0  0  0  0  0  0  0  0  0  0
    6.4130   -7.2063    0.0000 C   0  0  0  0  0  0  0  0  0  0  0  0
    5.6986   -7.6188    0.0000 C   0  0  0  0  0  0  0  0  0  0  0  0
    5.6986   -8.4438    0.0000 C   0  0  2  0  0  0  0  0  0  0  0  0
    4.9841   -8.8563    0.0000 C   0  0  1  0  0  0  0  0  0  0  0  0
    4.9841   -8.0313    0.0000 C   0  0  0  0  0  0  0  0  0  0  0  0
    5.6986   -9.2688    0.0000 H   0  0  0  0  0  0  0  0  0  0  0  0
    8.5565   -6.1899    0.0000 O   0  0  0  0  0  0  0  0  0  0  0  0
    9.7940   -6.9044    0.0000 O   0  0  0  0  0  0  0  0  0  0  0  0
   10.6190   -9.7623    0.0000 O   0  0  0  0  0  0  0  0  0  0  0  0
    2.8407  -10.0938    0.0000 O   0  0  0  0  0  0  0  0  0  0  0  0
    2.8407   -8.4438    0.0000 O   0  0  0  0  0  0  0  0  0  0  0  0
  1  2  1  0  0  0  0
  2  3  1  0  0  0  0
  1  4  1  0  0  0  0
  4  5  1  6  0  0  0
  4  6  1  1  0  0  0
  4  7  1  0  0  0  0
  7  8  1  6  0  0  0
  7  9  1  0  0  0  0
  9 10  1  0  0  0  0
 10 11  1  0  0  0  0
 11 12  1  1  0  0  0
 11 13  1  0  0  0  0
 13 14  1  6  0  0  0
 13 15  1  0  0  0  0
 15 16  1  0  0  0  0
 16 17  1  0  0  0  0
 17 18  1  1  0  0  0
 17 19  1  6  0  0  0
 19 20  1  0  0  0  0
 20 21  1  0  0  0  0
 21 22  1  1  0  0  0
 21 23  1  0  0  0  0
 23 24  1  6  0  0  0
 17 25  1  0  0  0  0
 25 26  2  0  0  0  0
 13 26  1  0  0  0  0
 26 27  1  0  0  0  0
 27 28  2  0  0  0  0
 28 29  1  0  0  0  0
 11 29  1  0  0  0  0
 29 30  1  0  0  0  0
  3 30  1  0  0  0  0
  7 30  1  0  0  0  0
 30 31  1  1  0  0  0
 29 32  1  6  0  0  0
 18 33  2  0  0  0  0
 18 34  1  0  0  0  0
 23 35  2  0  0  0  0
  1 36  1  6  0  0  0
  2 37  1  6  0  0  0
M  END
>  <cdx:groupId>
116

>  <cdx:fragmentId>
5

$$$$
