93156.cdx
  Mrv1902 05222410252D          

 26 29  0  0  0  0            999 V2000
    5.0852   -8.4920    0.0000 C   0  0  0  0  0  0  0  0  0  0  0  0
    5.0852   -7.6670    0.0000 C   0  0  0  0  0  0  0  0  0  0  0  0
    5.7997   -7.2545    0.0000 C   0  0  0  0  0  0  0  0  0  0  0  0
    5.7997   -8.9045    0.0000 C   0  0  2  0  0  0  0  0  0  0  0  0
    5.3872   -9.6189    0.0000 C   0  0  0  0  0  0  0  0  0  0  0  0
    6.5142   -8.4920    0.0000 C   0  0  1  0  0  0  0  0  0  0  0  0
    6.5142   -9.3170    0.0000 H   0  0  0  0  0  0  0  0  0  0  0  0
    7.2286   -8.9045    0.0000 C   0  0  0  0  0  0  0  0  0  0  0  0
    7.9431   -8.4920    0.0000 C   0  0  0  0  0  0  0  0  0  0  0  0
    7.9431   -7.6670    0.0000 C   0  0  1  0  0  0  0  0  0  0  0  0
    7.2286   -7.2545    0.0000 C   0  0  2  0  0  0  0  0  0  0  0  0
    7.2286   -8.0795    0.0000 H   0  0  0  0  0  0  0  0  0  0  0  0
    6.5142   -7.6670    0.0000 C   0  0  2  0  0  0  0  0  0  0  0  0
    6.5142   -6.8420    0.0000 C   0  0  0  0  0  0  0  0  0  0  0  0
    8.6576   -7.2545    0.0000 C   0  0  0  0  0  0  0  0  0  0  0  0
    8.6576   -6.4295    0.0000 C   0  0  0  0  0  0  0  0  0  0  0  0
    7.9431   -6.0170    0.0000 C   0  0  1  0  0  0  0  0  0  0  0  0
    8.2844   -6.5321    0.0000 C   0  0  0  0  0  0  0  0  0  0  0  0
    8.2844   -7.1508    0.0000 C   0  0  0  0  0  0  0  0  0  0  0  0
    7.2286   -6.4295    0.0000 C   0  0  0  0  0  0  0  0  0  0  0  0
    6.2122   -9.6189    0.0000 C   0  0  0  0  0  0  0  0  0  0  0  0
    5.7997  -10.3334    0.0000 O   0  0  0  0  0  0  0  0  0  0  0  0
    7.0372   -9.6189    0.0000 O   0  0  0  0  0  0  0  0  0  0  0  0
    6.2122  -11.0479    0.0000 C   0  0  0  0  0  0  0  0  0  0  0  0
    9.3721   -6.0170    0.0000 C   0  0  0  0  0  0  0  0  0  0  0  0
   10.0865   -6.4295    0.0000 O   0  0  0  0  0  0  0  0  0  0  0  0
  1  2  1  0  0  0  0
  2  3  1  0  0  0  0
  1  4  1  0  0  0  0
  4  5  1  1  0  0  0
  4  6  1  0  0  0  0
  6  7  1  1  0  0  0
  6  8  1  0  0  0  0
  8  9  1  0  0  0  0
  9 10  1  0  0  0  0
 10 11  1  0  0  0  0
 11 12  1  1  0  0  0
 11 13  1  0  0  0  0
  3 13  1  0  0  0  0
  6 13  1  0  0  0  0
 13 14  1  6  0  0  0
 10 15  1  0  0  0  0
 15 16  1  0  0  0  0
 16 17  1  0  0  0  0
 17 18  1  6  0  0  0
 18 19  1  0  0  0  0
 10 19  1  6  0  0  0
 17 20  1  0  0  0  0
 11 20  1  0  0  0  0
  4 21  1  6  0  0  0
 21 22  1  0  0  0  0
 21 23  2  0  0  0  0
 22 24  1  0  0  0  0
 16 25  1  0  0  0  0
 25 26  1  0  0  0  0
M  END
>  <cdx:groupId>
86

>  <cdx:fragmentId>
5

$$$$
