93167.cdx
  Mrv1902 05222410212D          

 15 16  0  0  0  0            999 V2000
    7.5666   -7.8315    0.0000 C   0  0  0  0  0  0  0  0  0  0  0  0
    6.8522   -7.4190    0.0000 C   0  0  0  0  0  0  0  0  0  0  0  0
    6.1377   -7.8315    0.0000 C   0  0  0  0  0  0  0  0  0  0  0  0
    6.1377   -8.6565    0.0000 C   0  0  2  0  0  0  0  0  0  0  0  0
    5.4232   -9.0690    0.0000 C   0  0  0  0  0  0  0  0  0  0  0  0
    6.8522   -9.0690    0.0000 C   0  0  0  0  0  0  0  0  0  0  0  0
    7.5666   -8.6565    0.0000 C   0  0  0  0  0  0  0  0  0  0  0  0
    8.2811   -9.0690    0.0000 C   0  0  2  0  0  0  0  0  0  0  0  0
    8.2811   -9.8940    0.0000 C   0  0  0  0  0  0  0  0  0  0  0  0
    7.5666  -10.3065    0.0000 C   0  0  0  0  0  0  0  0  0  0  0  0
    8.9956  -10.3065    0.0000 C   0  0  0  0  0  0  0  0  0  0  0  0
    8.9956   -8.6565    0.0000 C   0  0  0  0  0  0  0  0  0  0  0  0
    8.9956   -7.8315    0.0000 C   0  0  0  0  0  0  0  0  0  0  0  0
    8.2811   -7.4190    0.0000 C   0  0  2  0  0  0  0  0  0  0  0  0
    8.2811   -6.5940    0.0000 C   0  0  0  0  0  0  0  0  0  0  0  0
  1  2  2  0  0  0  0
  2  3  1  0  0  0  0
  3  4  1  0  0  0  0
  4  5  1  1  0  0  0
  4  6  1  0  0  0  0
  6  7  2  0  0  0  0
  1  7  1  0  0  0  0
  7  8  1  0  0  0  0
  8  9  1  1  0  0  0
  9 10  1  0  0  0  0
  9 11  1  0  0  0  0
  8 12  1  0  0  0  0
 12 13  1  0  0  0  0
 13 14  1  0  0  0  0
 14 15  1  1  0  0  0
  1 14  1  0  0  0  0
M  END
>  <cdx:groupId>
48

>  <cdx:fragmentId>
5

$$$$
