93164.cdx
  Mrv1902 05222410212D          

 16 17  0  0  0  0            999 V2000
    7.1991   -9.2897    0.0000 C   0  0  0  0  0  0  0  0  0  0  0  0
    7.9136   -8.8772    0.0000 C   0  0  0  0  0  0  0  0  0  0  0  0
    7.9136   -8.0522    0.0000 C   0  0  0  0  0  0  0  0  0  0  0  0
    7.1991   -7.6397    0.0000 C   0  0  0  0  0  0  0  0  0  0  0  0
    6.4846   -8.0522    0.0000 C   0  0  0  0  0  0  0  0  0  0  0  0
    5.7701   -7.6397    0.0000 C   0  0  0  0  0  0  0  0  0  0  0  0
    5.0557   -8.0522    0.0000 C   0  0  0  0  0  0  0  0  0  0  0  0
    5.0557   -8.8772    0.0000 C   0  0  0  0  0  0  0  0  0  0  0  0
    5.7701   -9.2897    0.0000 C   0  0  0  0  0  0  0  0  0  0  0  0
    6.4846   -8.8772    0.0000 C   0  0  0  0  0  0  0  0  0  0  0  0
    7.1991  -10.1147    0.0000 O   0  0  0  0  0  0  0  0  0  0  0  0
    7.1991   -6.8147    0.0000 O   0  0  0  0  0  0  0  0  0  0  0  0
    8.6280   -9.2897    0.0000 O   0  0  0  0  0  0  0  0  0  0  0  0
    9.3425   -8.8772    0.0000 C   0  0  0  0  0  0  0  0  0  0  0  0
    5.7701  -10.1147    0.0000 O   0  0  0  0  0  0  0  0  0  0  0  0
    5.7701   -6.8147    0.0000 O   0  0  0  0  0  0  0  0  0  0  0  0
  1  2  1  0  0  0  0
  2  3  2  0  0  0  0
  3  4  1  0  0  0  0
  4  5  1  0  0  0  0
  5  6  1  0  0  0  0
  6  7  2  0  0  0  0
  7  8  1  0  0  0  0
  8  9  2  0  0  0  0
  9 10  1  0  0  0  0
  1 10  1  0  0  0  0
  5 10  2  0  0  0  0
  1 11  2  0  0  0  0
  4 12  2  0  0  0  0
 13 14  1  0  0  0  0
  2 13  1  0  0  0  0
  9 15  1  0  0  0  0
  6 16  1  0  0  0  0
M  END
>  <cdx:groupId>
51

>  <cdx:fragmentId>
5

$$$$
