93163.cdx
  Mrv1902 05222410222D          

 11 12  0  0  0  0            999 V2000
    7.9538   -7.7129    0.0000 C   0  0  0  0  0  0  0  0  0  0  0  0
    8.7608   -7.5414    0.0000 C   0  0  0  0  0  0  0  0  0  0  0  0
    6.9142   -9.5775    0.0000 C   0  0  0  0  0  0  0  0  0  0  0  0
    7.6988   -9.8324    0.0000 N   0  0  0  0  0  0  0  0  0  0  0  0
    8.1838   -9.1650    0.0000 C   0  0  0  0  0  0  0  0  0  0  0  0
    7.6988   -8.4975    0.0000 C   0  0  0  0  0  0  0  0  0  0  0  0
    6.9142   -8.7525    0.0000 N   0  0  0  0  0  0  0  0  0  0  0  0
    6.1296   -9.8324    0.0000 C   0  0  0  0  0  0  0  0  0  0  0  0
    5.6447   -9.1650    0.0000 C   0  0  0  0  0  0  0  0  0  0  0  0
    6.1296   -8.4975    0.0000 C   0  0  0  0  0  0  0  0  0  0  0  0
    7.4018   -7.0998    0.0000 O   0  0  0  0  0  0  0  0  0  0  0  0
  1  2  1  0  0  0  0
  3  4  2  0  0  0  0
  4  5  1  0  0  0  0
  5  6  2  0  0  0  0
  6  7  1  0  0  0  0
  3  7  1  0  0  0  0
  8  9  1  0  0  0  0
  9 10  1  0  0  0  0
 10  7  1  0  0  0  0
  8  3  1  0  0  0  0
  1  6  1  0  0  0  0
  1 11  2  0  0  0  0
M  END
>  <cdx:groupId>
36

>  <cdx:fragmentId>
9

$$$$
