93168.cdx
  Mrv1902 05222410252D          

 43 46  0  0  0  0            999 V2000
    3.4062  -10.9209    0.0000 C   0  0  0  0  0  0  0  0  0  0  0  0
    3.4062  -10.0959    0.0000 C   0  0  0  0  0  0  0  0  0  0  0  0
    4.1207   -9.6834    0.0000 C   0  0  0  0  0  0  0  0  0  0  0  0
    4.1207  -11.3334    0.0000 C   0  0  0  0  0  0  0  0  0  0  0  0
    4.5332  -12.0478    0.0000 C   0  0  0  0  0  0  0  0  0  0  0  0
    3.7082  -12.0478    0.0000 C   0  0  0  0  0  0  0  0  0  0  0  0
    4.8352  -10.9209    0.0000 C   0  0  2  0  0  0  0  0  0  0  0  0
    4.8352  -11.7459    0.0000 H   0  0  0  0  0  0  0  0  0  0  0  0
    5.5496  -11.3334    0.0000 C   0  0  0  0  0  0  0  0  0  0  0  0
    6.2641  -10.9209    0.0000 C   0  0  0  0  0  0  0  0  0  0  0  0
    6.2641  -10.0959    0.0000 C   0  0  0  0  0  0  0  0  0  0  0  0
    6.9786   -9.6834    0.0000 C   0  0  2  0  0  0  0  0  0  0  0  0
    6.9786  -10.5084    0.0000 C   0  0  0  0  0  0  0  0  0  0  0  0
    7.7632   -9.9383    0.0000 C   0  0  0  0  0  0  0  0  0  0  0  0
    8.2481   -9.2709    0.0000 C   0  0  0  0  0  0  0  0  0  0  0  0
    7.7632   -8.6034    0.0000 C   0  0  2  0  0  0  0  0  0  0  0  0
    8.0181   -7.8188    0.0000 C   0  0  0  0  0  0  0  0  0  0  0  0
    8.8251   -7.6473    0.0000 C   0  0  0  0  0  0  0  0  0  0  0  0
    9.0800   -6.8627    0.0000 C   0  0  0  0  0  0  0  0  0  0  0  0
    9.8870   -6.6911    0.0000 C   0  0  0  0  0  0  0  0  0  0  0  0
   10.1420   -5.9065    0.0000 C   0  0  0  0  0  0  0  0  0  0  0  0
    9.5899   -5.2934    0.0000 C   0  0  0  0  0  0  0  0  0  0  0  0
    7.4661   -7.2057    0.0000 C   0  0  0  0  0  0  0  0  0  0  0  0
    6.9786   -8.8584    0.0000 C   0  0  2  0  0  0  0  0  0  0  0  0
    6.9786   -8.0334    0.0000 C   0  0  0  0  0  0  0  0  0  0  0  0
    6.2641   -8.4459    0.0000 C   0  0  0  0  0  0  0  0  0  0  0  0
    5.5496   -8.8584    0.0000 C   0  0  0  0  0  0  0  0  0  0  0  0
    5.5496   -9.6834    0.0000 C   0  0  0  0  0  0  0  0  0  0  0  0
    4.8352  -10.0959    0.0000 C   0  0  1  0  0  0  0  0  0  0  0  0
    4.8352   -9.2709    0.0000 C   0  0  0  0  0  0  0  0  0  0  0  0
   11.2039   -4.9504    0.0000 O   0  0  0  0  0  0  0  0  0  0  0  0
    8.5280   -6.2496    0.0000 O   0  0  0  0  0  0  0  0  0  0  0  0
    8.0181  -10.7229    0.0000 O   0  0  0  0  0  0  0  0  0  0  0  0
    4.8352   -8.4459    0.0000 O   0  0  0  0  0  0  0  0  0  0  0  0
    6.9786  -11.3334    0.0000 O   0  0  0  0  0  0  0  0  0  0  0  0
    2.6917  -11.3334    0.0000 O   0  0  0  0  0  0  0  0  0  0  0  0
    6.2641   -7.6209    0.0000 O   0  0  0  0  0  0  0  0  0  0  0  0
    5.5496   -7.2084    0.0000 C   0  0  0  0  0  0  0  0  0  0  0  0
    5.5496   -6.3834    0.0000 O   0  0  0  0  0  0  0  0  0  0  0  0
    4.8352   -7.6209    0.0000 C   0  0  0  0  0  0  0  0  0  0  0  0
   11.5010   -6.3481    0.0000 O   0  0  0  0  0  0  0  0  0  0  0  0
   10.9489   -5.7350    0.0000 C   0  0  0  0  0  0  0  0  0  0  0  0
    8.5601   -8.3899    0.0000 H   0  0  0  0  0  0  0  0  0  0  0  0
 42 31  2  0  0  0  0
 42 41  1  0  0  0  0
  1  2  1  0  0  0  0
  2  3  1  0  0  0  0
  1  4  1  0  0  0  0
  4  5  1  0  0  0  0
  4  6  1  0  0  0  0
  4  7  1  0  0  0  0
  7  8  1  6  0  0  0
  7  9  1  0  0  0  0
  9 10  1  0  0  0  0
 10 11  1  0  0  0  0
 11 12  1  0  0  0  0
 12 13  1  6  0  0  0
 12 14  1  0  0  0  0
 14 15  1  0  0  0  0
 15 16  1  0  0  0  0
 16 17  1  0  0  0  0
 17 18  2  0  0  0  0
 18 19  1  0  0  0  0
 19 20  1  0  0  0  0
 20 21  1  0  0  0  0
 21 42  1  0  0  0  0
 21 22  1  0  0  0  0
 17 23  1  6  0  0  0
 16 24  1  0  0  0  0
 12 24  1  0  0  0  0
 24 25  1  1  0  0  0
 24 26  1  0  0  0  0
 26 27  1  0  0  0  0
 27 28  1  0  0  0  0
 11 28  2  0  0  0  0
 28 29  1  0  0  0  0
  3 29  1  0  0  0  0
  7 29  1  0  0  0  0
 29 30  1  1  0  0  0
 19 32  2  0  0  0  0
 14 33  2  0  0  0  0
 27 34  2  0  0  0  0
 10 35  2  0  0  0  0
  1 36  2  0  0  0  0
 38 39  2  0  0  0  0
 38 40  1  0  0  0  0
 37 38  1  0  0  0  0
 26 37  1  0  0  0  0
 16 43  1  6  0  0  0
M  END
>  <cdx:fragmentId>
5

$$$$
