93160.cdx
  Mrv1902 05222410222D          

 27 31  0  0  0  0            999 V2000
    5.6203   -8.5038    0.0000 N   0  0  0  0  0  0  0  0  0  0  0  0
    6.1052   -7.8364    0.0000 C   0  0  0  0  0  0  0  0  0  0  0  0
    6.9257   -7.7501    0.0000 C   0  0  0  0  0  0  0  0  0  0  0  0
    7.2612   -6.9965    0.0000 N   0  0  0  0  0  0  0  0  0  0  0  0
    6.7763   -6.3290    0.0000 C   0  0  0  0  0  0  0  0  0  0  0  0
    5.9558   -6.4153    0.0000 C   0  0  0  0  0  0  0  0  0  0  0  0
    5.6203   -7.1689    0.0000 C   0  0  0  0  0  0  0  0  0  0  0  0
    4.8356   -7.4239    0.0000 C   0  0  0  0  0  0  0  0  0  0  0  0
    4.1212   -7.0114    0.0000 C   0  0  0  0  0  0  0  0  0  0  0  0
    3.4067   -7.4239    0.0000 C   0  0  0  0  0  0  0  0  0  0  0  0
    3.4067   -8.2489    0.0000 C   0  0  0  0  0  0  0  0  0  0  0  0
    4.1212   -8.6614    0.0000 C   0  0  0  0  0  0  0  0  0  0  0  0
    4.8356   -8.2489    0.0000 C   0  0  0  0  0  0  0  0  0  0  0  0
    8.0817   -6.9102    0.0000 C   0  0  0  0  0  0  0  0  0  0  0  0
    8.5666   -7.5777    0.0000 C   0  0  0  0  0  0  0  0  0  0  0  0
    9.3871   -7.4914    0.0000 C   0  0  0  0  0  0  0  0  0  0  0  0
    9.8720   -8.1589    0.0000 C   0  0  0  0  0  0  0  0  0  0  0  0
    9.5365   -8.9126    0.0000 C   0  0  0  0  0  0  0  0  0  0  0  0
   10.0214   -9.5800    0.0000 O   0  0  0  0  0  0  0  0  0  0  0  0
    8.7160   -8.9988    0.0000 C   0  0  0  0  0  0  0  0  0  0  0  0
    8.3804   -9.7525    0.0000 C   0  0  0  0  0  0  0  0  0  0  0  0
    8.8654  -10.4199    0.0000 O   0  0  0  0  0  0  0  0  0  0  0  0
    7.5600   -9.8387    0.0000 O   0  0  0  0  0  0  0  0  0  0  0  0
    7.2244  -10.5924    0.0000 C   0  0  0  0  0  0  0  0  0  0  0  0
    8.2311   -8.3314    0.0000 C   0  0  0  0  0  0  0  0  0  0  0  0
    7.4106   -8.4176    0.0000 C   0  0  0  0  0  0  0  0  0  0  0  0
   10.6925   -8.0726    0.0000 O   0  0  0  0  0  0  0  0  0  0  0  0
  1  2  1  0  0  0  0
  2  3  1  0  0  0  0
  3  4  1  0  0  0  0
  4  5  1  0  0  0  0
  5  6  1  0  0  0  0
  6  7  1  0  0  0  0
  2  7  2  0  0  0  0
  7  8  1  0  0  0  0
  8  9  1  0  0  0  0
  9 10  2  0  0  0  0
 10 11  1  0  0  0  0
 11 12  2  0  0  0  0
 12 13  1  0  0  0  0
  8 13  2  0  0  0  0
  1 13  1  0  0  0  0
  4 14  1  0  0  0  0
 14 15  1  0  0  0  0
 15 16  1  0  0  0  0
 16 17  1  0  0  0  0
 17 18  1  0  0  0  0
 18 19  1  0  0  0  0
 18 20  1  0  0  0  0
 20 21  1  0  0  0  0
 21 22  2  0  0  0  0
 21 23  1  0  0  0  0
 23 24  1  0  0  0  0
 20 25  1  0  0  0  0
 15 25  1  0  0  0  0
 25 26  1  0  0  0  0
  3 26  1  0  0  0  0
 17 27  1  0  0  0  0
M  END
>  <cdx:groupId>
96

>  <cdx:fragmentId>
5

$$$$
