93161.cdx
  Mrv1902 05222410222D          

 21 22  0  0  0  0            999 V2000
    6.8384   -8.0437    0.0000 C   0  0  0  0  0  0  0  0  0  0  0  0
    6.1239   -7.6313    0.0000 C   0  0  0  0  0  0  0  0  0  0  0  0
    6.1239   -6.8062    0.0000 C   0  0  0  0  0  0  0  0  0  0  0  0
    6.8384   -6.3937    0.0000 C   0  0  0  0  0  0  0  0  0  0  0  0
    7.5529   -6.8062    0.0000 C   0  0  0  0  0  0  0  0  0  0  0  0
    8.2674   -6.3937    0.0000 C   0  0  0  0  0  0  0  0  0  0  0  0
    8.9818   -6.8062    0.0000 C   0  0  0  0  0  0  0  0  0  0  0  0
    8.9818   -7.6313    0.0000 C   0  0  0  0  0  0  0  0  0  0  0  0
    8.2674   -8.0437    0.0000 C   0  0  0  0  0  0  0  0  0  0  0  0
    7.5529   -7.6313    0.0000 C   0  0  0  0  0  0  0  0  0  0  0  0
    5.7114   -8.3457    0.0000 O   0  0  0  0  0  0  0  0  0  0  0  0
    9.6963   -6.3937    0.0000 O   0  0  0  0  0  0  0  0  0  0  0  0
    8.2674   -5.5687    0.0000 C   0  0  0  0  0  0  0  0  0  0  0  0
    7.5529   -8.4563    0.0000 C   0  0  0  0  0  0  0  0  0  0  0  0
    5.2989   -7.6312    0.0000 C   0  0  0  0  0  0  0  0  0  0  0  0
    6.8384   -8.8688    0.0000 C   0  0  0  0  0  0  0  0  0  0  0  0
    6.1239   -9.2813    0.0000 C   0  0  0  0  0  0  0  0  0  0  0  0
    6.1239  -10.1063    0.0000 C   0  0  0  0  0  0  0  0  0  0  0  0
    5.4095  -10.5188    0.0000 C   0  0  0  0  0  0  0  0  0  0  0  0
    5.4095  -11.3438    0.0000 C   0  0  0  0  0  0  0  0  0  0  0  0
    4.6950  -10.1063    0.0000 O   0  0  0  0  0  0  0  0  0  0  0  0
  1  2  1  0  0  0  0
  2  3  1  0  0  0  0
  3  4  1  0  0  0  0
  4  5  1  0  0  0  0
  5  6  1  0  0  0  0
  6  7  1  0  0  0  0
  7  8  1  0  0  0  0
  8  9  1  0  0  0  0
  9 10  1  0  0  0  0
  1 10  1  0  0  0  0
  5 10  1  0  0  0  0
  2 11  1  0  0  0  0
  7 12  1  0  0  0  0
  6 13  2  0  0  0  0
 10 14  1  0  0  0  0
  2 15  1  0  0  0  0
 16 17  1  0  0  0  0
 17 18  1  0  0  0  0
 18 19  1  0  0  0  0
 19 20  1  0  0  0  0
 19 21  1  0  0  0  0
  1 16  1  0  0  0  0
M  END
>  <cdx:groupId>
66

>  <cdx:fragmentId>
5

$$$$
