93166.cdx
  Mrv1902 05222410202D          

 17 19  0  0  0  0            999 V2000
    8.3705   -8.6304    0.0000 C   0  0  0  0  0  0  0  0  0  0  0  0
    9.0850   -9.0429    0.0000 N   0  0  0  0  0  0  0  0  0  0  0  0
    9.0850   -9.8679    0.0000 C   0  0  0  0  0  0  0  0  0  0  0  0
    8.3705  -10.2804    0.0000 C   0  0  0  0  0  0  0  0  0  0  0  0
    7.6560   -9.8679    0.0000 C   0  0  0  0  0  0  0  0  0  0  0  0
    6.9415  -10.2804    0.0000 C   0  0  0  0  0  0  0  0  0  0  0  0
    6.2271   -9.8679    0.0000 C   0  0  0  0  0  0  0  0  0  0  0  0
    6.2271   -9.0429    0.0000 C   0  0  0  0  0  0  0  0  0  0  0  0
    6.9415   -8.6304    0.0000 C   0  0  0  0  0  0  0  0  0  0  0  0
    7.6560   -9.0429    0.0000 C   0  0  0  0  0  0  0  0  0  0  0  0
    5.5126   -8.6304    0.0000 O   0  0  0  0  0  0  0  0  0  0  0  0
    5.5126  -10.2804    0.0000 O   0  0  0  0  0  0  0  0  0  0  0  0
    9.0379   -7.3205    0.0000 O   0  0  0  0  0  0  0  0  0  0  0  0
    8.3705   -7.8054    0.0000 C   0  0  0  0  0  0  0  0  0  0  0  0
    7.7030   -7.3205    0.0000 C   0  0  0  0  0  0  0  0  0  0  0  0
    7.9580   -6.5359    0.0000 C   0  0  0  0  0  0  0  0  0  0  0  0
    8.7830   -6.5359    0.0000 C   0  0  0  0  0  0  0  0  0  0  0  0
  1  2  2  0  0  0  0
  2  3  1  0  0  0  0
  3  4  1  0  0  0  0
  4  5  1  0  0  0  0
  5  6  1  0  0  0  0
  6  7  2  0  0  0  0
  7  8  1  0  0  0  0
  8  9  2  0  0  0  0
  9 10  1  0  0  0  0
  1 10  1  0  0  0  0
  5 10  2  0  0  0  0
  8 11  1  0  0  0  0
  7 12  1  0  0  0  0
 13 14  1  0  0  0  0
 14 15  2  0  0  0  0
 15 16  1  0  0  0  0
 16 17  2  0  0  0  0
 13 17  1  0  0  0  0
  1 14  1  0  0  0  0
M  END
>  <cdx:groupId>
55

>  <cdx:fragmentId>
5

$$$$
