93169.cdx
  Mrv1902 05222410252D          

 19 20  0  0  0  0            999 V2000
    6.1099   -7.7275    0.0000 C   0  0  0  0  0  0  0  0  0  0  0  0
    6.1099   -8.5525    0.0000 C   0  0  0  0  0  0  0  0  0  0  0  0
    6.8244   -8.9650    0.0000 C   0  0  0  0  0  0  0  0  0  0  0  0
    7.5389   -8.5525    0.0000 C   0  0  0  0  0  0  0  0  0  0  0  0
    7.5389   -7.7275    0.0000 C   0  0  0  0  0  0  0  0  0  0  0  0
    6.8244   -7.3150    0.0000 C   0  0  0  0  0  0  0  0  0  0  0  0
    5.3955   -8.9650    0.0000 O   0  0  0  0  0  0  0  0  0  0  0  0
    5.3955   -7.3150    0.0000 O   0  0  0  0  0  0  0  0  0  0  0  0
    4.6810   -7.7275    0.0000 C   0  0  0  0  0  0  0  0  0  0  0  0
    8.2533   -7.3150    0.0000 C   0  0  0  0  0  0  0  0  0  0  0  0
    8.9678   -7.7275    0.0000 C   0  0  0  0  0  0  0  0  0  0  0  0
    9.6823   -7.3150    0.0000 C   0  0  0  0  0  0  0  0  0  0  0  0
    6.8244   -6.4900    0.0000 C   0  0  0  0  0  0  0  0  0  0  0  0
    6.2410   -5.9066    0.0000 C   0  0  0  0  0  0  0  0  0  0  0  0
    7.4078   -5.9066    0.0000 C   0  0  0  0  0  0  0  0  0  0  0  0
    6.8244   -9.7900    0.0000 O   0  0  0  0  0  0  0  0  0  0  0  0
    8.2533   -8.9650    0.0000 O   0  0  0  0  0  0  0  0  0  0  0  0
    8.9678   -8.5525    0.0000 C   0  0  0  0  0  0  0  0  0  0  0  0
    7.5389  -10.2025    0.0000 C   0  0  0  0  0  0  0  0  0  0  0  0
  1  2  2  0  0  0  0
  2  3  1  0  0  0  0
  3  4  2  0  0  0  0
  4  5  1  0  0  0  0
  5  6  2  0  0  0  0
  6  1  1  0  0  0  0
  2  7  1  0  0  0  0
  1  8  1  0  0  0  0
  8  9  1  0  0  0  0
  5 10  1  0  0  0  0
 10 11  1  0  0  0  0
 11 12  2  0  0  0  0
  6 13  1  0  0  0  0
 13 14  1  0  0  0  0
 13 15  1  0  0  0  0
 15 14  1  0  0  0  0
  3 16  1  0  0  0  0
  4 17  1  0  0  0  0
 17 18  1  0  0  0  0
 16 19  1  0  0  0  0
M  END
>  <cdx:fragmentId>
5

$$$$
