93162.cdx
  Mrv1902 05222410232D          

 44 47  0  0  0  0            999 V2000
    8.6462   -7.5574    0.0000 C   0  0  1  0  0  0  0  0  0  0  0  0
    8.6440   -8.3824    0.0000 C   0  0  2  0  0  0  0  0  0  0  0  0
    9.3573   -8.7969    0.0000 O   0  0  0  0  0  0  0  0  0  0  0  0
    7.9284   -8.7930    0.0000 C   0  0  1  0  0  0  0  0  0  0  0  0
    7.9262   -9.6180    0.0000 O   0  0  0  0  0  0  0  0  0  0  0  0
    7.2150   -8.3786    0.0000 C   0  0  1  0  0  0  0  0  0  0  0  0
    7.2172   -7.5536    0.0000 C   0  0  2  0  0  0  0  0  0  0  0  0
    7.9328   -7.1430    0.0000 O   0  0  0  0  0  0  0  0  0  0  0  0
    6.5039   -7.1392    0.0000 C   0  0  0  0  0  0  0  0  0  0  0  0
    6.5039   -6.3799    0.0000 O   0  0  0  0  0  0  0  0  0  0  0  0
    6.4995   -8.7892    0.0000 O   0  0  0  0  0  0  0  0  0  0  0  0
    5.7861   -8.3748    0.0000 C   0  0  0  0  0  0  0  0  0  0  0  0
    5.0705   -8.7854    0.0000 C   0  0  0  0  0  0  0  0  0  0  0  0
    5.7883   -7.5498    0.0000 O   0  0  0  0  0  0  0  0  0  0  0  0
    4.3572   -8.3709    0.0000 C   0  0  0  0  0  0  0  0  0  0  0  0
    3.6416   -8.7815    0.0000 C   0  0  0  0  0  0  0  0  0  0  0  0
    2.9293   -8.3652    0.0000 C   0  0  0  0  0  0  0  0  0  0  0  0
    2.2127   -8.7815    0.0000 C   0  0  0  0  0  0  0  0  0  0  0  0
    2.2127   -9.6065    0.0000 C   0  0  0  0  0  0  0  0  0  0  0  0
    2.9293  -10.0228    0.0000 C   0  0  0  0  0  0  0  0  0  0  0  0
    3.6416   -9.6065    0.0000 C   0  0  0  0  0  0  0  0  0  0  0  0
    1.4943  -10.0200    0.0000 O   0  0  0  0  0  0  0  0  0  0  0  0
    1.4943   -8.3681    0.0000 O   0  0  0  0  0  0  0  0  0  0  0  0
    7.2106  -10.0286    0.0000 C   0  0  2  0  0  0  0  0  0  0  0  0
    6.4984   -9.6123    0.0000 O   0  0  0  0  0  0  0  0  0  0  0  0
    5.7817  -10.0286    0.0000 C   0  0  1  0  0  0  0  0  0  0  0  0
    5.7817  -10.8536    0.0000 C   0  0  2  0  0  0  0  0  0  0  0  0
    6.4984  -11.2699    0.0000 C   0  0  1  0  0  0  0  0  0  0  0  0
    7.2106  -10.8536    0.0000 C   0  0  1  0  0  0  0  0  0  0  0  0
    5.0633   -9.6152    0.0000 C   0  0  0  0  0  0  0  0  0  0  0  0
    6.4995  -12.0987    0.0000 O   0  0  0  0  0  0  0  0  0  0  0  0
    7.9262  -11.2642    0.0000 O   0  0  0  0  0  0  0  0  0  0  0  0
    5.0633  -11.2670    0.0000 O   0  0  0  0  0  0  0  0  0  0  0  0
    4.3461  -10.0305    0.0000 O   0  0  0  0  0  0  0  0  0  0  0  0
    9.3618   -7.1469    0.0000 O   0  0  0  0  0  0  0  0  0  0  0  0
   10.0751   -7.5613    0.0000 C   0  0  0  0  0  0  0  0  0  0  0  0
   10.7907   -7.1507    0.0000 C   0  0  0  0  0  0  0  0  0  0  0  0
   11.5041   -7.5651    0.0000 C   0  0  0  0  0  0  0  0  0  0  0  0
   11.5007   -8.3901    0.0000 C   0  0  0  0  0  0  0  0  0  0  0  0
   12.2135   -8.8055    0.0000 C   0  0  0  0  0  0  0  0  0  0  0  0
   12.9297   -8.3901    0.0000 C   0  0  0  0  0  0  0  0  0  0  0  0
   12.9297   -7.5651    0.0000 C   0  0  0  0  0  0  0  0  0  0  0  0
   12.2135   -7.1497    0.0000 C   0  0  0  0  0  0  0  0  0  0  0  0
   13.6470   -8.8033    0.0000 O   0  0  0  0  0  0  0  0  0  0  0  0
  1  2  1  0  0  0  0
  2  3  1  6  0  0  0
  2  4  1  0  0  0  0
  4  5  1  1  0  0  0
  4  6  1  0  0  0  0
  6  7  1  0  0  0  0
  7  8  1  0  0  0  0
  7  9  1  1  0  0  0
  9 10  1  0  0  0  0
  1  8  1  0  0  0  0
  6 11  1  6  0  0  0
 11 12  1  0  0  0  0
 12 13  1  0  0  0  0
 12 14  2  0  0  0  0
 13 15  2  0  0  0  0
 15 16  1  0  0  0  0
 16 17  2  0  0  0  0
 17 18  1  0  0  0  0
 18 19  2  0  0  0  0
 19 20  1  0  0  0  0
 20 21  2  0  0  0  0
 21 16  1  0  0  0  0
 19 22  1  0  0  0  0
 18 23  1  0  0  0  0
 24  5  1  1  0  0  0
 24 25  1  0  0  0  0
 25 26  1  0  0  0  0
 26 27  1  0  0  0  0
 27 28  1  0  0  0  0
 28 29  1  0  0  0  0
 29 24  1  0  0  0  0
 26 30  1  1  0  0  0
 28 31  1  1  0  0  0
 29 32  1  6  0  0  0
 27 33  1  6  0  0  0
 30 34  1  0  0  0  0
  1 35  1  1  0  0  0
 35 36  1  0  0  0  0
 36 37  1  0  0  0  0
 37 38  1  0  0  0  0
 38 39  2  0  0  0  0
 39 40  1  0  0  0  0
 40 41  2  0  0  0  0
 41 42  1  0  0  0  0
 42 43  2  0  0  0  0
 43 38  1  0  0  0  0
 41 44  1  0  0  0  0
M  END
>  <cdx:groupId>
137

>  <cdx:fragmentId>
51

$$$$
