93177.cdx
  Mrv1902 05222410222D          

 14 16  0  0  0  0            999 V2000
    8.8224   -7.7283    0.0000 C   0  0  0  0  0  0  0  0  0  0  0  0
    9.3745   -8.3414    0.0000 N   0  0  0  0  0  0  0  0  0  0  0  0
    9.1195   -9.1260    0.0000 C   0  0  0  0  0  0  0  0  0  0  0  0
    8.3126   -9.2976    0.0000 C   0  0  0  0  0  0  0  0  0  0  0  0
    7.7605   -8.6845    0.0000 C   0  0  0  0  0  0  0  0  0  0  0  0
    6.9355   -8.6845    0.0000 C   0  0  0  0  0  0  0  0  0  0  0  0
    6.3835   -9.2976    0.0000 C   0  0  0  0  0  0  0  0  0  0  0  0
    5.5765   -9.1260    0.0000 C   0  0  0  0  0  0  0  0  0  0  0  0
    5.3216   -8.3414    0.0000 C   0  0  0  0  0  0  0  0  0  0  0  0
    5.8736   -7.7283    0.0000 C   0  0  0  0  0  0  0  0  0  0  0  0
    6.6806   -7.8998    0.0000 C   0  0  0  0  0  0  0  0  0  0  0  0
    7.3480   -7.4149    0.0000 N   0  0  0  0  0  0  0  0  0  0  0  0
    8.0155   -7.8998    0.0000 C   0  0  0  0  0  0  0  0  0  0  0  0
    5.0245   -9.7391    0.0000 O   0  0  0  0  0  0  0  0  0  0  0  0
  1  2  1  0  0  0  0
  2  3  1  0  0  0  0
  3  4  1  0  0  0  0
  4  5  1  0  0  0  0
  5  6  1  0  0  0  0
  6  7  1  0  0  0  0
  7  8  2  0  0  0  0
  8  9  1  0  0  0  0
  9 10  2  0  0  0  0
 10 11  1  0  0  0  0
  6 11  2  0  0  0  0
 11 12  1  0  0  0  0
 12 13  1  0  0  0  0
  5 13  2  0  0  0  0
  1 13  1  0  0  0  0
  8 14  1  0  0  0  0
M  END
>  <cdx:groupId>
46

>  <cdx:fragmentId>
5

$$$$
