93171.cdx
  Mrv1902 05222410212D          

 22 21  0  0  0  0            999 V2000
   12.0475   -8.7260    0.0000 C   0  0  0  0  0  0  0  0  0  0  0  0
   11.3330   -8.3135    0.0000 C   0  0  0  0  0  0  0  0  0  0  0  0
   10.6185   -8.7260    0.0000 C   0  0  0  0  0  0  0  0  0  0  0  0
   10.6185   -9.5510    0.0000 C   0  0  0  0  0  0  0  0  0  0  0  0
    9.9040   -8.3135    0.0000 C   0  0  0  0  0  0  0  0  0  0  0  0
    9.1896   -8.7260    0.0000 C   0  0  0  0  0  0  0  0  0  0  0  0
    8.4751   -8.3135    0.0000 C   0  0  0  0  0  0  0  0  0  0  0  0
    7.7606   -8.7260    0.0000 C   0  0  0  0  0  0  0  0  0  0  0  0
    7.7606   -9.5510    0.0000 C   0  0  0  0  0  0  0  0  0  0  0  0
    7.0462   -8.3135    0.0000 C   0  0  0  0  0  0  0  0  0  0  0  0
    6.3317   -8.7260    0.0000 C   0  0  0  0  0  0  0  0  0  0  0  0
    5.6172   -8.3135    0.0000 C   0  0  0  0  0  0  0  0  0  0  0  0
    4.9028   -8.7260    0.0000 C   0  0  0  0  0  0  0  0  0  0  0  0
    4.9028   -9.5510    0.0000 C   0  0  0  0  0  0  0  0  0  0  0  0
    4.1883   -8.3135    0.0000 C   0  0  0  0  0  0  0  0  0  0  0  0
    3.4738   -8.7260    0.0000 C   0  0  0  0  0  0  0  0  0  0  0  0
    2.7593   -8.3135    0.0000 C   0  0  0  0  0  0  0  0  0  0  0  0
    2.0449   -8.7260    0.0000 C   0  0  0  0  0  0  0  0  0  0  0  0
    2.0449   -9.5510    0.0000 C   0  0  0  0  0  0  0  0  0  0  0  0
    1.3304   -8.3135    0.0000 C   0  0  0  0  0  0  0  0  0  0  0  0
   12.7619   -8.3135    0.0000 O   0  0  0  0  0  0  0  0  0  0  0  0
    4.1883   -7.4885    0.0000 O   0  0  0  0  0  0  0  0  0  0  0  0
  1  2  1  0  0  0  0
  2  3  2  0  0  0  0
  3  4  1  0  0  0  0
  3  5  1  0  0  0  0
  5  6  1  0  0  0  0
  6  7  1  0  0  0  0
  7  8  2  0  0  0  0
  8  9  1  0  0  0  0
  8 10  1  0  0  0  0
 10 11  1  0  0  0  0
 11 12  1  0  0  0  0
 12 13  2  0  0  0  0
 13 14  1  0  0  0  0
 13 15  1  0  0  0  0
 15 16  1  0  0  0  0
 16 17  1  0  0  0  0
 17 18  2  0  0  0  0
 18 19  1  0  0  0  0
 18 20  1  0  0  0  0
  1 21  1  0  0  0  0
 15 22  1  0  0  0  0
M  END
>  <cdx:groupId>
67

>  <cdx:fragmentId>
5

$$$$
