93172.cdx
  Mrv1902 05222410202D          

 46 49  0  0  0  0            999 V2000
    7.5213   -9.1892    0.0000 H   0  0  0  0  0  0  0  0  0  0  0  0
    7.2196   -9.4914    0.0000 H   0  0  0  0  0  0  0  0  0  0  0  0
    5.8808  -10.1376    0.0000 H   0  0  0  0  0  0  0  0  0  0  0  0
    4.7446   -9.4936    0.0000 O   0  0  0  0  0  0  0  0  0  0  0  0
    5.2409  -11.7675    0.0000 O   0  0  0  0  0  0  0  0  0  0  0  0
    6.3927   -7.2382    0.0000 O   0  0  0  0  0  0  0  0  0  0  0  0
    5.1552   -7.3498    0.0000 O   0  0  0  0  0  0  0  0  0  0  0  0
    7.2500  -12.2709    0.0000 O   0  0  0  0  0  0  0  0  0  0  0  0
    7.3722  -11.4550    0.0000 C   0  0  0  0  0  0  0  0  0  0  0  0
    3.1064  -11.0083    0.0000 C   0  0  0  0  0  0  0  0  0  0  0  0
    7.6302   -7.3476    0.0000 C   0  0  0  0  0  0  0  0  0  0  0  0
    8.0434   -8.0617    0.0000 C   0  0  0  0  0  0  0  0  0  0  0  0
    4.3315   -8.7795    0.0000 C   0  0  0  0  0  0  0  0  0  0  0  0
    4.4591  -12.1880    0.0000 O   0  0  0  0  0  0  0  0  0  0  0  0
    5.1565   -8.7787    0.0000 C   0  0  2  0  0  0  0  0  0  0  0  0
    5.5684   -8.0639    0.0000 C   0  0  2  0  0  0  0  0  0  0  0  0
    6.3934   -8.0632    0.0000 C   0  0  2  0  0  0  0  0  0  0  0  0
    7.2184   -8.0625    0.0000 C   0  0  0  0  0  0  0  0  0  0  0  0
    6.8065   -8.7773    0.0000 C   0  0  1  0  0  0  0  0  0  0  0  0
    6.3946   -9.4921    0.0000 C   0  0  2  0  0  0  0  0  0  0  0  0
    6.9096  -10.1367    0.0000 C   0  0  0  0  0  0  0  0  0  0  0  0
    6.7267  -10.9412    0.0000 C   0  0  0  0  0  0  0  0  0  0  0  0
    5.9837  -11.2998    0.0000 C   0  0  0  0  0  0  0  0  0  0  0  0
    5.2401  -10.9425    0.0000 C   0  0  1  0  0  0  0  0  0  0  0  0
    4.5323  -11.3662    0.0000 C   0  0  0  0  0  0  0  0  0  0  0  0
    3.9105  -10.8240    0.0000 C   0  0  0  0  0  0  0  0  0  0  0  0
    4.2341  -10.0651    0.0000 C   0  0  0  0  0  0  0  0  0  0  0  0
    5.0558  -10.1383    0.0000 C   0  0  1  0  0  0  0  0  0  0  0  0
    5.5696   -9.4929    0.0000 C   0  0  2  0  0  0  0  0  0  0  0  0
    4.4408   -6.9373    0.0000 C   0  0  0  0  0  0  0  0  0  0  0  0
    3.7263   -7.3497    0.0000 C   0  0  1  0  0  0  0  0  0  0  0  0
    4.4409   -6.1123    0.0000 O   0  0  0  0  0  0  0  0  0  0  0  0
    3.0119   -6.9372    0.0000 C   0  0  0  0  0  0  0  0  0  0  0  0
    2.2974   -7.3496    0.0000 C   0  0  0  0  0  0  0  0  0  0  0  0
    3.7263   -8.1747    0.0000 C   0  0  0  0  0  0  0  0  0  0  0  0
    6.3920   -5.8183    0.0000 O   0  0  0  0  0  0  0  0  0  0  0  0
   12.5728   -3.6556    0.0000 C   0  0  0  0  0  0  0  0  0  0  0  0
   11.7478   -3.6582    0.0000 C   0  0  0  0  0  0  0  0  0  0  0  0
   11.3376   -4.3739    0.0000 C   0  0  0  0  0  0  0  0  0  0  0  0
   10.5126   -4.3765    0.0000 C   0  0  0  0  0  0  0  0  0  0  0  0
   10.1023   -5.0923    0.0000 C   0  0  0  0  0  0  0  0  0  0  0  0
    9.2773   -5.0949    0.0000 C   0  0  0  0  0  0  0  0  0  0  0  0
    8.8670   -5.8106    0.0000 C   0  0  0  0  0  0  0  0  0  0  0  0
    8.0420   -5.8132    0.0000 C   0  0  0  0  0  0  0  0  0  0  0  0
    7.6318   -6.5289    0.0000 C   0  0  0  0  0  0  0  0  0  0  0  0
    6.8068   -6.5315    0.0000 C   0  0  0  0  0  0  0  0  0  0  0  0
 19  1  1  6  0  0  0
 20  2  1  1  0  0  0
 28  3  1  6  0  0  0
 29  4  1  6  0  0  0
 24  5  1  1  0  0  0
 17  6  1  6  0  0  0
 16  7  1  1  0  0  0
 22  9  1  0  0  0  0
  9  8  1  0  0  0  0
 26 10  1  0  0  0  0
 18 11  1  0  0  0  0
 18 12  1  0  0  0  0
 15 13  1  6  0  0  0
 25 14  2  0  0  0  0
 28 24  1  0  0  0  0
 19 17  1  0  0  0  0
 29 20  1  0  0  0  0
 29 15  1  0  0  0  0
 16 15  1  0  0  0  0
 17 16  1  0  0  0  0
 18 17  1  0  0  0  0
 19 18  1  0  0  0  0
 20 19  1  0  0  0  0
 21 20  1  0  0  0  0
 22 21  2  0  0  0  0
 23 22  1  0  0  0  0
 24 23  1  0  0  0  0
 25 24  1  0  0  0  0
 26 25  1  0  0  0  0
 27 26  2  0  0  0  0
 28 27  1  0  0  0  0
 29 28  1  0  0  0  0
  7 30  1  0  0  0  0
 30 31  1  0  0  0  0
 30 32  2  0  0  0  0
 31 33  1  0  0  0  0
 33 34  1  0  0  0  0
 31 35  1  6  0  0  0
 46 36  2  0  0  0  0
 38 37  1  0  0  0  0
 39 38  1  0  0  0  0
 40 39  1  0  0  0  0
 41 40  1  0  0  0  0
 42 41  1  0  0  0  0
 43 42  1  0  0  0  0
 44 43  1  0  0  0  0
 45 44  1  0  0  0  0
 46 45  1  0  0  0  0
 46  6  1  0  0  0  0
M  END
>  <cdx:fragmentId>
5

$$$$
