93176.cdx
  Mrv1902 05222410232D          

 24 26  0  0  0  0            999 V2000
    7.9087   -8.1491    0.0000 C   0  0  0  0  0  0  0  0  0  0  0  0
    7.9041   -8.9740    0.0000 C   0  0  0  0  0  0  0  0  0  0  0  0
    8.6163   -9.3906    0.0000 C   0  0  0  0  0  0  0  0  0  0  0  0
    9.3330   -8.9821    0.0000 C   0  0  0  0  0  0  0  0  0  0  0  0
    9.3377   -8.1571    0.0000 C   0  0  0  0  0  0  0  0  0  0  0  0
    8.6255   -7.7406    0.0000 C   0  0  0  0  0  0  0  0  0  0  0  0
    8.6116  -10.2155    0.0000 O   0  0  0  0  0  0  0  0  0  0  0  0
    9.3238  -10.6320    0.0000 C   0  0  0  0  0  0  0  0  0  0  0  0
   10.0452   -9.3986    0.0000 O   0  0  0  0  0  0  0  0  0  0  0  0
    7.1966   -7.7326    0.0000 C   0  0  0  0  0  0  0  0  0  0  0  0
    3.6312   -6.4750    0.0000 C   0  0  0  0  0  0  0  0  0  0  0  0
    4.3434   -6.8915    0.0000 O   0  0  0  0  0  0  0  0  0  0  0  0
    8.6302   -6.9156    0.0000 C   0  0  0  0  0  0  0  0  0  0  0  0
    4.3527   -5.2415    0.0000 O   0  0  0  0  0  0  0  0  0  0  0  0
    6.4891   -6.4911    0.0000 C   0  0  0  0  0  0  0  0  0  0  0  0
    5.7723   -6.8995    0.0000 C   0  0  0  0  0  0  0  0  0  0  0  0
    5.0602   -6.4830    0.0000 C   0  0  0  0  0  0  0  0  0  0  0  0
    5.0648   -5.6581    0.0000 C   0  0  0  0  0  0  0  0  0  0  0  0
    5.7816   -5.2496    0.0000 C   0  0  0  0  0  0  0  0  0  0  0  0
    6.4937   -5.6661    0.0000 C   0  0  0  0  0  0  0  0  0  0  0  0
    7.2105   -5.2576    0.0000 C   0  0  0  0  0  0  0  0  0  0  0  0
    7.9226   -5.6741    0.0000 C   0  0  0  0  0  0  0  0  0  0  0  0
    7.9180   -6.4991    0.0000 N   0  0  0  0  0  0  0  0  0  0  0  0
    7.2012   -6.9076    0.0000 C   0  0  0  0  0  0  0  0  0  0  0  0
 24 10  1  0  0  0  0
 10  1  1  0  0  0  0
 17 12  1  0  0  0  0
 12 11  1  0  0  0  0
 23 13  1  0  0  0  0
 18 14  1  0  0  0  0
 20 15  2  0  0  0  0
 24 15  1  0  0  0  0
 16 15  1  0  0  0  0
 17 16  2  0  0  0  0
 18 17  1  0  0  0  0
 19 18  2  0  0  0  0
 20 19  1  0  0  0  0
 21 20  1  0  0  0  0
 22 21  1  0  0  0  0
 23 22  1  0  0  0  0
 24 23  1  0  0  0  0
  1  2  1  0  0  0  0
  2  3  2  0  0  0  0
  3  4  1  0  0  0  0
  4  5  2  0  0  0  0
  5  6  1  0  0  0  0
  1  6  2  0  0  0  0
  7  8  1  0  0  0  0
  3  7  1  0  0  0  0
  4  9  1  0  0  0  0
M  END
>  <cdx:fragmentId>
5

$$$$
