93174.cdx
  Mrv1902 05222410222D          

 39 43  0  0  0  0            999 V2000
   10.2613   -8.4013    0.0000 C   0  0  0  0  0  0  0  0  0  0  0  0
    4.5455  -10.0512    0.0000 C   0  0  1  0  0  0  0  0  0  0  0  0
    4.5455  -10.8762    0.0000 O   0  0  0  0  0  0  0  0  0  0  0  0
    4.5455   -9.2262    0.0000 C   0  0  0  0  0  0  0  0  0  0  0  0
    5.2600   -8.8137    0.0000 C   0  0  0  0  0  0  0  0  0  0  0  0
    5.2600  -10.4637    0.0000 C   0  0  2  0  0  0  0  0  0  0  0  0
    5.6725  -11.1782    0.0000 C   0  0  0  0  0  0  0  0  0  0  0  0
    4.8475  -11.1782    0.0000 C   0  0  0  0  0  0  0  0  0  0  0  0
    5.9745  -10.0512    0.0000 C   0  0  0  0  0  0  0  0  0  0  0  0
    6.6889  -10.4637    0.0000 C   0  0  0  0  0  0  0  0  0  0  0  0
    7.4034  -10.0512    0.0000 C   0  0  0  0  0  0  0  0  0  0  0  0
    7.4034   -9.2262    0.0000 C   0  0  1  0  0  0  0  0  0  0  0  0
    7.4034   -8.4012    0.0000 C   0  0  0  0  0  0  0  0  0  0  0  0
    8.1179   -8.8138    0.0000 C   0  0  2  0  0  0  0  0  0  0  0  0
    8.1179   -9.6387    0.0000 C   0  0  0  0  0  0  0  0  0  0  0  0
    8.8323   -9.2263    0.0000 C   0  0  0  0  0  0  0  0  0  0  0  0
    9.5468   -8.8138    0.0000 C   0  0  0  0  0  0  0  0  0  0  0  0
    9.5468   -7.9888    0.0000 C   0  0  2  0  0  0  0  0  0  0  0  0
   10.2613   -7.5762    0.0000 C   0  0  0  0  0  0  0  0  0  0  0  0
   10.2613   -6.7512    0.0000 C   0  0  0  0  0  0  0  0  0  0  0  0
    9.5468   -6.3388    0.0000 C   0  0  1  0  0  0  0  0  0  0  0  0
    9.5468   -5.5137    0.0000 C   0  0  0  0  0  0  0  0  0  0  0  0
    8.8323   -6.7512    0.0000 C   0  0  2  0  0  0  0  0  0  0  0  0
    8.4198   -6.0368    0.0000 C   0  0  0  0  0  0  0  0  0  0  0  0
    8.8323   -7.5762    0.0000 C   0  0  1  0  0  0  0  0  0  0  0  0
    8.8323   -8.4013    0.0000 H   0  0  0  0  0  0  0  0  0  0  0  0
    8.1179   -7.9888    0.0000 C   0  0  0  0  0  0  0  0  0  0  0  0
    7.4034   -7.5762    0.0000 C   0  0  0  0  0  0  0  0  0  0  0  0
    6.6889   -7.9887    0.0000 C   0  0  0  0  0  0  0  0  0  0  0  0
    6.6889   -8.8137    0.0000 C   0  0  2  0  0  0  0  0  0  0  0  0
    5.9745   -9.2262    0.0000 C   0  0  1  0  0  0  0  0  0  0  0  0
    5.9745   -8.4012    0.0000 C   0  0  0  0  0  0  0  0  0  0  0  0
   10.2613   -9.2263    0.0000 O   0  0  0  0  0  0  0  0  0  0  0  0
   10.9758   -7.9888    0.0000 O   0  0  0  0  0  0  0  0  0  0  0  0
    3.8310  -10.4637    0.0000 C   0  0  0  0  0  0  0  0  0  0  0  0
    3.8310  -11.2887    0.0000 O   0  0  0  0  0  0  0  0  0  0  0  0
    3.1166  -10.0512    0.0000 C   0  0  0  0  0  0  0  0  0  0  0  0
    8.0073   -6.7512    0.0000 O   0  0  0  0  0  0  0  0  0  0  0  0
    6.6889   -9.6387    0.0000 H   0  0  0  0  0  0  0  0  0  0  0  0
  2  3  1  1  0  0  0
  2  4  1  0  0  0  0
  4  5  1  0  0  0  0
  2  6  1  0  0  0  0
  6  7  1  6  0  0  0
  6  8  1  1  0  0  0
  6  9  1  0  0  0  0
  9 10  1  0  0  0  0
 10 11  1  0  0  0  0
 11 12  1  0  0  0  0
 12 13  1  1  0  0  0
 12 14  1  0  0  0  0
 14 15  1  6  0  0  0
 14 16  1  0  0  0  0
 16 17  1  0  0  0  0
 17 18  1  0  0  0  0
 18  1  1  1  0  0  0
 18 19  1  0  0  0  0
 19 20  1  0  0  0  0
 20 21  1  0  0  0  0
 21 22  1  6  0  0  0
 21 23  1  0  0  0  0
 23 24  1  1  0  0  0
 23 25  1  0  0  0  0
 25 26  1  1  0  0  0
 18 25  1  0  0  0  0
 25 27  1  0  0  0  0
 14 27  1  0  0  0  0
 27 28  2  0  0  0  0
 28 29  1  0  0  0  0
 29 30  1  0  0  0  0
 12 30  1  0  0  0  0
 30 31  1  0  0  0  0
  5 31  1  0  0  0  0
  9 31  1  0  0  0  0
 31 32  1  1  0  0  0
  1 33  2  0  0  0  0
  1 34  1  0  0  0  0
 35 36  2  0  0  0  0
 35 37  1  0  0  0  0
  2 35  1  0  0  0  0
 23 38  1  6  0  0  0
 30 39  1  6  0  0  0
M  END
>  <cdx:groupId>
123

>  <cdx:fragmentId>
7

$$$$
