93178.cdx
  Mrv1902 05222410242D          

 20 22  0  0  0  0            999 V2000
    8.6246   -7.6397    0.0000 C   0  0  0  0  0  0  0  0  0  0  0  0
    9.3391   -8.0522    0.0000 C   0  0  0  0  0  0  0  0  0  0  0  0
    9.3391   -8.8772    0.0000 C   0  0  0  0  0  0  0  0  0  0  0  0
    8.6246   -9.2897    0.0000 C   0  0  0  0  0  0  0  0  0  0  0  0
    7.9101   -8.8772    0.0000 C   0  0  0  0  0  0  0  0  0  0  0  0
    7.1956   -9.2897    0.0000 C   0  0  0  0  0  0  0  0  0  0  0  0
    7.1956  -10.1147    0.0000 O   0  0  0  0  0  0  0  0  0  0  0  0
    6.4812   -8.8772    0.0000 C   0  0  0  0  0  0  0  0  0  0  0  0
    5.7667   -9.2897    0.0000 C   0  0  0  0  0  0  0  0  0  0  0  0
    5.0522   -8.8772    0.0000 C   0  0  0  0  0  0  0  0  0  0  0  0
    5.0522   -8.0522    0.0000 C   0  0  0  0  0  0  0  0  0  0  0  0
    5.7667   -7.6397    0.0000 C   0  0  0  0  0  0  0  0  0  0  0  0
    6.4812   -8.0522    0.0000 C   0  0  0  0  0  0  0  0  0  0  0  0
    7.1956   -7.6397    0.0000 C   0  0  0  0  0  0  0  0  0  0  0  0
    7.1956   -6.8147    0.0000 O   0  0  0  0  0  0  0  0  0  0  0  0
    7.9101   -8.0522    0.0000 C   0  0  0  0  0  0  0  0  0  0  0  0
    8.6246  -10.1147    0.0000 O   0  0  0  0  0  0  0  0  0  0  0  0
   10.0535   -7.6397    0.0000 O   0  0  0  0  0  0  0  0  0  0  0  0
    4.3378   -9.2897    0.0000 O   0  0  0  0  0  0  0  0  0  0  0  0
    8.6246   -6.8147    0.0000 O   0  0  0  0  0  0  0  0  0  0  0  0
  1  2  1  0  0  0  0
  2  3  2  0  0  0  0
  3  4  1  0  0  0  0
  4  5  2  0  0  0  0
  5  6  1  0  0  0  0
  6  7  2  0  0  0  0
  6  8  1  0  0  0  0
  8  9  1  0  0  0  0
  9 10  2  0  0  0  0
 10 11  1  0  0  0  0
 11 12  2  0  0  0  0
 12 13  1  0  0  0  0
  8 13  2  0  0  0  0
 13 14  1  0  0  0  0
 14 15  2  0  0  0  0
 14 16  1  0  0  0  0
  5 16  1  0  0  0  0
  1 16  2  0  0  0  0
  4 17  1  0  0  0  0
  2 18  1  0  0  0  0
 10 19  1  0  0  0  0
  1 20  1  0  0  0  0
M  END
>  <cdx:groupId>
64

>  <cdx:fragmentId>
5

$$$$
