93185.cdx
  Mrv1902 05222410232D          

 12 11  0  0  0  0            999 V2000
   10.0535   -8.6625    0.0000 C   0  0  0  0  0  0  0  0  0  0  0  0
   10.0535   -7.8375    0.0000 C   0  0  0  0  0  0  0  0  0  0  0  0
    9.3391   -7.4250    0.0000 C   0  0  0  0  0  0  0  0  0  0  0  0
    8.6246   -7.8375    0.0000 C   0  0  0  0  0  0  0  0  0  0  0  0
    7.9101   -8.2500    0.0000 C   0  0  0  0  0  0  0  0  0  0  0  0
    7.1956   -8.6625    0.0000 C   0  0  0  0  0  0  0  0  0  0  0  0
    6.4812   -9.0750    0.0000 C   0  0  0  0  0  0  0  0  0  0  0  0
    5.7667   -9.4875    0.0000 C   0  0  0  0  0  0  0  0  0  0  0  0
    5.0522   -9.0750    0.0000 C   0  0  0  0  0  0  0  0  0  0  0  0
    4.3378   -9.4875    0.0000 C   0  0  0  0  0  0  0  0  0  0  0  0
   10.7680   -9.0750    0.0000 O   0  0  0  0  0  0  0  0  0  0  0  0
    3.6233   -9.0750    0.0000 O   0  0  0  0  0  0  0  0  0  0  0  0
  1  2  1  0  0  0  0
  2  3  2  0  0  0  0
  3  4  1  0  0  0  0
  4  5  3  0  0  0  0
  5  6  1  0  0  0  0
  6  7  3  0  0  0  0
  7  8  1  0  0  0  0
  8  9  1  0  0  0  0
  9 10  1  0  0  0  0
  1 11  1  0  0  0  0
 10 12  1  0  0  0  0
M  END
>  <cdx:groupId>
37

>  <cdx:fragmentId>
5

$$$$
