93180.cdx
  Mrv1902 05222410252D          

 12 14  0  0  0  0            999 V2000
    8.3226   -7.8906    0.0000 C   0  0  0  0  0  0  0  0  0  0  0  0
    9.0371   -8.3031    0.0000 C   0  0  0  0  0  0  0  0  0  0  0  0
    9.0371   -9.1281    0.0000 C   0  0  0  0  0  0  0  0  0  0  0  0
    8.3226   -9.5406    0.0000 C   0  0  0  0  0  0  0  0  0  0  0  0
    7.6081   -9.1281    0.0000 C   0  0  0  0  0  0  0  0  0  0  0  0
    6.7831   -9.1281    0.0000 C   0  0  0  0  0  0  0  0  0  0  0  0
    6.0687   -9.5406    0.0000 C   0  0  0  0  0  0  0  0  0  0  0  0
    5.3542   -9.1281    0.0000 C   0  0  0  0  0  0  0  0  0  0  0  0
    5.3542   -8.3031    0.0000 C   0  0  0  0  0  0  0  0  0  0  0  0
    6.0687   -7.8906    0.0000 C   0  0  0  0  0  0  0  0  0  0  0  0
    6.7831   -8.3031    0.0000 C   0  0  0  0  0  0  0  0  0  0  0  0
    7.6081   -8.3031    0.0000 C   0  0  0  0  0  0  0  0  0  0  0  0
  1  2  1  0  0  0  0
  2  3  1  0  0  0  0
  3  4  1  0  0  0  0
  4  5  2  0  0  0  0
  5  6  1  0  0  0  0
  6  7  2  0  0  0  0
  7  8  1  0  0  0  0
  8  9  1  0  0  0  0
  9 10  1  0  0  0  0
 10 11  1  0  0  0  0
  6 11  1  0  0  0  0
 11 12  1  0  0  0  0
  5 12  1  0  0  0  0
  1 12  1  0  0  0  0
M  END
>  <cdx:fragmentId>
5

$$$$
