93183.cdx
  Mrv1902 05222410252D          

 23 26  0  0  0  0            999 V2000
    9.8120   -7.6296    0.0000 C   0  0  0  0  0  0  0  0  0  0  0  0
   10.0787   -8.4103    0.0000 C   0  0  0  0  0  0  0  0  0  0  0  0
    9.4186   -8.9052    0.0000 O   0  0  0  0  0  0  0  0  0  0  0  0
    8.7440   -8.4303    0.0000 C   0  0  0  0  0  0  0  0  0  0  0  0
    7.9760   -8.7317    0.0000 C   0  0  0  0  0  0  0  0  0  0  0  0
    7.2615   -8.3192    0.0000 C   0  0  0  0  0  0  0  0  0  0  0  0
    7.1386   -7.5034    0.0000 C   0  0  0  0  0  0  0  0  0  0  0  0
    7.6997   -6.8986    0.0000 O   0  0  0  0  0  0  0  0  0  0  0  0
    8.5224   -6.9603    0.0000 C   0  0  0  0  0  0  0  0  0  0  0  0
    8.9871   -7.6419    0.0000 C   0  0  0  0  0  0  0  0  0  0  0  0
    7.9760   -9.5567    0.0000 C   0  0  0  0  0  0  0  0  0  0  0  0
    7.2615   -9.9692    0.0000 C   0  0  0  0  0  0  0  0  0  0  0  0
    6.5470   -9.5567    0.0000 C   0  0  0  0  0  0  0  0  0  0  0  0
    5.8326   -9.9692    0.0000 C   0  0  0  0  0  0  0  0  0  0  0  0
    5.1181   -9.5567    0.0000 C   0  0  0  0  0  0  0  0  0  0  0  0
    5.1181   -8.7317    0.0000 C   0  0  0  0  0  0  0  0  0  0  0  0
    5.8326   -8.3192    0.0000 C   0  0  0  0  0  0  0  0  0  0  0  0
    6.5470   -8.7317    0.0000 C   0  0  0  0  0  0  0  0  0  0  0  0
    6.3502   -7.2602    0.0000 O   0  0  0  0  0  0  0  0  0  0  0  0
    5.4201  -10.6837    0.0000 C   0  0  0  0  0  0  0  0  0  0  0  0
    6.2451  -10.6837    0.0000 C   0  0  0  0  0  0  0  0  0  0  0  0
   10.2869   -6.9550    0.0000 C   0  0  0  0  0  0  0  0  0  0  0  0
    8.9349   -6.2458    0.0000 O   0  0  0  0  0  0  0  0  0  0  0  0
  1  2  1  0  0  0  0
  2  3  1  0  0  0  0
  3  4  1  0  0  0  0
  4  5  1  0  0  0  0
  5  6  2  0  0  0  0
  6  7  1  0  0  0  0
  7  8  1  0  0  0  0
  8  9  1  0  0  0  0
  9 10  1  0  0  0  0
  1 10  1  0  0  0  0
  4 10  2  0  0  0  0
 11 12  2  0  0  0  0
 12 13  1  0  0  0  0
 13 14  1  0  0  0  0
 14 15  1  0  0  0  0
 15 16  1  0  0  0  0
 16 17  1  0  0  0  0
 17 18  1  0  0  0  0
 13 18  2  0  0  0  0
 11  5  1  0  0  0  0
 18  6  1  0  0  0  0
  7 19  2  0  0  0  0
 14 20  1  0  0  0  0
 14 21  1  0  0  0  0
  1 22  1  0  0  0  0
  9 23  2  0  0  0  0
M  END
>  <cdx:groupId>
74

>  <cdx:fragmentId>
5

$$$$
