93184.cdx
  Mrv1902 05222410232D          

 15 16  0  0  0  0            999 V2000
    7.2460  -10.1369    0.0000 N   0  0  0  0  0  0  0  0  0  0  0  0
    7.7309   -9.4695    0.0000 C   0  0  0  0  0  0  0  0  0  0  0  0
    7.2460   -8.8020    0.0000 C   0  0  0  0  0  0  0  0  0  0  0  0
    6.4613   -9.0570    0.0000 C   0  0  0  0  0  0  0  0  0  0  0  0
    5.7469   -8.6445    0.0000 C   0  0  0  0  0  0  0  0  0  0  0  0
    5.0324   -9.0570    0.0000 C   0  0  0  0  0  0  0  0  0  0  0  0
    5.0324   -9.8820    0.0000 C   0  0  0  0  0  0  0  0  0  0  0  0
    5.7469  -10.2945    0.0000 C   0  0  0  0  0  0  0  0  0  0  0  0
    6.4613   -9.8820    0.0000 C   0  0  0  0  0  0  0  0  0  0  0  0
    8.5559   -9.4695    0.0000 O   0  0  0  0  0  0  0  0  0  0  0  0
    7.5009   -8.0174    0.0000 C   0  0  0  0  0  0  0  0  0  0  0  0
    8.3079   -7.8459    0.0000 C   0  0  0  0  0  0  0  0  0  0  0  0
    8.5628   -7.0613    0.0000 C   0  0  0  0  0  0  0  0  0  0  0  0
    8.0108   -6.4482    0.0000 C   0  0  0  0  0  0  0  0  0  0  0  0
    9.3698   -6.8897    0.0000 C   0  0  0  0  0  0  0  0  0  0  0  0
  1  2  1  0  0  0  0
  2  3  1  0  0  0  0
  3  4  1  0  0  0  0
  4  5  1  0  0  0  0
  5  6  2  0  0  0  0
  6  7  1  0  0  0  0
  7  8  2  0  0  0  0
  8  9  1  0  0  0  0
  1  9  1  0  0  0  0
  4  9  2  0  0  0  0
  2 10  2  0  0  0  0
 11 12  1  0  0  0  0
 12 13  2  0  0  0  0
 13 14  1  0  0  0  0
 13 15  1  0  0  0  0
  3 11  2  0  0  0  0
M  END
>  <cdx:fragmentId>
5

$$$$
