93187.cdx
  Mrv1902 05222410242D          

 12 13  0  0  0  0            999 V2000
    6.8931   -7.0400    0.0000 C   0  0  0  0  0  0  0  0  0  0  0  0
    5.9581   -6.0088    0.0000 O   0  0  0  0  0  0  0  0  0  0  0  0
    6.5219   -5.5550    0.0000 C   0  0  0  0  0  0  0  0  0  0  0  0
    6.9756   -6.3113    0.0000 C   0  0  0  0  0  0  0  0  0  0  0  0
    5.6969   -7.0537    0.0000 C   0  0  0  0  0  0  0  0  0  0  0  0
    6.0131   -7.5900    0.0000 C   0  0  0  0  0  0  0  0  0  0  0  0
    7.6356   -7.1913    0.0000 C   0  0  0  0  0  0  0  0  0  0  0  0
    7.8556   -6.6413    0.0000 C   0  0  0  0  0  0  0  0  0  0  0  0
    6.3084   -4.7581    0.0000 C   0  0  0  0  0  0  0  0  0  0  0  0
    6.9344   -4.8405    0.0000 C   0  0  0  0  0  0  0  0  0  0  0  0
    7.1067   -7.8369    0.0000 C   0  0  0  0  0  0  0  0  0  0  0  0
    8.0273   -7.9174    0.0000 O   0  0  0  0  0  0  0  0  0  0  0  0
  1  2  1  0  0  0  0
  2  3  1  0  0  0  0
  3  4  1  0  0  0  0
  4  5  1  0  0  0  0
  5  6  1  0  0  0  0
  7  8  1  0  0  0  0
  1  6  1  0  0  0  0
  1  7  1  0  0  0  0
  4  8  1  0  0  0  0
  3  9  1  0  0  0  0
  3 10  1  0  0  0  0
  1 11  1  0  0  0  0
  7 12  2  0  0  0  0
M  END
>  <cdx:fragmentId>
4100

$$$$
