93188.cdx
  Mrv1902 05222410222D          

 11 11  0  0  0  0            999 V2000
    7.1721   -7.7307    0.0000 C   0  0  0  0  0  0  0  0  0  0  0  0
    7.8866   -7.3182    0.0000 C   0  0  0  0  0  0  0  0  0  0  0  0
    7.8866   -6.4932    0.0000 C   0  0  0  0  0  0  0  0  0  0  0  0
    7.1721   -6.0807    0.0000 C   0  0  0  0  0  0  0  0  0  0  0  0
    6.4576   -6.4932    0.0000 C   0  0  0  0  0  0  0  0  0  0  0  0
    6.4576   -7.3182    0.0000 C   0  0  0  0  0  0  0  0  0  0  0  0
    8.6011   -7.7307    0.0000 C   0  0  0  0  0  0  0  0  0  0  0  0
    9.3155   -7.3182    0.0000 C   0  0  0  0  0  0  0  0  0  0  0  0
    8.2991   -5.7787    0.0000 C   0  0  0  0  0  0  0  0  0  0  0  0
    8.7116   -6.4932    0.0000 C   0  0  0  0  0  0  0  0  0  0  0  0
    7.1721   -8.5557    0.0000 C   0  0  0  0  0  0  0  0  0  0  0  0
  1  2  2  0  0  0  0
  2  3  1  0  0  0  0
  3  4  1  0  0  0  0
  4  5  1  0  0  0  0
  5  6  1  0  0  0  0
  1  6  1  0  0  0  0
  7  8  2  0  0  0  0
  2  7  1  0  0  0  0
  3  9  1  0  0  0  0
  3 10  1  0  0  0  0
  1 11  1  0  0  0  0
M  END
>  <cdx:fragmentId>
5

$$$$
