93182.cdx
  Mrv1902 05222410242D          

 19 18  0  0  0  0            999 V2000
   12.0475   -8.6710    0.0000 C   0  0  0  0  0  0  0  0  0  0  0  0
   11.3330   -9.0835    0.0000 C   0  0  0  0  0  0  0  0  0  0  0  0
   10.6185   -8.6710    0.0000 C   0  0  0  0  0  0  0  0  0  0  0  0
    9.9040   -9.0835    0.0000 C   0  0  0  0  0  0  0  0  0  0  0  0
    9.1896   -8.6710    0.0000 C   0  0  0  0  0  0  0  0  0  0  0  0
    8.4751   -9.0835    0.0000 C   0  0  0  0  0  0  0  0  0  0  0  0
    7.7606   -8.6710    0.0000 C   0  0  0  0  0  0  0  0  0  0  0  0
    7.0462   -9.0835    0.0000 C   0  0  0  0  0  0  0  0  0  0  0  0
    6.3317   -8.6710    0.0000 C   0  0  0  0  0  0  0  0  0  0  0  0
    5.6172   -9.0835    0.0000 C   0  0  0  0  0  0  0  0  0  0  0  0
    4.9028   -8.6710    0.0000 C   0  0  0  0  0  0  0  0  0  0  0  0
    4.1883   -9.0835    0.0000 C   0  0  0  0  0  0  0  0  0  0  0  0
    3.4738   -8.6710    0.0000 C   0  0  0  0  0  0  0  0  0  0  0  0
    2.7593   -9.0835    0.0000 C   0  0  0  0  0  0  0  0  0  0  0  0
    2.0449   -8.6710    0.0000 C   0  0  0  0  0  0  0  0  0  0  0  0
    1.3304   -9.0835    0.0000 C   0  0  0  0  0  0  0  0  0  0  0  0
   12.0475   -7.8460    0.0000 O   0  0  0  0  0  0  0  0  0  0  0  0
   12.7619   -9.0835    0.0000 O   0  0  0  0  0  0  0  0  0  0  0  0
    3.4738   -7.8460    0.0000 O   0  0  0  0  0  0  0  0  0  0  0  0
  1  2  1  0  0  0  0
  2  3  1  0  0  0  0
  3  4  1  0  0  0  0
  4  5  1  0  0  0  0
  5  6  1  0  0  0  0
  6  7  1  0  0  0  0
  7  8  1  0  0  0  0
  8  9  1  0  0  0  0
  9 10  2  0  0  0  0
 10 11  1  0  0  0  0
 11 12  2  0  0  0  0
 12 13  1  0  0  0  0
 13 14  1  0  0  0  0
 14 15  1  0  0  0  0
 15 16  1  0  0  0  0
  1 17  2  0  0  0  0
  1 18  1  0  0  0  0
 13 19  1  0  0  0  0
M  END
>  <cdx:groupId>
58

>  <cdx:fragmentId>
5

$$$$
