93186.cdx
  Mrv1902 05222410242D          

 13 15  0  0  0  0            999 V2000
    7.9569   -7.6313    0.0000 C   0  0  0  0  0  0  0  0  0  0  0  0
    7.2424   -8.0437    0.0000 C   0  0  0  0  0  0  0  0  0  0  0  0
    6.5279   -7.6313    0.0000 C   0  0  0  0  0  0  0  0  0  0  0  0
    5.8135   -8.0437    0.0000 O   0  0  0  0  0  0  0  0  0  0  0  0
    5.8135   -8.8688    0.0000 C   0  0  0  0  0  0  0  0  0  0  0  0
    6.5279   -9.2813    0.0000 C   0  0  0  0  0  0  0  0  0  0  0  0
    7.2424   -8.8688    0.0000 C   0  0  0  0  0  0  0  0  0  0  0  0
    7.9569   -9.2813    0.0000 C   0  0  0  0  0  0  0  0  0  0  0  0
    8.6713   -8.8687    0.0000 C   0  0  0  0  0  0  0  0  0  0  0  0
    8.6713   -8.0437    0.0000 C   0  0  0  0  0  0  0  0  0  0  0  0
    8.2925   -8.4566    0.0000 O   0  0  0  0  0  0  0  0  0  0  0  0
    7.9569  -10.1063    0.0000 C   0  0  0  0  0  0  0  0  0  0  0  0
    7.9569   -6.8062    0.0000 C   0  0  0  0  0  0  0  0  0  0  0  0
  1  2  1  0  0  0  0
  2  3  2  0  0  0  0
  3  4  1  0  0  0  0
  4  5  1  0  0  0  0
  5  6  1  0  0  0  0
  6  7  1  0  0  0  0
  7  8  1  0  0  0  0
  8  9  1  0  0  0  0
  9 10  2  0  0  0  0
  1 10  1  0  0  0  0
  1 11  1  0  0  0  0
 11  8  1  0  0  0  0
  2  7  1  0  0  0  0
  8 12  1  0  0  0  0
  1 13  1  0  0  0  0
M  END
>  <cdx:groupId>
43

>  <cdx:fragmentId>
5

$$$$
