93190.cdx
  Mrv1902 05222410232D          

 28 31  0  0  0  0            999 V2000
    6.1205   -9.2897    0.0000 C   0  0  0  0  0  0  0  0  0  0  0  0
    6.8350   -9.7022    0.0000 N   0  0  0  0  0  0  0  0  0  0  0  0
    6.8350  -10.5272    0.0000 C   0  0  0  0  0  0  0  0  0  0  0  0
    6.1205  -10.9397    0.0000 C   0  0  0  0  0  0  0  0  0  0  0  0
    5.4060  -10.5272    0.0000 C   0  0  0  0  0  0  0  0  0  0  0  0
    4.6916  -10.9397    0.0000 C   0  0  0  0  0  0  0  0  0  0  0  0
    3.9771  -10.5272    0.0000 C   0  0  0  0  0  0  0  0  0  0  0  0
    3.9771   -9.7022    0.0000 C   0  0  0  0  0  0  0  0  0  0  0  0
    4.6916   -9.2897    0.0000 C   0  0  0  0  0  0  0  0  0  0  0  0
    5.4060   -9.7022    0.0000 C   0  0  0  0  0  0  0  0  0  0  0  0
    3.2626  -10.9397    0.0000 O   0  0  0  0  0  0  0  0  0  0  0  0
    2.5482  -10.5272    0.0000 C   0  0  0  0  0  0  0  0  0  0  0  0
    6.1205   -8.4647    0.0000 C   0  0  0  0  0  0  0  0  0  0  0  0
    6.8350   -8.0522    0.0000 C   0  0  0  0  0  0  0  0  0  0  0  0
    7.5494   -8.4647    0.0000 C   0  0  0  0  0  0  0  0  0  0  0  0
    8.2639   -8.0522    0.0000 C   0  0  0  0  0  0  0  0  0  0  0  0
    8.2639   -7.2272    0.0000 C   0  0  0  0  0  0  0  0  0  0  0  0
    7.5494   -6.8147    0.0000 C   0  0  0  0  0  0  0  0  0  0  0  0
    6.8350   -7.2272    0.0000 C   0  0  0  0  0  0  0  0  0  0  0  0
    7.5494   -5.9897    0.0000 O   0  0  0  0  0  0  0  0  0  0  0  0
    8.9784   -8.4647    0.0000 O   0  0  0  0  0  0  0  0  0  0  0  0
    9.6929   -8.0522    0.0000 C   0  0  0  0  0  0  0  0  0  0  0  0
   10.4073   -8.4647    0.0000 C   0  0  0  0  0  0  0  0  0  0  0  0
   11.1218   -8.0522    0.0000 C   0  0  0  0  0  0  0  0  0  0  0  0
   11.8363   -8.4647    0.0000 C   0  0  0  0  0  0  0  0  0  0  0  0
   11.8363   -9.2897    0.0000 C   0  0  0  0  0  0  0  0  0  0  0  0
   11.1218   -9.7022    0.0000 C   0  0  0  0  0  0  0  0  0  0  0  0
   10.4073   -9.2897    0.0000 C   0  0  0  0  0  0  0  0  0  0  0  0
  1  2  1  0  0  0  0
  2  3  1  0  0  0  0
  3  4  1  0  0  0  0
  4  5  1  0  0  0  0
  5  6  1  0  0  0  0
  6  7  2  0  0  0  0
  7  8  1  0  0  0  0
  8  9  2  0  0  0  0
  9 10  1  0  0  0  0
  1 10  1  0  0  0  0
  5 10  2  0  0  0  0
 11 12  1  0  0  0  0
  7 11  1  0  0  0  0
 13 14  1  0  0  0  0
 14 15  1  0  0  0  0
 15 16  2  0  0  0  0
 16 17  1  0  0  0  0
 17 18  2  0  0  0  0
 18 19  1  0  0  0  0
 14 19  2  0  0  0  0
 18 20  1  0  0  0  0
 22 23  1  0  0  0  0
 23 24  1  0  0  0  0
 24 25  2  0  0  0  0
 25 26  1  0  0  0  0
 26 27  2  0  0  0  0
 27 28  1  0  0  0  0
 23 28  2  0  0  0  0
 21 22  1  0  0  0  0
 16 21  1  0  0  0  0
  1 13  1  0  0  0  0
M  END
>  <cdx:groupId>
89

>  <cdx:fragmentId>
47

$$$$
