93194.cdx
  Mrv1902 05222410252D          

 11 10  0  0  0  0            999 V2000
    5.4813   -6.5741    0.0000 C   0  0  0  0  0  0  0  0  0  0  0  0
    8.0372   -9.3511    0.0000 C   0  0  0  0  0  0  0  0  0  0  0  0
    5.1793   -7.7011    0.0000 O   0  0  0  0  0  0  0  0  0  0  0  0
    9.4662   -8.5261    0.0000 C   0  0  0  0  0  0  0  0  0  0  0  0
    8.7517   -8.1136    0.0000 C   0  0  0  0  0  0  0  0  0  0  0  0
    8.0372   -8.5261    0.0000 C   0  0  0  0  0  0  0  0  0  0  0  0
    7.3227   -8.1136    0.0000 C   0  0  0  0  0  0  0  0  0  0  0  0
    7.3227   -7.2886    0.0000 C   0  0  0  0  0  0  0  0  0  0  0  0
    6.6083   -6.8761    0.0000 C   0  0  0  0  0  0  0  0  0  0  0  0
    5.8938   -7.2886    0.0000 C   0  0  0  0  0  0  0  0  0  0  0  0
    6.3063   -8.0030    0.0000 C   0  0  0  0  0  0  0  0  0  0  0  0
 10  1  1  0  0  0  0
  6  2  1  0  0  0  0
 10  3  1  0  0  0  0
  5  4  2  0  0  0  0
  6  5  1  0  0  0  0
  7  6  2  0  0  0  0
  8  7  1  0  0  0  0
  9  8  2  0  0  0  0
 10  9  1  0  0  0  0
 11 10  1  0  0  0  0
M  END
>  <cdx:fragmentId>
5

$$$$
