93199.cdx
  Mrv1902 05222410202D          

 22 25  0  0  0  0            999 V2000
    5.4573   -8.5125    0.0000 C   0  0  0  0  0  0  0  0  0  0  0  0
    4.7483   -8.0906    0.0000 C   0  0  0  0  0  0  0  0  0  0  0  0
    4.7591   -7.2657    0.0000 C   0  0  0  0  0  0  0  0  0  0  0  0
    5.4790   -6.8626    0.0000 C   0  0  0  0  0  0  0  0  0  0  0  0
    6.1879   -7.2845    0.0000 C   0  0  0  0  0  0  0  0  0  0  0  0
    6.9078   -6.8814    0.0000 O   0  0  0  0  0  0  0  0  0  0  0  0
    7.6168   -7.3033    0.0000 C   0  0  0  0  0  0  0  0  0  0  0  0
    8.3366   -6.9002    0.0000 O   0  0  0  0  0  0  0  0  0  0  0  0
    7.6059   -8.1282    0.0000 C   0  0  0  0  0  0  0  0  0  0  0  0
    8.2117   -8.6883    0.0000 C   0  0  0  0  0  0  0  0  0  0  0  0
    9.0332   -8.6128    0.0000 C   0  0  0  0  0  0  0  0  0  0  0  0
    9.5093   -9.2866    0.0000 C   0  0  0  0  0  0  0  0  0  0  0  0
    9.1639  -10.0358    0.0000 C   0  0  0  0  0  0  0  0  0  0  0  0
    8.3424  -10.1112    0.0000 C   0  0  0  0  0  0  0  0  0  0  0  0
    7.8663   -9.4375    0.0000 C   0  0  0  0  0  0  0  0  0  0  0  0
    7.0470   -9.3404    0.0000 O   0  0  0  0  0  0  0  0  0  0  0  0
    6.8861   -8.5313    0.0000 C   0  0  0  0  0  0  0  0  0  0  0  0
    6.1771   -8.1094    0.0000 C   0  0  0  0  0  0  0  0  0  0  0  0
    9.6400  -10.7095    0.0000 O   0  0  0  0  0  0  0  0  0  0  0  0
   10.3309   -9.2111    0.0000 O   0  0  0  0  0  0  0  0  0  0  0  0
    4.0501   -6.8439    0.0000 O   0  0  0  0  0  0  0  0  0  0  0  0
    5.4464   -9.3374    0.0000 O   0  0  0  0  0  0  0  0  0  0  0  0
  1  2  1  0  0  0  0
  2  3  2  0  0  0  0
  3  4  1  0  0  0  0
  4  5  2  0  0  0  0
  5  6  1  0  0  0  0
  6  7  1  0  0  0  0
  7  8  2  0  0  0  0
  7  9  1  0  0  0  0
  9 10  1  0  0  0  0
 10 11  1  0  0  0  0
 11 12  2  0  0  0  0
 12 13  1  0  0  0  0
 13 14  2  0  0  0  0
 14 15  1  0  0  0  0
 10 15  2  0  0  0  0
 15 16  1  0  0  0  0
 16 17  1  0  0  0  0
  9 17  2  0  0  0  0
 17 18  1  0  0  0  0
  5 18  1  0  0  0  0
  1 18  2  0  0  0  0
 13 19  1  0  0  0  0
 12 20  1  0  0  0  0
  3 21  1  0  0  0  0
  1 22  1  0  0  0  0
M  END
>  <cdx:groupId>
71

>  <cdx:fragmentId>
5

$$$$
