93195.cdx
  Mrv1902 05222410252D          

  8  7  0  0  0  0            999 V2000
    4.9260   -8.0359    0.0000 C   0  0  0  0  0  0  0  0  0  0  0  0
    5.7510   -8.0339    0.0000 C   0  0  0  0  0  0  0  0  0  0  0  0
    6.1653   -8.7473    0.0000 C   0  0  0  0  0  0  0  0  0  0  0  0
    6.9903   -8.7453    0.0000 C   0  0  0  0  0  0  0  0  0  0  0  0
    7.4010   -8.0297    0.0000 C   0  0  0  0  0  0  0  0  0  0  0  0
    8.2260   -8.0277    0.0000 C   0  0  0  0  0  0  0  0  0  0  0  0
    8.6403   -8.7411    0.0000 C   0  0  0  0  0  0  0  0  0  0  0  0
    9.4653   -8.7391    0.0000 C   0  0  0  0  0  0  0  0  0  0  0  0
  1  2  1  0  0  0  0
  2  3  1  0  0  0  0
  3  4  2  0  0  0  0
  4  5  1  0  0  0  0
  5  6  2  0  0  0  0
  6  7  1  0  0  0  0
  7  8  1  0  0  0  0
M  END
>  <cdx:fragmentId>
5

$$$$
