93193.cdx
  Mrv1902 05222410242D          

 23 25  0  0  0  0            999 V2000
    5.4129   -7.9356    0.0000 C   0  0  0  0  0  0  0  0  0  0  0  0
    4.6984   -8.3481    0.0000 C   0  0  0  0  0  0  0  0  0  0  0  0
    4.6984   -9.1731    0.0000 C   0  0  0  0  0  0  0  0  0  0  0  0
    5.4129   -9.5856    0.0000 C   0  0  2  0  0  0  0  0  0  0  0  0
    5.8254  -10.3001    0.0000 C   0  0  0  0  0  0  0  0  0  0  0  0
    5.0004  -10.3001    0.0000 C   0  0  0  0  0  0  0  0  0  0  0  0
    6.1274   -9.1731    0.0000 C   0  0  2  0  0  0  0  0  0  0  0  0
    6.1274   -9.9981    0.0000 H   0  0  0  0  0  0  0  0  0  0  0  0
    6.8419   -9.5856    0.0000 C   0  0  0  0  0  0  0  0  0  0  0  0
    7.5563   -9.1731    0.0000 C   0  0  0  0  0  0  0  0  0  0  0  0
    7.5563   -8.3481    0.0000 C   0  0  0  0  0  0  0  0  0  0  0  0
    8.2708   -7.9356    0.0000 C   0  0  0  0  0  0  0  0  0  0  0  0
    8.2708   -7.1106    0.0000 C   0  0  0  0  0  0  0  0  0  0  0  0
    7.5563   -6.6981    0.0000 C   0  0  0  0  0  0  0  0  0  0  0  0
    6.8419   -7.1106    0.0000 C   0  0  0  0  0  0  0  0  0  0  0  0
    6.8419   -7.9356    0.0000 C   0  0  0  0  0  0  0  0  0  0  0  0
    6.1274   -8.3481    0.0000 C   0  0  1  0  0  0  0  0  0  0  0  0
    6.1274   -7.5231    0.0000 C   0  0  0  0  0  0  0  0  0  0  0  0
    8.9853   -6.6981    0.0000 O   0  0  0  0  0  0  0  0  0  0  0  0
    9.6997   -7.1106    0.0000 C   0  0  0  0  0  0  0  0  0  0  0  0
    8.9853   -8.3481    0.0000 C   0  0  0  0  0  0  0  0  0  0  0  0
    8.9853   -9.1731    0.0000 C   0  0  0  0  0  0  0  0  0  0  0  0
    9.6997   -7.9356    0.0000 C   0  0  0  0  0  0  0  0  0  0  0  0
  1  2  1  0  0  0  0
  2  3  1  0  0  0  0
  3  4  1  0  0  0  0
  4  5  1  6  0  0  0
  4  6  1  1  0  0  0
  4  7  1  0  0  0  0
  7  8  1  6  0  0  0
  7  9  1  0  0  0  0
  9 10  2  0  0  0  0
 10 11  1  0  0  0  0
 11 12  1  0  0  0  0
 12 13  2  0  0  0  0
 13 14  1  0  0  0  0
 14 15  2  0  0  0  0
 15 16  1  0  0  0  0
 11 16  2  0  0  0  0
 16 17  1  0  0  0  0
 17 18  1  1  0  0  0
  1 17  1  0  0  0  0
  7 17  1  0  0  0  0
 19 20  1  0  0  0  0
 13 19  1  0  0  0  0
 21 22  1  0  0  0  0
 21 23  1  0  0  0  0
 12 21  1  0  0  0  0
M  END
>  <cdx:fragmentId>
5

$$$$
