93197.cdx
  Mrv1902 05222410252D          

 12 13  0  0  0  0            999 V2000
    8.2342   -7.3903    0.0000 C   0  0  0  0  0  0  0  0  0  0  0  0
    9.0411   -7.2187    0.0000 O   0  0  0  0  0  0  0  0  0  0  0  0
    7.9792   -9.5098    0.0000 O   0  0  0  0  0  0  0  0  0  0  0  0
    8.4641   -8.8423    0.0000 C   0  0  0  0  0  0  0  0  0  0  0  0
    7.9792   -8.1749    0.0000 C   0  0  1  0  0  0  0  0  0  0  0  0
    7.1946   -8.4298    0.0000 C   0  0  0  0  0  0  0  0  0  0  0  0
    6.4801   -8.0173    0.0000 C   0  0  0  0  0  0  0  0  0  0  0  0
    5.7657   -8.4298    0.0000 C   0  0  0  0  0  0  0  0  0  0  0  0
    5.7657   -9.2548    0.0000 C   0  0  0  0  0  0  0  0  0  0  0  0
    6.4801   -9.6673    0.0000 C   0  0  0  0  0  0  0  0  0  0  0  0
    7.1946   -9.2548    0.0000 C   0  0  0  0  0  0  0  0  0  0  0  0
    5.0512   -8.0173    0.0000 C   0  0  0  0  0  0  0  0  0  0  0  0
  1  2  1  0  0  0  0
  3  4  1  0  0  0  0
  4  5  1  0  0  0  0
  5  6  1  0  0  0  0
  6  7  1  0  0  0  0
  7  8  2  0  0  0  0
  8  9  1  0  0  0  0
  9 10  2  0  0  0  0
 10 11  1  0  0  0  0
  6 11  2  0  0  0  0
  3 11  1  0  0  0  0
  8 12  1  0  0  0  0
  5  1  1  1  0  0  0
M  END
>  <cdx:groupId>
39

>  <cdx:fragmentId>
9

$$$$
