93196.cdx
  Mrv1902 05222410242D          

 12 13  0  0  0  0            999 V2000
    6.4294   -8.3380    0.0000 C   0  0  0  0  0  0  0  0  0  0  0  0
    6.4294   -9.1630    0.0000 C   0  0  0  0  0  0  0  0  0  0  0  0
    5.7149   -9.5755    0.0000 C   0  0  0  0  0  0  0  0  0  0  0  0
    5.0004   -9.1630    0.0000 C   0  0  0  0  0  0  0  0  0  0  0  0
    5.0004   -8.3380    0.0000 C   0  0  0  0  0  0  0  0  0  0  0  0
    5.7149   -7.9255    0.0000 C   0  0  0  0  0  0  0  0  0  0  0  0
    7.1438   -7.9255    0.0000 C   0  0  2  0  0  0  0  0  0  0  0  0
    7.9688   -7.9255    0.0000 C   0  0  0  0  0  0  0  0  0  0  0  0
    7.5563   -7.2111    0.0000 C   0  0  0  0  0  0  0  0  0  0  0  0
    8.6833   -9.1630    0.0000 C   0  0  0  0  0  0  0  0  0  0  0  0
    8.6833   -8.3380    0.0000 C   0  0  0  0  0  0  0  0  0  0  0  0
    9.3978   -7.9255    0.0000 C   0  0  0  0  0  0  0  0  0  0  0  0
  1  2  1  0  0  0  0
  2  3  2  0  0  0  0
  3  4  1  0  0  0  0
  4  5  2  0  0  0  0
  5  6  1  0  0  0  0
  1  6  2  0  0  0  0
  7  8  1  0  0  0  0
  8  9  1  0  0  0  0
  7  9  1  0  0  0  0
 10 11  1  0  0  0  0
 11 12  1  0  0  0  0
  8 11  2  0  0  0  0
  7  1  1  1  0  0  0
M  END
>  <cdx:fragmentId>
5

$$$$
