93198.cdx
  Mrv1902 05222410212D          

 10  9  0  0  0  0            999 V2000
    6.8437   -8.7656    0.0000 S   0  0  0  0  0  0  0  0  0  0  0  0
    7.5522   -8.3429    0.0000 C   0  0  0  0  0  0  0  0  0  0  0  0
    4.6946   -8.3837    0.0000 S   0  0  0  0  0  0  0  0  0  0  0  0
    5.4149   -8.7860    0.0000 C   0  0  0  0  0  0  0  0  0  0  0  0
    6.1234   -8.3633    0.0000 S   0  0  0  0  0  0  0  0  0  0  0  0
    5.4267   -9.6109    0.0000 C   0  0  0  0  0  0  0  0  0  0  0  0
    8.2725   -8.7452    0.0000 C   0  0  0  0  0  0  0  0  0  0  0  0
    8.9810   -8.3225    0.0000 C   0  0  0  0  0  0  0  0  0  0  0  0
    3.9861   -8.8064    0.0000 C   0  0  0  0  0  0  0  0  0  0  0  0
    4.7182  -10.0335    0.0000 C   0  0  0  0  0  0  0  0  0  0  0  0
  1  2  1  0  0  0  0
  3  4  1  0  0  0  0
  4  5  1  0  0  0  0
  4  6  1  0  0  0  0
  1  5  1  0  0  0  0
  7  8  1  0  0  0  0
  2  7  2  0  0  0  0
  3  9  1  0  0  0  0
  6 10  1  0  0  0  0
M  END
>  <cdx:groupId>
34

>  <cdx:fragmentId>
9

$$$$
