93191.cdx
  Mrv1902 05222410232D          

 10 10  0  0  0  0            999 V2000
    8.0977   -7.6405    0.0000 C   0  0  0  0  0  0  0  0  0  0  0  0
    8.2813   -8.4448    0.0000 C   0  0  0  0  0  0  0  0  0  0  0  0
    7.7669   -9.0898    0.0000 C   0  0  0  0  0  0  0  0  0  0  0  0
    6.9419   -9.0898    0.0000 C   0  0  0  0  0  0  0  0  0  0  0  0
    6.4275   -8.4448    0.0000 C   0  0  0  0  0  0  0  0  0  0  0  0
    6.6111   -7.6405    0.0000 C   0  0  0  0  0  0  0  0  0  0  0  0
    7.3544   -7.2825    0.0000 C   0  0  0  0  0  0  0  0  0  0  0  0
    5.6232   -8.6283    0.0000 C   0  0  0  0  0  0  0  0  0  0  0  0
    8.1794   -9.8043    0.0000 C   0  0  0  0  0  0  0  0  0  0  0  0
    8.7427   -7.1261    0.0000 C   0  0  0  0  0  0  0  0  0  0  0  0
  1  2  1  0  0  0  0
  2  3  1  0  0  0  0
  3  4  1  0  0  0  0
  4  5  1  0  0  0  0
  5  6  1  0  0  0  0
  6  7  1  0  0  0  0
  1  7  1  0  0  0  0
  5  8  2  0  0  0  0
  3  9  2  0  0  0  0
  1 10  2  0  0  0  0
M  END
>  <cdx:groupId>
32

>  <cdx:fragmentId>
5

$$$$
