93207.cdx
  Mrv1902 05222410212D          

 19 21  0  0  0  0            999 V2000
    5.9116   -7.5079    0.0000 C   0  0  0  0  0  0  0  0  0  0  0  0
    5.4311   -8.1785    0.0000 C   0  0  0  0  0  0  0  0  0  0  0  0
    5.9204   -8.8428    0.0000 C   0  0  2  0  0  0  0  0  0  0  0  0
    6.7033   -8.5827    0.0000 C   0  0  1  0  0  0  0  0  0  0  0  0
    7.3517   -9.0928    0.0000 C   0  0  1  0  0  0  0  0  0  0  0  0
    8.1548   -8.9039    0.0000 C   0  0  1  0  0  0  0  0  0  0  0  0
    8.5078   -8.1583    0.0000 C   0  0  0  0  0  0  0  0  0  0  0  0
    8.1450   -7.4174    0.0000 C   0  0  0  0  0  0  0  0  0  0  0  0
    7.3395   -7.2391    0.0000 C   0  0  0  0  0  0  0  0  0  0  0  0
    6.6979   -7.7577    0.0000 C   0  0  1  0  0  0  0  0  0  0  0  0
    7.9168   -9.6939    0.0000 C   0  0  0  0  0  0  0  0  0  0  0  0
    7.1506   -6.4360    0.0000 C   0  0  0  0  0  0  0  0  0  0  0  0
    5.6706   -9.6291    0.0000 C   0  0  0  0  0  0  0  0  0  0  0  0
    8.4819  -10.2949    0.0000 C   0  0  0  0  0  0  0  0  0  0  0  0
    7.6788  -10.4838    0.0000 C   0  0  0  0  0  0  0  0  0  0  0  0
    8.9247   -9.2003    0.0000 H   0  0  0  0  0  0  0  0  0  0  0  0
    6.5452   -6.9469    0.0000 H   0  0  0  0  0  0  0  0  0  0  0  0
    6.5654   -9.3961    0.0000 H   0  0  0  0  0  0  0  0  0  0  0  0
    6.9087   -9.7887    0.0000 H   0  0  0  0  0  0  0  0  0  0  0  0
  1  2  1  0  0  0  0
  2  3  1  0  0  0  0
  3  4  1  0  0  0  0
  4  5  1  0  0  0  0
  5  6  1  0  0  0  0
  6  7  1  0  0  0  0
  7  8  1  0  0  0  0
  8  9  1  0  0  0  0
  9 10  1  0  0  0  0
  1 10  1  0  0  0  0
  4 10  1  0  0  0  0
 11  5  1  0  0  0  0
 11  6  1  0  0  0  0
  9 12  2  0  0  0  0
  3 13  1  6  0  0  0
 11 14  1  0  0  0  0
 11 15  1  0  0  0  0
  6 16  1  6  0  0  0
 10 17  1  1  0  0  0
  4 18  1  1  0  0  0
  5 19  1  6  0  0  0
M  END
>  <cdx:fragmentId>
5

$$$$
