93208.cdx
  Mrv1902 05222410252D          

 18 19  0  0  0  0            999 V2000
    5.5514   -6.8613    0.0000 C   0  0  0  0  0  0  0  0  0  0  0  0
    5.5514   -7.6863    0.0000 C   0  0  0  0  0  0  0  0  0  0  0  0
    6.2659   -8.0987    0.0000 C   0  0  2  0  0  0  0  0  0  0  0  0
    6.9803   -7.6863    0.0000 C   0  0  2  0  0  0  0  0  0  0  0  0
    6.9803   -6.8613    0.0000 C   0  0  2  0  0  0  0  0  0  0  0  0
    6.2659   -6.4487    0.0000 C   0  0  2  0  0  0  0  0  0  0  0  0
    7.6948   -8.0987    0.0000 C   0  0  0  0  0  0  0  0  0  0  0  0
    8.4093   -7.6863    0.0000 C   0  0  0  0  0  0  0  0  0  0  0  0
    8.4093   -6.8613    0.0000 C   0  0  0  0  0  0  0  0  0  0  0  0
    7.6948   -6.4487    0.0000 C   0  0  0  0  0  0  0  0  0  0  0  0
    9.1238   -6.4487    0.0000 C   0  0  0  0  0  0  0  0  0  0  0  0
    5.8534   -8.8132    0.0000 O   0  0  0  0  0  0  0  0  0  0  0  0
    6.6784   -8.8132    0.0000 C   0  0  0  0  0  0  0  0  0  0  0  0
    6.2659   -5.6238    0.0000 C   0  0  0  0  0  0  0  0  0  0  0  0
    5.5514   -5.2113    0.0000 C   0  0  0  0  0  0  0  0  0  0  0  0
    6.9803   -5.2113    0.0000 C   0  0  0  0  0  0  0  0  0  0  0  0
    6.9803   -6.0362    0.0000 H   0  0  0  0  0  0  0  0  0  0  0  0
    6.9803   -8.5113    0.0000 H   0  0  0  0  0  0  0  0  0  0  0  0
  1  2  1  0  0  0  0
  2  3  1  0  0  0  0
  3  4  1  0  0  0  0
  4  5  1  0  0  0  0
  5  6  1  0  0  0  0
  6  1  1  0  0  0  0
  4  7  1  0  0  0  0
  7  8  1  0  0  0  0
  8  9  1  0  0  0  0
  9 10  2  0  0  0  0
 10  5  1  0  0  0  0
  9 11  1  0  0  0  0
  3 12  1  6  0  0  0
  3 13  1  0  0  0  0
  6 14  1  1  0  0  0
 14 15  1  0  0  0  0
 14 16  1  0  0  0  0
  5 17  1  1  0  0  0
  4 18  1  1  0  0  0
M  END
>  <cdx:fragmentId>
65

$$$$
