93209.cdx
  Mrv1902 05222410262D          

 15 16  0  0  0  0            999 V2000
    8.2764   -7.4875    0.0000 C   0  0  1  0  0  0  0  0  0  0  0  0
    9.0610   -7.7425    0.0000 C   0  0  0  0  0  0  0  0  0  0  0  0
    9.0610   -8.5675    0.0000 C   0  0  0  0  0  0  0  0  0  0  0  0
    8.2764   -8.8224    0.0000 C   0  0  1  0  0  0  0  0  0  0  0  0
    7.7915   -8.1550    0.0000 C   0  0  1  0  0  0  0  0  0  0  0  0
    7.3790   -8.8694    0.0000 C   0  0  0  0  0  0  0  0  0  0  0  0
    6.5540   -8.8694    0.0000 C   0  0  0  0  0  0  0  0  0  0  0  0
    6.1415   -8.1550    0.0000 C   0  0  0  0  0  0  0  0  0  0  0  0
    6.5540   -7.4405    0.0000 C   0  0  0  0  0  0  0  0  0  0  0  0
    7.3790   -7.4405    0.0000 C   0  0  0  0  0  0  0  0  0  0  0  0
    8.0215   -9.6070    0.0000 C   0  0  0  0  0  0  0  0  0  0  0  0
    8.6048  -10.1904    0.0000 C   0  0  0  0  0  0  0  0  0  0  0  0
    7.2145   -9.7785    0.0000 C   0  0  0  0  0  0  0  0  0  0  0  0
    5.3165   -8.1550    0.0000 C   0  0  0  0  0  0  0  0  0  0  0  0
    8.0215   -6.7029    0.0000 C   0  0  0  0  0  0  0  0  0  0  0  0
  1  2  1  0  0  0  0
  2  3  1  0  0  0  0
  3  4  1  0  0  0  0
  5  4  1  0  0  0  0
  5  6  1  1  0  0  0
  6  7  1  0  0  0  0
  7  8  2  0  0  0  0
  8  9  1  0  0  0  0
  9 10  1  0  0  0  0
  5  1  1  0  0  0  0
  5 10  1  6  0  0  0
 11 12  2  0  0  0  0
 11 13  1  0  0  0  0
  4 11  1  6  0  0  0
  8 14  1  0  0  0  0
  1 15  1  1  0  0  0
M  END
>  <cdx:groupId>
48

>  <cdx:fragmentId>
5

$$$$
