93206.cdx
  Mrv1902 05222410212D          

 18 20  0  0  0  0            999 V2000
    7.3267   -9.2336    0.0000 C   0  0  1  0  0  0  0  0  0  0  0  0
    7.3267   -8.4086    0.0000 C   0  0  2  0  0  0  0  0  0  0  0  0
    8.1113   -8.1536    0.0000 C   0  0  1  0  0  0  0  0  0  0  0  0
    8.5963   -8.8211    0.0000 C   0  0  0  0  0  0  0  0  0  0  0  0
    8.1113   -9.4885    0.0000 C   0  0  0  0  0  0  0  0  0  0  0  0
    6.5017   -8.4086    0.0000 C   0  0  1  0  0  0  0  0  0  0  0  0
    6.5017   -9.2336    0.0000 C   0  0  2  0  0  0  0  0  0  0  0  0
    5.7171   -9.4885    0.0000 C   0  0  0  0  0  0  0  0  0  0  0  0
    5.2322   -8.8211    0.0000 C   0  0  0  0  0  0  0  0  0  0  0  0
    5.7171   -8.1536    0.0000 C   0  0  0  0  0  0  0  0  0  0  0  0
    8.3663   -7.3690    0.0000 C   0  0  0  0  0  0  0  0  0  0  0  0
    7.8143   -6.7559    0.0000 C   0  0  0  0  0  0  0  0  0  0  0  0
    9.1733   -7.1975    0.0000 C   0  0  0  0  0  0  0  0  0  0  0  0
    5.4622   -7.3690    0.0000 C   0  0  0  0  0  0  0  0  0  0  0  0
    7.3267  -10.0586    0.0000 C   0  0  0  0  0  0  0  0  0  0  0  0
    6.5017  -10.0586    0.0000 H   0  0  0  0  0  0  0  0  0  0  0  0
    6.5017   -7.5836    0.0000 H   0  0  0  0  0  0  0  0  0  0  0  0
    7.3267   -7.5836    0.0000 H   0  0  0  0  0  0  0  0  0  0  0  0
  1  2  1  0  0  0  0
  2  3  1  0  0  0  0
  3  4  1  0  0  0  0
  4  5  1  0  0  0  0
  1  5  1  0  0  0  0
  6  7  1  0  0  0  0
  7  8  1  0  0  0  0
  8  9  1  0  0  0  0
  9 10  1  0  0  0  0
  6 10  1  0  0  0  0
  2  6  1  0  0  0  0
  1  7  1  0  0  0  0
 11 12  1  0  0  0  0
 11 13  1  0  0  0  0
  3 11  1  6  0  0  0
 10 14  2  0  0  0  0
  1 15  1  6  0  0  0
  7 16  1  6  0  0  0
  6 17  1  6  0  0  0
  2 18  1  6  0  0  0
M  END
>  <cdx:groupId>
58

>  <cdx:fragmentId>
15

$$$$
