93205.cdx
  Mrv1902 05222410212D          

 15 15  0  0  0  0            999 V2000
    5.7001   -6.7555    0.0000 C   0  0  0  0  0  0  0  0  0  0  0  0
    8.3781   -7.4394    0.0000 C   0  0  0  0  0  0  0  0  0  0  0  0
    8.3645   -6.6145    0.0000 C   0  0  0  0  0  0  0  0  0  0  0  0
    7.3500   -6.7419    0.0000 C   0  0  0  0  0  0  0  0  0  0  0  0
    6.5251   -6.7555    0.0000 C   0  0  0  0  0  0  0  0  0  0  0  0
    9.0993   -7.8400    0.0000 C   0  0  0  0  0  0  0  0  0  0  0  0
    6.2828  -10.3620    0.0000 C   0  0  0  0  0  0  0  0  0  0  0  0
    7.7116  -10.3383    0.0000 C   0  0  0  0  0  0  0  0  0  0  0  0
    6.9904   -9.9377    0.0000 C   0  0  0  0  0  0  0  0  0  0  0  0
    6.2418   -7.8873    0.0000 C   0  0  0  0  0  0  0  0  0  0  0  0
    6.2555   -8.7122    0.0000 C   0  0  0  0  0  0  0  0  0  0  0  0
    6.9767   -9.1128    0.0000 C   0  0  2  0  0  0  0  0  0  0  0  0
    7.6842   -8.6886    0.0000 C   0  0  0  0  0  0  0  0  0  0  0  0
    7.6706   -7.8637    0.0000 C   0  0  2  0  0  0  0  0  0  0  0  0
    6.9494   -7.4631    0.0000 C   0  0  1  0  0  0  0  0  0  0  0  0
  5  1  2  0  0  0  0
 15  4  1  6  0  0  0
 15  5  1  0  0  0  0
 14  2  1  6  0  0  0
 12  9  1  6  0  0  0
  9  7  1  0  0  0  0
  9  8  2  0  0  0  0
 15 10  1  0  0  0  0
 11 10  1  0  0  0  0
 12 11  1  0  0  0  0
 13 12  1  0  0  0  0
 14 13  1  0  0  0  0
 15 14  1  0  0  0  0
  2  3  1  0  0  0  0
  2  6  2  0  0  0  0
M  END
>  <cdx:fragmentId>
5

$$$$
