9320.cdx
  Mrv1902 05222410232D          

 20 22  0  0  0  0            999 V2000
    8.4120   -9.0625    0.0000 C   0  0  0  0  0  0  0  0  0  0  0  0
    8.8969   -8.3950    0.0000 C   0  0  0  0  0  0  0  0  0  0  0  0
    8.4120   -7.7276    0.0000 C   0  0  2  0  0  0  0  0  0  0  0  0
    7.6273   -7.9825    0.0000 C   0  0  2  0  0  0  0  0  0  0  0  0
    6.9823   -7.4681    0.0000 C   0  0  2  0  0  0  0  0  0  0  0  0
    6.1780   -7.6517    0.0000 C   0  0  2  0  0  0  0  0  0  0  0  0
    5.8201   -8.3950    0.0000 C   0  0  0  0  0  0  0  0  0  0  0  0
    6.1780   -9.1383    0.0000 C   0  0  0  0  0  0  0  0  0  0  0  0
    6.9823   -9.3219    0.0000 C   0  0  0  0  0  0  0  0  0  0  0  0
    7.6273   -8.8075    0.0000 C   0  0  1  0  0  0  0  0  0  0  0  0
    6.4212   -6.8634    0.0000 C   0  0  0  0  0  0  0  0  0  0  0  0
    8.2404   -6.9206    0.0000 O   0  0  0  0  0  0  0  0  0  0  0  0
    7.1659  -10.1262    0.0000 C   0  0  0  0  0  0  0  0  0  0  0  0
    9.0251   -7.1755    0.0000 C   0  0  0  0  0  0  0  0  0  0  0  0
    5.8600   -6.2586    0.0000 C   0  0  0  0  0  0  0  0  0  0  0  0
    6.6644   -6.0750    0.0000 C   0  0  0  0  0  0  0  0  0  0  0  0
    5.4100   -7.3503    0.0000 H   0  0  0  0  0  0  0  0  0  0  0  0
    7.7746   -9.6193    0.0000 H   0  0  0  0  0  0  0  0  0  0  0  0
    7.7706   -7.1700    0.0000 H   0  0  0  0  0  0  0  0  0  0  0  0
    7.4299   -6.7751    0.0000 H   0  0  0  0  0  0  0  0  0  0  0  0
  1  2  1  0  0  0  0
  2  3  1  0  0  0  0
  3  4  1  0  0  0  0
  4  5  1  0  0  0  0
  5  6  1  0  0  0  0
  6  7  1  0  0  0  0
  7  8  1  0  0  0  0
  8  9  1  0  0  0  0
  9 10  1  0  0  0  0
  1 10  1  0  0  0  0
  4 10  1  0  0  0  0
 11  5  1  0  0  0  0
 11  6  1  0  0  0  0
  3 12  1  6  0  0  0
  9 13  2  0  0  0  0
  3 14  1  1  0  0  0
 11 15  1  0  0  0  0
 11 16  1  0  0  0  0
  6 17  1  1  0  0  0
 10 18  1  1  0  0  0
  4 19  1  6  0  0  0
  5 20  1  1  0  0  0
M  END
>  <cdx:fragmentId>
5

$$$$
