93217.cdx
  Mrv1902 05222410222D          

 17 19  0  0  0  0            999 V2000
    8.1425   -8.5979    0.0000 C   0  0  0  0  0  0  0  0  0  0  0  0
    8.6945   -9.2110    0.0000 N   0  0  0  0  0  0  0  0  0  0  0  0
    8.4396   -9.9957    0.0000 C   0  0  0  0  0  0  0  0  0  0  0  0
    7.6326  -10.1672    0.0000 C   0  0  0  0  0  0  0  0  0  0  0  0
    7.0806   -9.5541    0.0000 C   0  0  0  0  0  0  0  0  0  0  0  0
    6.2556   -9.5541    0.0000 C   0  0  0  0  0  0  0  0  0  0  0  0
    5.7036  -10.1672    0.0000 C   0  0  0  0  0  0  0  0  0  0  0  0
    4.8966   -9.9957    0.0000 C   0  0  0  0  0  0  0  0  0  0  0  0
    4.6416   -9.2110    0.0000 C   0  0  0  0  0  0  0  0  0  0  0  0
    5.1937   -8.5979    0.0000 C   0  0  0  0  0  0  0  0  0  0  0  0
    6.0006   -8.7695    0.0000 C   0  0  0  0  0  0  0  0  0  0  0  0
    6.6681   -8.2845    0.0000 N   0  0  0  0  0  0  0  0  0  0  0  0
    7.3355   -8.7695    0.0000 C   0  0  0  0  0  0  0  0  0  0  0  0
    8.3974   -7.8133    0.0000 C   0  0  0  0  0  0  0  0  0  0  0  0
    9.2044   -7.6418    0.0000 C   0  0  0  0  0  0  0  0  0  0  0  0
    9.4593   -6.8572    0.0000 O   0  0  0  0  0  0  0  0  0  0  0  0
    7.8454   -7.2002    0.0000 O   0  0  0  0  0  0  0  0  0  0  0  0
  1  2  2  0  0  0  0
  2  3  1  0  0  0  0
  3  4  2  0  0  0  0
  4  5  1  0  0  0  0
  5  6  1  0  0  0  0
  6  7  1  0  0  0  0
  7  8  2  0  0  0  0
  8  9  1  0  0  0  0
  9 10  2  0  0  0  0
 10 11  1  0  0  0  0
  6 11  2  0  0  0  0
 11 12  1  0  0  0  0
 12 13  1  0  0  0  0
  5 13  2  0  0  0  0
  1 13  1  0  0  0  0
 14 15  2  0  0  0  0
 15 16  1  0  0  0  0
 14 17  1  0  0  0  0
  1 14  1  0  0  0  0
M  END
>  <cdx:groupId>
55

>  <cdx:fragmentId>
5

$$$$
