93218.cdx
  Mrv1902 05222410242D          

 21 23  0  0  0  0            999 V2000
    8.3911   -8.1207    0.0000 C   0  0  0  0  0  0  0  0  0  0  0  0
    8.9431   -8.7338    0.0000 N   0  0  0  0  0  0  0  0  0  0  0  0
    8.6882   -9.5184    0.0000 C   0  0  0  0  0  0  0  0  0  0  0  0
    7.8812   -9.6899    0.0000 C   0  0  0  0  0  0  0  0  0  0  0  0
    7.3292   -9.0768    0.0000 C   0  0  0  0  0  0  0  0  0  0  0  0
    6.5042   -9.0768    0.0000 C   0  0  0  0  0  0  0  0  0  0  0  0
    5.9522   -9.6899    0.0000 C   0  0  0  0  0  0  0  0  0  0  0  0
    5.1452   -9.5184    0.0000 C   0  0  0  0  0  0  0  0  0  0  0  0
    4.8902   -8.7338    0.0000 C   0  0  0  0  0  0  0  0  0  0  0  0
    5.4423   -8.1207    0.0000 C   0  0  0  0  0  0  0  0  0  0  0  0
    6.2492   -8.2922    0.0000 C   0  0  0  0  0  0  0  0  0  0  0  0
    6.9167   -7.8073    0.0000 N   0  0  0  0  0  0  0  0  0  0  0  0
    7.5841   -8.2922    0.0000 C   0  0  0  0  0  0  0  0  0  0  0  0
    5.1873   -7.3361    0.0000 O   0  0  0  0  0  0  0  0  0  0  0  0
    4.3804   -7.1645    0.0000 C   0  0  0  0  0  0  0  0  0  0  0  0
    7.6263  -10.4746    0.0000 O   0  0  0  0  0  0  0  0  0  0  0  0
    6.8193  -10.6461    0.0000 C   0  0  0  0  0  0  0  0  0  0  0  0
    8.6460   -7.3361    0.0000 C   0  0  0  0  0  0  0  0  0  0  0  0
    9.4530   -7.1645    0.0000 C   0  0  0  0  0  0  0  0  0  0  0  0
    9.7079   -6.3799    0.0000 O   0  0  0  0  0  0  0  0  0  0  0  0
    8.0940   -6.7230    0.0000 O   0  0  0  0  0  0  0  0  0  0  0  0
  1  2  2  0  0  0  0
  2  3  1  0  0  0  0
  3  4  2  0  0  0  0
  4  5  1  0  0  0  0
  5  6  1  0  0  0  0
  6  7  1  0  0  0  0
  7  8  2  0  0  0  0
  8  9  1  0  0  0  0
  9 10  2  0  0  0  0
 10 11  1  0  0  0  0
  6 11  2  0  0  0  0
 11 12  1  0  0  0  0
 12 13  1  0  0  0  0
  5 13  2  0  0  0  0
  1 13  1  0  0  0  0
 14 15  1  0  0  0  0
 10 14  1  0  0  0  0
 16 17  1  0  0  0  0
  4 16  1  0  0  0  0
 18 19  1  0  0  0  0
 19 20  1  0  0  0  0
 18 21  1  0  0  0  0
  1 18  1  0  0  0  0
M  END
>  <cdx:groupId>
67

>  <cdx:fragmentId>
5

$$$$
