93216.cdx
  Mrv1902 05222410222D          

 18 18  0  0  0  0            999 V2000
    7.7822   -6.1701    0.0000 C   0  0  0  0  0  0  0  0  0  0  0  0
    7.0678   -5.7576    0.0000 C   0  0  0  0  0  0  0  0  0  0  0  0
    6.3533   -6.1701    0.0000 C   0  0  0  0  0  0  0  0  0  0  0  0
    5.6388   -5.7576    0.0000 C   0  0  0  0  0  0  0  0  0  0  0  0
    5.6388   -4.9326    0.0000 C   0  0  0  0  0  0  0  0  0  0  0  0
    6.3533   -4.5201    0.0000 C   0  0  0  0  0  0  0  0  0  0  0  0
    7.0678   -4.9326    0.0000 C   0  0  0  0  0  0  0  0  0  0  0  0
    7.7822   -4.5201    0.0000 C   0  0  1  0  0  0  0  0  0  0  0  0
    8.4967   -4.9326    0.0000 C   0  0  0  0  0  0  0  0  0  0  0  0
    8.4967   -5.7576    0.0000 C   0  0  0  0  0  0  0  0  0  0  0  0
    7.7822   -3.6951    0.0000 C   0  0  0  0  0  0  0  0  0  0  0  0
    7.0678   -3.2826    0.0000 C   0  0  0  0  0  0  0  0  0  0  0  0
    8.4967   -3.2826    0.0000 C   0  0  0  0  0  0  0  0  0  0  0  0
    4.9243   -4.5201    0.0000 C   0  0  0  0  0  0  0  0  0  0  0  0
    7.7822   -6.9951    0.0000 C   0  0  0  0  0  0  0  0  0  0  0  0
    6.6553   -5.0431    0.0000 H   0  0  0  0  0  0  0  0  0  0  0  0
    6.3533   -3.6951    0.0000 H   0  0  0  0  0  0  0  0  0  0  0  0
    7.4803   -5.6471    0.0000 H   0  0  0  0  0  0  0  0  0  0  0  0
  1  2  2  0  0  0  0
  2  3  1  0  0  0  0
  3  4  1  0  0  0  0
  4  5  1  0  0  0  0
  5  6  1  0  0  0  0
  6  7  2  0  0  0  0
  7  8  1  0  0  0  0
  8  9  1  0  0  0  0
  9 10  1  0  0  0  0
  1 10  1  0  0  0  0
 11 12  1  0  0  0  0
 11 13  1  0  0  0  0
  8 11  1  6  0  0  0
  5 14  2  0  0  0  0
  1 15  1  0  0  0  0
  2 16  1  0  0  0  0
  6 17  1  0  0  0  0
  7 18  1  0  0  0  0
M  END
>  <cdx:fragmentId>
32100

$$$$
