93214.cdx
  Mrv1902 05222410232D          

 17 18  0  0  0  0            999 V2000
    7.0634   -7.6864    0.0000 C   0  0  0  0  0  0  0  0  0  0  0  0
    6.3489   -7.2739    0.0000 C   0  0  0  0  0  0  0  0  0  0  0  0
    5.6344   -7.6864    0.0000 C   0  0  0  0  0  0  0  0  0  0  0  0
    5.6344   -8.5114    0.0000 C   0  0  0  0  0  0  0  0  0  0  0  0
    6.3489   -8.9239    0.0000 C   0  0  0  0  0  0  0  0  0  0  0  0
    7.0634   -8.5114    0.0000 C   0  0  2  0  0  0  0  0  0  0  0  0
    7.0634   -9.3364    0.0000 O   0  0  0  0  0  0  0  0  0  0  0  0
    7.7778   -8.9239    0.0000 C   0  0  2  0  0  0  0  0  0  0  0  0
    7.7778   -9.7489    0.0000 C   0  0  0  0  0  0  0  0  0  0  0  0
    7.0634  -10.1614    0.0000 C   0  0  0  0  0  0  0  0  0  0  0  0
    8.4923  -10.1614    0.0000 C   0  0  0  0  0  0  0  0  0  0  0  0
    8.4923   -8.5114    0.0000 C   0  0  0  0  0  0  0  0  0  0  0  0
    8.4923   -7.6864    0.0000 C   0  0  0  0  0  0  0  0  0  0  0  0
    7.7778   -7.2739    0.0000 C   0  0  2  0  0  0  0  0  0  0  0  0
    7.3653   -6.5594    0.0000 O   0  0  0  0  0  0  0  0  0  0  0  0
    8.1903   -6.5594    0.0000 C   0  0  0  0  0  0  0  0  0  0  0  0
    4.9199   -7.2739    0.0000 C   0  0  0  0  0  0  0  0  0  0  0  0
  1  2  1  0  0  0  0
  2  3  1  0  0  0  0
  3  4  1  0  0  0  0
  4  5  1  0  0  0  0
  5  6  1  0  0  0  0
  6  7  1  1  0  0  0
  1  6  1  0  0  0  0
  6  8  1  0  0  0  0
  8  9  1  1  0  0  0
  9 10  1  0  0  0  0
  9 11  1  0  0  0  0
  8 12  1  0  0  0  0
 12 13  1  0  0  0  0
 13 14  1  0  0  0  0
  1 14  1  0  0  0  0
 14 15  1  1  0  0  0
 14 16  1  6  0  0  0
  3 17  2  0  0  0  0
M  END
>  <cdx:fragmentId>
5

$$$$
