93210.cdx
  Mrv1902 05222410202D          

 10 11  0  0  0  0            999 V2000
    7.0486   -3.5336    0.0000 C   0  0  0  0  0  0  0  0  0  0  0  0
    7.8332   -3.2786    0.0000 C   0  0  0  0  0  0  0  0  0  0  0  0
    8.3182   -3.9461    0.0000 C   0  0  0  0  0  0  0  0  0  0  0  0
    7.8332   -4.6135    0.0000 C   0  0  0  0  0  0  0  0  0  0  0  0
    7.0486   -4.3586    0.0000 C   0  0  0  0  0  0  0  0  0  0  0  0
    6.3341   -3.9461    0.0000 C   0  0  0  0  0  0  0  0  0  0  0  0
    6.7131   -5.1122    0.0000 C   0  0  0  0  0  0  0  0  0  0  0  0
    7.1980   -5.7797    0.0000 C   0  0  0  0  0  0  0  0  0  0  0  0
    5.8926   -5.1985    0.0000 C   0  0  0  0  0  0  0  0  0  0  0  0
    8.0882   -2.4940    0.0000 C   0  0  0  0  0  0  0  0  0  0  0  0
  1  2  1  0  0  0  0
  2  3  2  0  0  0  0
  3  4  1  0  0  0  0
  4  5  1  0  0  0  0
  5  6  1  0  0  0  0
  1  6  1  0  0  0  0
  1  5  1  0  0  0  0
  7  8  1  0  0  0  0
  7  9  1  0  0  0  0
  5  7  1  0  0  0  0
  2 10  1  0  0  0  0
M  END
>  <cdx:fragmentId>
5

$$$$
