93212.cdx
  Mrv1902 05222410212D          

 25 28  0  0  0  0            999 V2000
    7.8675   -6.8400    0.0000 C   0  0  0  0  0  0  0  0  0  0  0  0
    8.5808   -6.4255    0.0000 C   0  0  0  0  0  0  0  0  0  0  0  0
    9.2964   -6.8361    0.0000 C   0  0  0  0  0  0  0  0  0  0  0  0
    9.2987   -7.6611    0.0000 C   0  0  0  0  0  0  0  0  0  0  0  0
   10.0149   -8.0707    0.0000 C   0  0  0  0  0  0  0  0  0  0  0  0
   10.0169   -8.8957    0.0000 C   0  0  0  0  0  0  0  0  0  0  0  0
    9.3037   -9.3104    0.0000 N   0  0  0  0  0  0  0  0  0  0  0  0
    9.3060  -10.1354    0.0000 C   0  0  0  0  0  0  0  0  0  0  0  0
    8.5877   -8.9005    0.0000 C   0  0  0  0  0  0  0  0  0  0  0  0
    7.8743   -9.3150    0.0000 C   0  0  0  0  0  0  0  0  0  0  0  0
    7.1587   -8.9045    0.0000 C   0  0  0  0  0  0  0  0  0  0  0  0
    6.4454   -9.3190    0.0000 C   0  0  0  0  0  0  0  0  0  0  0  0
    5.7298   -8.9084    0.0000 C   0  0  0  0  0  0  0  0  0  0  0  0
    5.7275   -8.0834    0.0000 C   0  0  0  0  0  0  0  0  0  0  0  0
    6.4408   -7.6690    0.0000 C   0  0  0  0  0  0  0  0  0  0  0  0
    7.1565   -8.0795    0.0000 C   0  0  0  0  0  0  0  0  0  0  0  0
    7.8698   -7.6650    0.0000 C   0  0  0  0  0  0  0  0  0  0  0  0
    8.5854   -8.0755    0.0000 C   0  0  0  0  0  0  0  0  0  0  0  0
    5.0165   -9.3229    0.0000 O   0  0  0  0  0  0  0  0  0  0  0  0
    4.3009   -8.9124    0.0000 C   0  0  0  0  0  0  0  0  0  0  0  0
    8.5785   -5.6006    0.0000 O   0  0  0  0  0  0  0  0  0  0  0  0
    7.8629   -5.1900    0.0000 C   0  0  0  0  0  0  0  0  0  0  0  0
    7.1519   -6.4295    0.0000 O   0  0  0  0  0  0  0  0  0  0  0  0
    7.1496   -5.6045    0.0000 C   0  0  0  0  0  0  0  0  0  0  0  0
    5.0119   -7.6729    0.0000 O   0  0  0  0  0  0  0  0  0  0  0  0
  1  2  1  0  0  0  0
  2  3  2  0  0  0  0
  3  4  1  0  0  0  0
  4  5  1  0  0  0  0
  5  6  1  0  0  0  0
  6  7  1  0  0  0  0
  7  8  1  0  0  0  0
  7  9  1  0  0  0  0
  9 10  1  0  0  0  0
 10 11  1  0  0  0  0
 11 12  1  0  0  0  0
 12 13  2  0  0  0  0
 13 14  1  0  0  0  0
 14 15  2  0  0  0  0
 15 16  1  0  0  0  0
 11 16  2  0  0  0  0
 16 17  1  0  0  0  0
  1 17  2  0  0  0  0
 17 18  1  0  0  0  0
  4 18  2  0  0  0  0
  9 18  1  0  0  0  0
 19 20  1  0  0  0  0
 13 19  1  0  0  0  0
 21 22  1  0  0  0  0
  2 21  1  0  0  0  0
 23 24  1  0  0  0  0
  1 23  1  0  0  0  0
 14 25  1  0  0  0  0
M  END
>  <cdx:fragmentId>
5

$$$$
