93213.cdx
  Mrv1902 05222410212D          

 15 16  0  0  0  0            999 V2000
    7.5996   -8.2560    0.0000 C   0  0  0  0  0  0  0  0  0  0  0  0
    6.8852   -7.8435    0.0000 C   0  0  0  0  0  0  0  0  0  0  0  0
    6.1707   -8.2560    0.0000 C   0  0  0  0  0  0  0  0  0  0  0  0
    6.1707   -9.0810    0.0000 C   0  0  0  0  0  0  0  0  0  0  0  0
    6.8852   -9.4935    0.0000 C   0  0  0  0  0  0  0  0  0  0  0  0
    7.5996   -9.0810    0.0000 C   0  0  0  0  0  0  0  0  0  0  0  0
    8.3141   -9.4935    0.0000 C   0  0  0  0  0  0  0  0  0  0  0  0
    9.0286   -9.0810    0.0000 C   0  0  0  0  0  0  0  0  0  0  0  0
    9.0286   -8.2560    0.0000 C   0  0  0  0  0  0  0  0  0  0  0  0
    8.3141   -7.8435    0.0000 C   0  0  0  0  0  0  0  0  0  0  0  0
    5.4562   -7.8435    0.0000 O   0  0  0  0  0  0  0  0  0  0  0  0
    8.3141  -10.3185    0.0000 C   0  0  0  0  0  0  0  0  0  0  0  0
    8.3141   -7.0185    0.0000 C   0  0  0  0  0  0  0  0  0  0  0  0
    7.5996   -6.6060    0.0000 C   0  0  0  0  0  0  0  0  0  0  0  0
    9.0286   -6.6060    0.0000 C   0  0  0  0  0  0  0  0  0  0  0  0
  1  2  2  0  0  0  0
  2  3  1  0  0  0  0
  3  4  1  0  0  0  0
  4  5  1  0  0  0  0
  5  6  1  0  0  0  0
  6  7  1  0  0  0  0
  7  8  1  0  0  0  0
  8  9  1  0  0  0  0
  9 10  1  0  0  0  0
  1 10  1  0  0  0  0
  1  6  1  0  0  0  0
  3 11  2  0  0  0  0
  7 12  1  0  0  0  0
 13 14  1  0  0  0  0
 13 15  1  0  0  0  0
 10 13  1  0  0  0  0
M  END
>  <cdx:groupId>
48

>  <cdx:fragmentId>
5

$$$$
