93219.cdx
  Mrv1902 05222410232D          

 19 21  0  0  0  0            999 V2000
    8.1425   -8.1207    0.0000 C   0  0  0  0  0  0  0  0  0  0  0  0
    8.6945   -8.7338    0.0000 N   0  0  0  0  0  0  0  0  0  0  0  0
    8.4396   -9.5184    0.0000 C   0  0  0  0  0  0  0  0  0  0  0  0
    7.6326   -9.6899    0.0000 C   0  0  0  0  0  0  0  0  0  0  0  0
    7.0806   -9.0768    0.0000 C   0  0  0  0  0  0  0  0  0  0  0  0
    6.2556   -9.0768    0.0000 C   0  0  0  0  0  0  0  0  0  0  0  0
    5.7036   -9.6899    0.0000 C   0  0  0  0  0  0  0  0  0  0  0  0
    4.8966   -9.5184    0.0000 C   0  0  0  0  0  0  0  0  0  0  0  0
    4.6416   -8.7338    0.0000 C   0  0  0  0  0  0  0  0  0  0  0  0
    5.1937   -8.1207    0.0000 C   0  0  0  0  0  0  0  0  0  0  0  0
    6.0006   -8.2922    0.0000 C   0  0  0  0  0  0  0  0  0  0  0  0
    6.6681   -7.8073    0.0000 N   0  0  0  0  0  0  0  0  0  0  0  0
    7.3355   -8.2922    0.0000 C   0  0  0  0  0  0  0  0  0  0  0  0
    7.3777  -10.4746    0.0000 O   0  0  0  0  0  0  0  0  0  0  0  0
    6.5707  -10.6461    0.0000 C   0  0  0  0  0  0  0  0  0  0  0  0
    8.3974   -7.3361    0.0000 C   0  0  0  0  0  0  0  0  0  0  0  0
    9.2044   -7.1645    0.0000 C   0  0  0  0  0  0  0  0  0  0  0  0
    9.4593   -6.3799    0.0000 O   0  0  0  0  0  0  0  0  0  0  0  0
    7.8454   -6.7230    0.0000 O   0  0  0  0  0  0  0  0  0  0  0  0
  1  2  2  0  0  0  0
  2  3  1  0  0  0  0
  3  4  2  0  0  0  0
  4  5  1  0  0  0  0
  5  6  1  0  0  0  0
  6  7  1  0  0  0  0
  7  8  2  0  0  0  0
  8  9  1  0  0  0  0
  9 10  2  0  0  0  0
 10 11  1  0  0  0  0
  6 11  2  0  0  0  0
 11 12  1  0  0  0  0
 12 13  1  0  0  0  0
  5 13  2  0  0  0  0
  1 13  1  0  0  0  0
 14 15  1  0  0  0  0
  4 14  1  0  0  0  0
 16 17  1  0  0  0  0
 17 18  1  0  0  0  0
 16 19  1  0  0  0  0
  1 16  1  0  0  0  0
M  END
>  <cdx:groupId>
61

>  <cdx:fragmentId>
5

$$$$
