93222.cdx
  Mrv1902 05222410252D          

 52 57  0  0  0  0            999 V2000
   13.3215   -4.8563    0.0000 O   0  0  0  0  0  0  0  0  0  0  0  0
   13.3200   -5.6813    0.0000 C   0  0  0  0  0  0  0  0  0  0  0  0
   12.6033   -6.9176    0.0000 O   0  0  0  0  0  0  0  0  0  0  0  0
   12.6048   -6.0926    0.0000 C   0  0  0  0  0  0  0  0  0  0  0  0
   11.8925   -4.8538    0.0000 O   0  0  0  0  0  0  0  0  0  0  0  0
   11.8911   -5.6788    0.0000 C   0  0  0  0  0  0  0  0  0  0  0  0
   10.4621   -5.6763    0.0000 O   0  0  0  0  0  0  0  0  0  0  0  0
   11.1759   -6.0900    0.0000 C   0  0  0  0  0  0  0  0  0  0  0  0
   10.4592   -7.3262    0.0000 O   0  0  0  0  0  0  0  0  0  0  0  0
   11.1744   -6.9150    0.0000 C   0  0  0  0  0  0  0  0  0  0  0  0
   11.8881   -7.3288    0.0000 C   0  0  0  0  0  0  0  0  0  0  0  0
   11.8867   -8.1538    0.0000 O   0  0  0  0  0  0  0  0  0  0  0  0
    9.7425   -8.5625    0.0000 C   0  0  0  0  0  0  0  0  0  0  0  0
   10.4577   -8.1512    0.0000 C   0  0  0  0  0  0  0  0  0  0  0  0
   11.1715   -8.5650    0.0000 C   0  0  0  0  0  0  0  0  0  0  0  0
   11.1700   -9.3900    0.0000 C   0  0  0  0  0  0  0  0  0  0  0  0
   10.4548   -9.8012    0.0000 C   0  0  0  0  0  0  0  0  0  0  0  0
    9.7410   -9.3875    0.0000 C   0  0  0  0  0  0  0  0  0  0  0  0
    6.8788  -11.8574    0.0000 O   0  0  0  0  0  0  0  0  0  0  0  0
    8.3077  -11.8599    0.0000 O   0  0  0  0  0  0  0  0  0  0  0  0
    8.3121   -9.3849    0.0000 O   0  0  0  0  0  0  0  0  0  0  0  0
    7.5969   -9.7962    0.0000 C   0  0  0  0  0  0  0  0  0  0  0  0
    6.8832   -9.3824    0.0000 C   0  0  0  0  0  0  0  0  0  0  0  0
    6.1680   -9.7936    0.0000 C   0  0  0  0  0  0  0  0  0  0  0  0
    6.1665  -10.6186    0.0000 C   0  0  0  0  0  0  0  0  0  0  0  0
    6.8802  -11.0324    0.0000 C   0  0  0  0  0  0  0  0  0  0  0  0
    7.5954  -10.6212    0.0000 C   0  0  0  0  0  0  0  0  0  0  0  0
    8.3092  -11.0349    0.0000 C   0  0  0  0  0  0  0  0  0  0  0  0
    9.0244  -10.6237    0.0000 C   0  0  0  0  0  0  0  0  0  0  0  0
    9.0258   -9.7987    0.0000 C   0  0  0  0  0  0  0  0  0  0  0  0
    1.1689   -8.5472    0.0000 C   0  0  0  0  0  0  0  0  0  0  0  0
    2.5978   -8.5498    0.0000 O   0  0  0  0  0  0  0  0  0  0  0  0
    1.8841   -8.1360    0.0000 C   0  0  0  0  0  0  0  0  0  0  0  0
    1.1718   -6.8972    0.0000 O   0  0  0  0  0  0  0  0  0  0  0  0
    1.8855   -7.3110    0.0000 C   0  0  0  0  0  0  0  0  0  0  0  0
    2.6022   -6.0748    0.0000 O   0  0  0  0  0  0  0  0  0  0  0  0
    2.6008   -6.8998    0.0000 C   0  0  0  0  0  0  0  0  0  0  0  0
    4.0297   -6.9023    0.0000 O   0  0  0  0  0  0  0  0  0  0  0  0
    3.3145   -7.3135    0.0000 C   0  0  0  0  0  0  0  0  0  0  0  0
    3.3130   -8.1385    0.0000 C   0  0  0  0  0  0  0  0  0  0  0  0
    3.3057  -12.2635    0.0000 O   0  0  0  0  0  0  0  0  0  0  0  0
    4.0209  -11.8523    0.0000 C   0  0  0  0  0  0  0  0  0  0  0  0
    4.7376  -10.6161    0.0000 O   0  0  0  0  0  0  0  0  0  0  0  0
    4.0223  -11.0273    0.0000 C   0  0  0  0  0  0  0  0  0  0  0  0
    2.5934  -11.0248    0.0000 O   0  0  0  0  0  0  0  0  0  0  0  0
    3.3086  -10.6135    0.0000 C   0  0  0  0  0  0  0  0  0  0  0  0
    2.5963   -9.3748    0.0000 O   0  0  0  0  0  0  0  0  0  0  0  0
    3.3101   -9.7885    0.0000 C   0  0  0  0  0  0  0  0  0  0  0  0
    4.0268   -8.5523    0.0000 O   0  0  0  0  0  0  0  0  0  0  0  0
    4.0253   -9.3773    0.0000 C   0  0  0  0  0  0  0  0  0  0  0  0
    4.7390   -9.7911    0.0000 C   0  0  0  0  0  0  0  0  0  0  0  0
    5.4542   -9.3798    0.0000 O   0  0  0  0  0  0  0  0  0  0  0  0
 52 24  1  0  0  0  0
 30 18  1  0  0  0  0
 15 12  1  0  0  0  0
 12 11  1  0  0  0  0
 11  3  1  0  0  0  0
  2  4  1  0  0  0  0
  2  1  1  0  0  0  0
  4  6  1  0  0  0  0
  4  3  1  0  0  0  0
  6  8  1  0  0  0  0
  6  5  1  0  0  0  0
  8 10  1  0  0  0  0
  8  7  1  0  0  0  0
 10 11  1  0  0  0  0
 10  9  1  0  0  0  0
 18 13  2  0  0  0  0
 14 13  1  0  0  0  0
 15 14  2  0  0  0  0
 16 15  1  0  0  0  0
 17 16  2  0  0  0  0
 18 17  1  0  0  0  0
 26 19  1  0  0  0  0
 28 20  2  0  0  0  0
 30 21  1  0  0  0  0
 22 21  1  0  0  0  0
 27 22  2  0  0  0  0
 23 22  1  0  0  0  0
 24 23  2  0  0  0  0
 25 24  1  0  0  0  0
 26 25  2  0  0  0  0
 27 26  1  0  0  0  0
 28 27  1  0  0  0  0
 29 28  1  0  0  0  0
 30 29  1  0  0  0  0
 49 40  1  0  0  0  0
 40 32  1  0  0  0  0
 31 33  1  0  0  0  0
 33 35  1  0  0  0  0
 33 32  1  0  0  0  0
 35 37  1  0  0  0  0
 35 34  1  0  0  0  0
 37 39  1  0  0  0  0
 37 36  1  0  0  0  0
 39 40  1  0  0  0  0
 39 38  1  0  0  0  0
 51 43  1  0  0  0  0
 42 44  1  0  0  0  0
 42 41  1  0  0  0  0
 44 46  1  0  0  0  0
 44 43  1  0  0  0  0
 46 48  1  0  0  0  0
 46 45  1  0  0  0  0
 48 50  1  0  0  0  0
 48 47  1  0  0  0  0
 50 51  1  0  0  0  0
 50 49  1  0  0  0  0
 52 51  1  0  0  0  0
M  END
>  <cdx:fragmentId>
89

$$$$
