93221.cdx
  Mrv1902 05222410262D          

 22 21  0  0  0  0            999 V2000
   10.4108   -8.2500    0.0000 C   0  0  0  0  0  0  0  0  0  0  0  0
    9.6963   -7.8375    0.0000 C   0  0  0  0  0  0  0  0  0  0  0  0
    8.9818   -8.2500    0.0000 O   0  0  0  0  0  0  0  0  0  0  0  0
    8.2674   -7.8375    0.0000 C   0  0  0  0  0  0  0  0  0  0  0  0
    7.5529   -8.2500    0.0000 C   0  0  0  0  0  0  0  0  0  0  0  0
    6.8384   -8.6625    0.0000 C   0  0  0  0  0  0  0  0  0  0  0  0
    6.1239   -9.0750    0.0000 C   0  0  0  0  0  0  0  0  0  0  0  0
    6.1239   -9.9000    0.0000 C   0  0  0  0  0  0  0  0  0  0  0  0
    5.4095  -10.3125    0.0000 C   0  0  0  0  0  0  0  0  0  0  0  0
    4.6950   -9.9000    0.0000 C   0  0  0  0  0  0  0  0  0  0  0  0
    5.4095  -11.1375    0.0000 C   0  0  0  0  0  0  0  0  0  0  0  0
    6.1239   -8.2500    0.0000 C   0  0  0  0  0  0  0  0  0  0  0  0
    8.2674   -8.6625    0.0000 C   0  0  0  0  0  0  0  0  0  0  0  0
    8.2674   -7.0125    0.0000 C   0  0  0  0  0  0  0  0  0  0  0  0
    8.9818   -6.6000    0.0000 C   0  0  0  0  0  0  0  0  0  0  0  0
    9.6963   -7.0125    0.0000 C   0  0  0  0  0  0  0  0  0  0  0  0
    8.9818   -5.7750    0.0000 C   0  0  0  0  0  0  0  0  0  0  0  0
    5.4095   -8.6625    0.0000 O   0  0  0  0  0  0  0  0  0  0  0  0
    4.6950   -9.0750    0.0000 C   0  0  0  0  0  0  0  0  0  0  0  0
    3.9805   -8.6625    0.0000 C   0  0  0  0  0  0  0  0  0  0  0  0
    3.2661   -9.0750    0.0000 O   0  0  0  0  0  0  0  0  0  0  0  0
   11.1252   -7.8375    0.0000 O   0  0  0  0  0  0  0  0  0  0  0  0
  1  2  1  0  0  0  0
  4  5  1  0  0  0  0
  5  6  3  0  0  0  0
  6  7  1  0  0  0  0
  7  8  1  0  0  0  0
  8  9  1  0  0  0  0
  9 10  1  0  0  0  0
  3  4  1  0  0  0  0
  9 11  1  0  0  0  0
  7 12  1  0  0  0  0
  4 13  1  0  0  0  0
 14 15  1  0  0  0  0
 15 16  1  0  0  0  0
 17 15  1  0  0  0  0
  4 14  1  0  0  0  0
 19 20  1  0  0  0  0
 18 19  1  0  0  0  0
 20 21  1  0  0  0  0
  7 18  1  0  0  0  0
  2  3  1  0  0  0  0
  1 22  1  0  0  0  0
M  END
>  <cdx:groupId>
67

>  <cdx:fragmentId>
11

$$$$
