93224.cdx
  Mrv1902 05222410242D          

 21 21  0  0  0  0            999 V2000
   11.1252   -8.0522    0.0000 C   0  0  0  0  0  0  0  0  0  0  0  0
   10.4108   -8.4647    0.0000 C   0  0  0  0  0  0  0  0  0  0  0  0
   10.4108   -9.2897    0.0000 C   0  0  0  0  0  0  0  0  0  0  0  0
   11.1252   -7.2272    0.0000 O   0  0  0  0  0  0  0  0  0  0  0  0
   11.8397   -8.4647    0.0000 O   0  0  0  0  0  0  0  0  0  0  0  0
    9.6963   -9.7022    0.0000 O   0  0  0  0  0  0  0  0  0  0  0  0
   11.1252   -9.7022    0.0000 O   0  0  0  0  0  0  0  0  0  0  0  0
    9.6963   -8.0522    0.0000 C   0  0  0  0  0  0  0  0  0  0  0  0
    8.9818   -8.4647    0.0000 C   0  0  0  0  0  0  0  0  0  0  0  0
    8.2674   -8.0522    0.0000 C   0  0  0  0  0  0  0  0  0  0  0  0
    7.5529   -8.4647    0.0000 C   0  0  0  0  0  0  0  0  0  0  0  0
    6.8384   -8.0522    0.0000 C   0  0  0  0  0  0  0  0  0  0  0  0
    6.1239   -8.4647    0.0000 C   0  0  0  0  0  0  0  0  0  0  0  0
    5.4095   -8.0522    0.0000 O   0  0  0  0  0  0  0  0  0  0  0  0
    4.6950   -8.4647    0.0000 C   0  0  0  0  0  0  0  0  0  0  0  0
    4.6950   -9.2897    0.0000 C   0  0  0  0  0  0  0  0  0  0  0  0
    3.9805   -9.7022    0.0000 C   0  0  0  0  0  0  0  0  0  0  0  0
    3.2661   -9.2897    0.0000 C   0  0  0  0  0  0  0  0  0  0  0  0
    3.2661   -8.4647    0.0000 C   0  0  0  0  0  0  0  0  0  0  0  0
    3.9805   -8.0522    0.0000 C   0  0  0  0  0  0  0  0  0  0  0  0
    2.5516   -9.7022    0.0000 O   0  0  0  0  0  0  0  0  0  0  0  0
  1  2  1  0  0  0  0
  2  3  1  0  0  0  0
  1  4  2  0  0  0  0
  1  5  1  0  0  0  0
  3  6  2  0  0  0  0
  3  7  1  0  0  0  0
  8  9  1  0  0  0  0
  9 10  1  0  0  0  0
 10 11  1  0  0  0  0
 11 12  1  0  0  0  0
 12 13  1  0  0  0  0
 15 16  1  0  0  0  0
 16 17  2  0  0  0  0
 17 18  1  0  0  0  0
 18 19  2  0  0  0  0
 19 20  1  0  0  0  0
 15 20  2  0  0  0  0
 14 15  1  0  0  0  0
 18 21  1  0  0  0  0
 13 14  1  0  0  0  0
  2  8  1  0  0  0  0
M  END
>  <cdx:groupId>
65

>  <cdx:fragmentId>
33

$$$$
