93220.cdx
  Mrv1902 05222410252D          

 16 18  0  0  0  0            999 V2000
    8.4215   -8.4264    0.0000 C   0  0  0  0  0  0  0  0  0  0  0  0
    8.9735   -9.0395    0.0000 N   0  0  0  0  0  0  0  0  0  0  0  0
    8.7186   -9.8241    0.0000 C   0  0  0  0  0  0  0  0  0  0  0  0
    7.9116   -9.9957    0.0000 C   0  0  0  0  0  0  0  0  0  0  0  0
    7.3595   -9.3826    0.0000 C   0  0  0  0  0  0  0  0  0  0  0  0
    6.5345   -9.3826    0.0000 C   0  0  0  0  0  0  0  0  0  0  0  0
    5.9825   -9.9957    0.0000 C   0  0  0  0  0  0  0  0  0  0  0  0
    5.1755   -9.8241    0.0000 C   0  0  0  0  0  0  0  0  0  0  0  0
    4.9206   -9.0395    0.0000 C   0  0  0  0  0  0  0  0  0  0  0  0
    5.4726   -8.4264    0.0000 C   0  0  0  0  0  0  0  0  0  0  0  0
    6.2796   -8.5979    0.0000 C   0  0  0  0  0  0  0  0  0  0  0  0
    6.9470   -8.1130    0.0000 N   0  0  0  0  0  0  0  0  0  0  0  0
    7.6145   -8.5979    0.0000 C   0  0  0  0  0  0  0  0  0  0  0  0
    8.6764   -7.6418    0.0000 C   0  0  0  0  0  0  0  0  0  0  0  0
    9.4834   -7.4703    0.0000 C   0  0  0  0  0  0  0  0  0  0  0  0
    8.1244   -7.0287    0.0000 O   0  0  0  0  0  0  0  0  0  0  0  0
  1  2  2  0  0  0  0
  2  3  1  0  0  0  0
  3  4  2  0  0  0  0
  4  5  1  0  0  0  0
  5  6  1  0  0  0  0
  6  7  1  0  0  0  0
  7  8  2  0  0  0  0
  8  9  1  0  0  0  0
  9 10  2  0  0  0  0
 10 11  1  0  0  0  0
  6 11  2  0  0  0  0
 11 12  1  0  0  0  0
 12 13  1  0  0  0  0
  5 13  2  0  0  0  0
  1 13  1  0  0  0  0
 14 15  1  0  0  0  0
 14 16  1  0  0  0  0
  1 14  1  0  0  0  0
M  END
>  <cdx:groupId>
52

>  <cdx:fragmentId>
5

$$$$
