93230.cdx
  Mrv1902 05222410242D          

 22 21  0  0  0  0            999 V2000
    0.7522   -7.9285    0.0000 C   0  0  0  0  0  0  0  0  0  0  0  0
    1.3952   -8.2997    0.0000 C   0  0  0  0  0  0  0  0  0  0  0  0
    2.0382   -7.9285    0.0000 O   0  0  0  0  0  0  0  0  0  0  0  0
    2.6813   -9.0422    0.0000 O   0  0  0  0  0  0  0  0  0  0  0  0
   13.6127   -7.9285    0.0000 C   0  0  0  0  0  0  0  0  0  0  0  0
   12.9696   -8.2997    0.0000 C   0  0  0  0  0  0  0  0  0  0  0  0
   12.3266   -7.9285    0.0000 C   0  0  0  0  0  0  0  0  0  0  0  0
   11.6836   -8.2997    0.0000 C   0  0  0  0  0  0  0  0  0  0  0  0
   11.0406   -7.9285    0.0000 C   0  0  0  0  0  0  0  0  0  0  0  0
   10.3975   -8.2997    0.0000 C   0  0  0  0  0  0  0  0  0  0  0  0
    9.7545   -7.9285    0.0000 C   0  0  0  0  0  0  0  0  0  0  0  0
    9.1115   -8.2997    0.0000 C   0  0  0  0  0  0  0  0  0  0  0  0
    8.4685   -7.9285    0.0000 C   0  0  0  0  0  0  0  0  0  0  0  0
    7.8255   -8.2997    0.0000 C   0  0  0  0  0  0  0  0  0  0  0  0
    7.1824   -7.9285    0.0000 C   0  0  0  0  0  0  0  0  0  0  0  0
    6.5394   -8.2997    0.0000 C   0  0  0  0  0  0  0  0  0  0  0  0
    5.8964   -7.9285    0.0000 C   0  0  0  0  0  0  0  0  0  0  0  0
    5.2534   -8.2997    0.0000 C   0  0  0  0  0  0  0  0  0  0  0  0
    4.6103   -7.9285    0.0000 C   0  0  0  0  0  0  0  0  0  0  0  0
    3.9673   -8.2997    0.0000 C   0  0  0  0  0  0  0  0  0  0  0  0
    3.3243   -7.9285    0.0000 C   0  0  0  0  0  0  0  0  0  0  0  0
    2.6813   -8.2997    0.0000 C   0  0  0  0  0  0  0  0  0  0  0  0
  3  2  1  0  0  0  0
  2  1  1  0  0  0  0
 22  3  1  0  0  0  0
 22  4  2  0  0  0  0
  6  5  1  0  0  0  0
  7  6  1  0  0  0  0
  8  7  1  0  0  0  0
  9  8  1  0  0  0  0
 10  9  1  0  0  0  0
 11 10  2  0  0  0  0
 12 11  1  0  0  0  0
 13 12  1  0  0  0  0
 14 13  2  0  0  0  0
 15 14  1  0  0  0  0
 16 15  1  0  0  0  0
 17 16  1  0  0  0  0
 18 17  1  0  0  0  0
 19 18  1  0  0  0  0
 20 19  1  0  0  0  0
 21 20  1  0  0  0  0
 22 21  1  0  0  0  0
M  END
>  <cdx:groupId>
67

>  <cdx:fragmentId>
5

$$$$
