93231.cdx
  Mrv1902 05222410232D          

 24 26  0  0  0  0            999 V2000
    5.1980   -7.9750    0.0000 C   0  0  0  0  0  0  0  0  0  0  0  0
    5.1980   -8.8000    0.0000 C   0  0  0  0  0  0  0  0  0  0  0  0
    5.9125   -9.2125    0.0000 C   0  0  0  0  0  0  0  0  0  0  0  0
    6.6270   -8.8000    0.0000 C   0  0  2  0  0  0  0  0  0  0  0  0
    6.6270   -7.9750    0.0000 C   0  0  2  0  0  0  0  0  0  0  0  0
    5.9125   -7.5625    0.0000 C   0  0  0  0  0  0  0  0  0  0  0  0
    7.3414   -9.2125    0.0000 C   0  0  2  0  0  0  0  0  0  0  0  0
    8.0559   -8.8000    0.0000 C   0  0  1  0  0  0  0  0  0  0  0  0
    8.0559   -7.9750    0.0000 C   0  0  1  0  0  0  0  0  0  0  0  0
    7.3414   -7.5625    0.0000 C   0  0  1  0  0  0  0  0  0  0  0  0
    8.7704   -9.2125    0.0000 C   0  0  0  0  0  0  0  0  0  0  0  0
    9.4849   -8.8000    0.0000 C   0  0  0  0  0  0  0  0  0  0  0  0
    9.4849   -7.9750    0.0000 C   0  0  0  0  0  0  0  0  0  0  0  0
    8.7704   -7.5625    0.0000 C   0  0  0  0  0  0  0  0  0  0  0  0
   10.1993   -7.5625    0.0000 C   0  0  0  0  0  0  0  0  0  0  0  0
   10.1993   -9.2125    0.0000 C   0  0  0  0  0  0  0  0  0  0  0  0
    4.4836   -9.2125    0.0000 C   0  0  0  0  0  0  0  0  0  0  0  0
    4.4836   -7.5625    0.0000 C   0  0  0  0  0  0  0  0  0  0  0  0
    6.6270   -7.1500    0.0000 H   0  0  0  0  0  0  0  0  0  0  0  0
    7.3414   -6.7375    0.0000 H   0  0  0  0  0  0  0  0  0  0  0  0
    8.0559   -7.1500    0.0000 H   0  0  0  0  0  0  0  0  0  0  0  0
    7.3414  -10.0375    0.0000 H   0  0  0  0  0  0  0  0  0  0  0  0
    6.6270   -9.6250    0.0000 H   0  0  0  0  0  0  0  0  0  0  0  0
    8.0559   -9.6250    0.0000 H   0  0  0  0  0  0  0  0  0  0  0  0
  1  2  2  0  0  0  0
  2  3  1  0  0  0  0
  3  4  1  0  0  0  0
  4  5  1  0  0  0  0
  5  6  1  0  0  0  0
  6  1  1  0  0  0  0
  4  7  1  0  0  0  0
  7  8  1  0  0  0  0
  8  9  1  0  0  0  0
  9 10  1  0  0  0  0
 10  5  1  0  0  0  0
  8 11  1  0  0  0  0
 11 12  1  0  0  0  0
 12 13  2  0  0  0  0
 13 14  1  0  0  0  0
 14  9  1  0  0  0  0
 13 15  1  0  0  0  0
 12 16  1  0  0  0  0
  2 17  1  0  0  0  0
  1 18  1  0  0  0  0
  5 19  1  1  0  0  0
 10 20  1  1  0  0  0
  9 21  1  6  0  0  0
  7 22  1  1  0  0  0
  4 23  1  1  0  0  0
  8 24  1  6  0  0  0
M  END
>  <cdx:fragmentId>
71

$$$$
