93232.cdx
  Mrv1902 05222410242D          

 32 32  0  0  0  0            999 V2000
    7.1720  -10.1968    0.0000 C   0  0  0  0  0  0  0  0  0  0  0  0
    6.4578   -9.7845    0.0000 C   0  0  0  0  0  0  0  0  0  0  0  0
    5.7435  -10.1968    0.0000 C   0  0  0  0  0  0  0  0  0  0  0  0
    5.7435  -11.0216    0.0000 C   0  0  0  0  0  0  0  0  0  0  0  0
    6.4578  -11.4339    0.0000 C   0  0  0  0  0  0  0  0  0  0  0  0
    7.1720  -11.0216    0.0000 C   0  0  0  0  0  0  0  0  0  0  0  0
    9.3148   -9.7845    0.0000 C   0  0  0  0  0  0  0  0  0  0  0  0
    8.6005  -10.1968    0.0000 C   0  0  0  0  0  0  0  0  0  0  0  0
    7.8863   -9.7845    0.0000 C   0  0  0  0  0  0  0  0  0  0  0  0
    9.3148   -8.9597    0.0000 O   0  0  0  0  0  0  0  0  0  0  0  0
   10.0290  -10.1968    0.0000 O   0  0  0  0  0  0  0  0  0  0  0  0
    5.0293  -11.4339    0.0000 O   0  0  0  0  0  0  0  0  0  0  0  0
    5.0293   -9.7845    0.0000 O   0  0  0  0  0  0  0  0  0  0  0  0
    4.3150  -10.1968    0.0000 C   0  0  0  0  0  0  0  0  0  0  0  0
   10.7432   -9.7845    0.0000 C   0  0  0  0  0  0  0  0  0  0  0  0
   11.4575  -10.1968    0.0000 C   0  0  0  0  0  0  0  0  0  0  0  0
   12.1717   -9.7845    0.0000 C   0  0  0  0  0  0  0  0  0  0  0  0
   12.8860  -10.1968    0.0000 C   0  0  0  0  0  0  0  0  0  0  0  0
   13.6002   -9.7845    0.0000 C   0  0  0  0  0  0  0  0  0  0  0  0
   14.3145  -10.1968    0.0000 C   0  0  0  0  0  0  0  0  0  0  0  0
   15.0287   -9.7845    0.0000 C   0  0  0  0  0  0  0  0  0  0  0  0
   15.7430  -10.1968    0.0000 C   0  0  0  0  0  0  0  0  0  0  0  0
   16.4572   -9.7845    0.0000 C   0  0  0  0  0  0  0  0  0  0  0  0
   17.1715  -10.1968    0.0000 C   0  0  0  0  0  0  0  0  0  0  0  0
   17.8857   -9.7845    0.0000 C   0  0  0  0  0  0  0  0  0  0  0  0
   18.6000  -10.1968    0.0000 C   0  0  0  0  0  0  0  0  0  0  0  0
   19.3142   -9.7845    0.0000 C   0  0  0  0  0  0  0  0  0  0  0  0
   20.0284  -10.1968    0.0000 C   0  0  0  0  0  0  0  0  0  0  0  0
   20.7427   -9.7845    0.0000 C   0  0  0  0  0  0  0  0  0  0  0  0
   21.4569  -10.1968    0.0000 C   0  0  0  0  0  0  0  0  0  0  0  0
   22.1712   -9.7845    0.0000 C   0  0  0  0  0  0  0  0  0  0  0  0
   22.8854  -10.1968    0.0000 C   0  0  0  0  0  0  0  0  0  0  0  0
  1  2  1  0  0  0  0
  2  3  2  0  0  0  0
  3  4  1  0  0  0  0
  4  5  2  0  0  0  0
  5  6  1  0  0  0  0
  1  6  2  0  0  0  0
  7  8  1  0  0  0  0
  8  9  2  0  0  0  0
  7 10  2  0  0  0  0
  7 11  1  0  0  0  0
  1  9  1  0  0  0  0
  4 12  1  0  0  0  0
 13 14  1  0  0  0  0
  3 13  1  0  0  0  0
 15 16  1  0  0  0  0
 16 17  1  0  0  0  0
 17 18  1  0  0  0  0
 18 19  1  0  0  0  0
 19 20  1  0  0  0  0
 20 21  1  0  0  0  0
 21 22  1  0  0  0  0
 22 23  1  0  0  0  0
 23 24  1  0  0  0  0
 24 25  1  0  0  0  0
 25 26  1  0  0  0  0
 26 27  1  0  0  0  0
 27 28  1  0  0  0  0
 28 29  1  0  0  0  0
 29 30  1  0  0  0  0
 30 31  1  0  0  0  0
 31 32  1  0  0  0  0
 11 15  1  0  0  0  0
M  END
>  <cdx:fragmentId>
75

$$$$
