93233.cdx
  Mrv1902 05222410242D          

 15 17  0  0  0  0            999 V2000
    5.3383   -4.6675    0.0000 C   0  0  0  0  0  0  0  0  0  0  0  0
    8.7944   -5.3319    0.0000 C   0  0  0  0  0  0  0  0  0  0  0  0
    8.6478   -3.5344    0.0000 C   0  0  0  0  0  0  0  0  0  0  0  0
    8.6834   -4.3587    0.0000 C   0  0  0  0  0  0  0  0  0  0  0  0
    7.9518   -3.9773    0.0000 C   0  0  0  0  0  0  0  0  0  0  0  0
    6.7909   -4.4407    0.0000 C   0  0  0  0  0  0  0  0  0  0  0  0
    6.7557   -3.6165    0.0000 C   0  0  0  0  0  0  0  0  0  0  0  0
    7.3782   -3.0750    0.0000 C   0  0  0  0  0  0  0  0  0  0  0  0
    8.1896   -3.2241    0.0000 C   0  0  0  0  0  0  0  0  0  0  0  0
    8.5789   -3.9515    0.0000 C   0  0  0  0  0  0  0  0  0  0  0  0
    8.2530   -4.7094    0.0000 C   0  0  0  0  0  0  0  0  0  0  0  0
    7.4573   -4.9271    0.0000 C   0  0  0  0  0  0  0  0  0  0  0  0
    7.2006   -5.7112    0.0000 C   0  0  0  0  0  0  0  0  0  0  0  0
    6.3756   -5.7093    0.0000 C   0  0  0  0  0  0  0  0  0  0  0  0
    6.1224   -4.9241    0.0000 C   0  0  0  0  0  0  0  0  0  0  0  0
 15  1  1  0  0  0  0
 11  2  1  0  0  0  0
  5  3  1  0  0  0  0
  5  4  1  0  0  0  0
  8  5  1  0  0  0  0
 12  5  1  0  0  0  0
 12  6  1  0  0  0  0
 15  6  1  0  0  0  0
  7  6  1  0  0  0  0
  8  7  1  0  0  0  0
  9  8  1  0  0  0  0
 10  9  1  0  0  0  0
 11 10  1  0  0  0  0
 12 11  1  0  0  0  0
 13 12  1  0  0  0  0
 14 13  1  0  0  0  0
 15 14  1  0  0  0  0
M  END
>  <cdx:fragmentId>
5

$$$$
