93248.cdx
  Mrv1902 05222410202D          

 21 21  0  0  0  0            999 V2000
    7.6077   -8.3940    0.0000 N   0  0  0  0  0  0  0  0  0  0  0  0
    6.8842   -8.7904    0.0000 C   0  0  0  0  0  0  0  0  0  0  0  0
    7.5710  -10.0436    0.0000 N   0  0  0  0  0  0  0  0  0  0  0  0
    6.8659   -9.6152    0.0000 C   0  0  1  0  0  0  0  0  0  0  0  0
    6.1424  -10.0117    0.0000 C   0  0  0  0  0  0  0  0  0  0  0  0
    6.1240  -10.8365    0.0000 C   0  0  0  0  0  0  0  0  0  0  0  0
    5.4005  -11.2330    0.0000 C   0  0  0  0  0  0  0  0  0  0  0  0
    5.3821  -12.0578    0.0000 C   0  0  0  0  0  0  0  0  0  0  0  0
    6.0872  -12.4861    0.0000 C   0  0  0  0  0  0  0  0  0  0  0  0
    6.8107  -12.0896    0.0000 C   0  0  0  0  0  0  0  0  0  0  0  0
    6.8291  -11.2648    0.0000 C   0  0  0  0  0  0  0  0  0  0  0  0
    6.1791   -8.3621    0.0000 O   0  0  0  0  0  0  0  0  0  0  0  0
    8.3680   -6.3479    0.0000 O   0  0  0  0  0  0  0  0  0  0  0  0
    9.0547   -7.6010    0.0000 O   0  0  0  0  0  0  0  0  0  0  0  0
    6.2527   -5.0629    0.0000 O   0  0  0  0  0  0  0  0  0  0  0  0
    5.5108   -6.2842    0.0000 O   0  0  0  0  0  0  0  0  0  0  0  0
    6.2343   -5.8877    0.0000 C   0  0  0  0  0  0  0  0  0  0  0  0
    6.9394   -6.3161    0.0000 C   0  0  0  0  0  0  0  0  0  0  0  0
    6.9210   -7.1409    0.0000 C   0  0  0  0  0  0  0  0  0  0  0  0
    7.6261   -7.5692    0.0000 C   0  0  1  0  0  0  0  0  0  0  0  0
    8.3496   -7.1727    0.0000 C   0  0  0  0  0  0  0  0  0  0  0  0
 21 13  1  0  0  0  0
 21 14  2  0  0  0  0
 17 15  1  0  0  0  0
 17 16  2  0  0  0  0
 18 17  1  0  0  0  0
 19 18  1  0  0  0  0
 20 19  1  0  0  0  0
 20 21  1  0  0  0  0
 20  1  1  1  0  0  0
  4  3  1  1  0  0  0
  2  4  1  0  0  0  0
  4  5  1  0  0  0  0
  5  6  1  0  0  0  0
  6  7  1  0  0  0  0
  7  8  2  0  0  0  0
  8  9  1  0  0  0  0
  9 10  2  0  0  0  0
 10 11  1  0  0  0  0
  6 11  2  0  0  0  0
  2 12  2  0  0  0  0
  1  2  1  0  0  0  0
M  END
>  <cdx:fragmentId>
25

$$$$
