13932482.cdx
  Mrv1902 05222410272D          

 32 31  0  0  0  0            999 V2000
    2.9440  -14.6363    0.0000 C   0  0  0  0  0  0  0  0  0  0  0  0
    2.2295  -15.0488    0.0000 C   0  0  0  0  0  0  0  0  0  0  0  0
    1.5150  -14.6363    0.0000 C   0  0  0  0  0  0  0  0  0  0  0  0
    0.8006  -15.0488    0.0000 C   0  0  0  0  0  0  0  0  0  0  0  0
    2.9440  -13.8113    0.0000 O   0  0  0  0  0  0  0  0  0  0  0  0
    3.6585  -15.0488    0.0000 O   0  0  0  0  0  0  0  0  0  0  0  0
    0.0861  -15.4613    0.0000 F   0  0  0  0  0  0  0  0  0  0  0  0
    0.8006  -15.8738    0.0000 F   0  0  0  0  0  0  0  0  0  0  0  0
    0.0861  -14.6363    0.0000 F   0  0  0  0  0  0  0  0  0  0  0  0
    1.9275  -13.9218    0.0000 F   0  0  0  0  0  0  0  0  0  0  0  0
    1.1025  -13.9218    0.0000 F   0  0  0  0  0  0  0  0  0  0  0  0
    1.8170  -15.7633    0.0000 F   0  0  0  0  0  0  0  0  0  0  0  0
    2.6420  -15.7633    0.0000 F   0  0  0  0  0  0  0  0  0  0  0  0
    4.3729  -14.6363    0.0000 C   0  0  0  0  0  0  0  0  0  0  0  0
    5.0874  -15.0488    0.0000 C   0  0  0  0  0  0  0  0  0  0  0  0
    5.8019  -14.6363    0.0000 C   0  0  0  0  0  0  0  0  0  0  0  0
    6.5163  -15.0488    0.0000 C   0  0  0  0  0  0  0  0  0  0  0  0
    7.2308  -14.6363    0.0000 C   0  0  0  0  0  0  0  0  0  0  0  0
    7.9453  -15.0488    0.0000 C   0  0  0  0  0  0  0  0  0  0  0  0
    8.6597  -14.6363    0.0000 C   0  0  0  0  0  0  0  0  0  0  0  0
    9.3742  -15.0488    0.0000 C   0  0  0  0  0  0  0  0  0  0  0  0
   10.0887  -14.6363    0.0000 C   0  0  0  0  0  0  0  0  0  0  0  0
   10.8032  -15.0488    0.0000 C   0  0  0  0  0  0  0  0  0  0  0  0
   11.5176  -14.6363    0.0000 C   0  0  0  0  0  0  0  0  0  0  0  0
   12.2321  -15.0488    0.0000 C   0  0  0  0  0  0  0  0  0  0  0  0
   12.9466  -14.6363    0.0000 C   0  0  0  0  0  0  0  0  0  0  0  0
   13.6610  -15.0488    0.0000 C   0  0  0  0  0  0  0  0  0  0  0  0
   14.3755  -14.6363    0.0000 C   0  0  0  0  0  0  0  0  0  0  0  0
   15.0900  -15.0488    0.0000 C   0  0  0  0  0  0  0  0  0  0  0  0
   15.8045  -14.6363    0.0000 C   0  0  0  0  0  0  0  0  0  0  0  0
   16.5189  -15.0488    0.0000 C   0  0  0  0  0  0  0  0  0  0  0  0
   17.2334  -14.6363    0.0000 C   0  0  0  0  0  0  0  0  0  0  0  0
  1  2  1  0  0  0  0
  2  3  1  0  0  0  0
  3  4  1  0  0  0  0
  1  5  2  0  0  0  0
  1  6  1  0  0  0  0
  4  7  1  0  0  0  0
  4  8  1  0  0  0  0
  4  9  1  0  0  0  0
  3 10  1  0  0  0  0
  3 11  1  0  0  0  0
  2 12  1  0  0  0  0
  2 13  1  0  0  0  0
 14 15  1  0  0  0  0
 15 16  1  0  0  0  0
 16 17  1  0  0  0  0
 17 18  1  0  0  0  0
 18 19  1  0  0  0  0
 19 20  1  0  0  0  0
 20 21  1  0  0  0  0
 21 22  1  0  0  0  0
 22 23  1  0  0  0  0
 23 24  1  0  0  0  0
 24 25  1  0  0  0  0
 25 26  1  0  0  0  0
 26 27  1  0  0  0  0
 27 28  1  0  0  0  0
 28 29  1  0  0  0  0
 29 30  1  0  0  0  0
 30 31  1  0  0  0  0
 31 32  1  0  0  0  0
  6 14  1  0  0  0  0
M  END
>  <cdx:groupId>
98671

>  <cdx:fragmentId>
98605

$$$$
