93244.cdx
  Mrv1902 05222410272D          

 44 48  0  0  0  0            999 V2000
    4.5418   -8.0451    0.0000 O   0  0  0  0  0  0  0  0  0  0  0  0
    5.2563   -8.4576    0.0000 C   0  0  2  0  0  0  0  0  0  0  0  0
    5.2563   -9.2826    0.0000 C   0  0  1  0  0  0  0  0  0  0  0  0
    4.5418   -9.6951    0.0000 C   0  0  2  0  0  0  0  0  0  0  0  0
    3.8274   -9.2826    0.0000 C   0  0  1  0  0  0  0  0  0  0  0  0
    3.8274   -8.4576    0.0000 C   0  0  1  0  0  0  0  0  0  0  0  0
    5.9708   -9.6951    0.0000 O   0  0  0  0  0  0  0  0  0  0  0  0
    4.5418  -10.5201    0.0000 O   0  0  0  0  0  0  0  0  0  0  0  0
    3.1129   -9.6951    0.0000 O   0  0  0  0  0  0  0  0  0  0  0  0
    3.1129   -8.0451    0.0000 C   0  0  0  0  0  0  0  0  0  0  0  0
    2.3984   -8.4576    0.0000 O   0  0  0  0  0  0  0  0  0  0  0  0
    5.9708   -8.0451    0.0000 O   0  0  0  0  0  0  0  0  0  0  0  0
    8.1142   -5.9826    0.0000 C   0  0  0  0  0  0  0  0  0  0  0  0
    8.1142   -6.8076    0.0000 C   0  0  0  0  0  0  0  0  0  0  0  0
    7.3997   -7.2201    0.0000 C   0  0  0  0  0  0  0  0  0  0  0  0
    6.6853   -6.8076    0.0000 C   0  0  0  0  0  0  0  0  0  0  0  0
    5.9708   -7.2201    0.0000 C   0  0  0  0  0  0  0  0  0  0  0  0
    5.2563   -6.8076    0.0000 C   0  0  0  0  0  0  0  0  0  0  0  0
    5.2563   -5.9826    0.0000 C   0  0  0  0  0  0  0  0  0  0  0  0
    5.9708   -5.5701    0.0000 C   0  0  0  0  0  0  0  0  0  0  0  0
    6.6853   -5.9826    0.0000 C   0  0  0  0  0  0  0  0  0  0  0  0
    7.3997   -5.5701    0.0000 O   0  3  0  0  0  0  0  0  0  0  0  0
    8.8287   -7.2201    0.0000 O   0  0  0  0  0  0  0  0  0  0  0  0
    8.1142   -8.4576    0.0000 O   0  0  0  0  0  0  0  0  0  0  0  0
    8.8287   -8.0451    0.0000 C   0  0  2  0  0  0  0  0  0  0  0  0
    9.5431   -8.4576    0.0000 C   0  0  1  0  0  0  0  0  0  0  0  0
    9.5431   -9.2826    0.0000 C   0  0  2  0  0  0  0  0  0  0  0  0
    8.8287   -9.6951    0.0000 C   0  0  1  0  0  0  0  0  0  0  0  0
    8.1142   -9.2826    0.0000 C   0  0  1  0  0  0  0  0  0  0  0  0
    7.3997   -9.6951    0.0000 C   0  0  0  0  0  0  0  0  0  0  0  0
    6.6853   -9.2826    0.0000 O   0  0  0  0  0  0  0  0  0  0  0  0
    8.8287  -10.5201    0.0000 O   0  0  0  0  0  0  0  0  0  0  0  0
   10.2576   -9.6951    0.0000 O   0  0  0  0  0  0  0  0  0  0  0  0
   10.2576   -8.0451    0.0000 O   0  0  0  0  0  0  0  0  0  0  0  0
    8.8287   -5.5701    0.0000 C   0  0  0  0  0  0  0  0  0  0  0  0
    9.5431   -5.9826    0.0000 C   0  0  0  0  0  0  0  0  0  0  0  0
   10.2576   -5.5701    0.0000 C   0  0  0  0  0  0  0  0  0  0  0  0
   10.2576   -4.7451    0.0000 C   0  0  0  0  0  0  0  0  0  0  0  0
    9.5431   -4.3326    0.0000 C   0  0  0  0  0  0  0  0  0  0  0  0
    8.8287   -4.7451    0.0000 C   0  0  0  0  0  0  0  0  0  0  0  0
   10.9721   -5.9826    0.0000 O   0  0  0  0  0  0  0  0  0  0  0  0
   11.6865   -5.5701    0.0000 C   0  0  0  0  0  0  0  0  0  0  0  0
   10.9721   -4.3326    0.0000 O   0  0  0  0  0  0  0  0  0  0  0  0
    4.5418   -5.5701    0.0000 O   0  0  0  0  0  0  0  0  0  0  0  0
  1  2  1  0  0  0  0
  2  3  1  0  0  0  0
  3  4  1  0  0  0  0
  4  5  1  0  0  0  0
  5  6  1  0  0  0  0
  1  6  1  0  0  0  0
  3  7  1  6  0  0  0
  4  8  1  1  0  0  0
  5  9  1  6  0  0  0
 10 11  1  0  0  0  0
  6 10  1  1  0  0  0
 13 14  2  0  0  0  0
 14 15  1  0  0  0  0
 15 16  2  0  0  0  0
 16 17  1  0  0  0  0
 17 18  2  0  0  0  0
 18 19  1  0  0  0  0
 19 20  2  0  0  0  0
 20 21  1  0  0  0  0
 16 21  1  0  0  0  0
 21 22  2  0  0  0  0
 13 22  1  0  0  0  0
 24 25  1  0  0  0  0
 25 26  1  0  0  0  0
 26 27  1  0  0  0  0
 27 28  1  0  0  0  0
 28 29  1  0  0  0  0
 24 29  1  0  0  0  0
 30 31  1  0  0  0  0
 29 30  1  1  0  0  0
 28 32  1  6  0  0  0
 27 33  1  1  0  0  0
 26 34  1  6  0  0  0
 25 23  1  1  0  0  0
 14 23  1  0  0  0  0
 35 36  1  0  0  0  0
 36 37  2  0  0  0  0
 37 38  1  0  0  0  0
 38 39  2  0  0  0  0
 39 40  1  0  0  0  0
 35 40  2  0  0  0  0
 41 42  1  0  0  0  0
 37 41  1  0  0  0  0
 38 43  1  0  0  0  0
 13 35  1  0  0  0  0
 19 44  1  0  0  0  0
 12 17  1  0  0  0  0
  2 12  1  1  0  0  0
M  CHG  1  22   1
M  END
>  <cdx:fragmentId>
51

$$$$
