93241.cdx
  Mrv1902 05222410272D          

 38 41  0  0  0  0            999 V2000
    4.7831  -12.0851    0.0000 O   0  0  0  0  0  0  0  0  0  0  0  0
    4.7831  -12.9101    0.0000 C   0  0  0  0  0  0  0  0  0  0  0  0
    6.2120  -12.9101    0.0000 O   0  0  0  0  0  0  0  0  0  0  0  0
    6.2120  -12.0851    0.0000 C   0  0  0  0  0  0  0  0  0  0  0  0
    5.4975  -11.6726    0.0000 C   0  0  0  0  0  0  0  0  0  0  0  0
    6.9265  -11.6726    0.0000 C   0  0  0  0  0  0  0  0  0  0  0  0
    6.9265  -10.8476    0.0000 C   0  0  0  0  0  0  0  0  0  0  0  0
    6.2120  -10.4351    0.0000 C   0  0  0  0  0  0  0  0  0  0  0  0
    5.4975  -10.8476    0.0000 C   0  0  0  0  0  0  0  0  0  0  0  0
    6.2120   -9.6101    0.0000 C   0  0  2  0  0  0  0  0  0  0  0  0
    5.5168   -9.1659    0.0000 C   0  0  1  0  0  0  0  0  0  0  0  0
    4.7845   -9.5458    0.0000 C   0  0  0  0  0  0  0  0  0  0  0  0
    6.8493   -9.0863    0.0000 O   0  0  0  0  0  0  0  0  0  0  0  0
    6.5480   -8.3183    0.0000 C   0  0  0  0  0  0  0  0  0  0  0  0
    5.7245   -8.3675    0.0000 C   0  0  2  0  0  0  0  0  0  0  0  0
    6.7824   -7.4749    0.0000 C   0  0  0  0  0  0  0  0  0  0  0  0
    6.0605   -7.0756    0.0000 C   0  0  0  0  0  0  0  0  0  0  0  0
    5.4232   -7.5995    0.0000 C   0  0  0  0  0  0  0  0  0  0  0  0
    7.4892   -7.0494    0.0000 C   0  0  0  0  0  0  0  0  0  0  0  0
    7.4741   -6.2245    0.0000 C   0  0  0  0  0  0  0  0  0  0  0  0
    6.7522   -5.8252    0.0000 C   0  0  0  0  0  0  0  0  0  0  0  0
    6.0454   -6.2507    0.0000 C   0  0  0  0  0  0  0  0  0  0  0  0
    8.2111   -7.4487    0.0000 O   0  0  0  0  0  0  0  0  0  0  0  0
    8.9179   -7.0232    0.0000 C   0  0  0  0  0  0  0  0  0  0  0  0
    8.1809   -5.7990    0.0000 O   0  0  0  0  0  0  0  0  0  0  0  0
    4.0893   -9.1016    0.0000 O   0  0  0  0  0  0  0  0  0  0  0  0
    4.9003   -8.3303    0.0000 O   0  0  0  0  0  0  0  0  0  0  0  0
    8.1658   -4.9742    0.0000 C   0  0  2  0  0  0  0  0  0  0  0  0
    8.8838   -4.5679    0.0000 O   0  0  0  0  0  0  0  0  0  0  0  0
    8.8838   -3.7430    0.0000 C   0  0  1  0  0  0  0  0  0  0  0  0
    8.1658   -3.3242    0.0000 C   0  0  2  0  0  0  0  0  0  0  0  0
    7.4477   -3.7430    0.0000 C   0  0  1  0  0  0  0  0  0  0  0  0
    7.4477   -4.5679    0.0000 C   0  0  1  0  0  0  0  0  0  0  0  0
    9.6046   -3.3289    0.0000 C   0  0  0  0  0  0  0  0  0  0  0  0
    6.7270   -3.3289    0.0000 O   0  0  0  0  0  0  0  0  0  0  0  0
    8.1658   -2.4930    0.0000 O   0  0  0  0  0  0  0  0  0  0  0  0
    6.7351   -4.9835    0.0000 O   0  0  0  0  0  0  0  0  0  0  0  0
    9.6064   -2.4977    0.0000 O   0  0  0  0  0  0  0  0  0  0  0  0
  1  2  1  0  0  0  0
  3  4  1  0  0  0  0
  4  5  2  0  0  0  0
  5  1  1  0  0  0  0
  4  6  1  0  0  0  0
  6  7  2  0  0  0  0
  7  8  1  0  0  0  0
  8  9  2  0  0  0  0
  9  5  1  0  0  0  0
 10  8  1  6  0  0  0
 10 11  1  0  0  0  0
 11 12  1  1  0  0  0
 10 13  1  0  0  0  0
 13 14  1  0  0  0  0
 14 15  1  0  0  0  0
 15 11  1  0  0  0  0
 16 17  2  0  0  0  0
 17 18  1  0  0  0  0
 18 15  1  0  0  0  0
 16 19  1  0  0  0  0
 19 20  2  0  0  0  0
 20 21  1  0  0  0  0
 21 22  2  0  0  0  0
 22 17  1  0  0  0  0
 19 23  1  0  0  0  0
 23 24  1  0  0  0  0
 25 20  1  0  0  0  0
 12 26  1  0  0  0  0
 15 27  1  6  0  0  0
 28 25  1  1  0  0  0
 28 29  1  0  0  0  0
 29 30  1  0  0  0  0
 30 31  1  0  0  0  0
 31 32  1  0  0  0  0
 32 33  1  0  0  0  0
 33 28  1  0  0  0  0
 30 34  1  1  0  0  0
 32 35  1  1  0  0  0
 31 36  1  6  0  0  0
 33 37  1  6  0  0  0
 34 38  1  0  0  0  0
M  END
>  <cdx:fragmentId>
5

$$$$
