93243.cdx
  Mrv1902 05222410282D          

 67 72  0  0  0  0            999 V2000
    6.1031   -8.0300    0.0000 C   0  0  0  0  0  0  0  0  0  0  0  0
    6.1031   -8.8550    0.0000 C   0  0  0  0  0  0  0  0  0  0  0  0
    6.8175   -9.2675    0.0000 C   0  0  0  0  0  0  0  0  0  0  0  0
    7.5320   -8.8550    0.0000 C   0  0  0  0  0  0  0  0  0  0  0  0
    7.5320   -8.0300    0.0000 C   0  0  0  0  0  0  0  0  0  0  0  0
    6.8175   -7.6175    0.0000 O   0  0  0  0  0  0  0  0  0  0  0  0
    5.3886   -7.6175    0.0000 C   0  0  0  0  0  0  0  0  0  0  0  0
    8.2465   -7.6175    0.0000 O   0  0  0  0  0  0  0  0  0  0  0  0
    6.8175  -10.0925    0.0000 O   0  0  0  0  0  0  0  0  0  0  0  0
    5.3886   -6.7925    0.0000 O   0  0  0  0  0  0  0  0  0  0  0  0
    5.3886   -9.2675    0.0000 O   0  0  0  0  0  0  0  0  0  0  0  0
    8.2465   -9.2675    0.0000 O   0  0  0  0  0  0  0  0  0  0  0  0
    3.9881  -11.7378    0.0000 C   0  0  0  0  0  0  0  0  0  0  0  0
    4.6986  -11.3184    0.0000 C   0  0  0  0  0  0  0  0  0  0  0  0
    4.6907  -10.4935    0.0000 C   0  0  0  0  0  0  0  0  0  0  0  0
    3.9723  -10.0878    0.0000 C   0  0  0  0  0  0  0  0  0  0  0  0
    3.2618  -10.5072    0.0000 C   0  0  0  0  0  0  0  0  0  0  0  0
    3.2697  -11.3321    0.0000 C   0  0  0  0  0  0  0  0  0  0  0  0
    3.9960  -12.5627    0.0000 O   0  0  0  0  0  0  0  0  0  0  0  0
    2.5593  -11.7515    0.0000 O   0  0  0  0  0  0  0  0  0  0  0  0
    2.5434  -10.1015    0.0000 O   0  0  0  0  0  0  0  0  0  0  0  0
    5.4012  -10.0741    0.0000 C   0  0  0  0  0  0  0  0  0  0  0  0
    6.1196  -10.4798    0.0000 O   0  0  0  0  0  0  0  0  0  0  0  0
    3.9581   -4.3260    0.0000 C   0  0  0  0  0  0  0  0  0  0  0  0
    3.9581   -5.1510    0.0000 C   0  0  0  0  0  0  0  0  0  0  0  0
    4.6725   -5.5635    0.0000 C   0  0  0  0  0  0  0  0  0  0  0  0
    5.3870   -5.1510    0.0000 C   0  0  0  0  0  0  0  0  0  0  0  0
    5.3870   -4.3260    0.0000 C   0  0  0  0  0  0  0  0  0  0  0  0
    4.6725   -3.9135    0.0000 C   0  0  0  0  0  0  0  0  0  0  0  0
    3.2436   -3.9135    0.0000 O   0  0  0  0  0  0  0  0  0  0  0  0
    4.6725   -3.0885    0.0000 O   0  0  0  0  0  0  0  0  0  0  0  0
    6.1015   -3.9135    0.0000 O   0  0  0  0  0  0  0  0  0  0  0  0
    4.6725   -6.3885    0.0000 C   0  0  0  0  0  0  0  0  0  0  0  0
    3.9581   -6.8010    0.0000 O   0  0  0  0  0  0  0  0  0  0  0  0
    9.7072   -5.1417    0.0000 C   0  0  0  0  0  0  0  0  0  0  0  0
    8.9885   -5.5467    0.0000 C   0  0  0  0  0  0  0  0  0  0  0  0
    8.9798   -6.3717    0.0000 C   0  0  0  0  0  0  0  0  0  0  0  0
    9.6899   -6.7916    0.0000 C   0  0  0  0  0  0  0  0  0  0  0  0
   10.4087   -6.3866    0.0000 C   0  0  0  0  0  0  0  0  0  0  0  0
   10.4173   -5.5617    0.0000 C   0  0  0  0  0  0  0  0  0  0  0  0
    9.7159   -4.3168    0.0000 O   0  0  0  0  0  0  0  0  0  0  0  0
   11.1361   -5.1567    0.0000 O   0  0  0  0  0  0  0  0  0  0  0  0
   11.1188   -6.8066    0.0000 O   0  0  0  0  0  0  0  0  0  0  0  0
    8.2611   -6.7766    0.0000 C   0  0  0  0  0  0  0  0  0  0  0  0
    7.5510   -6.3567    0.0000 O   0  0  0  0  0  0  0  0  0  0  0  0
    8.2162  -12.5629    0.0000 C   0  0  0  0  0  0  0  0  0  0  0  0
    8.2206  -11.7379    0.0000 C   0  0  0  0  0  0  0  0  0  0  0  0
    7.5084  -11.3215    0.0000 C   0  0  0  0  0  0  0  0  0  0  0  0
    6.7917  -11.7302    0.0000 C   0  0  0  0  0  0  0  0  0  0  0  0
    6.7873  -12.5552    0.0000 C   0  0  0  0  0  0  0  0  0  0  0  0
    7.4995  -12.9715    0.0000 C   0  0  0  0  0  0  0  0  0  0  0  0
    8.9284  -12.9792    0.0000 O   0  0  0  0  0  0  0  0  0  0  0  0
    7.4951  -13.7965    0.0000 O   0  0  0  0  0  0  0  0  0  0  0  0
    6.0706  -12.9638    0.0000 O   0  0  0  0  0  0  0  0  0  0  0  0
    7.5129  -10.4965    0.0000 C   0  0  0  0  0  0  0  0  0  0  0  0
    8.2295  -10.0879    0.0000 O   0  0  0  0  0  0  0  0  0  0  0  0
   11.0999   -9.2712    0.0000 C   0  0  0  0  0  0  0  0  0  0  0  0
   10.3859   -8.8578    0.0000 C   0  0  0  0  0  0  0  0  0  0  0  0
    9.6709   -9.2695    0.0000 C   0  0  0  0  0  0  0  0  0  0  0  0
    9.6700  -10.0945    0.0000 C   0  0  0  0  0  0  0  0  0  0  0  0
   10.3840  -10.5078    0.0000 C   0  0  0  0  0  0  0  0  0  0  0  0
   11.0989  -10.0962    0.0000 C   0  0  0  0  0  0  0  0  0  0  0  0
   11.8148   -8.8595    0.0000 O   0  0  0  0  0  0  0  0  0  0  0  0
   11.8129  -10.5095    0.0000 O   0  0  0  0  0  0  0  0  0  0  0  0
   10.3830  -11.3328    0.0000 O   0  0  0  0  0  0  0  0  0  0  0  0
    8.9570   -8.8562    0.0000 C   0  0  0  0  0  0  0  0  0  0  0  0
    8.9579   -8.0312    0.0000 O   0  0  0  0  0  0  0  0  0  0  0  0
  1  2  1  0  0  0  0
  2  3  1  0  0  0  0
  3  4  1  0  0  0  0
  4  5  1  0  0  0  0
  5  6  1  0  0  0  0
  6  1  1  0  0  0  0
  1  7  1  0  0  0  0
  5  8  1  0  0  0  0
  3  9  1  0  0  0  0
  7 10  1  0  0  0  0
  2 11  1  0  0  0  0
  4 12  1  0  0  0  0
 13 14  2  0  0  0  0
 14 15  1  0  0  0  0
 15 16  2  0  0  0  0
 16 17  1  0  0  0  0
 17 18  2  0  0  0  0
 18 13  1  0  0  0  0
 13 19  1  0  0  0  0
 18 20  1  0  0  0  0
 17 21  1  0  0  0  0
 15 22  1  0  0  0  0
 22 23  2  0  0  0  0
 24 25  2  0  0  0  0
 25 26  1  0  0  0  0
 26 27  2  0  0  0  0
 27 28  1  0  0  0  0
 28 29  2  0  0  0  0
 29 24  1  0  0  0  0
 24 30  1  0  0  0  0
 29 31  1  0  0  0  0
 28 32  1  0  0  0  0
 26 33  1  0  0  0  0
 33 34  2  0  0  0  0
 35 36  2  0  0  0  0
 36 37  1  0  0  0  0
 37 38  2  0  0  0  0
 38 39  1  0  0  0  0
 39 40  2  0  0  0  0
 40 35  1  0  0  0  0
 35 41  1  0  0  0  0
 40 42  1  0  0  0  0
 39 43  1  0  0  0  0
 37 44  1  0  0  0  0
 44 45  2  0  0  0  0
 46 47  2  0  0  0  0
 47 48  1  0  0  0  0
 48 49  2  0  0  0  0
 49 50  1  0  0  0  0
 50 51  2  0  0  0  0
 51 46  1  0  0  0  0
 46 52  1  0  0  0  0
 51 53  1  0  0  0  0
 50 54  1  0  0  0  0
 48 55  1  0  0  0  0
 55 56  2  0  0  0  0
 57 58  2  0  0  0  0
 58 59  1  0  0  0  0
 59 60  2  0  0  0  0
 60 61  1  0  0  0  0
 61 62  2  0  0  0  0
 62 57  1  0  0  0  0
 57 63  1  0  0  0  0
 62 64  1  0  0  0  0
 61 65  1  0  0  0  0
 59 66  1  0  0  0  0
 66 67  2  0  0  0  0
 66 12  1  0  0  0  0
 55  9  1  0  0  0  0
 22 11  1  0  0  0  0
 44  8  1  0  0  0  0
 33 10  1  0  0  0  0
M  END
>  <cdx:fragmentId>
5

$$$$
