93240.cdx
  Mrv1902 05222410272D          

 49 53  0  0  0  0            999 V2000
    4.7831  -12.0851    0.0000 O   0  0  0  0  0  0  0  0  0  0  0  0
    4.7831  -12.9101    0.0000 C   0  0  0  0  0  0  0  0  0  0  0  0
    6.2120  -12.9101    0.0000 O   0  0  0  0  0  0  0  0  0  0  0  0
    6.2120  -12.0851    0.0000 C   0  0  0  0  0  0  0  0  0  0  0  0
    5.4975  -11.6726    0.0000 C   0  0  0  0  0  0  0  0  0  0  0  0
    6.9265  -11.6726    0.0000 C   0  0  0  0  0  0  0  0  0  0  0  0
    6.9265  -10.8476    0.0000 C   0  0  0  0  0  0  0  0  0  0  0  0
    6.2120  -10.4351    0.0000 C   0  0  0  0  0  0  0  0  0  0  0  0
    5.4975  -10.8476    0.0000 C   0  0  0  0  0  0  0  0  0  0  0  0
    6.2120   -9.6101    0.0000 C   0  0  2  0  0  0  0  0  0  0  0  0
    5.5168   -9.1659    0.0000 C   0  0  1  0  0  0  0  0  0  0  0  0
    4.7845   -9.5458    0.0000 C   0  0  0  0  0  0  0  0  0  0  0  0
    6.8493   -9.0863    0.0000 O   0  0  0  0  0  0  0  0  0  0  0  0
    6.5480   -8.3183    0.0000 C   0  0  0  0  0  0  0  0  0  0  0  0
    5.7245   -8.3675    0.0000 C   0  0  2  0  0  0  0  0  0  0  0  0
    6.7557   -7.5198    0.0000 C   0  0  0  0  0  0  0  0  0  0  0  0
    6.0605   -7.0756    0.0000 C   0  0  0  0  0  0  0  0  0  0  0  0
    5.4232   -7.5995    0.0000 C   0  0  0  0  0  0  0  0  0  0  0  0
    7.4880   -7.1399    0.0000 C   0  0  0  0  0  0  0  0  0  0  0  0
    7.5251   -6.3157    0.0000 C   0  0  0  0  0  0  0  0  0  0  0  0
    6.8300   -5.8715    0.0000 C   0  0  0  0  0  0  0  0  0  0  0  0
    6.0977   -6.2514    0.0000 C   0  0  0  0  0  0  0  0  0  0  0  0
    8.1832   -7.5841    0.0000 O   0  0  0  0  0  0  0  0  0  0  0  0
    8.9155   -7.2042    0.0000 C   0  0  0  0  0  0  0  0  0  0  0  0
    8.2575   -5.9358    0.0000 O   0  0  0  0  0  0  0  0  0  0  0  0
    4.0893   -9.1016    0.0000 O   0  0  0  0  0  0  0  0  0  0  0  0
    4.9003   -8.3303    0.0000 O   0  0  0  0  0  0  0  0  0  0  0  0
    8.2946   -5.1117    0.0000 C   0  0  2  0  0  0  0  0  0  0  0  0
    9.0269   -4.7317    0.0000 O   0  0  0  0  0  0  0  0  0  0  0  0
    9.0640   -3.9076    0.0000 C   0  0  1  0  0  0  0  0  0  0  0  0
    8.3689   -3.4633    0.0000 C   0  0  2  0  0  0  0  0  0  0  0  0
    7.6365   -3.8432    0.0000 C   0  0  1  0  0  0  0  0  0  0  0  0
    7.5994   -4.6674    0.0000 C   0  0  1  0  0  0  0  0  0  0  0  0
    9.7964   -3.5276    0.0000 C   0  0  0  0  0  0  0  0  0  0  0  0
    6.9414   -3.3990    0.0000 O   0  0  0  0  0  0  0  0  0  0  0  0
    8.4060   -2.6392    0.0000 O   0  0  0  0  0  0  0  0  0  0  0  0
    6.8671   -5.0473    0.0000 O   0  0  0  0  0  0  0  0  0  0  0  0
    9.8335   -2.7035    0.0000 O   0  0  0  0  0  0  0  0  0  0  0  0
    6.9265  -13.3226    0.0000 C   0  0  2  0  0  0  0  0  0  0  0  0
    6.9265  -14.1476    0.0000 O   0  0  0  0  0  0  0  0  0  0  0  0
    7.6409  -14.5601    0.0000 C   0  0  1  0  0  0  0  0  0  0  0  0
    8.3554  -14.1476    0.0000 C   0  0  2  0  0  0  0  0  0  0  0  0
    8.3554  -13.3226    0.0000 C   0  0  1  0  0  0  0  0  0  0  0  0
    7.6409  -12.9101    0.0000 C   0  0  1  0  0  0  0  0  0  0  0  0
    7.6409  -15.3851    0.0000 C   0  0  0  0  0  0  0  0  0  0  0  0
    9.0699  -12.9101    0.0000 O   0  0  0  0  0  0  0  0  0  0  0  0
    7.6409  -12.0851    0.0000 O   0  0  0  0  0  0  0  0  0  0  0  0
    9.0699  -14.5601    0.0000 O   0  0  0  0  0  0  0  0  0  0  0  0
    8.3554  -15.7976    0.0000 O   0  0  0  0  0  0  0  0  0  0  0  0
  1  2  1  0  0  0  0
  3  4  1  0  0  0  0
  4  5  2  0  0  0  0
  5  1  1  0  0  0  0
  4  6  1  0  0  0  0
  6  7  2  0  0  0  0
  7  8  1  0  0  0  0
  8  9  2  0  0  0  0
  9  5  1  0  0  0  0
 10  8  1  6  0  0  0
 10 11  1  0  0  0  0
 11 12  1  1  0  0  0
 10 13  1  0  0  0  0
 13 14  1  0  0  0  0
 14 15  1  0  0  0  0
 15 11  1  0  0  0  0
 16 17  2  0  0  0  0
 17 18  1  0  0  0  0
 18 15  1  0  0  0  0
 16 19  1  0  0  0  0
 19 20  2  0  0  0  0
 20 21  1  0  0  0  0
 21 22  2  0  0  0  0
 22 17  1  0  0  0  0
 19 23  1  0  0  0  0
 23 24  1  0  0  0  0
 25 20  1  0  0  0  0
 12 26  1  0  0  0  0
 15 27  1  6  0  0  0
 28 25  1  1  0  0  0
 28 29  1  0  0  0  0
 29 30  1  0  0  0  0
 30 31  1  0  0  0  0
 31 32  1  0  0  0  0
 32 33  1  0  0  0  0
 33 28  1  0  0  0  0
 30 34  1  1  0  0  0
 32 35  1  1  0  0  0
 31 36  1  6  0  0  0
 33 37  1  6  0  0  0
 34 38  1  0  0  0  0
 39  3  1  1  0  0  0
 39 40  1  0  0  0  0
 40 41  1  0  0  0  0
 41 42  1  0  0  0  0
 42 43  1  0  0  0  0
 43 44  1  0  0  0  0
 44 39  1  0  0  0  0
 41 45  1  1  0  0  0
 43 46  1  1  0  0  0
 44 47  1  6  0  0  0
 42 48  1  6  0  0  0
 45 49  1  0  0  0  0
M  END
>  <cdx:fragmentId>
5

$$$$
