93245.cdx
  Mrv1902 05222410262D          

 18 19  0  0  0  0            999 V2000
    6.7906   -5.5413    0.0000 C   0  0  0  0  0  0  0  0  0  0  0  0
    6.7906   -6.3662    0.0000 C   0  0  0  0  0  0  0  0  0  0  0  0
    7.5050   -6.7788    0.0000 C   0  0  0  0  0  0  0  0  0  0  0  0
    8.2195   -6.3662    0.0000 C   0  0  1  0  0  0  0  0  0  0  0  0
    8.2195   -5.5413    0.0000 C   0  0  1  0  0  0  0  0  0  0  0  0
    7.5050   -5.1287    0.0000 C   0  0  0  0  0  0  0  0  0  0  0  0
    8.9340   -6.7788    0.0000 C   0  0  2  0  0  0  0  0  0  0  0  0
    9.6484   -6.3662    0.0000 C   0  0  0  0  0  0  0  0  0  0  0  0
    9.6484   -5.5413    0.0000 C   0  0  0  0  0  0  0  0  0  0  0  0
    8.9340   -5.1287    0.0000 C   0  0  0  0  0  0  0  0  0  0  0  0
    6.0761   -5.1287    0.0000 O   0  0  0  0  0  0  0  0  0  0  0  0
    6.0761   -6.7788    0.0000 C   0  0  0  0  0  0  0  0  0  0  0  0
    5.3616   -7.1913    0.0000 O   0  0  0  0  0  0  0  0  0  0  0  0
    5.6636   -6.0643    0.0000 C   0  0  0  0  0  0  0  0  0  0  0  0
    6.4886   -7.4932    0.0000 C   0  0  0  0  0  0  0  0  0  0  0  0
    8.2195   -4.7162    0.0000 H   0  0  0  0  0  0  0  0  0  0  0  0
    8.2195   -7.1913    0.0000 C   0  0  0  0  0  0  0  0  0  0  0  0
    8.9340   -7.6037    0.0000 C   0  0  0  0  0  0  0  0  0  0  0  0
  1  2  1  0  0  0  0
  2  3  2  0  0  0  0
  3  4  1  0  0  0  0
  4  5  1  0  0  0  0
  5  6  1  0  0  0  0
  6  1  1  0  0  0  0
  4  7  1  0  0  0  0
  7  8  1  0  0  0  0
  8  9  1  0  0  0  0
  9 10  1  0  0  0  0
 10  5  1  0  0  0  0
  1 11  2  0  0  0  0
  2 12  1  0  0  0  0
 12 13  1  0  0  0  0
 12 14  1  0  0  0  0
 12 15  1  0  0  0  0
  5 16  1  6  0  0  0
  4 17  1  6  0  0  0
  7 18  1  6  0  0  0
M  END
>  <cdx:fragmentId>
5

$$$$
