93247.cdx
  Mrv1902 05222410262D          

 14 14  0  0  0  0            999 V2000
    6.4812   -8.2560    0.0000 C   0  0  0  0  0  0  0  0  0  0  0  0
    6.4812   -9.0810    0.0000 C   0  0  0  0  0  0  0  0  0  0  0  0
    7.1956   -9.4935    0.0000 C   0  0  0  0  0  0  0  0  0  0  0  0
    7.9101   -9.0810    0.0000 C   0  0  0  0  0  0  0  0  0  0  0  0
    7.9101   -8.2560    0.0000 C   0  0  0  0  0  0  0  0  0  0  0  0
    7.1956   -7.8435    0.0000 C   0  0  0  0  0  0  0  0  0  0  0  0
    5.7667   -7.8435    0.0000 O   0  0  0  0  0  0  0  0  0  0  0  0
    8.6246  -10.3185    0.0000 C   0  0  0  0  0  0  0  0  0  0  0  0
    8.6246   -9.4935    0.0000 C   0  0  0  0  0  0  0  0  0  0  0  0
    9.3391   -9.0810    0.0000 C   0  0  0  0  0  0  0  0  0  0  0  0
    7.1956   -7.0185    0.0000 O   0  0  0  0  0  0  0  0  0  0  0  0
    7.9101   -6.6060    0.0000 C   0  0  0  0  0  0  0  0  0  0  0  0
    5.7667   -9.4935    0.0000 O   0  0  0  0  0  0  0  0  0  0  0  0
    5.0522   -9.0810    0.0000 C   0  0  0  0  0  0  0  0  0  0  0  0
  1  2  1  0  0  0  0
  2  3  2  0  0  0  0
  3  4  1  0  0  0  0
  4  5  2  0  0  0  0
  5  6  1  0  0  0  0
  1  6  2  0  0  0  0
  1  7  1  0  0  0  0
  8  9  1  0  0  0  0
  9 10  1  0  0  0  0
  4  9  1  0  0  0  0
 11 12  1  0  0  0  0
  6 11  1  0  0  0  0
 13 14  1  0  0  0  0
  2 13  1  0  0  0  0
M  END
>  <cdx:groupId>
44

>  <cdx:fragmentId>
5

$$$$
