93256.cdx
  Mrv1902 05222410282D          

 24 26  0  0  0  0            999 V2000
    4.9877   -5.4313    0.0000 C   0  0  0  0  0  0  0  0  0  0  0  0
    4.9877   -6.2563    0.0000 C   0  0  0  0  0  0  0  0  0  0  0  0
    5.7021   -6.6688    0.0000 C   0  0  0  0  0  0  0  0  0  0  0  0
    6.4166   -6.2563    0.0000 C   0  0  0  0  0  0  0  0  0  0  0  0
    6.4166   -5.4313    0.0000 C   0  0  0  0  0  0  0  0  0  0  0  0
    5.7021   -5.0187    0.0000 C   0  0  0  0  0  0  0  0  0  0  0  0
    7.1311   -6.6688    0.0000 C   0  0  0  0  0  0  0  0  0  0  0  0
    7.8455   -6.2563    0.0000 C   0  0  1  0  0  0  0  0  0  0  0  0
    7.8455   -5.4313    0.0000 C   0  0  2  0  0  0  0  0  0  0  0  0
    7.1311   -5.0187    0.0000 O   0  0  0  0  0  0  0  0  0  0  0  0
    8.5600   -5.0187    0.0000 C   0  0  0  0  0  0  0  0  0  0  0  0
    9.2745   -5.4313    0.0000 C   0  0  0  0  0  0  0  0  0  0  0  0
    9.9890   -5.0187    0.0000 C   0  0  0  0  0  0  0  0  0  0  0  0
    9.9890   -4.1937    0.0000 C   0  0  0  0  0  0  0  0  0  0  0  0
    9.2745   -3.7813    0.0000 C   0  0  0  0  0  0  0  0  0  0  0  0
    8.5600   -4.1937    0.0000 C   0  0  0  0  0  0  0  0  0  0  0  0
    4.2732   -5.0187    0.0000 O   0  0  0  0  0  0  0  0  0  0  0  0
    5.7021   -7.4937    0.0000 O   0  0  0  0  0  0  0  0  0  0  0  0
    7.1311   -7.4937    0.0000 O   0  0  0  0  0  0  0  0  0  0  0  0
    8.5600   -6.6687    0.0000 O   0  0  0  0  0  0  0  0  0  0  0  0
    8.5600   -7.4937    0.0000 C   0  0  0  0  0  0  0  0  0  0  0  0
    7.8455   -7.9062    0.0000 O   0  0  0  0  0  0  0  0  0  0  0  0
    9.2745   -7.9062    0.0000 C   0  0  0  0  0  0  0  0  0  0  0  0
    4.9877   -7.9063    0.0000 C   0  0  0  0  0  0  0  0  0  0  0  0
  1  2  2  0  0  0  0
  2  3  1  0  0  0  0
  3  4  2  0  0  0  0
  4  5  1  0  0  0  0
  5  6  2  0  0  0  0
  6  1  1  0  0  0  0
  4  7  1  0  0  0  0
  7  8  1  0  0  0  0
  8  9  1  0  0  0  0
  9 10  1  0  0  0  0
 10  5  1  0  0  0  0
 11 12  2  0  0  0  0
 12 13  1  0  0  0  0
 13 14  2  0  0  0  0
 14 15  1  0  0  0  0
 15 16  2  0  0  0  0
 16 11  1  0  0  0  0
  1 17  1  0  0  0  0
  3 18  1  0  0  0  0
  7 19  2  0  0  0  0
  9 11  1  6  0  0  0
  8 20  1  1  0  0  0
 20 21  1  0  0  0  0
 21 22  2  0  0  0  0
 21 23  1  0  0  0  0
 18 24  1  0  0  0  0
M  END
>  <cdx:fragmentId>
99

$$$$
