93253.cdx
  Mrv1902 05222410262D          

 22 24  0  0  0  0            999 V2000
    5.9101   -8.0513    0.0000 C   0  0  0  0  0  0  0  0  0  0  0  0
    5.1956   -8.4638    0.0000 C   0  0  0  0  0  0  0  0  0  0  0  0
    5.1956   -9.2888    0.0000 C   0  0  0  0  0  0  0  0  0  0  0  0
    5.9101   -9.7013    0.0000 C   0  0  1  0  0  0  0  0  0  0  0  0
    6.3226  -10.4158    0.0000 C   0  0  0  0  0  0  0  0  0  0  0  0
    5.4976  -10.4158    0.0000 C   0  0  0  0  0  0  0  0  0  0  0  0
    6.6246   -9.2888    0.0000 C   0  0  0  0  0  0  0  0  0  0  0  0
    7.3390   -9.7013    0.0000 C   0  0  0  0  0  0  0  0  0  0  0  0
    8.0535   -9.2888    0.0000 C   0  0  0  0  0  0  0  0  0  0  0  0
    8.0535   -8.4638    0.0000 C   0  0  0  0  0  0  0  0  0  0  0  0
    8.7680   -8.0513    0.0000 C   0  0  0  0  0  0  0  0  0  0  0  0
    8.7680   -7.2263    0.0000 C   0  0  1  0  0  0  0  0  0  0  0  0
    9.5930   -7.2263    0.0000 C   0  0  0  0  0  0  0  0  0  0  0  0
   10.0055   -6.5118    0.0000 C   0  0  0  0  0  0  0  0  0  0  0  0
    9.1805   -6.5118    0.0000 C   0  0  0  0  0  0  0  0  0  0  0  0
    8.0535   -6.8138    0.0000 C   0  0  0  0  0  0  0  0  0  0  0  0
    7.3390   -7.2263    0.0000 C   0  0  0  0  0  0  0  0  0  0  0  0
    7.3390   -8.0513    0.0000 C   0  0  2  0  0  0  0  0  0  0  0  0
    6.6246   -8.4638    0.0000 C   0  0  1  0  0  0  0  0  0  0  0  0
    6.6246   -7.6388    0.0000 C   0  0  0  0  0  0  0  0  0  0  0  0
    4.4812   -9.7013    0.0000 O   0  0  0  0  0  0  0  0  0  0  0  0
    7.3390   -8.8763    0.0000 H   0  0  0  0  0  0  0  0  0  0  0  0
  1  2  1  0  0  0  0
  2  3  1  0  0  0  0
  3  4  1  0  0  0  0
  4  5  1  1  0  0  0
  4  6  1  6  0  0  0
  4  7  1  0  0  0  0
  7  8  1  0  0  0  0
  8  9  1  0  0  0  0
  9 10  2  0  0  0  0
 10 11  1  0  0  0  0
 11 12  1  0  0  0  0
 12 13  1  1  0  0  0
 13 14  2  0  0  0  0
 12 15  1  6  0  0  0
 12 16  1  0  0  0  0
 16 17  1  0  0  0  0
 17 18  1  0  0  0  0
 10 18  1  0  0  0  0
 18 19  1  0  0  0  0
 19 20  1  1  0  0  0
  1 19  1  0  0  0  0
  7 19  1  0  0  0  0
  3 21  2  0  0  0  0
 18 22  1  6  0  0  0
M  END
>  <cdx:groupId>
70

>  <cdx:fragmentId>
5

$$$$
