93269.cdx
  Mrv1902 05222410272D          

 48 52  0  0  0  0            999 V2000
    2.8237  -10.2713    0.0000 O   0  0  0  0  0  0  0  0  0  0  0  0
    3.5381  -11.5087    0.0000 O   0  0  0  0  0  0  0  0  0  0  0  0
    4.2526  -11.0962    0.0000 C   0  0  2  0  0  0  0  0  0  0  0  0
    4.2526  -10.2713    0.0000 C   0  0  1  0  0  0  0  0  0  0  0  0
    3.5381   -9.8588    0.0000 C   0  0  0  0  0  0  0  0  0  0  0  0
    4.9671  -11.5087    0.0000 C   0  0  1  0  0  0  0  0  0  0  0  0
    5.6816  -11.0962    0.0000 C   0  0  2  0  0  0  0  0  0  0  0  0
    5.6816  -10.2713    0.0000 C   0  0  1  0  0  0  0  0  0  0  0  0
    4.9671   -9.8588    0.0000 O   0  0  0  0  0  0  0  0  0  0  0  0
    6.3960   -9.8588    0.0000 O   0  0  0  0  0  0  0  0  0  0  0  0
    6.3960   -9.0337    0.0000 C   0  0  0  0  0  0  0  0  0  0  0  0
    5.6816   -8.6212    0.0000 C   0  0  0  0  0  0  0  0  0  0  0  0
    8.5394   -6.9712    0.0000 H   0  0  0  0  0  0  0  0  0  0  0  0
    5.6816   -7.7963    0.0000 C   0  0  0  0  0  0  0  0  0  0  0  0
    6.3960   -8.2088    0.0000 C   0  0  0  0  0  0  0  0  0  0  0  0
    9.9684   -6.9712    0.0000 C   0  0  0  0  0  0  0  0  0  0  0  0
    8.5394   -9.4462    0.0000 C   0  0  0  0  0  0  0  0  0  0  0  0
    8.4083  -11.2109    0.0000 O   0  0  0  0  0  0  0  0  0  0  0  0
    9.4188  -10.2005    0.0000 O   0  0  0  0  0  0  0  0  0  0  0  0
    8.6219  -10.4140    0.0000 C   0  0  0  0  0  0  0  0  0  0  0  0
    7.2416   -9.6171    0.0000 O   0  0  0  0  0  0  0  0  0  0  0  0
    8.0385   -9.8306    0.0000 C   0  0  2  0  0  0  0  0  0  0  0  0
    9.2539   -9.8587    0.0000 O   0  0  0  0  0  0  0  0  0  0  0  0
   11.3973   -6.9712    0.0000 O   0  0  0  0  0  0  0  0  0  0  0  0
   11.3973   -7.7962    0.0000 C   0  0  0  0  0  0  0  0  0  0  0  0
   10.6829   -6.5587    0.0000 C   0  0  0  0  0  0  0  0  0  0  0  0
    4.8969   -7.5413    0.0000 O   0  0  0  0  0  0  0  0  0  0  0  0
    4.4120   -8.2088    0.0000 C   0  0  0  0  0  0  0  0  0  0  0  0
    4.8969   -8.8762    0.0000 C   0  0  0  0  0  0  0  0  0  0  0  0
    9.9684   -5.3212    0.0000 C   0  0  0  0  0  0  0  0  0  0  0  0
   10.6829   -7.3837    0.0000 C   0  0  0  0  0  0  0  0  0  0  0  0
    9.9684   -6.1462    0.0000 C   0  0  0  0  0  0  0  0  0  0  0  0
    9.2539   -6.5587    0.0000 C   0  0  0  0  0  0  0  0  0  0  0  0
    9.2539   -9.0337    0.0000 C   0  0  0  0  0  0  0  0  0  0  0  0
    9.9684   -8.6212    0.0000 C   0  0  0  0  0  0  0  0  0  0  0  0
    9.9684   -7.7962    0.0000 C   0  0  2  0  0  0  0  0  0  0  0  0
    9.2539   -7.3837    0.0000 C   0  0  2  0  0  0  0  0  0  0  0  0
    4.9671  -12.3338    0.0000 O   0  0  0  0  0  0  0  0  0  0  0  0
    8.5394   -8.6212    0.0000 C   0  0  1  0  0  0  0  0  0  0  0  0
    8.5394   -7.7962    0.0000 C   0  0  2  0  0  0  0  0  0  0  0  0
    7.8250   -7.3837    0.0000 C   0  0  0  0  0  0  0  0  0  0  0  0
    6.3960  -11.5087    0.0000 O   0  0  0  0  0  0  0  0  0  0  0  0
    7.1105   -7.7962    0.0000 C   0  0  0  0  0  0  0  0  0  0  0  0
    7.8250   -9.0337    0.0000 C   0  0  0  0  0  0  0  0  0  0  0  0
    7.1105   -8.6212    0.0000 C   0  0  2  0  0  0  0  0  0  0  0  0
    9.2539   -4.9087    0.0000 O   0  0  0  0  0  0  0  0  0  0  0  0
   10.6829   -4.9087    0.0000 O   0  0  0  0  0  0  0  0  0  0  0  0
   10.6829   -8.2087    0.0000 H   0  0  0  0  0  0  0  0  0  0  0  0
  3  2  1  6  0  0  0
  3  4  1  0  0  0  0
  4  5  1  1  0  0  0
  5  1  1  0  0  0  0
  3  6  1  0  0  0  0
  6  7  1  0  0  0  0
  7  8  1  0  0  0  0
  8  9  1  0  0  0  0
  9  4  1  0  0  0  0
  8 10  1  1  0  0  0
 10 11  1  0  0  0  0
 11 12  1  0  0  0  0
 40 13  1  1  0  0  0
 11 45  1  0  0  0  0
 45 15  1  1  0  0  0
 14 12  2  0  0  0  0
 37 16  1  6  0  0  0
 39 17  1  6  0  0  0
 20 18  2  0  0  0  0
 20 19  1  0  0  0  0
 22 20  1  6  0  0  0
 21 44  1  0  0  0  0
 22 21  1  0  0  0  0
 44 22  1  0  0  0  0
 34 23  2  0  0  0  0
 31 24  1  0  0  0  0
 31 25  1  0  0  0  0
 31 26  1  0  0  0  0
 14 27  1  0  0  0  0
 27 28  1  0  0  0  0
 28 29  2  0  0  0  0
 29 12  1  0  0  0  0
 30 32  1  0  0  0  0
 31 36  1  0  0  0  0
 33 32  2  0  0  0  0
 37 33  1  0  0  0  0
 34 39  1  0  0  0  0
 35 34  1  0  0  0  0
 36 35  1  0  0  0  0
 37 36  1  0  0  0  0
 40 37  1  0  0  0  0
 39 44  1  0  0  0  0
 40 39  1  0  0  0  0
 41 40  1  0  0  0  0
 43 41  1  0  0  0  0
  6 38  1  1  0  0  0
 45 43  1  0  0  0  0
  7 42  1  6  0  0  0
 45 44  1  0  0  0  0
 30 46  2  0  0  0  0
 30 47  1  0  0  0  0
 36 48  1  1  0  0  0
M  END
>  <cdx:fragmentId>
5

$$$$
