93260.cdx
  Mrv1902 05222410202D          

 10 10  0  0  0  0            999 V2000
    7.5653   -7.6586    0.0000 C   0  0  0  0  0  0  0  0  0  0  0  0
    7.5653   -8.4836    0.0000 C   0  0  0  0  0  0  0  0  0  0  0  0
    6.8508   -8.8961    0.0000 C   0  0  0  0  0  0  0  0  0  0  0  0
    6.1363   -8.4836    0.0000 C   0  0  0  0  0  0  0  0  0  0  0  0
    6.1363   -7.6586    0.0000 C   0  0  0  0  0  0  0  0  0  0  0  0
    6.8508   -7.2461    0.0000 C   0  0  0  0  0  0  0  0  0  0  0  0
    5.4218   -7.2461    0.0000 C   0  0  0  0  0  0  0  0  0  0  0  0
    8.2797   -8.8961    0.0000 C   0  0  0  0  0  0  0  0  0  0  0  0
    8.2797   -9.7211    0.0000 C   0  0  0  0  0  0  0  0  0  0  0  0
    8.9942   -8.4836    0.0000 C   0  0  0  0  0  0  0  0  0  0  0  0
  1  2  1  0  0  0  0
  2  3  1  0  0  0  0
  3  4  1  0  0  0  0
  4  5  1  0  0  0  0
  5  6  1  0  0  0  0
  1  6  2  0  0  0  0
  5  7  2  0  0  0  0
  8  9  2  0  0  0  0
  8 10  1  0  0  0  0
  2  8  1  0  0  0  0
M  END
>  <cdx:groupId>
32

>  <cdx:fragmentId>
5

$$$$
