93265.cdx
  Mrv1902 05222410192D          

 20 21  0  0  0  0            999 V2000
   10.0155   -6.3388    0.0000 O   0  0  0  0  0  0  0  0  0  0  0  0
    8.5865   -5.5137    0.0000 O   0  0  0  0  0  0  0  0  0  0  0  0
    2.8707   -7.9888    0.0000 C   0  0  0  0  0  0  0  0  0  0  0  0
    3.5852   -7.5762    0.0000 C   0  0  0  0  0  0  0  0  0  0  0  0
    4.2997   -7.9888    0.0000 C   0  0  0  0  0  0  0  0  0  0  0  0
    5.7286   -6.3388    0.0000 C   0  0  0  0  0  0  0  0  0  0  0  0
    5.0142   -6.7512    0.0000 C   0  0  0  0  0  0  0  0  0  0  0  0
    5.0142   -7.5762    0.0000 C   0  0  0  0  0  0  0  0  0  0  0  0
    5.7286   -7.9888    0.0000 C   0  0  0  0  0  0  0  0  0  0  0  0
    7.1576   -6.3388    0.0000 O   0  0  0  0  0  0  0  0  0  0  0  0
    6.4431   -6.7512    0.0000 C   0  0  0  0  0  0  0  0  0  0  0  0
    6.4431   -7.5762    0.0000 C   0  0  0  0  0  0  0  0  0  0  0  0
    8.5865   -8.8138    0.0000 C   0  0  0  0  0  0  0  0  0  0  0  0
    9.3010   -9.2263    0.0000 O   0  0  0  0  0  0  0  0  0  0  0  0
    8.5865   -6.3388    0.0000 C   0  0  0  0  0  0  0  0  0  0  0  0
    7.8720   -6.7512    0.0000 C   0  0  0  0  0  0  0  0  0  0  0  0
    7.8720   -7.5762    0.0000 C   0  0  0  0  0  0  0  0  0  0  0  0
    8.5865   -7.9888    0.0000 C   0  0  0  0  0  0  0  0  0  0  0  0
    9.3010   -7.5762    0.0000 C   0  0  0  0  0  0  0  0  0  0  0  0
    9.3010   -6.7512    0.0000 C   0  0  0  0  0  0  0  0  0  0  0  0
 20  1  1  0  0  0  0
 15  2  1  0  0  0  0
  4  3  2  0  0  0  0
  5  4  1  0  0  0  0
  8  5  1  0  0  0  0
  6 11  1  0  0  0  0
  7  6  2  0  0  0  0
  8  7  1  0  0  0  0
  9  8  2  0  0  0  0
 12  9  1  0  0  0  0
 10 16  1  0  0  0  0
 11 10  1  0  0  0  0
 12 11  2  0  0  0  0
 13 18  1  0  0  0  0
 14 13  2  0  0  0  0
 15 20  1  0  0  0  0
 16 15  2  0  0  0  0
 17 16  1  0  0  0  0
 18 17  2  0  0  0  0
 19 18  1  0  0  0  0
 20 19  2  0  0  0  0
M  END
>  <cdx:fragmentId>
5

$$$$
