93268.cdx
  Mrv1902 05222410272D          

 50 54  0  0  0  0            999 V2000
   17.6028   -8.9082    0.0000 C   0  0  2  0  0  0  0  0  0  0  0  0
   13.6779  -10.6718    0.0000 C   0  0  0  0  0  0  0  0  0  0  0  0
   12.9635  -11.0843    0.0000 C   0  0  0  0  0  0  0  0  0  0  0  0
   12.9635  -11.9093    0.0000 C   0  0  0  0  0  0  0  0  0  0  0  0
   13.6779  -12.3218    0.0000 C   0  0  0  0  0  0  0  0  0  0  0  0
   14.3924  -11.9093    0.0000 C   0  0  0  0  0  0  0  0  0  0  0  0
   15.1069  -12.3218    0.0000 C   0  0  0  0  0  0  0  0  0  0  0  0
   15.8213  -11.9093    0.0000 C   0  0  0  0  0  0  0  0  0  0  0  0
   15.8213  -11.0843    0.0000 C   0  0  1  0  0  0  0  0  0  0  0  0
   16.5358  -10.6718    0.0000 C   0  0  2  0  0  0  0  0  0  0  0  0
   17.3204  -10.9267    0.0000 C   0  0  0  0  0  0  0  0  0  0  0  0
   17.8054  -10.2593    0.0000 C   0  0  0  0  0  0  0  0  0  0  0  0
   17.3204   -9.5919    0.0000 C   0  0  0  0  0  0  0  0  0  0  0  0
   16.5358   -9.8468    0.0000 C   0  0  0  0  0  0  0  0  0  0  0  0
   15.8213   -9.4343    0.0000 C   0  0  0  0  0  0  0  0  0  0  0  0
   15.1069   -9.8468    0.0000 C   0  0  0  0  0  0  0  0  0  0  0  0
   15.1069  -10.6718    0.0000 C   0  0  0  0  0  0  0  0  0  0  0  0
   14.3924  -11.0843    0.0000 C   0  0  1  0  0  0  0  0  0  0  0  0
   16.5358  -11.4968    0.0000 C   0  0  0  0  0  0  0  0  0  0  0  0
   14.3924  -10.2593    0.0000 C   0  0  0  0  0  0  0  0  0  0  0  0
   15.8213  -10.2593    0.0000 C   0  0  0  0  0  0  0  0  0  0  0  0
   14.0904  -13.0363    0.0000 C   0  0  0  0  0  0  0  0  0  0  0  0
   13.2654  -13.0363    0.0000 C   0  0  0  0  0  0  0  0  0  0  0  0
   12.2490  -12.3218    0.0000 O   0  0  0  0  0  0  0  0  0  0  0  0
   18.1861   -9.4916    0.0000 C   0  0  0  0  0  0  0  0  0  0  0  0
   18.3831   -8.6406    0.0000 C   0  0  0  0  0  0  0  0  0  0  0  0
   18.3698   -7.8157    0.0000 C   0  0  0  0  0  0  0  0  0  0  0  0
   17.5811   -7.5735    0.0000 C   0  0  1  0  0  0  0  0  0  0  0  0
   17.1071   -8.2487    0.0000 O   0  0  0  0  0  0  0  0  0  0  0  0
   17.3135   -6.7931    0.0000 C   0  0  0  0  0  0  0  0  0  0  0  0
   16.5038   -6.6347    0.0000 C   0  0  0  0  0  0  0  0  0  0  0  0
   17.8555   -6.1712    0.0000 C   0  0  0  0  0  0  0  0  0  0  0  0
   17.0458   -6.0128    0.0000 O   0  0  0  0  0  0  0  0  0  0  0  0
   11.5345  -11.9093    0.0000 C   0  0  0  0  0  0  0  0  0  0  0  0
   11.5345  -11.0843    0.0000 O   0  0  0  0  0  0  0  0  0  0  0  0
   10.8201  -12.3218    0.0000 C   0  0  0  0  0  0  0  0  0  0  0  0
   10.1056  -11.9093    0.0000 C   0  0  0  0  0  0  0  0  0  0  0  0
    9.3911  -12.3218    0.0000 C   0  0  0  0  0  0  0  0  0  0  0  0
    8.6766  -11.9093    0.0000 C   0  0  0  0  0  0  0  0  0  0  0  0
    7.9622  -12.3218    0.0000 C   0  0  0  0  0  0  0  0  0  0  0  0
    7.2477  -11.9093    0.0000 C   0  0  0  0  0  0  0  0  0  0  0  0
    6.5332  -12.3218    0.0000 C   0  0  0  0  0  0  0  0  0  0  0  0
    5.8188  -11.9093    0.0000 C   0  0  0  0  0  0  0  0  0  0  0  0
    5.1043  -12.3218    0.0000 C   0  0  0  0  0  0  0  0  0  0  0  0
    4.3898  -11.9093    0.0000 C   0  0  0  0  0  0  0  0  0  0  0  0
    3.6753  -12.3218    0.0000 C   0  0  0  0  0  0  0  0  0  0  0  0
    2.9609  -11.9093    0.0000 C   0  0  0  0  0  0  0  0  0  0  0  0
    2.2464  -12.3218    0.0000 C   0  0  0  0  0  0  0  0  0  0  0  0
    1.5319  -11.9093    0.0000 C   0  0  0  0  0  0  0  0  0  0  0  0
    0.8175  -12.3218    0.0000 C   0  0  0  0  0  0  0  0  0  0  0  0
  2  3  1  0  0  0  0
  3  4  1  0  0  0  0
  4  5  1  0  0  0  0
  5  6  1  0  0  0  0
  6  7  1  0  0  0  0
  7  8  1  0  0  0  0
  8  9  1  0  0  0  0
  9 10  1  0  0  0  0
 10 11  1  0  0  0  0
 11 12  1  0  0  0  0
 13 12  1  0  0  0  0
 13 14  1  0  0  0  0
 10 14  1  0  0  0  0
 14 15  1  0  0  0  0
 15 16  1  0  0  0  0
 16 17  1  0  0  0  0
  9 17  1  0  0  0  0
 17 18  1  0  0  0  0
  6 18  1  0  0  0  0
  2 18  1  0  0  0  0
 10 19  1  6  0  0  0
 18 20  1  1  0  0  0
  9 21  1  1  0  0  0
  5 22  1  0  0  0  0
  5 23  1  0  0  0  0
  4 24  1  0  0  0  0
  1 13  1  0  0  0  0
  1 25  1  6  0  0  0
  1 26  1  0  0  0  0
 26 27  1  0  0  0  0
 27 28  1  0  0  0  0
 28 29  1  0  0  0  0
 29  1  1  0  0  0  0
 28 30  1  1  0  0  0
 30 31  1  0  0  0  0
 30 32  1  0  0  0  0
 30 33  1  0  0  0  0
 24 34  1  0  0  0  0
 34 35  2  0  0  0  0
 34 36  1  0  0  0  0
 36 37  1  0  0  0  0
 37 38  1  0  0  0  0
 38 39  1  0  0  0  0
 39 40  1  0  0  0  0
 40 41  1  0  0  0  0
 41 42  1  0  0  0  0
 42 43  1  0  0  0  0
 43 44  1  0  0  0  0
 44 45  1  0  0  0  0
 45 46  1  0  0  0  0
 46 47  1  0  0  0  0
 47 48  1  0  0  0  0
 48 49  1  0  0  0  0
 49 50  1  0  0  0  0
M  END
>  <cdx:fragmentId>
32433

$$$$
