93267.cdx
  Mrv1902 05222410182D          

 21 23  0  0  0  0            999 V2000
    4.5493   -7.3425    0.0000 C   0  0  0  0  0  0  0  0  0  0  0  0
    4.5493   -8.1675    0.0000 C   0  0  0  0  0  0  0  0  0  0  0  0
    5.2638   -8.5800    0.0000 C   0  0  0  0  0  0  0  0  0  0  0  0
    5.9782   -8.1675    0.0000 C   0  0  0  0  0  0  0  0  0  0  0  0
    5.9782   -7.3425    0.0000 C   0  0  0  0  0  0  0  0  0  0  0  0
    5.2638   -6.9300    0.0000 C   0  0  0  0  0  0  0  0  0  0  0  0
    6.6927   -8.5800    0.0000 C   0  0  0  0  0  0  0  0  0  0  0  0
    7.4072   -8.1675    0.0000 C   0  0  0  0  0  0  0  0  0  0  0  0
    7.4072   -7.3425    0.0000 C   0  0  0  0  0  0  0  0  0  0  0  0
    6.6927   -6.9300    0.0000 C   0  0  0  0  0  0  0  0  0  0  0  0
    8.1217   -8.5800    0.0000 C   0  0  0  0  0  0  0  0  0  0  0  0
    8.8361   -8.1675    0.0000 C   0  0  0  0  0  0  0  0  0  0  0  0
    8.8361   -7.3425    0.0000 C   0  0  0  0  0  0  0  0  0  0  0  0
    8.1217   -6.9300    0.0000 C   0  0  0  0  0  0  0  0  0  0  0  0
    9.5506   -6.9300    0.0000 O   0  0  0  0  0  0  0  0  0  0  0  0
    8.8361   -5.6925    0.0000 C   0  0  0  0  0  0  0  0  0  0  0  0
    8.1217   -6.1050    0.0000 O   0  0  0  0  0  0  0  0  0  0  0  0
    9.5506   -8.5800    0.0000 C   0  0  0  0  0  0  0  0  0  0  0  0
    6.6927   -6.1050    0.0000 O   0  0  0  0  0  0  0  0  0  0  0  0
    6.6927   -9.4050    0.0000 O   0  0  0  0  0  0  0  0  0  0  0  0
    5.2638   -6.1050    0.0000 O   0  0  0  0  0  0  0  0  0  0  0  0
  1  2  1  0  0  0  0
  2  3  2  0  0  0  0
  3  4  1  0  0  0  0
  4  5  2  0  0  0  0
  5  6  1  0  0  0  0
  6  1  2  0  0  0  0
  4  7  1  0  0  0  0
  7  8  1  0  0  0  0
  8  9  1  0  0  0  0
  9 10  1  0  0  0  0
 10  5  1  0  0  0  0
  8 11  2  0  0  0  0
 11 12  1  0  0  0  0
 12 13  2  0  0  0  0
 13 14  1  0  0  0  0
 14  9  2  0  0  0  0
 13 15  1  0  0  0  0
 16 17  1  0  0  0  0
 17 14  1  0  0  0  0
 12 18  1  0  0  0  0
 10 19  2  0  0  0  0
  7 20  2  0  0  0  0
  6 21  1  0  0  0  0
M  END
>  <cdx:fragmentId>
5

$$$$
