93262.cdx
  Mrv1902 05222410202D          

 18 19  0  0  0  0            999 V2000
    3.5043   -6.6825    0.0000 C   0  0  0  0  0  0  0  0  0  0  0  0
    3.5043   -7.5075    0.0000 C   0  0  0  0  0  0  0  0  0  0  0  0
    4.2188   -7.9200    0.0000 C   0  0  0  0  0  0  0  0  0  0  0  0
    4.9332   -7.5075    0.0000 C   0  0  0  0  0  0  0  0  0  0  0  0
    4.9332   -6.6825    0.0000 C   0  0  2  0  0  0  0  0  0  0  0  0
    4.2188   -6.2700    0.0000 C   0  0  0  0  0  0  0  0  0  0  0  0
    5.6477   -7.9200    0.0000 C   0  0  0  0  0  0  0  0  0  0  0  0
    6.3622   -7.5075    0.0000 C   0  0  1  0  0  0  0  0  0  0  0  0
    6.3622   -6.6825    0.0000 C   0  0  0  0  0  0  0  0  0  0  0  0
    5.6477   -6.2700    0.0000 C   0  0  0  0  0  0  0  0  0  0  0  0
    7.0767   -7.9200    0.0000 C   0  0  0  0  0  0  0  0  0  0  0  0
    7.7911   -7.5075    0.0000 C   0  0  0  0  0  0  0  0  0  0  0  0
    7.7911   -6.6825    0.0000 O   0  0  0  0  0  0  0  0  0  0  0  0
    7.0767   -8.7450    0.0000 C   0  0  0  0  0  0  0  0  0  0  0  0
    8.5056   -7.9200    0.0000 O   0  0  0  0  0  0  0  0  0  0  0  0
    2.7898   -7.9200    0.0000 O   0  0  0  0  0  0  0  0  0  0  0  0
    4.2188   -8.7450    0.0000 C   0  0  0  0  0  0  0  0  0  0  0  0
    4.9332   -5.8575    0.0000 C   0  0  0  0  0  0  0  0  0  0  0  0
  1  2  1  0  0  0  0
  2  3  1  0  0  0  0
  3  4  2  0  0  0  0
  4  5  1  0  0  0  0
  5  6  1  0  0  0  0
  6  1  1  0  0  0  0
  4  7  1  0  0  0  0
  7  8  1  0  0  0  0
  8  9  1  0  0  0  0
  9 10  1  0  0  0  0
 10  5  1  0  0  0  0
  8 11  1  1  0  0  0
 11 12  1  0  0  0  0
 12 13  2  0  0  0  0
 11 14  2  0  0  0  0
 15 12  1  0  0  0  0
  2 16  2  0  0  0  0
  3 17  1  0  0  0  0
  5 18  1  1  0  0  0
M  END
>  <cdx:fragmentId>
5

$$$$
