93261.cdx
  Mrv1902 05222410192D          

 32 36  0  0  0  0            999 V2000
    6.5558   -5.4200    0.0000 O   0  0  0  0  0  0  0  0  0  0  0  0
    6.5558   -6.2450    0.0000 C   0  0  1  0  0  0  0  0  0  0  0  0
    7.2703   -6.6575    0.0000 C   0  0  0  0  0  0  0  0  0  0  0  0
    7.9848   -6.2450    0.0000 C   0  0  0  0  0  0  0  0  0  0  0  0
    8.6992   -6.6575    0.0000 C   0  0  0  0  0  0  0  0  0  0  0  0
    9.4839   -6.4026    0.0000 O   0  0  0  0  0  0  0  0  0  0  0  0
    9.9688   -7.0700    0.0000 C   0  0  0  0  0  0  0  0  0  0  0  0
    9.4839   -7.7375    0.0000 O   0  0  0  0  0  0  0  0  0  0  0  0
    8.6992   -7.4825    0.0000 C   0  0  0  0  0  0  0  0  0  0  0  0
    7.9848   -7.8950    0.0000 C   0  0  0  0  0  0  0  0  0  0  0  0
    7.2703   -7.4825    0.0000 C   0  0  0  0  0  0  0  0  0  0  0  0
    6.5558   -7.8950    0.0000 C   0  0  2  0  0  0  0  0  0  0  0  0
    5.8413   -7.4825    0.0000 C   0  0  1  0  0  0  0  0  0  0  0  0
    5.8413   -8.3075    0.0000 H   0  0  0  0  0  0  0  0  0  0  0  0
    5.0567   -7.7375    0.0000 C   0  0  0  0  0  0  0  0  0  0  0  0
    4.8018   -8.5221    0.0000 O   0  0  0  0  0  0  0  0  0  0  0  0
    4.5718   -7.0700    0.0000 O   0  0  0  0  0  0  0  0  0  0  0  0
    5.0567   -6.4026    0.0000 C   0  0  0  0  0  0  0  0  0  0  0  0
    5.8413   -6.6575    0.0000 C   0  0  2  0  0  0  0  0  0  0  0  0
    5.8413   -5.8325    0.0000 H   0  0  0  0  0  0  0  0  0  0  0  0
    6.5558   -8.7200    0.0000 C   0  0  0  0  0  0  0  0  0  0  0  0
    7.2703   -9.1325    0.0000 C   0  0  0  0  0  0  0  0  0  0  0  0
    7.2703   -9.9575    0.0000 C   0  0  0  0  0  0  0  0  0  0  0  0
    7.9848  -10.3700    0.0000 O   0  0  0  0  0  0  0  0  0  0  0  0
    8.6992   -9.9575    0.0000 C   0  0  0  0  0  0  0  0  0  0  0  0
    6.5558  -10.3700    0.0000 C   0  0  0  0  0  0  0  0  0  0  0  0
    6.5558  -11.1950    0.0000 O   0  0  0  0  0  0  0  0  0  0  0  0
    5.8413  -11.6075    0.0000 C   0  0  0  0  0  0  0  0  0  0  0  0
    5.8413   -9.9575    0.0000 C   0  0  0  0  0  0  0  0  0  0  0  0
    5.1269  -10.3700    0.0000 O   0  0  0  0  0  0  0  0  0  0  0  0
    4.4124   -9.9575    0.0000 C   0  0  0  0  0  0  0  0  0  0  0  0
    5.8413   -9.1325    0.0000 C   0  0  0  0  0  0  0  0  0  0  0  0
  2  1  1  1  0  0  0
  2  3  1  0  0  0  0
  3  4  2  0  0  0  0
  4  5  1  0  0  0  0
  5  6  1  0  0  0  0
  6  7  1  0  0  0  0
  7  8  1  0  0  0  0
  8  9  1  0  0  0  0
  5  9  2  0  0  0  0
  9 10  1  0  0  0  0
 10 11  2  0  0  0  0
  3 11  1  0  0  0  0
 11 12  1  0  0  0  0
 12 13  1  0  0  0  0
 13 14  1  6  0  0  0
 13 15  1  0  0  0  0
 15 16  2  0  0  0  0
 15 17  1  0  0  0  0
 17 18  1  0  0  0  0
 18 19  1  0  0  0  0
 19 20  1  1  0  0  0
  2 19  1  0  0  0  0
 13 19  1  0  0  0  0
 12 21  1  1  0  0  0
 21 22  1  0  0  0  0
 22 23  2  0  0  0  0
 23 24  1  0  0  0  0
 24 25  1  0  0  0  0
 23 26  1  0  0  0  0
 26 27  1  0  0  0  0
 27 28  1  0  0  0  0
 26 29  2  0  0  0  0
 29 30  1  0  0  0  0
 30 31  1  0  0  0  0
 29 32  1  0  0  0  0
 21 32  2  0  0  0  0
M  END
>  <cdx:fragmentId>
3

$$$$
