93266.cdx
  Mrv1902 05222410182D          

 21 24  0  0  0  0            999 V2000
    5.9793   -6.3800    0.0000 C   0  0  0  0  0  0  0  0  0  0  0  0
    5.1956   -7.0125    0.0000 C   0  0  0  0  0  0  0  0  0  0  0  0
    6.6938   -7.6175    0.0000 C   0  0  0  0  0  0  0  0  0  0  0  0
    7.4082   -7.2050    0.0000 C   0  0  1  0  0  0  0  0  0  0  0  0
    7.4082   -6.3800    0.0000 C   0  0  0  0  0  0  0  0  0  0  0  0
    6.6938   -5.9675    0.0000 C   0  0  0  0  0  0  0  0  0  0  0  0
    6.8653   -8.4245    0.0000 C   0  0  0  0  0  0  0  0  0  0  0  0
    7.6858   -8.5107    0.0000 C   0  0  0  0  0  0  0  0  0  0  0  0
    8.0213   -7.7570    0.0000 C   0  0  0  0  0  0  0  0  0  0  0  0
    5.9950   -8.3875    0.0000 C   0  0  0  0  0  0  0  0  0  0  0  0
    4.5455   -7.5205    0.0000 C   0  0  0  0  0  0  0  0  0  0  0  0
    4.5455   -8.3455    0.0000 C   0  0  0  0  0  0  0  0  0  0  0  0
    5.2600   -8.7580    0.0000 N   0  0  0  0  0  0  0  0  0  0  0  0
    5.2600   -9.5830    0.0000 C   0  0  0  0  0  0  0  0  0  0  0  0
    5.9745   -9.9955    0.0000 C   0  0  0  0  0  0  0  0  0  0  0  0
    6.6890   -9.5830    0.0000 C   0  0  2  0  0  0  0  0  0  0  0  0
    5.6970   -9.1431    0.0000 N   0  0  0  0  0  0  0  0  0  0  0  0
    4.5455   -9.1705    0.0000 C   0  0  0  0  0  0  0  0  0  0  0  0
    8.0983   -9.2252    0.0000 O   0  0  0  0  0  0  0  0  0  0  0  0
    8.1619   -6.8694    0.0000 H   0  0  0  0  0  0  0  0  0  0  0  0
    6.6938   -5.1425    0.0000 C   0  0  0  0  0  0  0  0  0  0  0  0
  2  3  1  0  0  0  0
  3  4  1  0  0  0  0
  4  5  1  0  0  0  0
  5  6  1  0  0  0  0
  6  1  2  0  0  0  0
  3  7  1  0  0  0  0
  7  8  1  0  0  0  0
  8  9  1  0  0  0  0
  9  4  1  0  0  0  0
  3 10  1  0  0  0  0
  1 10  1  0  0  0  0
  2 11  1  0  0  0  0
 11 12  1  0  0  0  0
 12 13  1  0  0  0  0
 13 14  1  0  0  0  0
 14 15  1  0  0  0  0
 16 15  1  6  0  0  0
 10 17  2  0  0  0  0
 16 17  1  1  0  0  0
  7 16  1  0  0  0  0
 13 18  1  0  0  0  0
  8 19  2  0  0  0  0
  4 20  1  6  0  0  0
  6 21  1  0  0  0  0
M  END
>  <cdx:fragmentId>
5

$$$$
