93273.cdx
  Mrv1902 05222410182D          

 10 10  0  0  0  0            999 V2000
    6.3368   -8.4838    0.0000 C   0  0  0  0  0  0  0  0  0  0  0  0
    6.3368   -9.3087    0.0000 C   0  0  0  0  0  0  0  0  0  0  0  0
    7.0513   -9.7212    0.0000 C   0  0  0  0  0  0  0  0  0  0  0  0
    7.7657   -9.3087    0.0000 C   0  0  0  0  0  0  0  0  0  0  0  0
    7.7657   -8.4838    0.0000 C   0  0  0  0  0  0  0  0  0  0  0  0
    7.0513   -8.0713    0.0000 C   0  0  0  0  0  0  0  0  0  0  0  0
    5.6223   -8.0713    0.0000 O   0  0  0  0  0  0  0  0  0  0  0  0
    7.0513   -7.2462    0.0000 C   0  0  0  0  0  0  0  0  0  0  0  0
    6.3368   -6.8338    0.0000 O   0  0  0  0  0  0  0  0  0  0  0  0
    7.7657   -6.8338    0.0000 O   0  0  0  0  0  0  0  0  0  0  0  0
  1  2  2  0  0  0  0
  2  3  1  0  0  0  0
  3  4  2  0  0  0  0
  4  5  1  0  0  0  0
  5  6  2  0  0  0  0
  6  1  1  0  0  0  0
  1  7  1  0  0  0  0
  6  8  1  0  0  0  0
  8  9  2  0  0  0  0
  8 10  1  0  0  0  0
M  END
>  <cdx:fragmentId>
5

$$$$
