93272.cdx
  Mrv1902 05222410182D          

 23 25  0  0  0  0            999 V2000
    7.4880   -7.1549    0.0000 C   0  0  0  0  0  0  0  0  0  0  0  0
    7.4880   -6.3299    0.0000 C   0  0  0  0  0  0  0  0  0  0  0  0
    6.7735   -5.9174    0.0000 C   0  0  0  0  0  0  0  0  0  0  0  0
    6.0590   -6.3299    0.0000 C   0  0  0  0  0  0  0  0  0  0  0  0
    5.3446   -5.9174    0.0000 C   0  0  0  0  0  0  0  0  0  0  0  0
    4.6301   -6.3299    0.0000 C   0  0  0  0  0  0  0  0  0  0  0  0
    4.6301   -7.1549    0.0000 C   0  0  0  0  0  0  0  0  0  0  0  0
    5.3446   -7.5674    0.0000 C   0  0  0  0  0  0  0  0  0  0  0  0
    6.0590   -7.1549    0.0000 C   0  0  0  0  0  0  0  0  0  0  0  0
    6.7735   -7.5674    0.0000 O   0  0  0  0  0  0  0  0  0  0  0  0
    6.7735   -5.0924    0.0000 O   0  0  0  0  0  0  0  0  0  0  0  0
    3.9156   -5.9174    0.0000 O   0  0  0  0  0  0  0  0  0  0  0  0
    3.2012   -6.3299    0.0000 C   0  0  0  0  0  0  0  0  0  0  0  0
    8.2025   -5.9174    0.0000 C   0  0  0  0  0  0  0  0  0  0  0  0
    8.9169   -6.3299    0.0000 C   0  0  0  0  0  0  0  0  0  0  0  0
    9.6314   -5.9174    0.0000 C   0  0  0  0  0  0  0  0  0  0  0  0
    9.6314   -5.0924    0.0000 C   0  0  0  0  0  0  0  0  0  0  0  0
    8.9169   -4.6799    0.0000 C   0  0  0  0  0  0  0  0  0  0  0  0
    8.2025   -5.0924    0.0000 C   0  0  0  0  0  0  0  0  0  0  0  0
   10.3459   -4.6799    0.0000 O   0  0  0  0  0  0  0  0  0  0  0  0
   11.0603   -5.0924    0.0000 C   0  0  0  0  0  0  0  0  0  0  0  0
   10.3459   -6.3299    0.0000 O   0  0  0  0  0  0  0  0  0  0  0  0
    3.9156   -7.5674    0.0000 O   0  0  0  0  0  0  0  0  0  0  0  0
  1  2  2  0  0  0  0
  2  3  1  0  0  0  0
  3  4  1  0  0  0  0
  4  5  1  0  0  0  0
  5  6  2  0  0  0  0
  6  7  1  0  0  0  0
  7  8  2  0  0  0  0
  8  9  1  0  0  0  0
  4  9  2  0  0  0  0
  9 10  1  0  0  0  0
  1 10  1  0  0  0  0
  3 11  2  0  0  0  0
 12 13  1  0  0  0  0
  6 12  1  0  0  0  0
 14 15  1  0  0  0  0
 15 16  2  0  0  0  0
 16 17  1  0  0  0  0
 17 18  2  0  0  0  0
 18 19  1  0  0  0  0
 14 19  2  0  0  0  0
 20 21  1  0  0  0  0
 17 20  1  0  0  0  0
 16 22  1  0  0  0  0
  2 14  1  0  0  0  0
  7 23  1  0  0  0  0
M  END
>  <cdx:fragmentId>
99238

$$$$
