93283.cdx
  Mrv1902 05222410272D          

 49 54  0  0  0  0            999 V2000
   12.2204  -10.6718    0.0000 C   0  0  0  0  0  0  0  0  0  0  0  0
   11.5060  -11.0843    0.0000 C   0  0  0  0  0  0  0  0  0  0  0  0
   11.5060  -11.9093    0.0000 C   0  0  1  0  0  0  0  0  0  0  0  0
   12.2204  -12.3218    0.0000 C   0  0  0  0  0  0  0  0  0  0  0  0
   12.9349  -11.9093    0.0000 C   0  0  2  0  0  0  0  0  0  0  0  0
   13.6494  -12.3218    0.0000 C   0  0  0  0  0  0  0  0  0  0  0  0
   14.3638  -11.9093    0.0000 C   0  0  0  0  0  0  0  0  0  0  0  0
   14.3638  -11.0843    0.0000 C   0  0  1  0  0  0  0  0  0  0  0  0
   15.0783  -10.6718    0.0000 C   0  0  2  0  0  0  0  0  0  0  0  0
   15.0783   -9.8468    0.0000 C   0  0  0  0  0  0  0  0  0  0  0  0
   14.3638   -9.4343    0.0000 C   0  0  0  0  0  0  0  0  0  0  0  0
   13.6494   -9.8468    0.0000 C   0  0  0  0  0  0  0  0  0  0  0  0
   13.6494  -10.6718    0.0000 C   0  0  2  0  0  0  0  0  0  0  0  0
   12.9349  -11.0843    0.0000 C   0  0  1  0  0  0  0  0  0  0  0  0
   15.0783  -11.4968    0.0000 C   0  0  0  0  0  0  0  0  0  0  0  0
   12.9349  -10.2593    0.0000 C   0  0  0  0  0  0  0  0  0  0  0  0
   14.3638  -10.2593    0.0000 C   0  0  0  0  0  0  0  0  0  0  0  0
   12.6329  -13.0363    0.0000 C   0  0  0  0  0  0  0  0  0  0  0  0
   11.8079  -13.0363    0.0000 C   0  0  0  0  0  0  0  0  0  0  0  0
   10.7915  -12.3218    0.0000 O   0  0  0  0  0  0  0  0  0  0  0  0
   10.0786  -11.0834    0.0000 O   0  0  0  0  0  0  0  0  0  0  0  0
   10.0775  -11.9084    0.0000 C   0  0  2  0  0  0  0  0  0  0  0  0
    9.3626  -12.3200    0.0000 C   0  0  1  0  0  0  0  0  0  0  0  0
    8.6486  -11.9066    0.0000 C   0  0  2  0  0  0  0  0  0  0  0  0
    8.6496  -11.0816    0.0000 C   0  0  1  0  0  0  0  0  0  0  0  0
    9.3646  -10.6700    0.0000 C   0  0  1  0  0  0  0  0  0  0  0  0
    9.3615  -13.1450    0.0000 O   0  0  0  0  0  0  0  0  0  0  0  0
    8.6527   -8.6066    0.0000 C   0  0  0  0  0  0  0  0  0  0  0  0
    7.9357  -10.6682    0.0000 O   0  0  0  0  0  0  0  0  0  0  0  0
    7.9336  -12.3182    0.0000 O   0  0  0  0  0  0  0  0  0  0  0  0
   12.9349  -12.7343    0.0000 H   0  0  0  0  0  0  0  0  0  0  0  0
   13.6494  -11.4968    0.0000 H   0  0  0  0  0  0  0  0  0  0  0  0
   15.7928  -11.0843    0.0000 C   0  0  0  0  0  0  0  0  0  0  0  0
   16.5073  -10.6718    0.0000 C   0  0  0  0  0  0  0  0  0  0  0  0
   16.5073   -9.8468    0.0000 C   0  0  2  0  0  0  0  0  0  0  0  0
   15.7928   -9.4343    0.0000 C   0  0  1  0  0  0  0  0  0  0  0  0
   17.2217   -9.4343    0.0000 C   0  0  0  0  0  0  0  0  0  0  0  0
   17.2217   -8.6093    0.0000 C   0  0  0  0  0  0  0  0  0  0  0  0
   16.5073   -8.1968    0.0000 C   0  0  0  0  0  0  0  0  0  0  0  0
   15.7928   -8.6093    0.0000 C   0  0  0  0  0  0  0  0  0  0  0  0
   15.7928  -10.2593    0.0000 H   0  0  0  0  0  0  0  0  0  0  0  0
   17.2217  -10.2593    0.0000 C   0  0  0  0  0  0  0  0  0  0  0  0
   17.2217  -11.0843    0.0000 O   0  0  0  0  0  0  0  0  0  0  0  0
   17.9362   -9.8468    0.0000 O   0  0  0  0  0  0  0  0  0  0  0  0
   16.0948   -7.4823    0.0000 C   0  0  0  0  0  0  0  0  0  0  0  0
   16.9198   -7.4823    0.0000 C   0  0  0  0  0  0  0  0  0  0  0  0
    8.6517   -9.4316    0.0000 O   0  0  0  0  0  0  0  0  0  0  0  0
   10.0806   -9.4334    0.0000 O   0  0  0  0  0  0  0  0  0  0  0  0
    9.3657   -9.8450    0.0000 C   0  0  0  0  0  0  0  0  0  0  0  0
 47 28  1  0  0  0  0
  1  2  1  0  0  0  0
  2  3  1  0  0  0  0
  3  4  1  0  0  0  0
  4  5  1  0  0  0  0
  5  6  1  0  0  0  0
  6  7  1  0  0  0  0
  7  8  1  0  0  0  0
  8  9  1  0  0  0  0
  9 10  1  0  0  0  0
 10 11  2  0  0  0  0
 11 12  1  0  0  0  0
 12 13  1  0  0  0  0
  8 13  1  0  0  0  0
 13 14  1  0  0  0  0
  5 14  1  0  0  0  0
  1 14  1  0  0  0  0
  9 15  1  6  0  0  0
 14 16  1  1  0  0  0
  8 17  1  1  0  0  0
  4 18  1  0  0  0  0
  4 19  1  0  0  0  0
 21 22  1  0  0  0  0
 22 23  1  0  0  0  0
 23 24  1  0  0  0  0
 24 25  1  0  0  0  0
 25 26  1  0  0  0  0
 21 26  1  0  0  0  0
 23 27  1  6  0  0  0
 49 47  1  0  0  0  0
 26 49  1  1  0  0  0
 25 29  1  6  0  0  0
 24 30  1  1  0  0  0
 22 20  1  1  0  0  0
  3 20  1  1  0  0  0
  5 31  1  6  0  0  0
 13 32  1  6  0  0  0
  9 33  1  0  0  0  0
 33 34  1  0  0  0  0
 34 35  1  0  0  0  0
 35 36  1  0  0  0  0
 36 10  1  0  0  0  0
 35 37  1  0  0  0  0
 37 38  1  0  0  0  0
 38 39  1  0  0  0  0
 39 40  1  0  0  0  0
 40 36  1  0  0  0  0
 36 41  1  1  0  0  0
 35 42  1  1  0  0  0
 42 43  1  0  0  0  0
 42 44  2  0  0  0  0
 39 45  1  0  0  0  0
 39 46  1  0  0  0  0
 49 48  2  0  0  0  0
M  END
>  <cdx:fragmentId>
31612

$$$$
