93288.cdx
  Mrv1902 05222410202D          

 36 39  0  0  0  0            999 V2000
    3.1583   -5.0395    0.0000 C   0  0  0  0  0  0  0  0  0  0  0  0
    2.6609   -5.6977    0.0000 C   0  0  0  0  0  0  0  0  0  0  0  0
    2.9823   -6.4575    0.0000 C   0  0  0  0  0  0  0  0  0  0  0  0
    3.8011   -6.5591    0.0000 C   0  0  0  0  0  0  0  0  0  0  0  0
    4.2984   -5.9009    0.0000 C   0  0  0  0  0  0  0  0  0  0  0  0
    3.9770   -5.1411    0.0000 C   0  0  0  0  0  0  0  0  0  0  0  0
    2.8369   -4.2796    0.0000 O   0  0  0  0  0  0  0  0  0  0  0  0
    4.1224   -7.3189    0.0000 C   0  0  0  0  0  0  0  0  0  0  0  0
    4.9412   -7.4205    0.0000 C   0  0  0  0  0  0  0  0  0  0  0  0
    5.4385   -6.7623    0.0000 C   0  0  0  0  0  0  0  0  0  0  0  0
    5.1171   -6.0025    0.0000 O   0  0  0  0  0  0  0  0  0  0  0  0
    6.2666   -6.8686    0.0000 O   0  0  0  0  0  0  0  0  0  0  0  0
    6.7651   -6.2113    0.0000 C   0  0  0  0  0  0  0  0  0  0  0  0
    6.4451   -5.4509    0.0000 C   0  0  0  0  0  0  0  0  0  0  0  0
    5.6265   -5.3478    0.0000 O   0  0  0  0  0  0  0  0  0  0  0  0
    7.5836   -6.3143    0.0000 C   0  0  0  0  0  0  0  0  0  0  0  0
    8.0821   -5.6570    0.0000 C   0  0  0  0  0  0  0  0  0  0  0  0
    7.7621   -4.8966    0.0000 C   0  0  0  0  0  0  0  0  0  0  0  0
    6.9436   -4.7935    0.0000 C   0  0  0  0  0  0  0  0  0  0  0  0
    8.9042   -5.5876    0.0000 N   0  0  0  0  0  0  0  0  0  0  0  0
    9.0923   -4.7843    0.0000 C   0  0  0  0  0  0  0  0  0  0  0  0
    8.3864   -4.3572    0.0000 C   0  0  0  0  0  0  0  0  0  0  0  0
    9.8527   -4.4643    0.0000 C   0  0  0  0  0  0  0  0  0  0  0  0
    9.9557   -3.6458    0.0000 O   0  0  0  0  0  0  0  0  0  0  0  0
   10.5100   -4.9628    0.0000 O   0  0  0  0  0  0  0  0  0  0  0  0
    9.4435   -6.2119    0.0000 C   0  0  0  0  0  0  0  0  0  0  0  0
    9.1726   -6.9911    0.0000 C   0  0  0  0  0  0  0  0  0  0  0  0
   10.2539   -6.0570    0.0000 O   0  0  0  0  0  0  0  0  0  0  0  0
    9.7119   -7.6154    0.0000 C   0  0  0  0  0  0  0  0  0  0  0  0
    9.4409   -8.3946    0.0000 C   0  0  0  0  0  0  0  0  0  0  0  0
    8.6306   -8.5496    0.0000 C   0  0  0  0  0  0  0  0  0  0  0  0
    8.3596   -9.3288    0.0000 C   0  0  0  0  0  0  0  0  0  0  0  0
    8.8989   -9.9531    0.0000 C   0  0  0  0  0  0  0  0  0  0  0  0
    9.7093   -9.7982    0.0000 C   0  0  0  0  0  0  0  0  0  0  0  0
    9.9802   -9.0189    0.0000 C   0  0  0  0  0  0  0  0  0  0  0  0
    8.6279  -10.7323    0.0000 O   0  0  0  0  0  0  0  0  0  0  0  0
  1  2  2  0  0  0  0
  2  3  1  0  0  0  0
  3  4  2  0  0  0  0
  4  5  1  0  0  0  0
  5  6  2  0  0  0  0
  6  1  1  0  0  0  0
  1  7  1  0  0  0  0
  4  8  1  0  0  0  0
  8  9  2  0  0  0  0
  9 10  1  0  0  0  0
 10 11  2  0  0  0  0
 12 13  1  0  0  0  0
 13 14  2  0  0  0  0
 14 15  1  0  0  0  0
 13 16  1  0  0  0  0
 16 17  2  0  0  0  0
 17 18  1  0  0  0  0
 18 19  2  0  0  0  0
 19 14  1  0  0  0  0
 17 20  1  0  0  0  0
 20 21  1  0  0  0  0
 21 22  1  0  0  0  0
 22 18  1  0  0  0  0
 21 23  1  0  0  0  0
 23 24  2  0  0  0  0
 23 25  1  0  0  0  0
 20 26  1  0  0  0  0
 26 27  1  0  0  0  0
 26 28  2  0  0  0  0
 27 29  2  0  0  0  0
 29 30  1  0  0  0  0
 30 31  2  0  0  0  0
 31 32  1  0  0  0  0
 32 33  2  0  0  0  0
 33 34  1  0  0  0  0
 34 35  2  0  0  0  0
 35 30  1  0  0  0  0
 33 36  1  0  0  0  0
 12 10  1  0  0  0  0
M  END
>  <cdx:fragmentId>
5

$$$$
