93287.cdx
  Mrv1902 05222410272D          

 62 67  0  0  0  0            999 V2000
    2.3485   -7.0076    0.0000 C   0  0  1  0  0  0  0  0  0  0  0  0
    1.9645   -7.7378    0.0000 C   0  0  1  0  0  0  0  0  0  0  0  0
    2.4048   -8.4355    0.0000 C   0  0  2  0  0  0  0  0  0  0  0  0
    3.2292   -8.4029    0.0000 C   0  0  1  0  0  0  0  0  0  0  0  0
    3.6132   -7.6727    0.0000 O   0  0  0  0  0  0  0  0  0  0  0  0
    3.1728   -6.9751    0.0000 C   0  0  2  0  0  0  0  0  0  0  0  0
    3.5568   -6.2449    0.0000 C   0  0  0  0  0  0  0  0  0  0  0  0
    3.1164   -5.5473    0.0000 O   0  0  0  0  0  0  0  0  0  0  0  0
    1.9081   -6.3100    0.0000 O   0  0  0  0  0  0  0  0  0  0  0  0
    3.6696   -9.1005    0.0000 O   0  0  0  0  0  0  0  0  0  0  0  0
    4.4939   -9.0680    0.0000 C   0  0  0  0  0  0  0  0  0  0  0  0
    3.7259  -10.5284    0.0000 O   0  0  0  0  0  0  0  0  0  0  0  0
    4.5503  -10.4958    0.0000 C   0  0  2  0  0  0  0  0  0  0  0  0
    4.9343   -9.7656    0.0000 C   0  0  2  0  0  0  0  0  0  0  0  0
    4.9907  -11.1935    0.0000 C   0  0  1  0  0  0  0  0  0  0  0  0
    5.8150  -11.1609    0.0000 C   0  0  2  0  0  0  0  0  0  0  0  0
    6.1990  -10.4307    0.0000 C   0  0  1  0  0  0  0  0  0  0  0  0
    5.7586   -9.7331    0.0000 O   0  0  0  0  0  0  0  0  0  0  0  0
    7.0234  -10.3982    0.0000 O   0  0  0  0  0  0  0  0  0  0  0  0
    7.8477  -10.3656    0.0000 C   0  0  0  0  0  0  0  0  0  0  0  0
    8.2881  -11.0633    0.0000 C   0  0  0  0  0  0  0  0  0  0  0  0
    9.1124  -11.0307    0.0000 C   0  0  0  0  0  0  0  0  0  0  0  0
    9.4964  -10.3005    0.0000 C   0  0  0  0  0  0  0  0  0  0  0  0
    9.0561   -9.6029    0.0000 C   0  0  0  0  0  0  0  0  0  0  0  0
    8.2317   -9.6354    0.0000 C   0  0  0  0  0  0  0  0  0  0  0  0
    9.6882  -11.6216    0.0000 N   0  0  0  0  0  0  0  0  0  0  0  0
   10.4281  -11.2565    0.0000 C   0  0  1  0  0  0  0  0  0  0  0  0
   10.3095  -10.4401    0.0000 C   0  0  0  0  0  0  0  0  0  0  0  0
    9.5487  -12.4347    0.0000 C   0  0  0  0  0  0  0  0  0  0  0  0
   10.2789  -12.8187    0.0000 C   0  0  0  0  0  0  0  0  0  0  0  0
   10.3114  -13.6430    0.0000 C   0  0  0  0  0  0  0  0  0  0  0  0
   11.0416  -14.0270    0.0000 C   0  0  0  0  0  0  0  0  0  0  0  0
   10.6694  -14.7633    0.0000 C   0  0  0  0  0  0  0  0  0  0  0  0
   11.1209  -15.4538    0.0000 C   0  0  0  0  0  0  0  0  0  0  0  0
   11.9446  -15.4080    0.0000 C   0  0  0  0  0  0  0  0  0  0  0  0
   12.3168  -14.6718    0.0000 C   0  0  0  0  0  0  0  0  0  0  0  0
   11.8653  -13.9813    0.0000 C   0  0  0  0  0  0  0  0  0  0  0  0
   12.3961  -16.0985    0.0000 O   0  0  0  0  0  0  0  0  0  0  0  0
    1.1401   -7.7704    0.0000 O   0  0  0  0  0  0  0  0  0  0  0  0
    4.6067  -11.9237    0.0000 O   0  0  0  0  0  0  0  0  0  0  0  0
   11.1583  -11.6405    0.0000 C   0  0  0  0  0  0  0  0  0  0  0  0
   11.8559  -11.2002    0.0000 O   0  0  0  0  0  0  0  0  0  0  0  0
   11.1908  -12.4649    0.0000 O   0  0  0  0  0  0  0  0  0  0  0  0
    2.0208   -9.1656    0.0000 O   0  0  0  0  0  0  0  0  0  0  0  0
    6.2554  -11.8586    0.0000 O   0  0  0  0  0  0  0  0  0  0  0  0
    7.7913   -8.9378    0.0000 O   0  0  0  0  0  0  0  0  0  0  0  0
    8.8088  -12.7997    0.0000 O   0  0  0  0  0  0  0  0  0  0  0  0
    5.2559   -3.5011    0.0000 C   0  0  0  0  0  0  0  0  0  0  0  0
    5.9707   -3.0892    0.0000 C   0  0  0  0  0  0  0  0  0  0  0  0
    5.9713   -2.2642    0.0000 C   0  0  0  0  0  0  0  0  0  0  0  0
    5.2572   -1.8511    0.0000 C   0  0  0  0  0  0  0  0  0  0  0  0
    4.5424   -2.2631    0.0000 C   0  0  0  0  0  0  0  0  0  0  0  0
    4.5417   -3.0881    0.0000 C   0  0  0  0  0  0  0  0  0  0  0  0
    3.8269   -3.5000    0.0000 C   0  0  0  0  0  0  0  0  0  0  0  0
    3.8263   -4.3250    0.0000 C   0  0  0  0  0  0  0  0  0  0  0  0
    3.1115   -4.7369    0.0000 C   0  0  0  0  0  0  0  0  0  0  0  0
    2.3973   -4.3238    0.0000 O   0  0  0  0  0  0  0  0  0  0  0  0
    6.6861   -1.8523    0.0000 O   0  0  0  0  0  0  0  0  0  0  0  0
    5.2579   -1.0261    0.0000 O   0  0  0  0  0  0  0  0  0  0  0  0
    4.5437   -0.6131    0.0000 C   0  0  0  0  0  0  0  0  0  0  0  0
    6.6848   -3.5023    0.0000 O   0  0  0  0  0  0  0  0  0  0  0  0
    6.6848   -4.3273    0.0000 C   0  0  0  0  0  0  0  0  0  0  0  0
  1  2  1  0  0  0  0
  2  3  1  0  0  0  0
  3  4  1  0  0  0  0
  4  5  1  0  0  0  0
  5  6  1  0  0  0  0
  6  1  1  0  0  0  0
  6  7  1  1  0  0  0
  7  8  1  0  0  0  0
  1  9  1  6  0  0  0
  4 10  1  1  0  0  0
 10 11  1  0  0  0  0
 13 12  1  6  0  0  0
 13 14  1  0  0  0  0
 14 11  1  1  0  0  0
 13 15  1  0  0  0  0
 15 16  1  0  0  0  0
 16 17  1  0  0  0  0
 17 18  1  0  0  0  0
 18 14  1  0  0  0  0
 17 19  1  1  0  0  0
 19 20  1  0  0  0  0
 20 21  2  0  0  0  0
 21 22  1  0  0  0  0
 22 23  2  0  0  0  0
 23 24  1  0  0  0  0
 24 25  2  0  0  0  0
 25 20  1  0  0  0  0
 22 26  1  0  0  0  0
 26 27  1  0  0  0  0
 27 28  1  0  0  0  0
 28 23  1  0  0  0  0
 26 29  1  0  0  0  0
 29 30  1  0  0  0  0
 30 31  2  0  0  0  0
 31 32  1  0  0  0  0
 32 33  2  0  0  0  0
 33 34  1  0  0  0  0
 34 35  2  0  0  0  0
 35 36  1  0  0  0  0
 36 37  2  0  0  0  0
 37 32  1  0  0  0  0
 35 38  1  0  0  0  0
  2 39  1  1  0  0  0
 15 40  1  1  0  0  0
 27 41  1  1  0  0  0
  3 44  1  6  0  0  0
 16 45  1  6  0  0  0
 25 46  1  0  0  0  0
 29 47  2  0  0  0  0
 48 49  2  0  0  0  0
 49 50  1  0  0  0  0
 50 51  2  0  0  0  0
 51 52  1  0  0  0  0
 52 53  2  0  0  0  0
 53 48  1  0  0  0  0
 53 54  1  0  0  0  0
 54 55  2  0  0  0  0
 55 56  1  0  0  0  0
 56 57  2  0  0  0  0
 50 58  1  0  0  0  0
 51 59  1  0  0  0  0
 59 60  1  0  0  0  0
 56  8  1  0  0  0  0
 49 61  1  0  0  0  0
 61 62  1  0  0  0  0
 41 42  2  0  0  0  0
 41 43  1  0  0  0  0
M  STY  1   1 SUP
M  SAL   1  3  41  42  43
M  SBL   1  1  45
M  SMT   1 COOH
M  SAP   1  1  41  27  1
M  END
>  <cdx:fragmentId>
5

$$$$
