93281.cdx
  Mrv1902 05222410282D          

 66 73  0  0  0  0            999 V2000
   10.8160  -11.7997    0.0000 C   0  0  1  0  0  0  0  0  0  0  0  0
   10.8160  -10.9750    0.0000 C   0  0  0  0  0  0  0  0  0  0  0  0
   11.5302  -10.5626    0.0000 C   0  0  0  0  0  0  0  0  0  0  0  0
   11.5302  -12.2121    0.0000 C   0  0  0  0  0  0  0  0  0  0  0  0
   11.9426  -12.9264    0.0000 C   0  0  0  0  0  0  0  0  0  0  0  0
   11.1179  -12.9264    0.0000 C   0  0  0  0  0  0  0  0  0  0  0  0
   12.2445  -11.7997    0.0000 C   0  0  2  0  0  0  0  0  0  0  0  0
   12.2445  -12.6245    0.0000 H   0  0  0  0  0  0  0  0  0  0  0  0
   12.9587  -12.2121    0.0000 C   0  0  0  0  0  0  0  0  0  0  0  0
   13.6730  -11.7997    0.0000 C   0  0  0  0  0  0  0  0  0  0  0  0
   13.6730  -10.9750    0.0000 C   0  0  1  0  0  0  0  0  0  0  0  0
   13.6730  -10.1503    0.0000 C   0  0  0  0  0  0  0  0  0  0  0  0
   14.3872  -10.5626    0.0000 C   0  0  2  0  0  0  0  0  0  0  0  0
   14.3872  -11.3874    0.0000 C   0  0  0  0  0  0  0  0  0  0  0  0
   15.1015  -10.9750    0.0000 C   0  0  0  0  0  0  0  0  0  0  0  0
   15.8157  -10.5626    0.0000 C   0  0  0  0  0  0  0  0  0  0  0  0
   15.8157   -9.7379    0.0000 C   0  0  2  0  0  0  0  0  0  0  0  0
   16.5691  -10.0733    0.0000 C   0  0  0  0  0  0  0  0  0  0  0  0
   15.1015   -9.3255    0.0000 C   0  0  2  0  0  0  0  0  0  0  0  0
   14.4794   -8.9664    0.0000 H   0  0  0  0  0  0  0  0  0  0  0  0
   14.3872   -9.7379    0.0000 C   0  0  0  0  0  0  0  0  0  0  0  0
   13.6730   -9.3255    0.0000 C   0  0  0  0  0  0  0  0  0  0  0  0
   12.9587   -9.7379    0.0000 C   0  0  0  0  0  0  0  0  0  0  0  0
   12.9587  -10.5626    0.0000 C   0  0  2  0  0  0  0  0  0  0  0  0
   12.2445  -10.9750    0.0000 C   0  0  1  0  0  0  0  0  0  0  0  0
   12.2445  -10.1503    0.0000 C   0  0  0  0  0  0  0  0  0  0  0  0
   16.5709  -10.8981    0.0000 O   0  0  0  0  0  0  0  0  0  0  0  0
    7.2578  -10.5402    0.0000 O   0  0  0  0  0  0  0  0  0  0  0  0
   12.9587  -11.3874    0.0000 H   0  0  0  0  0  0  0  0  0  0  0  0
    5.8099  -13.0031    0.0000 C   0  0  0  0  0  0  0  0  0  0  0  0
    7.2383  -13.0143    0.0000 O   0  0  0  0  0  0  0  0  0  0  0  0
    6.5209  -13.4210    0.0000 C   0  0  2  0  0  0  0  0  0  0  0  0
    5.7969  -14.6525    0.0000 O   0  0  0  0  0  0  0  0  0  0  0  0
    6.5144  -14.2458    0.0000 C   0  0  2  0  0  0  0  0  0  0  0  0
    7.2189  -15.4885    0.0000 O   0  0  0  0  0  0  0  0  0  0  0  0
    7.2253  -14.6637    0.0000 C   0  0  1  0  0  0  0  0  0  0  0  0
    8.6538  -14.6750    0.0000 O   0  0  0  0  0  0  0  0  0  0  0  0
    7.9428  -14.2570    0.0000 C   0  0  1  0  0  0  0  0  0  0  0  0
    7.9493  -13.4323    0.0000 C   0  0  2  0  0  0  0  0  0  0  0  0
    9.3973  -10.9694    0.0000 O   0  0  0  0  0  0  0  0  0  0  0  0
    8.6863  -10.5514    0.0000 C   0  0  0  0  0  0  0  0  0  0  0  0
    7.9688  -10.9582    0.0000 C   0  0  1  0  0  0  0  0  0  0  0  0
    7.2448  -12.1896    0.0000 O   0  0  0  0  0  0  0  0  0  0  0  0
    7.9623  -11.7829    0.0000 C   0  0  2  0  0  0  0  0  0  0  0  0
    8.6668  -13.0256    0.0000 O   0  0  0  0  0  0  0  0  0  0  0  0
    8.6733  -12.2009    0.0000 C   0  0  1  0  0  0  0  0  0  0  0  0
    9.3908  -11.7941    0.0000 C   0  0  2  0  0  0  0  0  0  0  0  0
   10.1017  -12.2121    0.0000 O   0  0  0  0  0  0  0  0  0  0  0  0
   17.2825   -9.6594    0.0000 O   0  0  0  0  0  0  0  0  0  0  0  0
   16.5299   -9.3255    0.0000 C   0  0  0  0  0  0  0  0  0  0  0  0
   16.5299   -8.5008    0.0000 C   0  0  0  0  0  0  0  0  0  0  0  0
   15.8157   -8.0884    0.0000 C   0  0  0  0  0  0  0  0  0  0  0  0
   15.1015   -8.5008    0.0000 C   0  0  0  0  0  0  0  0  0  0  0  0
   15.4197   -7.4026    0.0000 C   0  0  0  0  0  0  0  0  0  0  0  0
   16.1866   -7.4461    0.0000 C   0  0  0  0  0  0  0  0  0  0  0  0
    5.0859  -14.2345    0.0000 C   0  0  2  0  0  0  0  0  0  0  0  0
    5.0957  -13.4096    0.0000 O   0  0  0  0  0  0  0  0  0  0  0  0
    4.3861  -12.9887    0.0000 C   0  0  1  0  0  0  0  0  0  0  0  0
    3.6668  -13.4096    0.0000 C   0  0  2  0  0  0  0  0  0  0  0  0
    3.6668  -14.2345    0.0000 C   0  0  1  0  0  0  0  0  0  0  0  0
    4.3861  -14.6554    0.0000 C   0  0  1  0  0  0  0  0  0  0  0  0
    4.3886  -12.1553    0.0000 C   0  0  0  0  0  0  0  0  0  0  0  0
    2.9439  -14.6491    0.0000 O   0  0  0  0  0  0  0  0  0  0  0  0
    4.3911  -15.4888    0.0000 O   0  0  0  0  0  0  0  0  0  0  0  0
    2.9439  -12.9950    0.0000 O   0  0  0  0  0  0  0  0  0  0  0  0
    3.6681  -11.7364    0.0000 O   0  0  0  0  0  0  0  0  0  0  0  0
 47 48  1  1  0  0  0
 39 45  1  1  0  0  0
 39 31  1  0  0  0  0
 32 30  1  6  0  0  0
 32 31  1  0  0  0  0
 34 32  1  0  0  0  0
 34 33  1  1  0  0  0
 36 34  1  0  0  0  0
 36 35  1  6  0  0  0
 38 36  1  0  0  0  0
 38 37  1  6  0  0  0
 39 38  1  0  0  0  0
 47 40  1  0  0  0  0
 41 40  1  0  0  0  0
 42 41  1  0  0  0  0
 42 28  1  1  0  0  0
 44 42  1  0  0  0  0
 44 43  1  1  0  0  0
  1  2  1  0  0  0  0
  2  3  1  0  0  0  0
  1  4  1  0  0  0  0
  4  5  1  0  0  0  0
  4  6  1  0  0  0  0
  4  7  1  0  0  0  0
  7  8  1  6  0  0  0
  7  9  1  0  0  0  0
  9 10  1  0  0  0  0
 10 11  1  0  0  0  0
 11 12  1  1  0  0  0
 11 13  1  0  0  0  0
 13 14  1  6  0  0  0
 13 15  1  0  0  0  0
 15 16  1  0  0  0  0
 16 17  1  0  0  0  0
 17 18  1  1  0  0  0
 19 20  1  1  0  0  0
 17 19  1  0  0  0  0
 19 21  1  0  0  0  0
 13 21  1  0  0  0  0
 21 22  2  0  0  0  0
 22 23  1  0  0  0  0
 23 24  1  0  0  0  0
 11 24  1  0  0  0  0
 24 25  1  0  0  0  0
  3 25  1  0  0  0  0
  7 25  1  0  0  0  0
 25 26  1  1  0  0  0
 18 27  2  0  0  0  0
 18 49  1  0  0  0  0
 46 44  1  0  0  0  0
 46 45  1  6  0  0  0
 47 46  1  0  0  0  0
  1 48  1  1  0  0  0
 24 29  1  6  0  0  0
 17 50  1  0  0  0  0
 50 51  1  0  0  0  0
 51 52  1  0  0  0  0
 52 53  1  0  0  0  0
 53 19  1  0  0  0  0
 52 54  1  0  0  0  0
 52 55  1  0  0  0  0
 56 33  1  1  0  0  0
 56 57  1  0  0  0  0
 57 58  1  0  0  0  0
 58 59  1  0  0  0  0
 59 60  1  0  0  0  0
 60 61  1  0  0  0  0
 61 56  1  0  0  0  0
 58 62  1  1  0  0  0
 60 63  1  1  0  0  0
 61 64  1  6  0  0  0
 59 65  1  6  0  0  0
 62 66  1  0  0  0  0
M  END
>  <cdx:groupId>
346

>  <cdx:fragmentId>
95

$$$$
