93296.cdx
  Mrv1902 05222410272D          

 29 31  0  0  0  0            999 V2000
    7.6568   -6.2975    0.0000 C   0  0  0  0  0  0  0  0  0  0  0  0
    7.6568   -7.1225    0.0000 C   0  0  0  0  0  0  0  0  0  0  0  0
    8.3713   -7.5350    0.0000 C   0  0  0  0  0  0  0  0  0  0  0  0
    9.0857   -7.1225    0.0000 C   0  0  0  0  0  0  0  0  0  0  0  0
    9.0857   -6.2975    0.0000 C   0  0  0  0  0  0  0  0  0  0  0  0
    8.3713   -5.8850    0.0000 C   0  0  0  0  0  0  0  0  0  0  0  0
    9.8704   -7.3774    0.0000 C   0  0  0  0  0  0  0  0  0  0  0  0
   10.3553   -6.7100    0.0000 C   0  0  1  0  0  0  0  0  0  0  0  0
    9.8704   -6.0426    0.0000 C   0  0  0  0  0  0  0  0  0  0  0  0
   10.1253   -5.2579    0.0000 O   0  0  0  0  0  0  0  0  0  0  0  0
    8.3713   -5.0600    0.0000 C   0  0  0  0  0  0  0  0  0  0  0  0
    8.3713   -8.3600    0.0000 O   0  0  0  0  0  0  0  0  0  0  0  0
    6.9423   -7.5350    0.0000 C   0  0  0  0  0  0  0  0  0  0  0  0
    6.9423   -5.8850    0.0000 C   0  0  0  0  0  0  0  0  0  0  0  0
    6.2279   -6.2975    0.0000 C   0  0  0  0  0  0  0  0  0  0  0  0
    5.5134   -5.8850    0.0000 O   0  0  0  0  0  0  0  0  0  0  0  0
    4.7989   -6.2975    0.0000 C   0  0  2  0  0  0  0  0  0  0  0  0
    4.0844   -5.8850    0.0000 O   0  0  0  0  0  0  0  0  0  0  0  0
    3.3700   -6.2975    0.0000 C   0  0  1  0  0  0  0  0  0  0  0  0
    3.3700   -7.1225    0.0000 C   0  0  2  0  0  0  0  0  0  0  0  0
    4.0844   -7.5350    0.0000 C   0  0  1  0  0  0  0  0  0  0  0  0
    4.7989   -7.1225    0.0000 C   0  0  1  0  0  0  0  0  0  0  0  0
    2.6555   -5.8850    0.0000 C   0  0  0  0  0  0  0  0  0  0  0  0
    4.0844   -8.3600    0.0000 O   0  0  0  0  0  0  0  0  0  0  0  0
    2.6555   -7.5350    0.0000 O   0  0  0  0  0  0  0  0  0  0  0  0
    5.5134   -7.5350    0.0000 O   0  0  0  0  0  0  0  0  0  0  0  0
    1.9410   -6.2975    0.0000 O   0  0  0  0  0  0  0  0  0  0  0  0
   11.0698   -6.2975    0.0000 C   0  0  0  0  0  0  0  0  0  0  0  0
   10.9387   -7.2934    0.0000 C   0  0  0  0  0  0  0  0  0  0  0  0
  1  2  2  0  0  0  0
  2  3  1  0  0  0  0
  3  4  2  0  0  0  0
  4  5  1  0  0  0  0
  5  6  2  0  0  0  0
  6  1  1  0  0  0  0
  4  7  1  0  0  0  0
  7  8  1  0  0  0  0
  8  9  1  0  0  0  0
  9  5  1  0  0  0  0
  9 10  2  0  0  0  0
  6 11  1  0  0  0  0
  3 12  1  0  0  0  0
  2 13  1  0  0  0  0
  1 14  1  0  0  0  0
 14 15  1  0  0  0  0
 15 16  1  0  0  0  0
 17 16  1  1  0  0  0
 17 18  1  0  0  0  0
 18 19  1  0  0  0  0
 19 20  1  0  0  0  0
 20 21  1  0  0  0  0
 21 22  1  0  0  0  0
 22 17  1  0  0  0  0
 19 23  1  1  0  0  0
 21 24  1  1  0  0  0
 20 25  1  6  0  0  0
 22 26  1  6  0  0  0
 23 27  1  0  0  0  0
  8 28  1  1  0  0  0
  8 29  1  6  0  0  0
M  END
>  <cdx:fragmentId>
5

$$$$
