932940.cdx
  Mrv1902 05222410202D          

 42 48  0  0  0  0            999 V2000
    5.7612   -9.3820    0.0000 C   0  0  0  0  0  0  0  0  0  0  0  0
    6.3089   -8.7650    0.0000 C   0  0  0  0  0  0  0  0  0  0  0  0
    7.0649   -9.0953    0.0000 C   0  0  0  0  0  0  0  0  0  0  0  0
    7.8162   -8.7544    0.0000 C   0  0  0  0  0  0  0  0  0  0  0  0
    8.4870   -9.2347    0.0000 C   0  0  0  0  0  0  0  0  0  0  0  0
    9.2928   -9.0575    0.0000 C   0  0  0  0  0  0  0  0  0  0  0  0
    9.7003   -8.3401    0.0000 C   0  0  0  0  0  0  0  0  0  0  0  0
    9.2827   -7.6286    0.0000 C   0  0  0  0  0  0  0  0  0  0  0  0
    9.6902   -6.9112    0.0000 C   0  0  0  0  0  0  0  0  0  0  0  0
   10.5152   -6.9054    0.0000 C   0  0  0  0  0  0  0  0  0  0  0  0
   11.0629   -6.2884    0.0000 C   0  0  0  0  0  0  0  0  0  0  0  0
   11.8189   -6.6187    0.0000 C   0  0  0  0  0  0  0  0  0  0  0  0
   11.7385   -7.4398    0.0000 O   0  0  0  0  0  0  0  0  0  0  0  0
   10.9327   -7.6170    0.0000 C   0  0  0  0  0  0  0  0  0  0  0  0
   10.5252   -8.3343    0.0000 C   0  0  0  0  0  0  0  0  0  0  0  0
   10.9428   -9.0459    0.0000 C   0  0  0  0  0  0  0  0  0  0  0  0
   10.5353   -9.7632    0.0000 C   0  0  0  0  0  0  0  0  0  0  0  0
    9.7103   -9.7690    0.0000 C   0  0  0  0  0  0  0  0  0  0  0  0
    9.1626  -10.3860    0.0000 C   0  0  0  0  0  0  0  0  0  0  0  0
    8.4066  -10.0557    0.0000 C   0  0  0  0  0  0  0  0  0  0  0  0
    7.6553  -10.3966    0.0000 C   0  0  0  0  0  0  0  0  0  0  0  0
    6.9845   -9.9163    0.0000 C   0  0  0  0  0  0  0  0  0  0  0  0
    6.1787  -10.0935    0.0000 C   0  0  0  0  0  0  0  0  0  0  0  0
    5.7712  -10.8109    0.0000 C   0  0  0  0  0  0  0  0  0  0  0  0
    6.1888  -11.5224    0.0000 C   0  0  0  0  0  0  0  0  0  0  0  0
    5.7813  -12.2398    0.0000 C   0  0  0  0  0  0  0  0  0  0  0  0
    4.9563  -12.2456    0.0000 C   0  0  0  0  0  0  0  0  0  0  0  0
    4.4086  -12.8626    0.0000 C   0  0  0  0  0  0  0  0  0  0  0  0
    3.6526  -12.5323    0.0000 C   0  0  0  0  0  0  0  0  0  0  0  0
    3.7330  -11.7112    0.0000 O   0  0  0  0  0  0  0  0  0  0  0  0
    4.5388  -11.5340    0.0000 C   0  0  0  0  0  0  0  0  0  0  0  0
    4.9463  -10.8167    0.0000 C   0  0  0  0  0  0  0  0  0  0  0  0
    4.5287  -10.1051    0.0000 C   0  0  0  0  0  0  0  0  0  0  0  0
    4.9362   -9.3878    0.0000 C   0  0  0  0  0  0  0  0  0  0  0  0
    8.4612   -7.7040    0.0000 O   0  0  0  0  0  0  0  0  0  0  0  0
    9.2141   -6.2375    0.0000 O   0  0  0  0  0  0  0  0  0  0  0  0
    7.0103  -11.4470    0.0000 O   0  0  0  0  0  0  0  0  0  0  0  0
    6.2574  -12.9135    0.0000 O   0  0  0  0  0  0  0  0  0  0  0  0
    9.3398  -11.1917    0.0000 C   0  0  0  0  0  0  0  0  0  0  0  0
    4.5858  -13.6683    0.0000 C   0  0  0  0  0  0  0  0  0  0  0  0
   10.8857   -5.4827    0.0000 C   0  0  0  0  0  0  0  0  0  0  0  0
    6.1317   -7.9593    0.0000 C   0  0  0  0  0  0  0  0  0  0  0  0
  1  2  1  0  0  0  0
  2  3  2  0  0  0  0
  3  4  1  0  0  0  0
  4  5  1  0  0  0  0
  5  6  1  0  0  0  0
  6  7  1  0  0  0  0
  7  8  1  0  0  0  0
  8  9  1  0  0  0  0
  9 10  1  0  0  0  0
 10 11  1  0  0  0  0
 11 12  2  0  0  0  0
 12 13  1  0  0  0  0
 13 14  1  0  0  0  0
 14 15  1  0  0  0  0
 15 16  1  0  0  0  0
 16 17  2  0  0  0  0
 17 18  1  0  0  0  0
 18 19  1  0  0  0  0
 19 20  1  0  0  0  0
 20 21  1  0  0  0  0
 21 22  1  0  0  0  0
 22 23  1  0  0  0  0
 23 24  1  0  0  0  0
 24 25  1  0  0  0  0
 25 26  1  0  0  0  0
 26 27  1  0  0  0  0
 27 28  1  0  0  0  0
 28 29  2  0  0  0  0
 29 30  1  0  0  0  0
 30 31  1  0  0  0  0
 31 32  1  0  0  0  0
 32 33  1  0  0  0  0
 33 34  2  0  0  0  0
  1 34  1  0  0  0  0
  1 23  2  0  0  0  0
 24 32  2  0  0  0  0
 27 31  2  0  0  0  0
  6 18  2  0  0  0  0
  7 15  2  0  0  0  0
 10 14  2  0  0  0  0
  8 35  2  0  0  0  0
  9 36  2  0  0  0  0
 25 37  2  0  0  0  0
 26 38  2  0  0  0  0
 19 39  2  0  0  0  0
 28 40  1  0  0  0  0
 11 41  1  0  0  0  0
  2 42  1  0  0  0  0
M  END
>  <cdx:fragmentId>
190328

$$$$
