93293.cdx
  Mrv1902 05222410272D          

 22 24  0  0  0  0            999 V2000
    4.3568   -6.4763    0.0000 C   0  0  0  0  0  0  0  0  0  0  0  0
    4.3568   -7.3012    0.0000 C   0  0  0  0  0  0  0  0  0  0  0  0
    5.0713   -7.7138    0.0000 C   0  0  0  0  0  0  0  0  0  0  0  0
    5.7857   -7.3012    0.0000 C   0  0  0  0  0  0  0  0  0  0  0  0
    5.7857   -6.4763    0.0000 C   0  0  0  0  0  0  0  0  0  0  0  0
    5.0713   -6.0638    0.0000 C   0  0  0  0  0  0  0  0  0  0  0  0
    6.5002   -7.7138    0.0000 C   0  0  0  0  0  0  0  0  0  0  0  0
    7.2147   -7.3012    0.0000 C   0  0  2  0  0  0  0  0  0  0  0  0
    7.2147   -6.4763    0.0000 C   0  0  0  0  0  0  0  0  0  0  0  0
    6.5002   -6.0638    0.0000 O   0  0  0  0  0  0  0  0  0  0  0  0
    7.9292   -7.7138    0.0000 C   0  0  0  0  0  0  0  0  0  0  0  0
    8.6436   -7.3012    0.0000 C   0  0  0  0  0  0  0  0  0  0  0  0
    8.6436   -6.4763    0.0000 C   0  0  0  0  0  0  0  0  0  0  0  0
    9.3581   -7.7138    0.0000 C   0  0  0  0  0  0  0  0  0  0  0  0
   10.0726   -7.3012    0.0000 C   0  0  0  0  0  0  0  0  0  0  0  0
   10.0726   -6.4763    0.0000 C   0  0  0  0  0  0  0  0  0  0  0  0
    9.3581   -6.0638    0.0000 C   0  0  0  0  0  0  0  0  0  0  0  0
    3.6423   -6.0638    0.0000 O   0  0  0  0  0  0  0  0  0  0  0  0
    5.0713   -8.5388    0.0000 O   0  0  0  0  0  0  0  0  0  0  0  0
    6.5002   -8.5388    0.0000 O   0  0  0  0  0  0  0  0  0  0  0  0
    9.3581   -8.5388    0.0000 O   0  0  0  0  0  0  0  0  0  0  0  0
    2.9279   -6.4763    0.0000 C   0  0  0  0  0  0  0  0  0  0  0  0
  1  2  2  0  0  0  0
  2  3  1  0  0  0  0
  3  4  2  0  0  0  0
  4  5  1  0  0  0  0
  5  6  2  0  0  0  0
  6  1  1  0  0  0  0
  4  7  1  0  0  0  0
  7  8  1  0  0  0  0
  8  9  1  0  0  0  0
  9 10  1  0  0  0  0
 10  5  1  0  0  0  0
  8 11  1  6  0  0  0
 11 12  1  0  0  0  0
 12 13  2  0  0  0  0
 12 14  1  0  0  0  0
 14 15  2  0  0  0  0
 15 16  1  0  0  0  0
 16 17  2  0  0  0  0
 17 13  1  0  0  0  0
  1 18  1  0  0  0  0
  3 19  1  0  0  0  0
  7 20  2  0  0  0  0
 14 21  1  0  0  0  0
 18 22  1  0  0  0  0
M  END
>  <cdx:fragmentId>
5

$$$$
