93291.cdx
  Mrv1902 05222410262D          

 26 28  0  0  0  0            999 V2000
    4.4928   -7.7486    0.0000 O   0  0  0  0  0  0  0  0  0  0  0  0
    4.9913   -7.0913    0.0000 C   0  0  0  0  0  0  0  0  0  0  0  0
    4.6713   -6.3309    0.0000 C   0  0  0  0  0  0  0  0  0  0  0  0
    3.8528   -6.2278    0.0000 O   0  0  0  0  0  0  0  0  0  0  0  0
    5.8099   -7.1943    0.0000 C   0  0  0  0  0  0  0  0  0  0  0  0
    6.3084   -6.5370    0.0000 C   0  0  0  0  0  0  0  0  0  0  0  0
    5.9884   -5.7766    0.0000 C   0  0  0  0  0  0  0  0  0  0  0  0
    5.1698   -5.6735    0.0000 C   0  0  0  0  0  0  0  0  0  0  0  0
    7.1305   -6.4676    0.0000 N   0  0  0  0  0  0  0  0  0  0  0  0
    7.3185   -5.6643    0.0000 C   0  0  0  0  0  0  0  0  0  0  0  0
    6.6127   -5.2372    0.0000 C   0  0  0  0  0  0  0  0  0  0  0  0
    8.0789   -5.3443    0.0000 C   0  0  0  0  0  0  0  0  0  0  0  0
    8.1820   -4.5258    0.0000 O   0  0  0  0  0  0  0  0  0  0  0  0
    8.7363   -5.8428    0.0000 O   0  0  0  0  0  0  0  0  0  0  0  0
    7.6698   -7.0919    0.0000 C   0  0  0  0  0  0  0  0  0  0  0  0
    7.3988   -7.8711    0.0000 C   0  0  0  0  0  0  0  0  0  0  0  0
    8.4801   -6.9370    0.0000 O   0  0  0  0  0  0  0  0  0  0  0  0
    7.9381   -8.4954    0.0000 C   0  0  0  0  0  0  0  0  0  0  0  0
    7.6672   -9.2746    0.0000 C   0  0  0  0  0  0  0  0  0  0  0  0
    6.8568   -9.4296    0.0000 C   0  0  0  0  0  0  0  0  0  0  0  0
    6.5858  -10.2088    0.0000 C   0  0  0  0  0  0  0  0  0  0  0  0
    7.1252  -10.8331    0.0000 C   0  0  0  0  0  0  0  0  0  0  0  0
    7.9355  -10.6782    0.0000 C   0  0  0  0  0  0  0  0  0  0  0  0
    8.2065   -9.8989    0.0000 C   0  0  0  0  0  0  0  0  0  0  0  0
    6.8542  -11.6123    0.0000 O   0  0  0  0  0  0  0  0  0  0  0  0
    8.4748  -11.3025    0.0000 O   0  0  0  0  0  0  0  0  0  0  0  0
  1  2  1  0  0  0  0
  2  3  2  0  0  0  0
  3  4  1  0  0  0  0
  2  5  1  0  0  0  0
  5  6  2  0  0  0  0
  6  7  1  0  0  0  0
  7  8  2  0  0  0  0
  8  3  1  0  0  0  0
  6  9  1  0  0  0  0
  9 10  1  0  0  0  0
 10 11  1  0  0  0  0
 11  7  1  0  0  0  0
 10 12  1  0  0  0  0
 12 13  2  0  0  0  0
 12 14  1  0  0  0  0
  9 15  1  0  0  0  0
 15 16  1  0  0  0  0
 15 17  2  0  0  0  0
 16 18  2  0  0  0  0
 18 19  1  0  0  0  0
 19 20  2  0  0  0  0
 20 21  1  0  0  0  0
 21 22  2  0  0  0  0
 22 23  1  0  0  0  0
 23 24  2  0  0  0  0
 24 19  1  0  0  0  0
 22 25  1  0  0  0  0
 23 26  1  0  0  0  0
M  END
>  <cdx:fragmentId>
5

$$$$
