93290.cdx
  Mrv1902 05222410262D          

 38 41  0  0  0  0            999 V2000
    6.2666   -6.8686    0.0000 O   0  0  0  0  0  0  0  0  0  0  0  0
    6.7651   -6.2113    0.0000 C   0  0  0  0  0  0  0  0  0  0  0  0
    6.4451   -5.4509    0.0000 C   0  0  0  0  0  0  0  0  0  0  0  0
    5.6265   -5.3478    0.0000 O   0  0  0  0  0  0  0  0  0  0  0  0
    7.5836   -6.3143    0.0000 C   0  0  0  0  0  0  0  0  0  0  0  0
    8.0821   -5.6570    0.0000 C   0  0  0  0  0  0  0  0  0  0  0  0
    7.7621   -4.8966    0.0000 C   0  0  0  0  0  0  0  0  0  0  0  0
    6.9436   -4.7935    0.0000 C   0  0  0  0  0  0  0  0  0  0  0  0
    8.9042   -5.5876    0.0000 N   0  0  0  0  0  0  0  0  0  0  0  0
    9.0923   -4.7843    0.0000 C   0  0  0  0  0  0  0  0  0  0  0  0
    8.3864   -4.3572    0.0000 C   0  0  0  0  0  0  0  0  0  0  0  0
    9.8527   -4.4643    0.0000 C   0  0  0  0  0  0  0  0  0  0  0  0
    9.9557   -3.6458    0.0000 O   0  0  0  0  0  0  0  0  0  0  0  0
   10.5100   -4.9628    0.0000 O   0  0  0  0  0  0  0  0  0  0  0  0
    9.4435   -6.2119    0.0000 C   0  0  0  0  0  0  0  0  0  0  0  0
    9.1726   -6.9911    0.0000 C   0  0  0  0  0  0  0  0  0  0  0  0
   10.2539   -6.0570    0.0000 O   0  0  0  0  0  0  0  0  0  0  0  0
    9.7119   -7.6154    0.0000 C   0  0  0  0  0  0  0  0  0  0  0  0
    9.4409   -8.3946    0.0000 C   0  0  0  0  0  0  0  0  0  0  0  0
    8.6306   -8.5496    0.0000 C   0  0  0  0  0  0  0  0  0  0  0  0
    8.3596   -9.3288    0.0000 C   0  0  0  0  0  0  0  0  0  0  0  0
    8.8989   -9.9531    0.0000 C   0  0  0  0  0  0  0  0  0  0  0  0
    9.7093   -9.7982    0.0000 C   0  0  0  0  0  0  0  0  0  0  0  0
    9.9802   -9.0189    0.0000 C   0  0  0  0  0  0  0  0  0  0  0  0
    8.6279  -10.7323    0.0000 O   0  0  0  0  0  0  0  0  0  0  0  0
    7.5493   -9.4837    0.0000 O   0  0  0  0  0  0  0  0  0  0  0  0
   10.2486  -10.4225    0.0000 O   0  0  0  0  0  0  0  0  0  0  0  0
    4.9191   -6.8824    0.0000 C   0  0  0  0  0  0  0  0  0  0  0  0
    4.5066   -6.1679    0.0000 C   0  0  2  0  0  0  0  0  0  0  0  0
    3.6816   -6.1679    0.0000 C   0  0  1  0  0  0  0  0  0  0  0  0
    3.2691   -6.8824    0.0000 C   0  0  2  0  0  0  0  0  0  0  0  0
    3.6816   -7.5968    0.0000 C   0  0  1  0  0  0  0  0  0  0  0  0
    4.5066   -7.5968    0.0000 O   0  0  0  0  0  0  0  0  0  0  0  0
    3.2691   -5.4534    0.0000 O   0  0  0  0  0  0  0  0  0  0  0  0
    3.2691   -8.3113    0.0000 C   0  0  0  0  0  0  0  0  0  0  0  0
    4.9191   -5.4534    0.0000 O   0  0  0  0  0  0  0  0  0  0  0  0
    2.4441   -6.8824    0.0000 O   0  0  0  0  0  0  0  0  0  0  0  0
    2.4441   -8.3113    0.0000 O   0  0  0  0  0  0  0  0  0  0  0  0
  1  2  1  0  0  0  0
  2  3  2  0  0  0  0
  3  4  1  0  0  0  0
  2  5  1  0  0  0  0
  5  6  2  0  0  0  0
  6  7  1  0  0  0  0
  7  8  2  0  0  0  0
  8  3  1  0  0  0  0
  6  9  1  0  0  0  0
  9 10  1  0  0  0  0
 10 11  1  0  0  0  0
 11  7  1  0  0  0  0
 10 12  1  0  0  0  0
 12 13  2  0  0  0  0
 12 14  1  0  0  0  0
  9 15  1  0  0  0  0
 15 16  1  0  0  0  0
 15 17  2  0  0  0  0
 16 18  2  0  0  0  0
 18 19  1  0  0  0  0
 19 20  2  0  0  0  0
 20 21  1  0  0  0  0
 21 22  2  0  0  0  0
 22 23  1  0  0  0  0
 23 24  2  0  0  0  0
 24 19  1  0  0  0  0
 22 25  1  0  0  0  0
 21 26  1  0  0  0  0
 23 27  1  0  0  0  0
  1 28  1  0  0  0  0
 28 29  1  0  0  0  0
 29 30  1  0  0  0  0
 30 31  1  0  0  0  0
 31 32  1  0  0  0  0
 32 33  1  0  0  0  0
 33 28  1  0  0  0  0
 30 34  1  1  0  0  0
 32 35  1  1  0  0  0
 29 36  1  6  0  0  0
 31 37  1  6  0  0  0
 35 38  1  0  0  0  0
M  END
>  <cdx:fragmentId>
5

$$$$
