93295.cdx
  Mrv1902 05222410282D          

 24 26  0  0  0  0            999 V2000
    3.6968   -4.5375    0.0000 C   0  0  0  0  0  0  0  0  0  0  0  0
    3.6968   -5.3625    0.0000 C   0  0  0  0  0  0  0  0  0  0  0  0
    4.4113   -5.7750    0.0000 C   0  0  0  0  0  0  0  0  0  0  0  0
    5.1257   -5.3625    0.0000 C   0  0  0  0  0  0  0  0  0  0  0  0
    5.1257   -4.5375    0.0000 C   0  0  0  0  0  0  0  0  0  0  0  0
    4.4113   -4.1250    0.0000 C   0  0  0  0  0  0  0  0  0  0  0  0
    2.9823   -4.1250    0.0000 O   0  0  0  0  0  0  0  0  0  0  0  0
    2.9823   -5.7750    0.0000 O   0  0  0  0  0  0  0  0  0  0  0  0
    5.9104   -5.6174    0.0000 N   0  0  0  0  0  0  0  0  0  0  0  0
    6.3953   -4.9500    0.0000 C   0  0  0  0  0  0  0  0  0  0  0  0
    5.9104   -4.2826    0.0000 C   0  0  0  0  0  0  0  0  0  0  0  0
    6.1653   -6.4021    0.0000 C   0  0  0  0  0  0  0  0  0  0  0  0
    5.6133   -7.0152    0.0000 O   0  0  0  0  0  0  0  0  0  0  0  0
    6.9723   -6.5736    0.0000 C   0  0  0  0  0  0  0  0  0  0  0  0
    7.1858   -7.3705    0.0000 C   0  0  0  0  0  0  0  0  0  0  0  0
    7.9827   -7.5840    0.0000 C   0  0  0  0  0  0  0  0  0  0  0  0
    8.1962   -8.3809    0.0000 C   0  0  0  0  0  0  0  0  0  0  0  0
    8.9931   -8.5944    0.0000 C   0  0  0  0  0  0  0  0  0  0  0  0
    9.5765   -8.0111    0.0000 C   0  0  0  0  0  0  0  0  0  0  0  0
    9.3629   -7.2142    0.0000 C   0  0  0  0  0  0  0  0  0  0  0  0
    8.5661   -7.0006    0.0000 C   0  0  0  0  0  0  0  0  0  0  0  0
    9.9463   -6.6308    0.0000 O   0  0  0  0  0  0  0  0  0  0  0  0
   10.3734   -8.2246    0.0000 O   0  0  0  0  0  0  0  0  0  0  0  0
    9.7328   -5.8339    0.0000 C   0  0  0  0  0  0  0  0  0  0  0  0
  1  2  2  0  0  0  0
  2  3  1  0  0  0  0
  3  4  2  0  0  0  0
  4  5  1  0  0  0  0
  5  6  2  0  0  0  0
  6  1  1  0  0  0  0
  1  7  1  0  0  0  0
  2  8  1  0  0  0  0
  4  9  1  0  0  0  0
  9 10  1  0  0  0  0
 10 11  2  0  0  0  0
 11  5  1  0  0  0  0
  9 12  1  0  0  0  0
 12 13  2  0  0  0  0
 12 14  1  0  0  0  0
 14 15  2  0  0  0  0
 15 16  1  0  0  0  0
 16 17  2  0  0  0  0
 17 18  1  0  0  0  0
 18 19  2  0  0  0  0
 19 20  1  0  0  0  0
 20 21  2  0  0  0  0
 21 16  1  0  0  0  0
 20 22  1  0  0  0  0
 19 23  1  0  0  0  0
 22 24  1  0  0  0  0
M  END
>  <cdx:fragmentId>
5

$$$$
