93299.cdx
  Mrv1902 05222410182D          

130142  0  0  0  0            999 V2000
    9.3853  -10.3392    0.0000 C   0  0  0  0  0  0  0  0  0  0  0  0
    8.6715  -10.7529    0.0000 C   0  0  1  0  0  0  0  0  0  0  0  0
    8.6729  -11.5779    0.0000 C   0  0  1  0  0  0  0  0  0  0  0  0
    9.3881  -11.9892    0.0000 C   0  0  1  0  0  0  0  0  0  0  0  0
   10.1019  -11.5755    0.0000 C   0  0  2  0  0  0  0  0  0  0  0  0
   10.8170  -11.9868    0.0000 C   0  0  0  0  0  0  0  0  0  0  0  0
   11.5308  -11.5731    0.0000 C   0  0  0  0  0  0  0  0  0  0  0  0
   11.5294  -10.7481    0.0000 C   0  0  1  0  0  0  0  0  0  0  0  0
   12.2432  -10.3344    0.0000 C   0  0  2  0  0  0  0  0  0  0  0  0
   12.9584  -10.7457    0.0000 C   0  0  0  0  0  0  0  0  0  0  0  0
   13.6721  -10.3320    0.0000 C   0  0  0  0  0  0  0  0  0  0  0  0
   13.6707   -9.5070    0.0000 C   0  0  1  0  0  0  0  0  0  0  0  0
   14.3845   -9.0933    0.0000 C   0  0  0  0  0  0  0  0  0  0  0  0
   14.3831   -8.2683    0.0000 C   0  0  0  0  0  0  0  0  0  0  0  0
   13.6680   -7.8570    0.0000 C   0  0  0  0  0  0  0  0  0  0  0  0
   12.9542   -8.2707    0.0000 C   0  0  0  0  0  0  0  0  0  0  0  0
   12.9556   -9.0957    0.0000 C   0  0  1  0  0  0  0  0  0  0  0  0
   12.2418   -9.5094    0.0000 C   0  0  0  0  0  0  0  0  0  0  0  0
   11.5266   -9.0981    0.0000 C   0  0  0  0  0  0  0  0  0  0  0  0
   10.8129   -9.5118    0.0000 C   0  0  0  0  0  0  0  0  0  0  0  0
   10.8142  -10.3368    0.0000 C   0  0  2  0  0  0  0  0  0  0  0  0
   10.1005  -10.7505    0.0000 C   0  0  1  0  0  0  0  0  0  0  0  0
    7.9591  -11.9916    0.0000 O   0  0  0  0  0  0  0  0  0  0  0  0
    7.2426  -10.7553    0.0000 O   0  0  0  0  0  0  0  0  0  0  0  0
    7.2440  -11.5803    0.0000 C   0  0  2  0  0  0  0  0  0  0  0  0
    6.5302  -11.9940    0.0000 C   0  0  1  0  0  0  0  0  0  0  0  0
    5.8150  -11.5827    0.0000 C   0  0  2  0  0  0  0  0  0  0  0  0
    5.8137  -10.7577    0.0000 C   0  0  1  0  0  0  0  0  0  0  0  0
    6.5274  -10.3440    0.0000 C   0  0  1  0  0  0  0  0  0  0  0  0
    6.5260   -9.5190    0.0000 C   0  0  0  0  0  0  0  0  0  0  0  0
    5.8109   -9.1078    0.0000 O   0  0  0  0  0  0  0  0  0  0  0  0
    5.0985  -10.3464    0.0000 O   0  0  0  0  0  0  0  0  0  0  0  0
    5.1013  -11.9964    0.0000 O   0  0  0  0  0  0  0  0  0  0  0  0
    6.5316  -12.8190    0.0000 O   0  0  0  0  0  0  0  0  0  0  0  0
   10.0991   -9.9255    0.0000 C   0  0  0  0  0  0  0  0  0  0  0  0
   13.2543   -7.1433    0.0000 C   0  0  0  0  0  0  0  0  0  0  0  0
   14.0793   -7.1419    0.0000 C   0  0  0  0  0  0  0  0  0  0  0  0
   11.5280   -9.9231    0.0000 C   0  0  0  0  0  0  0  0  0  0  0  0
    8.9756  -12.7037    0.0000 C   0  0  0  0  0  0  0  0  0  0  0  0
   12.2446  -11.1594    0.0000 C   0  0  0  0  0  0  0  0  0  0  0  0
   12.9597  -11.5707    0.0000 O   0  0  0  0  0  0  0  0  0  0  0  0
    7.9564  -10.3416    0.0000 O   0  0  0  0  0  0  0  0  0  0  0  0
   14.3859   -9.9183    0.0000 C   0  0  0  0  0  0  0  0  0  0  0  0
   14.3873  -10.7433    0.0000 O   0  0  0  0  0  0  0  0  0  0  0  0
   15.0997   -9.5046    0.0000 O   0  0  0  0  0  0  0  0  0  0  0  0
   15.8162  -10.7409    0.0000 O   0  0  0  0  0  0  0  0  0  0  0  0
   15.8148   -9.9159    0.0000 C   0  0  2  0  0  0  0  0  0  0  0  0
   16.5286   -9.5022    0.0000 C   0  0  1  0  0  0  0  0  0  0  0  0
   17.2438   -9.9135    0.0000 C   0  0  2  0  0  0  0  0  0  0  0  0
   17.2452  -10.7385    0.0000 C   0  0  2  0  0  0  0  0  0  0  0  0
   16.5314  -11.1522    0.0000 C   0  0  1  0  0  0  0  0  0  0  0  0
   17.9576   -9.4998    0.0000 O   0  0  0  0  0  0  0  0  0  0  0  0
   16.5328  -11.9772    0.0000 C   0  0  0  0  0  0  0  0  0  0  0  0
   17.9603  -11.1498    0.0000 O   0  0  0  0  0  0  0  0  0  0  0  0
   17.9617  -11.9748    0.0000 C   0  0  0  0  0  0  0  0  0  0  0  0
   18.6769  -12.3861    0.0000 C   0  0  0  0  0  0  0  0  0  0  0  0
   18.6783  -13.2111    0.0000 C   0  0  0  0  0  0  0  0  0  0  0  0
   17.2479  -12.3885    0.0000 O   0  0  0  0  0  0  0  0  0  0  0  0
   19.3934  -13.6224    0.0000 C   0  0  0  0  0  0  0  0  0  0  0  0
   20.1072  -13.2087    0.0000 C   0  0  0  0  0  0  0  0  0  0  0  0
   20.8224  -13.6200    0.0000 C   0  0  0  0  0  0  0  0  0  0  0  0
   20.8238  -14.4450    0.0000 C   0  0  0  0  0  0  0  0  0  0  0  0
   20.1100  -14.8587    0.0000 C   0  0  0  0  0  0  0  0  0  0  0  0
   19.3948  -14.4474    0.0000 C   0  0  0  0  0  0  0  0  0  0  0  0
   21.5389  -14.8563    0.0000 O   0  0  0  0  0  0  0  0  0  0  0  0
   22.2527  -14.4426    0.0000 C   0  0  0  0  0  0  0  0  0  0  0  0
   16.5264   -8.6497    0.0000 O   0  0  0  0  0  0  0  0  0  0  0  0
   17.7466   -7.9062    0.0000 O   0  0  0  0  0  0  0  0  0  0  0  0
   16.9219   -7.9257    0.0000 C   0  0  2  0  0  0  0  0  0  0  0  0
   16.4926   -7.2212    0.0000 C   0  0  1  0  0  0  0  0  0  0  0  0
   16.8880   -6.4972    0.0000 C   0  0  1  0  0  0  0  0  0  0  0  0
   17.7128   -6.4776    0.0000 C   0  0  2  0  0  0  0  0  0  0  0  0
   18.1421   -7.1821    0.0000 C   0  0  2  0  0  0  0  0  0  0  0  0
   18.9669   -7.1626    0.0000 C   0  0  0  0  0  0  0  0  0  0  0  0
   16.4587   -5.7927    0.0000 O   0  0  0  0  0  0  0  0  0  0  0  0
   15.6678   -7.2407    0.0000 O   0  0  0  0  0  0  0  0  0  0  0  0
   18.1083   -5.7536    0.0000 O   0  0  0  0  0  0  0  0  0  0  0  0
   19.3623   -6.4386    0.0000 O   0  0  0  0  0  0  0  0  0  0  0  0
   18.9330   -5.7341    0.0000 C   0  0  2  0  0  0  0  0  0  0  0  0
   19.3285   -5.0100    0.0000 C   0  0  1  0  0  0  0  0  0  0  0  0
   20.1533   -4.9905    0.0000 C   0  0  2  0  0  0  0  0  0  0  0  0
   20.5826   -5.6950    0.0000 C   0  0  1  0  0  0  0  0  0  0  0  0
   20.1871   -6.4190    0.0000 C   0  0  0  0  0  0  0  0  0  0  0  0
   20.5487   -4.2664    0.0000 O   0  0  0  0  0  0  0  0  0  0  0  0
   18.8992   -4.3055    0.0000 O   0  0  0  0  0  0  0  0  0  0  0  0
   10.1032  -12.4005    0.0000 H   0  0  0  0  0  0  0  0  0  0  0  0
   12.2411   -8.6832    0.0000 H   0  0  0  0  0  0  0  0  0  0  0  0
   10.8156  -11.1618    0.0000 H   0  0  0  0  0  0  0  0  0  0  0  0
   21.4073   -5.6754    0.0000 O   0  0  0  0  0  0  0  0  0  0  0  0
    9.8006  -12.7037    0.0000 C   0  0  0  0  0  0  0  0  0  0  0  0
    9.3881  -13.4182    0.0000 O   0  0  0  0  0  0  0  0  0  0  0  0
   10.6256  -12.7037    0.0000 O   0  0  0  0  0  0  0  0  0  0  0  0
   15.6711   -5.5473    0.0000 C   0  0  2  0  0  0  0  0  0  0  0  0
   15.4066   -4.7658    0.0000 O   0  0  0  0  0  0  0  0  0  0  0  0
   14.5817   -4.7758    0.0000 C   0  0  0  0  0  0  0  0  0  0  0  0
   14.3363   -5.5635    0.0000 C   0  0  2  0  0  0  0  0  0  0  0  0
   15.0096   -6.0403    0.0000 C   0  0  1  0  0  0  0  0  0  0  0  0
   15.0196   -6.8652    0.0000 O   0  0  0  0  0  0  0  0  0  0  0  0
   13.7529   -6.1468    0.0000 O   0  0  0  0  0  0  0  0  0  0  0  0
   13.6218   -5.1510    0.0000 C   0  0  0  0  0  0  0  0  0  0  0  0
   21.3735   -4.2469    0.0000 C   0  0  2  0  0  0  0  0  0  0  0  0
   21.7873   -4.9606    0.0000 O   0  0  0  0  0  0  0  0  0  0  0  0
   22.6123   -4.9606    0.0000 C   0  0  0  0  0  0  0  0  0  0  0  0
   23.0235   -4.2469    0.0000 C   0  0  1  0  0  0  0  0  0  0  0  0
   22.6123   -3.5332    0.0000 C   0  0  1  0  0  0  0  0  0  0  0  0
   21.7873   -3.5332    0.0000 C   0  0  1  0  0  0  0  0  0  0  0  0
   21.3755   -2.8183    0.0000 O   0  0  0  0  0  0  0  0  0  0  0  0
   23.0252   -2.8189    0.0000 O   0  0  0  0  0  0  0  0  0  0  0  0
   23.8485   -4.2469    0.0000 O   0  0  0  0  0  0  0  0  0  0  0  0
   12.9073   -5.5635    0.0000 O   0  0  0  0  0  0  0  0  0  0  0  0
   12.1929   -5.1510    0.0000 C   0  0  0  0  0  0  0  0  0  0  0  0
   11.4784   -5.5635    0.0000 C   0  0  0  0  0  0  0  0  0  0  0  0
   12.1929   -4.3260    0.0000 O   0  0  0  0  0  0  0  0  0  0  0  0
   10.7639   -5.1510    0.0000 C   0  0  0  0  0  0  0  0  0  0  0  0
   10.0495   -5.5635    0.0000 C   0  0  0  0  0  0  0  0  0  0  0  0
   10.3514   -4.4365    0.0000 C   0  0  0  0  0  0  0  0  0  0  0  0
   11.1764   -4.4365    0.0000 O   0  0  0  0  0  0  0  0  0  0  0  0
    9.3350   -5.1510    0.0000 C   0  0  0  0  0  0  0  0  0  0  0  0
    8.6205   -5.5635    0.0000 O   0  0  0  0  0  0  0  0  0  0  0  0
    9.3350   -4.3260    0.0000 O   0  0  0  0  0  0  0  0  0  0  0  0
   18.6727   -9.9111    0.0000 C   0  0  2  0  0  0  0  0  0  0  0  0
   18.6748  -10.7361    0.0000 O   0  0  0  0  0  0  0  0  0  0  0  0
   19.3903  -11.1468    0.0000 C   0  0  2  0  0  0  0  0  0  0  0  0
   20.1037  -10.7361    0.0000 C   0  0  1  0  0  0  0  0  0  0  0  0
   20.1037   -9.9111    0.0000 C   0  0  2  0  0  0  0  0  0  0  0  0
   19.3903   -9.5004    0.0000 C   0  0  1  0  0  0  0  0  0  0  0  0
   20.8180  -11.1491    0.0000 O   0  0  0  0  0  0  0  0  0  0  0  0
   20.8180   -9.4982    0.0000 O   0  0  0  0  0  0  0  0  0  0  0  0
   19.3914   -8.6754    0.0000 O   0  0  0  0  0  0  0  0  0  0  0  0
   19.3908  -11.9718    0.0000 C   0  0  0  0  0  0  0  0  0  0  0  0
  1  2  1  0  0  0  0
  2  3  1  0  0  0  0
  3  4  1  0  0  0  0
  4  5  1  0  0  0  0
  5  6  1  0  0  0  0
  6  7  1  0  0  0  0
  7  8  1  0  0  0  0
  8  9  1  0  0  0  0
  9 10  1  0  0  0  0
 10 11  1  0  0  0  0
 11 12  1  0  0  0  0
 12 13  1  0  0  0  0
 13 14  1  0  0  0  0
 14 15  1  0  0  0  0
 15 16  1  0  0  0  0
 16 17  1  0  0  0  0
 12 17  1  0  0  0  0
 17 18  1  0  0  0  0
  9 18  1  0  0  0  0
 18 19  2  0  0  0  0
 19 20  1  0  0  0  0
 20 21  1  0  0  0  0
  8 21  1  0  0  0  0
 21 22  1  0  0  0  0
  5 22  1  0  0  0  0
  1 22  1  0  0  0  0
 24 25  1  0  0  0  0
 25 26  1  0  0  0  0
 26 27  1  0  0  0  0
 27 28  1  0  0  0  0
 28 29  1  0  0  0  0
 24 29  1  0  0  0  0
 30 31  1  0  0  0  0
 29 30  1  1  0  0  0
 28 32  1  6  0  0  0
 27 33  1  1  0  0  0
 26 34  1  6  0  0  0
 25 23  1  1  0  0  0
  3 23  1  1  0  0  0
 22 35  1  1  0  0  0
 15 36  1  0  0  0  0
 15 37  1  0  0  0  0
  8 38  1  1  0  0  0
  4 39  1  1  0  0  0
 40 41  1  0  0  0  0
  9 40  1  6  0  0  0
  2 42  1  1  0  0  0
 43 44  2  0  0  0  0
 46 47  1  0  0  0  0
 47 48  1  0  0  0  0
 48 49  1  0  0  0  0
 49 50  1  0  0  0  0
 50 51  1  0  0  0  0
 46 51  1  0  0  0  0
 49 52  1  1  0  0  0
 51 53  1  1  0  0  0
 55 56  1  0  0  0  0
 56 57  2  0  0  0  0
 55 58  2  0  0  0  0
 59 60  1  0  0  0  0
 60 61  2  0  0  0  0
 61 62  1  0  0  0  0
 62 63  2  0  0  0  0
 63 64  1  0  0  0  0
 59 64  2  0  0  0  0
 65 66  1  0  0  0  0
 62 65  1  0  0  0  0
 57 59  1  0  0  0  0
 54 55  1  0  0  0  0
 50 54  1  1  0  0  0
 68 69  1  0  0  0  0
 69 70  1  0  0  0  0
 70 71  1  0  0  0  0
 71 72  1  0  0  0  0
 72 73  1  0  0  0  0
 68 73  1  0  0  0  0
 73 74  1  6  0  0  0
 71 75  1  6  0  0  0
 70 76  1  6  0  0  0
 78 79  1  0  0  0  0
 79 80  1  0  0  0  0
 80 81  1  0  0  0  0
 81 82  1  0  0  0  0
 82 83  1  0  0  0  0
 78 83  1  0  0  0  0
 82 89  1  6  0  0  0
 81 84  1  1  0  0  0
 80 85  1  6  0  0  0
 79 77  1  1  0  0  0
 72 77  1  1  0  0  0
 69 67  1  1  0  0  0
 48 67  1  6  0  0  0
 47 45  1  1  0  0  0
 43 45  1  0  0  0  0
 12 43  1  1  0  0  0
  5 86  1  6  0  0  0
 17 87  1  1  0  0  0
 21 88  1  6  0  0  0
  4 90  1  0  0  0  0
 90 91  2  0  0  0  0
 90 92  1  0  0  0  0
 93 75  1  1  0  0  0
 93 94  1  0  0  0  0
 94 95  1  0  0  0  0
 95 96  1  0  0  0  0
 96 97  1  0  0  0  0
 97 93  1  0  0  0  0
 97 98  1  6  0  0  0
 96 99  1  6  0  0  0
 96100  1  1  0  0  0
101 84  1  1  0  0  0
101102  1  0  0  0  0
102103  1  0  0  0  0
103104  1  0  0  0  0
104105  1  0  0  0  0
105106  1  0  0  0  0
106101  1  0  0  0  0
106107  1  6  0  0  0
105108  1  1  0  0  0
104109  1  1  0  0  0
100110  1  0  0  0  0
110111  1  0  0  0  0
111112  1  0  0  0  0
111113  2  0  0  0  0
112114  1  0  0  0  0
114115  1  0  0  0  0
114116  1  0  0  0  0
114117  1  0  0  0  0
115118  1  0  0  0  0
118119  1  0  0  0  0
118120  2  0  0  0  0
121 52  1  1  0  0  0
121122  1  0  0  0  0
122123  1  0  0  0  0
123124  1  0  0  0  0
124125  1  0  0  0  0
125126  1  0  0  0  0
126121  1  0  0  0  0
124127  1  1  0  0  0
125128  1  6  0  0  0
126129  1  6  0  0  0
123130  1  6  0  0  0
M  END
>  <cdx:fragmentId>
140680

$$$$
