93317.cdx
  Mrv1902 05222410202D          

 35 39  0  0  0  0            999 V2000
    7.2605   -6.8750    0.0000 C   0  0  2  0  0  0  0  0  0  0  0  0
    7.2605   -7.7000    0.0000 C   0  0  0  0  0  0  0  0  0  0  0  0
    7.9750   -8.1125    0.0000 C   0  0  1  0  0  0  0  0  0  0  0  0
    8.6895   -7.7000    0.0000 C   0  0  2  0  0  0  0  0  0  0  0  0
    8.6895   -6.8750    0.0000 C   0  0  0  0  0  0  0  0  0  0  0  0
    7.9750   -6.4625    0.0000 C   0  0  1  0  0  0  0  0  0  0  0  0
    7.9750   -5.6375    0.0000 C   0  0  0  0  0  0  0  0  0  0  0  0
    9.3225   -6.4900    0.0000 O   0  0  0  0  0  0  0  0  0  0  0  0
    7.9750   -7.2875    0.0000 C   0  0  2  0  0  0  0  0  0  0  0  0
    6.5461   -6.4625    0.0000 O   0  0  0  0  0  0  0  0  0  0  0  0
    9.2728   -8.2834    0.0000 O   0  0  0  0  0  0  0  0  0  0  0  0
    7.3700   -8.0575    0.0000 C   0  0  0  0  0  0  0  0  0  0  0  0
    7.3700   -8.8825    0.0000 O   0  0  0  0  0  0  0  0  0  0  0  0
    9.3225   -7.2875    0.0000 C   0  0  1  0  0  0  0  0  0  0  0  0
    6.6515   -9.2880    0.0000 C   0  0  0  0  0  0  0  0  0  0  0  0
    5.9411   -8.8685    0.0000 O   0  0  0  0  0  0  0  0  0  0  0  0
    6.6434  -10.1129    0.0000 C   0  0  0  0  0  0  0  0  0  0  0  0
    7.3538  -10.5324    0.0000 C   0  0  0  0  0  0  0  0  0  0  0  0
    7.3457  -11.3574    0.0000 C   0  0  0  0  0  0  0  0  0  0  0  0
    6.6273  -11.7629    0.0000 C   0  0  0  0  0  0  0  0  0  0  0  0
    5.9169  -11.3434    0.0000 C   0  0  0  0  0  0  0  0  0  0  0  0
    5.9250  -10.5184    0.0000 C   0  0  0  0  0  0  0  0  0  0  0  0
    5.8316   -6.8750    0.0000 C   0  0  2  0  0  0  0  0  0  0  0  0
    5.1171   -6.4625    0.0000 O   0  0  0  0  0  0  0  0  0  0  0  0
    4.4026   -6.8750    0.0000 C   0  0  1  0  0  0  0  0  0  0  0  0
    4.4026   -7.7000    0.0000 C   0  0  2  0  0  0  0  0  0  0  0  0
    5.1171   -8.1125    0.0000 C   0  0  1  0  0  0  0  0  0  0  0  0
    5.8316   -7.7000    0.0000 C   0  0  1  0  0  0  0  0  0  0  0  0
    3.6882   -6.4625    0.0000 C   0  0  0  0  0  0  0  0  0  0  0  0
    5.1171   -8.9375    0.0000 O   0  0  0  0  0  0  0  0  0  0  0  0
    6.5461   -8.1125    0.0000 O   0  0  0  0  0  0  0  0  0  0  0  0
    3.6882   -8.1125    0.0000 O   0  0  0  0  0  0  0  0  0  0  0  0
    2.9737   -6.8750    0.0000 O   0  0  0  0  0  0  0  0  0  0  0  0
    7.9750   -8.9375    0.0000 H   0  0  0  0  0  0  0  0  0  0  0  0
    9.9059   -7.8709    0.0000 H   0  0  0  0  0  0  0  0  0  0  0  0
  1  2  1  0  0  0  0
  2  3  1  0  0  0  0
  3  4  1  0  0  0  0
  4  5  1  0  0  0  0
  5  6  1  0  0  0  0
  6  1  1  0  0  0  0
  6  7  1  6  0  0  0
  6  8  1  0  0  0  0
  3  9  1  0  0  0  0
  1 10  1  1  0  0  0
  4 11  1  6  0  0  0
  9  1  1  0  0  0  0
  9 12  1  1  0  0  0
 12 13  1  0  0  0  0
  8 14  1  0  0  0  0
  9 14  1  0  0  0  0
 13 15  1  0  0  0  0
 15 16  2  0  0  0  0
 15 17  1  0  0  0  0
 17 18  2  0  0  0  0
 18 19  1  0  0  0  0
 19 20  2  0  0  0  0
 20 21  1  0  0  0  0
 21 22  2  0  0  0  0
 22 17  1  0  0  0  0
 23 10  1  1  0  0  0
 23 24  1  0  0  0  0
 24 25  1  0  0  0  0
 25 26  1  0  0  0  0
 26 27  1  0  0  0  0
 27 28  1  0  0  0  0
 28 23  1  0  0  0  0
 25 29  1  1  0  0  0
 27 30  1  1  0  0  0
 28 31  1  6  0  0  0
 26 32  1  6  0  0  0
 29 33  1  0  0  0  0
  3 34  1  1  0  0  0
 14 35  1  1  0  0  0
M  END
>  <cdx:fragmentId>
157

$$$$
