93316.cdx
  Mrv1902 05222410202D          

 44 48  0  0  0  0            999 V2000
    8.3930   -8.5290    0.0000 C   0  0  0  0  0  0  0  0  0  0  0  0
    8.3987   -7.7040    0.0000 C   0  0  1  0  0  0  0  0  0  0  0  0
    7.6870   -7.2867    0.0000 C   0  0  0  0  0  0  0  0  0  0  0  0
    6.9697   -7.6943    0.0000 C   0  0  0  0  0  0  0  0  0  0  0  0
    6.9641   -8.5193    0.0000 O   0  0  0  0  0  0  0  0  0  0  0  0
    7.6758   -8.9366    0.0000 C   0  0  1  0  0  0  0  0  0  0  0  0
    9.1759   -8.7893    0.0000 C   0  0  0  0  0  0  0  0  0  0  0  0
    9.6654   -8.1252    0.0000 C   0  0  0  0  0  0  0  0  0  0  0  0
    9.1850   -7.4545    0.0000 C   0  0  0  0  0  0  0  0  0  0  0  0
    6.9810   -6.0443    0.0000 O   0  0  0  0  0  0  0  0  0  0  0  0
    8.4099   -6.0541    0.0000 O   0  0  0  0  0  0  0  0  0  0  0  0
    7.6926   -6.4617    0.0000 C   0  0  0  0  0  0  0  0  0  0  0  0
    9.4255   -9.5756    0.0000 C   0  0  0  0  0  0  0  0  0  0  0  0
    7.6701   -9.7616    0.0000 O   0  0  0  0  0  0  0  0  0  0  0  0
    6.9529  -10.1692    0.0000 C   0  0  2  0  0  0  0  0  0  0  0  0
    6.2412   -9.7519    0.0000 O   0  0  0  0  0  0  0  0  0  0  0  0
    5.5240  -10.1595    0.0000 C   0  0  1  0  0  0  0  0  0  0  0  0
    5.5183  -10.9845    0.0000 C   0  0  2  0  0  0  0  0  0  0  0  0
    6.2300  -11.4018    0.0000 C   0  0  1  0  0  0  0  0  0  0  0  0
    6.9473  -10.9942    0.0000 C   0  0  1  0  0  0  0  0  0  0  0  0
    4.8123   -9.7421    0.0000 C   0  0  0  0  0  0  0  0  0  0  0  0
    4.0951  -10.1498    0.0000 O   0  0  0  0  0  0  0  0  0  0  0  0
    4.8011  -11.3921    0.0000 O   0  0  0  0  0  0  0  0  0  0  0  0
    3.3890   -8.9074    0.0000 O   0  0  0  0  0  0  0  0  0  0  0  0
    3.3834   -9.7324    0.0000 C   0  0  2  0  0  0  0  0  0  0  0  0
    2.6774   -8.4901    0.0000 C   0  0  0  0  0  0  0  0  0  0  0  0
    1.9601   -8.8977    0.0000 C   0  0  1  0  0  0  0  0  0  0  0  0
    1.9545   -9.7227    0.0000 C   0  0  1  0  0  0  0  0  0  0  0  0
    2.6662  -10.1400    0.0000 C   0  0  1  0  0  0  0  0  0  0  0  0
    6.2244  -12.2268    0.0000 O   0  0  0  0  0  0  0  0  0  0  0  0
    1.2372  -10.1303    0.0000 O   0  0  0  0  0  0  0  0  0  0  0  0
    1.2485   -8.4803    0.0000 O   0  0  0  0  0  0  0  0  0  0  0  0
    2.6605  -10.9650    0.0000 O   0  0  0  0  0  0  0  0  0  0  0  0
    7.6589  -11.4116    0.0000 O   0  0  0  0  0  0  0  0  0  0  0  0
    8.4043   -6.8791    0.0000 H   0  0  0  0  0  0  0  0  0  0  0  0
   10.2313   -9.7527    0.0000 O   0  0  0  0  0  0  0  0  0  0  0  0
   10.4809  -10.5390    0.0000 C   0  0  0  0  0  0  0  0  0  0  0  0
   11.2866  -10.7160    0.0000 C   0  0  0  0  0  0  0  0  0  0  0  0
    9.9247  -11.1483    0.0000 O   0  0  0  0  0  0  0  0  0  0  0  0
   11.5362  -11.5024    0.0000 C   0  0  0  0  0  0  0  0  0  0  0  0
   12.3420  -11.6794    0.0000 C   0  0  0  0  0  0  0  0  0  0  0  0
   12.8982  -11.0701    0.0000 C   0  0  0  0  0  0  0  0  0  0  0  0
   12.6486  -10.2837    0.0000 C   0  0  0  0  0  0  0  0  0  0  0  0
   11.8428  -10.1067    0.0000 C   0  0  0  0  0  0  0  0  0  0  0  0
  1  2  1  0  0  0  0
  2  3  1  0  0  0  0
  3  4  2  0  0  0  0
  4  5  1  0  0  0  0
  5  6  1  0  0  0  0
  6  1  1  0  0  0  0
  1  7  2  0  0  0  0
  7  8  1  0  0  0  0
  8  9  1  0  0  0  0
  9  2  1  0  0  0  0
 12 10  1  0  0  0  0
  3 12  1  0  0  0  0
 12 11  2  0  0  0  0
  7 13  1  0  0  0  0
  6 14  1  6  0  0  0
 15 14  1  1  0  0  0
 15 16  1  0  0  0  0
 16 17  1  0  0  0  0
 17 18  1  0  0  0  0
 18 19  1  0  0  0  0
 19 20  1  0  0  0  0
 20 15  1  0  0  0  0
 17 21  1  1  0  0  0
 21 22  1  0  0  0  0
 18 23  1  6  0  0  0
 24 25  1  0  0  0  0
 25 22  1  1  0  0  0
 24 26  1  0  0  0  0
 26 27  1  0  0  0  0
 27 28  1  0  0  0  0
 28 29  1  0  0  0  0
 29 25  1  0  0  0  0
 19 30  1  1  0  0  0
 28 31  1  1  0  0  0
 27 32  1  1  0  0  0
 29 33  1  6  0  0  0
 20 34  1  6  0  0  0
  2 35  1  6  0  0  0
 13 36  1  0  0  0  0
 36 37  1  0  0  0  0
 37 38  1  0  0  0  0
 37 39  2  0  0  0  0
 38 40  2  0  0  0  0
 40 41  1  0  0  0  0
 41 42  2  0  0  0  0
 42 43  1  0  0  0  0
 43 44  2  0  0  0  0
 44 38  1  0  0  0  0
M  END
>  <cdx:fragmentId>
5

$$$$
