93318.cdx
  Mrv1902 05222410272D          

 13 13  0  0  0  0            999 V2000
    4.7618   -5.8070    0.0000 C   0  0  0  0  0  0  0  0  0  0  0  0
    4.9560   -6.6089    0.0000 C   0  0  0  0  0  0  0  0  0  0  0  0
    5.7040   -6.9569    0.0000 C   0  0  0  0  0  0  0  0  0  0  0  0
    6.4425   -6.5891    0.0000 C   0  0  0  0  0  0  0  0  0  0  0  0
    6.6154   -5.7824    0.0000 C   0  0  0  0  0  0  0  0  0  0  0  0
    6.0924   -5.1443    0.0000 C   0  0  1  0  0  0  0  0  0  0  0  0
    5.2675   -5.1553    0.0000 C   0  0  2  0  0  0  0  0  0  0  0  0
    5.7150   -7.7818    0.0000 C   0  0  0  0  0  0  0  0  0  0  0  0
    5.0060   -8.2038    0.0000 O   0  0  0  0  0  0  0  0  0  0  0  0
    6.4349   -8.1848    0.0000 O   0  0  0  0  0  0  0  0  0  0  0  0
    4.8997   -4.4168    0.0000 C   0  0  0  0  0  0  0  0  0  0  0  0
    6.8069   -4.7318    0.0000 O   0  0  0  0  0  0  0  0  0  0  0  0
    6.0924   -4.3193    0.0000 C   0  0  0  0  0  0  0  0  0  0  0  0
  1  2  1  0  0  0  0
  2  3  2  0  0  0  0
  3  4  1  0  0  0  0
  4  5  1  0  0  0  0
  5  6  1  0  0  0  0
  6  7  1  0  0  0  0
  7  1  1  0  0  0  0
  3  8  1  0  0  0  0
  8  9  1  0  0  0  0
  8 10  2  0  0  0  0
  7 11  1  1  0  0  0
  6 12  1  1  0  0  0
  6 13  1  6  0  0  0
M  END
>  <cdx:fragmentId>
5

$$$$
