93315.cdx
  Mrv1902 05222410192D          

 21 24  0  0  0  0            999 V2000
    7.8537  -12.2287    0.0000 C   0  0  0  0  0  0  0  0  0  0  0  0
    7.3527  -11.0193    0.0000 C   0  0  0  0  0  0  0  0  0  0  0  0
    8.0672  -11.4318    0.0000 C   0  0  0  0  0  0  0  0  0  0  0  0
    8.8922  -11.4318    0.0000 O   0  0  0  0  0  0  0  0  0  0  0  0
    8.4797  -10.7173    0.0000 C   0  0  1  0  0  0  0  0  0  0  0  0
    8.4797   -9.8923    0.0000 C   0  0  0  0  0  0  0  0  0  0  0  0
    7.7652   -9.4798    0.0000 O   0  0  0  0  0  0  0  0  0  0  0  0
    4.9073   -7.0048    0.0000 O   0  0  0  0  0  0  0  0  0  0  0  0
    9.2643   -8.4972    0.0000 C   0  0  0  0  0  0  0  0  0  0  0  0
    9.7492   -7.8298    0.0000 C   0  0  0  0  0  0  0  0  0  0  0  0
    9.2643   -7.1624    0.0000 O   0  0  0  0  0  0  0  0  0  0  0  0
    7.7652   -8.6548    0.0000 C   0  0  0  0  0  0  0  0  0  0  0  0
    8.4797   -8.2423    0.0000 C   0  0  0  0  0  0  0  0  0  0  0  0
    8.4797   -7.4173    0.0000 C   0  0  0  0  0  0  0  0  0  0  0  0
    7.7652   -7.0048    0.0000 C   0  0  0  0  0  0  0  0  0  0  0  0
    6.3363   -8.6548    0.0000 C   0  0  0  0  0  0  0  0  0  0  0  0
    7.0507   -8.2423    0.0000 C   0  0  0  0  0  0  0  0  0  0  0  0
    7.0507   -7.4173    0.0000 C   0  0  0  0  0  0  0  0  0  0  0  0
    6.3363   -7.0048    0.0000 O   0  0  0  0  0  0  0  0  0  0  0  0
    5.6218   -7.4173    0.0000 C   0  0  0  0  0  0  0  0  0  0  0  0
    5.6218   -8.2423    0.0000 C   0  0  0  0  0  0  0  0  0  0  0  0
  3  1  1  0  0  0  0
  3  2  1  0  0  0  0
  3  5  1  0  0  0  0
  4  3  1  0  0  0  0
  5  4  1  0  0  0  0
  5  6  1  6  0  0  0
  7  6  1  0  0  0  0
 12  7  1  0  0  0  0
 20  8  2  0  0  0  0
  9 13  1  0  0  0  0
 10  9  2  0  0  0  0
 11 10  1  0  0  0  0
 14 11  1  0  0  0  0
 12 17  1  0  0  0  0
 13 12  2  0  0  0  0
 14 13  1  0  0  0  0
 15 14  2  0  0  0  0
 18 15  1  0  0  0  0
 16 21  2  0  0  0  0
 17 16  1  0  0  0  0
 18 17  2  0  0  0  0
 19 18  1  0  0  0  0
 20 19  1  0  0  0  0
 21 20  1  0  0  0  0
M  END
>  <cdx:fragmentId>
5

$$$$
