93310.cdx
  Mrv1902 05222410192D          

135147  0  0  0  0            999 V2000
    9.3853  -10.3392    0.0000 C   0  0  0  0  0  0  0  0  0  0  0  0
    8.6715  -10.7529    0.0000 C   0  0  1  0  0  0  0  0  0  0  0  0
    8.6729  -11.5779    0.0000 C   0  0  1  0  0  0  0  0  0  0  0  0
    9.3881  -11.9892    0.0000 C   0  0  1  0  0  0  0  0  0  0  0  0
   10.1019  -11.5755    0.0000 C   0  0  2  0  0  0  0  0  0  0  0  0
   10.8170  -11.9868    0.0000 C   0  0  0  0  0  0  0  0  0  0  0  0
   11.5308  -11.5731    0.0000 C   0  0  0  0  0  0  0  0  0  0  0  0
   11.5294  -10.7481    0.0000 C   0  0  1  0  0  0  0  0  0  0  0  0
   12.2432  -10.3344    0.0000 C   0  0  2  0  0  0  0  0  0  0  0  0
   12.9584  -10.7457    0.0000 C   0  0  0  0  0  0  0  0  0  0  0  0
   13.6721  -10.3320    0.0000 C   0  0  0  0  0  0  0  0  0  0  0  0
   13.6707   -9.5070    0.0000 C   0  0  1  0  0  0  0  0  0  0  0  0
   14.3845   -9.0933    0.0000 C   0  0  0  0  0  0  0  0  0  0  0  0
   14.3831   -8.2683    0.0000 C   0  0  0  0  0  0  0  0  0  0  0  0
   13.6680   -7.8570    0.0000 C   0  0  0  0  0  0  0  0  0  0  0  0
   12.9542   -8.2707    0.0000 C   0  0  0  0  0  0  0  0  0  0  0  0
   12.9556   -9.0957    0.0000 C   0  0  1  0  0  0  0  0  0  0  0  0
   12.2418   -9.5094    0.0000 C   0  0  0  0  0  0  0  0  0  0  0  0
   11.5266   -9.0981    0.0000 C   0  0  0  0  0  0  0  0  0  0  0  0
   10.8129   -9.5118    0.0000 C   0  0  0  0  0  0  0  0  0  0  0  0
   10.8142  -10.3368    0.0000 C   0  0  2  0  0  0  0  0  0  0  0  0
   10.1005  -10.7505    0.0000 C   0  0  1  0  0  0  0  0  0  0  0  0
    7.9591  -11.9916    0.0000 O   0  0  0  0  0  0  0  0  0  0  0  0
    7.2426  -10.7553    0.0000 O   0  0  0  0  0  0  0  0  0  0  0  0
    7.2440  -11.5803    0.0000 C   0  0  2  0  0  0  0  0  0  0  0  0
    6.5302  -11.9940    0.0000 C   0  0  1  0  0  0  0  0  0  0  0  0
    5.8150  -11.5827    0.0000 C   0  0  2  0  0  0  0  0  0  0  0  0
    5.8137  -10.7577    0.0000 C   0  0  1  0  0  0  0  0  0  0  0  0
    6.5274  -10.3440    0.0000 C   0  0  1  0  0  0  0  0  0  0  0  0
    6.5260   -9.5190    0.0000 C   0  0  0  0  0  0  0  0  0  0  0  0
    5.8109   -9.1078    0.0000 O   0  0  0  0  0  0  0  0  0  0  0  0
    5.0985  -10.3464    0.0000 O   0  0  0  0  0  0  0  0  0  0  0  0
    5.1013  -11.9964    0.0000 O   0  0  0  0  0  0  0  0  0  0  0  0
    6.5316  -12.8190    0.0000 O   0  0  0  0  0  0  0  0  0  0  0  0
   10.0991   -9.9255    0.0000 C   0  0  0  0  0  0  0  0  0  0  0  0
   13.2543   -7.1433    0.0000 C   0  0  0  0  0  0  0  0  0  0  0  0
   14.0793   -7.1419    0.0000 C   0  0  0  0  0  0  0  0  0  0  0  0
   11.5280   -9.9231    0.0000 C   0  0  0  0  0  0  0  0  0  0  0  0
    8.9756  -12.7037    0.0000 C   0  0  0  0  0  0  0  0  0  0  0  0
   12.2446  -11.1594    0.0000 C   0  0  0  0  0  0  0  0  0  0  0  0
   12.9597  -11.5707    0.0000 O   0  0  0  0  0  0  0  0  0  0  0  0
    7.9564  -10.3416    0.0000 O   0  0  0  0  0  0  0  0  0  0  0  0
   14.3859   -9.9183    0.0000 C   0  0  0  0  0  0  0  0  0  0  0  0
   14.3873  -10.7433    0.0000 O   0  0  0  0  0  0  0  0  0  0  0  0
   15.0997   -9.5046    0.0000 O   0  0  0  0  0  0  0  0  0  0  0  0
   15.8162  -10.7409    0.0000 O   0  0  0  0  0  0  0  0  0  0  0  0
   15.8148   -9.9159    0.0000 C   0  0  2  0  0  0  0  0  0  0  0  0
   16.5286   -9.5022    0.0000 C   0  0  1  0  0  0  0  0  0  0  0  0
   17.2438   -9.9135    0.0000 C   0  0  2  0  0  0  0  0  0  0  0  0
   17.2452  -10.7385    0.0000 C   0  0  2  0  0  0  0  0  0  0  0  0
   16.5314  -11.1522    0.0000 C   0  0  1  0  0  0  0  0  0  0  0  0
   17.9576   -9.4998    0.0000 O   0  0  0  0  0  0  0  0  0  0  0  0
   16.5328  -11.9772    0.0000 C   0  0  0  0  0  0  0  0  0  0  0  0
   15.0784  -16.0867    0.0000 C   0  0  0  0  0  0  0  0  0  0  0  0
   14.3804  -12.3694    0.0000 C   0  0  0  0  0  0  0  0  0  0  0  0
   14.3777  -13.1944    0.0000 O   0  0  0  0  0  0  0  0  0  0  0  0
   15.7942  -15.6765    0.0000 O   0  0  0  0  0  0  0  0  0  0  0  0
   16.5264   -8.6497    0.0000 O   0  0  0  0  0  0  0  0  0  0  0  0
   17.7466   -7.9062    0.0000 O   0  0  0  0  0  0  0  0  0  0  0  0
   16.9219   -7.9257    0.0000 C   0  0  2  0  0  0  0  0  0  0  0  0
   16.4926   -7.2212    0.0000 C   0  0  1  0  0  0  0  0  0  0  0  0
   16.8880   -6.4972    0.0000 C   0  0  1  0  0  0  0  0  0  0  0  0
   17.7128   -6.4776    0.0000 C   0  0  2  0  0  0  0  0  0  0  0  0
   18.1421   -7.1821    0.0000 C   0  0  2  0  0  0  0  0  0  0  0  0
   18.9669   -7.1626    0.0000 C   0  0  0  0  0  0  0  0  0  0  0  0
   16.4587   -5.7927    0.0000 O   0  0  0  0  0  0  0  0  0  0  0  0
   15.6678   -7.2407    0.0000 O   0  0  0  0  0  0  0  0  0  0  0  0
   18.1083   -5.7536    0.0000 O   0  0  0  0  0  0  0  0  0  0  0  0
   19.3623   -6.4386    0.0000 O   0  0  0  0  0  0  0  0  0  0  0  0
   18.9330   -5.7341    0.0000 C   0  0  2  0  0  0  0  0  0  0  0  0
   19.3285   -5.0100    0.0000 C   0  0  1  0  0  0  0  0  0  0  0  0
   20.1533   -4.9905    0.0000 C   0  0  2  0  0  0  0  0  0  0  0  0
   20.5826   -5.6950    0.0000 C   0  0  1  0  0  0  0  0  0  0  0  0
   20.1871   -6.4190    0.0000 C   0  0  0  0  0  0  0  0  0  0  0  0
   20.5487   -4.2664    0.0000 O   0  0  0  0  0  0  0  0  0  0  0  0
   18.8992   -4.3055    0.0000 O   0  0  0  0  0  0  0  0  0  0  0  0
   10.1032  -12.4005    0.0000 H   0  0  0  0  0  0  0  0  0  0  0  0
   12.2411   -8.6832    0.0000 H   0  0  0  0  0  0  0  0  0  0  0  0
   10.8156  -11.1618    0.0000 H   0  0  0  0  0  0  0  0  0  0  0  0
   13.6570  -14.4283    0.0000 C   0  0  0  0  0  0  0  0  0  0  0  0
   14.3694  -14.8444    0.0000 O   0  0  0  0  0  0  0  0  0  0  0  0
   16.5149  -14.4426    0.0000 C   0  0  0  0  0  0  0  0  0  0  0  0
   15.7984  -14.8516    0.0000 C   0  0  0  0  0  0  0  0  0  0  0  0
   15.0860  -14.4355    0.0000 C   0  0  0  0  0  0  0  0  0  0  0  0
   21.4073   -5.6754    0.0000 O   0  0  0  0  0  0  0  0  0  0  0  0
    9.8006  -12.7037    0.0000 C   0  0  0  0  0  0  0  0  0  0  0  0
    9.3881  -13.4182    0.0000 O   0  0  0  0  0  0  0  0  0  0  0  0
   10.6256  -12.7037    0.0000 O   0  0  0  0  0  0  0  0  0  0  0  0
   15.0901  -13.6105    0.0000 C   0  0  0  0  0  0  0  0  0  0  0  0
   15.8066  -13.2016    0.0000 C   0  0  0  0  0  0  0  0  0  0  0  0
   16.5190  -13.6176    0.0000 C   0  0  0  0  0  0  0  0  0  0  0  0
   18.6686  -12.3909    0.0000 O   0  0  0  0  0  0  0  0  0  0  0  0
   17.2355  -13.2087    0.0000 C   0  0  0  0  0  0  0  0  0  0  0  0
   17.2397  -12.3837    0.0000 C   0  0  0  0  0  0  0  0  0  0  0  0
   17.9562  -11.9748    0.0000 C   0  0  0  0  0  0  0  0  0  0  0  0
   17.9603  -11.1498    0.0000 O   0  0  0  0  0  0  0  0  0  0  0  0
   15.6711   -5.5473    0.0000 C   0  0  2  0  0  0  0  0  0  0  0  0
   15.4066   -4.7658    0.0000 O   0  0  0  0  0  0  0  0  0  0  0  0
   14.5817   -4.7758    0.0000 C   0  0  0  0  0  0  0  0  0  0  0  0
   14.3363   -5.5635    0.0000 C   0  0  2  0  0  0  0  0  0  0  0  0
   15.0096   -6.0403    0.0000 C   0  0  1  0  0  0  0  0  0  0  0  0
   15.0196   -6.8652    0.0000 O   0  0  0  0  0  0  0  0  0  0  0  0
   13.6218   -5.9760    0.0000 O   0  0  0  0  0  0  0  0  0  0  0  0
   21.3735   -4.2469    0.0000 C   0  0  2  0  0  0  0  0  0  0  0  0
   21.7873   -4.9606    0.0000 O   0  0  0  0  0  0  0  0  0  0  0  0
   22.6123   -4.9606    0.0000 C   0  0  0  0  0  0  0  0  0  0  0  0
   23.0235   -4.2469    0.0000 C   0  0  1  0  0  0  0  0  0  0  0  0
   22.6123   -3.5332    0.0000 C   0  0  1  0  0  0  0  0  0  0  0  0
   21.7873   -3.5332    0.0000 C   0  0  1  0  0  0  0  0  0  0  0  0
   21.3755   -2.8183    0.0000 O   0  0  0  0  0  0  0  0  0  0  0  0
   23.0252   -2.8189    0.0000 O   0  0  0  0  0  0  0  0  0  0  0  0
   23.8485   -4.2469    0.0000 O   0  0  0  0  0  0  0  0  0  0  0  0
   13.6218   -5.1510    0.0000 C   0  0  0  0  0  0  0  0  0  0  0  0
   12.9073   -5.5635    0.0000 O   0  0  0  0  0  0  0  0  0  0  0  0
   18.6727   -9.9111    0.0000 C   0  0  2  0  0  0  0  0  0  0  0  0
   18.6748  -10.7361    0.0000 O   0  0  0  0  0  0  0  0  0  0  0  0
   19.3903  -11.1468    0.0000 C   0  0  1  0  0  0  0  0  0  0  0  0
   20.1037  -10.7361    0.0000 C   0  0  2  0  0  0  0  0  0  0  0  0
   20.1037   -9.9111    0.0000 C   0  0  1  0  0  0  0  0  0  0  0  0
   19.3903   -9.5004    0.0000 C   0  0  1  0  0  0  0  0  0  0  0  0
   20.8180  -11.1491    0.0000 O   0  0  0  0  0  0  0  0  0  0  0  0
   20.8180   -9.4982    0.0000 O   0  0  0  0  0  0  0  0  0  0  0  0
   19.3914   -8.6754    0.0000 O   0  0  0  0  0  0  0  0  0  0  0  0
   19.3908  -11.9718    0.0000 C   0  0  0  0  0  0  0  0  0  0  0  0
   20.1056  -12.3839    0.0000 O   0  0  0  0  0  0  0  0  0  0  0  0
   12.1929   -5.1510    0.0000 C   0  0  0  0  0  0  0  0  0  0  0  0
   11.4784   -5.5635    0.0000 C   0  0  0  0  0  0  0  0  0  0  0  0
   12.1929   -4.3260    0.0000 O   0  0  0  0  0  0  0  0  0  0  0  0
   10.7639   -5.1510    0.0000 C   0  0  0  0  0  0  0  0  0  0  0  0
   10.0495   -5.5635    0.0000 C   0  0  0  0  0  0  0  0  0  0  0  0
    9.3350   -5.1510    0.0000 C   0  0  0  0  0  0  0  0  0  0  0  0
    8.6205   -5.5635    0.0000 O   0  0  0  0  0  0  0  0  0  0  0  0
    9.3350   -4.3260    0.0000 O   0  0  0  0  0  0  0  0  0  0  0  0
   10.3514   -4.4365    0.0000 C   0  0  0  0  0  0  0  0  0  0  0  0
   11.1764   -4.4365    0.0000 O   0  0  0  0  0  0  0  0  0  0  0  0
 57 54  1  0  0  0  0
 56 55  1  0  0  0  0
 89 56  1  0  0  0  0
 83 57  1  0  0  0  0
 96 95  1  0  0  0  0
 93 91  1  0  0  0  0
 84 81  1  0  0  0  0
 81 80  1  0  0  0  0
 91 82  2  0  0  0  0
  1  2  1  0  0  0  0
  2  3  1  0  0  0  0
  3  4  1  0  0  0  0
  4  5  1  0  0  0  0
  5  6  1  0  0  0  0
  6  7  1  0  0  0  0
  7  8  1  0  0  0  0
  8  9  1  0  0  0  0
  9 10  1  0  0  0  0
 10 11  1  0  0  0  0
 11 12  1  0  0  0  0
 12 13  1  0  0  0  0
 13 14  1  0  0  0  0
 14 15  1  0  0  0  0
 15 16  1  0  0  0  0
 16 17  1  0  0  0  0
 12 17  1  0  0  0  0
 17 18  1  0  0  0  0
  9 18  1  0  0  0  0
 18 19  2  0  0  0  0
 19 20  1  0  0  0  0
 20 21  1  0  0  0  0
  8 21  1  0  0  0  0
 21 22  1  0  0  0  0
  5 22  1  0  0  0  0
  1 22  1  0  0  0  0
 24 25  1  0  0  0  0
 25 26  1  0  0  0  0
 26 27  1  0  0  0  0
 27 28  1  0  0  0  0
 28 29  1  0  0  0  0
 24 29  1  0  0  0  0
 30 31  1  0  0  0  0
 29 30  1  1  0  0  0
 28 32  1  6  0  0  0
 27 33  1  1  0  0  0
 26 34  1  6  0  0  0
 25 23  1  1  0  0  0
  3 23  1  1  0  0  0
 22 35  1  1  0  0  0
 15 36  1  0  0  0  0
 15 37  1  0  0  0  0
  8 38  1  1  0  0  0
  4 39  1  1  0  0  0
 40 41  1  0  0  0  0
  9 40  1  6  0  0  0
  2 42  1  1  0  0  0
 43 44  2  0  0  0  0
 46 47  1  0  0  0  0
 47 48  1  0  0  0  0
 48 49  1  0  0  0  0
 49 50  1  0  0  0  0
 50 51  1  0  0  0  0
 46 51  1  0  0  0  0
 49 52  1  1  0  0  0
 51 53  1  1  0  0  0
 83 82  1  0  0  0  0
 84 83  2  0  0  0  0
 89 84  1  0  0  0  0
 90 89  2  0  0  0  0
 91 90  1  0  0  0  0
 95 92  2  0  0  0  0
 94 93  2  0  0  0  0
 95 94  1  0  0  0  0
 50 96  1  1  0  0  0
 59 60  1  0  0  0  0
 60 61  1  0  0  0  0
 61 62  1  0  0  0  0
 62 63  1  0  0  0  0
 63 64  1  0  0  0  0
 59 64  1  0  0  0  0
 64 65  1  6  0  0  0
 62 66  1  6  0  0  0
 61 67  1  6  0  0  0
 69 70  1  0  0  0  0
 70 71  1  0  0  0  0
 71 72  1  0  0  0  0
 72 73  1  0  0  0  0
 73 74  1  0  0  0  0
 69 74  1  0  0  0  0
 73 85  1  6  0  0  0
 72 75  1  1  0  0  0
 71 76  1  6  0  0  0
 70 68  1  1  0  0  0
 63 68  1  1  0  0  0
 60 58  1  1  0  0  0
 48 58  1  6  0  0  0
 47 45  1  1  0  0  0
 43 45  1  0  0  0  0
 12 43  1  1  0  0  0
  5 77  1  6  0  0  0
 17 78  1  1  0  0  0
 21 79  1  6  0  0  0
  4 86  1  0  0  0  0
 86 87  2  0  0  0  0
 86 88  1  0  0  0  0
 97 66  1  1  0  0  0
 97 98  1  0  0  0  0
 98 99  1  0  0  0  0
 99100  1  0  0  0  0
100101  1  0  0  0  0
101 97  1  0  0  0  0
101102  1  6  0  0  0
100103  1  6  0  0  0
104 75  1  1  0  0  0
104105  1  0  0  0  0
105106  1  0  0  0  0
106107  1  0  0  0  0
107108  1  0  0  0  0
108109  1  0  0  0  0
109104  1  0  0  0  0
109110  1  6  0  0  0
108111  1  1  0  0  0
107112  1  1  0  0  0
100113  1  1  0  0  0
113114  1  0  0  0  0
115 52  1  1  0  0  0
115116  1  0  0  0  0
116117  1  0  0  0  0
117118  1  0  0  0  0
118119  1  0  0  0  0
119120  1  0  0  0  0
120115  1  0  0  0  0
118121  1  6  0  0  0
119122  1  1  0  0  0
120123  1  6  0  0  0
117124  1  1  0  0  0
124125  1  0  0  0  0
114126  1  0  0  0  0
126127  1  0  0  0  0
126128  2  0  0  0  0
127129  1  0  0  0  0
129130  1  0  0  0  0
130131  1  0  0  0  0
131132  1  0  0  0  0
131133  2  0  0  0  0
129134  1  0  0  0  0
129135  1  0  0  0  0
M  END
>  <cdx:fragmentId>
140680

$$$$
