93327.cdx
  Mrv1902 05222410262D          

 23 25  0  0  0  0            999 V2000
    4.7831   -8.4288    0.0000 C   0  0  0  0  0  0  0  0  0  0  0  0
    4.7831   -9.2538    0.0000 C   0  0  0  0  0  0  0  0  0  0  0  0
    5.4975   -9.6662    0.0000 C   0  0  1  0  0  0  0  0  0  0  0  0
    6.2120   -9.2538    0.0000 C   0  0  0  0  0  0  0  0  0  0  0  0
    6.2120   -8.4288    0.0000 C   0  0  2  0  0  0  0  0  0  0  0  0
    5.4975   -8.0162    0.0000 C   0  0  0  0  0  0  0  0  0  0  0  0
    6.9265   -9.6662    0.0000 C   0  0  0  0  0  0  0  0  0  0  0  0
    7.6409   -9.2538    0.0000 C   0  0  0  0  0  0  0  0  0  0  0  0
    7.6409   -8.4288    0.0000 C   0  0  0  0  0  0  0  0  0  0  0  0
    6.9265   -8.0162    0.0000 C   0  0  0  0  0  0  0  0  0  0  0  0
    8.3554   -8.0162    0.0000 C   0  0  2  0  0  0  0  0  0  0  0  0
    8.3554   -7.1913    0.0000 C   0  0  2  0  0  0  0  0  0  0  0  0
    7.6409   -6.7788    0.0000 C   0  0  0  0  0  0  0  0  0  0  0  0
    6.9265   -7.1913    0.0000 C   0  0  0  0  0  0  0  0  0  0  0  0
    9.0699   -8.4288    0.0000 O   0  0  0  0  0  0  0  0  0  0  0  0
    9.7844   -7.1913    0.0000 C   0  0  0  0  0  0  0  0  0  0  0  0
    9.0699   -6.7788    0.0000 C   0  0  0  0  0  0  0  0  0  0  0  0
    4.0686   -9.6662    0.0000 O   0  0  0  0  0  0  0  0  0  0  0  0
    4.0686   -8.0162    0.0000 O   0  0  0  0  0  0  0  0  0  0  0  0
    5.0850  -10.3807    0.0000 C   0  0  0  0  0  0  0  0  0  0  0  0
    6.2120   -7.6037    0.0000 C   0  0  0  0  0  0  0  0  0  0  0  0
    8.3554   -6.3662    0.0000 C   0  0  0  0  0  0  0  0  0  0  0  0
    5.9100  -10.3807    0.0000 C   0  0  0  0  0  0  0  0  0  0  0  0
  1  2  1  0  0  0  0
  2  3  1  0  0  0  0
  3  4  1  0  0  0  0
  4  5  1  0  0  0  0
  5  6  1  0  0  0  0
  6  1  2  0  0  0  0
  4  7  1  0  0  0  0
  7  8  1  0  0  0  0
  8  9  2  0  0  0  0
  9 10  1  0  0  0  0
 10  5  1  0  0  0  0
  9 11  1  0  0  0  0
 11 12  1  0  0  0  0
 12 13  1  0  0  0  0
 13 14  1  0  0  0  0
 14 10  1  0  0  0  0
 11 15  1  6  0  0  0
 16 17  2  0  0  0  0
 12 17  1  6  0  0  0
  2 18  2  0  0  0  0
  1 19  1  0  0  0  0
  3 20  1  1  0  0  0
  5 21  1  1  0  0  0
 12 22  1  1  0  0  0
  3 23  1  6  0  0  0
M  END
>  <cdx:fragmentId>
5

$$$$
