93324.cdx
  Mrv1902 05222410272D          

 48 54  0  0  0  0            999 V2000
    7.3166  -11.7712    0.0000 H   0  0  0  0  0  0  0  0  0  0  0  0
    6.5966  -13.0067    0.0000 H   0  0  0  0  0  0  0  0  0  0  0  0
    8.6961  -11.8473    0.0000 H   0  0  0  0  0  0  0  0  0  0  0  0
    9.0570  -11.5247    0.0000 H   0  0  0  0  0  0  0  0  0  0  0  0
    9.3586   -7.3427    0.0000 H   0  0  0  0  0  0  0  0  0  0  0  0
    7.8985   -9.3411    0.0000 H   0  0  0  0  0  0  0  0  0  0  0  0
    8.7705   -5.7935    0.0000 C   0  0  0  0  0  0  0  0  0  0  0  0
   10.9015   -9.0253    0.0000 C   0  0  0  0  0  0  0  0  0  0  0  0
    6.6010  -10.5318    0.0000 C   0  0  0  0  0  0  0  0  0  0  0  0
    4.4543  -12.5885    0.0000 O   0  0  0  0  0  0  0  0  0  0  0  0
    7.3100  -13.4212    0.0000 O   0  0  0  0  0  0  0  0  0  0  0  0
    7.4903  -10.1397    0.0000 C   0  0  0  0  0  0  0  0  0  0  0  0
    7.3166  -10.9462    0.0000 C   0  0  2  0  0  0  0  0  0  0  0  0
    6.6010  -11.3568    0.0000 C   0  0  2  0  0  0  0  0  0  0  0  0
    5.8877  -10.9423    0.0000 C   0  0  0  0  0  0  0  0  0  0  0  0
    5.1721  -11.3529    0.0000 C   0  0  0  0  0  0  0  0  0  0  0  0
    5.1699  -12.1779    0.0000 C   0  0  1  0  0  0  0  0  0  0  0  0
    5.8832  -12.5923    0.0000 C   0  0  0  0  0  0  0  0  0  0  0  0
    6.5988  -12.1817    0.0000 C   0  0  2  0  0  0  0  0  0  0  0  0
    7.3122  -12.5962    0.0000 C   0  0  0  0  0  0  0  0  0  0  0  0
    8.0277  -12.1856    0.0000 C   0  0  0  0  0  0  0  0  0  0  0  0
    8.0300  -11.3606    0.0000 C   0  0  1  0  0  0  0  0  0  0  0  0
    8.6445  -10.8102    0.0000 C   0  0  2  0  0  0  0  0  0  0  0  0
    9.4648  -10.8986    0.0000 C   0  0  0  0  0  0  0  0  0  0  0  0
    9.9515  -10.2325    0.0000 C   0  0  0  0  0  0  0  0  0  0  0  0
    9.6179   -9.4779    0.0000 C   0  0  0  0  0  0  0  0  0  0  0  0
   10.1046   -8.8118    0.0000 C   0  0  2  0  0  0  0  0  0  0  0  0
    9.7711   -8.0572    0.0000 C   0  0  2  0  0  0  0  0  0  0  0  0
   10.2578   -7.3911    0.0000 C   0  0  0  0  0  0  0  0  0  0  0  0
    9.9243   -6.6365    0.0000 C   0  0  0  0  0  0  0  0  0  0  0  0
    9.1040   -6.5481    0.0000 C   0  0  1  0  0  0  0  0  0  0  0  0
    8.6173   -7.2142    0.0000 C   0  0  0  0  0  0  0  0  0  0  0  0
    8.9509   -7.9688    0.0000 N   0  0  0  0  0  0  0  0  0  0  0  0
    8.4642   -8.6349    0.0000 C   0  0  0  0  0  0  0  0  0  0  0  0
    8.7977   -9.3895    0.0000 C   0  0  0  0  0  0  0  0  0  0  0  0
    8.3110  -10.0556    0.0000 C   0  0  2  0  0  0  0  0  0  0  0  0
    3.7409  -12.1741    0.0000 C   0  0  2  0  0  0  0  0  0  0  0  0
    3.7442  -11.3491    0.0000 O   0  0  0  0  0  0  0  0  0  0  0  0
    3.0314  -10.9337    0.0000 C   0  0  1  0  0  0  0  0  0  0  0  0
    2.3153  -11.3491    0.0000 C   0  0  2  0  0  0  0  0  0  0  0  0
    2.3153  -12.1741    0.0000 C   0  0  1  0  0  0  0  0  0  0  0  0
    3.0314  -12.5895    0.0000 C   0  0  1  0  0  0  0  0  0  0  0  0
    3.0323  -10.1087    0.0000 C   0  0  0  0  0  0  0  0  0  0  0  0
    1.6004  -12.5859    0.0000 O   0  0  0  0  0  0  0  0  0  0  0  0
    3.0331  -13.4145    0.0000 O   0  0  0  0  0  0  0  0  0  0  0  0
    1.6004  -10.9373    0.0000 O   0  0  0  0  0  0  0  0  0  0  0  0
    2.3182   -9.6955    0.0000 O   0  0  0  0  0  0  0  0  0  0  0  0
   10.8191   -8.3993    0.0000 O   0  0  0  0  0  0  0  0  0  0  0  0
 13  1  1  6  0  0  0
 19  2  1  6  0  0  0
 22  3  1  1  0  0  0
 23  4  1  6  0  0  0
 28  5  1  6  0  0  0
 36  6  1  6  0  0  0
 31  7  1  1  0  0  0
 27  8  1  6  0  0  0
 14  9  1  1  0  0  0
 17 10  1  1  0  0  0
 20 11  2  0  0  0  0
 33 28  1  0  0  0  0
 35 26  2  0  0  0  0
 19 14  1  0  0  0  0
 22 13  1  0  0  0  0
 36 23  1  0  0  0  0
 36 12  1  0  0  0  0
 13 12  1  0  0  0  0
 14 13  1  0  0  0  0
 15 14  1  0  0  0  0
 16 15  1  0  0  0  0
 17 16  1  0  0  0  0
 18 17  1  0  0  0  0
 19 18  1  0  0  0  0
 20 19  1  0  0  0  0
 21 20  1  0  0  0  0
 22 21  1  0  0  0  0
 23 22  1  0  0  0  0
 24 23  1  0  0  0  0
 25 24  1  0  0  0  0
 26 25  1  0  0  0  0
 27 26  1  0  0  0  0
 28 27  1  0  0  0  0
 29 28  1  0  0  0  0
 30 29  1  0  0  0  0
 31 30  1  0  0  0  0
 32 31  1  0  0  0  0
 33 32  1  0  0  0  0
 34 33  1  0  0  0  0
 35 34  1  0  0  0  0
 36 35  1  0  0  0  0
 37 10  1  1  0  0  0
 37 38  1  0  0  0  0
 38 39  1  0  0  0  0
 39 40  1  0  0  0  0
 40 41  1  0  0  0  0
 41 42  1  0  0  0  0
 42 37  1  0  0  0  0
 39 43  1  1  0  0  0
 41 44  1  1  0  0  0
 42 45  1  6  0  0  0
 40 46  1  6  0  0  0
 43 47  1  0  0  0  0
 27 48  1  1  0  0  0
M  END
>  <cdx:fragmentId>
239192

$$$$
