93322.cdx
  Mrv1902 05222410282D          

 50 56  0  0  0  0            999 V2000
    7.2440  -10.3215    0.0000 H   0  0  0  0  0  0  0  0  0  0  0  0
    6.5190  -11.5553    0.0000 H   0  0  0  0  0  0  0  0  0  0  0  0
    8.5397  -10.4961    0.0000 H   0  0  0  0  0  0  0  0  0  0  0  0
    8.9848  -10.0783    0.0000 H   0  0  0  0  0  0  0  0  0  0  0  0
    9.1365   -7.3195    0.0000 H   0  0  0  0  0  0  0  0  0  0  0  0
    9.2932   -5.8992    0.0000 H   0  0  0  0  0  0  0  0  0  0  0  0
    9.1415   -8.6580    0.0000 H   0  0  0  0  0  0  0  0  0  0  0  0
    7.8281   -7.8940    0.0000 H   0  0  0  0  0  0  0  0  0  0  0  0
    8.7107   -4.3475    0.0000 C   0  0  0  0  0  0  0  0  0  0  0  0
   10.8343   -7.5826    0.0000 C   0  0  0  0  0  0  0  0  0  0  0  0
    6.5275   -9.0804    0.0000 C   0  0  0  0  0  0  0  0  0  0  0  0
    4.3777  -11.1318    0.0000 O   0  0  0  0  0  0  0  0  0  0  0  0
    7.2313  -11.9715    0.0000 O   0  0  0  0  0  0  0  0  0  0  0  0
   10.7518   -6.9566    0.0000 O   0  0  0  0  0  0  0  0  0  0  0  0
    7.4197   -8.6905    0.0000 C   0  0  0  0  0  0  0  0  0  0  0  0
    7.2440   -9.4965    0.0000 C   0  0  2  0  0  0  0  0  0  0  0  0
    6.5275   -9.9054    0.0000 C   0  0  2  0  0  0  0  0  0  0  0  0
    5.8151   -9.4892    0.0000 C   0  0  0  0  0  0  0  0  0  0  0  0
    5.0985   -9.8980    0.0000 C   0  0  0  0  0  0  0  0  0  0  0  0
    5.0943  -10.7230    0.0000 C   0  0  1  0  0  0  0  0  0  0  0  0
    5.8066  -11.1392    0.0000 C   0  0  0  0  0  0  0  0  0  0  0  0
    6.5232  -10.7303    0.0000 C   0  0  2  0  0  0  0  0  0  0  0  0
    7.2355  -11.1465    0.0000 C   0  0  0  0  0  0  0  0  0  0  0  0
    7.9521  -10.7377    0.0000 C   0  0  0  0  0  0  0  0  0  0  0  0
    7.9564   -9.9127    0.0000 C   0  0  1  0  0  0  0  0  0  0  0  0
    8.5723   -9.3639    0.0000 C   0  0  2  0  0  0  0  0  0  0  0  0
    9.3923   -9.4543    0.0000 C   0  0  0  0  0  0  0  0  0  0  0  0
    9.8807   -8.7894    0.0000 C   0  0  0  0  0  0  0  0  0  0  0  0
    9.5490   -8.0340    0.0000 C   0  0  2  0  0  0  0  0  0  0  0  0
   10.0374   -7.3691    0.0000 C   0  0  2  0  0  0  0  0  0  0  0  0
    9.7057   -6.6137    0.0000 C   0  0  2  0  0  0  0  0  0  0  0  0
   10.1941   -5.9487    0.0000 C   0  0  0  0  0  0  0  0  0  0  0  0
    9.8624   -5.1933    0.0000 C   0  0  0  0  0  0  0  0  0  0  0  0
    9.0424   -5.1029    0.0000 C   0  0  1  0  0  0  0  0  0  0  0  0
    8.5540   -5.7678    0.0000 C   0  0  0  0  0  0  0  0  0  0  0  0
    8.8857   -6.5232    0.0000 N   0  0  0  0  0  0  0  0  0  0  0  0
    8.3973   -7.1881    0.0000 C   0  0  0  0  0  0  0  0  0  0  0  0
    8.7290   -7.9435    0.0000 C   0  0  1  0  0  0  0  0  0  0  0  0
    8.2406   -8.6085    0.0000 C   0  0  2  0  0  0  0  0  0  0  0  0
    3.6654  -10.7156    0.0000 C   0  0  2  0  0  0  0  0  0  0  0  0
    3.6717   -9.8906    0.0000 O   0  0  0  0  0  0  0  0  0  0  0  0
    2.9605   -9.4726    0.0000 C   0  0  1  0  0  0  0  0  0  0  0  0
    2.2428   -9.8906    0.0000 C   0  0  2  0  0  0  0  0  0  0  0  0
    2.2428  -10.7156    0.0000 C   0  0  1  0  0  0  0  0  0  0  0  0
    2.9605  -11.1336    0.0000 C   0  0  1  0  0  0  0  0  0  0  0  0
    2.9621   -8.6476    0.0000 C   0  0  0  0  0  0  0  0  0  0  0  0
    1.5276  -11.1268    0.0000 O   0  0  0  0  0  0  0  0  0  0  0  0
    2.9637  -11.9586    0.0000 O   0  0  0  0  0  0  0  0  0  0  0  0
    1.5276   -9.4795    0.0000 O   0  0  0  0  0  0  0  0  0  0  0  0
    2.2484   -8.2338    0.0000 O   0  0  0  0  0  0  0  0  0  0  0  0
 16  1  1  6  0  0  0
 22  2  1  6  0  0  0
 25  3  1  1  0  0  0
 26  4  1  6  0  0  0
 29  5  1  6  0  0  0
 31  6  1  6  0  0  0
 38  7  1  1  0  0  0
 39  8  1  6  0  0  0
 34  9  1  1  0  0  0
 30 10  1  6  0  0  0
 17 11  1  1  0  0  0
 20 12  1  1  0  0  0
 23 13  2  0  0  0  0
 30 14  1  1  0  0  0
 36 31  1  0  0  0  0
 38 29  1  0  0  0  0
 22 17  1  0  0  0  0
 25 16  1  0  0  0  0
 39 26  1  0  0  0  0
 39 15  1  0  0  0  0
 16 15  1  0  0  0  0
 17 16  1  0  0  0  0
 18 17  1  0  0  0  0
 19 18  1  0  0  0  0
 20 19  1  0  0  0  0
 21 20  1  0  0  0  0
 22 21  1  0  0  0  0
 23 22  1  0  0  0  0
 24 23  1  0  0  0  0
 25 24  1  0  0  0  0
 26 25  1  0  0  0  0
 27 26  1  0  0  0  0
 28 27  1  0  0  0  0
 29 28  1  0  0  0  0
 30 29  1  0  0  0  0
 31 30  1  0  0  0  0
 32 31  1  0  0  0  0
 33 32  1  0  0  0  0
 34 33  1  0  0  0  0
 35 34  1  0  0  0  0
 36 35  1  0  0  0  0
 37 36  1  0  0  0  0
 38 37  1  0  0  0  0
 39 38  1  0  0  0  0
 40 12  1  1  0  0  0
 40 41  1  0  0  0  0
 41 42  1  0  0  0  0
 42 43  1  0  0  0  0
 43 44  1  0  0  0  0
 44 45  1  0  0  0  0
 45 40  1  0  0  0  0
 42 46  1  1  0  0  0
 44 47  1  1  0  0  0
 45 48  1  6  0  0  0
 43 49  1  6  0  0  0
 46 50  1  0  0  0  0
M  END
>  <cdx:groupId>
7625

>  <cdx:fragmentId>
7506

$$$$
