93321.cdx
  Mrv1902 05222410272D          

 29 31  0  0  0  0            999 V2000
    4.7580  -10.5600    0.0000 C   0  0  2  0  0  0  0  0  0  0  0  0
    4.7580  -11.3850    0.0000 C   0  0  0  0  0  0  0  0  0  0  0  0
    5.4725  -11.7975    0.0000 C   0  0  0  0  0  0  0  0  0  0  0  0
    6.1870  -11.3850    0.0000 C   0  0  2  0  0  0  0  0  0  0  0  0
    6.1870  -10.5600    0.0000 C   0  0  1  0  0  0  0  0  0  0  0  0
    5.4725  -10.1475    0.0000 C   0  0  2  0  0  0  0  0  0  0  0  0
    6.9014  -11.7975    0.0000 C   0  0  0  0  0  0  0  0  0  0  0  0
    7.6159  -11.3850    0.0000 C   0  0  0  0  0  0  0  0  0  0  0  0
    7.6159  -10.5600    0.0000 C   0  0  2  0  0  0  0  0  0  0  0  0
    6.9014  -10.1475    0.0000 C   0  0  0  0  0  0  0  0  0  0  0  0
    4.0436  -10.1475    0.0000 C   0  0  0  0  0  0  0  0  0  0  0  0
    5.8850   -9.4330    0.0000 C   0  0  0  0  0  0  0  0  0  0  0  0
    5.0600   -9.4330    0.0000 C   0  0  0  0  0  0  0  0  0  0  0  0
    5.4725   -8.7186    0.0000 C   0  0  0  0  0  0  0  0  0  0  0  0
    5.0600   -8.0041    0.0000 C   0  0  0  0  0  0  0  0  0  0  0  0
    6.9014  -12.6225    0.0000 C   0  0  0  0  0  0  0  0  0  0  0  0
    7.6159  -13.0350    0.0000 O   0  0  0  0  0  0  0  0  0  0  0  0
    6.1870  -12.2100    0.0000 C   0  0  0  0  0  0  0  0  0  0  0  0
    5.4725  -12.6225    0.0000 O   0  0  0  0  0  0  0  0  0  0  0  0
    5.4725  -13.4475    0.0000 C   0  0  0  0  0  0  0  0  0  0  0  0
    4.7580  -13.8600    0.0000 C   0  0  0  0  0  0  0  0  0  0  0  0
    6.1870  -13.8600    0.0000 O   0  0  0  0  0  0  0  0  0  0  0  0
    5.3956   -7.2504    0.0000 C   0  0  0  0  0  0  0  0  0  0  0  0
    4.7825   -6.6984    0.0000 O   0  0  0  0  0  0  0  0  0  0  0  0
    4.0680   -7.1109    0.0000 C   0  0  0  0  0  0  0  0  0  0  0  0
    4.2395   -7.9179    0.0000 C   0  0  0  0  0  0  0  0  0  0  0  0
    3.3143   -6.7753    0.0000 O   0  0  0  0  0  0  0  0  0  0  0  0
    6.1870   -9.7350    0.0000 H   0  0  0  0  0  0  0  0  0  0  0  0
    8.3304  -10.1475    0.0000 O   0  0  0  0  0  0  0  0  0  0  0  0
  1  2  1  0  0  0  0
  2  3  1  0  0  0  0
  3  4  1  0  0  0  0
  4  5  1  0  0  0  0
  5  6  1  0  0  0  0
  6  1  1  0  0  0  0
  4  7  1  0  0  0  0
  7  8  2  0  0  0  0
  8  9  1  0  0  0  0
  9 10  1  0  0  0  0
 10  5  1  0  0  0  0
  1 11  1  1  0  0  0
  6 12  1  1  0  0  0
  6 13  1  0  0  0  0
 13 14  1  0  0  0  0
 14 15  1  0  0  0  0
  7 16  1  0  0  0  0
 16 17  1  0  0  0  0
  4 18  1  1  0  0  0
 18 19  1  0  0  0  0
 19 20  1  0  0  0  0
 20 21  1  0  0  0  0
 20 22  2  0  0  0  0
 15 23  1  0  0  0  0
 23 24  1  0  0  0  0
 24 25  1  0  0  0  0
 25 26  1  0  0  0  0
 26 15  2  0  0  0  0
 25 27  2  0  0  0  0
  5 28  1  6  0  0  0
  9 29  1  6  0  0  0
M  END
>  <cdx:fragmentId>
3364

$$$$
