93325.cdx
  Mrv1902 05222410272D          

 73 81  0  0  0  0            999 V2000
    6.0206   -6.3250    0.0000 C   0  0  0  0  0  0  0  0  0  0  0  0
    6.0206   -7.1500    0.0000 C   0  0  1  0  0  0  0  0  0  0  0  0
    6.7350   -7.5625    0.0000 C   0  0  1  0  0  0  0  0  0  0  0  0
    7.4495   -7.1500    0.0000 C   0  0  0  0  0  0  0  0  0  0  0  0
    7.4495   -6.3250    0.0000 C   0  0  2  0  0  0  0  0  0  0  0  0
    6.7350   -5.9125    0.0000 C   0  0  0  0  0  0  0  0  0  0  0  0
    8.1640   -7.5625    0.0000 C   0  0  0  0  0  0  0  0  0  0  0  0
    8.8784   -7.1500    0.0000 C   0  0  0  0  0  0  0  0  0  0  0  0
    8.8784   -6.3250    0.0000 C   0  0  2  0  0  0  0  0  0  0  0  0
    8.1640   -5.9125    0.0000 C   0  0  0  0  0  0  0  0  0  0  0  0
    9.5929   -5.9125    0.0000 C   0  0  1  0  0  0  0  0  0  0  0  0
    9.5929   -5.0875    0.0000 C   0  0  0  0  0  0  0  0  0  0  0  0
    8.8784   -4.6750    0.0000 C   0  0  0  0  0  0  0  0  0  0  0  0
    8.1640   -5.0875    0.0000 C   0  0  0  0  0  0  0  0  0  0  0  0
   10.3074   -6.3250    0.0000 C   0  0  0  0  0  0  0  0  0  0  0  0
   11.0219   -5.9125    0.0000 C   0  0  0  0  0  0  0  0  0  0  0  0
   11.0219   -5.0875    0.0000 C   0  0  2  0  0  0  0  0  0  0  0  0
   10.3074   -4.6750    0.0000 C   0  0  0  0  0  0  0  0  0  0  0  0
   11.7363   -4.6750    0.0000 C   0  0  0  0  0  0  0  0  0  0  0  0
   11.7363   -3.8500    0.0000 C   0  0  0  0  0  0  0  0  0  0  0  0
   11.0219   -3.4375    0.0000 C   0  0  1  0  0  0  0  0  0  0  0  0
   10.3074   -3.8500    0.0000 C   0  0  0  0  0  0  0  0  0  0  0  0
   10.6094   -2.7230    0.0000 C   0  0  0  0  0  0  0  0  0  0  0  0
   11.7363   -5.5000    0.0000 C   0  0  0  0  0  0  0  0  0  0  0  0
    8.8784   -5.5000    0.0000 C   0  0  0  0  0  0  0  0  0  0  0  0
    7.4495   -5.5000    0.0000 C   0  0  0  0  0  0  0  0  0  0  0  0
    6.3225   -8.2770    0.0000 C   0  0  0  0  0  0  0  0  0  0  0  0
    5.3061   -7.5625    0.0000 O   0  0  0  0  0  0  0  0  0  0  0  0
    7.1475   -8.2770    0.0000 C   0  0  0  0  0  0  0  0  0  0  0  0
    9.5929   -6.7375    0.0000 C   0  0  0  0  0  0  0  0  0  0  0  0
   11.4344   -2.7230    0.0000 C   0  0  0  0  0  0  0  0  0  0  0  0
   12.4508   -5.0875    0.0000 O   0  0  0  0  0  0  0  0  0  0  0  0
   11.7363   -6.3250    0.0000 O   0  0  0  0  0  0  0  0  0  0  0  0
    4.5916   -7.1500    0.0000 C   0  0  2  0  0  0  0  0  0  0  0  0
    4.5054   -6.3295    0.0000 O   0  0  0  0  0  0  0  0  0  0  0  0
    3.6984   -6.1580    0.0000 C   0  0  2  0  0  0  0  0  0  0  0  0
    3.2859   -6.8725    0.0000 C   0  0  1  0  0  0  0  0  0  0  0  0
    3.8379   -7.4856    0.0000 C   0  0  1  0  0  0  0  0  0  0  0  0
    2.4654   -6.9587    0.0000 O   0  0  0  0  0  0  0  0  0  0  0  0
    3.6664   -8.2925    0.0000 O   0  0  0  0  0  0  0  0  0  0  0  0
    3.3628   -5.4043    0.0000 C   0  0  0  0  0  0  0  0  0  0  0  0
    3.8478   -4.7369    0.0000 O   0  0  0  0  0  0  0  0  0  0  0  0
    3.6514   -9.9575    0.0000 O   0  0  0  0  0  0  0  0  0  0  0  0
    0.7936   -9.9447    0.0000 O   0  0  0  0  0  0  0  0  0  0  0  0
    2.2188  -10.7761    0.0000 O   0  0  0  0  0  0  0  0  0  0  0  0
    2.2225   -9.9511    0.0000 C   0  0  2  0  0  0  0  0  0  0  0  0
    2.9388   -9.5418    0.0000 C   0  0  2  0  0  0  0  0  0  0  0  0
    2.9426   -8.7168    0.0000 C   0  0  1  0  0  0  0  0  0  0  0  0
    2.2300   -8.3011    0.0000 O   0  0  0  0  0  0  0  0  0  0  0  0
    1.5136   -8.7104    0.0000 C   0  0  0  0  0  0  0  0  0  0  0  0
    1.5099   -9.5354    0.0000 C   0  0  1  0  0  0  0  0  0  0  0  0
   11.0240   -8.3821    0.0000 C   0  0  2  0  0  0  0  0  0  0  0  0
   11.7384   -8.7947    0.0000 C   0  0  2  0  0  0  0  0  0  0  0  0
   12.4529   -8.3824    0.0000 C   0  0  1  0  0  0  0  0  0  0  0  0
   12.4531   -7.5574    0.0000 C   0  0  2  0  0  0  0  0  0  0  0  0
   11.7388   -7.1447    0.0000 C   0  0  1  0  0  0  0  0  0  0  0  0
   11.0242   -7.5571    0.0000 O   0  0  0  0  0  0  0  0  0  0  0  0
   10.3094   -8.7944    0.0000 C   0  0  0  0  0  0  0  0  0  0  0  0
   13.1673   -8.7951    0.0000 O   0  0  0  0  0  0  0  0  0  0  0  0
   11.7382   -9.6197    0.0000 O   0  0  0  0  0  0  0  0  0  0  0  0
   13.1677   -7.1451    0.0000 O   0  0  0  0  0  0  0  0  0  0  0  0
   10.3092   -9.6194    0.0000 O   0  0  0  0  0  0  0  0  0  0  0  0
    8.6296  -11.0336    0.0000 C   0  0  2  0  0  0  0  0  0  0  0  0
    9.0334  -11.7530    0.0000 C   0  0  2  0  0  0  0  0  0  0  0  0
    9.8584  -11.7629    0.0000 C   0  0  1  0  0  0  0  0  0  0  0  0
   10.2794  -11.0535    0.0000 C   0  0  2  0  0  0  0  0  0  0  0  0
    9.8756  -10.3341    0.0000 C   0  0  1  0  0  0  0  0  0  0  0  0
    9.0507  -10.3241    0.0000 O   0  0  0  0  0  0  0  0  0  0  0  0
    7.8046  -11.0236    0.0000 C   0  0  0  0  0  0  0  0  0  0  0  0
   10.2622  -12.4823    0.0000 O   0  0  0  0  0  0  0  0  0  0  0  0
    8.6123  -12.4624    0.0000 O   0  0  0  0  0  0  0  0  0  0  0  0
   11.1044  -11.0634    0.0000 O   0  0  0  0  0  0  0  0  0  0  0  0
    7.3835  -11.7331    0.0000 O   0  0  0  0  0  0  0  0  0  0  0  0
  1  2  1  0  0  0  0
  2  3  1  0  0  0  0
  3  4  1  0  0  0  0
  4  5  1  0  0  0  0
  5  6  1  0  0  0  0
  6  1  1  0  0  0  0
  4  7  1  0  0  0  0
  7  8  1  0  0  0  0
  8  9  1  0  0  0  0
  9 10  1  0  0  0  0
 10  5  1  0  0  0  0
  9 11  1  0  0  0  0
 11 12  1  0  0  0  0
 12 13  2  0  0  0  0
 13 14  1  0  0  0  0
 14 10  1  0  0  0  0
 11 15  1  0  0  0  0
 15 16  1  0  0  0  0
 16 17  1  0  0  0  0
 17 18  1  0  0  0  0
 18 12  1  0  0  0  0
 17 19  1  0  0  0  0
 19 20  1  0  0  0  0
 20 21  1  0  0  0  0
 21 22  1  0  0  0  0
 22 18  1  0  0  0  0
 21 23  1  1  0  0  0
 17 24  1  1  0  0  0
  9 25  1  1  0  0  0
  5 26  1  1  0  0  0
  3 27  1  1  0  0  0
  2 28  1  1  0  0  0
  3 29  1  6  0  0  0
 11 30  1  6  0  0  0
 21 31  1  6  0  0  0
 24 32  2  0  0  0  0
 24 33  1  0  0  0  0
 34 28  1  1  0  0  0
 34 35  1  0  0  0  0
 35 36  1  0  0  0  0
 36 37  1  0  0  0  0
 37 38  1  0  0  0  0
 38 34  1  0  0  0  0
 37 39  1  1  0  0  0
 38 40  1  6  0  0  0
 36 41  1  6  0  0  0
 41 42  1  0  0  0  0
 47 43  1  6  0  0  0
 51 44  1  6  0  0  0
 46 45  1  1  0  0  0
 46 51  1  0  0  0  0
 47 46  1  0  0  0  0
 48 47  1  0  0  0  0
 49 48  1  0  0  0  0
 50 49  1  0  0  0  0
 51 50  1  0  0  0  0
 48 40  1  1  0  0  0
 52 53  1  0  0  0  0
 53 54  1  0  0  0  0
 54 55  1  0  0  0  0
 55 56  1  0  0  0  0
 56 57  1  0  0  0  0
 57 52  1  0  0  0  0
 52 58  1  1  0  0  0
 54 59  1  1  0  0  0
 53 60  1  6  0  0  0
 55 61  1  6  0  0  0
 58 62  1  0  0  0  0
 63 64  1  0  0  0  0
 64 65  1  0  0  0  0
 65 66  1  0  0  0  0
 66 67  1  0  0  0  0
 67 68  1  0  0  0  0
 68 63  1  0  0  0  0
 63 69  1  1  0  0  0
 65 70  1  1  0  0  0
 64 71  1  6  0  0  0
 66 72  1  6  0  0  0
 69 73  1  0  0  0  0
 67 62  1  1  0  0  0
 56 33  1  1  0  0  0
M  END
>  <cdx:fragmentId>
5

$$$$
