93329.cdx
  Mrv1902 05222410192D          

 24 26  0  0  0  0            999 V2000
    4.9068   -8.3600    0.0000 C   0  0  1  0  0  0  0  0  0  0  0  0
    4.9068   -9.1850    0.0000 C   0  0  1  0  0  0  0  0  0  0  0  0
    5.6213   -9.5975    0.0000 C   0  0  2  0  0  0  0  0  0  0  0  0
    6.3357   -9.1850    0.0000 C   0  0  1  0  0  0  0  0  0  0  0  0
    6.3357   -8.3600    0.0000 C   0  0  0  0  0  0  0  0  0  0  0  0
    5.6213   -7.9475    0.0000 C   0  0  0  0  0  0  0  0  0  0  0  0
    7.0502   -9.5975    0.0000 C   0  0  0  0  0  0  0  0  0  0  0  0
    7.7647   -9.1850    0.0000 C   0  0  0  0  0  0  0  0  0  0  0  0
    7.7647   -8.3600    0.0000 C   0  0  1  0  0  0  0  0  0  0  0  0
    7.0502   -7.9475    0.0000 C   0  0  1  0  0  0  0  0  0  0  0  0
    8.4792   -7.9475    0.0000 C   0  0  0  0  0  0  0  0  0  0  0  0
    8.4792   -7.1225    0.0000 C   0  0  1  0  0  0  0  0  0  0  0  0
    7.7647   -6.7100    0.0000 C   0  0  0  0  0  0  0  0  0  0  0  0
    7.0502   -7.1225    0.0000 C   0  0  0  0  0  0  0  0  0  0  0  0
    9.3042   -7.1225    0.0000 C   0  0  0  0  0  0  0  0  0  0  0  0
    9.7167   -7.8370    0.0000 C   0  0  0  0  0  0  0  0  0  0  0  0
    4.1923   -7.9475    0.0000 O   0  0  0  0  0  0  0  0  0  0  0  0
    6.0338  -10.3120    0.0000 C   0  0  0  0  0  0  0  0  0  0  0  0
    6.3357  -10.0100    0.0000 H   0  0  0  0  0  0  0  0  0  0  0  0
    8.4792   -8.7725    0.0000 H   0  0  0  0  0  0  0  0  0  0  0  0
    8.6927   -6.3256    0.0000 C   0  0  0  0  0  0  0  0  0  0  0  0
    4.1923   -9.5975    0.0000 O   0  0  0  0  0  0  0  0  0  0  0  0
    5.2088  -10.3120    0.0000 C   0  0  0  0  0  0  0  0  0  0  0  0
    7.0502   -8.7725    0.0000 C   0  0  0  0  0  0  0  0  0  0  0  0
  1  2  1  0  0  0  0
  2  3  1  0  0  0  0
  3  4  1  0  0  0  0
  4  5  1  0  0  0  0
  5  6  2  0  0  0  0
  6  1  1  0  0  0  0
  4  7  1  0  0  0  0
  7  8  1  0  0  0  0
  8  9  1  0  0  0  0
  9 10  1  0  0  0  0
 10  5  1  0  0  0  0
  9 11  1  0  0  0  0
 11 12  1  0  0  0  0
 12 13  1  0  0  0  0
 13 14  1  0  0  0  0
 14 10  1  0  0  0  0
 12 15  1  1  0  0  0
 15 16  2  0  0  0  0
  1 17  1  6  0  0  0
  3 18  1  6  0  0  0
  4 19  1  6  0  0  0
  9 20  1  6  0  0  0
 12 21  1  6  0  0  0
  2 22  1  1  0  0  0
  3 23  1  1  0  0  0
 10 24  1  1  0  0  0
M  END
>  <cdx:fragmentId>
5

$$$$
