93328.cdx
  Mrv1902 05222410192D          

 27 30  0  0  0  0            999 V2000
    4.2056   -9.3913    0.0000 C   0  0  0  0  0  0  0  0  0  0  0  0
    4.2056  -10.2163    0.0000 C   0  0  0  0  0  0  0  0  0  0  0  0
    4.9200  -10.6288    0.0000 C   0  0  2  0  0  0  0  0  0  0  0  0
    5.6345  -10.2163    0.0000 C   0  0  2  0  0  0  0  0  0  0  0  0
    5.6345   -9.3913    0.0000 C   0  0  1  0  0  0  0  0  0  0  0  0
    4.9200   -8.9788    0.0000 C   0  0  0  0  0  0  0  0  0  0  0  0
    6.3490  -10.6288    0.0000 C   0  0  0  0  0  0  0  0  0  0  0  0
    7.0634  -10.2163    0.0000 C   0  0  0  0  0  0  0  0  0  0  0  0
    7.0634   -9.3913    0.0000 C   0  0  2  0  0  0  0  0  0  0  0  0
    6.3490   -8.9788    0.0000 C   0  0  1  0  0  0  0  0  0  0  0  0
    7.7779   -8.9788    0.0000 C   0  0  2  0  0  0  0  0  0  0  0  0
    7.7779   -8.1538    0.0000 C   0  0  0  0  0  0  0  0  0  0  0  0
    7.0634   -7.7413    0.0000 C   0  0  1  0  0  0  0  0  0  0  0  0
    6.3490   -8.1538    0.0000 C   0  0  2  0  0  0  0  0  0  0  0  0
    8.3910   -7.6017    0.0000 C   0  0  0  0  0  0  0  0  0  0  0  0
    8.0554   -6.8480    0.0000 C   0  0  0  0  0  0  0  0  0  0  0  0
    7.2350   -6.9343    0.0000 O   0  0  0  0  0  0  0  0  0  0  0  0
    8.4679   -6.1336    0.0000 O   0  0  0  0  0  0  0  0  0  0  0  0
    9.1980   -7.7732    0.0000 C   0  0  0  0  0  0  0  0  0  0  0  0
    5.6345   -7.7413    0.0000 O   0  0  0  0  0  0  0  0  0  0  0  0
    6.3490   -9.8038    0.0000 H   0  0  0  0  0  0  0  0  0  0  0  0
    7.7779   -9.8038    0.0000 O   0  0  0  0  0  0  0  0  0  0  0  0
    5.6345  -11.0412    0.0000 H   0  0  0  0  0  0  0  0  0  0  0  0
    5.3325  -11.3432    0.0000 C   0  0  0  0  0  0  0  0  0  0  0  0
    4.5075  -11.3432    0.0000 C   0  0  0  0  0  0  0  0  0  0  0  0
    5.6345   -8.5663    0.0000 C   0  0  0  0  0  0  0  0  0  0  0  0
    8.4924   -9.3913    0.0000 O   0  0  0  0  0  0  0  0  0  0  0  0
  1  2  1  0  0  0  0
  2  3  1  0  0  0  0
  3  4  1  0  0  0  0
  4  5  1  0  0  0  0
  5  6  1  0  0  0  0
  6  1  1  0  0  0  0
  4  7  1  0  0  0  0
  7  8  1  0  0  0  0
  8  9  1  0  0  0  0
  9 10  1  0  0  0  0
 10  5  1  0  0  0  0
  9 11  1  0  0  0  0
 11 12  1  0  0  0  0
 12 13  1  0  0  0  0
 13 14  1  0  0  0  0
 14 10  1  0  0  0  0
 12 15  2  0  0  0  0
 15 16  1  0  0  0  0
 16 17  1  0  0  0  0
 13 17  1  1  0  0  0
 16 18  2  0  0  0  0
 15 19  1  0  0  0  0
 14 20  1  1  0  0  0
 10 21  1  1  0  0  0
  9 22  1  1  0  0  0
  4 23  1  1  0  0  0
  3 24  1  6  0  0  0
  3 25  1  1  0  0  0
  5 26  1  6  0  0  0
 11 27  1  6  0  0  0
M  END
>  <cdx:fragmentId>
5

$$$$
