93331.cdx
  Mrv1902 05222410272D          

 14 16  0  0  0  0            999 V2000
    4.8106   -6.8888    0.0000 C   0  0  0  0  0  0  0  0  0  0  0  0
    4.8106   -7.7138    0.0000 C   0  0  0  0  0  0  0  0  0  0  0  0
    5.5250   -8.1263    0.0000 C   0  0  1  0  0  0  0  0  0  0  0  0
    6.2395   -7.7138    0.0000 C   0  0  1  0  0  0  0  0  0  0  0  0
    6.2395   -6.8888    0.0000 C   0  0  1  0  0  0  0  0  0  0  0  0
    5.5250   -6.4763    0.0000 C   0  0  2  0  0  0  0  0  0  0  0  0
    7.0241   -7.9687    0.0000 C   0  0  0  0  0  0  0  0  0  0  0  0
    7.5090   -7.3012    0.0000 N   0  0  0  0  0  0  0  0  0  0  0  0
    7.0241   -6.6338    0.0000 C   0  0  0  0  0  0  0  0  0  0  0  0
    7.2791   -5.8492    0.0000 O   0  0  0  0  0  0  0  0  0  0  0  0
    7.2791   -8.7533    0.0000 O   0  0  0  0  0  0  0  0  0  0  0  0
    5.3350   -7.3150    0.0000 O   0  0  0  0  0  0  0  0  0  0  0  0
    6.2395   -6.0638    0.0000 C   0  0  0  0  0  0  0  0  0  0  0  0
    6.2395   -8.5388    0.0000 H   0  0  0  0  0  0  0  0  0  0  0  0
  1  2  1  0  0  0  0
  2  3  1  0  0  0  0
  3  4  1  0  0  0  0
  4  5  1  0  0  0  0
  5  6  1  0  0  0  0
  6  1  1  0  0  0  0
  4  7  1  0  0  0  0
  7  8  1  0  0  0  0
  8  9  1  0  0  0  0
  9  5  1  0  0  0  0
  9 10  2  0  0  0  0
  7 11  2  0  0  0  0
  6 12  1  1  0  0  0
  3 12  1  1  0  0  0
  5 13  1  6  0  0  0
  4 14  1  6  0  0  0
M  END
>  <cdx:fragmentId>
191

$$$$
