93338.cdx
  Mrv1902 05222410192D          

 22 24  0  0  0  0            999 V2000
    8.1658   -7.9305    0.0000 C   0  0  0  0  0  0  0  0  0  0  0  0
    8.1658   -7.1055    0.0000 C   0  0  0  0  0  0  0  0  0  0  0  0
    7.4513   -6.6930    0.0000 C   0  0  0  0  0  0  0  0  0  0  0  0
    6.7369   -7.1055    0.0000 C   0  0  0  0  0  0  0  0  0  0  0  0
    6.7369   -7.9305    0.0000 C   0  0  0  0  0  0  0  0  0  0  0  0
    7.4513   -8.3430    0.0000 C   0  0  0  0  0  0  0  0  0  0  0  0
    6.0224   -6.6930    0.0000 O   0  0  0  0  0  0  0  0  0  0  0  0
    5.3079   -7.1055    0.0000 C   0  0  0  0  0  0  0  0  0  0  0  0
    5.3079   -7.9305    0.0000 C   0  0  0  0  0  0  0  0  0  0  0  0
    6.0224   -8.3430    0.0000 C   0  0  0  0  0  0  0  0  0  0  0  0
    8.9504   -8.1855    0.0000 C   0  0  0  0  0  0  0  0  0  0  0  0
    9.4354   -7.5180    0.0000 C   0  0  0  0  0  0  0  0  0  0  0  0
    8.9504   -6.8506    0.0000 O   0  0  0  0  0  0  0  0  0  0  0  0
    7.4513   -5.8680    0.0000 O   0  0  0  0  0  0  0  0  0  0  0  0
    4.5935   -6.6930    0.0000 O   0  0  0  0  0  0  0  0  0  0  0  0
    8.0347   -8.9264    0.0000 O   0  0  0  0  0  0  0  0  0  0  0  0
    6.8680   -8.9264    0.0000 C   0  0  0  0  0  0  0  0  0  0  0  0
    8.0347   -9.7514    0.0000 C   0  0  0  0  0  0  0  0  0  0  0  0
    6.0430   -8.9264    0.0000 C   0  0  0  0  0  0  0  0  0  0  0  0
    5.6305   -9.6409    0.0000 C   0  0  0  0  0  0  0  0  0  0  0  0
    4.8055   -9.6409    0.0000 C   0  0  0  0  0  0  0  0  0  0  0  0
    6.0430  -10.3554    0.0000 C   0  0  0  0  0  0  0  0  0  0  0  0
  1  2  2  0  0  0  0
  2  3  1  0  0  0  0
  3  4  1  0  0  0  0
  4  5  2  0  0  0  0
  5  6  1  0  0  0  0
  6  1  1  0  0  0  0
  4  7  1  0  0  0  0
  7  8  1  0  0  0  0
  8  9  1  0  0  0  0
  9 10  2  0  0  0  0
 10  5  1  0  0  0  0
  1 11  1  0  0  0  0
 11 12  2  0  0  0  0
 12 13  1  0  0  0  0
 13  2  1  0  0  0  0
  3 14  2  0  0  0  0
  8 15  2  0  0  0  0
  6 16  1  0  0  0  0
  6 17  1  0  0  0  0
 16 18  1  0  0  0  0
 17 19  1  0  0  0  0
 19 20  2  0  0  0  0
 20 21  1  0  0  0  0
 20 22  1  0  0  0  0
M  END
>  <cdx:fragmentId>
5

$$$$
