933327.cdx
  Mrv1902 05222410232D          

 42 45  0  0  0  0            999 V2000
    6.9433   -8.0461    0.0000 H   0  0  0  0  0  0  0  0  0  0  0  0
   11.1040   -7.2053    0.0000 H   0  0  0  0  0  0  0  0  0  0  0  0
    9.7157   -5.3311    0.0000 H   0  0  0  0  0  0  0  0  0  0  0  0
    5.5497   -5.9785    0.0000 C   0  0  0  0  0  0  0  0  0  0  0  0
    5.9067   -4.5949    0.0000 O   0  0  0  0  0  0  0  0  0  0  0  0
    6.1276   -5.3898    0.0000 C   0  0  0  0  0  0  0  0  0  0  0  0
    6.9208   -5.6168    0.0000 O   0  0  0  0  0  0  0  0  0  0  0  0
    8.7337   -9.1197    0.0000 C   0  0  0  0  0  0  0  0  0  0  0  0
    7.6082  -10.0001    0.0000 O   0  0  0  0  0  0  0  0  0  0  0  0
    7.9168   -9.2350    0.0000 C   0  0  0  0  0  0  0  0  0  0  0  0
    7.4086   -8.5851    0.0000 O   0  0  0  0  0  0  0  0  0  0  0  0
    8.8323   -5.0557    0.0000 C   0  0  0  0  0  0  0  0  0  0  0  0
   11.0429   -5.2859    0.0000 C   0  0  0  0  0  0  0  0  0  0  0  0
   11.5340   -5.9488    0.0000 C   0  0  0  0  0  0  0  0  0  0  0  0
    5.0302   -6.8491    0.0000 C   0  0  0  0  0  0  0  0  0  0  0  0
    7.3760   -5.0692    0.0000 O   0  0  0  0  0  0  0  0  0  0  0  0
    6.3339   -6.1695    0.0000 C   0  0  0  0  0  0  0  0  0  0  0  0
    5.8551   -6.8414    0.0000 C   0  0  1  0  0  0  0  0  0  0  0  0
    6.3462   -7.5043    0.0000 C   0  0  1  0  0  0  0  0  0  0  0  0
    7.1285   -7.2421    0.0000 C   0  0  2  0  0  0  0  0  0  0  0  0
    7.7172   -7.8201    0.0000 C   0  0  2  0  0  0  0  0  0  0  0  0
    9.1201   -7.2237    0.0000 C   0  0  0  0  0  0  0  0  0  0  0  0
    9.9070   -7.4713    0.0000 C   0  0  0  0  0  0  0  0  0  0  0  0
   10.3858   -6.7994    0.0000 C   0  0  2  0  0  0  0  0  0  0  0  0
   10.7143   -6.0427    0.0000 C   0  0  0  0  0  0  0  0  0  0  0  0
    9.8947   -6.1365    0.0000 C   0  0  2  0  0  0  0  0  0  0  0  0
    9.1124   -6.3987    0.0000 C   0  0  0  0  0  0  0  0  0  0  0  0
    8.5237   -5.8208    0.0000 C   0  0  0  0  0  0  0  0  0  0  0  0
    7.6987   -5.8284    0.0000 C   0  0  0  0  0  0  0  0  0  0  0  0
    7.1208   -6.4172    0.0000 C   0  0  2  0  0  0  0  0  0  0  0  0
    8.5422   -7.8124    0.0000 C   0  0  0  0  0  0  0  0  0  0  0  0
    3.6825   -8.8283    0.0000 C   0  0  0  0  0  0  0  0  0  0  0  0
    2.8772   -9.0073    0.0000 C   0  0  0  0  0  0  0  0  0  0  0  0
    2.3195   -8.3993    0.0000 C   0  0  0  0  0  0  0  0  0  0  0  0
    2.5671   -7.6124    0.0000 C   0  0  0  0  0  0  0  0  0  0  0  0
    3.3725   -7.4334    0.0000 C   0  0  0  0  0  0  0  0  0  0  0  0
    3.9302   -8.0413    0.0000 C   0  0  0  0  0  0  0  0  0  0  0  0
    6.0986   -8.2913    0.0000 O   0  0  0  0  0  0  0  0  0  0  0  0
    5.0456   -9.2572    0.0000 O   0  0  0  0  0  0  0  0  0  0  0  0
    4.7355   -7.8623    0.0000 C   0  0  0  0  0  0  0  0  0  0  0  0
    5.2932   -8.4703    0.0000 C   0  0  0  0  0  0  0  0  0  0  0  0
    8.8649   -8.5716    0.0000 C   0  0  0  0  0  0  0  0  0  0  0  0
 20  1  1  6  0  0  0
 24  2  1  6  0  0  0
 26  3  1  6  0  0  0
 19 38  1  1  0  0  0
 30  7  1  1  0  0  0
  7  6  1  0  0  0  0
  6  4  1  0  0  0  0
  6  5  2  0  0  0  0
 21 11  1  6  0  0  0
 11 10  1  0  0  0  0
 10  8  1  0  0  0  0
 10  9  2  0  0  0  0
 28 12  1  0  0  0  0
 25 13  1  0  0  0  0
 25 14  1  0  0  0  0
 18 15  1  1  0  0  0
 29 16  2  0  0  0  0
 21 31  1  0  0  0  0
 22 31  1  0  0  0  0
 26 24  1  0  0  0  0
 30 20  1  0  0  0  0
 30 17  1  0  0  0  0
 18 17  1  0  0  0  0
 19 18  1  0  0  0  0
 20 19  1  0  0  0  0
 21 20  1  0  0  0  0
 23 22  1  0  0  0  0
 24 23  1  0  0  0  0
 25 24  1  0  0  0  0
 26 25  1  0  0  0  0
 27 26  1  0  0  0  0
 28 27  2  0  0  0  0
 29 28  1  0  0  0  0
 30 29  1  0  0  0  0
 40 37  1  0  0  0  0
 37 32  2  0  0  0  0
 33 32  1  0  0  0  0
 34 33  2  0  0  0  0
 35 34  1  0  0  0  0
 36 35  2  0  0  0  0
 37 36  1  0  0  0  0
 41 38  1  0  0  0  0
 41 39  2  0  0  0  0
 41 40  1  0  0  0  0
 31 42  2  0  0  0  0
M  END
>  <cdx:fragmentId>
3224

$$$$
