93330.cdx
  Mrv1902 05222410272D          

 49 55  0  0  0  0            999 V2000
    3.6071   -6.3477    0.0000 O   0  0  0  0  0  0  0  0  0  0  0  0
    4.9725   -5.9265    0.0000 O   0  0  0  0  0  0  0  0  0  0  0  0
    4.8977   -8.1079    0.0000 C   0  0  2  0  0  0  0  0  0  0  0  0
    4.2527   -8.6223    0.0000 C   0  0  2  0  0  0  0  0  0  0  0  0
    3.4681   -8.3674    0.0000 C   0  0  0  0  0  0  0  0  0  0  0  0
    2.9832   -9.0348    0.0000 C   0  0  0  0  0  0  0  0  0  0  0  0
    3.4681   -9.7023    0.0000 C   0  0  0  0  0  0  0  0  0  0  0  0
    4.2527   -9.4473    0.0000 C   0  0  1  0  0  0  0  0  0  0  0  0
    4.8977   -9.9617    0.0000 C   0  0  1  0  0  0  0  0  0  0  0  0
    5.7020   -9.7781    0.0000 C   0  0  1  0  0  0  0  0  0  0  0  0
    6.5247   -9.7165    0.0000 O   0  0  0  0  0  0  0  0  0  0  0  0
    6.0600   -9.0348    0.0000 C   0  0  1  0  0  0  0  0  0  0  0  0
    5.7020   -8.2915    0.0000 C   0  0  1  0  0  0  0  0  0  0  0  0
    6.2632   -7.6867    0.0000 C   0  0  1  0  0  0  0  0  0  0  0  0
    7.0881   -7.6991    0.0000 O   0  0  0  0  0  0  0  0  0  0  0  0
    7.3547   -6.9184    0.0000 C   0  0  0  0  0  0  0  0  0  0  0  0
    6.6946   -6.4235    0.0000 O   0  0  0  0  0  0  0  0  0  0  0  0
    6.0200   -6.8984    0.0000 C   0  0  1  0  0  0  0  0  0  0  0  0
    5.2157   -6.7148    0.0000 C   0  0  1  0  0  0  0  0  0  0  0  0
    4.6545   -7.3196    0.0000 C   0  0  1  0  0  0  0  0  0  0  0  0
    5.4450   -7.4250    0.0000 O   0  0  0  0  0  0  0  0  0  0  0  0
    3.2131  -10.4869    0.0000 O   0  0  0  0  0  0  0  0  0  0  0  0
    3.8502   -7.1360    0.0000 C   0  0  0  0  0  0  0  0  0  0  0  0
    2.1582   -9.0348    0.0000 C   0  0  0  0  0  0  0  0  0  0  0  0
    5.8250  -10.5939    0.0000 C   0  0  0  0  0  0  0  0  0  0  0  0
    6.5930  -10.8953    0.0000 O   0  0  0  0  0  0  0  0  0  0  0  0
    4.7141  -10.7660    0.0000 O   0  0  0  0  0  0  0  0  0  0  0  0
    4.1054  -10.2591    0.0000 O   0  0  0  0  0  0  0  0  0  0  0  0
    4.1054   -7.8106    0.0000 H   0  0  0  0  0  0  0  0  0  0  0  0
    6.4989   -8.5050    0.0000 H   0  0  0  0  0  0  0  0  0  0  0  0
    3.8957   -4.9642    0.0000 C   0  0  0  0  0  0  0  0  0  0  0  0
    4.1682   -5.7429    0.0000 C   0  0  0  0  0  0  0  0  0  0  0  0
    4.4339   -4.3389    0.0000 C   0  0  0  0  0  0  0  0  0  0  0  0
    4.1614   -3.5602    0.0000 C   0  0  0  0  0  0  0  0  0  0  0  0
    3.3508   -3.4068    0.0000 C   0  0  0  0  0  0  0  0  0  0  0  0
    2.8126   -4.0321    0.0000 C   0  0  0  0  0  0  0  0  0  0  0  0
    3.0851   -4.8108    0.0000 C   0  0  0  0  0  0  0  0  0  0  0  0
    6.0200   -6.0734    0.0000 C   0  0  0  0  0  0  0  0  0  0  0  0
    5.3055   -5.6609    0.0000 C   0  0  0  0  0  0  0  0  0  0  0  0
    6.7345   -5.6609    0.0000 C   0  0  0  0  0  0  0  0  0  0  0  0
    8.1431   -6.6752    0.0000 C   0  0  0  0  0  0  0  0  0  0  0  0
    8.7478   -7.2363    0.0000 C   0  0  0  0  0  0  0  0  0  0  0  0
    9.5362   -6.9932    0.0000 C   0  0  0  0  0  0  0  0  0  0  0  0
   10.1410   -7.5543    0.0000 C   0  0  0  0  0  0  0  0  0  0  0  0
   10.9293   -7.3111    0.0000 C   0  0  0  0  0  0  0  0  0  0  0  0
   11.5341   -7.8723    0.0000 C   0  0  0  0  0  0  0  0  0  0  0  0
   12.3224   -7.6291    0.0000 C   0  0  0  0  0  0  0  0  0  0  0  0
   12.9272   -8.1902    0.0000 C   0  0  0  0  0  0  0  0  0  0  0  0
   13.7155   -7.9471    0.0000 C   0  0  0  0  0  0  0  0  0  0  0  0
 32  1  2  0  0  0  0
 32 31  1  0  0  0  0
 32  2  1  0  0  0  0
  3  4  1  0  0  0  0
  4  5  1  0  0  0  0
  5  6  2  0  0  0  0
  6  7  1  0  0  0  0
  7  8  1  0  0  0  0
  8  9  1  0  0  0  0
  9 10  1  0  0  0  0
 10 11  1  6  0  0  0
 12 11  1  6  0  0  0
 12 13  1  0  0  0  0
 13 14  1  0  0  0  0
 14 15  1  6  0  0  0
 16 15  1  0  0  0  0
 16 17  1  0  0  0  0
 18 17  1  6  0  0  0
 18 19  1  0  0  0  0
 19 20  1  0  0  0  0
  3 20  1  0  0  0  0
  3 21  1  6  0  0  0
 21 16  1  0  0  0  0
 14 18  1  0  0  0  0
  3 13  1  0  0  0  0
 10 12  1  0  0  0  0
  4  8  1  0  0  0  0
  7 22  2  0  0  0  0
 20 23  1  6  0  0  0
  6 24  1  0  0  0  0
 25 26  1  0  0  0  0
 10 25  1  0  0  0  0
  9 27  1  1  0  0  0
  8 28  1  1  0  0  0
 19  2  1  1  0  0  0
  4 29  1  6  0  0  0
 13 30  1  1  0  0  0
 31 33  2  0  0  0  0
 33 34  1  0  0  0  0
 34 35  2  0  0  0  0
 35 36  1  0  0  0  0
 36 37  2  0  0  0  0
 37 31  1  0  0  0  0
 18 38  1  0  0  0  0
 38 39  1  0  0  0  0
 38 40  2  0  0  0  0
 16 41  1  0  0  0  0
 41 42  2  0  0  0  0
 42 43  1  0  0  0  0
 43 44  2  0  0  0  0
 44 45  1  0  0  0  0
 45 46  2  0  0  0  0
 46 47  1  0  0  0  0
 47 48  1  0  0  0  0
 48 49  1  0  0  0  0
M  END
>  <cdx:fragmentId>
17

$$$$
