14933483.cdx
  Mrv1902 05222410222D          

 12 11  0  0  0  0            999 V2000
    5.4095  -10.4451    0.0000 C   0  0  0  0  0  0  0  0  0  0  0  0
    4.6950  -10.8576    0.0000 C   0  0  0  0  0  0  0  0  0  0  0  0
    3.9805  -10.4451    0.0000 C   0  0  0  0  0  0  0  0  0  0  0  0
    5.4095   -9.6201    0.0000 O   0  0  0  0  0  0  0  0  0  0  0  0
    6.1239  -10.8576    0.0000 O   0  0  0  0  0  0  0  0  0  0  0  0
    6.8384  -10.4451    0.0000 C   0  0  0  0  0  0  0  0  0  0  0  0
    7.5529  -10.8576    0.0000 C   0  0  0  0  0  0  0  0  0  0  0  0
    8.2674  -10.4451    0.0000 C   0  0  0  0  0  0  0  0  0  0  0  0
    8.9818  -10.8576    0.0000 C   0  0  0  0  0  0  0  0  0  0  0  0
    9.6963  -10.4451    0.0000 C   0  0  0  0  0  0  0  0  0  0  0  0
   10.4108  -10.8576    0.0000 C   0  0  0  0  0  0  0  0  0  0  0  0
    7.5529  -11.6826    0.0000 C   0  0  0  0  0  0  0  0  0  0  0  0
  1  2  1  0  0  0  0
  2  3  1  0  0  0  0
  1  4  2  0  0  0  0
  1  5  1  0  0  0  0
  6  7  1  0  0  0  0
  7  8  1  0  0  0  0
  8  9  1  0  0  0  0
  9 10  1  0  0  0  0
 10 11  1  0  0  0  0
  7 12  1  0  0  0  0
  5  6  1  0  0  0  0
M  END
>  <cdx:fragmentId>
4494

$$$$
