93346.cdx
  Mrv1902 05222410242D          

 15 16  0  0  0  0            999 V2000
    4.6868   -7.7687    0.0000 C   0  0  0  0  0  0  0  0  0  0  0  0
    4.6868   -8.5938    0.0000 C   0  0  0  0  0  0  0  0  0  0  0  0
    5.4013   -9.0062    0.0000 C   0  0  0  0  0  0  0  0  0  0  0  0
    6.1157   -8.5938    0.0000 C   0  0  0  0  0  0  0  0  0  0  0  0
    6.1157   -7.7687    0.0000 C   0  0  0  0  0  0  0  0  0  0  0  0
    5.4013   -7.3563    0.0000 C   0  0  0  0  0  0  0  0  0  0  0  0
    6.8302   -9.0062    0.0000 N   0  0  0  0  0  0  0  0  0  0  0  0
    7.5447   -8.5938    0.0000 C   0  0  0  0  0  0  0  0  0  0  0  0
    7.5447   -7.7687    0.0000 C   0  0  0  0  0  0  0  0  0  0  0  0
    8.2592   -7.3563    0.0000 C   0  0  0  0  0  0  0  0  0  0  0  0
    8.9736   -7.7687    0.0000 C   0  0  0  0  0  0  0  0  0  0  0  0
    8.2592   -6.5313    0.0000 O   0  0  0  0  0  0  0  0  0  0  0  0
    9.6881   -7.3563    0.0000 C   0  0  0  0  0  0  0  0  0  0  0  0
   10.4026   -7.7687    0.0000 C   0  0  0  0  0  0  0  0  0  0  0  0
    9.6881   -6.5313    0.0000 C   0  0  0  0  0  0  0  0  0  0  0  0
  1  2  2  0  0  0  0
  2  3  1  0  0  0  0
  3  4  2  0  0  0  0
  4  5  1  0  0  0  0
  5  6  2  0  0  0  0
  6  1  1  0  0  0  0
  4  7  1  0  0  0  0
  7  8  1  0  0  0  0
  8  9  2  0  0  0  0
  9 10  1  0  0  0  0
 10 11  1  0  0  0  0
 10 12  2  0  0  0  0
 11 13  2  0  0  0  0
 13 14  1  0  0  0  0
 13 15  1  0  0  0  0
  5  9  1  0  0  0  0
M  END
>  <cdx:fragmentId>
5

$$$$
