93345.cdx
  Mrv1902 05222410232D          

 61 60  0  0  0  0            999 V2000
    2.9270   -7.9163    0.0000 C   0  0  0  0  0  0  0  0  0  0  0  0
    3.6413   -8.3287    0.0000 C   0  0  0  0  0  0  0  0  0  0  0  0
    4.3555   -7.9163    0.0000 C   0  0  0  0  0  0  0  0  0  0  0  0
    5.0698   -8.3287    0.0000 C   0  0  0  0  0  0  0  0  0  0  0  0
    5.7840   -7.9163    0.0000 C   0  0  0  0  0  0  0  0  0  0  0  0
    6.4982   -8.3287    0.0000 C   0  0  0  0  0  0  0  0  0  0  0  0
    7.2125   -7.9163    0.0000 C   0  0  0  0  0  0  0  0  0  0  0  0
    7.9267   -8.3287    0.0000 C   0  0  0  0  0  0  0  0  0  0  0  0
    8.6410   -7.9163    0.0000 C   0  0  0  0  0  0  0  0  0  0  0  0
    9.3552   -8.3287    0.0000 C   0  0  0  0  0  0  0  0  0  0  0  0
   10.0695   -7.9163    0.0000 C   0  0  0  0  0  0  0  0  0  0  0  0
   10.7837   -8.3287    0.0000 C   0  0  0  0  0  0  0  0  0  0  0  0
   11.4980   -7.9163    0.0000 C   0  0  0  0  0  0  0  0  0  0  0  0
   12.2122   -8.3287    0.0000 C   0  0  0  0  0  0  0  0  0  0  0  0
   12.9265   -7.9163    0.0000 C   0  0  0  0  0  0  0  0  0  0  0  0
   13.6407   -8.3287    0.0000 C   0  0  0  0  0  0  0  0  0  0  0  0
   14.3550   -7.9163    0.0000 C   0  0  0  0  0  0  0  0  0  0  0  0
   15.0692   -8.3287    0.0000 C   0  0  0  0  0  0  0  0  0  0  0  0
    2.9347   -9.4387    0.0000 C   0  0  0  0  0  0  0  0  0  0  0  0
    3.6490   -9.8510    0.0000 C   0  0  0  0  0  0  0  0  0  0  0  0
    4.3632   -9.4387    0.0000 C   0  0  0  0  0  0  0  0  0  0  0  0
    5.0775   -9.8510    0.0000 C   0  0  0  0  0  0  0  0  0  0  0  0
    5.7917   -9.4387    0.0000 C   0  0  0  0  0  0  0  0  0  0  0  0
    6.5059   -9.8510    0.0000 C   0  0  0  0  0  0  0  0  0  0  0  0
    7.2202   -9.4387    0.0000 C   0  0  0  0  0  0  0  0  0  0  0  0
    7.9344   -9.8510    0.0000 C   0  0  0  0  0  0  0  0  0  0  0  0
    8.6487   -9.4387    0.0000 C   0  0  0  0  0  0  0  0  0  0  0  0
    9.3629   -9.8510    0.0000 C   0  0  0  0  0  0  0  0  0  0  0  0
   10.0772   -9.4387    0.0000 C   0  0  0  0  0  0  0  0  0  0  0  0
   10.7914   -9.8510    0.0000 C   0  0  0  0  0  0  0  0  0  0  0  0
   11.5057   -9.4387    0.0000 C   0  0  0  0  0  0  0  0  0  0  0  0
   12.2199   -9.8510    0.0000 C   0  0  0  0  0  0  0  0  0  0  0  0
   12.9307  -11.0847    0.0000 C   0  0  0  0  0  0  0  0  0  0  0  0
   12.2165  -10.6723    0.0000 C   0  0  0  0  0  0  0  0  0  0  0  0
   11.5022  -11.0847    0.0000 C   0  0  0  0  0  0  0  0  0  0  0  0
   10.7880  -10.6723    0.0000 C   0  0  0  0  0  0  0  0  0  0  0  0
   10.0737  -11.0847    0.0000 C   0  0  0  0  0  0  0  0  0  0  0  0
    9.3595  -10.6723    0.0000 C   0  0  0  0  0  0  0  0  0  0  0  0
    8.6452  -11.0847    0.0000 C   0  0  0  0  0  0  0  0  0  0  0  0
    7.9310  -10.6723    0.0000 C   0  0  0  0  0  0  0  0  0  0  0  0
    7.2168  -11.0847    0.0000 C   0  0  0  0  0  0  0  0  0  0  0  0
    6.5025  -10.6723    0.0000 C   0  0  0  0  0  0  0  0  0  0  0  0
    5.7883  -11.0847    0.0000 C   0  0  0  0  0  0  0  0  0  0  0  0
    5.0740  -10.6723    0.0000 C   0  0  0  0  0  0  0  0  0  0  0  0
    4.3598  -11.0847    0.0000 C   0  0  0  0  0  0  0  0  0  0  0  0
    3.6455  -10.6723    0.0000 C   0  0  0  0  0  0  0  0  0  0  0  0
    2.9313  -11.0847    0.0000 C   0  0  0  0  0  0  0  0  0  0  0  0
    2.2170  -10.6723    0.0000 O   0  0  0  0  0  0  0  0  0  0  0  0
    1.3923  -10.6723    0.0000 C   0  0  0  0  0  0  0  0  0  0  0  0
    1.3923   -9.8476    0.0000 C   0  0  0  0  0  0  0  0  0  0  0  0
    2.2170   -9.8476    0.0000 O   0  0  0  0  0  0  0  0  0  0  0  0
    1.4095   -8.3356    0.0000 C   0  0  0  0  0  0  0  0  0  0  0  0
    2.2342   -8.3356    0.0000 O   0  0  0  0  0  0  0  0  0  0  0  0
    2.9164   -7.1775    0.0000 O   0  0  0  0  0  0  0  0  0  0  0  0
    2.9376   -8.6998    0.0000 O   0  0  0  0  0  0  0  0  0  0  0  0
    2.9313  -11.9094    0.0000 O   0  0  0  0  0  0  0  0  0  0  0  0
   12.9344   -9.4385    0.0000 C   0  0  0  0  0  0  0  0  0  0  0  0
   13.6489   -9.8510    0.0000 C   0  0  0  0  0  0  0  0  0  0  0  0
   14.3633   -9.4385    0.0000 C   0  0  0  0  0  0  0  0  0  0  0  0
   15.0778   -9.8510    0.0000 C   0  0  0  0  0  0  0  0  0  0  0  0
   13.6452  -10.6722    0.0000 C   0  0  0  0  0  0  0  0  0  0  0  0
  1  2  1  0  0  0  0
  2  3  1  0  0  0  0
  3  4  1  0  0  0  0
  4  5  1  0  0  0  0
  5  6  1  0  0  0  0
  6  7  2  0  0  0  0
  7  8  1  0  0  0  0
  8  9  1  0  0  0  0
  9 10  2  0  0  0  0
 10 11  1  0  0  0  0
 11 12  1  0  0  0  0
 12 13  2  0  0  0  0
 13 14  1  0  0  0  0
 14 15  1  0  0  0  0
 15 16  1  0  0  0  0
 16 17  1  0  0  0  0
 17 18  1  0  0  0  0
 19 20  1  0  0  0  0
 20 21  1  0  0  0  0
 21 22  1  0  0  0  0
 22 23  1  0  0  0  0
 23 24  1  0  0  0  0
 24 25  1  0  0  0  0
 25 26  1  0  0  0  0
 26 27  1  0  0  0  0
 27 28  2  0  0  0  0
 28 29  1  0  0  0  0
 29 30  1  0  0  0  0
 30 31  1  0  0  0  0
 31 32  1  0  0  0  0
 34 33  1  0  0  0  0
 35 34  1  0  0  0  0
 36 35  1  0  0  0  0
 37 36  1  0  0  0  0
 38 37  1  0  0  0  0
 39 38  1  0  0  0  0
 40 39  1  0  0  0  0
 41 40  1  0  0  0  0
 42 41  1  0  0  0  0
 43 42  1  0  0  0  0
 44 43  1  0  0  0  0
 45 44  1  0  0  0  0
 46 45  1  0  0  0  0
 47 46  1  0  0  0  0
 48 47  1  0  0  0  0
 48 49  1  0  0  0  0
 49 50  1  0  0  0  0
 50 51  1  0  0  0  0
 50 52  1  0  0  0  0
 52 53  1  0  0  0  0
  1 53  1  0  0  0  0
 19 51  1  0  0  0  0
  1 54  2  0  0  0  0
 19 55  2  0  0  0  0
 47 56  2  0  0  0  0
 32 57  1  0  0  0  0
 57 58  1  0  0  0  0
 58 59  1  0  0  0  0
 59 60  1  0  0  0  0
 33 61  1  0  0  0  0
M  END
>  <cdx:fragmentId>
113

$$$$
