93351.cdx
  Mrv1902 05222410232D          

 36 41  0  0  0  0            999 V2000
    3.8343   -9.6662    0.0000 C   0  0  0  0  0  0  0  0  0  0  0  0
    3.8343  -10.4912    0.0000 C   0  0  0  0  0  0  0  0  0  0  0  0
    4.5488  -10.9038    0.0000 C   0  0  1  0  0  0  0  0  0  0  0  0
    5.2632  -10.4912    0.0000 C   0  0  0  0  0  0  0  0  0  0  0  0
    5.2632   -9.6662    0.0000 C   0  0  2  0  0  0  0  0  0  0  0  0
    4.5488   -9.2538    0.0000 C   0  0  0  0  0  0  0  0  0  0  0  0
    5.9777  -10.9038    0.0000 C   0  0  0  0  0  0  0  0  0  0  0  0
    6.6922  -10.4912    0.0000 C   0  0  0  0  0  0  0  0  0  0  0  0
    6.6922   -9.6662    0.0000 C   0  0  2  0  0  0  0  0  0  0  0  0
    5.9777   -9.2538    0.0000 C   0  0  0  0  0  0  0  0  0  0  0  0
    7.4067   -9.2538    0.0000 C   0  0  1  0  0  0  0  0  0  0  0  0
    7.4067   -8.4288    0.0000 C   0  0  2  0  0  0  0  0  0  0  0  0
    6.6922   -8.0162    0.0000 C   0  0  0  0  0  0  0  0  0  0  0  0
    5.9777   -8.4288    0.0000 C   0  0  2  0  0  0  0  0  0  0  0  0
    8.1211   -9.6662    0.0000 C   0  0  0  0  0  0  0  0  0  0  0  0
    8.8356   -9.2538    0.0000 C   0  0  0  0  0  0  0  0  0  0  0  0
    8.8356   -8.4288    0.0000 C   0  0  2  0  0  0  0  0  0  0  0  0
    8.1211   -8.0162    0.0000 C   0  0  1  0  0  0  0  0  0  0  0  0
    9.5501   -8.0162    0.0000 C   0  0  0  0  0  0  0  0  0  0  0  0
    9.5501   -7.1913    0.0000 C   0  0  1  0  0  0  0  0  0  0  0  0
    8.8356   -6.7788    0.0000 C   0  0  1  0  0  0  0  0  0  0  0  0
    8.1211   -7.1913    0.0000 C   0  0  0  0  0  0  0  0  0  0  0  0
    3.1198  -10.9038    0.0000 O   0  0  0  0  0  0  0  0  0  0  0  0
    7.4067   -7.6037    0.0000 O   0  0  0  0  0  0  0  0  0  0  0  0
    8.8356   -7.6037    0.0000 C   0  0  0  0  0  0  0  0  0  0  0  0
    9.2481   -6.8893    0.0000 O   0  0  0  0  0  0  0  0  0  0  0  0
    4.1363  -11.6182    0.0000 C   0  0  0  0  0  0  0  0  0  0  0  0
    5.2632   -8.8413    0.0000 C   0  0  0  0  0  0  0  0  0  0  0  0
    6.6922   -8.8413    0.0000 C   0  0  0  0  0  0  0  0  0  0  0  0
    8.1211   -8.8413    0.0000 H   0  0  0  0  0  0  0  0  0  0  0  0
   10.2645   -6.7788    0.0000 O   0  0  0  0  0  0  0  0  0  0  0  0
    8.4231   -6.0643    0.0000 C   0  0  0  0  0  0  0  0  0  0  0  0
    4.9613  -11.6182    0.0000 C   0  0  0  0  0  0  0  0  0  0  0  0
    7.4067  -10.0787    0.0000 C   0  0  0  0  0  0  0  0  0  0  0  0
    9.2481   -6.0643    0.0000 C   0  0  0  0  0  0  0  0  0  0  0  0
    5.2632   -8.0162    0.0000 O   0  0  0  0  0  0  0  0  0  0  0  0
  1  2  1  0  0  0  0
  2  3  1  0  0  0  0
  3  4  1  0  0  0  0
  4  5  1  0  0  0  0
  5  6  1  0  0  0  0
  6  1  1  0  0  0  0
  4  7  1  0  0  0  0
  7  8  1  0  0  0  0
  8  9  1  0  0  0  0
  9 10  1  0  0  0  0
 10  5  1  0  0  0  0
  9 11  1  0  0  0  0
 11 12  1  0  0  0  0
 12 13  1  0  0  0  0
 13 14  1  0  0  0  0
 14 10  1  0  0  0  0
 11 15  1  0  0  0  0
 15 16  1  0  0  0  0
 16 17  1  0  0  0  0
 17 18  1  0  0  0  0
 18 12  1  0  0  0  0
 17 19  1  0  0  0  0
 19 20  1  0  0  0  0
 20 21  1  0  0  0  0
 21 22  1  0  0  0  0
 22 18  1  0  0  0  0
  2 23  2  0  0  0  0
 12 24  1  1  0  0  0
 17 25  1  1  0  0  0
 24 25  1  0  0  0  0
 25 26  2  0  0  0  0
  3 27  1  1  0  0  0
  5 28  1  1  0  0  0
  9 29  1  1  0  0  0
 18 30  1  1  0  0  0
 20 31  1  1  0  0  0
 21 32  1  1  0  0  0
  3 33  1  6  0  0  0
 11 34  1  6  0  0  0
 21 35  1  6  0  0  0
 14 36  1  1  0  0  0
M  END
>  <cdx:fragmentId>
5

$$$$
