93353.cdx
  Mrv1902 05222410242D          

 21 22  0  0  0  0            999 V2000
    1.6206   -6.5725    0.0000 C   0  0  0  0  0  0  0  0  0  0  0  0
    1.6206   -7.3975    0.0000 C   0  0  0  0  0  0  0  0  0  0  0  0
    2.3350   -7.8100    0.0000 C   0  0  0  0  0  0  0  0  0  0  0  0
    3.0495   -7.3975    0.0000 C   0  0  0  0  0  0  0  0  0  0  0  0
    3.0495   -6.5725    0.0000 C   0  0  0  0  0  0  0  0  0  0  0  0
    2.3350   -6.1600    0.0000 C   0  0  0  0  0  0  0  0  0  0  0  0
    3.7640   -7.8100    0.0000 C   0  0  0  0  0  0  0  0  0  0  0  0
    4.4784   -7.3975    0.0000 C   0  0  0  0  0  0  0  0  0  0  0  0
    5.1929   -7.8100    0.0000 C   0  0  0  0  0  0  0  0  0  0  0  0
    5.9074   -7.3975    0.0000 O   0  0  0  0  0  0  0  0  0  0  0  0
    5.1929   -8.6350    0.0000 O   0  0  0  0  0  0  0  0  0  0  0  0
    6.6219   -7.8100    0.0000 C   0  0  0  0  0  0  0  0  0  0  0  0
    7.3363   -7.3975    0.0000 C   0  0  0  0  0  0  0  0  0  0  0  0
    8.0508   -7.8100    0.0000 C   0  0  0  0  0  0  0  0  0  0  0  0
    8.7653   -7.3975    0.0000 C   0  0  0  0  0  0  0  0  0  0  0  0
    9.4797   -7.8100    0.0000 C   0  0  0  0  0  0  0  0  0  0  0  0
   10.1942   -7.3975    0.0000 C   0  0  0  0  0  0  0  0  0  0  0  0
   10.1942   -6.5725    0.0000 C   0  0  0  0  0  0  0  0  0  0  0  0
    9.4797   -6.1600    0.0000 C   0  0  0  0  0  0  0  0  0  0  0  0
    8.7653   -6.5725    0.0000 C   0  0  0  0  0  0  0  0  0  0  0  0
   10.9087   -6.1600    0.0000 O   0  0  0  0  0  0  0  0  0  0  0  0
  1  2  2  0  0  0  0
  2  3  1  0  0  0  0
  3  4  2  0  0  0  0
  4  5  1  0  0  0  0
  5  6  2  0  0  0  0
  6  1  1  0  0  0  0
  4  7  1  0  0  0  0
  7  8  2  0  0  0  0
  8  9  1  0  0  0  0
  9 10  1  0  0  0  0
  9 11  2  0  0  0  0
 10 12  1  0  0  0  0
 12 13  1  0  0  0  0
 13 14  2  0  0  0  0
 14 15  1  0  0  0  0
 15 16  2  0  0  0  0
 16 17  1  0  0  0  0
 17 18  2  0  0  0  0
 18 19  1  0  0  0  0
 19 20  2  0  0  0  0
 20 15  1  0  0  0  0
 18 21  1  0  0  0  0
M  END
>  <cdx:fragmentId>
5

$$$$
