93358.cdx
  Mrv1902 05222410212D          

 69 77  0  0  0  0            999 V2000
    9.2624   -5.7225    0.0000 C   0  0  0  0  0  0  0  0  0  0  0  0
    9.7991   -5.0960    0.0000 C   0  0  0  0  0  0  0  0  0  0  0  0
    9.5249   -4.3179    0.0000 C   0  0  0  0  0  0  0  0  0  0  0  0
   10.0617   -3.6913    0.0000 C   0  0  0  0  0  0  0  0  0  0  0  0
   10.8727   -3.8429    0.0000 C   0  0  0  0  0  0  0  0  0  0  0  0
   11.1469   -4.6210    0.0000 C   0  0  0  0  0  0  0  0  0  0  0  0
   10.6101   -5.2476    0.0000 C   0  0  0  0  0  0  0  0  0  0  0  0
    9.5366   -6.5006    0.0000 O   0  0  0  0  0  0  0  0  0  0  0  0
    8.4514   -5.5709    0.0000 O   0  0  0  0  0  0  0  0  0  0  0  0
   11.9578   -4.7726    0.0000 O   0  0  0  0  0  0  0  0  0  0  0  0
   11.4094   -3.2164    0.0000 O   0  0  0  0  0  0  0  0  0  0  0  0
    9.7875   -2.9132    0.0000 O   0  0  0  0  0  0  0  0  0  0  0  0
    8.6326  -11.0482    0.0000 C   0  0  0  0  0  0  0  0  0  0  0  0
    9.0004  -10.3097    0.0000 C   0  0  0  0  0  0  0  0  0  0  0  0
    9.6737  -10.7863    0.0000 C   0  0  0  0  0  0  0  0  0  0  0  0
   10.4232  -10.4415    0.0000 C   0  0  0  0  0  0  0  0  0  0  0  0
   10.4993   -9.6200    0.0000 C   0  0  0  0  0  0  0  0  0  0  0  0
    9.8260   -9.1434    0.0000 C   0  0  0  0  0  0  0  0  0  0  0  0
    9.0765   -9.4882    0.0000 C   0  0  0  0  0  0  0  0  0  0  0  0
    8.8507   -8.6947    0.0000 C   0  0  0  0  0  0  0  0  0  0  0  0
    8.3535   -8.0363    0.0000 O   0  0  0  0  0  0  0  0  0  0  0  0
    7.6521   -7.6020    0.0000 C   0  0  1  0  0  0  0  0  0  0  0  0
    8.1889   -6.9755    0.0000 C   0  0  1  0  0  0  0  0  0  0  0  0
    7.9147   -6.1974    0.0000 C   0  0  2  0  0  0  0  0  0  0  0  0
    7.1037   -6.0458    0.0000 C   0  0  1  0  0  0  0  0  0  0  0  0
    6.5670   -6.6723    0.0000 O   0  0  0  0  0  0  0  0  0  0  0  0
    6.8411   -7.4504    0.0000 C   0  0  2  0  0  0  0  0  0  0  0  0
    5.7200   -7.6450    0.0000 C   0  0  0  0  0  0  0  0  0  0  0  0
    4.8950   -8.2225    0.0000 O   0  0  0  0  0  0  0  0  0  0  0  0
    4.3450   -8.9375    0.0000 C   0  0  0  0  0  0  0  0  0  0  0  0
    4.2758   -9.8457    0.0000 C   0  0  0  0  0  0  0  0  0  0  0  0
    3.5263   -9.5009    0.0000 C   0  0  0  0  0  0  0  0  0  0  0  0
    2.8530   -9.9775    0.0000 C   0  0  0  0  0  0  0  0  0  0  0  0
    2.9291  -10.7990    0.0000 C   0  0  0  0  0  0  0  0  0  0  0  0
    3.6786  -11.1438    0.0000 C   0  0  0  0  0  0  0  0  0  0  0  0
    4.3519  -10.6672    0.0000 C   0  0  0  0  0  0  0  0  0  0  0  0
    3.6305   -8.5250    0.0000 O   0  0  0  0  0  0  0  0  0  0  0  0
    9.5652   -8.2822    0.0000 O   0  0  0  0  0  0  0  0  0  0  0  0
    3.7547  -11.9653    0.0000 O   0  0  0  0  0  0  0  0  0  0  0  0
    2.2557  -11.2757    0.0000 O   0  0  0  0  0  0  0  0  0  0  0  0
    2.1035   -9.6327    0.0000 O   0  0  0  0  0  0  0  0  0  0  0  0
    6.8295   -5.2677    0.0000 O   0  0  0  0  0  0  0  0  0  0  0  0
    8.9998   -7.1271    0.0000 O   0  0  0  0  0  0  0  0  0  0  0  0
   11.2488   -9.2752    0.0000 O   0  0  0  0  0  0  0  0  0  0  0  0
   11.0966  -10.9182    0.0000 O   0  0  0  0  0  0  0  0  0  0  0  0
    9.5976  -11.6078    0.0000 O   0  0  0  0  0  0  0  0  0  0  0  0
    8.4673   -7.4754    0.0000 H   0  0  0  0  0  0  0  0  0  0  0  0
    6.1267   -7.0379    0.0000 H   0  0  0  0  0  0  0  0  0  0  0  0
    8.6319  -10.1924    0.0000 C   0  0  0  0  0  0  0  0  0  0  0  0
    7.9215   -9.7729    0.0000 C   0  0  0  0  0  0  0  0  0  0  0  0
    7.2030  -10.1785    0.0000 C   0  0  0  0  0  0  0  0  0  0  0  0
    7.1950  -11.0034    0.0000 C   0  0  0  0  0  0  0  0  0  0  0  0
    7.9054  -11.4229    0.0000 C   0  0  0  0  0  0  0  0  0  0  0  0
    6.4926   -9.7590    0.0000 O   0  0  0  0  0  0  0  0  0  0  0  0
    5.7741  -10.1646    0.0000 C   0  0  0  0  0  0  0  0  0  0  0  0
    5.7661  -10.9895    0.0000 C   0  0  0  0  0  0  0  0  0  0  0  0
    6.4765  -11.4090    0.0000 C   0  0  0  0  0  0  0  0  0  0  0  0
    6.4685  -12.2339    0.0000 C   0  0  0  0  0  0  0  0  0  0  0  0
    7.1789  -12.6533    0.0000 O   0  0  0  0  0  0  0  0  0  0  0  0
    7.8974  -12.2478    0.0000 C   0  0  0  0  0  0  0  0  0  0  0  0
    5.0477  -11.3951    0.0000 C   0  0  0  0  0  0  0  0  0  0  0  0
    5.0396  -12.2200    0.0000 C   0  0  0  0  0  0  0  0  0  0  0  0
    5.7501  -12.6394    0.0000 C   0  0  0  0  0  0  0  0  0  0  0  0
    5.0637   -9.7451    0.0000 O   0  0  0  0  0  0  0  0  0  0  0  0
    8.6078  -12.6673    0.0000 O   0  0  0  0  0  0  0  0  0  0  0  0
    4.3212  -12.6255    0.0000 O   0  0  0  0  0  0  0  0  0  0  0  0
    5.7420  -13.4644    0.0000 O   0  0  0  0  0  0  0  0  0  0  0  0
    7.9295   -8.9480    0.0000 O   0  0  0  0  0  0  0  0  0  0  0  0
    9.3482   -9.7830    0.0000 O   0  0  0  0  0  0  0  0  0  0  0  0
  1  2  1  0  0  0  0
  2  3  1  0  0  0  0
  3  4  2  0  0  0  0
  4  5  1  0  0  0  0
  5  6  2  0  0  0  0
  6  7  1  0  0  0  0
  2  7  2  0  0  0  0
  1  8  2  0  0  0  0
  1  9  1  0  0  0  0
  6 10  1  0  0  0  0
  5 11  1  0  0  0  0
  4 12  1  0  0  0  0
 13 14  1  0  0  0  0
 14 15  2  0  0  0  0
 15 16  1  0  0  0  0
 16 17  2  0  0  0  0
 17 18  1  0  0  0  0
 18 19  2  0  0  0  0
 19 20  1  0  0  0  0
 20 21  1  0  0  0  0
 21 22  1  0  0  0  0
 22 23  1  0  0  0  0
 23 24  1  0  0  0  0
 24 25  1  0  0  0  0
 25 26  1  0  0  0  0
 26 27  1  0  0  0  0
 27 28  1  0  0  0  0
 28 29  1  0  0  0  0
 29 30  1  0  0  0  0
 30 31  1  0  0  0  0
 31 32  2  0  0  0  0
 32 33  1  0  0  0  0
 33 34  2  0  0  0  0
 34 35  1  0  0  0  0
 35 36  2  0  0  0  0
 31 36  1  0  0  0  0
 22 27  1  0  0  0  0
 14 19  1  0  0  0  0
 30 37  2  0  0  0  0
 20 38  2  0  0  0  0
 35 39  1  0  0  0  0
 34 40  1  0  0  0  0
 33 41  1  0  0  0  0
 25 42  1  1  0  0  0
 23 43  1  1  0  0  0
 17 44  1  0  0  0  0
 16 45  1  0  0  0  0
 15 46  1  0  0  0  0
 24  9  1  6  0  0  0
 22 47  1  1  0  0  0
 27 48  1  6  0  0  0
 49 50  1  0  0  0  0
 50 51  2  0  0  0  0
 51 52  1  0  0  0  0
 52 53  2  0  0  0  0
 51 54  1  0  0  0  0
 54 55  1  0  0  0  0
 55 56  1  0  0  0  0
 56 57  2  0  0  0  0
 57 52  1  0  0  0  0
 57 58  1  0  0  0  0
 58 59  1  0  0  0  0
 59 60  1  0  0  0  0
 60 53  1  0  0  0  0
 56 61  1  0  0  0  0
 61 62  2  0  0  0  0
 62 63  1  0  0  0  0
 63 58  2  0  0  0  0
 13 49  2  0  0  0  0
 13 53  1  0  0  0  0
 36 61  1  0  0  0  0
 55 64  2  0  0  0  0
 60 65  2  0  0  0  0
 62 66  1  0  0  0  0
 63 67  1  0  0  0  0
 50 68  1  0  0  0  0
 49 69  1  0  0  0  0
M  END
>  <cdx:fragmentId>
29

$$$$
