93352.cdx
  Mrv1902 05222410242D          

 45 49  0  0  0  0            999 V2000
    6.8256   -3.8310    0.0000 C   0  0  0  0  0  0  0  0  0  0  0  0
    6.8256   -4.6560    0.0000 C   0  0  0  0  0  0  0  0  0  0  0  0
    6.1112   -5.0685    0.0000 C   0  0  0  0  0  0  0  0  0  0  0  0
    6.1112   -5.8935    0.0000 O   0  0  0  0  0  0  0  0  0  0  0  0
    5.3967   -4.6560    0.0000 C   0  0  0  0  0  0  0  0  0  0  0  0
    4.6822   -5.0685    0.0000 C   0  0  0  0  0  0  0  0  0  0  0  0
    4.6822   -5.8935    0.0000 O   0  0  0  0  0  0  0  0  0  0  0  0
    3.9678   -4.6560    0.0000 C   0  0  0  0  0  0  0  0  0  0  0  0
    3.2533   -5.0685    0.0000 O   0  0  0  0  0  0  0  0  0  0  0  0
    2.5388   -4.6560    0.0000 C   0  0  0  0  0  0  0  0  0  0  0  0
    3.9678   -3.8310    0.0000 C   0  0  0  0  0  0  0  0  0  0  0  0
    3.2533   -3.4185    0.0000 O   0  0  0  0  0  0  0  0  0  0  0  0
    4.6822   -3.4185    0.0000 C   0  0  0  0  0  0  0  0  0  0  0  0
    5.3967   -3.8310    0.0000 C   0  0  0  0  0  0  0  0  0  0  0  0
    6.1112   -3.4185    0.0000 O   0  0  0  0  0  0  0  0  0  0  0  0
    7.5401   -3.4185    0.0000 C   0  0  0  0  0  0  0  0  0  0  0  0
    8.2546   -3.8310    0.0000 C   0  0  0  0  0  0  0  0  0  0  0  0
    8.9690   -3.4185    0.0000 C   0  0  0  0  0  0  0  0  0  0  0  0
    8.9690   -2.5935    0.0000 C   0  0  0  0  0  0  0  0  0  0  0  0
    9.6835   -2.1810    0.0000 O   0  0  0  0  0  0  0  0  0  0  0  0
    8.2546   -2.1810    0.0000 C   0  0  0  0  0  0  0  0  0  0  0  0
    7.5401   -2.5935    0.0000 C   0  0  0  0  0  0  0  0  0  0  0  0
    7.5401   -5.0685    0.0000 O   0  0  0  0  0  0  0  0  0  0  0  0
    7.5401   -5.8935    0.0000 C   0  0  1  0  0  0  0  0  0  0  0  0
    8.2546   -6.3060    0.0000 C   0  0  2  0  0  0  0  0  0  0  0  0
    8.9690   -5.8935    0.0000 O   0  0  0  0  0  0  0  0  0  0  0  0
    8.2546   -7.1310    0.0000 C   0  0  1  0  0  0  0  0  0  0  0  0
    8.9690   -7.5435    0.0000 O   0  0  0  0  0  0  0  0  0  0  0  0
    7.5401   -7.5435    0.0000 C   0  0  2  0  0  0  0  0  0  0  0  0
    7.5401   -8.3685    0.0000 O   0  0  0  0  0  0  0  0  0  0  0  0
    6.8256   -7.1310    0.0000 C   0  0  2  0  0  0  0  0  0  0  0  0
    6.8256   -6.3060    0.0000 O   0  0  0  0  0  0  0  0  0  0  0  0
    6.1112   -7.5435    0.0000 C   0  0  0  0  0  0  0  0  0  0  0  0
    6.1112   -8.3685    0.0000 O   0  0  0  0  0  0  0  0  0  0  0  0
    9.6829   -7.1476    0.0000 O   0  0  0  0  0  0  0  0  0  0  0  0
    9.6907   -6.3226    0.0000 C   0  0  2  0  0  0  0  0  0  0  0  0
   10.3935   -7.5668    0.0000 C   0  0  2  0  0  0  0  0  0  0  0  0
   11.1118   -7.1611    0.0000 C   0  0  1  0  0  0  0  0  0  0  0  0
   11.1196   -6.3361    0.0000 C   0  0  2  0  0  0  0  0  0  0  0  0
   10.4091   -5.9169    0.0000 C   0  0  1  0  0  0  0  0  0  0  0  0
   10.3857   -8.3918    0.0000 C   0  0  0  0  0  0  0  0  0  0  0  0
   11.8223   -7.5803    0.0000 O   0  0  0  0  0  0  0  0  0  0  0  0
   11.8380   -5.9304    0.0000 O   0  0  0  0  0  0  0  0  0  0  0  0
   10.4169   -5.0919    0.0000 O   0  0  0  0  0  0  0  0  0  0  0  0
    8.2546   -1.3560    0.0000 O   0  0  0  0  0  0  0  0  0  0  0  0
  1  2  2  0  0  0  0
  2  3  1  0  0  0  0
  3  4  2  0  0  0  0
  3  5  1  0  0  0  0
  5  6  1  0  0  0  0
  6  7  1  0  0  0  0
  6  8  2  0  0  0  0
  8  9  1  0  0  0  0
  9 10  1  0  0  0  0
  8 11  1  0  0  0  0
 11 12  1  0  0  0  0
 11 13  2  0  0  0  0
 13 14  1  0  0  0  0
  5 14  2  0  0  0  0
 14 15  1  0  0  0  0
  1 15  1  0  0  0  0
  1 16  1  0  0  0  0
 16 17  1  0  0  0  0
 17 18  2  0  0  0  0
 18 19  1  0  0  0  0
 19 20  1  0  0  0  0
 19 21  2  0  0  0  0
 21 22  1  0  0  0  0
 16 22  2  0  0  0  0
 24 23  1  1  0  0  0
 25 26  1  6  0  0  0
 25 24  1  0  0  0  0
 27 28  1  1  0  0  0
 27 25  1  0  0  0  0
 29 30  1  6  0  0  0
 29 27  1  0  0  0  0
 31 32  1  0  0  0  0
 31 29  1  0  0  0  0
 33 34  1  0  0  0  0
 31 33  1  1  0  0  0
 24 32  1  0  0  0  0
  2 23  1  0  0  0  0
 35 36  1  0  0  0  0
 35 37  1  0  0  0  0
 37 38  1  0  0  0  0
 38 39  1  0  0  0  0
 39 40  1  0  0  0  0
 40 36  1  0  0  0  0
 37 41  1  6  0  0  0
 38 42  1  1  0  0  0
 39 43  1  6  0  0  0
 40 44  1  6  0  0  0
 36 26  1  1  0  0  0
 21 45  1  0  0  0  0
M  END
>  <cdx:fragmentId>
5

$$$$
