93354.cdx
  Mrv1902 05222410252D          

 24 25  0  0  0  0            999 V2000
    4.5149   -6.1737    0.0000 C   0  0  0  0  0  0  0  0  0  0  0  0
    4.5149   -6.9988    0.0000 C   0  0  0  0  0  0  0  0  0  0  0  0
    5.2294   -7.4112    0.0000 C   0  0  0  0  0  0  0  0  0  0  0  0
    5.9439   -6.9988    0.0000 C   0  0  0  0  0  0  0  0  0  0  0  0
    5.9439   -6.1737    0.0000 C   0  0  0  0  0  0  0  0  0  0  0  0
    5.2294   -5.7612    0.0000 C   0  0  0  0  0  0  0  0  0  0  0  0
    7.3728   -6.9988    0.0000 N   0  0  0  0  0  0  0  0  0  0  0  0
    7.3728   -6.1737    0.0000 C   0  0  0  0  0  0  0  0  0  0  0  0
    6.6583   -5.7612    0.0000 C   0  0  0  0  0  0  0  0  0  0  0  0
    8.0873   -7.4112    0.0000 C   0  0  0  0  0  0  0  0  0  0  0  0
    8.8018   -6.9988    0.0000 O   0  0  0  0  0  0  0  0  0  0  0  0
    8.8018   -6.1737    0.0000 O   0  0  0  0  0  0  0  0  0  0  0  0
    8.0873   -5.7612    0.0000 C   0  0  0  0  0  0  0  0  0  0  0  0
    7.3728   -8.6487    0.0000 C   0  0  0  0  0  0  0  0  0  0  0  0
    8.0873   -8.2363    0.0000 C   0  0  0  0  0  0  0  0  0  0  0  0
    7.3728   -9.4738    0.0000 C   0  0  0  0  0  0  0  0  0  0  0  0
    8.0873   -9.8862    0.0000 C   0  0  0  0  0  0  0  0  0  0  0  0
    6.6583   -9.8862    0.0000 C   0  0  0  0  0  0  0  0  0  0  0  0
    6.6583  -10.7112    0.0000 C   0  0  0  0  0  0  0  0  0  0  0  0
    7.3728  -11.1237    0.0000 C   0  0  0  0  0  0  0  0  0  0  0  0
    8.0873  -10.7112    0.0000 C   0  0  0  0  0  0  0  0  0  0  0  0
    7.3728  -11.9487    0.0000 O   0  0  0  0  0  0  0  0  0  0  0  0
    3.8005   -7.4112    0.0000 O   0  0  0  0  0  0  0  0  0  0  0  0
    8.0873   -4.9363    0.0000 O   0  0  0  0  0  0  0  0  0  0  0  0
  1  2  2  0  0  0  0
  2  3  1  0  0  0  0
  3  4  2  0  0  0  0
  4  5  1  0  0  0  0
  5  6  2  0  0  0  0
  6  1  1  0  0  0  0
  7  8  1  0  0  0  0
  8  9  1  0  0  0  0
  9  5  1  0  0  0  0
  7 10  1  0  0  0  0
 10 11  2  0  0  0  0
 12 13  1  0  0  0  0
 13  8  1  0  0  0  0
 14 15  2  0  0  0  0
 15 10  1  0  0  0  0
 14 16  1  0  0  0  0
 16 17  2  0  0  0  0
 16 18  1  0  0  0  0
 18 19  2  0  0  0  0
 19 20  1  0  0  0  0
 20 21  2  0  0  0  0
 21 17  1  0  0  0  0
 20 22  1  0  0  0  0
  2 23  1  0  0  0  0
 13 24  2  0  0  0  0
M  END
>  <cdx:fragmentId>
5

$$$$
