93367.cdx
  Mrv1902 05222410212D          

 55 62  0  0  0  0            999 V2000
   11.6488   -9.3744    0.0000 C   0  0  1  0  0  0  0  0  0  0  0  0
   12.3602   -8.9568    0.0000 C   0  0  2  0  0  0  0  0  0  0  0  0
   13.1467   -9.2060    0.0000 C   0  0  0  0  0  0  0  0  0  0  0  0
   13.6268   -8.5351    0.0000 C   0  0  2  0  0  0  0  0  0  0  0  0
   14.4095   -8.2745    0.0000 O   0  0  0  0  0  0  0  0  0  0  0  0
   14.4036   -7.4495    0.0000 C   0  0  2  0  0  0  0  0  0  0  0  0
   13.6171   -7.2003    0.0000 C   0  0  2  0  0  0  0  0  0  0  0  0
   13.1370   -7.8712    0.0000 C   0  0  2  0  0  0  0  0  0  0  0  0
   12.3543   -8.1318    0.0000 C   0  0  1  0  0  0  0  0  0  0  0  0
   11.6369   -7.7244    0.0000 C   0  0  0  0  0  0  0  0  0  0  0  0
   10.9254   -8.1421    0.0000 C   0  0  0  0  0  0  0  0  0  0  0  0
   10.9313   -8.9671    0.0000 C   0  0  2  0  0  0  0  0  0  0  0  0
   10.2199   -9.3847    0.0000 C   0  0  1  0  0  0  0  0  0  0  0  0
    9.5024   -8.9774    0.0000 C   0  0  0  0  0  0  0  0  0  0  0  0
    8.7910   -9.3950    0.0000 C   0  0  0  0  0  0  0  0  0  0  0  0
    8.7969  -10.2200    0.0000 C   0  0  1  0  0  0  0  0  0  0  0  0
    9.5143  -10.6273    0.0000 C   0  0  0  0  0  0  0  0  0  0  0  0
   10.2258  -10.2097    0.0000 C   0  0  0  0  0  0  0  0  0  0  0  0
   10.9433  -10.6170    0.0000 C   0  0  0  0  0  0  0  0  0  0  0  0
   11.6547  -10.1994    0.0000 C   0  0  0  0  0  0  0  0  0  0  0  0
   14.3114   -6.6297    0.0000 O   0  0  0  0  0  0  0  0  0  0  0  0
   15.1597   -7.7796    0.0000 C   0  0  0  0  0  0  0  0  0  0  0  0
   15.8236   -7.2899    0.0000 C   0  0  0  0  0  0  0  0  0  0  0  0
   15.7314   -6.4701    0.0000 C   0  0  2  0  0  0  0  0  0  0  0  0
   14.9753   -6.1400    0.0000 C   0  0  0  0  0  0  0  0  0  0  0  0
    8.0854  -10.6377    0.0000 O   0  0  0  0  0  0  0  0  0  0  0  0
   10.2139   -8.5597    0.0000 C   0  0  0  0  0  0  0  0  0  0  0  0
   12.3543   -7.3068    0.0000 C   0  0  0  0  0  0  0  0  0  0  0  0
   13.3565   -6.4175    0.0000 C   0  0  0  0  0  0  0  0  0  0  0  0
   16.3953   -5.9803    0.0000 C   0  0  0  0  0  0  0  0  0  0  0  0
   11.6428   -8.5494    0.0000 H   0  0  0  0  0  0  0  0  0  0  0  0
   14.1165   -9.1990    0.0000 H   0  0  0  0  0  0  0  0  0  0  0  0
   12.7700   -7.1323    0.0000 O   0  0  0  0  0  0  0  0  0  0  0  0
   10.9373   -9.7920    0.0000 H   0  0  0  0  0  0  0  0  0  0  0  0
    7.3680  -10.2303    0.0000 C   0  0  2  0  0  0  0  0  0  0  0  0
    7.3591   -9.4054    0.0000 O   0  0  0  0  0  0  0  0  0  0  0  0
    6.6402   -9.0007    0.0000 C   0  0  1  0  0  0  0  0  0  0  0  0
    5.9302   -9.4054    0.0000 C   0  0  2  0  0  0  0  0  0  0  0  0
    5.9302  -10.2303    0.0000 C   0  0  1  0  0  0  0  0  0  0  0  0
    6.6402  -10.6350    0.0000 C   0  0  1  0  0  0  0  0  0  0  0  0
    6.6379   -8.1757    0.0000 C   0  0  0  0  0  0  0  0  0  0  0  0
    5.2169  -10.6448    0.0000 O   0  0  0  0  0  0  0  0  0  0  0  0
    6.6358  -11.4600    0.0000 O   0  0  0  0  0  0  0  0  0  0  0  0
    5.2169   -8.9909    0.0000 O   0  0  0  0  0  0  0  0  0  0  0  0
    5.9235   -7.7632    0.0000 O   0  0  0  0  0  0  0  0  0  0  0  0
   12.3662   -9.7817    0.0000 H   0  0  0  0  0  0  0  0  0  0  0  0
    4.3919   -8.9910    0.0000 C   0  0  2  0  0  0  0  0  0  0  0  0
    3.9069   -8.3235    0.0000 O   0  0  0  0  0  0  0  0  0  0  0  0
    3.1223   -8.5785    0.0000 C   0  0  2  0  0  0  0  0  0  0  0  0
    3.1223   -9.4035    0.0000 C   0  0  1  0  0  0  0  0  0  0  0  0
    3.9069   -9.6584    0.0000 C   0  0  1  0  0  0  0  0  0  0  0  0
    4.1619  -10.4430    0.0000 O   0  0  0  0  0  0  0  0  0  0  0  0
    2.4549   -9.8884    0.0000 O   0  0  0  0  0  0  0  0  0  0  0  0
    2.4549   -8.0935    0.0000 C   0  0  0  0  0  0  0  0  0  0  0  0
    1.7012   -8.4291    0.0000 O   0  0  0  0  0  0  0  0  0  0  0  0
  1  2  1  0  0  0  0
  2  3  1  0  0  0  0
  3  4  1  0  0  0  0
  4  5  1  0  0  0  0
  6  5  1  6  0  0  0
  6  7  1  0  0  0  0
  7  8  1  0  0  0  0
  8  9  1  0  0  0  0
  9 10  1  0  0  0  0
 10 11  1  0  0  0  0
 11 12  1  0  0  0  0
 12 13  1  0  0  0  0
 13 14  1  0  0  0  0
 14 15  1  0  0  0  0
 15 16  1  0  0  0  0
 16 17  1  0  0  0  0
 17 18  1  0  0  0  0
 18 19  2  0  0  0  0
 19 20  1  0  0  0  0
  1 20  1  0  0  0  0
  1 12  1  0  0  0  0
 13 18  1  0  0  0  0
  2  9  1  0  0  0  0
  4  8  1  0  0  0  0
 22 23  1  0  0  0  0
 23 24  1  0  0  0  0
 24 25  1  0  0  0  0
 21 25  1  0  0  0  0
  6 21  1  0  0  0  0
  6 22  1  0  0  0  0
 16 26  1  1  0  0  0
 13 27  1  1  0  0  0
  9 28  1  1  0  0  0
  7 29  1  6  0  0  0
 24 30  1  6  0  0  0
  1 31  1  1  0  0  0
  4 32  1  6  0  0  0
  8 33  1  6  0  0  0
 12 34  1  6  0  0  0
 35 26  1  1  0  0  0
 35 36  1  0  0  0  0
 36 37  1  0  0  0  0
 37 38  1  0  0  0  0
 38 39  1  0  0  0  0
 39 40  1  0  0  0  0
 40 35  1  0  0  0  0
 37 41  1  1  0  0  0
 39 42  1  1  0  0  0
 40 43  1  6  0  0  0
 38 44  1  6  0  0  0
 41 45  1  0  0  0  0
  2 46  1  6  0  0  0
 47 44  1  1  0  0  0
 47 48  1  0  0  0  0
 48 49  1  0  0  0  0
 49 50  1  0  0  0  0
 50 51  1  0  0  0  0
 51 47  1  0  0  0  0
 51 52  1  6  0  0  0
 50 53  1  1  0  0  0
 49 54  1  6  0  0  0
 54 55  1  0  0  0  0
M  END
>  <cdx:fragmentId>
400

$$$$
