93362.cdx
  Mrv1902 05222410222D          

 74 83  0  0  0  0            999 V2000
   15.8013   -7.5869    0.0000 C   0  0  1  0  0  0  0  0  0  0  0  0
   16.5127   -7.1693    0.0000 C   0  0  2  0  0  0  0  0  0  0  0  0
   17.2992   -7.4185    0.0000 C   0  0  0  0  0  0  0  0  0  0  0  0
   17.7793   -6.7476    0.0000 C   0  0  2  0  0  0  0  0  0  0  0  0
   18.5620   -6.4870    0.0000 O   0  0  0  0  0  0  0  0  0  0  0  0
   18.5561   -5.6620    0.0000 C   0  0  2  0  0  0  0  0  0  0  0  0
   17.7696   -5.4128    0.0000 C   0  0  2  0  0  0  0  0  0  0  0  0
   17.2895   -6.0837    0.0000 C   0  0  2  0  0  0  0  0  0  0  0  0
   16.5068   -6.3443    0.0000 C   0  0  1  0  0  0  0  0  0  0  0  0
   15.7894   -5.9369    0.0000 C   0  0  0  0  0  0  0  0  0  0  0  0
   15.0779   -6.3546    0.0000 C   0  0  0  0  0  0  0  0  0  0  0  0
   15.0838   -7.1796    0.0000 C   0  0  2  0  0  0  0  0  0  0  0  0
   14.3724   -7.5972    0.0000 C   0  0  1  0  0  0  0  0  0  0  0  0
   13.6549   -7.1899    0.0000 C   0  0  0  0  0  0  0  0  0  0  0  0
   12.9435   -7.6075    0.0000 C   0  0  0  0  0  0  0  0  0  0  0  0
   12.9494   -8.4325    0.0000 C   0  0  1  0  0  0  0  0  0  0  0  0
   13.6668   -8.8398    0.0000 C   0  0  0  0  0  0  0  0  0  0  0  0
   14.3783   -8.4222    0.0000 C   0  0  0  0  0  0  0  0  0  0  0  0
   15.0958   -8.8295    0.0000 C   0  0  0  0  0  0  0  0  0  0  0  0
   15.8072   -8.4119    0.0000 C   0  0  0  0  0  0  0  0  0  0  0  0
   18.4639   -4.8422    0.0000 O   0  0  0  0  0  0  0  0  0  0  0  0
   19.3122   -5.9921    0.0000 C   0  0  0  0  0  0  0  0  0  0  0  0
   19.9761   -5.5024    0.0000 C   0  0  0  0  0  0  0  0  0  0  0  0
   19.8839   -4.6826    0.0000 C   0  0  2  0  0  0  0  0  0  0  0  0
   19.1278   -4.3525    0.0000 C   0  0  0  0  0  0  0  0  0  0  0  0
   12.2379   -8.8502    0.0000 O   0  0  0  0  0  0  0  0  0  0  0  0
   14.3664   -6.7722    0.0000 C   0  0  0  0  0  0  0  0  0  0  0  0
   16.5068   -5.5193    0.0000 C   0  0  0  0  0  0  0  0  0  0  0  0
   17.5090   -4.6300    0.0000 C   0  0  0  0  0  0  0  0  0  0  0  0
   20.5478   -4.1928    0.0000 C   0  0  0  0  0  0  0  0  0  0  0  0
   15.7953   -6.7619    0.0000 H   0  0  0  0  0  0  0  0  0  0  0  0
   18.2690   -7.4115    0.0000 H   0  0  0  0  0  0  0  0  0  0  0  0
   16.9225   -5.3448    0.0000 O   0  0  0  0  0  0  0  0  0  0  0  0
   15.0898   -8.0045    0.0000 H   0  0  0  0  0  0  0  0  0  0  0  0
   11.5205   -8.4428    0.0000 C   0  0  2  0  0  0  0  0  0  0  0  0
   11.5116   -7.6179    0.0000 O   0  0  0  0  0  0  0  0  0  0  0  0
   10.7927   -7.2132    0.0000 C   0  0  1  0  0  0  0  0  0  0  0  0
   10.0827   -7.6179    0.0000 C   0  0  2  0  0  0  0  0  0  0  0  0
   10.0827   -8.4428    0.0000 C   0  0  1  0  0  0  0  0  0  0  0  0
   10.7927   -8.8475    0.0000 C   0  0  1  0  0  0  0  0  0  0  0  0
   10.7904   -6.3882    0.0000 C   0  0  0  0  0  0  0  0  0  0  0  0
    9.3694   -8.8573    0.0000 O   0  0  0  0  0  0  0  0  0  0  0  0
   10.7883   -9.6725    0.0000 O   0  0  0  0  0  0  0  0  0  0  0  0
    9.3694   -7.2034    0.0000 O   0  0  0  0  0  0  0  0  0  0  0  0
   10.0760   -5.9757    0.0000 O   0  0  0  0  0  0  0  0  0  0  0  0
    8.5444   -8.8545    0.0000 C   0  0  2  0  0  0  0  0  0  0  0  0
    8.1333   -8.1393    0.0000 O   0  0  0  0  0  0  0  0  0  0  0  0
    7.3083   -8.1377    0.0000 C   0  0  0  0  0  0  0  0  0  0  0  0
    6.8915   -8.8462    0.0000 C   0  0  2  0  0  0  0  0  0  0  0  0
    7.2996   -9.5632    0.0000 C   0  0  1  0  0  0  0  0  0  0  0  0
    8.1217   -9.5665    0.0000 C   0  0  1  0  0  0  0  0  0  0  0  0
    6.8835  -10.2756    0.0000 O   0  0  0  0  0  0  0  0  0  0  0  0
    6.0665   -8.8404    0.0000 O   0  0  0  0  0  0  0  0  0  0  0  0
    8.5284  -10.2843    0.0000 O   0  0  0  0  0  0  0  0  0  0  0  0
   11.1855  -10.3956    0.0000 C   0  0  2  0  0  0  0  0  0  0  0  0
   10.7561  -11.1000    0.0000 O   0  0  0  0  0  0  0  0  0  0  0  0
   11.1514  -11.8241    0.0000 C   0  0  2  0  0  0  0  0  0  0  0  0
   11.9820  -11.8340    0.0000 C   0  0  1  0  0  0  0  0  0  0  0  0
   12.4058  -11.1262    0.0000 C   0  0  2  0  0  0  0  0  0  0  0  0
   12.0048  -10.3987    0.0000 C   0  0  1  0  0  0  0  0  0  0  0  0
   12.3846  -12.5542    0.0000 O   0  0  0  0  0  0  0  0  0  0  0  0
   10.7262  -12.5311    0.0000 C   0  0  0  0  0  0  0  0  0  0  0  0
   13.2307  -11.1410    0.0000 O   0  0  0  0  0  0  0  0  0  0  0  0
   12.4258   -9.6892    0.0000 O   0  0  0  0  0  0  0  0  0  0  0  0
    8.9570   -6.4889    0.0000 C   0  0  2  0  0  0  0  0  0  0  0  0
    9.3696   -5.7745    0.0000 O   0  0  0  0  0  0  0  0  0  0  0  0
    8.9572   -5.0599    0.0000 C   0  0  0  0  0  0  0  0  0  0  0  0
    8.1322   -5.0598    0.0000 C   0  0  2  0  0  0  0  0  0  0  0  0
    7.7196   -5.7742    0.0000 C   0  0  1  0  0  0  0  0  0  0  0  0
    8.1320   -6.4888    0.0000 C   0  0  1  0  0  0  0  0  0  0  0  0
    6.8946   -5.7741    0.0000 O   0  0  0  0  0  0  0  0  0  0  0  0
    7.7198   -4.3453    0.0000 O   0  0  0  0  0  0  0  0  0  0  0  0
    7.7194   -7.2032    0.0000 O   0  0  0  0  0  0  0  0  0  0  0  0
   16.5187   -7.9942    0.0000 H   0  0  0  0  0  0  0  0  0  0  0  0
  1  2  1  0  0  0  0
  2  3  1  0  0  0  0
  3  4  1  0  0  0  0
  4  5  1  0  0  0  0
  6  5  1  6  0  0  0
  6  7  1  0  0  0  0
  7  8  1  0  0  0  0
  8  9  1  0  0  0  0
  9 10  1  0  0  0  0
 10 11  1  0  0  0  0
 11 12  1  0  0  0  0
 12 13  1  0  0  0  0
 13 14  1  0  0  0  0
 14 15  1  0  0  0  0
 15 16  1  0  0  0  0
 16 17  1  0  0  0  0
 17 18  1  0  0  0  0
 18 19  2  0  0  0  0
 19 20  1  0  0  0  0
  1 20  1  0  0  0  0
  1 12  1  0  0  0  0
 13 18  1  0  0  0  0
  2  9  1  0  0  0  0
  4  8  1  0  0  0  0
 22 23  1  0  0  0  0
 23 24  1  0  0  0  0
 24 25  1  0  0  0  0
 21 25  1  0  0  0  0
  6 21  1  0  0  0  0
  6 22  1  0  0  0  0
 16 26  1  1  0  0  0
 13 27  1  1  0  0  0
  9 28  1  1  0  0  0
  7 29  1  6  0  0  0
 24 30  1  6  0  0  0
  1 31  1  1  0  0  0
  4 32  1  6  0  0  0
  8 33  1  6  0  0  0
 12 34  1  6  0  0  0
 35 26  1  1  0  0  0
 35 36  1  0  0  0  0
 36 37  1  0  0  0  0
 37 38  1  0  0  0  0
 38 39  1  0  0  0  0
 39 40  1  0  0  0  0
 40 35  1  0  0  0  0
 37 41  1  1  0  0  0
 39 42  1  1  0  0  0
 40 43  1  6  0  0  0
 38 44  1  6  0  0  0
 41 45  1  0  0  0  0
 46 42  1  1  0  0  0
 46 47  1  0  0  0  0
 47 48  1  0  0  0  0
 48 49  1  0  0  0  0
 49 50  1  0  0  0  0
 50 51  1  0  0  0  0
 51 46  1  0  0  0  0
 50 52  1  1  0  0  0
 49 53  1  6  0  0  0
 51 54  1  6  0  0  0
 55 43  1  1  0  0  0
 55 56  1  0  0  0  0
 56 57  1  0  0  0  0
 57 58  1  0  0  0  0
 58 59  1  0  0  0  0
 59 60  1  0  0  0  0
 60 55  1  0  0  0  0
 58 61  1  1  0  0  0
 57 62  1  6  0  0  0
 59 63  1  6  0  0  0
 60 64  1  6  0  0  0
 65 44  1  1  0  0  0
 65 66  1  0  0  0  0
 66 67  1  0  0  0  0
 67 68  1  0  0  0  0
 68 69  1  0  0  0  0
 69 70  1  0  0  0  0
 70 65  1  0  0  0  0
 69 71  1  1  0  0  0
 68 72  1  6  0  0  0
 70 73  1  6  0  0  0
  2 74  1  6  0  0  0
M  END
>  <cdx:groupId>
216

>  <cdx:fragmentId>
217

$$$$
