93368.cdx
  Mrv1902 05222410252D          

 66 74  0  0  0  0            999 V2000
   15.8013   -9.3194    0.0000 C   0  0  1  0  0  0  0  0  0  0  0  0
   16.5127   -8.9018    0.0000 C   0  0  2  0  0  0  0  0  0  0  0  0
   17.2992   -9.1510    0.0000 C   0  0  0  0  0  0  0  0  0  0  0  0
   17.7793   -8.4801    0.0000 C   0  0  2  0  0  0  0  0  0  0  0  0
   18.5620   -8.2195    0.0000 O   0  0  0  0  0  0  0  0  0  0  0  0
   18.5561   -7.3945    0.0000 C   0  0  2  0  0  0  0  0  0  0  0  0
   17.7696   -7.1453    0.0000 C   0  0  2  0  0  0  0  0  0  0  0  0
   17.2895   -7.8162    0.0000 C   0  0  2  0  0  0  0  0  0  0  0  0
   16.5068   -8.0768    0.0000 C   0  0  1  0  0  0  0  0  0  0  0  0
   15.7894   -7.6694    0.0000 C   0  0  0  0  0  0  0  0  0  0  0  0
   15.0779   -8.0871    0.0000 C   0  0  0  0  0  0  0  0  0  0  0  0
   15.0838   -8.9121    0.0000 C   0  0  2  0  0  0  0  0  0  0  0  0
   14.3724   -9.3297    0.0000 C   0  0  1  0  0  0  0  0  0  0  0  0
   13.6549   -8.9224    0.0000 C   0  0  0  0  0  0  0  0  0  0  0  0
   12.9435   -9.3400    0.0000 C   0  0  0  0  0  0  0  0  0  0  0  0
   12.9494  -10.1650    0.0000 C   0  0  1  0  0  0  0  0  0  0  0  0
   13.6668  -10.5723    0.0000 C   0  0  0  0  0  0  0  0  0  0  0  0
   14.3783  -10.1547    0.0000 C   0  0  0  0  0  0  0  0  0  0  0  0
   15.0958  -10.5620    0.0000 C   0  0  0  0  0  0  0  0  0  0  0  0
   15.8072  -10.1444    0.0000 C   0  0  0  0  0  0  0  0  0  0  0  0
   18.4639   -6.5747    0.0000 O   0  0  0  0  0  0  0  0  0  0  0  0
   19.3122   -7.7246    0.0000 C   0  0  0  0  0  0  0  0  0  0  0  0
   19.9761   -7.2349    0.0000 C   0  0  0  0  0  0  0  0  0  0  0  0
   19.8839   -6.4151    0.0000 C   0  0  2  0  0  0  0  0  0  0  0  0
   19.1278   -6.0850    0.0000 C   0  0  0  0  0  0  0  0  0  0  0  0
   12.2379  -10.5827    0.0000 O   0  0  0  0  0  0  0  0  0  0  0  0
   14.3664   -8.5047    0.0000 C   0  0  0  0  0  0  0  0  0  0  0  0
   16.5068   -7.2518    0.0000 C   0  0  0  0  0  0  0  0  0  0  0  0
   17.5090   -6.3625    0.0000 C   0  0  0  0  0  0  0  0  0  0  0  0
   20.5478   -5.9253    0.0000 C   0  0  0  0  0  0  0  0  0  0  0  0
   15.7953   -8.4944    0.0000 H   0  0  0  0  0  0  0  0  0  0  0  0
   18.2690   -9.1440    0.0000 H   0  0  0  0  0  0  0  0  0  0  0  0
   16.9225   -7.0773    0.0000 O   0  0  0  0  0  0  0  0  0  0  0  0
   15.0898   -9.7370    0.0000 H   0  0  0  0  0  0  0  0  0  0  0  0
   11.5205  -10.1753    0.0000 C   0  0  2  0  0  0  0  0  0  0  0  0
   11.5116   -9.3504    0.0000 O   0  0  0  0  0  0  0  0  0  0  0  0
   10.7927   -8.9457    0.0000 C   0  0  1  0  0  0  0  0  0  0  0  0
   10.0827   -9.3504    0.0000 C   0  0  2  0  0  0  0  0  0  0  0  0
   10.0827  -10.1753    0.0000 C   0  0  1  0  0  0  0  0  0  0  0  0
   10.7927  -10.5800    0.0000 C   0  0  1  0  0  0  0  0  0  0  0  0
   10.7904   -8.1207    0.0000 C   0  0  0  0  0  0  0  0  0  0  0  0
    9.3694  -10.5898    0.0000 O   0  0  0  0  0  0  0  0  0  0  0  0
   10.7883  -11.4050    0.0000 O   0  0  0  0  0  0  0  0  0  0  0  0
    9.3694   -8.9359    0.0000 O   0  0  0  0  0  0  0  0  0  0  0  0
   10.0760   -7.7082    0.0000 O   0  0  0  0  0  0  0  0  0  0  0  0
   11.1855  -12.1281    0.0000 C   0  0  2  0  0  0  0  0  0  0  0  0
   10.7561  -12.8325    0.0000 O   0  0  0  0  0  0  0  0  0  0  0  0
   11.1514  -13.5566    0.0000 C   0  0  2  0  0  0  0  0  0  0  0  0
   11.9820  -13.5665    0.0000 C   0  0  1  0  0  0  0  0  0  0  0  0
   12.4058  -12.8587    0.0000 C   0  0  2  0  0  0  0  0  0  0  0  0
   12.0048  -12.1312    0.0000 C   0  0  1  0  0  0  0  0  0  0  0  0
   12.3846  -14.2867    0.0000 O   0  0  0  0  0  0  0  0  0  0  0  0
   10.7262  -14.2636    0.0000 C   0  0  0  0  0  0  0  0  0  0  0  0
   13.2307  -12.8735    0.0000 O   0  0  0  0  0  0  0  0  0  0  0  0
   12.4258  -11.4217    0.0000 O   0  0  0  0  0  0  0  0  0  0  0  0
   16.5187   -9.7267    0.0000 H   0  0  0  0  0  0  0  0  0  0  0  0
    8.5444   -8.9360    0.0000 C   0  0  2  0  0  0  0  0  0  0  0  0
    8.1338   -8.2204    0.0000 O   0  0  0  0  0  0  0  0  0  0  0  0
    7.3049   -8.2249    0.0000 C   0  0  2  0  0  0  0  0  0  0  0  0
    6.8944   -8.9405    0.0000 C   0  0  1  0  0  0  0  0  0  0  0  0
    7.3089   -9.6584    0.0000 C   0  0  2  0  0  0  0  0  0  0  0  0
    8.1339   -9.6516    0.0000 C   0  0  1  0  0  0  0  0  0  0  0  0
    8.5503  -10.3637    0.0000 O   0  0  0  0  0  0  0  0  0  0  0  0
    6.8994  -10.3746    0.0000 O   0  0  0  0  0  0  0  0  0  0  0  0
    6.0694   -8.9417    0.0000 O   0  0  0  0  0  0  0  0  0  0  0  0
    6.8894   -7.5122    0.0000 C   0  0  0  0  0  0  0  0  0  0  0  0
  1  2  1  0  0  0  0
  2  3  1  0  0  0  0
  3  4  1  0  0  0  0
  4  5  1  0  0  0  0
  6  5  1  6  0  0  0
  6  7  1  0  0  0  0
  7  8  1  0  0  0  0
  8  9  1  0  0  0  0
  9 10  1  0  0  0  0
 10 11  1  0  0  0  0
 11 12  1  0  0  0  0
 12 13  1  0  0  0  0
 13 14  1  0  0  0  0
 14 15  1  0  0  0  0
 15 16  1  0  0  0  0
 16 17  1  0  0  0  0
 17 18  1  0  0  0  0
 18 19  2  0  0  0  0
 19 20  1  0  0  0  0
  1 20  1  0  0  0  0
  1 12  1  0  0  0  0
 13 18  1  0  0  0  0
  2  9  1  0  0  0  0
  4  8  1  0  0  0  0
 22 23  1  0  0  0  0
 23 24  1  0  0  0  0
 24 25  1  0  0  0  0
 21 25  1  0  0  0  0
  6 21  1  0  0  0  0
  6 22  1  0  0  0  0
 16 26  1  1  0  0  0
 13 27  1  1  0  0  0
  9 28  1  1  0  0  0
  7 29  1  6  0  0  0
 24 30  1  6  0  0  0
  1 31  1  1  0  0  0
  4 32  1  6  0  0  0
  8 33  1  6  0  0  0
 12 34  1  6  0  0  0
 35 26  1  1  0  0  0
 35 36  1  0  0  0  0
 36 37  1  0  0  0  0
 37 38  1  0  0  0  0
 38 39  1  0  0  0  0
 39 40  1  0  0  0  0
 40 35  1  0  0  0  0
 37 41  1  1  0  0  0
 39 42  1  1  0  0  0
 40 43  1  6  0  0  0
 38 44  1  6  0  0  0
 41 45  1  0  0  0  0
 46 43  1  1  0  0  0
 46 47  1  0  0  0  0
 47 48  1  0  0  0  0
 48 49  1  0  0  0  0
 49 50  1  0  0  0  0
 50 51  1  0  0  0  0
 51 46  1  0  0  0  0
 49 52  1  1  0  0  0
 48 53  1  6  0  0  0
 50 54  1  6  0  0  0
 51 55  1  6  0  0  0
  2 56  1  6  0  0  0
 57 44  1  1  0  0  0
 57 58  1  0  0  0  0
 58 59  1  0  0  0  0
 59 60  1  0  0  0  0
 60 61  1  0  0  0  0
 61 62  1  0  0  0  0
 62 57  1  0  0  0  0
 62 63  1  6  0  0  0
 61 64  1  6  0  0  0
 60 65  1  1  0  0  0
 59 66  1  6  0  0  0
M  END
>  <cdx:fragmentId>
5

$$$$
