93364.cdx
  Mrv1902 05222410212D          

 65 73  0  0  0  0            999 V2000
   15.8288   -7.5319    0.0000 C   0  0  1  0  0  0  0  0  0  0  0  0
   16.5402   -7.1143    0.0000 C   0  0  2  0  0  0  0  0  0  0  0  0
   17.3267   -7.3635    0.0000 C   0  0  0  0  0  0  0  0  0  0  0  0
   17.8068   -6.6926    0.0000 C   0  0  2  0  0  0  0  0  0  0  0  0
   18.5895   -6.4320    0.0000 O   0  0  0  0  0  0  0  0  0  0  0  0
   18.5836   -5.6070    0.0000 C   0  0  2  0  0  0  0  0  0  0  0  0
   17.7971   -5.3578    0.0000 C   0  0  2  0  0  0  0  0  0  0  0  0
   17.3170   -6.0287    0.0000 C   0  0  2  0  0  0  0  0  0  0  0  0
   16.5343   -6.2893    0.0000 C   0  0  1  0  0  0  0  0  0  0  0  0
   15.8169   -5.8819    0.0000 C   0  0  0  0  0  0  0  0  0  0  0  0
   15.1054   -6.2996    0.0000 C   0  0  0  0  0  0  0  0  0  0  0  0
   15.1113   -7.1246    0.0000 C   0  0  2  0  0  0  0  0  0  0  0  0
   14.3999   -7.5422    0.0000 C   0  0  1  0  0  0  0  0  0  0  0  0
   13.6824   -7.1349    0.0000 C   0  0  0  0  0  0  0  0  0  0  0  0
   12.9710   -7.5525    0.0000 C   0  0  0  0  0  0  0  0  0  0  0  0
   12.9769   -8.3775    0.0000 C   0  0  1  0  0  0  0  0  0  0  0  0
   13.6943   -8.7848    0.0000 C   0  0  0  0  0  0  0  0  0  0  0  0
   14.4058   -8.3672    0.0000 C   0  0  0  0  0  0  0  0  0  0  0  0
   15.1233   -8.7745    0.0000 C   0  0  0  0  0  0  0  0  0  0  0  0
   15.8347   -8.3569    0.0000 C   0  0  0  0  0  0  0  0  0  0  0  0
   18.4914   -4.7872    0.0000 O   0  0  0  0  0  0  0  0  0  0  0  0
   19.3397   -5.9371    0.0000 C   0  0  0  0  0  0  0  0  0  0  0  0
   20.0036   -5.4474    0.0000 C   0  0  0  0  0  0  0  0  0  0  0  0
   19.9114   -4.6276    0.0000 C   0  0  2  0  0  0  0  0  0  0  0  0
   19.1553   -4.2975    0.0000 C   0  0  0  0  0  0  0  0  0  0  0  0
   12.2654   -8.7952    0.0000 O   0  0  0  0  0  0  0  0  0  0  0  0
   14.3939   -6.7172    0.0000 C   0  0  0  0  0  0  0  0  0  0  0  0
   16.5343   -5.4643    0.0000 C   0  0  0  0  0  0  0  0  0  0  0  0
   17.5365   -4.5750    0.0000 C   0  0  0  0  0  0  0  0  0  0  0  0
   20.5753   -4.1378    0.0000 C   0  0  0  0  0  0  0  0  0  0  0  0
   15.8228   -6.7069    0.0000 H   0  0  0  0  0  0  0  0  0  0  0  0
   18.2965   -7.3565    0.0000 H   0  0  0  0  0  0  0  0  0  0  0  0
   16.9500   -5.2898    0.0000 O   0  0  0  0  0  0  0  0  0  0  0  0
   15.1173   -7.9495    0.0000 H   0  0  0  0  0  0  0  0  0  0  0  0
   11.5480   -8.3878    0.0000 C   0  0  2  0  0  0  0  0  0  0  0  0
   11.5391   -7.5629    0.0000 O   0  0  0  0  0  0  0  0  0  0  0  0
   10.8202   -7.1582    0.0000 C   0  0  1  0  0  0  0  0  0  0  0  0
   10.1102   -7.5629    0.0000 C   0  0  2  0  0  0  0  0  0  0  0  0
   10.1102   -8.3878    0.0000 C   0  0  1  0  0  0  0  0  0  0  0  0
   10.8202   -8.7925    0.0000 C   0  0  1  0  0  0  0  0  0  0  0  0
   10.8179   -6.3332    0.0000 C   0  0  0  0  0  0  0  0  0  0  0  0
    9.3969   -8.8023    0.0000 O   0  0  0  0  0  0  0  0  0  0  0  0
   10.8158   -9.6175    0.0000 O   0  0  0  0  0  0  0  0  0  0  0  0
    9.3969   -7.1484    0.0000 O   0  0  0  0  0  0  0  0  0  0  0  0
   10.1035   -5.9207    0.0000 O   0  0  0  0  0  0  0  0  0  0  0  0
   11.2130  -10.3406    0.0000 C   0  0  2  0  0  0  0  0  0  0  0  0
   10.7836  -11.0450    0.0000 O   0  0  0  0  0  0  0  0  0  0  0  0
   11.1789  -11.7691    0.0000 C   0  0  2  0  0  0  0  0  0  0  0  0
   12.0095  -11.7790    0.0000 C   0  0  1  0  0  0  0  0  0  0  0  0
   12.4333  -11.0712    0.0000 C   0  0  2  0  0  0  0  0  0  0  0  0
   12.0323  -10.3437    0.0000 C   0  0  1  0  0  0  0  0  0  0  0  0
   12.4121  -12.4992    0.0000 O   0  0  0  0  0  0  0  0  0  0  0  0
   10.7537  -12.4761    0.0000 C   0  0  0  0  0  0  0  0  0  0  0  0
   13.2582  -11.0860    0.0000 O   0  0  0  0  0  0  0  0  0  0  0  0
   12.4533   -9.6342    0.0000 O   0  0  0  0  0  0  0  0  0  0  0  0
   16.5462   -7.9392    0.0000 H   0  0  0  0  0  0  0  0  0  0  0  0
    8.5719   -7.1485    0.0000 C   0  0  2  0  0  0  0  0  0  0  0  0
    8.1613   -6.4329    0.0000 O   0  0  0  0  0  0  0  0  0  0  0  0
    7.3324   -6.4374    0.0000 C   0  0  0  0  0  0  0  0  0  0  0  0
    6.9219   -7.1530    0.0000 C   0  0  2  0  0  0  0  0  0  0  0  0
    7.3364   -7.8709    0.0000 C   0  0  1  0  0  0  0  0  0  0  0  0
    8.1614   -7.8641    0.0000 C   0  0  1  0  0  0  0  0  0  0  0  0
    8.5778   -8.5762    0.0000 O   0  0  0  0  0  0  0  0  0  0  0  0
    6.9269   -8.5871    0.0000 O   0  0  0  0  0  0  0  0  0  0  0  0
    6.0969   -7.1542    0.0000 O   0  0  0  0  0  0  0  0  0  0  0  0
  1  2  1  0  0  0  0
  2  3  1  0  0  0  0
  3  4  1  0  0  0  0
  4  5  1  0  0  0  0
  6  5  1  6  0  0  0
  6  7  1  0  0  0  0
  7  8  1  0  0  0  0
  8  9  1  0  0  0  0
  9 10  1  0  0  0  0
 10 11  1  0  0  0  0
 11 12  1  0  0  0  0
 12 13  1  0  0  0  0
 13 14  1  0  0  0  0
 14 15  1  0  0  0  0
 15 16  1  0  0  0  0
 16 17  1  0  0  0  0
 17 18  1  0  0  0  0
 18 19  2  0  0  0  0
 19 20  1  0  0  0  0
  1 20  1  0  0  0  0
  1 12  1  0  0  0  0
 13 18  1  0  0  0  0
  2  9  1  0  0  0  0
  4  8  1  0  0  0  0
 22 23  1  0  0  0  0
 23 24  1  0  0  0  0
 24 25  1  0  0  0  0
 21 25  1  0  0  0  0
  6 21  1  0  0  0  0
  6 22  1  0  0  0  0
 16 26  1  1  0  0  0
 13 27  1  1  0  0  0
  9 28  1  1  0  0  0
  7 29  1  6  0  0  0
 24 30  1  6  0  0  0
  1 31  1  1  0  0  0
  4 32  1  6  0  0  0
  8 33  1  6  0  0  0
 12 34  1  6  0  0  0
 35 26  1  1  0  0  0
 35 36  1  0  0  0  0
 36 37  1  0  0  0  0
 37 38  1  0  0  0  0
 38 39  1  0  0  0  0
 39 40  1  0  0  0  0
 40 35  1  0  0  0  0
 37 41  1  1  0  0  0
 39 42  1  1  0  0  0
 40 43  1  6  0  0  0
 38 44  1  6  0  0  0
 41 45  1  0  0  0  0
 46 43  1  1  0  0  0
 46 47  1  0  0  0  0
 47 48  1  0  0  0  0
 48 49  1  0  0  0  0
 49 50  1  0  0  0  0
 50 51  1  0  0  0  0
 51 46  1  0  0  0  0
 49 52  1  1  0  0  0
 48 53  1  6  0  0  0
 50 54  1  6  0  0  0
 51 55  1  6  0  0  0
  2 56  1  6  0  0  0
 57 44  1  1  0  0  0
 57 58  1  0  0  0  0
 58 59  1  0  0  0  0
 59 60  1  0  0  0  0
 60 61  1  0  0  0  0
 61 62  1  0  0  0  0
 62 57  1  0  0  0  0
 62 63  1  6  0  0  0
 61 64  1  1  0  0  0
 60 65  1  6  0  0  0
M  END
>  <cdx:fragmentId>
5

$$$$
