93363.cdx
  Mrv1902 05222410222D          

 56 63  0  0  0  0            999 V2000
   15.1138   -9.2919    0.0000 C   0  0  1  0  0  0  0  0  0  0  0  0
   15.8252   -8.8743    0.0000 C   0  0  2  0  0  0  0  0  0  0  0  0
   16.6117   -9.1235    0.0000 C   0  0  0  0  0  0  0  0  0  0  0  0
   17.0918   -8.4526    0.0000 C   0  0  2  0  0  0  0  0  0  0  0  0
   17.8745   -8.1920    0.0000 O   0  0  0  0  0  0  0  0  0  0  0  0
   17.8686   -7.3670    0.0000 C   0  0  2  0  0  0  0  0  0  0  0  0
   17.0821   -7.1178    0.0000 C   0  0  2  0  0  0  0  0  0  0  0  0
   16.6020   -7.7887    0.0000 C   0  0  2  0  0  0  0  0  0  0  0  0
   15.8193   -8.0493    0.0000 C   0  0  1  0  0  0  0  0  0  0  0  0
   15.1019   -7.6419    0.0000 C   0  0  0  0  0  0  0  0  0  0  0  0
   14.3904   -8.0596    0.0000 C   0  0  0  0  0  0  0  0  0  0  0  0
   14.3963   -8.8846    0.0000 C   0  0  2  0  0  0  0  0  0  0  0  0
   13.6849   -9.3022    0.0000 C   0  0  1  0  0  0  0  0  0  0  0  0
   12.9674   -8.8949    0.0000 C   0  0  0  0  0  0  0  0  0  0  0  0
   12.2560   -9.3125    0.0000 C   0  0  0  0  0  0  0  0  0  0  0  0
   12.2619  -10.1375    0.0000 C   0  0  1  0  0  0  0  0  0  0  0  0
   12.9793  -10.5448    0.0000 C   0  0  0  0  0  0  0  0  0  0  0  0
   13.6908  -10.1272    0.0000 C   0  0  0  0  0  0  0  0  0  0  0  0
   14.4083  -10.5345    0.0000 C   0  0  0  0  0  0  0  0  0  0  0  0
   15.1197  -10.1169    0.0000 C   0  0  0  0  0  0  0  0  0  0  0  0
   17.7764   -6.5472    0.0000 O   0  0  0  0  0  0  0  0  0  0  0  0
   18.6247   -7.6971    0.0000 C   0  0  0  0  0  0  0  0  0  0  0  0
   19.2886   -7.2074    0.0000 C   0  0  0  0  0  0  0  0  0  0  0  0
   19.1964   -6.3876    0.0000 C   0  0  2  0  0  0  0  0  0  0  0  0
   18.4403   -6.0575    0.0000 C   0  0  0  0  0  0  0  0  0  0  0  0
   11.5504  -10.5552    0.0000 O   0  0  0  0  0  0  0  0  0  0  0  0
   13.6789   -8.4772    0.0000 C   0  0  0  0  0  0  0  0  0  0  0  0
   15.8193   -7.2243    0.0000 C   0  0  0  0  0  0  0  0  0  0  0  0
   16.8215   -6.3350    0.0000 C   0  0  0  0  0  0  0  0  0  0  0  0
   19.8603   -5.8978    0.0000 C   0  0  0  0  0  0  0  0  0  0  0  0
   15.1078   -8.4669    0.0000 H   0  0  0  0  0  0  0  0  0  0  0  0
   17.5815   -9.1165    0.0000 H   0  0  0  0  0  0  0  0  0  0  0  0
   16.2350   -7.0498    0.0000 O   0  0  0  0  0  0  0  0  0  0  0  0
   14.4023   -9.7095    0.0000 H   0  0  0  0  0  0  0  0  0  0  0  0
   10.8330  -10.1478    0.0000 C   0  0  2  0  0  0  0  0  0  0  0  0
   10.8241   -9.3229    0.0000 O   0  0  0  0  0  0  0  0  0  0  0  0
   10.1052   -8.9182    0.0000 C   0  0  1  0  0  0  0  0  0  0  0  0
    9.3952   -9.3229    0.0000 C   0  0  2  0  0  0  0  0  0  0  0  0
    9.3952  -10.1478    0.0000 C   0  0  1  0  0  0  0  0  0  0  0  0
   10.1052  -10.5525    0.0000 C   0  0  1  0  0  0  0  0  0  0  0  0
   10.1029   -8.0932    0.0000 C   0  0  0  0  0  0  0  0  0  0  0  0
    8.6819  -10.5623    0.0000 O   0  0  0  0  0  0  0  0  0  0  0  0
   10.1008  -11.3775    0.0000 O   0  0  0  0  0  0  0  0  0  0  0  0
    8.6819   -8.9084    0.0000 O   0  0  0  0  0  0  0  0  0  0  0  0
    9.3885   -7.6807    0.0000 O   0  0  0  0  0  0  0  0  0  0  0  0
   10.4980  -12.1006    0.0000 C   0  0  2  0  0  0  0  0  0  0  0  0
   10.0686  -12.8050    0.0000 O   0  0  0  0  0  0  0  0  0  0  0  0
   10.4639  -13.5291    0.0000 C   0  0  2  0  0  0  0  0  0  0  0  0
   11.2945  -13.5390    0.0000 C   0  0  1  0  0  0  0  0  0  0  0  0
   11.7183  -12.8312    0.0000 C   0  0  2  0  0  0  0  0  0  0  0  0
   11.3173  -12.1037    0.0000 C   0  0  1  0  0  0  0  0  0  0  0  0
   11.6971  -14.2592    0.0000 O   0  0  0  0  0  0  0  0  0  0  0  0
   10.0387  -14.2361    0.0000 C   0  0  0  0  0  0  0  0  0  0  0  0
   12.5432  -12.8460    0.0000 O   0  0  0  0  0  0  0  0  0  0  0  0
   11.7383  -11.3942    0.0000 O   0  0  0  0  0  0  0  0  0  0  0  0
   15.8312   -9.6992    0.0000 H   0  0  0  0  0  0  0  0  0  0  0  0
  1  2  1  0  0  0  0
  2  3  1  0  0  0  0
  3  4  1  0  0  0  0
  4  5  1  0  0  0  0
  6  5  1  6  0  0  0
  6  7  1  0  0  0  0
  7  8  1  0  0  0  0
  8  9  1  0  0  0  0
  9 10  1  0  0  0  0
 10 11  1  0  0  0  0
 11 12  1  0  0  0  0
 12 13  1  0  0  0  0
 13 14  1  0  0  0  0
 14 15  1  0  0  0  0
 15 16  1  0  0  0  0
 16 17  1  0  0  0  0
 17 18  1  0  0  0  0
 18 19  2  0  0  0  0
 19 20  1  0  0  0  0
  1 20  1  0  0  0  0
  1 12  1  0  0  0  0
 13 18  1  0  0  0  0
  2  9  1  0  0  0  0
  4  8  1  0  0  0  0
 22 23  1  0  0  0  0
 23 24  1  0  0  0  0
 24 25  1  0  0  0  0
 21 25  1  0  0  0  0
  6 21  1  0  0  0  0
  6 22  1  0  0  0  0
 16 26  1  1  0  0  0
 13 27  1  1  0  0  0
  9 28  1  1  0  0  0
  7 29  1  6  0  0  0
 24 30  1  6  0  0  0
  1 31  1  1  0  0  0
  4 32  1  6  0  0  0
  8 33  1  6  0  0  0
 12 34  1  6  0  0  0
 35 26  1  1  0  0  0
 35 36  1  0  0  0  0
 36 37  1  0  0  0  0
 37 38  1  0  0  0  0
 38 39  1  0  0  0  0
 39 40  1  0  0  0  0
 40 35  1  0  0  0  0
 37 41  1  1  0  0  0
 39 42  1  1  0  0  0
 40 43  1  6  0  0  0
 38 44  1  6  0  0  0
 41 45  1  0  0  0  0
 46 43  1  1  0  0  0
 46 47  1  0  0  0  0
 47 48  1  0  0  0  0
 48 49  1  0  0  0  0
 49 50  1  0  0  0  0
 50 51  1  0  0  0  0
 51 46  1  0  0  0  0
 49 52  1  1  0  0  0
 48 53  1  6  0  0  0
 50 54  1  6  0  0  0
 51 55  1  6  0  0  0
  2 56  1  6  0  0  0
M  END
>  <cdx:fragmentId>
5

$$$$
