93366.cdx
  Mrv1902 05222410212D          

 65 73  0  0  0  0            999 V2000
   15.8288   -9.0719    0.0000 C   0  0  1  0  0  0  0  0  0  0  0  0
   16.5402   -8.6543    0.0000 C   0  0  2  0  0  0  0  0  0  0  0  0
   17.3267   -8.9035    0.0000 C   0  0  0  0  0  0  0  0  0  0  0  0
   17.8068   -8.2326    0.0000 C   0  0  2  0  0  0  0  0  0  0  0  0
   18.5895   -7.9720    0.0000 O   0  0  0  0  0  0  0  0  0  0  0  0
   18.5836   -7.1470    0.0000 C   0  0  2  0  0  0  0  0  0  0  0  0
   17.7971   -6.8978    0.0000 C   0  0  2  0  0  0  0  0  0  0  0  0
   17.3170   -7.5687    0.0000 C   0  0  2  0  0  0  0  0  0  0  0  0
   16.5343   -7.8293    0.0000 C   0  0  1  0  0  0  0  0  0  0  0  0
   15.8169   -7.4219    0.0000 C   0  0  0  0  0  0  0  0  0  0  0  0
   15.1054   -7.8396    0.0000 C   0  0  0  0  0  0  0  0  0  0  0  0
   15.1113   -8.6646    0.0000 C   0  0  2  0  0  0  0  0  0  0  0  0
   14.3999   -9.0822    0.0000 C   0  0  1  0  0  0  0  0  0  0  0  0
   13.6824   -8.6749    0.0000 C   0  0  0  0  0  0  0  0  0  0  0  0
   12.9710   -9.0925    0.0000 C   0  0  0  0  0  0  0  0  0  0  0  0
   12.9769   -9.9175    0.0000 C   0  0  1  0  0  0  0  0  0  0  0  0
   13.6943  -10.3248    0.0000 C   0  0  0  0  0  0  0  0  0  0  0  0
   14.4058   -9.9072    0.0000 C   0  0  0  0  0  0  0  0  0  0  0  0
   15.1233  -10.3145    0.0000 C   0  0  0  0  0  0  0  0  0  0  0  0
   15.8347   -9.8969    0.0000 C   0  0  0  0  0  0  0  0  0  0  0  0
   18.4914   -6.3272    0.0000 O   0  0  0  0  0  0  0  0  0  0  0  0
   19.3397   -7.4771    0.0000 C   0  0  0  0  0  0  0  0  0  0  0  0
   20.0036   -6.9874    0.0000 C   0  0  0  0  0  0  0  0  0  0  0  0
   19.9114   -6.1676    0.0000 C   0  0  2  0  0  0  0  0  0  0  0  0
   19.1553   -5.8375    0.0000 C   0  0  0  0  0  0  0  0  0  0  0  0
   12.2654  -10.3352    0.0000 O   0  0  0  0  0  0  0  0  0  0  0  0
   14.3939   -8.2572    0.0000 C   0  0  0  0  0  0  0  0  0  0  0  0
   16.5343   -7.0043    0.0000 C   0  0  0  0  0  0  0  0  0  0  0  0
   17.5365   -6.1150    0.0000 C   0  0  0  0  0  0  0  0  0  0  0  0
   20.5753   -5.6778    0.0000 C   0  0  0  0  0  0  0  0  0  0  0  0
   15.8228   -8.2469    0.0000 H   0  0  0  0  0  0  0  0  0  0  0  0
   18.2965   -8.8965    0.0000 H   0  0  0  0  0  0  0  0  0  0  0  0
   16.9500   -6.8298    0.0000 O   0  0  0  0  0  0  0  0  0  0  0  0
   15.1173   -9.4895    0.0000 H   0  0  0  0  0  0  0  0  0  0  0  0
   11.5480   -9.9278    0.0000 C   0  0  2  0  0  0  0  0  0  0  0  0
   11.5391   -9.1029    0.0000 O   0  0  0  0  0  0  0  0  0  0  0  0
   10.8202   -8.6982    0.0000 C   0  0  1  0  0  0  0  0  0  0  0  0
   10.1102   -9.1029    0.0000 C   0  0  2  0  0  0  0  0  0  0  0  0
   10.1102   -9.9278    0.0000 C   0  0  1  0  0  0  0  0  0  0  0  0
   10.8202  -10.3325    0.0000 C   0  0  1  0  0  0  0  0  0  0  0  0
   10.8179   -7.8732    0.0000 C   0  0  0  0  0  0  0  0  0  0  0  0
    9.3969  -10.3423    0.0000 O   0  0  0  0  0  0  0  0  0  0  0  0
   10.8158  -11.1575    0.0000 O   0  0  0  0  0  0  0  0  0  0  0  0
    9.3969   -8.6884    0.0000 O   0  0  0  0  0  0  0  0  0  0  0  0
   10.1035   -7.4607    0.0000 O   0  0  0  0  0  0  0  0  0  0  0  0
   11.2130  -11.8806    0.0000 C   0  0  2  0  0  0  0  0  0  0  0  0
   10.7836  -12.5850    0.0000 O   0  0  0  0  0  0  0  0  0  0  0  0
   11.1789  -13.3091    0.0000 C   0  0  2  0  0  0  0  0  0  0  0  0
   12.0095  -13.3190    0.0000 C   0  0  1  0  0  0  0  0  0  0  0  0
   12.4333  -12.6112    0.0000 C   0  0  2  0  0  0  0  0  0  0  0  0
   12.0323  -11.8837    0.0000 C   0  0  1  0  0  0  0  0  0  0  0  0
   12.4121  -14.0392    0.0000 O   0  0  0  0  0  0  0  0  0  0  0  0
   10.7537  -14.0161    0.0000 C   0  0  0  0  0  0  0  0  0  0  0  0
   13.2582  -12.6260    0.0000 O   0  0  0  0  0  0  0  0  0  0  0  0
   12.4533  -11.1742    0.0000 O   0  0  0  0  0  0  0  0  0  0  0  0
   16.5462   -9.4792    0.0000 H   0  0  0  0  0  0  0  0  0  0  0  0
    8.5719   -8.6885    0.0000 C   0  0  2  0  0  0  0  0  0  0  0  0
    8.0869   -8.0210    0.0000 O   0  0  0  0  0  0  0  0  0  0  0  0
    7.3023   -8.2760    0.0000 C   0  0  2  0  0  0  0  0  0  0  0  0
    7.3023   -9.1010    0.0000 C   0  0  1  0  0  0  0  0  0  0  0  0
    8.0869   -9.3559    0.0000 C   0  0  1  0  0  0  0  0  0  0  0  0
    8.3419  -10.1405    0.0000 O   0  0  0  0  0  0  0  0  0  0  0  0
    6.6349   -9.5859    0.0000 O   0  0  0  0  0  0  0  0  0  0  0  0
    6.6349   -7.7910    0.0000 C   0  0  0  0  0  0  0  0  0  0  0  0
    5.8812   -8.1266    0.0000 O   0  0  0  0  0  0  0  0  0  0  0  0
  1  2  1  0  0  0  0
  2  3  1  0  0  0  0
  3  4  1  0  0  0  0
  4  5  1  0  0  0  0
  6  5  1  6  0  0  0
  6  7  1  0  0  0  0
  7  8  1  0  0  0  0
  8  9  1  0  0  0  0
  9 10  1  0  0  0  0
 10 11  1  0  0  0  0
 11 12  1  0  0  0  0
 12 13  1  0  0  0  0
 13 14  1  0  0  0  0
 14 15  1  0  0  0  0
 15 16  1  0  0  0  0
 16 17  1  0  0  0  0
 17 18  1  0  0  0  0
 18 19  2  0  0  0  0
 19 20  1  0  0  0  0
  1 20  1  0  0  0  0
  1 12  1  0  0  0  0
 13 18  1  0  0  0  0
  2  9  1  0  0  0  0
  4  8  1  0  0  0  0
 22 23  1  0  0  0  0
 23 24  1  0  0  0  0
 24 25  1  0  0  0  0
 21 25  1  0  0  0  0
  6 21  1  0  0  0  0
  6 22  1  0  0  0  0
 16 26  1  1  0  0  0
 13 27  1  1  0  0  0
  9 28  1  1  0  0  0
  7 29  1  6  0  0  0
 24 30  1  6  0  0  0
  1 31  1  1  0  0  0
  4 32  1  6  0  0  0
  8 33  1  6  0  0  0
 12 34  1  6  0  0  0
 35 26  1  1  0  0  0
 35 36  1  0  0  0  0
 36 37  1  0  0  0  0
 37 38  1  0  0  0  0
 38 39  1  0  0  0  0
 39 40  1  0  0  0  0
 40 35  1  0  0  0  0
 37 41  1  1  0  0  0
 39 42  1  1  0  0  0
 40 43  1  6  0  0  0
 38 44  1  6  0  0  0
 41 45  1  0  0  0  0
 46 43  1  1  0  0  0
 46 47  1  0  0  0  0
 47 48  1  0  0  0  0
 48 49  1  0  0  0  0
 49 50  1  0  0  0  0
 50 51  1  0  0  0  0
 51 46  1  0  0  0  0
 49 52  1  1  0  0  0
 48 53  1  6  0  0  0
 50 54  1  6  0  0  0
 51 55  1  6  0  0  0
  2 56  1  6  0  0  0
 57 44  1  1  0  0  0
 57 58  1  0  0  0  0
 58 59  1  0  0  0  0
 59 60  1  0  0  0  0
 60 61  1  0  0  0  0
 61 57  1  0  0  0  0
 61 62  1  6  0  0  0
 60 63  1  1  0  0  0
 59 64  1  6  0  0  0
 64 65  1  0  0  0  0
M  END
>  <cdx:fragmentId>
5

$$$$
