93361.cdx
  Mrv1902 05222410232D          

 67 75  0  0  0  0            999 V2000
   15.8288   -9.5669    0.0000 C   0  0  1  0  0  0  0  0  0  0  0  0
   16.5402   -9.1493    0.0000 C   0  0  2  0  0  0  0  0  0  0  0  0
   17.3267   -9.3985    0.0000 C   0  0  0  0  0  0  0  0  0  0  0  0
   17.8068   -8.7276    0.0000 C   0  0  2  0  0  0  0  0  0  0  0  0
   18.5895   -8.4670    0.0000 O   0  0  0  0  0  0  0  0  0  0  0  0
   18.5836   -7.6420    0.0000 C   0  0  2  0  0  0  0  0  0  0  0  0
   17.7971   -7.3928    0.0000 C   0  0  2  0  0  0  0  0  0  0  0  0
   17.3170   -8.0637    0.0000 C   0  0  2  0  0  0  0  0  0  0  0  0
   16.5343   -8.3243    0.0000 C   0  0  1  0  0  0  0  0  0  0  0  0
   15.8169   -7.9169    0.0000 C   0  0  0  0  0  0  0  0  0  0  0  0
   15.1054   -8.3346    0.0000 C   0  0  0  0  0  0  0  0  0  0  0  0
   15.1113   -9.1596    0.0000 C   0  0  2  0  0  0  0  0  0  0  0  0
   14.3999   -9.5772    0.0000 C   0  0  1  0  0  0  0  0  0  0  0  0
   13.6824   -9.1699    0.0000 C   0  0  0  0  0  0  0  0  0  0  0  0
   12.9710   -9.5875    0.0000 C   0  0  0  0  0  0  0  0  0  0  0  0
   12.9769  -10.4125    0.0000 C   0  0  1  0  0  0  0  0  0  0  0  0
   13.6943  -10.8198    0.0000 C   0  0  0  0  0  0  0  0  0  0  0  0
   14.4058  -10.4022    0.0000 C   0  0  0  0  0  0  0  0  0  0  0  0
   15.1233  -10.8095    0.0000 C   0  0  0  0  0  0  0  0  0  0  0  0
   15.8347  -10.3919    0.0000 C   0  0  0  0  0  0  0  0  0  0  0  0
   18.4914   -6.8222    0.0000 O   0  0  0  0  0  0  0  0  0  0  0  0
   19.3397   -7.9721    0.0000 C   0  0  0  0  0  0  0  0  0  0  0  0
   20.0036   -7.4824    0.0000 C   0  0  0  0  0  0  0  0  0  0  0  0
   19.9114   -6.6626    0.0000 C   0  0  1  0  0  0  0  0  0  0  0  0
   19.1553   -6.3325    0.0000 C   0  0  0  0  0  0  0  0  0  0  0  0
   12.2654  -10.8302    0.0000 O   0  0  0  0  0  0  0  0  0  0  0  0
   14.3939   -8.7522    0.0000 C   0  0  0  0  0  0  0  0  0  0  0  0
   16.5343   -7.4993    0.0000 C   0  0  0  0  0  0  0  0  0  0  0  0
   17.5365   -6.6100    0.0000 C   0  0  0  0  0  0  0  0  0  0  0  0
   20.5753   -6.1728    0.0000 C   0  0  0  0  0  0  0  0  0  0  0  0
   15.8228   -8.7419    0.0000 H   0  0  0  0  0  0  0  0  0  0  0  0
   18.2965   -9.3915    0.0000 H   0  0  0  0  0  0  0  0  0  0  0  0
   16.9500   -7.3248    0.0000 O   0  0  0  0  0  0  0  0  0  0  0  0
   15.1173   -9.9845    0.0000 H   0  0  0  0  0  0  0  0  0  0  0  0
   11.5480  -10.4228    0.0000 C   0  0  2  0  0  0  0  0  0  0  0  0
   11.5391   -9.5979    0.0000 O   0  0  0  0  0  0  0  0  0  0  0  0
   10.8202   -9.1932    0.0000 C   0  0  1  0  0  0  0  0  0  0  0  0
   10.1102   -9.5979    0.0000 C   0  0  2  0  0  0  0  0  0  0  0  0
   10.1102  -10.4228    0.0000 C   0  0  1  0  0  0  0  0  0  0  0  0
   10.8202  -10.8275    0.0000 C   0  0  1  0  0  0  0  0  0  0  0  0
   10.8179   -8.3682    0.0000 C   0  0  0  0  0  0  0  0  0  0  0  0
    9.3969  -10.8373    0.0000 O   0  0  0  0  0  0  0  0  0  0  0  0
   10.8158  -11.6525    0.0000 O   0  0  0  0  0  0  0  0  0  0  0  0
    9.3969   -9.1834    0.0000 O   0  0  0  0  0  0  0  0  0  0  0  0
   10.1035   -7.9557    0.0000 O   0  0  0  0  0  0  0  0  0  0  0  0
    8.6813  -10.4267    0.0000 C   0  0  2  0  0  0  0  0  0  0  0  0
    8.6779   -9.6017    0.0000 O   0  0  0  0  0  0  0  0  0  0  0  0
    7.9617   -9.1922    0.0000 C   0  0  1  0  0  0  0  0  0  0  0  0
    7.2489   -9.6017    0.0000 C   0  0  2  0  0  0  0  0  0  0  0  0
    7.2489  -10.4267    0.0000 C   0  0  1  0  0  0  0  0  0  0  0  0
    7.9617  -10.8363    0.0000 C   0  0  1  0  0  0  0  0  0  0  0  0
    7.9609   -8.3672    0.0000 C   0  0  0  0  0  0  0  0  0  0  0  0
    6.5349  -10.8400    0.0000 O   0  0  0  0  0  0  0  0  0  0  0  0
    6.5349   -9.1885    0.0000 O   0  0  0  0  0  0  0  0  0  0  0  0
    7.9600  -11.6613    0.0000 O   0  0  0  0  0  0  0  0  0  0  0  0
    7.2464   -7.9547    0.0000 O   0  0  0  0  0  0  0  0  0  0  0  0
   11.2130  -12.3756    0.0000 C   0  0  2  0  0  0  0  0  0  0  0  0
   10.7836  -13.0800    0.0000 O   0  0  0  0  0  0  0  0  0  0  0  0
   11.1789  -13.8041    0.0000 C   0  0  2  0  0  0  0  0  0  0  0  0
   12.0095  -13.8140    0.0000 C   0  0  1  0  0  0  0  0  0  0  0  0
   12.4333  -13.1062    0.0000 C   0  0  2  0  0  0  0  0  0  0  0  0
   12.0323  -12.3787    0.0000 C   0  0  1  0  0  0  0  0  0  0  0  0
   12.4121  -14.5342    0.0000 O   0  0  0  0  0  0  0  0  0  0  0  0
   10.7537  -14.5111    0.0000 C   0  0  0  0  0  0  0  0  0  0  0  0
   13.2582  -13.1210    0.0000 O   0  0  0  0  0  0  0  0  0  0  0  0
   12.4533  -11.6692    0.0000 O   0  0  0  0  0  0  0  0  0  0  0  0
   16.5462   -9.9742    0.0000 H   0  0  0  0  0  0  0  0  0  0  0  0
  1  2  1  0  0  0  0
  2  3  1  0  0  0  0
  3  4  1  0  0  0  0
  4  5  1  0  0  0  0
  6  5  1  6  0  0  0
  6  7  1  0  0  0  0
  7  8  1  0  0  0  0
  8  9  1  0  0  0  0
  9 10  1  0  0  0  0
 10 11  1  0  0  0  0
 11 12  1  0  0  0  0
 12 13  1  0  0  0  0
 13 14  1  0  0  0  0
 14 15  1  0  0  0  0
 15 16  1  0  0  0  0
 16 17  1  0  0  0  0
 17 18  1  0  0  0  0
 18 19  2  0  0  0  0
 19 20  1  0  0  0  0
  1 20  1  0  0  0  0
  1 12  1  0  0  0  0
 13 18  1  0  0  0  0
  2  9  1  0  0  0  0
  4  8  1  0  0  0  0
 22 23  1  0  0  0  0
 23 24  1  0  0  0  0
 24 25  1  0  0  0  0
 21 25  1  0  0  0  0
  6 21  1  0  0  0  0
  6 22  1  0  0  0  0
 16 26  1  1  0  0  0
 13 27  1  1  0  0  0
  9 28  1  1  0  0  0
  7 29  1  6  0  0  0
 24 30  1  1  0  0  0
  1 31  1  1  0  0  0
  4 32  1  6  0  0  0
  8 33  1  6  0  0  0
 12 34  1  6  0  0  0
 35 26  1  1  0  0  0
 35 36  1  0  0  0  0
 36 37  1  0  0  0  0
 37 38  1  0  0  0  0
 38 39  1  0  0  0  0
 39 40  1  0  0  0  0
 40 35  1  0  0  0  0
 37 41  1  1  0  0  0
 39 42  1  1  0  0  0
 40 43  1  6  0  0  0
 38 44  1  6  0  0  0
 41 45  1  0  0  0  0
 46 42  1  1  0  0  0
 46 47  1  0  0  0  0
 47 48  1  0  0  0  0
 48 49  1  0  0  0  0
 49 50  1  0  0  0  0
 50 51  1  0  0  0  0
 51 46  1  0  0  0  0
 48 52  1  1  0  0  0
 50 53  1  1  0  0  0
 49 54  1  6  0  0  0
 51 55  1  6  0  0  0
 52 56  1  0  0  0  0
 57 43  1  1  0  0  0
 57 58  1  0  0  0  0
 58 59  1  0  0  0  0
 59 60  1  0  0  0  0
 60 61  1  0  0  0  0
 61 62  1  0  0  0  0
 62 57  1  0  0  0  0
 60 63  1  1  0  0  0
 59 64  1  6  0  0  0
 61 65  1  6  0  0  0
 62 66  1  6  0  0  0
  2 67  1  6  0  0  0
M  END
>  <cdx:fragmentId>
5

$$$$
