93374.cdx
  Mrv1902 05222410232D          

 24 25  0  0  0  0            999 V2000
    6.3918   -7.4250    0.0000 C   0  0  0  0  0  0  0  0  0  0  0  0
    6.3918   -8.2500    0.0000 C   0  0  0  0  0  0  0  0  0  0  0  0
    7.1063   -8.6625    0.0000 C   0  0  0  0  0  0  0  0  0  0  0  0
    7.8207   -8.2500    0.0000 C   0  0  0  0  0  0  0  0  0  0  0  0
    7.8207   -7.4250    0.0000 C   0  0  0  0  0  0  0  0  0  0  0  0
    7.1063   -7.0125    0.0000 C   0  0  0  0  0  0  0  0  0  0  0  0
    5.6773   -8.6625    0.0000 O   0  0  0  0  0  0  0  0  0  0  0  0
    4.9629   -8.2500    0.0000 C   0  0  0  0  0  0  0  0  0  0  0  0
    5.6773   -7.0125    0.0000 O   0  0  0  0  0  0  0  0  0  0  0  0
    8.5352   -7.0125    0.0000 C   0  0  0  0  0  0  0  0  0  0  0  0
    9.2497   -7.4250    0.0000 C   0  0  0  0  0  0  0  0  0  0  0  0
    9.9642   -7.0125    0.0000 C   0  0  0  0  0  0  0  0  0  0  0  0
   10.6786   -7.4250    0.0000 O   0  0  0  0  0  0  0  0  0  0  0  0
    5.6773   -6.1875    0.0000 C   0  0  2  0  0  0  0  0  0  0  0  0
    6.3918   -5.7750    0.0000 O   0  0  0  0  0  0  0  0  0  0  0  0
    6.3918   -4.9500    0.0000 C   0  0  1  0  0  0  0  0  0  0  0  0
    5.6773   -4.5375    0.0000 C   0  0  2  0  0  0  0  0  0  0  0  0
    4.9629   -4.9500    0.0000 C   0  0  1  0  0  0  0  0  0  0  0  0
    4.9629   -5.7750    0.0000 C   0  0  1  0  0  0  0  0  0  0  0  0
    7.1063   -4.5375    0.0000 C   0  0  0  0  0  0  0  0  0  0  0  0
    4.2484   -4.5375    0.0000 O   0  0  0  0  0  0  0  0  0  0  0  0
    5.6773   -3.7125    0.0000 O   0  0  0  0  0  0  0  0  0  0  0  0
    4.2484   -6.1875    0.0000 O   0  0  0  0  0  0  0  0  0  0  0  0
    7.1063   -3.7125    0.0000 O   0  0  0  0  0  0  0  0  0  0  0  0
  1  2  2  0  0  0  0
  2  3  1  0  0  0  0
  3  4  2  0  0  0  0
  4  5  1  0  0  0  0
  5  6  2  0  0  0  0
  6  1  1  0  0  0  0
  2  7  1  0  0  0  0
  7  8  1  0  0  0  0
  1  9  1  0  0  0  0
  5 10  1  0  0  0  0
 10 11  2  0  0  0  0
 11 12  1  0  0  0  0
 12 13  2  0  0  0  0
 14  9  1  1  0  0  0
 14 15  1  0  0  0  0
 15 16  1  0  0  0  0
 16 17  1  0  0  0  0
 17 18  1  0  0  0  0
 18 19  1  0  0  0  0
 19 14  1  0  0  0  0
 16 20  1  1  0  0  0
 18 21  1  1  0  0  0
 17 22  1  6  0  0  0
 19 23  1  6  0  0  0
 20 24  1  0  0  0  0
M  END
>  <cdx:fragmentId>
5

$$$$
