93373.cdx
  Mrv1902 05222410212D          

 21 23  0  0  0  0            999 V2000
    2.8581   -6.2012    0.0000 C   0  0  0  0  0  0  0  0  0  0  0  0
    2.8581   -7.0263    0.0000 C   0  0  0  0  0  0  0  0  0  0  0  0
    3.5725   -7.4387    0.0000 C   0  0  0  0  0  0  0  0  0  0  0  0
    4.2870   -7.0263    0.0000 C   0  0  0  0  0  0  0  0  0  0  0  0
    4.2870   -6.2012    0.0000 N   0  0  0  0  0  0  0  0  0  0  0  0
    3.5725   -5.7888    0.0000 C   0  0  0  0  0  0  0  0  0  0  0  0
    5.0015   -5.7888    0.0000 C   0  0  0  0  0  0  0  0  0  0  0  0
    5.7159   -6.2012    0.0000 C   0  0  0  0  0  0  0  0  0  0  0  0
    5.0015   -4.9637    0.0000 O   0  0  0  0  0  0  0  0  0  0  0  0
    6.4304   -5.7888    0.0000 C   0  0  0  0  0  0  0  0  0  0  0  0
    7.1449   -6.2012    0.0000 C   0  0  0  0  0  0  0  0  0  0  0  0
    7.8594   -5.7888    0.0000 C   0  0  0  0  0  0  0  0  0  0  0  0
    8.5738   -6.2012    0.0000 C   0  0  0  0  0  0  0  0  0  0  0  0
    8.5738   -7.0263    0.0000 C   0  0  0  0  0  0  0  0  0  0  0  0
    9.2883   -7.4387    0.0000 C   0  0  0  0  0  0  0  0  0  0  0  0
   10.0028   -7.0263    0.0000 C   0  0  0  0  0  0  0  0  0  0  0  0
   10.0028   -6.2012    0.0000 C   0  0  0  0  0  0  0  0  0  0  0  0
    9.2883   -5.7888    0.0000 C   0  0  0  0  0  0  0  0  0  0  0  0
   10.7874   -7.2812    0.0000 O   0  0  0  0  0  0  0  0  0  0  0  0
   11.2723   -6.6137    0.0000 C   0  0  0  0  0  0  0  0  0  0  0  0
   10.7874   -5.9463    0.0000 O   0  0  0  0  0  0  0  0  0  0  0  0
  1  2  1  0  0  0  0
  2  3  1  0  0  0  0
  3  4  1  0  0  0  0
  4  5  1  0  0  0  0
  5  6  1  0  0  0  0
  6  1  1  0  0  0  0
  5  7  1  0  0  0  0
  7  8  1  0  0  0  0
  7  9  2  0  0  0  0
  8 10  2  0  0  0  0
 10 11  1  0  0  0  0
 11 12  2  0  0  0  0
 12 13  1  0  0  0  0
 13 14  2  0  0  0  0
 14 15  1  0  0  0  0
 15 16  2  0  0  0  0
 16 17  1  0  0  0  0
 17 18  2  0  0  0  0
 18 13  1  0  0  0  0
 16 19  1  0  0  0  0
 19 20  1  0  0  0  0
 20 21  1  0  0  0  0
 21 17  1  0  0  0  0
M  END
>  <cdx:fragmentId>
5

$$$$
