93376.cdx
  Mrv1902 05222410222D          

 17 18  0  0  0  0            999 V2000
    4.3431   -5.6100    0.0000 C   0  0  2  0  0  0  0  0  0  0  0  0
    4.3431   -6.4350    0.0000 C   0  0  0  0  0  0  0  0  0  0  0  0
    5.0575   -6.8475    0.0000 C   0  0  1  0  0  0  0  0  0  0  0  0
    5.7720   -6.4350    0.0000 C   0  0  2  0  0  0  0  0  0  0  0  0
    5.7720   -5.6100    0.0000 C   0  0  0  0  0  0  0  0  0  0  0  0
    5.0575   -5.1975    0.0000 C   0  0  0  0  0  0  0  0  0  0  0  0
    6.4865   -6.8475    0.0000 C   0  0  0  0  0  0  0  0  0  0  0  0
    7.2009   -6.4350    0.0000 C   0  0  2  0  0  0  0  0  0  0  0  0
    7.2009   -5.6100    0.0000 C   0  0  0  0  0  0  0  0  0  0  0  0
    6.4865   -5.1975    0.0000 C   0  0  0  0  0  0  0  0  0  0  0  0
    7.9154   -6.8475    0.0000 C   0  0  0  0  0  0  0  0  0  0  0  0
    8.6299   -6.4350    0.0000 C   0  0  0  0  0  0  0  0  0  0  0  0
    7.9154   -5.1975    0.0000 O   0  0  0  0  0  0  0  0  0  0  0  0
    7.9154   -7.6725    0.0000 C   0  0  0  0  0  0  0  0  0  0  0  0
    5.0575   -7.6725    0.0000 C   0  0  0  0  0  0  0  0  0  0  0  0
    5.7720   -7.2600    0.0000 C   0  0  0  0  0  0  0  0  0  0  0  0
    3.6286   -5.1975    0.0000 O   0  0  0  0  0  0  0  0  0  0  0  0
  1  2  1  0  0  0  0
  2  3  1  0  0  0  0
  3  4  1  0  0  0  0
  4  5  1  0  0  0  0
  5  6  1  0  0  0  0
  6  1  1  0  0  0  0
  4  7  1  0  0  0  0
  7  8  1  0  0  0  0
  8  9  1  0  0  0  0
  9 10  1  0  0  0  0
 10  5  2  0  0  0  0
  8 11  1  6  0  0  0
 11 12  1  0  0  0  0
 13  9  2  0  0  0  0
 11 14  2  0  0  0  0
  3 15  1  1  0  0  0
  4 16  1  1  0  0  0
  1 17  1  1  0  0  0
M  END
>  <cdx:fragmentId>
5

$$$$
