93371.cdx
  Mrv1902 05222410212D          

 22 24  0  0  0  0            999 V2000
    7.5529   -8.6710    0.0000 C   0  0  0  0  0  0  0  0  0  0  0  0
    7.5529   -9.4960    0.0000 C   0  0  0  0  0  0  0  0  0  0  0  0
    6.8384   -9.9085    0.0000 C   0  0  0  0  0  0  0  0  0  0  0  0
    6.1239   -9.4960    0.0000 C   0  0  0  0  0  0  0  0  0  0  0  0
    5.4095   -9.9085    0.0000 C   0  0  0  0  0  0  0  0  0  0  0  0
    4.6950   -9.4960    0.0000 C   0  0  0  0  0  0  0  0  0  0  0  0
    4.6950   -8.6710    0.0000 C   0  0  0  0  0  0  0  0  0  0  0  0
    5.4095   -8.2585    0.0000 C   0  0  0  0  0  0  0  0  0  0  0  0
    6.1239   -8.6710    0.0000 C   0  0  0  0  0  0  0  0  0  0  0  0
    6.8384   -8.2585    0.0000 O   0  0  0  0  0  0  0  0  0  0  0  0
    6.8384  -10.7335    0.0000 O   0  0  0  0  0  0  0  0  0  0  0  0
    8.2674   -8.2585    0.0000 C   0  0  0  0  0  0  0  0  0  0  0  0
    8.2674   -7.4335    0.0000 C   0  0  0  0  0  0  0  0  0  0  0  0
    8.9818   -7.0210    0.0000 C   0  0  0  0  0  0  0  0  0  0  0  0
    9.6963   -7.4335    0.0000 C   0  0  0  0  0  0  0  0  0  0  0  0
    9.6963   -8.2585    0.0000 C   0  0  0  0  0  0  0  0  0  0  0  0
    8.9818   -8.6710    0.0000 C   0  0  0  0  0  0  0  0  0  0  0  0
   10.4108   -8.6710    0.0000 O   0  0  0  0  0  0  0  0  0  0  0  0
   10.4108   -7.0210    0.0000 O   0  0  0  0  0  0  0  0  0  0  0  0
    8.9818   -6.1960    0.0000 O   0  0  0  0  0  0  0  0  0  0  0  0
    3.9805   -8.2585    0.0000 O   0  0  0  0  0  0  0  0  0  0  0  0
    5.4095  -10.7335    0.0000 O   0  0  0  0  0  0  0  0  0  0  0  0
  1  2  1  0  0  0  0
  2  3  1  0  0  0  0
  3  4  1  0  0  0  0
  4  5  1  0  0  0  0
  5  6  2  0  0  0  0
  6  7  1  0  0  0  0
  7  8  2  0  0  0  0
  8  9  1  0  0  0  0
  4  9  2  0  0  0  0
  9 10  1  0  0  0  0
  1 10  1  0  0  0  0
  3 11  2  0  0  0  0
 12 13  1  0  0  0  0
 13 14  2  0  0  0  0
 14 15  1  0  0  0  0
 15 16  2  0  0  0  0
 16 17  1  0  0  0  0
 12 17  2  0  0  0  0
 16 18  1  0  0  0  0
 15 19  1  0  0  0  0
 14 20  1  0  0  0  0
  1 12  1  0  0  0  0
  7 21  1  0  0  0  0
  5 22  1  0  0  0  0
M  END
>  <cdx:fragmentId>
5

$$$$
