93379.cdx
  Mrv1902 05222410232D          

 28 31  0  0  0  0            999 V2000
    3.3943   -9.3500    0.0000 C   0  0  0  0  0  0  0  0  0  0  0  0
    3.3943  -10.1750    0.0000 C   0  0  0  0  0  0  0  0  0  0  0  0
    4.1088  -10.5875    0.0000 C   0  0  0  0  0  0  0  0  0  0  0  0
    4.8232  -10.1750    0.0000 C   0  0  0  0  0  0  0  0  0  0  0  0
    4.8232   -9.3500    0.0000 C   0  0  0  0  0  0  0  0  0  0  0  0
    4.1088   -8.9375    0.0000 C   0  0  0  0  0  0  0  0  0  0  0  0
    5.5377  -10.5875    0.0000 C   0  0  0  0  0  0  0  0  0  0  0  0
    6.2522  -10.1750    0.0000 O   0  0  0  0  0  0  0  0  0  0  0  0
    6.2522   -9.3500    0.0000 C   0  0  0  0  0  0  0  0  0  0  0  0
    5.5377   -8.9375    0.0000 C   0  0  0  0  0  0  0  0  0  0  0  0
    6.9667   -8.9375    0.0000 C   0  0  0  0  0  0  0  0  0  0  0  0
    6.9667   -8.1125    0.0000 C   0  0  0  0  0  0  0  0  0  0  0  0
    6.2522   -7.7000    0.0000 O   0  0  0  0  0  0  0  0  0  0  0  0
    5.5377   -8.1125    0.0000 C   0  0  0  0  0  0  0  0  0  0  0  0
    8.3956   -8.1125    0.0000 C   0  0  0  0  0  0  0  0  0  0  0  0
    7.6811   -7.7000    0.0000 C   0  0  0  0  0  0  0  0  0  0  0  0
    9.1101   -7.7000    0.0000 C   0  0  0  0  0  0  0  0  0  0  0  0
    9.1101   -6.8750    0.0000 C   0  0  0  0  0  0  0  0  0  0  0  0
    9.8245   -8.1125    0.0000 C   0  0  0  0  0  0  0  0  0  0  0  0
   10.5390   -7.7000    0.0000 C   0  0  0  0  0  0  0  0  0  0  0  0
   10.5390   -6.8750    0.0000 C   0  0  0  0  0  0  0  0  0  0  0  0
    9.8245   -6.4625    0.0000 C   0  0  0  0  0  0  0  0  0  0  0  0
    2.6798   -8.9375    0.0000 O   0  0  0  0  0  0  0  0  0  0  0  0
    2.6798  -10.5875    0.0000 O   0  0  0  0  0  0  0  0  0  0  0  0
    5.5377  -11.4125    0.0000 O   0  0  0  0  0  0  0  0  0  0  0  0
    4.8232   -7.7000    0.0000 O   0  0  0  0  0  0  0  0  0  0  0  0
   11.2535   -6.4625    0.0000 O   0  0  0  0  0  0  0  0  0  0  0  0
   11.2535   -8.1125    0.0000 O   0  0  0  0  0  0  0  0  0  0  0  0
  1  2  2  0  0  0  0
  2  3  1  0  0  0  0
  3  4  2  0  0  0  0
  4  5  1  0  0  0  0
  5  6  2  0  0  0  0
  6  1  1  0  0  0  0
  4  7  1  0  0  0  0
  7  8  1  0  0  0  0
  8  9  1  0  0  0  0
  9 10  2  0  0  0  0
 10  5  1  0  0  0  0
  9 11  1  0  0  0  0
 11 12  2  0  0  0  0
 12 13  1  0  0  0  0
 13 14  1  0  0  0  0
 14 10  1  0  0  0  0
 15 16  2  0  0  0  0
 16 12  1  0  0  0  0
 15 17  1  0  0  0  0
 17 18  1  0  0  0  0
 17 19  2  0  0  0  0
 19 20  1  0  0  0  0
 20 21  2  0  0  0  0
 21 22  1  0  0  0  0
 22 18  2  0  0  0  0
  1 23  1  0  0  0  0
  2 24  1  0  0  0  0
  7 25  2  0  0  0  0
 14 26  2  0  0  0  0
 21 27  1  0  0  0  0
 20 28  1  0  0  0  0
M  END
>  <cdx:fragmentId>
5

$$$$
