93377.cdx
  Mrv1902 05222410222D          

 51 55  0  0  0  0            999 V2000
    9.2103  -12.1370    0.0000 O   0  0  0  0  0  0  0  0  0  0  0  0
   10.6391  -12.1579    0.0000 O   0  0  0  0  0  0  0  0  0  0  0  0
   10.6511  -11.3330    0.0000 C   0  0  2  0  0  0  0  0  0  0  0  0
    9.9428  -10.9101    0.0000 C   0  0  1  0  0  0  0  0  0  0  0  0
    9.2224  -11.3121    0.0000 C   0  0  0  0  0  0  0  0  0  0  0  0
   11.3716  -10.9309    0.0000 C   0  0  1  0  0  0  0  0  0  0  0  0
   11.3836  -10.1060    0.0000 C   0  0  2  0  0  0  0  0  0  0  0  0
   10.6752   -9.6831    0.0000 C   0  0  1  0  0  0  0  0  0  0  0  0
    9.9548  -10.0851    0.0000 O   0  0  0  0  0  0  0  0  0  0  0  0
   10.6873   -8.8582    0.0000 O   0  0  0  0  0  0  0  0  0  0  0  0
    9.9789   -8.4353    0.0000 C   0  0  0  0  0  0  0  0  0  0  0  0
    9.2585   -8.8373    0.0000 C   0  0  0  0  0  0  0  0  0  0  0  0
    9.9910   -7.6104    0.0000 C   0  0  0  0  0  0  0  0  0  0  0  0
    9.2826   -7.1875    0.0000 O   0  3  0  0  0  0  0  0  0  0  0  0
    8.5622   -7.5895    0.0000 C   0  0  0  0  0  0  0  0  0  0  0  0
    8.5501   -8.4144    0.0000 C   0  0  0  0  0  0  0  0  0  0  0  0
    7.8538   -7.1666    0.0000 C   0  0  0  0  0  0  0  0  0  0  0  0
    7.1334   -7.5687    0.0000 C   0  0  0  0  0  0  0  0  0  0  0  0
    7.1214   -8.3936    0.0000 C   0  0  0  0  0  0  0  0  0  0  0  0
    7.8297   -8.8165    0.0000 C   0  0  0  0  0  0  0  0  0  0  0  0
   11.4198   -7.6313    0.0000 C   0  0  0  0  0  0  0  0  0  0  0  0
   10.7114   -7.2084    0.0000 C   0  0  0  0  0  0  0  0  0  0  0  0
   12.1402   -7.2293    0.0000 C   0  0  0  0  0  0  0  0  0  0  0  0
   12.1523   -6.4044    0.0000 C   0  0  0  0  0  0  0  0  0  0  0  0
   11.4439   -5.9815    0.0000 C   0  0  0  0  0  0  0  0  0  0  0  0
   10.7235   -6.3835    0.0000 C   0  0  0  0  0  0  0  0  0  0  0  0
    7.8177   -9.6414    0.0000 O   0  0  0  0  0  0  0  0  0  0  0  0
    6.4250   -7.1458    0.0000 O   0  0  0  0  0  0  0  0  0  0  0  0
   12.8486   -7.6522    0.0000 O   0  0  0  0  0  0  0  0  0  0  0  0
   12.8727   -6.0023    0.0000 O   0  0  0  0  0  0  0  0  0  0  0  0
   11.4559   -5.1566    0.0000 O   0  0  0  0  0  0  0  0  0  0  0  0
   10.7476   -4.7337    0.0000 C   0  0  0  0  0  0  0  0  0  0  0  0
   12.0799  -11.3538    0.0000 O   0  0  0  0  0  0  0  0  0  0  0  0
   12.1040   -9.7040    0.0000 O   0  0  0  0  0  0  0  0  0  0  0  0
    4.2356  -10.0047    0.0000 O   0  0  0  0  0  0  0  0  0  0  0  0
    4.9297  -11.2538    0.0000 O   0  0  0  0  0  0  0  0  0  0  0  0
    5.6508  -10.8531    0.0000 C   0  0  2  0  0  0  0  0  0  0  0  0
    5.6644  -10.0282    0.0000 C   0  0  1  0  0  0  0  0  0  0  0  0
    4.9568   -9.6040    0.0000 C   0  0  0  0  0  0  0  0  0  0  0  0
    6.3584  -11.2773    0.0000 C   0  0  1  0  0  0  0  0  0  0  0  0
    7.0796  -10.8766    0.0000 C   0  0  2  0  0  0  0  0  0  0  0  0
    7.0931  -10.0517    0.0000 C   0  0  1  0  0  0  0  0  0  0  0  0
    6.3855   -9.6275    0.0000 O   0  0  0  0  0  0  0  0  0  0  0  0
    6.3449  -12.1022    0.0000 O   0  0  0  0  0  0  0  0  0  0  0  0
    7.7872  -11.3007    0.0000 O   0  0  0  0  0  0  0  0  0  0  0  0
    3.5280   -9.5805    0.0000 C   0  0  0  0  0  0  0  0  0  0  0  0
    2.8069   -9.9813    0.0000 C   0  0  0  0  0  0  0  0  0  0  0  0
    2.0993   -9.5571    0.0000 C   0  0  0  0  0  0  0  0  0  0  0  0
    1.3781   -9.9578    0.0000 O   0  0  0  0  0  0  0  0  0  0  0  0
    2.1129   -8.7322    0.0000 O   0  0  0  0  0  0  0  0  0  0  0  0
    3.5416   -8.7557    0.0000 O   0  0  0  0  0  0  0  0  0  0  0  0
  3  2  1  6  0  0  0
  3  4  1  0  0  0  0
  4  5  1  1  0  0  0
  5  1  1  0  0  0  0
  3  6  1  0  0  0  0
  6  7  1  0  0  0  0
  7  8  1  0  0  0  0
  8  9  1  0  0  0  0
  9  4  1  0  0  0  0
  8 10  1  1  0  0  0
 10 11  1  0  0  0  0
 11 12  1  0  0  0  0
 11 13  2  0  0  0  0
 13 14  1  0  0  0  0
 14 15  2  0  0  0  0
 15 16  1  0  0  0  0
 16 12  2  0  0  0  0
 15 17  1  0  0  0  0
 17 18  2  0  0  0  0
 18 19  1  0  0  0  0
 19 20  2  0  0  0  0
 20 16  1  0  0  0  0
 21 22  2  0  0  0  0
 22 13  1  0  0  0  0
 21 23  1  0  0  0  0
 23 24  2  0  0  0  0
 24 25  1  0  0  0  0
 25 26  2  0  0  0  0
 26 22  1  0  0  0  0
 20 27  1  0  0  0  0
 18 28  1  0  0  0  0
 23 29  1  0  0  0  0
 24 30  1  0  0  0  0
 25 31  1  0  0  0  0
 31 32  1  0  0  0  0
  6 33  1  1  0  0  0
  7 34  1  6  0  0  0
 37 36  1  6  0  0  0
 37 38  1  0  0  0  0
 38 39  1  1  0  0  0
 39 35  1  0  0  0  0
 37 40  1  0  0  0  0
 40 41  1  0  0  0  0
 41 42  1  0  0  0  0
 42 43  1  0  0  0  0
 43 38  1  0  0  0  0
 40 44  1  1  0  0  0
 41 45  1  6  0  0  0
 42 27  1  1  0  0  0
 35 46  1  0  0  0  0
 46 47  1  0  0  0  0
 47 48  1  0  0  0  0
 48 49  1  0  0  0  0
 48 50  2  0  0  0  0
 46 51  2  0  0  0  0
M  CHG  1  14   1
M  END
>  <cdx:fragmentId>
5

$$$$
