93378.cdx
  Mrv1902 05222410232D          

 21 23  0  0  0  0            999 V2000
    5.7685   -6.4900    0.0000 C   0  0  2  0  0  0  0  0  0  0  0  0
    5.7685   -7.3150    0.0000 C   0  0  2  0  0  0  0  0  0  0  0  0
    6.4135   -7.8294    0.0000 C   0  0  0  0  0  0  0  0  0  0  0  0
    7.2178   -7.6458    0.0000 C   0  0  0  0  0  0  0  0  0  0  0  0
    7.5757   -6.9025    0.0000 C   0  0  0  0  0  0  0  0  0  0  0  0
    7.2178   -6.1592    0.0000 C   0  0  0  0  0  0  0  0  0  0  0  0
    6.4135   -5.9756    0.0000 C   0  0  2  0  0  0  0  0  0  0  0  0
    4.9838   -6.2351    0.0000 C   0  0  0  0  0  0  0  0  0  0  0  0
    4.4989   -6.9025    0.0000 C   0  0  0  0  0  0  0  0  0  0  0  0
    4.9838   -7.5699    0.0000 C   0  0  2  0  0  0  0  0  0  0  0  0
    7.8141   -8.2159    0.0000 C   0  0  0  0  0  0  0  0  0  0  0  0
    8.5406   -7.8250    0.0000 C   0  0  0  0  0  0  0  0  0  0  0  0
    8.3933   -7.0132    0.0000 O   0  0  0  0  0  0  0  0  0  0  0  0
    7.7033   -9.0335    0.0000 C   0  0  0  0  0  0  0  0  0  0  0  0
    9.2839   -8.1829    0.0000 O   0  0  0  0  0  0  0  0  0  0  0  0
    5.8301   -5.3923    0.0000 C   0  0  0  0  0  0  0  0  0  0  0  0
    4.2694   -7.9824    0.0000 O   0  0  0  0  0  0  0  0  0  0  0  0
    5.7685   -8.1400    0.0000 H   0  0  0  0  0  0  0  0  0  0  0  0
    5.1974   -8.3668    0.0000 C   0  0  0  0  0  0  0  0  0  0  0  0
    5.3560   -5.7755    0.0000 O   0  0  0  0  0  0  0  0  0  0  0  0
    6.6270   -5.1787    0.0000 O   0  0  0  0  0  0  0  0  0  0  0  0
  1  2  1  0  0  0  0
  2  3  1  0  0  0  0
  3  4  1  0  0  0  0
  4  5  1  0  0  0  0
  5  6  2  0  0  0  0
  6  7  1  0  0  0  0
  7  1  1  0  0  0  0
  1  8  1  0  0  0  0
  8  9  1  0  0  0  0
  9 10  1  0  0  0  0
 10  2  1  0  0  0  0
  4 11  2  0  0  0  0
 11 12  1  0  0  0  0
 12 13  1  0  0  0  0
 13  5  1  0  0  0  0
 11 14  1  0  0  0  0
 12 15  2  0  0  0  0
  7 16  1  1  0  0  0
 10 17  1  1  0  0  0
  2 18  1  1  0  0  0
 10 19  1  6  0  0  0
  1 20  1  6  0  0  0
  7 21  1  6  0  0  0
M  END
>  <cdx:fragmentId>
5

$$$$
