93372.cdx
  Mrv1902 05222410212D          

 56 60  0  0  0  0            999 V2000
    3.9572   -6.0937    0.0000 O   0  0  0  0  0  0  0  0  0  0  0  0
    1.1291   -8.6009    0.0000 O   0  0  0  0  0  0  0  0  0  0  0  0
    1.1100   -6.9515    0.0000 O   0  0  0  0  0  0  0  0  0  0  0  0
    2.5288   -6.1103    0.0000 O   0  0  0  0  0  0  0  0  0  0  0  0
    3.9668   -6.9184    0.0000 C   0  0  0  0  0  0  0  0  0  0  0  0
    3.2669   -8.1637    0.0000 O   0  0  0  0  0  0  0  0  0  0  0  0
    3.2573   -7.3390    0.0000 C   0  0  1  0  0  0  0  0  0  0  0  0
    2.5384   -6.9349    0.0000 C   0  0  1  0  0  0  0  0  0  0  0  0
    1.8289   -7.3556    0.0000 C   0  0  1  0  0  0  0  0  0  0  0  0
    1.8385   -8.1802    0.0000 C   0  0  2  0  0  0  0  0  0  0  0  0
    2.5575   -8.5843    0.0000 C   0  0  2  0  0  0  0  0  0  0  0  0
    3.8300   -8.6915    0.0000 O   0  0  0  0  0  0  0  0  0  0  0  0
    2.5318  -12.2410    0.0000 O   0  0  0  0  0  0  0  0  0  0  0  0
    1.7317  -10.7985    0.0000 O   0  0  0  0  0  0  0  0  0  0  0  0
    2.5808   -9.3844    0.0000 O   0  0  0  0  0  0  0  0  0  0  0  0
    4.2301   -9.4127    0.0000 C   0  0  0  0  0  0  0  0  0  0  0  0
    4.2056  -10.8410    0.0000 O   0  0  0  0  0  0  0  0  0  0  0  0
    3.8055  -10.1198    0.0000 C   0  0  1  0  0  0  0  0  0  0  0  0
    2.9809  -10.1056    0.0000 C   0  0  1  0  0  0  0  0  0  0  0  0
    2.5563  -10.8127    0.0000 C   0  0  1  0  0  0  0  0  0  0  0  0
    2.9564  -11.5339    0.0000 C   0  0  2  0  0  0  0  0  0  0  0  0
    3.7810  -11.5481    0.0000 C   0  0  2  0  0  0  0  0  0  0  0  0
    4.9040  -11.0372    0.0000 O   0  0  0  0  0  0  0  0  0  0  0  0
    5.5921  -14.7535    0.0000 O   0  0  0  0  0  0  0  0  0  0  0  0
    4.1694  -13.9187    0.0000 O   0  0  0  0  0  0  0  0  0  0  0  0
    4.1810  -12.2693    0.0000 O   0  0  0  0  0  0  0  0  0  0  0  0
    5.6153  -11.4546    0.0000 C   0  0  0  0  0  0  0  0  0  0  0  0
    6.3208  -12.6968    0.0000 O   0  0  0  0  0  0  0  0  0  0  0  0
    5.6095  -12.2794    0.0000 C   0  0  1  0  0  0  0  0  0  0  0  0
    4.8924  -12.6867    0.0000 C   0  0  1  0  0  0  0  0  0  0  0  0
    4.8866  -13.5114    0.0000 C   0  0  1  0  0  0  0  0  0  0  0  0
    5.5979  -13.9288    0.0000 C   0  0  2  0  0  0  0  0  0  0  0  0
    6.3150  -13.5215    0.0000 C   0  0  2  0  0  0  0  0  0  0  0  0
    7.0098  -12.5105    0.0000 O   0  0  0  0  0  0  0  0  0  0  0  0
    9.5169  -15.3387    0.0000 O   0  0  0  0  0  0  0  0  0  0  0  0
    7.0263  -13.9389    0.0000 O   0  0  0  0  0  0  0  0  0  0  0  0
    7.8675  -15.3577    0.0000 O   0  0  0  0  0  0  0  0  0  0  0  0
    7.8345  -12.5009    0.0000 C   0  0  0  0  0  0  0  0  0  0  0  0
    9.0798  -13.2008    0.0000 O   0  0  0  0  0  0  0  0  0  0  0  0
    8.2551  -13.2104    0.0000 C   0  0  1  0  0  0  0  0  0  0  0  0
    7.8510  -13.9293    0.0000 C   0  0  1  0  0  0  0  0  0  0  0  0
    8.2716  -14.6388    0.0000 C   0  0  1  0  0  0  0  0  0  0  0  0
    9.0963  -14.6292    0.0000 C   0  0  2  0  0  0  0  0  0  0  0  0
    9.5004  -13.9103    0.0000 C   0  0  2  0  0  0  0  0  0  0  0  0
    9.6108  -12.6636    0.0000 O   0  0  0  0  0  0  0  0  0  0  0  0
   13.1821  -13.9007    0.0000 O   0  0  0  0  0  0  0  0  0  0  0  0
   10.3251  -13.9007    0.0000 O   0  0  0  0  0  0  0  0  0  0  0  0
   10.3251  -12.2512    0.0000 C   0  0  0  0  0  0  0  0  0  0  0  0
   11.7536  -14.7255    0.0000 O   0  0  0  0  0  0  0  0  0  0  0  0
   13.1821  -12.2512    0.0000 O   0  0  0  0  0  0  0  0  0  0  0  0
   11.7536  -12.2512    0.0000 O   0  0  0  0  0  0  0  0  0  0  0  0
   11.0393  -12.6636    0.0000 C   0  0  1  0  0  0  0  0  0  0  0  0
   11.0393  -13.4884    0.0000 C   0  0  1  0  0  0  0  0  0  0  0  0
   11.7536  -13.9007    0.0000 C   0  0  1  0  0  0  0  0  0  0  0  0
   12.4678  -13.4884    0.0000 C   0  0  2  0  0  0  0  0  0  0  0  0
   12.4678  -12.6636    0.0000 C   0  0  2  0  0  0  0  0  0  0  0  0
 11 15  1  1  0  0  0
  5  1  1  0  0  0  0
 10  2  1  6  0  0  0
  9  3  1  1  0  0  0
  8  4  1  1  0  0  0
  7  5  1  1  0  0  0
  6 11  1  0  0  0  0
  7  6  1  0  0  0  0
  8  7  1  0  0  0  0
  9  8  1  0  0  0  0
 10  9  1  0  0  0  0
 11 10  1  0  0  0  0
 16 12  1  0  0  0  0
 21 13  1  6  0  0  0
 20 14  1  1  0  0  0
 19 15  1  1  0  0  0
 18 16  1  1  0  0  0
 17 22  1  0  0  0  0
 18 17  1  0  0  0  0
 19 18  1  0  0  0  0
 20 19  1  0  0  0  0
 21 20  1  0  0  0  0
 22 21  1  0  0  0  0
 22 26  1  1  0  0  0
 27 23  1  0  0  0  0
 32 24  1  6  0  0  0
 31 25  1  1  0  0  0
 30 26  1  1  0  0  0
 29 27  1  1  0  0  0
 28 33  1  0  0  0  0
 29 28  1  0  0  0  0
 30 29  1  0  0  0  0
 31 30  1  0  0  0  0
 32 31  1  0  0  0  0
 33 32  1  0  0  0  0
 33 36  1  1  0  0  0
 38 34  1  0  0  0  0
 43 35  1  6  0  0  0
 41 36  1  1  0  0  0
 42 37  1  1  0  0  0
 40 38  1  1  0  0  0
 39 44  1  0  0  0  0
 40 39  1  0  0  0  0
 41 40  1  0  0  0  0
 42 41  1  0  0  0  0
 43 42  1  0  0  0  0
 44 43  1  0  0  0  0
 44 47  1  1  0  0  0
 48 45  1  0  0  0  0
 55 46  1  6  0  0  0
 53 47  1  1  0  0  0
 52 48  1  1  0  0  0
 54 49  1  1  0  0  0
 56 50  1  1  0  0  0
 51 56  1  0  0  0  0
 52 51  1  0  0  0  0
 53 52  1  0  0  0  0
 54 53  1  0  0  0  0
 55 54  1  0  0  0  0
 56 55  1  0  0  0  0
M  END
>  <cdx:fragmentId>
5

$$$$
