93381.cdx
  Mrv1902 05222410252D          

 14 14  0  0  0  0            999 V2000
    4.2526   -7.3700    0.0000 C   0  0  0  0  0  0  0  0  0  0  0  0
    3.5381   -7.7825    0.0000 C   0  0  0  0  0  0  0  0  0  0  0  0
    3.5381   -8.6075    0.0000 C   0  0  0  0  0  0  0  0  0  0  0  0
    4.2526   -9.0200    0.0000 C   0  0  0  0  0  0  0  0  0  0  0  0
    4.9671   -8.6075    0.0000 C   0  0  0  0  0  0  0  0  0  0  0  0
    7.8250   -8.6075    0.0000 O   0  0  0  0  0  0  0  0  0  0  0  0
    9.9684   -7.3700    0.0000 C   0  0  0  0  0  0  0  0  0  0  0  0
    9.2539   -7.7825    0.0000 C   0  0  0  0  0  0  0  0  0  0  0  0
    8.5394   -7.3700    0.0000 C   0  0  0  0  0  0  0  0  0  0  0  0
    7.8250   -7.7825    0.0000 C   0  0  0  0  0  0  0  0  0  0  0  0
    7.1105   -7.3700    0.0000 O   0  0  0  0  0  0  0  0  0  0  0  0
    6.3960   -7.7825    0.0000 C   0  0  0  0  0  0  0  0  0  0  0  0
    5.6816   -7.3700    0.0000 C   0  0  0  0  0  0  0  0  0  0  0  0
    4.9671   -7.7825    0.0000 C   0  0  0  0  0  0  0  0  0  0  0  0
  1 14  1  0  0  0  0
  2  1  2  0  0  0  0
  3  2  1  0  0  0  0
  4  3  2  0  0  0  0
  5  4  1  0  0  0  0
 14  5  2  0  0  0  0
 10  6  2  0  0  0  0
  7  8  1  0  0  0  0
  8  9  1  0  0  0  0
  9 10  1  0  0  0  0
 10 11  1  0  0  0  0
 11 12  1  0  0  0  0
 12 13  1  0  0  0  0
 13 14  1  0  0  0  0
M  END
>  <cdx:fragmentId>
3

$$$$
