93380.cdx
  Mrv1902 05222410252D          

 29 31  0  0  0  0            999 V2000
    8.3856   -3.6988    0.0000 C   0  0  0  0  0  0  0  0  0  0  0  0
    8.3856   -4.5237    0.0000 C   0  0  0  0  0  0  0  0  0  0  0  0
    9.1000   -4.9363    0.0000 C   0  0  0  0  0  0  0  0  0  0  0  0
    9.8145   -4.5237    0.0000 C   0  0  0  0  0  0  0  0  0  0  0  0
    9.8145   -3.6988    0.0000 C   0  0  0  0  0  0  0  0  0  0  0  0
    9.1000   -3.2862    0.0000 C   0  0  0  0  0  0  0  0  0  0  0  0
    9.1000   -5.7612    0.0000 C   0  0  0  0  0  0  0  0  0  0  0  0
    8.3856   -6.1737    0.0000 C   0  0  0  0  0  0  0  0  0  0  0  0
    8.3856   -6.9988    0.0000 O   0  0  0  0  0  0  0  0  0  0  0  0
    7.6711   -7.4112    0.0000 C   0  0  2  0  0  0  0  0  0  0  0  0
    6.9566   -6.9988    0.0000 O   0  0  0  0  0  0  0  0  0  0  0  0
    6.2421   -7.4112    0.0000 C   0  0  1  0  0  0  0  0  0  0  0  0
    6.2421   -8.2363    0.0000 C   0  0  2  0  0  0  0  0  0  0  0  0
    6.9566   -8.6487    0.0000 C   0  0  1  0  0  0  0  0  0  0  0  0
    7.6711   -8.2363    0.0000 C   0  0  1  0  0  0  0  0  0  0  0  0
    5.5277   -6.9988    0.0000 C   0  0  0  0  0  0  0  0  0  0  0  0
    5.5277   -6.1737    0.0000 O   0  0  0  0  0  0  0  0  0  0  0  0
    4.8132   -5.7612    0.0000 C   0  0  1  0  0  0  0  0  0  0  0  0
    4.8132   -4.9363    0.0000 C   0  0  1  0  0  0  0  0  0  0  0  0
    4.0987   -4.5237    0.0000 C   0  0  2  0  0  0  0  0  0  0  0  0
    3.3843   -4.9363    0.0000 C   0  0  1  0  0  0  0  0  0  0  0  0
    3.3843   -5.7612    0.0000 C   0  0  0  0  0  0  0  0  0  0  0  0
    4.0987   -6.1737    0.0000 O   0  0  0  0  0  0  0  0  0  0  0  0
    6.9566   -9.4738    0.0000 O   0  0  0  0  0  0  0  0  0  0  0  0
    5.5277   -4.5237    0.0000 O   0  0  0  0  0  0  0  0  0  0  0  0
    2.6698   -4.5237    0.0000 O   0  0  0  0  0  0  0  0  0  0  0  0
    4.0987   -3.6988    0.0000 O   0  0  0  0  0  0  0  0  0  0  0  0
    5.5277   -8.6487    0.0000 O   0  0  0  0  0  0  0  0  0  0  0  0
    8.3856   -8.6487    0.0000 O   0  0  0  0  0  0  0  0  0  0  0  0
  1  2  2  0  0  0  0
  2  3  1  0  0  0  0
  3  4  2  0  0  0  0
  4  5  1  0  0  0  0
  5  6  2  0  0  0  0
  6  1  1  0  0  0  0
  3  7  1  0  0  0  0
  7  8  1  0  0  0  0
  8  9  1  0  0  0  0
 10  9  1  1  0  0  0
 10 11  1  0  0  0  0
 11 12  1  0  0  0  0
 12 13  1  0  0  0  0
 13 14  1  0  0  0  0
 14 15  1  0  0  0  0
 15 10  1  0  0  0  0
 12 16  1  1  0  0  0
 16 17  1  0  0  0  0
 18 17  1  6  0  0  0
 18 19  1  0  0  0  0
 19 20  1  0  0  0  0
 20 21  1  0  0  0  0
 21 22  1  0  0  0  0
 22 23  1  0  0  0  0
 23 18  1  0  0  0  0
 14 24  1  1  0  0  0
 19 25  1  1  0  0  0
 21 26  1  1  0  0  0
 20 27  1  6  0  0  0
 13 28  1  6  0  0  0
 15 29  1  6  0  0  0
M  END
>  <cdx:fragmentId>
5

$$$$
