93386.cdx
  Mrv1902 05222410232D          

 21 21  0  0  0  0            999 V2000
    7.6176   -8.2585    0.0000 C   0  0  0  0  0  0  0  0  0  0  0  0
    8.3321   -8.6710    0.0000 C   0  0  0  0  0  0  0  0  0  0  0  0
    9.0466   -8.2585    0.0000 C   0  0  0  0  0  0  0  0  0  0  0  0
    9.0466   -9.0835    0.0000 O   0  0  0  0  0  0  0  0  0  0  0  0
    9.7610   -8.6710    0.0000 C   0  0  0  0  0  0  0  0  0  0  0  0
   10.4755   -8.2585    0.0000 C   0  0  0  0  0  0  0  0  0  0  0  0
    7.6176   -7.4335    0.0000 O   0  0  0  0  0  0  0  0  0  0  0  0
    6.9032   -8.6710    0.0000 O   0  0  0  0  0  0  0  0  0  0  0  0
    8.3321   -7.0210    0.0000 O   0  0  0  0  0  0  0  0  0  0  0  0
   10.4755   -7.4335    0.0000 O   0  0  0  0  0  0  0  0  0  0  0  0
   11.1900   -8.6710    0.0000 O   0  0  0  0  0  0  0  0  0  0  0  0
    6.1887   -8.2585    0.0000 C   0  0  0  0  0  0  0  0  0  0  0  0
    5.4742   -8.6710    0.0000 C   0  0  0  0  0  0  0  0  0  0  0  0
    5.4742   -9.4960    0.0000 C   0  0  0  0  0  0  0  0  0  0  0  0
    4.7598   -9.9085    0.0000 C   0  0  0  0  0  0  0  0  0  0  0  0
    4.0453   -9.4960    0.0000 C   0  0  0  0  0  0  0  0  0  0  0  0
    4.0453   -8.6710    0.0000 C   0  0  0  0  0  0  0  0  0  0  0  0
    4.7598   -8.2585    0.0000 C   0  0  0  0  0  0  0  0  0  0  0  0
    3.3308   -9.9085    0.0000 O   0  0  0  0  0  0  0  0  0  0  0  0
    9.7610   -7.0210    0.0000 O   0  0  0  0  0  0  0  0  0  0  0  0
    9.0466   -7.4335    0.0000 C   0  0  0  0  0  0  0  0  0  0  0  0
 21  9  1  0  0  0  0
 21 20  2  0  0  0  0
  1  2  1  0  0  0  0
  2  3  1  0  0  0  0
  3  4  1  0  0  0  0
  3 21  1  0  0  0  0
  3  5  1  0  0  0  0
  5  6  1  0  0  0  0
  1  7  2  0  0  0  0
  1  8  1  0  0  0  0
  6 10  2  0  0  0  0
  6 11  1  0  0  0  0
 12 13  1  0  0  0  0
 13 14  1  0  0  0  0
 14 15  2  0  0  0  0
 15 16  1  0  0  0  0
 16 17  2  0  0  0  0
 17 18  1  0  0  0  0
 13 18  2  0  0  0  0
 16 19  1  0  0  0  0
  8 12  1  0  0  0  0
M  END
>  <cdx:groupId>
65

>  <cdx:fragmentId>
5

$$$$
