93382.cdx
  Mrv1902 05222410252D          

 42 45  0  0  0  0            999 V2000
    2.8718  -10.6013    0.0000 O   0  0  0  0  0  0  0  0  0  0  0  0
    3.5863  -11.8387    0.0000 O   0  0  0  0  0  0  0  0  0  0  0  0
    4.3007  -11.4262    0.0000 C   0  0  2  0  0  0  0  0  0  0  0  0
    4.3007  -10.6013    0.0000 C   0  0  1  0  0  0  0  0  0  0  0  0
    3.5863  -10.1888    0.0000 C   0  0  0  0  0  0  0  0  0  0  0  0
    5.0152  -11.8387    0.0000 C   0  0  1  0  0  0  0  0  0  0  0  0
    5.7297  -11.4262    0.0000 C   0  0  2  0  0  0  0  0  0  0  0  0
    5.7297  -10.6013    0.0000 C   0  0  1  0  0  0  0  0  0  0  0  0
    5.0152  -10.1888    0.0000 O   0  0  0  0  0  0  0  0  0  0  0  0
    6.4442  -10.1888    0.0000 O   0  0  0  0  0  0  0  0  0  0  0  0
    6.4442   -9.3637    0.0000 C   0  0  0  0  0  0  0  0  0  0  0  0
    5.7297   -8.9513    0.0000 C   0  0  0  0  0  0  0  0  0  0  0  0
    7.1586   -8.9513    0.0000 C   0  0  0  0  0  0  0  0  0  0  0  0
    7.1586   -8.1263    0.0000 C   0  0  0  0  0  0  0  0  0  0  0  0
    6.4442   -7.7138    0.0000 C   0  0  0  0  0  0  0  0  0  0  0  0
    5.7297   -8.1263    0.0000 C   0  0  0  0  0  0  0  0  0  0  0  0
    7.8731   -9.3637    0.0000 C   0  0  0  0  0  0  0  0  0  0  0  0
    8.5876   -8.9513    0.0000 C   0  0  0  0  0  0  0  0  0  0  0  0
    7.8731   -7.7138    0.0000 O   0  0  0  0  0  0  0  0  0  0  0  0
    9.3020   -9.3637    0.0000 C   0  0  0  0  0  0  0  0  0  0  0  0
   10.0165   -8.9513    0.0000 C   0  0  0  0  0  0  0  0  0  0  0  0
   10.0165   -8.1263    0.0000 C   0  0  0  0  0  0  0  0  0  0  0  0
   10.7310   -9.3637    0.0000 C   0  0  0  0  0  0  0  0  0  0  0  0
   11.4455   -8.9513    0.0000 C   0  0  0  0  0  0  0  0  0  0  0  0
   11.4455   -8.1263    0.0000 C   0  0  0  0  0  0  0  0  0  0  0  0
   10.7310   -7.7138    0.0000 C   0  0  0  0  0  0  0  0  0  0  0  0
    5.0152   -7.7138    0.0000 O   0  0  0  0  0  0  0  0  0  0  0  0
    7.8731  -10.1888    0.0000 O   0  0  0  0  0  0  0  0  0  0  0  0
   12.1599   -7.7138    0.0000 O   0  0  0  0  0  0  0  0  0  0  0  0
    5.0152  -12.6637    0.0000 O   0  0  0  0  0  0  0  0  0  0  0  0
    6.4442  -11.8387    0.0000 O   0  0  0  0  0  0  0  0  0  0  0  0
    7.8731   -6.8888    0.0000 C   0  0  0  0  0  0  0  0  0  0  0  0
    7.1586   -6.4762    0.0000 O   0  0  0  0  0  0  0  0  0  0  0  0
    8.5876   -6.4763    0.0000 C   0  0  0  0  0  0  0  0  0  0  0  0
    9.3020   -6.8888    0.0000 C   0  0  0  0  0  0  0  0  0  0  0  0
   10.0165   -6.4763    0.0000 C   0  0  0  0  0  0  0  0  0  0  0  0
   10.0165   -5.6512    0.0000 C   0  0  0  0  0  0  0  0  0  0  0  0
    9.3020   -5.2387    0.0000 C   0  0  0  0  0  0  0  0  0  0  0  0
    8.5876   -5.6512    0.0000 C   0  0  0  0  0  0  0  0  0  0  0  0
    9.3020   -4.4137    0.0000 O   0  0  0  0  0  0  0  0  0  0  0  0
   10.7310   -5.2387    0.0000 O   0  0  0  0  0  0  0  0  0  0  0  0
   10.7310   -6.8888    0.0000 O   0  0  0  0  0  0  0  0  0  0  0  0
  3  2  1  6  0  0  0
  3  4  1  0  0  0  0
  4  5  1  1  0  0  0
  5  1  1  0  0  0  0
  3  6  1  0  0  0  0
  6  7  1  0  0  0  0
  7  8  1  0  0  0  0
  8  9  1  0  0  0  0
  9  4  1  0  0  0  0
  8 10  1  1  0  0  0
 10 11  1  0  0  0  0
 11 12  2  0  0  0  0
 11 13  1  0  0  0  0
 13 14  2  0  0  0  0
 14 15  1  0  0  0  0
 15 16  2  0  0  0  0
 16 12  1  0  0  0  0
 13 17  1  0  0  0  0
 17 18  1  0  0  0  0
 19 14  1  0  0  0  0
 18 20  1  0  0  0  0
 20 21  1  0  0  0  0
 21 22  2  0  0  0  0
 21 23  1  0  0  0  0
 23 24  2  0  0  0  0
 24 25  1  0  0  0  0
 25 26  2  0  0  0  0
 26 22  1  0  0  0  0
 16 27  1  0  0  0  0
 17 28  2  0  0  0  0
 25 29  1  0  0  0  0
  6 30  1  1  0  0  0
  7 31  1  6  0  0  0
 19 32  1  0  0  0  0
 32 33  2  0  0  0  0
 32 34  1  0  0  0  0
 34 35  2  0  0  0  0
 35 36  1  0  0  0  0
 36 37  2  0  0  0  0
 37 38  1  0  0  0  0
 38 39  2  0  0  0  0
 39 34  1  0  0  0  0
 38 40  1  0  0  0  0
 37 41  1  0  0  0  0
 36 42  1  0  0  0  0
M  END
>  <cdx:fragmentId>
5

$$$$
