93387.cdx
  Mrv1902 05222410232D          

 34 39  0  0  0  0            999 V2000
    4.8243   -9.1575    0.0000 C   0  0  0  0  0  0  0  0  0  0  0  0
    4.8243   -9.9825    0.0000 C   0  0  0  0  0  0  0  0  0  0  0  0
    5.5388  -10.3950    0.0000 C   0  0  0  0  0  0  0  0  0  0  0  0
    6.2532   -9.9825    0.0000 C   0  0  0  0  0  0  0  0  0  0  0  0
    6.2532   -9.1575    0.0000 C   0  0  0  0  0  0  0  0  0  0  0  0
    5.5388   -8.7450    0.0000 C   0  0  0  0  0  0  0  0  0  0  0  0
    6.9677  -10.3950    0.0000 N   0  0  0  0  0  0  0  0  0  0  0  0
    7.6822   -9.9825    0.0000 C   0  0  0  0  0  0  0  0  0  0  0  0
    7.6822   -9.1575    0.0000 C   0  0  0  0  0  0  0  0  0  0  0  0
    6.9677   -8.7450    0.0000 C   0  0  0  0  0  0  0  0  0  0  0  0
    8.3967   -8.7450    0.0000 C   0  0  0  0  0  0  0  0  0  0  0  0
    8.3967   -7.9200    0.0000 C   0  0  0  0  0  0  0  0  0  0  0  0
    7.6822   -7.5075    0.0000 C   0  0  0  0  0  0  0  0  0  0  0  0
    6.9677   -7.9200    0.0000 O   0  0  0  0  0  0  0  0  0  0  0  0
    9.1111   -7.5075    0.0000 C   0  0  0  0  0  0  0  0  0  0  0  0
    9.1111   -6.6825    0.0000 O   0  0  0  0  0  0  0  0  0  0  0  0
    8.3967   -6.2700    0.0000 C   0  0  0  0  0  0  0  0  0  0  0  0
    7.6822   -6.6825    0.0000 C   0  0  0  0  0  0  0  0  0  0  0  0
    8.3967   -5.4450    0.0000 C   0  0  0  0  0  0  0  0  0  0  0  0
    7.6822   -5.0325    0.0000 C   0  0  0  0  0  0  0  0  0  0  0  0
    6.9677   -5.4450    0.0000 N   0  0  0  0  0  0  0  0  0  0  0  0
    6.9677   -6.2700    0.0000 C   0  0  0  0  0  0  0  0  0  0  0  0
    9.1111   -5.0325    0.0000 C   0  0  0  0  0  0  0  0  0  0  0  0
    9.1111   -4.2075    0.0000 C   0  0  0  0  0  0  0  0  0  0  0  0
    8.3967   -3.7950    0.0000 C   0  0  0  0  0  0  0  0  0  0  0  0
    7.6822   -4.2075    0.0000 C   0  0  0  0  0  0  0  0  0  0  0  0
    6.9677  -11.2200    0.0000 C   0  0  0  0  0  0  0  0  0  0  0  0
    8.3967  -10.3950    0.0000 O   0  0  0  0  0  0  0  0  0  0  0  0
    9.5236   -8.2220    0.0000 C   0  0  0  0  0  0  0  0  0  0  0  0
    9.9080   -7.2940    0.0000 C   0  0  0  0  0  0  0  0  0  0  0  0
    6.2532   -6.6825    0.0000 O   0  0  0  0  0  0  0  0  0  0  0  0
    6.2532   -5.0325    0.0000 C   0  0  0  0  0  0  0  0  0  0  0  0
    6.9677   -3.7950    0.0000 O   0  0  0  0  0  0  0  0  0  0  0  0
    6.9677   -2.9700    0.0000 C   0  0  0  0  0  0  0  0  0  0  0  0
  1  2  1  0  0  0  0
  2  3  2  0  0  0  0
  3  4  1  0  0  0  0
  4  5  2  0  0  0  0
  5  6  1  0  0  0  0
  6  1  2  0  0  0  0
  4  7  1  0  0  0  0
  7  8  1  0  0  0  0
  8  9  1  0  0  0  0
  9 10  2  0  0  0  0
 10  5  1  0  0  0  0
  9 11  1  0  0  0  0
 11 12  1  0  0  0  0
 12 13  1  0  0  0  0
 13 14  1  0  0  0  0
 14 10  1  0  0  0  0
 12 15  1  0  0  0  0
 15 16  1  0  0  0  0
 16 17  1  0  0  0  0
 17 18  2  0  0  0  0
 18 13  1  0  0  0  0
 17 19  1  0  0  0  0
 19 20  2  0  0  0  0
 20 21  1  0  0  0  0
 21 22  1  0  0  0  0
 22 18  1  0  0  0  0
 19 23  1  0  0  0  0
 23 24  2  0  0  0  0
 24 25  1  0  0  0  0
 25 26  2  0  0  0  0
 26 20  1  0  0  0  0
  7 27  1  0  0  0  0
  8 28  2  0  0  0  0
 15 29  1  0  0  0  0
 15 30  1  0  0  0  0
 22 31  2  0  0  0  0
 21 32  1  0  0  0  0
 26 33  1  0  0  0  0
 33 34  1  0  0  0  0
M  END
>  <cdx:fragmentId>
5

$$$$
