93397.cdx
  Mrv1902 05222410252D          

 43 47  0  0  0  0            999 V2000
    7.1206   -9.0887    0.0000 C   0  0  0  0  0  0  0  0  0  0  0  0
    7.1206   -9.9138    0.0000 C   0  0  0  0  0  0  0  0  0  0  0  0
    7.8350  -10.3262    0.0000 C   0  0  0  0  0  0  0  0  0  0  0  0
    8.5495   -9.9138    0.0000 C   0  0  0  0  0  0  0  0  0  0  0  0
    8.5495   -9.0887    0.0000 C   0  0  0  0  0  0  0  0  0  0  0  0
    7.8350   -8.6762    0.0000 C   0  0  0  0  0  0  0  0  0  0  0  0
    9.2640  -10.3262    0.0000 C   0  0  0  0  0  0  0  0  0  0  0  0
    9.9784   -9.9138    0.0000 C   0  0  0  0  0  0  0  0  0  0  0  0
    9.9784   -9.0887    0.0000 C   0  0  0  0  0  0  0  0  0  0  0  0
    9.2640   -8.6762    0.0000 O   0  0  0  0  0  0  0  0  0  0  0  0
   11.4074   -9.0887    0.0000 C   0  0  0  0  0  0  0  0  0  0  0  0
   10.6929   -8.6762    0.0000 C   0  0  0  0  0  0  0  0  0  0  0  0
   12.1219   -8.6762    0.0000 C   0  0  0  0  0  0  0  0  0  0  0  0
   12.1219   -7.8513    0.0000 C   0  0  0  0  0  0  0  0  0  0  0  0
   11.4074   -7.4387    0.0000 C   0  0  0  0  0  0  0  0  0  0  0  0
   10.6929   -7.8513    0.0000 C   0  0  0  0  0  0  0  0  0  0  0  0
    6.4061   -8.6762    0.0000 O   0  0  0  0  0  0  0  0  0  0  0  0
    7.8350  -11.1513    0.0000 O   0  0  0  0  0  0  0  0  0  0  0  0
    7.8350   -7.8513    0.0000 C   0  0  2  0  0  0  0  0  0  0  0  0
    9.2640  -11.1513    0.0000 O   0  0  0  0  0  0  0  0  0  0  0  0
   12.8363   -7.4387    0.0000 O   0  0  0  0  0  0  0  0  0  0  0  0
    8.5495   -7.4387    0.0000 O   0  0  0  0  0  0  0  0  0  0  0  0
    8.5495   -6.6137    0.0000 C   0  0  1  0  0  0  0  0  0  0  0  0
    7.8350   -6.2012    0.0000 C   0  0  2  0  0  0  0  0  0  0  0  0
    7.1206   -6.6137    0.0000 C   0  0  1  0  0  0  0  0  0  0  0  0
    7.1206   -7.4387    0.0000 C   0  0  1  0  0  0  0  0  0  0  0  0
    6.4061   -6.2012    0.0000 O   0  0  0  0  0  0  0  0  0  0  0  0
    9.2640   -6.2012    0.0000 C   0  0  0  0  0  0  0  0  0  0  0  0
    6.4061   -7.8513    0.0000 O   0  0  0  0  0  0  0  0  0  0  0  0
    7.8350   -5.3763    0.0000 O   0  0  0  0  0  0  0  0  0  0  0  0
    9.2640   -5.3763    0.0000 O   0  0  0  0  0  0  0  0  0  0  0  0
    5.6916   -7.4387    0.0000 C   0  0  0  0  0  0  0  0  0  0  0  0
    4.9771   -7.8512    0.0000 C   0  0  0  0  0  0  0  0  0  0  0  0
    5.6916   -6.6137    0.0000 O   0  0  0  0  0  0  0  0  0  0  0  0
    4.2627   -7.4387    0.0000 C   0  0  0  0  0  0  0  0  0  0  0  0
    3.5482   -7.8512    0.0000 C   0  0  0  0  0  0  0  0  0  0  0  0
    2.8337   -7.4387    0.0000 C   0  0  0  0  0  0  0  0  0  0  0  0
    2.1193   -7.8512    0.0000 C   0  0  0  0  0  0  0  0  0  0  0  0
    2.1193   -8.6762    0.0000 C   0  0  0  0  0  0  0  0  0  0  0  0
    2.8337   -9.0887    0.0000 C   0  0  0  0  0  0  0  0  0  0  0  0
    3.5482   -8.6762    0.0000 C   0  0  0  0  0  0  0  0  0  0  0  0
    1.4048   -9.0887    0.0000 O   0  0  0  0  0  0  0  0  0  0  0  0
    8.5495   -8.2637    0.0000 H   0  0  0  0  0  0  0  0  0  0  0  0
  1  2  2  0  0  0  0
  2  3  1  0  0  0  0
  3  4  2  0  0  0  0
  4  5  1  0  0  0  0
  5  6  2  0  0  0  0
  6  1  1  0  0  0  0
  4  7  1  0  0  0  0
  7  8  1  0  0  0  0
  8  9  2  0  0  0  0
  9 10  1  0  0  0  0
 10  5  1  0  0  0  0
 11 12  2  0  0  0  0
 12  9  1  0  0  0  0
 11 13  1  0  0  0  0
 13 14  2  0  0  0  0
 14 15  1  0  0  0  0
 15 16  2  0  0  0  0
 16 12  1  0  0  0  0
  1 17  1  0  0  0  0
  3 18  1  0  0  0  0
  6 19  1  0  0  0  0
  7 20  2  0  0  0  0
 14 21  1  0  0  0  0
 19 22  1  0  0  0  0
 22 23  1  0  0  0  0
 23 24  1  0  0  0  0
 24 25  1  0  0  0  0
 25 26  1  0  0  0  0
 26 19  1  0  0  0  0
 25 27  1  1  0  0  0
 23 28  1  1  0  0  0
 26 29  1  6  0  0  0
 24 30  1  6  0  0  0
 28 31  1  0  0  0  0
 29 32  1  0  0  0  0
 32 33  1  0  0  0  0
 32 34  2  0  0  0  0
 33 35  2  0  0  0  0
 35 36  1  0  0  0  0
 36 37  2  0  0  0  0
 37 38  1  0  0  0  0
 38 39  2  0  0  0  0
 39 40  1  0  0  0  0
 40 41  2  0  0  0  0
 41 36  1  0  0  0  0
 39 42  1  0  0  0  0
 19 43  1  6  0  0  0
M  END
>  <cdx:fragmentId>
5

$$$$
