9339.cdx
  Mrv1902 05222410232D          

 42 46  0  0  0  0            999 V2000
    6.2155   -5.3625    0.0000 C   0  0  0  0  0  0  0  0  0  0  0  0
    6.2155   -6.1875    0.0000 C   0  0  0  0  0  0  0  0  0  0  0  0
    6.9300   -6.6000    0.0000 C   0  0  0  0  0  0  0  0  0  0  0  0
    7.6445   -6.1875    0.0000 C   0  0  0  0  0  0  0  0  0  0  0  0
    7.6445   -5.3625    0.0000 C   0  0  0  0  0  0  0  0  0  0  0  0
    6.9300   -4.9500    0.0000 O   0  3  0  0  0  0  0  0  0  0  0  0
    5.5011   -4.9500    0.0000 C   0  0  0  0  0  0  0  0  0  0  0  0
    4.7866   -5.3625    0.0000 C   0  0  0  0  0  0  0  0  0  0  0  0
    4.7866   -6.1875    0.0000 C   0  0  0  0  0  0  0  0  0  0  0  0
    5.5011   -6.6000    0.0000 C   0  0  0  0  0  0  0  0  0  0  0  0
    8.3589   -4.9500    0.0000 C   0  0  0  0  0  0  0  0  0  0  0  0
    9.0734   -5.3625    0.0000 C   0  0  0  0  0  0  0  0  0  0  0  0
    9.7879   -4.9500    0.0000 C   0  0  0  0  0  0  0  0  0  0  0  0
    9.7879   -4.1250    0.0000 C   0  0  0  0  0  0  0  0  0  0  0  0
    9.0734   -3.7125    0.0000 C   0  0  0  0  0  0  0  0  0  0  0  0
    8.3589   -4.1250    0.0000 C   0  0  0  0  0  0  0  0  0  0  0  0
   10.5024   -3.7125    0.0000 O   0  0  0  0  0  0  0  0  0  0  0  0
    9.0734   -2.8875    0.0000 O   0  0  0  0  0  0  0  0  0  0  0  0
    8.3589   -6.6000    0.0000 O   0  0  0  0  0  0  0  0  0  0  0  0
    4.0721   -4.9500    0.0000 O   0  0  0  0  0  0  0  0  0  0  0  0
    5.5011   -7.4250    0.0000 O   0  0  0  0  0  0  0  0  0  0  0  0
    8.3589   -7.4250    0.0000 C   0  0  2  0  0  0  0  0  0  0  0  0
    7.6445   -7.8375    0.0000 O   0  0  0  0  0  0  0  0  0  0  0  0
    7.6445   -8.6625    0.0000 C   0  0  1  0  0  0  0  0  0  0  0  0
    8.3589   -9.0750    0.0000 C   0  0  2  0  0  0  0  0  0  0  0  0
    9.0734   -8.6625    0.0000 C   0  0  1  0  0  0  0  0  0  0  0  0
    9.0734   -7.8375    0.0000 C   0  0  1  0  0  0  0  0  0  0  0  0
    6.9300   -9.0750    0.0000 C   0  0  0  0  0  0  0  0  0  0  0  0
    9.7879   -9.0750    0.0000 O   0  0  0  0  0  0  0  0  0  0  0  0
    9.7879   -7.4250    0.0000 O   0  0  0  0  0  0  0  0  0  0  0  0
    8.3589   -9.9000    0.0000 O   0  0  0  0  0  0  0  0  0  0  0  0
    6.9300   -9.9000    0.0000 O   0  0  0  0  0  0  0  0  0  0  0  0
    6.2155  -10.3125    0.0000 C   0  0  2  0  0  0  0  0  0  0  0  0
    5.5011   -9.9000    0.0000 O   0  0  0  0  0  0  0  0  0  0  0  0
    4.7866  -10.3125    0.0000 C   0  0  2  0  0  0  0  0  0  0  0  0
    4.7866  -11.1375    0.0000 C   0  0  1  0  0  0  0  0  0  0  0  0
    5.5011  -11.5500    0.0000 C   0  0  2  0  0  0  0  0  0  0  0  0
    6.2155  -11.1375    0.0000 C   0  0  1  0  0  0  0  0  0  0  0  0
    4.0721  -11.5500    0.0000 O   0  0  0  0  0  0  0  0  0  0  0  0
    5.5011  -12.3750    0.0000 O   0  0  0  0  0  0  0  0  0  0  0  0
    6.9300  -11.5500    0.0000 O   0  0  0  0  0  0  0  0  0  0  0  0
    4.0721   -9.9000    0.0000 C   0  0  0  0  0  0  0  0  0  0  0  0
  1  2  2  0  0  0  0
  2  3  1  0  0  0  0
  3  4  2  0  0  0  0
  4  5  1  0  0  0  0
  5  6  2  0  0  0  0
  6  1  1  0  0  0  0
  1  7  1  0  0  0  0
  7  8  2  0  0  0  0
  8  9  1  0  0  0  0
  9 10  2  0  0  0  0
 10  2  1  0  0  0  0
  5 11  1  0  0  0  0
 11 12  2  0  0  0  0
 12 13  1  0  0  0  0
 13 14  2  0  0  0  0
 14 15  1  0  0  0  0
 15 16  2  0  0  0  0
 16 11  1  0  0  0  0
 14 17  1  0  0  0  0
 15 18  1  0  0  0  0
  4 19  1  0  0  0  0
  8 20  1  0  0  0  0
 10 21  1  0  0  0  0
 22 19  1  1  0  0  0
 22 23  1  0  0  0  0
 23 24  1  0  0  0  0
 24 25  1  0  0  0  0
 25 26  1  0  0  0  0
 26 27  1  0  0  0  0
 27 22  1  0  0  0  0
 24 28  1  1  0  0  0
 26 29  1  1  0  0  0
 27 30  1  6  0  0  0
 25 31  1  6  0  0  0
 28 32  1  0  0  0  0
 33 32  1  1  0  0  0
 33 34  1  0  0  0  0
 34 35  1  0  0  0  0
 35 36  1  0  0  0  0
 36 37  1  0  0  0  0
 37 38  1  0  0  0  0
 38 33  1  0  0  0  0
 36 39  1  1  0  0  0
 37 40  1  6  0  0  0
 38 41  1  6  0  0  0
 35 42  1  6  0  0  0
M  CHG  1   6   1
M  END
>  <cdx:fragmentId>
169

$$$$
