93394.cdx
  Mrv1902 05222410252D          

 57 62  0  0  0  0            999 V2000
    8.7431  -10.2163    0.0000 C   0  0  0  0  0  0  0  0  0  0  0  0
    8.7431  -11.0412    0.0000 C   0  0  0  0  0  0  0  0  0  0  0  0
    9.4575  -11.4537    0.0000 C   0  0  0  0  0  0  0  0  0  0  0  0
   10.1720  -11.0412    0.0000 C   0  0  0  0  0  0  0  0  0  0  0  0
   10.1720  -10.2163    0.0000 C   0  0  0  0  0  0  0  0  0  0  0  0
    9.4575   -9.8038    0.0000 C   0  0  0  0  0  0  0  0  0  0  0  0
    9.4575  -12.2788    0.0000 O   0  0  0  0  0  0  0  0  0  0  0  0
   10.1720  -12.6913    0.0000 C   0  0  0  0  0  0  0  0  0  0  0  0
   10.8865  -11.4537    0.0000 O   0  0  0  0  0  0  0  0  0  0  0  0
   11.6009  -11.0412    0.0000 C   0  0  0  0  0  0  0  0  0  0  0  0
    9.4575   -8.9788    0.0000 C   0  0  0  0  0  0  0  0  0  0  0  0
   10.1720   -8.5663    0.0000 C   0  0  2  0  0  0  0  0  0  0  0  0
   10.1720   -7.7413    0.0000 C   0  0  1  0  0  0  0  0  0  0  0  0
    9.4575   -7.3287    0.0000 C   0  0  0  0  0  0  0  0  0  0  0  0
    8.7431   -7.7413    0.0000 C   0  0  0  0  0  0  0  0  0  0  0  0
   10.9566   -8.8212    0.0000 C   0  0  0  0  0  0  0  0  0  0  0  0
   11.4415   -8.1538    0.0000 O   0  0  0  0  0  0  0  0  0  0  0  0
   10.9566   -7.4863    0.0000 C   0  0  0  0  0  0  0  0  0  0  0  0
    8.0286   -7.3287    0.0000 C   0  0  0  0  0  0  0  0  0  0  0  0
    7.3141   -7.7413    0.0000 C   0  0  0  0  0  0  0  0  0  0  0  0
    7.3141   -8.5663    0.0000 C   0  0  0  0  0  0  0  0  0  0  0  0
    8.0286   -8.9788    0.0000 C   0  0  0  0  0  0  0  0  0  0  0  0
    8.7431   -8.5663    0.0000 C   0  0  0  0  0  0  0  0  0  0  0  0
    8.0286   -9.8038    0.0000 O   0  0  0  0  0  0  0  0  0  0  0  0
    7.3141  -10.2163    0.0000 C   0  0  0  0  0  0  0  0  0  0  0  0
    6.5996   -8.9788    0.0000 O   0  0  0  0  0  0  0  0  0  0  0  0
    6.5996   -7.3287    0.0000 C   0  0  0  0  0  0  0  0  0  0  0  0
    6.5996   -6.5038    0.0000 C   0  0  0  0  0  0  0  0  0  0  0  0
    5.8852   -6.0912    0.0000 C   0  0  0  0  0  0  0  0  0  0  0  0
    5.1707   -6.5038    0.0000 C   0  0  0  0  0  0  0  0  0  0  0  0
    5.1707   -7.3287    0.0000 C   0  0  0  0  0  0  0  0  0  0  0  0
    5.8852   -7.7413    0.0000 C   0  0  0  0  0  0  0  0  0  0  0  0
    7.3141   -6.0912    0.0000 O   0  0  0  0  0  0  0  0  0  0  0  0
    5.8852   -5.2663    0.0000 O   0  0  0  0  0  0  0  0  0  0  0  0
    6.5996   -4.8538    0.0000 C   0  0  0  0  0  0  0  0  0  0  0  0
    4.4562   -7.7413    0.0000 C   0  0  0  0  0  0  0  0  0  0  0  0
    3.7418   -7.3287    0.0000 C   0  0  0  0  0  0  0  0  0  0  0  0
    3.7418   -6.5038    0.0000 C   0  0  2  0  0  0  0  0  0  0  0  0
    2.9571   -6.2488    0.0000 C   0  0  0  0  0  0  0  0  0  0  0  0
    2.4722   -6.9162    0.0000 O   0  0  0  0  0  0  0  0  0  0  0  0
    2.9571   -7.5837    0.0000 C   0  0  0  0  0  0  0  0  0  0  0  0
    4.4092   -6.0188    0.0000 C   0  0  0  0  0  0  0  0  0  0  0  0
    4.4092   -5.1938    0.0000 C   0  0  0  0  0  0  0  0  0  0  0  0
    5.1237   -4.7813    0.0000 C   0  0  0  0  0  0  0  0  0  0  0  0
    5.1237   -3.9563    0.0000 C   0  0  0  0  0  0  0  0  0  0  0  0
    4.4092   -3.5438    0.0000 C   0  0  0  0  0  0  0  0  0  0  0  0
    3.6947   -3.9563    0.0000 C   0  0  0  0  0  0  0  0  0  0  0  0
    3.6947   -4.7813    0.0000 C   0  0  0  0  0  0  0  0  0  0  0  0
    4.4092   -2.7188    0.0000 O   0  0  0  0  0  0  0  0  0  0  0  0
    2.9803   -3.5438    0.0000 O   0  0  0  0  0  0  0  0  0  0  0  0
    2.2658   -3.9563    0.0000 C   0  0  0  0  0  0  0  0  0  0  0  0
    3.6127   -5.6889    0.0000 H   0  0  0  0  0  0  0  0  0  0  0  0
   10.2582   -9.3867    0.0000 H   0  0  0  0  0  0  0  0  0  0  0  0
   10.2582   -6.9208    0.0000 H   0  0  0  0  0  0  0  0  0  0  0  0
   11.2116   -6.7017    0.0000 O   0  0  0  0  0  0  0  0  0  0  0  0
    2.7022   -8.3683    0.0000 O   0  0  0  0  0  0  0  0  0  0  0  0
    3.6947   -2.3063    0.0000 C   0  0  0  0  0  0  0  0  0  0  0  0
  1  2  2  0  0  0  0
  2  3  1  0  0  0  0
  3  4  2  0  0  0  0
  4  5  1  0  0  0  0
  5  6  2  0  0  0  0
  6  1  1  0  0  0  0
  3  7  1  0  0  0  0
  7  8  1  0  0  0  0
  4  9  1  0  0  0  0
  9 10  1  0  0  0  0
  6 11  1  0  0  0  0
 11 12  1  0  0  0  0
 12 13  1  0  0  0  0
 13 14  1  0  0  0  0
 14 15  1  0  0  0  0
 12 16  1  0  0  0  0
 16 17  1  0  0  0  0
 17 18  1  0  0  0  0
 18 13  1  0  0  0  0
 15 19  2  0  0  0  0
 19 20  1  0  0  0  0
 20 21  2  0  0  0  0
 21 22  1  0  0  0  0
 22 23  2  0  0  0  0
 23 15  1  0  0  0  0
 22 24  1  0  0  0  0
 24 25  1  0  0  0  0
 21 26  1  0  0  0  0
 20 27  1  0  0  0  0
 27 28  2  0  0  0  0
 28 29  1  0  0  0  0
 29 30  2  0  0  0  0
 30 31  1  0  0  0  0
 31 32  2  0  0  0  0
 32 27  1  0  0  0  0
 28 33  1  0  0  0  0
 29 34  1  0  0  0  0
 34 35  1  0  0  0  0
 31 36  1  0  0  0  0
 36 37  2  0  0  0  0
 37 38  1  0  0  0  0
 38 39  1  0  0  0  0
 39 40  1  0  0  0  0
 40 41  1  0  0  0  0
 41 37  1  0  0  0  0
 38 42  1  0  0  0  0
 42 43  1  0  0  0  0
 43 44  2  0  0  0  0
 44 45  1  0  0  0  0
 45 46  2  0  0  0  0
 46 47  1  0  0  0  0
 47 48  2  0  0  0  0
 48 43  1  0  0  0  0
 46 49  1  0  0  0  0
 47 50  1  0  0  0  0
 50 51  1  0  0  0  0
 38 52  1  1  0  0  0
 12 53  1  1  0  0  0
 13 54  1  6  0  0  0
 18 55  2  0  0  0  0
 41 56  2  0  0  0  0
 49 57  1  0  0  0  0
M  END
>  <cdx:fragmentId>
5

$$$$
