93399.cdx
  Mrv1902 05222410212D          

 37 38  0  0  0  0            999 V2000
    8.2685  -12.7896    0.0000 C   0  0  0  0  0  0  0  0  0  0  0  0
    7.5875  -11.5333    0.0000 O   0  0  0  0  0  0  0  0  0  0  0  0
    6.8736  -10.2575    0.0000 O   0  0  0  0  0  0  0  0  0  0  0  0
    6.1591  -10.6700    0.0000 C   0  0  1  0  0  0  0  0  0  0  0  0
    6.8623  -11.9265    0.0000 C   0  0  0  0  0  0  0  0  0  0  0  0
    6.1591  -11.4950    0.0000 O   0  0  0  0  0  0  0  0  0  0  0  0
    6.8736   -9.4325    0.0000 C   0  0  0  0  0  0  0  0  0  0  0  0
    6.1591   -9.0200    0.0000 C   0  0  0  0  0  0  0  0  0  0  0  0
    5.4446   -9.4325    0.0000 C   0  0  2  0  0  0  0  0  0  0  0  0
    5.4446  -10.2575    0.0000 C   0  0  1  0  0  0  0  0  0  0  0  0
    7.5881   -9.0200    0.0000 O   0  0  0  0  0  0  0  0  0  0  0  0
    7.5881   -8.1950    0.0000 C   0  0  0  0  0  0  0  0  0  0  0  0
    6.8736   -7.7825    0.0000 O   0  0  0  0  0  0  0  0  0  0  0  0
    6.1591   -8.1950    0.0000 C   0  0  0  0  0  0  0  0  0  0  0  0
    9.0170   -9.0200    0.0000 C   0  0  0  0  0  0  0  0  0  0  0  0
    9.0170   -8.1950    0.0000 C   0  0  0  0  0  0  0  0  0  0  0  0
    8.3025   -7.7825    0.0000 C   0  0  1  0  0  0  0  0  0  0  0  0
    9.7315   -7.7825    0.0000 C   0  0  0  0  0  0  0  0  0  0  0  0
    9.7315   -6.9575    0.0000 C   0  0  0  0  0  0  0  0  0  0  0  0
    9.0170   -6.5450    0.0000 C   0  0  0  0  0  0  0  0  0  0  0  0
    8.3025   -6.9575    0.0000 O   0  0  0  0  0  0  0  0  0  0  0  0
   11.1604   -6.9575    0.0000 C   0  0  0  0  0  0  0  0  0  0  0  0
   10.4459   -6.5450    0.0000 C   0  0  0  0  0  0  0  0  0  0  0  0
   10.4459   -5.7200    0.0000 C   0  0  0  0  0  0  0  0  0  0  0  0
    9.0170   -5.7200    0.0000 O   0  0  0  0  0  0  0  0  0  0  0  0
    7.5211  -14.0075    0.0000 C   0  0  0  0  0  0  0  0  0  0  0  0
    7.5433  -13.1828    0.0000 C   0  0  0  0  0  0  0  0  0  0  0  0
    6.8401  -12.7512    0.0000 C   0  0  0  0  0  0  0  0  0  0  0  0
    4.6600   -9.1776    0.0000 C   0  0  0  0  0  0  0  0  0  0  0  0
    4.1751   -9.8450    0.0000 C   0  0  1  0  0  0  0  0  0  0  0  0
    4.6600  -10.5124    0.0000 C   0  0  2  0  0  0  0  0  0  0  0  0
    4.6600  -11.3374    0.0000 O   0  0  0  0  0  0  0  0  0  0  0  0
    3.9455  -10.9249    0.0000 C   0  0  0  0  0  0  0  0  0  0  0  0
    3.9455  -11.7499    0.0000 O   0  0  0  0  0  0  0  0  0  0  0  0
    5.4446  -11.0825    0.0000 H   0  0  0  0  0  0  0  0  0  0  0  0
    5.4446   -8.6075    0.0000 O   0  0  0  0  0  0  0  0  0  0  0  0
    3.3501   -9.8450    0.0000 O   0  0  0  0  0  0  0  0  0  0  0  0
  1 27  1  0  0  0  0
  5  2  2  0  0  0  0
  5 28  1  0  0  0  0
  6  5  1  0  0  0  0
  3  4  1  0  0  0  0
  4  6  1  1  0  0  0
 27 26  1  0  0  0  0
  3  7  1  0  0  0  0
  7  8  2  0  0  0  0
  8  9  1  0  0  0  0
  9 10  1  0  0  0  0
 10  4  1  0  0  0  0
 11 12  2  0  0  0  0
 12 13  1  0  0  0  0
 13 14  1  0  0  0  0
 14  8  1  0  0  0  0
 15 16  1  0  0  0  0
 16 17  1  0  0  0  0
 17 12  1  0  0  0  0
 16 18  1  0  0  0  0
 19 20  1  0  0  0  0
 20 21  1  0  0  0  0
 17 21  1  6  0  0  0
 22 23  1  0  0  0  0
 23 19  1  0  0  0  0
 23 24  1  0  0  0  0
 25 20  2  0  0  0  0
 28 27  1  0  0  0  0
  9 29  1  0  0  0  0
 29 30  1  0  0  0  0
 30 31  1  0  0  0  0
 31 10  1  0  0  0  0
 31 32  1  0  0  0  0
 31 33  1  6  0  0  0
 33 34  1  0  0  0  0
 10 35  1  1  0  0  0
  9 36  1  1  0  0  0
 30 37  1  1  0  0  0
M  END
>  <cdx:fragmentId>
5

$$$$
