93402.cdx
  Mrv1902 05222410212D          

 57 64  0  0  0  0            999 V2000
    9.4082   -8.8235    0.0000 C   0  0  0  0  0  0  0  0  0  0  0  0
    8.6944  -10.0612    0.0000 H   0  0  0  0  0  0  0  0  0  0  0  0
    7.2652  -10.0617    0.0000 C   0  0  0  0  0  0  0  0  0  0  0  0
    5.1225  -12.1249    0.0000 O   0  0  0  0  0  0  0  0  0  0  0  0
   13.4642   -7.5249    0.0000 C   0  0  0  0  0  0  0  0  0  0  0  0
   10.4225   -7.9411    0.0000 C   0  0  0  0  0  0  0  0  0  0  0  0
   11.1633  -10.7278    0.0000 H   0  0  0  0  0  0  0  0  0  0  0  0
    9.7078   -8.7260    0.0000 H   0  0  0  0  0  0  0  0  0  0  0  0
    9.4087  -11.2985    0.0000 H   0  0  0  0  0  0  0  0  0  0  0  0
    7.9801  -11.2989    0.0000 H   0  0  0  0  0  0  0  0  0  0  0  0
    5.1219  -10.4749    0.0000 O   0  0  0  0  0  0  0  0  0  0  0  0
   12.2162   -9.3156    0.0000 C   0  0  0  0  0  0  0  0  0  0  0  0
   12.8834   -8.8305    0.0000 C   0  0  0  0  0  0  0  0  0  0  0  0
   12.7969   -8.0100    0.0000 C   0  0  2  0  0  0  0  0  0  0  0  0
   12.0431   -7.6747    0.0000 C   0  0  0  0  0  0  0  0  0  0  0  0
   11.3759   -8.1599    0.0000 O   0  0  0  0  0  0  0  0  0  0  0  0
   11.4627   -9.8053    0.0000 O   0  0  0  0  0  0  0  0  0  0  0  0
   11.4624   -8.9803    0.0000 C   0  0  1  0  0  0  0  0  0  0  0  0
   10.6777   -8.7256    0.0000 C   0  0  2  0  0  0  0  0  0  0  0  0
   10.1934  -10.7281    0.0000 C   0  0  0  0  0  0  0  0  0  0  0  0
   10.6781  -10.0605    0.0000 C   0  0  1  0  0  0  0  0  0  0  0  0
   10.1930   -9.3932    0.0000 C   0  0  1  0  0  0  0  0  0  0  0  0
    9.4087  -10.4735    0.0000 C   0  0  2  0  0  0  0  0  0  0  0  0
    9.4084   -9.6485    0.0000 C   0  0  1  0  0  0  0  0  0  0  0  0
    8.6938   -9.2362    0.0000 C   0  0  0  0  0  0  0  0  0  0  0  0
    7.9795   -9.6489    0.0000 C   0  0  0  0  0  0  0  0  0  0  0  0
    7.9803  -12.1239    0.0000 C   0  0  0  0  0  0  0  0  0  0  0  0
    8.6947  -11.7112    0.0000 C   0  0  0  0  0  0  0  0  0  0  0  0
    8.6944  -10.8862    0.0000 C   0  0  2  0  0  0  0  0  0  0  0  0
    7.9798  -10.4739    0.0000 C   0  0  1  0  0  0  0  0  0  0  0  0
    5.8365  -10.8872    0.0000 C   0  0  1  0  0  0  0  0  0  0  0  0
    5.8368  -11.7122    0.0000 C   0  0  1  0  0  0  0  0  0  0  0  0
    6.5514  -12.1244    0.0000 C   0  0  0  0  0  0  0  0  0  0  0  0
    7.2657  -11.7117    0.0000 C   0  0  0  0  0  0  0  0  0  0  0  0
    7.2654  -10.8867    0.0000 C   0  0  1  0  0  0  0  0  0  0  0  0
    6.5508  -10.4744    0.0000 C   0  0  0  0  0  0  0  0  0  0  0  0
    4.4129  -11.7040    0.0000 C   0  0  2  0  0  0  0  0  0  0  0  0
    4.4226  -10.8791    0.0000 O   0  0  0  0  0  0  0  0  0  0  0  0
    3.7131  -10.4582    0.0000 C   0  0  1  0  0  0  0  0  0  0  0  0
    2.9938  -10.8622    0.0000 C   0  0  2  0  0  0  0  0  0  0  0  0
    2.9841  -11.6872    0.0000 C   0  0  1  0  0  0  0  0  0  0  0  0
    3.6936  -12.1081    0.0000 C   0  0  1  0  0  0  0  0  0  0  0  0
    3.7228   -9.6333    0.0000 C   0  0  0  0  0  0  0  0  0  0  0  0
    2.2648  -12.0912    0.0000 O   0  0  0  0  0  0  0  0  0  0  0  0
    2.2842  -10.4414    0.0000 O   0  0  0  0  0  0  0  0  0  0  0  0
    3.6839  -12.9330    0.0000 O   0  0  0  0  0  0  0  0  0  0  0  0
    3.0132   -9.2124    0.0000 O   0  0  0  0  0  0  0  0  0  0  0  0
    2.9646  -13.3371    0.0000 C   0  0  2  0  0  0  0  0  0  0  0  0
    2.2551  -12.9162    0.0000 O   0  0  0  0  0  0  0  0  0  0  0  0
    1.5358  -13.3202    0.0000 C   0  0  2  0  0  0  0  0  0  0  0  0
    1.5260  -14.1452    0.0000 C   0  0  1  0  0  0  0  0  0  0  0  0
    2.2356  -14.5661    0.0000 C   0  0  2  0  0  0  0  0  0  0  0  0
    2.9549  -14.1620    0.0000 C   0  0  1  0  0  0  0  0  0  0  0  0
    0.8068  -14.5492    0.0000 O   0  0  0  0  0  0  0  0  0  0  0  0
    0.8262  -12.8993    0.0000 C   0  0  0  0  0  0  0  0  0  0  0  0
    2.2259  -15.3910    0.0000 O   0  0  0  0  0  0  0  0  0  0  0  0
    3.6644  -14.5829    0.0000 O   0  0  0  0  0  0  0  0  0  0  0  0
 24  1  1  1  0  0  0
 29  2  1  1  0  0  0
 35  3  1  1  0  0  0
 32  4  1  1  0  0  0
 14  5  1  6  0  0  0
 19  6  1  6  0  0  0
 21  7  1  6  0  0  0
 22  8  1  6  0  0  0
 23  9  1  6  0  0  0
 30 10  1  6  0  0  0
 31 11  1  6  0  0  0
 12 18  1  0  0  0  0
 13 12  1  0  0  0  0
 14 13  1  0  0  0  0
 15 14  1  0  0  0  0
 16 15  1  0  0  0  0
 18 16  1  0  0  0  0
 17 21  1  0  0  0  0
 18 17  1  6  0  0  0
 19 18  1  0  0  0  0
 22 19  1  0  0  0  0
 20 23  1  0  0  0  0
 21 20  1  0  0  0  0
 22 21  1  0  0  0  0
 24 22  1  0  0  0  0
 23 29  1  0  0  0  0
 24 23  1  0  0  0  0
 25 24  1  0  0  0  0
 26 25  1  0  0  0  0
 30 26  1  0  0  0  0
 27 34  2  0  0  0  0
 28 27  1  0  0  0  0
 29 28  1  0  0  0  0
 30 29  1  0  0  0  0
 35 30  1  0  0  0  0
 31 36  1  0  0  0  0
 32 31  1  0  0  0  0
 33 32  1  0  0  0  0
 34 33  1  0  0  0  0
 35 34  1  0  0  0  0
 36 35  1  0  0  0  0
 37  4  1  1  0  0  0
 37 38  1  0  0  0  0
 38 39  1  0  0  0  0
 39 40  1  0  0  0  0
 40 41  1  0  0  0  0
 41 42  1  0  0  0  0
 42 37  1  0  0  0  0
 39 43  1  1  0  0  0
 41 44  1  1  0  0  0
 40 45  1  6  0  0  0
 42 46  1  6  0  0  0
 43 47  1  0  0  0  0
 48 46  1  1  0  0  0
 48 49  1  0  0  0  0
 49 50  1  0  0  0  0
 50 51  1  0  0  0  0
 51 52  1  0  0  0  0
 52 53  1  0  0  0  0
 53 48  1  0  0  0  0
 51 54  1  1  0  0  0
 50 55  1  6  0  0  0
 52 56  1  6  0  0  0
 53 57  1  6  0  0  0
M  END
>  <cdx:fragmentId>
5

$$$$
