93401.cdx
  Mrv1902 05222410212D          

 27 30  0  0  0  0            999 V2000
    3.8206   -8.8413    0.0000 C   0  0  0  0  0  0  0  0  0  0  0  0
    3.8206   -9.6662    0.0000 C   0  0  0  0  0  0  0  0  0  0  0  0
    4.5350  -10.0787    0.0000 C   0  0  1  0  0  0  0  0  0  0  0  0
    5.2495   -9.6662    0.0000 C   0  0  2  0  0  0  0  0  0  0  0  0
    5.2495   -8.8413    0.0000 C   0  0  1  0  0  0  0  0  0  0  0  0
    4.5350   -8.4288    0.0000 C   0  0  0  0  0  0  0  0  0  0  0  0
    5.9640  -10.0787    0.0000 C   0  0  0  0  0  0  0  0  0  0  0  0
    6.6784   -9.6662    0.0000 C   0  0  0  0  0  0  0  0  0  0  0  0
    6.6784   -8.8413    0.0000 C   0  0  1  0  0  0  0  0  0  0  0  0
    5.9640   -8.4288    0.0000 C   0  0  1  0  0  0  0  0  0  0  0  0
    7.3929   -8.4288    0.0000 C   0  0  1  0  0  0  0  0  0  0  0  0
    7.3929   -7.6037    0.0000 C   0  0  0  0  0  0  0  0  0  0  0  0
    6.6784   -7.1913    0.0000 C   0  0  1  0  0  0  0  0  0  0  0  0
    5.9640   -7.6037    0.0000 C   0  0  2  0  0  0  0  0  0  0  0  0
    8.0060   -7.0517    0.0000 C   0  0  0  0  0  0  0  0  0  0  0  0
    7.6704   -6.2980    0.0000 C   0  0  0  0  0  0  0  0  0  0  0  0
    6.8500   -6.3843    0.0000 O   0  0  0  0  0  0  0  0  0  0  0  0
    8.8130   -7.2232    0.0000 C   0  0  0  0  0  0  0  0  0  0  0  0
    8.0829   -5.5836    0.0000 O   0  0  0  0  0  0  0  0  0  0  0  0
    4.1225  -10.7932    0.0000 C   0  0  0  0  0  0  0  0  0  0  0  0
    5.2495  -10.4912    0.0000 H   0  0  0  0  0  0  0  0  0  0  0  0
    5.9640   -9.2538    0.0000 H   0  0  0  0  0  0  0  0  0  0  0  0
    5.2495   -7.1913    0.0000 O   0  0  0  0  0  0  0  0  0  0  0  0
    7.3929   -9.2538    0.0000 O   0  0  0  0  0  0  0  0  0  0  0  0
    8.1074   -8.8413    0.0000 O   0  0  0  0  0  0  0  0  0  0  0  0
    5.2495   -8.0162    0.0000 C   0  0  0  0  0  0  0  0  0  0  0  0
    4.9475  -10.7932    0.0000 C   0  0  0  0  0  0  0  0  0  0  0  0
  1  2  1  0  0  0  0
  2  3  1  0  0  0  0
  3  4  1  0  0  0  0
  4  5  1  0  0  0  0
  5  6  1  0  0  0  0
  6  1  1  0  0  0  0
  4  7  1  0  0  0  0
  7  8  1  0  0  0  0
  8  9  1  0  0  0  0
  9 10  1  0  0  0  0
 10  5  1  0  0  0  0
  9 11  1  0  0  0  0
 11 12  1  0  0  0  0
 12 13  1  0  0  0  0
 13 14  1  0  0  0  0
 14 10  1  0  0  0  0
 12 15  2  0  0  0  0
 15 16  1  0  0  0  0
 16 17  1  0  0  0  0
 13 17  1  1  0  0  0
 15 18  1  0  0  0  0
 16 19  2  0  0  0  0
  3 20  1  1  0  0  0
  4 21  1  1  0  0  0
 10 22  1  1  0  0  0
 14 23  1  1  0  0  0
  9 24  1  6  0  0  0
 11 25  1  1  0  0  0
  5 26  1  6  0  0  0
  3 27  1  6  0  0  0
M  END
>  <cdx:fragmentId>
5

$$$$
