93408.cdx
  Mrv1902 05222410242D          

 57 63  0  0  0  0            999 V2000
   12.9541  -11.6337    0.0000 H   0  0  0  0  0  0  0  0  0  0  0  0
   12.2341  -12.8692    0.0000 H   0  0  0  0  0  0  0  0  0  0  0  0
   12.2385  -10.3943    0.0000 C   0  0  0  0  0  0  0  0  0  0  0  0
   10.0918  -12.4510    0.0000 O   0  0  0  0  0  0  0  0  0  0  0  0
   12.9475  -13.2837    0.0000 O   0  0  0  0  0  0  0  0  0  0  0  0
   12.9541  -10.8087    0.0000 C   0  0  2  0  0  0  0  0  0  0  0  0
   12.2385  -11.2193    0.0000 C   0  0  2  0  0  0  0  0  0  0  0  0
   11.5252  -10.8048    0.0000 C   0  0  0  0  0  0  0  0  0  0  0  0
   10.8096  -11.2154    0.0000 C   0  0  0  0  0  0  0  0  0  0  0  0
   10.8074  -12.0404    0.0000 C   0  0  1  0  0  0  0  0  0  0  0  0
   11.5207  -12.4548    0.0000 C   0  0  0  0  0  0  0  0  0  0  0  0
   12.2363  -12.0442    0.0000 C   0  0  2  0  0  0  0  0  0  0  0  0
   12.9497  -12.4587    0.0000 C   0  0  0  0  0  0  0  0  0  0  0  0
   13.6652  -12.0481    0.0000 C   0  0  0  0  0  0  0  0  0  0  0  0
   13.6675  -11.2231    0.0000 C   0  0  1  0  0  0  0  0  0  0  0  0
    9.3784  -12.0366    0.0000 C   0  0  2  0  0  0  0  0  0  0  0  0
    9.3817  -11.2116    0.0000 O   0  0  0  0  0  0  0  0  0  0  0  0
    8.6689  -10.7962    0.0000 C   0  0  1  0  0  0  0  0  0  0  0  0
    7.9528  -11.2116    0.0000 C   0  0  2  0  0  0  0  0  0  0  0  0
    7.9528  -12.0366    0.0000 C   0  0  1  0  0  0  0  0  0  0  0  0
    8.6689  -12.4520    0.0000 C   0  0  1  0  0  0  0  0  0  0  0  0
    8.6698   -9.9712    0.0000 C   0  0  0  0  0  0  0  0  0  0  0  0
    7.2379  -12.4484    0.0000 O   0  0  0  0  0  0  0  0  0  0  0  0
    8.6706  -13.2770    0.0000 O   0  0  0  0  0  0  0  0  0  0  0  0
    7.2379  -10.7998    0.0000 O   0  0  0  0  0  0  0  0  0  0  0  0
    7.9557   -9.5580    0.0000 O   0  0  0  0  0  0  0  0  0  0  0  0
   14.3830  -10.8087    0.0000 C   0  0  1  0  0  0  0  0  0  0  0  0
   14.3830   -9.9837    0.0000 C   0  0  2  0  0  0  0  0  0  0  0  0
   13.6675   -9.5693    0.0000 C   0  0  0  0  0  0  0  0  0  0  0  0
   12.9541   -9.9837    0.0000 C   0  0  0  0  0  0  0  0  0  0  0  0
   15.1676  -11.0636    0.0000 C   0  0  0  0  0  0  0  0  0  0  0  0
   15.6526  -10.3962    0.0000 C   0  0  0  0  0  0  0  0  0  0  0  0
   15.1676   -9.7287    0.0000 C   0  0  2  0  0  0  0  0  0  0  0  0
   15.4226   -8.9441    0.0000 C   0  0  2  0  0  0  0  0  0  0  0  0
   14.8706   -8.3310    0.0000 C   0  0  0  0  0  0  0  0  0  0  0  0
   16.2296   -8.7726    0.0000 C   0  0  0  0  0  0  0  0  0  0  0  0
   16.7816   -9.3857    0.0000 C   0  0  0  0  0  0  0  0  0  0  0  0
   17.5886   -9.2141    0.0000 C   0  0  0  0  0  0  0  0  0  0  0  0
   17.8435   -8.4295    0.0000 C   0  0  2  0  0  0  0  0  0  0  0  0
   17.2915   -7.8164    0.0000 C   0  0  0  0  0  0  0  0  0  0  0  0
   16.4845   -7.9880    0.0000 N   0  0  0  0  0  0  0  0  0  0  0  0
   18.6505   -8.2580    0.0000 C   0  0  0  0  0  0  0  0  0  0  0  0
   15.9523   -9.4738    0.0000 H   0  0  0  0  0  0  0  0  0  0  0  0
   14.3830   -9.1587    0.0000 C   0  0  0  0  0  0  0  0  0  0  0  0
   14.3830  -11.6337    0.0000 H   0  0  0  0  0  0  0  0  0  0  0  0
   13.6697  -10.3981    0.0000 H   0  0  0  0  0  0  0  0  0  0  0  0
    6.4129  -10.7987    0.0000 C   0  0  2  0  0  0  0  0  0  0  0  0
    6.0007  -10.0840    0.0000 O   0  0  0  0  0  0  0  0  0  0  0  0
    5.1772  -10.0812    0.0000 C   0  0  1  0  0  0  0  0  0  0  0  0
    4.7629  -10.7947    0.0000 C   0  0  2  0  0  0  0  0  0  0  0  0
    5.1737  -11.5085    0.0000 C   0  0  1  0  0  0  0  0  0  0  0  0
    5.9987  -11.5121    0.0000 C   0  0  1  0  0  0  0  0  0  0  0  0
    4.7667   -9.3655    0.0000 C   0  0  0  0  0  0  0  0  0  0  0  0
    4.7591  -12.2218    0.0000 O   0  0  0  0  0  0  0  0  0  0  0  0
    3.9418   -9.3631    0.0000 O   0  0  0  0  0  0  0  0  0  0  0  0
    6.4088  -12.2280    0.0000 O   0  0  0  0  0  0  0  0  0  0  0  0
    3.9379  -10.7931    0.0000 O   0  0  0  0  0  0  0  0  0  0  0  0
  6  1  1  6  0  0  0
 12  2  1  6  0  0  0
  7  3  1  1  0  0  0
 10  4  1  1  0  0  0
 13  5  2  0  0  0  0
 12  7  1  0  0  0  0
 15  6  1  0  0  0  0
  7  6  1  0  0  0  0
  8  7  1  0  0  0  0
  9  8  1  0  0  0  0
 10  9  1  0  0  0  0
 11 10  1  0  0  0  0
 12 11  1  0  0  0  0
 13 12  1  0  0  0  0
 14 13  1  0  0  0  0
 15 14  1  0  0  0  0
 16  4  1  1  0  0  0
 16 17  1  0  0  0  0
 17 18  1  0  0  0  0
 18 19  1  0  0  0  0
 19 20  1  0  0  0  0
 20 21  1  0  0  0  0
 21 16  1  0  0  0  0
 18 22  1  1  0  0  0
 20 23  1  1  0  0  0
 21 24  1  6  0  0  0
 19 25  1  6  0  0  0
 22 26  1  0  0  0  0
 15 27  1  0  0  0  0
 27 28  1  0  0  0  0
 28 29  1  0  0  0  0
 29 30  1  0  0  0  0
 30  6  1  0  0  0  0
 27 31  1  0  0  0  0
 31 32  1  0  0  0  0
 32 33  1  0  0  0  0
 33 28  1  0  0  0  0
 33 34  1  0  0  0  0
 34 35  1  6  0  0  0
 34 36  1  0  0  0  0
 36 37  1  0  0  0  0
 37 38  1  0  0  0  0
 38 39  1  0  0  0  0
 39 40  1  0  0  0  0
 40 41  1  0  0  0  0
 41 36  1  0  0  0  0
 39 42  1  6  0  0  0
 33 43  1  6  0  0  0
 28 44  1  1  0  0  0
 27 45  1  6  0  0  0
 15 46  1  1  0  0  0
 47 25  1  1  0  0  0
 47 48  1  0  0  0  0
 48 49  1  0  0  0  0
 49 50  1  0  0  0  0
 50 51  1  0  0  0  0
 51 52  1  0  0  0  0
 52 47  1  0  0  0  0
 49 53  1  1  0  0  0
 51 54  1  1  0  0  0
 53 55  1  0  0  0  0
 52 56  1  6  0  0  0
 50 57  1  6  0  0  0
M  END
>  <cdx:fragmentId>
239192

$$$$
