934094.cdx
  Mrv1902 05222410242D          

 21 20  0  0  0  0            999 V2000
    9.7651   -6.3747    0.0000 C   0  0  0  0  0  0  0  0  0  0  0  0
    9.0506   -6.7872    0.0000 C   0  0  0  0  0  0  0  0  0  0  0  0
    8.3362   -6.3747    0.0000 C   0  0  0  0  0  0  0  0  0  0  0  0
    7.6217   -6.7872    0.0000 C   0  0  0  0  0  0  0  0  0  0  0  0
    6.9072   -6.3747    0.0000 C   0  0  0  0  0  0  0  0  0  0  0  0
    6.1928   -6.7872    0.0000 C   0  0  0  0  0  0  0  0  0  0  0  0
    5.4783   -6.3747    0.0000 C   0  0  0  0  0  0  0  0  0  0  0  0
    4.7638   -6.7872    0.0000 C   0  0  0  0  0  0  0  0  0  0  0  0
    4.0493   -6.3747    0.0000 C   0  0  0  0  0  0  0  0  0  0  0  0
    3.3339   -6.7855    0.0000 C   0  0  0  0  0  0  0  0  0  0  0  0
    3.3311   -7.6105    0.0000 C   0  0  0  0  0  0  0  0  0  0  0  0
    2.6152   -8.0206    0.0000 C   0  0  0  0  0  0  0  0  0  0  0  0
    2.6095   -8.8456    0.0000 C   0  0  0  0  0  0  0  0  0  0  0  0
    3.3214   -9.2624    0.0000 C   0  0  0  0  0  0  0  0  0  0  0  0
    3.3164  -10.0874    0.0000 C   0  0  1  0  0  0  0  0  0  0  0  0
    4.0283  -10.5043    0.0000 C   0  0  0  0  0  0  0  0  0  0  0  0
    4.0233  -11.3293    0.0000 C   0  0  0  0  0  0  0  0  0  0  0  0
    4.7352  -11.7461    0.0000 C   0  0  0  0  0  0  0  0  0  0  0  0
    9.7651   -5.5497    0.0000 O   0  0  0  0  0  0  0  0  0  0  0  0
   10.4796   -6.7872    0.0000 O   0  0  0  0  0  0  0  0  0  0  0  0
    2.5994  -10.4955    0.0000 O   0  0  0  0  0  0  0  0  0  0  0  0
  1  2  1  0  0  0  0
  2  3  1  0  0  0  0
  3  4  1  0  0  0  0
  4  5  1  0  0  0  0
  5  6  1  0  0  0  0
  6  7  1  0  0  0  0
  7  8  1  0  0  0  0
  8  9  1  0  0  0  0
  9 10  2  0  0  0  0
 10 11  1  0  0  0  0
 11 12  1  0  0  0  0
 12 13  2  0  0  0  0
 13 14  1  0  0  0  0
 14 15  1  0  0  0  0
 15 16  1  0  0  0  0
 16 17  1  0  0  0  0
 17 18  1  0  0  0  0
  1 19  2  0  0  0  0
  1 20  1  0  0  0  0
 15 21  1  1  0  0  0
M  END
>  <cdx:fragmentId>
5

$$$$
