93403.cdx
  Mrv1902 05222410212D          

 49 55  0  0  0  0            999 V2000
    7.2440  -10.3215    0.0000 H   0  0  0  0  0  0  0  0  0  0  0  0
    6.5190  -11.5553    0.0000 H   0  0  0  0  0  0  0  0  0  0  0  0
    8.5397  -10.4961    0.0000 H   0  0  0  0  0  0  0  0  0  0  0  0
    8.9848  -10.0783    0.0000 H   0  0  0  0  0  0  0  0  0  0  0  0
    9.1365   -7.3195    0.0000 H   0  0  0  0  0  0  0  0  0  0  0  0
    9.2932   -5.8992    0.0000 H   0  0  0  0  0  0  0  0  0  0  0  0
    9.1415   -8.6580    0.0000 H   0  0  0  0  0  0  0  0  0  0  0  0
    7.8281   -7.8940    0.0000 H   0  0  0  0  0  0  0  0  0  0  0  0
    8.7107   -4.3475    0.0000 C   0  0  0  0  0  0  0  0  0  0  0  0
   10.8343   -7.5826    0.0000 C   0  0  0  0  0  0  0  0  0  0  0  0
    6.5275   -9.0804    0.0000 C   0  0  0  0  0  0  0  0  0  0  0  0
    4.3777  -11.1318    0.0000 O   0  0  0  0  0  0  0  0  0  0  0  0
    7.2313  -11.9715    0.0000 O   0  0  0  0  0  0  0  0  0  0  0  0
    7.4197   -8.6905    0.0000 C   0  0  0  0  0  0  0  0  0  0  0  0
    7.2440   -9.4965    0.0000 C   0  0  2  0  0  0  0  0  0  0  0  0
    6.5275   -9.9054    0.0000 C   0  0  2  0  0  0  0  0  0  0  0  0
    5.8151   -9.4892    0.0000 C   0  0  0  0  0  0  0  0  0  0  0  0
    5.0985   -9.8980    0.0000 C   0  0  0  0  0  0  0  0  0  0  0  0
    5.0943  -10.7230    0.0000 C   0  0  1  0  0  0  0  0  0  0  0  0
    5.8066  -11.1392    0.0000 C   0  0  0  0  0  0  0  0  0  0  0  0
    6.5232  -10.7303    0.0000 C   0  0  2  0  0  0  0  0  0  0  0  0
    7.2355  -11.1465    0.0000 C   0  0  1  0  0  0  0  0  0  0  0  0
    7.9521  -10.7377    0.0000 C   0  0  0  0  0  0  0  0  0  0  0  0
    7.9564   -9.9127    0.0000 C   0  0  1  0  0  0  0  0  0  0  0  0
    8.5723   -9.3639    0.0000 C   0  0  2  0  0  0  0  0  0  0  0  0
    9.3923   -9.4543    0.0000 C   0  0  0  0  0  0  0  0  0  0  0  0
    9.8807   -8.7894    0.0000 C   0  0  0  0  0  0  0  0  0  0  0  0
    9.5490   -8.0340    0.0000 C   0  0  1  0  0  0  0  0  0  0  0  0
   10.0374   -7.3691    0.0000 C   0  0  2  0  0  0  0  0  0  0  0  0
    9.7057   -6.6137    0.0000 C   0  0  1  0  0  0  0  0  0  0  0  0
   10.1941   -5.9487    0.0000 C   0  0  0  0  0  0  0  0  0  0  0  0
    9.8624   -5.1933    0.0000 C   0  0  0  0  0  0  0  0  0  0  0  0
    9.0424   -5.1029    0.0000 C   0  0  1  0  0  0  0  0  0  0  0  0
    8.5540   -5.7678    0.0000 C   0  0  0  0  0  0  0  0  0  0  0  0
    8.8857   -6.5232    0.0000 N   0  0  0  0  0  0  0  0  0  0  0  0
    8.3973   -7.1881    0.0000 C   0  0  0  0  0  0  0  0  0  0  0  0
    8.7290   -7.9435    0.0000 C   0  0  1  0  0  0  0  0  0  0  0  0
    8.2406   -8.6085    0.0000 C   0  0  2  0  0  0  0  0  0  0  0  0
    6.5147  -12.3803    0.0000 C   0  0  2  0  0  0  0  0  0  0  0  0
    5.8045  -11.9605    0.0000 O   0  0  0  0  0  0  0  0  0  0  0  0
    5.0858  -12.3803    0.0000 C   0  0  1  0  0  0  0  0  0  0  0  0
    5.0858  -13.2053    0.0000 C   0  0  2  0  0  0  0  0  0  0  0  0
    5.8045  -13.6251    0.0000 C   0  0  1  0  0  0  0  0  0  0  0  0
    6.5147  -13.2053    0.0000 C   0  0  1  0  0  0  0  0  0  0  0  0
    4.3703  -11.9697    0.0000 C   0  0  0  0  0  0  0  0  0  0  0  0
    5.8067  -14.4501    0.0000 O   0  0  0  0  0  0  0  0  0  0  0  0
    7.2313  -13.6141    0.0000 O   0  0  0  0  0  0  0  0  0  0  0  0
    4.3703  -13.6160    0.0000 O   0  0  0  0  0  0  0  0  0  0  0  0
    3.6569  -12.3840    0.0000 O   0  0  0  0  0  0  0  0  0  0  0  0
 15  1  1  6  0  0  0
 21  2  1  6  0  0  0
 24  3  1  1  0  0  0
 25  4  1  6  0  0  0
 28  5  1  1  0  0  0
 30  6  1  1  0  0  0
 37  7  1  1  0  0  0
 38  8  1  6  0  0  0
 33  9  1  1  0  0  0
 29 10  1  6  0  0  0
 16 11  1  1  0  0  0
 19 12  1  1  0  0  0
 22 13  1  1  0  0  0
 35 30  1  0  0  0  0
 37 28  1  0  0  0  0
 21 16  1  0  0  0  0
 24 15  1  0  0  0  0
 38 25  1  0  0  0  0
 38 14  1  0  0  0  0
 15 14  1  0  0  0  0
 16 15  1  0  0  0  0
 17 16  1  0  0  0  0
 18 17  1  0  0  0  0
 19 18  1  0  0  0  0
 20 19  1  0  0  0  0
 21 20  1  0  0  0  0
 22 21  1  0  0  0  0
 23 22  1  0  0  0  0
 24 23  1  0  0  0  0
 25 24  1  0  0  0  0
 26 25  1  0  0  0  0
 27 26  1  0  0  0  0
 28 27  1  0  0  0  0
 29 28  1  0  0  0  0
 30 29  1  0  0  0  0
 31 30  1  0  0  0  0
 32 31  1  0  0  0  0
 33 32  1  0  0  0  0
 34 33  1  0  0  0  0
 35 34  1  0  0  0  0
 36 35  1  0  0  0  0
 37 36  1  0  0  0  0
 38 37  1  0  0  0  0
 39 13  1  1  0  0  0
 39 40  1  0  0  0  0
 40 41  1  0  0  0  0
 41 42  1  0  0  0  0
 42 43  1  0  0  0  0
 43 44  1  0  0  0  0
 44 39  1  0  0  0  0
 41 45  1  1  0  0  0
 43 46  1  1  0  0  0
 44 47  1  6  0  0  0
 42 48  1  6  0  0  0
 45 49  1  0  0  0  0
M  END
>  <cdx:fragmentId>
7506

$$$$
