93405.cdx
  Mrv1902 05222410222D          

 47 52  0  0  0  0            999 V2000
    3.9397   -8.3462    0.0000 C   0  0  2  0  0  0  0  0  0  0  0  0
    3.9397   -9.1713    0.0000 C   0  0  2  0  0  0  0  0  0  0  0  0
    4.5847   -9.6856    0.0000 C   0  0  1  0  0  0  0  0  0  0  0  0
    5.3890   -9.5020    0.0000 C   0  0  1  0  0  0  0  0  0  0  0  0
    5.7470   -8.7588    0.0000 C   0  0  2  0  0  0  0  0  0  0  0  0
    5.3890   -8.0155    0.0000 C   0  0  2  0  0  0  0  0  0  0  0  0
    4.5847   -7.8319    0.0000 C   0  0  2  0  0  0  0  0  0  0  0  0
    5.9502   -7.4107    0.0000 C   0  0  2  0  0  0  0  0  0  0  0  0
    5.7070   -6.6223    0.0000 C   0  0  2  0  0  0  0  0  0  0  0  0
    4.9027   -6.4388    0.0000 C   0  0  1  0  0  0  0  0  0  0  0  0
    4.3415   -7.0435    0.0000 C   0  0  1  0  0  0  0  0  0  0  0  0
    3.1551   -8.0913    0.0000 C   0  0  0  0  0  0  0  0  0  0  0  0
    2.6702   -8.7588    0.0000 C   0  0  0  0  0  0  0  0  0  0  0  0
    3.1551   -9.4262    0.0000 C   0  0  0  0  0  0  0  0  0  0  0  0
    6.7751   -7.4107    0.0000 O   0  0  0  0  0  0  0  0  0  0  0  0
    7.0417   -6.6223    0.0000 C   0  0  0  0  0  0  0  0  0  0  0  0
    6.3816   -6.1275    0.0000 O   0  0  0  0  0  0  0  0  0  0  0  0
    5.3890  -10.3270    0.0000 C   0  0  0  0  0  0  0  0  0  0  0  0
    6.1035  -10.7395    0.0000 O   0  0  0  0  0  0  0  0  0  0  0  0
    1.8452   -8.7588    0.0000 C   0  0  0  0  0  0  0  0  0  0  0  0
    2.9001  -10.2108    0.0000 O   0  0  0  0  0  0  0  0  0  0  0  0
    3.5372   -6.8599    0.0000 C   0  0  0  0  0  0  0  0  0  0  0  0
    5.1681   -7.2485    0.0000 O   0  0  0  0  0  0  0  0  0  0  0  0
    3.7262   -7.5494    0.0000 H   0  0  0  0  0  0  0  0  0  0  0  0
    6.2150   -9.4050    0.0000 O   0  0  0  0  0  0  0  0  0  0  0  0
    3.7262   -9.9681    0.0000 O   0  0  0  0  0  0  0  0  0  0  0  0
    4.4011  -10.4899    0.0000 O   0  0  0  0  0  0  0  0  0  0  0  0
    6.1859   -8.2290    0.0000 H   0  0  0  0  0  0  0  0  0  0  0  0
    4.6595   -5.6504    0.0000 O   0  0  0  0  0  0  0  0  0  0  0  0
    3.8626   -5.4369    0.0000 C   0  0  0  0  0  0  0  0  0  0  0  0
    3.6491   -4.6400    0.0000 C   0  0  0  0  0  0  0  0  0  0  0  0
    3.2793   -6.0202    0.0000 O   0  0  0  0  0  0  0  0  0  0  0  0
    7.8297   -6.3780    0.0000 C   0  0  0  0  0  0  0  0  0  0  0  0
    8.4353   -6.9382    0.0000 C   0  0  0  0  0  0  0  0  0  0  0  0
    9.2233   -6.6939    0.0000 C   0  0  0  0  0  0  0  0  0  0  0  0
    9.8289   -7.2541    0.0000 C   0  0  0  0  0  0  0  0  0  0  0  0
   10.6169   -7.0098    0.0000 C   0  0  0  0  0  0  0  0  0  0  0  0
   11.2225   -7.5700    0.0000 C   0  0  0  0  0  0  0  0  0  0  0  0
   12.0105   -7.3257    0.0000 C   0  0  0  0  0  0  0  0  0  0  0  0
   12.6161   -7.8860    0.0000 C   0  0  0  0  0  0  0  0  0  0  0  0
   13.4041   -7.6416    0.0000 C   0  0  0  0  0  0  0  0  0  0  0  0
    5.7070   -5.7973    0.0000 C   0  0  0  0  0  0  0  0  0  0  0  0
    4.9925   -5.3848    0.0000 C   0  0  0  0  0  0  0  0  0  0  0  0
    6.4215   -5.3848    0.0000 C   0  0  0  0  0  0  0  0  0  0  0  0
    2.8522   -4.4265    0.0000 C   0  0  0  0  0  0  0  0  0  0  0  0
    2.6387   -3.6296    0.0000 C   0  0  0  0  0  0  0  0  0  0  0  0
    1.8418   -3.4161    0.0000 C   0  0  0  0  0  0  0  0  0  0  0  0
  1  2  1  0  0  0  0
  2  3  1  0  0  0  0
  3  4  1  0  0  0  0
  4  5  1  0  0  0  0
  5  6  1  0  0  0  0
  6  7  1  0  0  0  0
  7  1  1  0  0  0  0
  6  8  1  0  0  0  0
  8  9  1  0  0  0  0
  9 10  1  0  0  0  0
 10 11  1  0  0  0  0
 11  7  1  0  0  0  0
  1 12  1  0  0  0  0
 12 13  2  0  0  0  0
 13 14  1  0  0  0  0
 14  2  1  0  0  0  0
  8 15  1  6  0  0  0
 15 16  1  0  0  0  0
 16 17  1  0  0  0  0
  9 17  1  6  0  0  0
  4 18  1  0  0  0  0
 18 19  1  0  0  0  0
 13 20  1  0  0  0  0
 14 21  2  0  0  0  0
 11 22  1  6  0  0  0
  7 23  1  6  0  0  0
  1 24  1  6  0  0  0
  4 25  1  6  0  0  0
  5 25  1  6  0  0  0
  2 26  1  1  0  0  0
  3 27  1  1  0  0  0
  6 28  1  1  0  0  0
 10 29  1  1  0  0  0
 29 30  1  0  0  0  0
 30 31  1  0  0  0  0
 30 32  2  0  0  0  0
 23 16  1  0  0  0  0
 16 33  1  0  0  0  0
 33 34  2  0  0  0  0
 34 35  1  0  0  0  0
 35 36  2  0  0  0  0
 36 37  1  0  0  0  0
 37 38  1  0  0  0  0
 38 39  1  0  0  0  0
 39 40  1  0  0  0  0
 40 41  1  0  0  0  0
  9 42  1  0  0  0  0
 42 43  1  0  0  0  0
 42 44  2  0  0  0  0
 31 45  1  0  0  0  0
 45 46  1  0  0  0  0
 46 47  1  0  0  0  0
M  END
>  <cdx:fragmentId>
5

$$$$
