93407.cdx
  Mrv1902 05222410232D          

 77 86  0  0  0  0            999 V2000
   15.7738   -9.6769    0.0000 C   0  0  1  0  0  0  0  0  0  0  0  0
   16.4852   -9.2593    0.0000 C   0  0  2  0  0  0  0  0  0  0  0  0
   17.2717   -9.5085    0.0000 C   0  0  0  0  0  0  0  0  0  0  0  0
   17.7518   -8.8376    0.0000 C   0  0  2  0  0  0  0  0  0  0  0  0
   18.5345   -8.5770    0.0000 O   0  0  0  0  0  0  0  0  0  0  0  0
   18.5286   -7.7520    0.0000 C   0  0  2  0  0  0  0  0  0  0  0  0
   17.7421   -7.5028    0.0000 C   0  0  2  0  0  0  0  0  0  0  0  0
   17.2620   -8.1737    0.0000 C   0  0  2  0  0  0  0  0  0  0  0  0
   16.4793   -8.4343    0.0000 C   0  0  1  0  0  0  0  0  0  0  0  0
   15.7619   -8.0269    0.0000 C   0  0  0  0  0  0  0  0  0  0  0  0
   15.0504   -8.4446    0.0000 C   0  0  0  0  0  0  0  0  0  0  0  0
   15.0563   -9.2696    0.0000 C   0  0  2  0  0  0  0  0  0  0  0  0
   14.3449   -9.6872    0.0000 C   0  0  1  0  0  0  0  0  0  0  0  0
   13.6274   -9.2799    0.0000 C   0  0  0  0  0  0  0  0  0  0  0  0
   12.9160   -9.6975    0.0000 C   0  0  0  0  0  0  0  0  0  0  0  0
   12.9219  -10.5225    0.0000 C   0  0  1  0  0  0  0  0  0  0  0  0
   13.6393  -10.9298    0.0000 C   0  0  0  0  0  0  0  0  0  0  0  0
   14.3508  -10.5122    0.0000 C   0  0  0  0  0  0  0  0  0  0  0  0
   15.0683  -10.9195    0.0000 C   0  0  0  0  0  0  0  0  0  0  0  0
   15.7797  -10.5019    0.0000 C   0  0  0  0  0  0  0  0  0  0  0  0
   18.4364   -6.9322    0.0000 O   0  0  0  0  0  0  0  0  0  0  0  0
   19.2847   -8.0821    0.0000 C   0  0  0  0  0  0  0  0  0  0  0  0
   19.9486   -7.5924    0.0000 C   0  0  0  0  0  0  0  0  0  0  0  0
   19.8564   -6.7726    0.0000 C   0  0  2  0  0  0  0  0  0  0  0  0
   19.1003   -6.4425    0.0000 C   0  0  0  0  0  0  0  0  0  0  0  0
   12.2104  -10.9402    0.0000 O   0  0  0  0  0  0  0  0  0  0  0  0
   14.3389   -8.8622    0.0000 C   0  0  0  0  0  0  0  0  0  0  0  0
   16.4793   -7.6093    0.0000 C   0  0  0  0  0  0  0  0  0  0  0  0
   17.4815   -6.7200    0.0000 C   0  0  0  0  0  0  0  0  0  0  0  0
   20.5203   -6.2828    0.0000 C   0  0  0  0  0  0  0  0  0  0  0  0
   15.7678   -8.8519    0.0000 H   0  0  0  0  0  0  0  0  0  0  0  0
   18.2415   -9.5015    0.0000 H   0  0  0  0  0  0  0  0  0  0  0  0
   16.8950   -7.4348    0.0000 H   0  0  0  0  0  0  0  0  0  0  0  0
   15.0623  -10.0945    0.0000 H   0  0  0  0  0  0  0  0  0  0  0  0
   11.4930  -10.5328    0.0000 C   0  0  2  0  0  0  0  0  0  0  0  0
   11.4841   -9.7079    0.0000 O   0  0  0  0  0  0  0  0  0  0  0  0
   10.7652   -9.3032    0.0000 C   0  0  1  0  0  0  0  0  0  0  0  0
   10.0552   -9.7079    0.0000 C   0  0  2  0  0  0  0  0  0  0  0  0
   10.0552  -10.5328    0.0000 C   0  0  1  0  0  0  0  0  0  0  0  0
   10.7652  -10.9375    0.0000 C   0  0  1  0  0  0  0  0  0  0  0  0
   10.7629   -8.4782    0.0000 C   0  0  0  0  0  0  0  0  0  0  0  0
    9.3419  -10.9473    0.0000 O   0  0  0  0  0  0  0  0  0  0  0  0
   10.7608  -11.7625    0.0000 O   0  0  0  0  0  0  0  0  0  0  0  0
    9.3419   -9.2934    0.0000 O   0  0  0  0  0  0  0  0  0  0  0  0
   10.0485   -8.0657    0.0000 O   0  0  0  0  0  0  0  0  0  0  0  0
   10.0394  -12.1628    0.0000 C   0  0  2  0  0  0  0  0  0  0  0  0
    9.3332  -11.7363    0.0000 O   0  0  0  0  0  0  0  0  0  0  0  0
    8.6107  -12.1346    0.0000 C   0  0  2  0  0  0  0  0  0  0  0  0
    8.6042  -12.9653    0.0000 C   0  0  1  0  0  0  0  0  0  0  0  0
    9.3138  -13.3861    0.0000 C   0  0  2  0  0  0  0  0  0  0  0  0
   10.0396  -12.9821    0.0000 C   0  0  1  0  0  0  0  0  0  0  0  0
    7.8858  -13.3708    0.0000 O   0  0  0  0  0  0  0  0  0  0  0  0
    7.9020  -11.7123    0.0000 C   0  0  0  0  0  0  0  0  0  0  0  0
    9.3025  -14.2110    0.0000 O   0  0  0  0  0  0  0  0  0  0  0  0
   10.7509  -13.4001    0.0000 O   0  0  0  0  0  0  0  0  0  0  0  0
   16.4912  -10.0842    0.0000 H   0  0  0  0  0  0  0  0  0  0  0  0
    8.5169   -9.2935    0.0000 C   0  0  2  0  0  0  0  0  0  0  0  0
    8.1063   -8.5779    0.0000 O   0  0  0  0  0  0  0  0  0  0  0  0
    7.2774   -8.5824    0.0000 C   0  0  2  0  0  0  0  0  0  0  0  0
    6.8669   -9.2980    0.0000 C   0  0  1  0  0  0  0  0  0  0  0  0
    7.2814  -10.0159    0.0000 C   0  0  2  0  0  0  0  0  0  0  0  0
    8.1064  -10.0091    0.0000 C   0  0  1  0  0  0  0  0  0  0  0  0
    8.5228  -10.7212    0.0000 O   0  0  0  0  0  0  0  0  0  0  0  0
    6.8719  -10.7321    0.0000 O   0  0  0  0  0  0  0  0  0  0  0  0
    6.0419   -9.2992    0.0000 O   0  0  0  0  0  0  0  0  0  0  0  0
    6.8619   -7.8697    0.0000 C   0  0  0  0  0  0  0  0  0  0  0  0
    5.3259   -8.8894    0.0000 C   0  0  2  0  0  0  0  0  0  0  0  0
    5.3215   -8.0645    0.0000 O   0  0  0  0  0  0  0  0  0  0  0  0
    4.6084   -7.6537    0.0000 C   0  0  2  0  0  0  0  0  0  0  0  0
    3.8950   -8.0679    0.0000 C   0  0  1  0  0  0  0  0  0  0  0  0
    3.8981   -8.8908    0.0000 C   0  0  2  0  0  0  0  0  0  0  0  0
    4.6124   -9.3036    0.0000 C   0  0  1  0  0  0  0  0  0  0  0  0
    3.1792   -7.6576    0.0000 O   0  0  0  0  0  0  0  0  0  0  0  0
    3.1843   -9.3045    0.0000 O   0  0  0  0  0  0  0  0  0  0  0  0
    4.6132  -10.1286    0.0000 O   0  0  0  0  0  0  0  0  0  0  0  0
    4.6071   -6.8287    0.0000 C   0  0  0  0  0  0  0  0  0  0  0  0
   15.7559   -7.2020    0.0000 O   0  0  0  0  0  0  0  0  0  0  0  0
  1  2  1  0  0  0  0
  2  3  1  0  0  0  0
  3  4  1  0  0  0  0
  4  5  1  0  0  0  0
  6  5  1  6  0  0  0
  6  7  1  0  0  0  0
  7  8  1  0  0  0  0
  8  9  1  0  0  0  0
  9 10  1  0  0  0  0
 10 11  1  0  0  0  0
 11 12  1  0  0  0  0
 12 13  1  0  0  0  0
 13 14  1  0  0  0  0
 14 15  1  0  0  0  0
 15 16  1  0  0  0  0
 16 17  1  0  0  0  0
 17 18  1  0  0  0  0
 18 19  2  0  0  0  0
 19 20  1  0  0  0  0
  1 20  1  0  0  0  0
  1 12  1  0  0  0  0
 13 18  1  0  0  0  0
  2  9  1  0  0  0  0
  4  8  1  0  0  0  0
 22 23  1  0  0  0  0
 23 24  1  0  0  0  0
 24 25  1  0  0  0  0
 21 25  1  0  0  0  0
  6 21  1  0  0  0  0
  6 22  1  0  0  0  0
 16 26  1  1  0  0  0
 13 27  1  1  0  0  0
  9 28  1  1  0  0  0
  7 29  1  6  0  0  0
 24 30  1  6  0  0  0
  1 31  1  1  0  0  0
  4 32  1  6  0  0  0
  8 33  1  6  0  0  0
 12 34  1  6  0  0  0
 35 26  1  1  0  0  0
 35 36  1  0  0  0  0
 36 37  1  0  0  0  0
 37 38  1  0  0  0  0
 38 39  1  0  0  0  0
 39 40  1  0  0  0  0
 40 35  1  0  0  0  0
 37 41  1  1  0  0  0
 39 42  1  1  0  0  0
 40 43  1  6  0  0  0
 38 44  1  6  0  0  0
 41 45  1  0  0  0  0
 46 43  1  1  0  0  0
 46 47  1  0  0  0  0
 47 48  1  0  0  0  0
 48 49  1  0  0  0  0
 49 50  1  0  0  0  0
 50 51  1  0  0  0  0
 51 46  1  0  0  0  0
 49 52  1  1  0  0  0
 48 53  1  6  0  0  0
 50 54  1  6  0  0  0
 51 55  1  6  0  0  0
  2 56  1  6  0  0  0
 57 44  1  1  0  0  0
 57 58  1  0  0  0  0
 58 59  1  0  0  0  0
 59 60  1  0  0  0  0
 60 61  1  0  0  0  0
 61 62  1  0  0  0  0
 62 57  1  0  0  0  0
 62 63  1  6  0  0  0
 61 64  1  6  0  0  0
 60 65  1  1  0  0  0
 59 66  1  6  0  0  0
 67 65  1  1  0  0  0
 67 68  1  0  0  0  0
 68 69  1  0  0  0  0
 69 70  1  0  0  0  0
 70 71  1  0  0  0  0
 71 72  1  0  0  0  0
 72 67  1  0  0  0  0
 70 73  1  1  0  0  0
 71 74  1  6  0  0  0
 72 75  1  6  0  0  0
 69 76  1  6  0  0  0
 10 77  2  0  0  0  0
M  END
>  <cdx:fragmentId>
5

$$$$
