93412.cdx
  Mrv1902 05222410232D          

 96106  0  0  0  0            999 V2000
    6.9693   -5.1013    0.0000 C   0  0  0  0  0  0  0  0  0  0  0  0
    6.9693   -5.9262    0.0000 C   0  0  1  0  0  0  0  0  0  0  0  0
    7.6838   -6.3388    0.0000 C   0  0  2  0  0  0  0  0  0  0  0  0
    8.3982   -5.9262    0.0000 C   0  0  1  0  0  0  0  0  0  0  0  0
    8.3982   -5.1013    0.0000 C   0  0  2  0  0  0  0  0  0  0  0  0
    7.6838   -4.6888    0.0000 C   0  0  0  0  0  0  0  0  0  0  0  0
    9.1127   -6.3388    0.0000 C   0  0  0  0  0  0  0  0  0  0  0  0
    9.8272   -5.9262    0.0000 C   0  0  0  0  0  0  0  0  0  0  0  0
    9.8272   -5.1013    0.0000 C   0  0  2  0  0  0  0  0  0  0  0  0
    9.1127   -4.6888    0.0000 C   0  0  2  0  0  0  0  0  0  0  0  0
   10.5417   -4.6888    0.0000 C   0  0  1  0  0  0  0  0  0  0  0  0
   10.5417   -3.8638    0.0000 C   0  0  0  0  0  0  0  0  0  0  0  0
    9.8272   -3.4513    0.0000 C   0  0  0  0  0  0  0  0  0  0  0  0
    9.1127   -3.8638    0.0000 C   0  0  0  0  0  0  0  0  0  0  0  0
   11.2561   -5.1013    0.0000 C   0  0  0  0  0  0  0  0  0  0  0  0
   11.9706   -4.6888    0.0000 C   0  0  0  0  0  0  0  0  0  0  0  0
   11.9706   -3.8638    0.0000 C   0  0  2  0  0  0  0  0  0  0  0  0
   11.2561   -3.4513    0.0000 C   0  0  1  0  0  0  0  0  0  0  0  0
   12.6851   -3.4513    0.0000 C   0  0  0  0  0  0  0  0  0  0  0  0
   12.6851   -2.6263    0.0000 C   0  0  0  0  0  0  0  0  0  0  0  0
   11.9706   -2.2138    0.0000 C   0  0  0  0  0  0  0  0  0  0  0  0
   11.2561   -2.6263    0.0000 C   0  0  0  0  0  0  0  0  0  0  0  0
   11.9706   -1.3887    0.0000 C   0  0  0  0  0  0  0  0  0  0  0  0
   12.6851   -4.2763    0.0000 C   0  0  0  0  0  0  0  0  0  0  0  0
   13.3995   -3.8638    0.0000 O   0  0  0  0  0  0  0  0  0  0  0  0
   12.6851   -5.1013    0.0000 O   0  0  0  0  0  0  0  0  0  0  0  0
    8.0963   -7.0532    0.0000 C   0  0  0  0  0  0  0  0  0  0  0  0
    6.2548   -6.3388    0.0000 O   0  0  0  0  0  0  0  0  0  0  0  0
    7.2713   -7.0532    0.0000 C   0  0  0  0  0  0  0  0  0  0  0  0
    8.3982   -4.2763    0.0000 C   0  0  0  0  0  0  0  0  0  0  0  0
    9.8272   -4.2763    0.0000 C   0  0  0  0  0  0  0  0  0  0  0  0
   10.5417   -3.0387    0.0000 H   0  0  0  0  0  0  0  0  0  0  0  0
    8.3982   -6.7512    0.0000 H   0  0  0  0  0  0  0  0  0  0  0  0
    9.1127   -5.5137    0.0000 H   0  0  0  0  0  0  0  0  0  0  0  0
   10.5417   -5.5137    0.0000 C   0  0  0  0  0  0  0  0  0  0  0  0
    5.5404   -5.9262    0.0000 C   0  0  2  0  0  0  0  0  0  0  0  0
    5.5404   -5.1012    0.0000 O   0  0  0  0  0  0  0  0  0  0  0  0
    4.8259   -4.6887    0.0000 C   0  0  0  0  0  0  0  0  0  0  0  0
    4.1114   -5.1012    0.0000 C   0  0  1  0  0  0  0  0  0  0  0  0
    4.1114   -5.9262    0.0000 C   0  0  1  0  0  0  0  0  0  0  0  0
    4.8259   -6.3387    0.0000 C   0  0  1  0  0  0  0  0  0  0  0  0
    3.3969   -4.6887    0.0000 O   0  0  0  0  0  0  0  0  0  0  0  0
    3.3969   -6.3388    0.0000 O   0  0  0  0  0  0  0  0  0  0  0  0
    4.8259   -7.1637    0.0000 O   0  0  0  0  0  0  0  0  0  0  0  0
    4.1114   -7.5762    0.0000 C   0  0  2  0  0  0  0  0  0  0  0  0
    3.3969   -7.1637    0.0000 O   0  0  0  0  0  0  0  0  0  0  0  0
    2.6825   -7.5762    0.0000 C   0  0  2  0  0  0  0  0  0  0  0  0
    2.6825   -8.4012    0.0000 C   0  0  1  0  0  0  0  0  0  0  0  0
    3.3969   -8.8137    0.0000 C   0  0  2  0  0  0  0  0  0  0  0  0
    4.1114   -8.4012    0.0000 C   0  0  1  0  0  0  0  0  0  0  0  0
    1.9680   -8.8137    0.0000 O   0  0  0  0  0  0  0  0  0  0  0  0
    1.9680   -7.1637    0.0000 C   0  0  0  0  0  0  0  0  0  0  0  0
    3.3969   -9.6387    0.0000 O   0  0  0  0  0  0  0  0  0  0  0  0
    4.8259   -8.8137    0.0000 O   0  0  0  0  0  0  0  0  0  0  0  0
    2.6825   -5.9262    0.0000 C   0  0  2  0  0  0  0  0  0  0  0  0
    2.6825   -5.1013    0.0000 O   0  0  0  0  0  0  0  0  0  0  0  0
    1.9680   -4.6888    0.0000 C   0  0  0  0  0  0  0  0  0  0  0  0
    1.2535   -5.1013    0.0000 C   0  0  1  0  0  0  0  0  0  0  0  0
    1.2535   -5.9262    0.0000 C   0  0  1  0  0  0  0  0  0  0  0  0
    1.9680   -6.3387    0.0000 C   0  0  1  0  0  0  0  0  0  0  0  0
    2.6825   -6.7512    0.0000 O   0  0  0  0  0  0  0  0  0  0  0  0
    0.5391   -6.3388    0.0000 O   0  0  0  0  0  0  0  0  0  0  0  0
    0.5391   -4.6887    0.0000 O   0  0  0  0  0  0  0  0  0  0  0  0
   11.0756   -6.5687    0.0000 C   0  0  2  0  0  0  0  0  0  0  0  0
   11.5084   -7.2711    0.0000 C   0  0  2  0  0  0  0  0  0  0  0  0
   12.3330   -7.2476    0.0000 C   0  0  1  0  0  0  0  0  0  0  0  0
   12.7250   -6.5216    0.0000 C   0  0  2  0  0  0  0  0  0  0  0  0
   12.2923   -5.8192    0.0000 C   0  0  1  0  0  0  0  0  0  0  0  0
   11.4676   -5.8427    0.0000 O   0  0  0  0  0  0  0  0  0  0  0  0
   10.2510   -6.5922    0.0000 C   0  0  0  0  0  0  0  0  0  0  0  0
   12.7657   -7.9500    0.0000 O   0  0  0  0  0  0  0  0  0  0  0  0
   11.1164   -7.9971    0.0000 O   0  0  0  0  0  0  0  0  0  0  0  0
   13.5496   -6.4981    0.0000 O   0  0  0  0  0  0  0  0  0  0  0  0
    9.8590   -7.3182    0.0000 O   0  0  0  0  0  0  0  0  0  0  0  0
    8.2569   -8.7834    0.0000 C   0  0  2  0  0  0  0  0  0  0  0  0
    8.6896   -9.4858    0.0000 C   0  0  2  0  0  0  0  0  0  0  0  0
    9.5143   -9.4623    0.0000 C   0  0  1  0  0  0  0  0  0  0  0  0
    9.9062   -8.7364    0.0000 C   0  0  2  0  0  0  0  0  0  0  0  0
    9.4735   -8.0339    0.0000 C   0  0  1  0  0  0  0  0  0  0  0  0
    8.6489   -8.0575    0.0000 O   0  0  0  0  0  0  0  0  0  0  0  0
    7.4322   -8.8069    0.0000 C   0  0  0  0  0  0  0  0  0  0  0  0
    9.9470  -10.1647    0.0000 O   0  0  0  0  0  0  0  0  0  0  0  0
    8.2977  -10.2118    0.0000 O   0  0  0  0  0  0  0  0  0  0  0  0
   10.7309   -8.7128    0.0000 O   0  0  0  0  0  0  0  0  0  0  0  0
    7.0403   -9.5329    0.0000 O   0  0  0  0  0  0  0  0  0  0  0  0
    7.9041  -10.9387    0.0000 C   0  0  2  0  0  0  0  0  0  0  0  0
    7.0795  -10.9622    0.0000 O   0  0  0  0  0  0  0  0  0  0  0  0
    6.6875  -11.6882    0.0000 C   0  0  2  0  0  0  0  0  0  0  0  0
    7.1202  -12.3906    0.0000 C   0  0  1  0  0  0  0  0  0  0  0  0
    7.9449  -12.3670    0.0000 C   0  0  2  0  0  0  0  0  0  0  0  0
    8.3368  -11.6411    0.0000 C   0  0  1  0  0  0  0  0  0  0  0  0
    6.7283  -13.1165    0.0000 O   0  0  0  0  0  0  0  0  0  0  0  0
    5.8629  -11.7117    0.0000 C   0  0  0  0  0  0  0  0  0  0  0  0
    8.3776  -13.0695    0.0000 O   0  0  0  0  0  0  0  0  0  0  0  0
    9.1615  -11.6176    0.0000 O   0  0  0  0  0  0  0  0  0  0  0  0
    8.9213   -7.0532    0.0000 O   0  0  0  0  0  0  0  0  0  0  0  0
  1  2  1  0  0  0  0
  2  3  1  0  0  0  0
  3  4  1  0  0  0  0
  4  5  1  0  0  0  0
  5  6  1  0  0  0  0
  6  1  1  0  0  0  0
  4  7  1  0  0  0  0
  7  8  1  0  0  0  0
  8  9  1  0  0  0  0
  9 10  1  0  0  0  0
 10  5  1  0  0  0  0
  9 11  1  0  0  0  0
 11 12  1  0  0  0  0
 12 13  2  0  0  0  0
 13 14  1  0  0  0  0
 14 10  1  0  0  0  0
 11 15  1  0  0  0  0
 15 16  1  0  0  0  0
 16 17  1  0  0  0  0
 17 18  1  0  0  0  0
 18 12  1  0  0  0  0
 17 19  1  0  0  0  0
 19 20  1  0  0  0  0
 20 21  1  0  0  0  0
 21 22  1  0  0  0  0
 22 18  1  0  0  0  0
 21 23  2  0  0  0  0
 17 24  1  1  0  0  0
 24 25  2  0  0  0  0
 24 26  1  0  0  0  0
  3 27  1  6  0  0  0
  2 28  1  1  0  0  0
  3 29  1  1  0  0  0
  5 30  1  1  0  0  0
  9 31  1  1  0  0  0
 18 32  1  1  0  0  0
  4 33  1  6  0  0  0
 10 34  1  6  0  0  0
 11 35  1  6  0  0  0
 36 28  1  1  0  0  0
 36 37  1  0  0  0  0
 37 38  1  0  0  0  0
 38 39  1  0  0  0  0
 39 40  1  0  0  0  0
 40 41  1  0  0  0  0
 41 36  1  0  0  0  0
 39 42  1  1  0  0  0
 40 43  1  1  0  0  0
 41 44  1  6  0  0  0
 45 44  1  1  0  0  0
 45 46  1  0  0  0  0
 46 47  1  0  0  0  0
 47 48  1  0  0  0  0
 48 49  1  0  0  0  0
 49 50  1  0  0  0  0
 50 45  1  0  0  0  0
 48 51  1  1  0  0  0
 47 52  1  6  0  0  0
 49 53  1  6  0  0  0
 50 54  1  6  0  0  0
 55 43  1  1  0  0  0
 55 56  1  0  0  0  0
 56 57  1  0  0  0  0
 57 58  1  0  0  0  0
 58 59  1  0  0  0  0
 59 60  1  0  0  0  0
 60 55  1  0  0  0  0
 60 61  1  6  0  0  0
 59 62  1  1  0  0  0
 58 63  1  1  0  0  0
 64 65  1  0  0  0  0
 65 66  1  0  0  0  0
 66 67  1  0  0  0  0
 67 68  1  0  0  0  0
 68 69  1  0  0  0  0
 69 64  1  0  0  0  0
 64 70  1  1  0  0  0
 66 71  1  1  0  0  0
 65 72  1  6  0  0  0
 67 73  1  6  0  0  0
 70 74  1  0  0  0  0
 75 76  1  0  0  0  0
 76 77  1  0  0  0  0
 77 78  1  0  0  0  0
 78 79  1  0  0  0  0
 79 80  1  0  0  0  0
 80 75  1  0  0  0  0
 75 81  1  1  0  0  0
 77 82  1  1  0  0  0
 76 83  1  6  0  0  0
 78 84  1  6  0  0  0
 81 85  1  0  0  0  0
 79 74  1  1  0  0  0
 86 87  1  0  0  0  0
 87 88  1  0  0  0  0
 88 89  1  0  0  0  0
 89 90  1  0  0  0  0
 90 91  1  0  0  0  0
 91 86  1  0  0  0  0
 89 92  1  1  0  0  0
 88 93  1  6  0  0  0
 90 94  1  6  0  0  0
 91 95  1  6  0  0  0
 86 83  1  1  0  0  0
 68 26  1  1  0  0  0
 27 96  1  0  0  0  0
M  END
>  <cdx:fragmentId>
5

$$$$
