93415.cdx
  Mrv1902 05222410212D          

 64 71  0  0  0  0            999 V2000
    7.1481   -6.8200    0.0000 C   0  0  0  0  0  0  0  0  0  0  0  0
    7.1481   -7.6450    0.0000 C   0  0  1  0  0  0  0  0  0  0  0  0
    7.8625   -8.0575    0.0000 C   0  0  2  0  0  0  0  0  0  0  0  0
    8.5770   -7.6450    0.0000 C   0  0  1  0  0  0  0  0  0  0  0  0
    8.5770   -6.8200    0.0000 C   0  0  2  0  0  0  0  0  0  0  0  0
    7.8625   -6.4075    0.0000 C   0  0  0  0  0  0  0  0  0  0  0  0
    9.2915   -8.0575    0.0000 C   0  0  0  0  0  0  0  0  0  0  0  0
   10.0059   -7.6450    0.0000 C   0  0  0  0  0  0  0  0  0  0  0  0
   10.0059   -6.8200    0.0000 C   0  0  2  0  0  0  0  0  0  0  0  0
    9.2915   -6.4075    0.0000 C   0  0  2  0  0  0  0  0  0  0  0  0
   10.7204   -6.4075    0.0000 C   0  0  1  0  0  0  0  0  0  0  0  0
   10.7204   -5.5825    0.0000 C   0  0  0  0  0  0  0  0  0  0  0  0
   10.0059   -5.1700    0.0000 C   0  0  0  0  0  0  0  0  0  0  0  0
    9.2915   -5.5825    0.0000 C   0  0  0  0  0  0  0  0  0  0  0  0
   11.4349   -6.8200    0.0000 C   0  0  0  0  0  0  0  0  0  0  0  0
   12.1494   -6.4075    0.0000 C   0  0  0  0  0  0  0  0  0  0  0  0
   12.1494   -5.5825    0.0000 C   0  0  2  0  0  0  0  0  0  0  0  0
   11.4349   -5.1700    0.0000 C   0  0  1  0  0  0  0  0  0  0  0  0
   12.8638   -5.1700    0.0000 C   0  0  0  0  0  0  0  0  0  0  0  0
   12.8638   -4.3450    0.0000 C   0  0  0  0  0  0  0  0  0  0  0  0
   12.1494   -3.9325    0.0000 C   0  0  0  0  0  0  0  0  0  0  0  0
   11.4349   -4.3450    0.0000 C   0  0  0  0  0  0  0  0  0  0  0  0
   12.1494   -3.1075    0.0000 C   0  0  0  0  0  0  0  0  0  0  0  0
   12.8638   -5.9950    0.0000 C   0  0  0  0  0  0  0  0  0  0  0  0
   13.5783   -5.5825    0.0000 O   0  0  0  0  0  0  0  0  0  0  0  0
   12.8638   -6.8200    0.0000 O   0  0  0  0  0  0  0  0  0  0  0  0
    8.2750   -8.7720    0.0000 C   0  0  0  0  0  0  0  0  0  0  0  0
    6.4336   -8.0575    0.0000 O   0  0  0  0  0  0  0  0  0  0  0  0
    7.4500   -8.7720    0.0000 C   0  0  0  0  0  0  0  0  0  0  0  0
    8.5770   -5.9950    0.0000 C   0  0  0  0  0  0  0  0  0  0  0  0
   10.0059   -5.9950    0.0000 C   0  0  0  0  0  0  0  0  0  0  0  0
   10.7204   -4.7575    0.0000 H   0  0  0  0  0  0  0  0  0  0  0  0
    8.5770   -8.4700    0.0000 H   0  0  0  0  0  0  0  0  0  0  0  0
    9.2915   -7.2325    0.0000 H   0  0  0  0  0  0  0  0  0  0  0  0
   10.7204   -7.2325    0.0000 C   0  0  0  0  0  0  0  0  0  0  0  0
    5.7191   -7.6450    0.0000 C   0  0  2  0  0  0  0  0  0  0  0  0
    5.7191   -6.8200    0.0000 O   0  0  0  0  0  0  0  0  0  0  0  0
    5.0046   -6.4075    0.0000 C   0  0  0  0  0  0  0  0  0  0  0  0
    4.2902   -6.8200    0.0000 C   0  0  1  0  0  0  0  0  0  0  0  0
    4.2902   -7.6450    0.0000 C   0  0  1  0  0  0  0  0  0  0  0  0
    5.0046   -8.0575    0.0000 C   0  0  1  0  0  0  0  0  0  0  0  0
    3.5757   -6.4075    0.0000 O   0  0  0  0  0  0  0  0  0  0  0  0
    3.5757   -8.0575    0.0000 O   0  0  0  0  0  0  0  0  0  0  0  0
    5.0046   -8.8825    0.0000 O   0  0  0  0  0  0  0  0  0  0  0  0
    4.2902   -9.2950    0.0000 C   0  0  2  0  0  0  0  0  0  0  0  0
    3.5757   -8.8825    0.0000 O   0  0  0  0  0  0  0  0  0  0  0  0
    2.8612   -9.2950    0.0000 C   0  0  2  0  0  0  0  0  0  0  0  0
    2.8612  -10.1200    0.0000 C   0  0  1  0  0  0  0  0  0  0  0  0
    3.5757  -10.5325    0.0000 C   0  0  2  0  0  0  0  0  0  0  0  0
    4.2902  -10.1200    0.0000 C   0  0  1  0  0  0  0  0  0  0  0  0
    2.1468  -10.5325    0.0000 O   0  0  0  0  0  0  0  0  0  0  0  0
    2.1468   -8.8825    0.0000 C   0  0  0  0  0  0  0  0  0  0  0  0
    3.5757  -11.3575    0.0000 O   0  0  0  0  0  0  0  0  0  0  0  0
    5.0046  -10.5325    0.0000 O   0  0  0  0  0  0  0  0  0  0  0  0
    9.1000   -8.7720    0.0000 O   0  0  0  0  0  0  0  0  0  0  0  0
    2.8622  -11.7725    0.0000 C   0  0  2  0  0  0  0  0  0  0  0  0
    2.1494  -11.3570    0.0000 O   0  0  0  0  0  0  0  0  0  0  0  0
    1.4332  -11.7665    0.0000 C   0  0  0  0  0  0  0  0  0  0  0  0
    1.4298  -12.5915    0.0000 C   0  0  2  0  0  0  0  0  0  0  0  0
    2.1426  -13.0070    0.0000 C   0  0  1  0  0  0  0  0  0  0  0  0
    2.8587  -12.5975    0.0000 C   0  0  1  0  0  0  0  0  0  0  0  0
    2.1391  -13.8320    0.0000 O   0  0  0  0  0  0  0  0  0  0  0  0
    0.7136  -13.0011    0.0000 O   0  0  0  0  0  0  0  0  0  0  0  0
    3.5715  -13.0129    0.0000 O   0  0  0  0  0  0  0  0  0  0  0  0
  1  2  1  0  0  0  0
  2  3  1  0  0  0  0
  3  4  1  0  0  0  0
  4  5  1  0  0  0  0
  5  6  1  0  0  0  0
  6  1  1  0  0  0  0
  4  7  1  0  0  0  0
  7  8  1  0  0  0  0
  8  9  1  0  0  0  0
  9 10  1  0  0  0  0
 10  5  1  0  0  0  0
  9 11  1  0  0  0  0
 11 12  1  0  0  0  0
 12 13  2  0  0  0  0
 13 14  1  0  0  0  0
 14 10  1  0  0  0  0
 11 15  1  0  0  0  0
 15 16  1  0  0  0  0
 16 17  1  0  0  0  0
 17 18  1  0  0  0  0
 18 12  1  0  0  0  0
 17 19  1  0  0  0  0
 19 20  1  0  0  0  0
 20 21  1  0  0  0  0
 21 22  1  0  0  0  0
 22 18  1  0  0  0  0
 21 23  2  0  0  0  0
 17 24  1  1  0  0  0
 24 25  2  0  0  0  0
 24 26  1  0  0  0  0
  3 27  1  6  0  0  0
  2 28  1  1  0  0  0
  3 29  1  1  0  0  0
  5 30  1  1  0  0  0
  9 31  1  1  0  0  0
 18 32  1  1  0  0  0
  4 33  1  6  0  0  0
 10 34  1  6  0  0  0
 11 35  1  6  0  0  0
 36 28  1  1  0  0  0
 36 37  1  0  0  0  0
 37 38  1  0  0  0  0
 38 39  1  0  0  0  0
 39 40  1  0  0  0  0
 40 41  1  0  0  0  0
 41 36  1  0  0  0  0
 39 42  1  1  0  0  0
 40 43  1  1  0  0  0
 41 44  1  6  0  0  0
 45 44  1  1  0  0  0
 45 46  1  0  0  0  0
 46 47  1  0  0  0  0
 47 48  1  0  0  0  0
 48 49  1  0  0  0  0
 49 50  1  0  0  0  0
 50 45  1  0  0  0  0
 48 51  1  1  0  0  0
 47 52  1  6  0  0  0
 49 53  1  6  0  0  0
 50 54  1  6  0  0  0
 27 55  1  0  0  0  0
 56 57  1  0  0  0  0
 57 58  1  0  0  0  0
 58 59  1  0  0  0  0
 59 60  1  0  0  0  0
 60 61  1  0  0  0  0
 61 56  1  0  0  0  0
 60 62  1  1  0  0  0
 59 63  1  6  0  0  0
 61 64  1  6  0  0  0
 56 53  1  1  0  0  0
M  END
>  <cdx:fragmentId>
5

$$$$
