93418.cdx
  Mrv1902 05222410252D          

 69 77  0  0  0  0            999 V2000
   14.3821   -9.3252    0.0000 C   0  0  1  0  0  0  0  0  0  0  0  0
   15.0966   -8.9127    0.0000 C   0  0  2  0  0  0  0  0  0  0  0  0
   15.8812   -9.1677    0.0000 C   0  0  0  0  0  0  0  0  0  0  0  0
   16.3661   -8.5002    0.0000 C   0  0  2  0  0  0  0  0  0  0  0  0
   17.1508   -8.2453    0.0000 O   0  0  0  0  0  0  0  0  0  0  0  0
   17.1508   -7.4203    0.0000 C   0  0  2  0  0  0  0  0  0  0  0  0
   16.3661   -7.1653    0.0000 C   0  0  2  0  0  0  0  0  0  0  0  0
   15.8812   -7.8328    0.0000 C   0  0  2  0  0  0  0  0  0  0  0  0
   15.0966   -8.0877    0.0000 C   0  0  1  0  0  0  0  0  0  0  0  0
   14.3821   -7.6752    0.0000 C   0  0  0  0  0  0  0  0  0  0  0  0
   13.6677   -8.0877    0.0000 C   0  0  0  0  0  0  0  0  0  0  0  0
   13.6677   -8.9127    0.0000 C   0  0  2  0  0  0  0  0  0  0  0  0
   12.9532   -9.3252    0.0000 C   0  0  1  0  0  0  0  0  0  0  0  0
   12.2387   -8.9127    0.0000 C   0  0  0  0  0  0  0  0  0  0  0  0
   11.5242   -9.3252    0.0000 C   0  0  0  0  0  0  0  0  0  0  0  0
   11.5242  -10.1502    0.0000 C   0  0  1  0  0  0  0  0  0  0  0  0
   12.2387  -10.5627    0.0000 C   0  0  0  0  0  0  0  0  0  0  0  0
   12.9532  -10.1502    0.0000 C   0  0  1  0  0  0  0  0  0  0  0  0
   13.6677  -10.5627    0.0000 C   0  0  0  0  0  0  0  0  0  0  0  0
   14.3821  -10.1502    0.0000 C   0  0  0  0  0  0  0  0  0  0  0  0
   17.0645   -6.5998    0.0000 O   0  0  0  0  0  0  0  0  0  0  0  0
   17.9044   -7.7558    0.0000 C   0  0  0  0  0  0  0  0  0  0  0  0
   18.5719   -7.2709    0.0000 C   0  0  0  0  0  0  0  0  0  0  0  0
   18.4856   -6.4504    0.0000 C   0  0  1  0  0  0  0  0  0  0  0  0
   17.7320   -6.1149    0.0000 C   0  0  0  0  0  0  0  0  0  0  0  0
   10.8098  -10.5627    0.0000 O   0  0  0  0  0  0  0  0  0  0  0  0
   12.9532   -8.5002    0.0000 C   0  0  0  0  0  0  0  0  0  0  0  0
   15.0966   -7.2627    0.0000 C   0  0  0  0  0  0  0  0  0  0  0  0
   16.1112   -6.3807    0.0000 C   0  0  0  0  0  0  0  0  0  0  0  0
   19.1531   -5.9655    0.0000 C   0  0  0  0  0  0  0  0  0  0  0  0
   14.3821   -8.5002    0.0000 H   0  0  0  0  0  0  0  0  0  0  0  0
   15.0966   -9.7377    0.0000 H   0  0  0  0  0  0  0  0  0  0  0  0
   16.8511   -9.1677    0.0000 H   0  0  0  0  0  0  0  0  0  0  0  0
   15.5196   -7.0913    0.0000 H   0  0  0  0  0  0  0  0  0  0  0  0
   13.6677   -9.7377    0.0000 H   0  0  0  0  0  0  0  0  0  0  0  0
   12.9532  -10.9752    0.0000 H   0  0  0  0  0  0  0  0  0  0  0  0
   10.0953  -10.1502    0.0000 C   0  0  2  0  0  0  0  0  0  0  0  0
   10.0953   -9.3252    0.0000 O   0  0  0  0  0  0  0  0  0  0  0  0
    9.3808   -8.9127    0.0000 C   0  0  1  0  0  0  0  0  0  0  0  0
    8.6664   -9.3252    0.0000 C   0  0  2  0  0  0  0  0  0  0  0  0
    8.6664  -10.1502    0.0000 C   0  0  1  0  0  0  0  0  0  0  0  0
    9.3808  -10.5627    0.0000 C   0  0  1  0  0  0  0  0  0  0  0  0
    9.3808   -8.0877    0.0000 C   0  0  0  0  0  0  0  0  0  0  0  0
    7.9519  -10.5627    0.0000 O   0  0  0  0  0  0  0  0  0  0  0  0
    7.9519   -8.9127    0.0000 O   0  0  0  0  0  0  0  0  0  0  0  0
    9.3808  -11.3877    0.0000 O   0  0  0  0  0  0  0  0  0  0  0  0
    8.6664   -7.6752    0.0000 O   0  0  0  0  0  0  0  0  0  0  0  0
    8.6617  -11.7921    0.0000 C   0  0  2  0  0  0  0  0  0  0  0  0
    7.9520  -11.3716    0.0000 O   0  0  0  0  0  0  0  0  0  0  0  0
    7.2329  -11.7760    0.0000 C   0  0  1  0  0  0  0  0  0  0  0  0
    7.2236  -12.6009    0.0000 C   0  0  2  0  0  0  0  0  0  0  0  0
    7.9333  -13.0215    0.0000 C   0  0  1  0  0  0  0  0  0  0  0  0
    8.6524  -12.6171    0.0000 C   0  0  1  0  0  0  0  0  0  0  0  0
    6.5231  -11.3554    0.0000 C   0  0  0  0  0  0  0  0  0  0  0  0
    7.9240  -13.8464    0.0000 O   0  0  0  0  0  0  0  0  0  0  0  0
    6.5045  -13.0053    0.0000 O   0  0  0  0  0  0  0  0  0  0  0  0
    9.3622  -13.0376    0.0000 O   0  0  0  0  0  0  0  0  0  0  0  0
    5.8040  -11.7598    0.0000 O   0  0  0  0  0  0  0  0  0  0  0  0
    7.2001  -14.2421    0.0000 C   0  0  2  0  0  0  0  0  0  0  0  0
    6.4979  -13.8090    0.0000 O   0  0  0  0  0  0  0  0  0  0  0  0
    5.7717  -14.2006    0.0000 C   0  0  1  0  0  0  0  0  0  0  0  0
    5.7686  -15.0376    0.0000 C   0  0  2  0  0  0  0  0  0  0  0  0
    6.4779  -15.4587    0.0000 C   0  0  1  0  0  0  0  0  0  0  0  0
    7.2111  -15.0551    0.0000 C   0  0  1  0  0  0  0  0  0  0  0  0
    5.0641  -13.7765    0.0000 C   0  0  0  0  0  0  0  0  0  0  0  0
    6.4645  -16.2836    0.0000 O   0  0  0  0  0  0  0  0  0  0  0  0
    5.0508  -15.4444    0.0000 O   0  0  0  0  0  0  0  0  0  0  0  0
    4.3430  -14.1772    0.0000 O   0  0  0  0  0  0  0  0  0  0  0  0
    7.9242  -15.4700    0.0000 O   0  0  0  0  0  0  0  0  0  0  0  0
  1  2  1  0  0  0  0
  2  3  1  0  0  0  0
  3  4  1  0  0  0  0
  4  5  1  0  0  0  0
  6  5  1  6  0  0  0
  6  7  1  0  0  0  0
  7  8  1  0  0  0  0
  8  9  1  0  0  0  0
  9 10  1  0  0  0  0
 10 11  1  0  0  0  0
 11 12  1  0  0  0  0
 12 13  1  0  0  0  0
 13 14  1  0  0  0  0
 14 15  1  0  0  0  0
 15 16  1  0  0  0  0
 16 17  1  0  0  0  0
 17 18  1  0  0  0  0
 18 19  1  0  0  0  0
 19 20  1  0  0  0  0
  1 20  1  0  0  0  0
  1 12  1  0  0  0  0
 13 18  1  0  0  0  0
  2  9  1  0  0  0  0
  4  8  1  0  0  0  0
 22 23  1  0  0  0  0
 23 24  1  0  0  0  0
 24 25  1  0  0  0  0
 21 25  1  0  0  0  0
  6 21  1  0  0  0  0
  6 22  1  0  0  0  0
 16 26  1  1  0  0  0
 13 27  1  1  0  0  0
  9 28  1  1  0  0  0
  7 29  1  6  0  0  0
 24 30  1  1  0  0  0
  1 31  1  1  0  0  0
  2 32  1  6  0  0  0
  4 33  1  6  0  0  0
  8 34  1  6  0  0  0
 12 35  1  6  0  0  0
 18 36  1  1  0  0  0
 37 26  1  1  0  0  0
 37 38  1  0  0  0  0
 38 39  1  0  0  0  0
 39 40  1  0  0  0  0
 40 41  1  0  0  0  0
 41 42  1  0  0  0  0
 42 37  1  0  0  0  0
 39 43  1  1  0  0  0
 41 44  1  1  0  0  0
 40 45  1  6  0  0  0
 42 46  1  6  0  0  0
 43 47  1  0  0  0  0
 48 46  1  1  0  0  0
 48 49  1  0  0  0  0
 49 50  1  0  0  0  0
 50 51  1  0  0  0  0
 51 52  1  0  0  0  0
 52 53  1  0  0  0  0
 53 48  1  0  0  0  0
 50 54  1  1  0  0  0
 52 55  1  1  0  0  0
 51 56  1  6  0  0  0
 53 57  1  6  0  0  0
 54 58  1  0  0  0  0
 59 55  1  1  0  0  0
 59 60  1  0  0  0  0
 60 61  1  0  0  0  0
 61 62  1  0  0  0  0
 62 63  1  0  0  0  0
 63 64  1  0  0  0  0
 64 59  1  0  0  0  0
 61 65  1  1  0  0  0
 63 66  1  1  0  0  0
 62 67  1  6  0  0  0
 65 68  1  0  0  0  0
 64 69  1  6  0  0  0
M  END
>  <cdx:fragmentId>
804

$$$$
