93416.cdx
  Mrv1902 05222410212D          

101111  0  0  0  0            999 V2000
    1.0487  -12.6157    0.0000 C   0  0  2  0  0  0  0  0  0  0  0  0
    1.0487  -13.1932    0.0000 C   0  0  2  0  0  0  0  0  0  0  0  0
    1.5488  -13.4820    0.0000 C   0  0  2  0  0  0  0  0  0  0  0  0
    2.0490  -13.1932    0.0000 C   0  0  1  0  0  0  0  0  0  0  0  0
    2.0490  -12.6157    0.0000 O   0  0  0  0  0  0  0  0  0  0  0  0
    1.5488  -12.3270    0.0000 C   0  0  1  0  0  0  0  0  0  0  0  0
    2.5491  -13.4820    0.0000 O   0  0  0  0  0  0  0  0  0  0  0  0
    3.0492  -13.1932    0.0000 C   0  0  1  0  0  0  0  0  0  0  0  0
    3.0492  -12.6157    0.0000 C   0  0  2  0  0  0  0  0  0  0  0  0
    2.5491  -12.3270    0.0000 O   0  0  0  0  0  0  0  0  0  0  0  0
    3.5494  -13.4820    0.0000 C   0  0  2  0  0  0  0  0  0  0  0  0
    4.0495  -13.1932    0.0000 O   0  0  0  0  0  0  0  0  0  0  0  0
    4.0495  -12.6157    0.0000 C   0  0  2  0  0  0  0  0  0  0  0  0
    3.5494  -12.3270    0.0000 C   0  0  2  0  0  0  0  0  0  0  0  0
    4.5496  -12.3270    0.0000 O   0  0  0  0  0  0  0  0  0  0  0  0
    3.5494  -11.7495    0.0000 O   0  0  0  0  0  0  0  0  0  0  0  0
    5.0498  -12.6157    0.0000 C   0  0  0  0  0  0  0  0  0  0  0  0
    5.5499  -12.3270    0.0000 C   0  0  1  0  0  0  0  0  0  0  0  0
    5.5499  -11.7495    0.0000 O   0  0  0  0  0  0  0  0  0  0  0  0
    6.0500  -12.6157    0.0000 C   0  0  2  0  0  0  0  0  0  0  0  0
    6.5501  -12.3270    0.0000 C   0  0  1  0  0  0  0  0  0  0  0  0
    6.5501  -11.7495    0.0000 C   0  0  2  0  0  0  0  0  0  0  0  0
    6.0500  -11.4607    0.0000 C   0  0  2  0  0  0  0  0  0  0  0  0
    7.0503  -11.4607    0.0000 O   0  0  0  0  0  0  0  0  0  0  0  0
    7.0503  -10.8832    0.0000 O   0  0  0  0  0  0  0  0  0  0  0  0
    6.5501  -10.5945    0.0000 C   0  0  0  0  0  0  0  0  0  0  0  0
    6.0500  -10.8832    0.0000 O   0  0  0  0  0  0  0  0  0  0  0  0
    6.5501  -10.0170    0.0000 C   0  0  2  0  0  0  0  0  0  0  0  0
    6.5501   -9.4395    0.0000 C   0  0  2  0  0  0  0  0  0  0  0  0
    7.0503  -10.3057    0.0000 C   0  0  0  0  0  0  0  0  0  0  0  0
    7.5504  -10.0170    0.0000 C   0  0  0  0  0  0  0  0  0  0  0  0
    7.5504   -9.4395    0.0000 C   0  0  2  0  0  0  0  0  0  0  0  0
    7.0503   -9.1507    0.0000 C   0  0  0  0  0  0  0  0  0  0  0  0
    6.0500   -9.1507    0.0000 C   0  0  0  0  0  0  0  0  0  0  0  0
    5.5499   -9.4395    0.0000 C   0  0  0  0  0  0  0  0  0  0  0  0
    5.5499  -10.0170    0.0000 C   0  0  0  0  0  0  0  0  0  0  0  0
    6.0500  -10.3057    0.0000 C   0  0  0  0  0  0  0  0  0  0  0  0
    8.0505   -9.1507    0.0000 C   0  0  1  0  0  0  0  0  0  0  0  0
    8.0505   -8.5732    0.0000 C   0  0  2  0  0  0  0  0  0  0  0  0
    7.5504   -8.2845    0.0000 C   0  0  0  0  0  0  0  0  0  0  0  0
    7.0503   -8.5732    0.0000 C   0  0  0  0  0  0  0  0  0  0  0  0
    8.5507   -9.4395    0.0000 C   0  0  0  0  0  0  0  0  0  0  0  0
    9.0508   -9.1507    0.0000 C   0  0  0  0  0  0  0  0  0  0  0  0
    9.0508   -8.5732    0.0000 C   0  0  2  0  0  0  0  0  0  0  0  0
    8.5507   -8.2845    0.0000 C   0  0  2  0  0  0  0  0  0  0  0  0
    9.5509   -8.2845    0.0000 C   0  0  0  0  0  0  0  0  0  0  0  0
    9.5509   -7.7070    0.0000 C   0  0  2  0  0  0  0  0  0  0  0  0
    9.0508   -7.4182    0.0000 C   0  0  0  0  0  0  0  0  0  0  0  0
    8.5507   -7.7070    0.0000 C   0  0  0  0  0  0  0  0  0  0  0  0
    3.5494  -14.0595    0.0000 C   0  0  0  0  0  0  0  0  0  0  0  0
    3.0492  -14.3482    0.0000 O   0  0  0  0  0  0  0  0  0  0  0  0
    5.0498   -9.1507    0.0000 C   0  0  0  0  0  0  0  0  0  0  0  0
    9.8397   -8.7846    0.0000 C   0  0  0  0  0  0  0  0  0  0  0  0
   10.1284   -8.2845    0.0000 C   0  0  0  0  0  0  0  0  0  0  0  0
    1.5488  -11.7495    0.0000 C   0  0  0  0  0  0  0  0  0  0  0  0
    0.5486  -13.4820    0.0000 O   0  0  0  0  0  0  0  0  0  0  0  0
    1.5488  -14.0595    0.0000 O   0  0  0  0  0  0  0  0  0  0  0  0
    2.5491  -12.9045    0.0000 H   0  0  0  0  0  0  0  0  0  0  0  0
    6.0500  -13.1932    0.0000 O   0  0  0  0  0  0  0  0  0  0  0  0
    6.5501   -8.8620    0.0000 H   0  0  0  0  0  0  0  0  0  0  0  0
    8.0505   -9.7282    0.0000 C   0  0  0  0  0  0  0  0  0  0  0  0
    8.5507   -8.8620    0.0000 C   0  0  0  0  0  0  0  0  0  0  0  0
   10.0510   -7.4182    0.0000 O   0  0  0  0  0  0  0  0  0  0  0  0
    0.5486  -12.3270    0.0000 O   0  0  0  0  0  0  0  0  0  0  0  0
    7.0503  -12.6157    0.0000 O   0  0  0  0  0  0  0  0  0  0  0  0
    7.5504   -8.8620    0.0000 C   0  0  0  0  0  0  0  0  0  0  0  0
    8.0505   -7.9957    0.0000 H   0  0  0  0  0  0  0  0  0  0  0  0
    9.0508   -7.9957    0.0000 H   0  0  0  0  0  0  0  0  0  0  0  0
   10.5348   -7.7139    0.0000 C   0  0  2  0  0  0  0  0  0  0  0  0
   10.5348   -8.2914    0.0000 O   0  0  0  0  0  0  0  0  0  0  0  0
   11.0350   -8.5801    0.0000 C   0  0  0  0  0  0  0  0  0  0  0  0
   11.5351   -8.2914    0.0000 C   0  0  1  0  0  0  0  0  0  0  0  0
   11.5351   -7.7139    0.0000 C   0  0  1  0  0  0  0  0  0  0  0  0
   11.0350   -7.4251    0.0000 C   0  0  1  0  0  0  0  0  0  0  0  0
   10.5348   -7.1364    0.0000 H   0  0  0  0  0  0  0  0  0  0  0  0
   11.0157   -6.1642    0.0000 O   0  0  0  0  0  0  0  0  0  0  0  0
   12.0352   -7.4251    0.0000 O   0  0  0  0  0  0  0  0  0  0  0  0
   12.0352   -8.5801    0.0000 O   0  0  0  0  0  0  0  0  0  0  0  0
   12.5354   -7.7139    0.0000 C   0  0  2  0  0  0  0  0  0  0  0  0
   12.5354   -8.2914    0.0000 O   0  0  0  0  0  0  0  0  0  0  0  0
   13.0355   -8.5801    0.0000 C   0  0  1  0  0  0  0  0  0  0  0  0
   13.5356   -8.2914    0.0000 C   0  0  1  0  0  0  0  0  0  0  0  0
   13.5356   -7.7139    0.0000 C   0  0  1  0  0  0  0  0  0  0  0  0
   13.0355   -7.4251    0.0000 C   0  0  1  0  0  0  0  0  0  0  0  0
   12.5354   -7.1364    0.0000 H   0  0  0  0  0  0  0  0  0  0  0  0
   13.0355   -6.8476    0.0000 O   0  0  0  0  0  0  0  0  0  0  0  0
   13.0355   -9.1576    0.0000 C   0  0  0  0  0  0  0  0  0  0  0  0
   14.0357   -8.5801    0.0000 O   0  0  0  0  0  0  0  0  0  0  0  0
   14.0357   -7.4251    0.0000 O   0  0  0  0  0  0  0  0  0  0  0  0
   13.5356   -9.4464    0.0000 O   0  0  0  0  0  0  0  0  0  0  0  0
   11.5114   -5.8679    0.0000 C   0  0  1  0  0  0  0  0  0  0  0  0
   12.0201   -6.1412    0.0000 C   0  0  1  0  0  0  0  0  0  0  0  0
   12.5112   -5.8374    0.0000 C   0  0  1  0  0  0  0  0  0  0  0  0
   12.4935   -5.2601    0.0000 C   0  0  2  0  0  0  0  0  0  0  0  0
   11.9848   -4.9868    0.0000 C   0  0  1  0  0  0  0  0  0  0  0  0
   11.4938   -5.2907    0.0000 O   0  0  0  0  0  0  0  0  0  0  0  0
   11.0113   -5.5791    0.0000 H   0  0  0  0  0  0  0  0  0  0  0  0
   11.9672   -4.4095    0.0000 O   0  0  0  0  0  0  0  0  0  0  0  0
   12.0377   -6.7185    0.0000 O   0  0  0  0  0  0  0  0  0  0  0  0
   13.0199   -6.1107    0.0000 O   0  0  0  0  0  0  0  0  0  0  0  0
   12.9846   -4.9562    0.0000 O   0  0  0  0  0  0  0  0  0  0  0  0
  1  2  1  0  0  0  0
  2  3  1  0  0  0  0
  3  4  1  0  0  0  0
  4  5  1  0  0  0  0
  5  6  1  0  0  0  0
  6  1  1  0  0  0  0
  4  7  1  0  0  0  0
  8  7  1  1  0  0  0
  8  9  1  0  0  0  0
  9 10  1  6  0  0  0
  8 11  1  0  0  0  0
 11 12  1  0  0  0  0
 12 13  1  0  0  0  0
 13 14  1  0  0  0  0
 14  9  1  0  0  0  0
 13 15  1  6  0  0  0
 14 16  1  1  0  0  0
 15 17  1  0  0  0  0
 18 17  1  1  0  0  0
 18 19  1  0  0  0  0
 18 20  1  0  0  0  0
 20 21  1  0  0  0  0
 21 22  1  0  0  0  0
 22 23  1  0  0  0  0
 23 19  1  0  0  0  0
 22 24  1  6  0  0  0
 25 26  2  0  0  0  0
 26 27  1  0  0  0  0
 23 27  1  1  0  0  0
 28 26  1  6  0  0  0
 28 29  1  0  0  0  0
 28 30  1  0  0  0  0
 30 31  1  0  0  0  0
 31 32  1  0  0  0  0
 32 33  1  0  0  0  0
 33 29  1  0  0  0  0
 29 34  1  0  0  0  0
 34 35  1  0  0  0  0
 35 36  1  0  0  0  0
 36 37  1  0  0  0  0
 37 28  1  0  0  0  0
 32 38  1  0  0  0  0
 38 39  1  0  0  0  0
 39 40  1  0  0  0  0
 40 41  1  0  0  0  0
 41 33  2  0  0  0  0
 38 42  1  0  0  0  0
 42 43  1  0  0  0  0
 43 44  1  0  0  0  0
 44 45  1  0  0  0  0
 45 39  1  0  0  0  0
 44 46  1  0  0  0  0
 46 47  1  0  0  0  0
 47 48  1  0  0  0  0
 48 49  1  0  0  0  0
 49 45  1  0  0  0  0
 11 50  1  6  0  0  0
 50 51  1  0  0  0  0
 35 52  2  0  0  0  0
 46 53  1  0  0  0  0
 46 54  1  0  0  0  0
  6 55  1  6  0  0  0
  2 56  1  6  0  0  0
  3 57  1  6  0  0  0
  4 58  1  6  0  0  0
 20 59  1  6  0  0  0
 29 60  1  6  0  0  0
 38 61  1  6  0  0  0
 45 62  1  6  0  0  0
 47 63  1  6  0  0  0
  1 64  1  1  0  0  0
 21 65  1  1  0  0  0
 32 66  1  1  0  0  0
 39 67  1  1  0  0  0
 44 68  1  1  0  0  0
 69 70  1  0  0  0  0
 70 71  1  0  0  0  0
 71 72  1  0  0  0  0
 72 73  1  0  0  0  0
 73 74  1  0  0  0  0
 74 69  1  0  0  0  0
 69 75  1  6  0  0  0
 74 76  1  6  0  0  0
 73 77  1  1  0  0  0
 72 78  1  1  0  0  0
 77 79  1  0  0  0  0
 79 80  1  0  0  0  0
 80 81  1  0  0  0  0
 81 82  1  0  0  0  0
 82 83  1  0  0  0  0
 83 84  1  0  0  0  0
 84 79  1  0  0  0  0
 79 85  1  6  0  0  0
 84 86  1  6  0  0  0
 81 87  1  1  0  0  0
 82 88  1  1  0  0  0
 83 89  1  1  0  0  0
 87 90  1  0  0  0  0
 76 91  1  0  0  0  0
 91 92  1  0  0  0  0
 92 93  1  0  0  0  0
 93 94  1  0  0  0  0
 94 95  1  0  0  0  0
 95 96  1  0  0  0  0
 96 91  1  0  0  0  0
 91 97  1  1  0  0  0
 95 98  1  1  0  0  0
 92 99  1  1  0  0  0
 93100  1  1  0  0  0
 94101  1  6  0  0  0
 69 63  1  0  0  0  0
M  END
>  <cdx:fragmentId>
5

$$$$
