93421.cdx
  Mrv1902 05222410242D          

 48 54  0  0  0  0            999 V2000
    7.3886   -7.4424    0.0000 C   0  0  2  0  0  0  0  0  0  0  0  0
    7.4024   -8.2673    0.0000 C   0  0  2  0  0  0  0  0  0  0  0  0
    8.0559   -8.7708    0.0000 C   0  0  1  0  0  0  0  0  0  0  0  0
    8.8570   -8.5738    0.0000 C   0  0  1  0  0  0  0  0  0  0  0  0
    9.2025   -7.8246    0.0000 C   0  0  2  0  0  0  0  0  0  0  0  0
    8.8322   -7.0874    0.0000 C   0  0  2  0  0  0  0  0  0  0  0  0
    8.0249   -6.9173    0.0000 C   0  0  2  0  0  0  0  0  0  0  0  0
    6.5998   -7.2006    0.0000 C   0  0  0  0  0  0  0  0  0  0  0  0
    6.1261   -7.8761    0.0000 C   0  0  1  0  0  0  0  0  0  0  0  0
    6.6221   -8.5353    0.0000 C   0  0  2  0  0  0  0  0  0  0  0  0
    9.3831   -6.4734    0.0000 C   0  0  2  0  0  0  0  0  0  0  0  0
    9.1268   -5.6892    0.0000 C   0  0  2  0  0  0  0  0  0  0  0  0
    8.3195   -5.5191    0.0000 C   0  0  0  0  0  0  0  0  0  0  0  0
    7.7686   -6.1331    0.0000 C   0  0  1  0  0  0  0  0  0  0  0  0
   10.2081   -6.4719    0.0000 O   0  0  0  0  0  0  0  0  0  0  0  0
   10.4617   -5.6869    0.0000 C   0  0  0  0  0  0  0  0  0  0  0  0
    9.7934   -5.2031    0.0000 O   0  0  0  0  0  0  0  0  0  0  0  0
   11.2459   -5.4306    0.0000 C   0  0  0  0  0  0  0  0  0  0  0  0
   11.8599   -5.9815    0.0000 C   0  0  0  0  0  0  0  0  0  0  0  0
   12.6441   -5.7252    0.0000 C   0  0  0  0  0  0  0  0  0  0  0  0
   12.8142   -4.9179    0.0000 C   0  0  0  0  0  0  0  0  0  0  0  0
   12.2002   -4.3670    0.0000 C   0  0  0  0  0  0  0  0  0  0  0  0
   11.4160   -4.6233    0.0000 C   0  0  0  0  0  0  0  0  0  0  0  0
    9.3821   -9.2102    0.0000 C   0  0  0  0  0  0  0  0  0  0  0  0
   10.1826   -9.0105    0.0000 O   0  0  0  0  0  0  0  0  0  0  0  0
    8.5250   -6.2150    0.0000 O   0  0  0  0  0  0  0  0  0  0  0  0
    6.9613   -5.9630    0.0000 C   0  0  0  0  0  0  0  0  0  0  0  0
    7.1889   -6.6419    0.0000 H   0  0  0  0  0  0  0  0  0  0  0  0
    9.6575   -8.3741    0.0000 O   0  0  0  0  0  0  0  0  0  0  0  0
    9.6252   -7.3147    0.0000 H   0  0  0  0  0  0  0  0  0  0  0  0
    5.3012   -7.8898    0.0000 C   0  0  0  0  0  0  0  0  0  0  0  0
    6.3803   -9.3241    0.0000 O   0  0  0  0  0  0  0  0  0  0  0  0
    7.1751   -9.0604    0.0000 O   0  0  0  0  0  0  0  0  0  0  0  0
    7.8857   -9.5781    0.0000 O   0  0  0  0  0  0  0  0  0  0  0  0
    5.5798   -9.5238    0.0000 C   0  0  0  0  0  0  0  0  0  0  0  0
    5.0067   -8.9304    0.0000 O   0  0  0  0  0  0  0  0  0  0  0  0
    1.2224  -14.2681    0.0000 C   0  0  0  0  0  0  0  0  0  0  0  0
    1.4536  -13.4761    0.0000 C   0  0  0  0  0  0  0  0  0  0  0  0
    2.2550  -13.2803    0.0000 C   0  0  0  0  0  0  0  0  0  0  0  0
    2.4861  -12.4883    0.0000 C   0  0  0  0  0  0  0  0  0  0  0  0
    3.2875  -12.2925    0.0000 C   0  0  0  0  0  0  0  0  0  0  0  0
    3.5186  -11.5005    0.0000 C   0  0  0  0  0  0  0  0  0  0  0  0
    4.3200  -11.3046    0.0000 C   0  0  0  0  0  0  0  0  0  0  0  0
    4.5511  -10.5127    0.0000 C   0  0  0  0  0  0  0  0  0  0  0  0
    5.3525  -10.3168    0.0000 C   0  0  0  0  0  0  0  0  0  0  0  0
    9.1268   -4.8642    0.0000 C   0  0  0  0  0  0  0  0  0  0  0  0
    8.4123   -4.4517    0.0000 C   0  0  0  0  0  0  0  0  0  0  0  0
    9.8413   -4.4517    0.0000 C   0  0  0  0  0  0  0  0  0  0  0  0
  1  2  1  0  0  0  0
  2  3  1  0  0  0  0
  3  4  1  0  0  0  0
  4  5  1  0  0  0  0
  5  6  1  0  0  0  0
  6  7  1  0  0  0  0
  7  1  1  0  0  0  0
  1  8  1  0  0  0  0
  8  9  1  0  0  0  0
  9 10  1  0  0  0  0
 10  2  1  0  0  0  0
  6 11  1  0  0  0  0
 11 12  1  0  0  0  0
 12 13  1  0  0  0  0
 13 14  1  0  0  0  0
 14  7  1  0  0  0  0
 11 15  1  6  0  0  0
 15 16  1  0  0  0  0
 16 17  1  0  0  0  0
 12 17  1  6  0  0  0
 16 18  1  0  0  0  0
 18 19  2  0  0  0  0
 19 20  1  0  0  0  0
 20 21  2  0  0  0  0
 21 22  1  0  0  0  0
 22 23  2  0  0  0  0
 23 18  1  0  0  0  0
  4 24  1  0  0  0  0
 24 25  1  0  0  0  0
  7 26  1  6  0  0  0
 26 16  1  0  0  0  0
 14 27  1  6  0  0  0
  1 28  1  6  0  0  0
  4 29  1  6  0  0  0
  5 29  1  6  0  0  0
  6 30  1  1  0  0  0
  9 31  1  1  0  0  0
 10 32  1  1  0  0  0
  2 33  1  1  0  0  0
  3 34  1  1  0  0  0
 32 35  1  0  0  0  0
 38 37  1  0  0  0  0
 35 45  1  0  0  0  0
 35 36  2  0  0  0  0
 39 38  1  0  0  0  0
 40 39  1  0  0  0  0
 41 40  1  0  0  0  0
 42 41  1  0  0  0  0
 43 42  2  0  0  0  0
 44 43  1  0  0  0  0
 45 44  2  0  0  0  0
 12 46  1  0  0  0  0
 46 47  1  0  0  0  0
 46 48  2  0  0  0  0
M  END
>  <cdx:fragmentId>
5

$$$$
