934284.cdx
  Mrv1902 05222410252D          

 34 37  0  0  0  0            999 V2000
    4.5068  -10.8245    0.0000 C   0  0  0  0  0  0  0  0  0  0  0  0
    3.7924  -11.2370    0.0000 C   0  0  0  0  0  0  0  0  0  0  0  0
    3.7924  -12.0620    0.0000 C   0  0  0  0  0  0  0  0  0  0  0  0
    4.5068  -12.4745    0.0000 C   0  0  0  0  0  0  0  0  0  0  0  0
    5.2213  -12.0620    0.0000 C   0  0  2  0  0  0  0  0  0  0  0  0
    5.9358  -12.4745    0.0000 C   0  0  0  0  0  0  0  0  0  0  0  0
    6.6502  -12.0620    0.0000 C   0  0  0  0  0  0  0  0  0  0  0  0
    6.6502  -11.2370    0.0000 C   0  0  0  0  0  0  0  0  0  0  0  0
    7.3647  -10.8245    0.0000 C   0  0  2  0  0  0  0  0  0  0  0  0
    8.1493  -11.0794    0.0000 C   0  0  0  0  0  0  0  0  0  0  0  0
    8.6343  -10.4120    0.0000 C   0  0  0  0  0  0  0  0  0  0  0  0
    8.1493   -9.7446    0.0000 C   0  0  1  0  0  0  0  0  0  0  0  0
    7.3647   -9.9995    0.0000 C   0  0  1  0  0  0  0  0  0  0  0  0
    6.6502   -9.5870    0.0000 C   0  0  0  0  0  0  0  0  0  0  0  0
    5.9358   -9.9995    0.0000 C   0  0  0  0  0  0  0  0  0  0  0  0
    5.9358  -10.8245    0.0000 C   0  0  0  0  0  0  0  0  0  0  0  0
    5.2213  -11.2370    0.0000 C   0  0  1  0  0  0  0  0  0  0  0  0
    3.0779  -12.4745    0.0000 O   0  0  0  0  0  0  0  0  0  0  0  0
    7.3647  -11.6495    0.0000 C   0  0  0  0  0  0  0  0  0  0  0  0
    7.3647   -9.1745    0.0000 C   0  0  0  0  0  0  0  0  0  0  0  0
    5.2213  -10.4120    0.0000 C   0  0  0  0  0  0  0  0  0  0  0  0
    4.9193  -13.1890    0.0000 C   0  0  0  0  0  0  0  0  0  0  0  0
    4.0943  -13.1890    0.0000 C   0  0  0  0  0  0  0  0  0  0  0  0
    7.8522   -8.3469    0.0000 C   0  0  0  0  0  0  0  0  0  0  0  0
    8.4043   -8.9599    0.0000 C   0  0  2  0  0  0  0  0  0  0  0  0
    9.2113   -8.7884    0.0000 C   0  0  0  0  0  0  0  0  0  0  0  0
    9.4662   -8.0038    0.0000 C   0  0  0  0  0  0  0  0  0  0  0  0
   10.2732   -7.8323    0.0000 C   0  0  0  0  0  0  0  0  0  0  0  0
   10.5281   -7.0476    0.0000 C   0  0  0  0  0  0  0  0  0  0  0  0
   11.3351   -6.8761    0.0000 C   0  0  0  0  0  0  0  0  0  0  0  0
    9.9761   -6.4346    0.0000 C   0  0  0  0  0  0  0  0  0  0  0  0
   11.5900   -6.0915    0.0000 O   0  0  0  0  0  0  0  0  0  0  0  0
    5.2213  -12.8870    0.0000 H   0  0  0  0  0  0  0  0  0  0  0  0
    8.9340   -9.4896    0.0000 H   0  0  0  0  0  0  0  0  0  0  0  0
  1  2  1  0  0  0  0
  2  3  1  0  0  0  0
  3  4  1  0  0  0  0
  4  5  1  0  0  0  0
  5  6  1  0  0  0  0
  6  7  1  0  0  0  0
  7  8  2  0  0  0  0
  8  9  1  0  0  0  0
  9 10  1  0  0  0  0
 10 11  1  0  0  0  0
 12 11  1  0  0  0  0
 12 13  1  0  0  0  0
  9 13  1  0  0  0  0
 13 14  1  0  0  0  0
 14 15  1  0  0  0  0
 15 16  2  0  0  0  0
  8 16  1  0  0  0  0
 16 17  1  0  0  0  0
  5 17  1  0  0  0  0
  1 17  1  0  0  0  0
  3 18  2  0  0  0  0
  9 19  1  6  0  0  0
 13 20  1  1  0  0  0
 17 21  1  1  0  0  0
  4 22  1  0  0  0  0
  4 23  1  0  0  0  0
 25 24  1  6  0  0  0
 25 26  1  0  0  0  0
 26 27  1  0  0  0  0
 27 28  1  0  0  0  0
 28 29  2  0  0  0  0
 29 30  1  0  0  0  0
 29 31  1  0  0  0  0
 30 32  1  0  0  0  0
 12 25  1  0  0  0  0
  5 33  1  6  0  0  0
 12 34  1  6  0  0  0
M  END
>  <cdx:groupId>
98894

>  <cdx:fragmentId>
98795

$$$$
