93423.cdx
  Mrv1902 05222410232D          

 31 35  0  0  0  0            999 V2000
    9.6557   -8.6293    0.0000 C   0  0  0  0  0  0  0  0  0  0  0  0
    8.2460   -4.4977    0.0000 H   0  0  0  0  0  0  0  0  0  0  0  0
    6.8170   -6.9660    0.0000 H   0  0  0  0  0  0  0  0  0  0  0  0
    8.2345   -6.9727    0.0000 H   0  0  0  0  0  0  0  0  0  0  0  0
    8.9624   -4.0886    0.0000 C   0  0  0  0  0  0  0  0  0  0  0  0
    9.6596   -7.8043    0.0000 O   0  0  0  0  0  0  0  0  0  0  0  0
    8.2306   -7.7977    0.0000 O   0  0  0  0  0  0  0  0  0  0  0  0
    8.9470   -7.3885    0.0000 C   0  0  0  0  0  0  0  0  0  0  0  0
    9.6711   -5.3294    0.0000 O   0  0  0  0  0  0  0  0  0  0  0  0
    9.6672   -6.1544    0.0000 C   0  0  0  0  0  0  0  0  0  0  0  0
    8.9509   -6.5635    0.0000 C   0  0  0  0  0  0  0  0  0  0  0  0
    8.9585   -4.9136    0.0000 C   0  0  2  0  0  0  0  0  0  0  0  0
    6.8094   -6.1411    0.0000 C   0  0  2  0  0  0  0  0  0  0  0  0
    7.5219   -6.5569    0.0000 C   0  0  0  0  0  0  0  0  0  0  0  0
    8.2383   -6.1477    0.0000 C   0  0  1  0  0  0  0  0  0  0  0  0
    8.2422   -5.3227    0.0000 C   0  0  2  0  0  0  0  0  0  0  0  0
    7.5296   -4.9069    0.0000 C   0  0  0  0  0  0  0  0  0  0  0  0
    6.8132   -5.3161    0.0000 N   0  3  0  0  0  0  0  0  0  0  0  0
    6.0298   -5.0575    0.0000 C   0  0  0  0  0  0  0  0  0  0  0  0
    5.5418   -5.7226    0.0000 C   0  0  0  0  0  0  0  0  0  0  0  0
    6.0236   -6.3923    0.0000 C   0  0  1  0  0  0  0  0  0  0  0  0
    5.2378   -6.6436    0.0000 C   0  0  0  0  0  0  0  0  0  0  0  0
    5.2339   -7.4686    0.0000 N   0  0  0  0  0  0  0  0  0  0  0  0
    6.0174   -7.7272    0.0000 C   0  0  0  0  0  0  0  0  0  0  0  0
    6.5054   -7.0620    0.0000 C   0  0  0  0  0  0  0  0  0  0  0  0
    6.3494   -8.4824    0.0000 C   0  0  0  0  0  0  0  0  0  0  0  0
    7.1695   -8.5725    0.0000 C   0  0  0  0  0  0  0  0  0  0  0  0
    7.6575   -7.9073    0.0000 C   0  0  0  0  0  0  0  0  0  0  0  0
    7.3255   -7.1521    0.0000 C   0  0  0  0  0  0  0  0  0  0  0  0
    4.5726   -6.1556    0.0000 O   0  0  0  0  0  0  0  0  0  0  0  0
    6.8056   -4.4911    0.0000 O   0  5  0  0  0  0  0  0  0  0  0  0
  6  1  1  0  0  0  0
 16  2  1  1  0  0  0
 13  3  1  6  0  0  0
 15  4  1  6  0  0  0
 12  5  1  6  0  0  0
 11  8  1  0  0  0  0
  8  6  1  0  0  0  0
  8  7  2  0  0  0  0
 11 15  1  0  0  0  0
 12 16  1  0  0  0  0
 12  9  1  0  0  0  0
 10  9  1  0  0  0  0
 11 10  2  0  0  0  0
 18 13  1  0  0  0  0
 21 13  1  0  0  0  0
 14 13  1  0  0  0  0
 15 14  1  0  0  0  0
 16 15  1  0  0  0  0
 17 16  1  0  0  0  0
 18 17  1  0  0  0  0
 19 18  1  0  0  0  0
 20 19  1  0  0  0  0
 21 20  1  1  0  0  0
 21 22  1  0  0  0  0
 22 23  1  0  0  0  0
 23 24  1  0  0  0  0
 24 25  2  0  0  0  0
 25 21  1  0  0  0  0
 24 26  1  0  0  0  0
 26 27  2  0  0  0  0
 27 28  1  0  0  0  0
 28 29  2  0  0  0  0
 29 25  1  0  0  0  0
 22 30  2  0  0  0  0
 18 31  1  0  0  0  0
M  CHG  2  18   1  31  -1
M  END
>  <cdx:fragmentId>
1978

$$$$
