934282.cdx
  Mrv1902 05222410242D          

 34 37  0  0  0  0            999 V2000
   11.5679   -7.7088    0.0000 C   0  0  0  0  0  0  0  0  0  0  0  0
   10.7609   -7.8803    0.0000 C   0  0  0  0  0  0  0  0  0  0  0  0
   10.5060   -8.6649    0.0000 C   0  0  0  0  0  0  0  0  0  0  0  0
    9.6990   -8.8364    0.0000 C   0  0  0  0  0  0  0  0  0  0  0  0
    9.4441   -9.6211    0.0000 C   0  0  0  0  0  0  0  0  0  0  0  0
    8.6371   -9.7926    0.0000 C   0  0  1  0  0  0  0  0  0  0  0  0
    8.0851   -9.1795    0.0000 C   0  0  0  0  0  0  0  0  0  0  0  0
   11.8228   -6.9241    0.0000 O   0  0  0  0  0  0  0  0  0  0  0  0
    4.7397  -11.6572    0.0000 C   0  0  0  0  0  0  0  0  0  0  0  0
    4.0252  -12.0697    0.0000 C   0  0  0  0  0  0  0  0  0  0  0  0
    4.0252  -12.8947    0.0000 C   0  0  0  0  0  0  0  0  0  0  0  0
    4.7397  -13.3072    0.0000 C   0  0  0  0  0  0  0  0  0  0  0  0
    5.4541  -12.8947    0.0000 C   0  0  2  0  0  0  0  0  0  0  0  0
    6.1686  -13.3072    0.0000 C   0  0  0  0  0  0  0  0  0  0  0  0
    6.8831  -12.8947    0.0000 C   0  0  0  0  0  0  0  0  0  0  0  0
    6.8831  -12.0697    0.0000 C   0  0  0  0  0  0  0  0  0  0  0  0
    7.5976  -11.6572    0.0000 C   0  0  2  0  0  0  0  0  0  0  0  0
    8.3822  -11.9121    0.0000 C   0  0  0  0  0  0  0  0  0  0  0  0
    8.8671  -11.2447    0.0000 C   0  0  0  0  0  0  0  0  0  0  0  0
    8.3822  -10.5772    0.0000 C   0  0  1  0  0  0  0  0  0  0  0  0
    7.5976  -10.8322    0.0000 C   0  0  1  0  0  0  0  0  0  0  0  0
    6.8831  -10.4197    0.0000 C   0  0  0  0  0  0  0  0  0  0  0  0
    6.1686  -10.8322    0.0000 C   0  0  0  0  0  0  0  0  0  0  0  0
    6.1686  -11.6572    0.0000 C   0  0  0  0  0  0  0  0  0  0  0  0
    5.4541  -12.0697    0.0000 C   0  0  1  0  0  0  0  0  0  0  0  0
    3.3107  -13.3072    0.0000 O   0  0  0  0  0  0  0  0  0  0  0  0
    7.5976  -12.4884    0.0000 C   0  0  0  0  0  0  0  0  0  0  0  0
    7.5976  -10.0375    0.0000 C   0  0  0  0  0  0  0  0  0  0  0  0
    5.4541  -11.2447    0.0000 C   0  0  0  0  0  0  0  0  0  0  0  0
    5.1522  -14.0216    0.0000 C   0  0  0  0  0  0  0  0  0  0  0  0
    4.3272  -14.0216    0.0000 C   0  0  0  0  0  0  0  0  0  0  0  0
   10.2089   -7.2672    0.0000 C   0  0  0  0  0  0  0  0  0  0  0  0
    5.4541  -13.7197    0.0000 H   0  0  0  0  0  0  0  0  0  0  0  0
    9.1668  -10.3223    0.0000 H   0  0  0  0  0  0  0  0  0  0  0  0
  1  2  1  0  0  0  0
  2  3  2  0  0  0  0
  3  4  1  0  0  0  0
  4  5  1  0  0  0  0
  5  6  1  0  0  0  0
  6  7  1  6  0  0  0
  1  8  2  0  0  0  0
  9 10  1  0  0  0  0
 10 11  1  0  0  0  0
 11 12  1  0  0  0  0
 12 13  1  0  0  0  0
 13 14  1  0  0  0  0
 14 15  1  0  0  0  0
 15 16  2  0  0  0  0
 16 17  1  0  0  0  0
 17 18  1  0  0  0  0
 18 19  1  0  0  0  0
 20 19  1  0  0  0  0
 20 21  1  0  0  0  0
 17 21  1  0  0  0  0
 21 22  1  0  0  0  0
 22 23  1  0  0  0  0
 23 24  2  0  0  0  0
 16 24  1  0  0  0  0
 24 25  1  0  0  0  0
 13 25  1  0  0  0  0
  9 25  1  0  0  0  0
 11 26  2  0  0  0  0
 17 27  1  6  0  0  0
 21 28  1  1  0  0  0
 25 29  1  1  0  0  0
 12 30  1  0  0  0  0
 12 31  1  0  0  0  0
  6 20  1  0  0  0  0
  2 32  1  0  0  0  0
 13 33  1  6  0  0  0
 20 34  1  6  0  0  0
M  END
>  <cdx:groupId>
98782

>  <cdx:fragmentId>
98699

$$$$
