93420.cdx
  Mrv1902 05222410242D          

 20 21  0  0  0  0            999 V2000
    6.4972   -7.9063    0.0000 C   0  0  2  0  0  0  0  0  0  0  0  0
    6.4972   -8.7313    0.0000 C   0  0  2  0  0  0  0  0  0  0  0  0
    7.1422   -9.2456    0.0000 C   0  0  0  0  0  0  0  0  0  0  0  0
    7.9465   -9.0620    0.0000 C   0  0  0  0  0  0  0  0  0  0  0  0
    8.3045   -8.3187    0.0000 C   0  0  0  0  0  0  0  0  0  0  0  0
    7.9465   -7.5755    0.0000 C   0  0  0  0  0  0  0  0  0  0  0  0
    7.1422   -7.3919    0.0000 C   0  0  2  0  0  0  0  0  0  0  0  0
    5.7126   -7.6513    0.0000 C   0  0  0  0  0  0  0  0  0  0  0  0
    5.2277   -8.3187    0.0000 C   0  0  0  0  0  0  0  0  0  0  0  0
    5.7126   -8.9862    0.0000 C   0  0  2  0  0  0  0  0  0  0  0  0
    9.1295   -8.3187    0.0000 O   0  0  0  0  0  0  0  0  0  0  0  0
    8.4609   -9.7071    0.0000 C   0  0  0  0  0  0  0  0  0  0  0  0
    8.1595  -10.4750    0.0000 C   0  0  0  0  0  0  0  0  0  0  0  0
    9.2767   -9.5841    0.0000 C   0  0  0  0  0  0  0  0  0  0  0  0
    6.7297   -6.6774    0.0000 C   0  0  0  0  0  0  0  0  0  0  0  0
    4.9981   -9.3987    0.0000 C   0  0  0  0  0  0  0  0  0  0  0  0
    6.4972   -9.5563    0.0000 H   0  0  0  0  0  0  0  0  0  0  0  0
    7.5547   -6.6774    0.0000 O   0  0  0  0  0  0  0  0  0  0  0  0
    6.4972   -7.0812    0.0000 H   0  0  0  0  0  0  0  0  0  0  0  0
    5.7126   -9.8112    0.0000 O   0  0  0  0  0  0  0  0  0  0  0  0
  1  2  1  0  0  0  0
  2  3  1  0  0  0  0
  3  4  1  0  0  0  0
  4  5  1  0  0  0  0
  5  6  1  0  0  0  0
  6  7  1  0  0  0  0
  7  1  1  0  0  0  0
  1  8  1  0  0  0  0
  8  9  1  0  0  0  0
  9 10  1  0  0  0  0
 10  2  1  0  0  0  0
  5 11  2  0  0  0  0
  4 12  2  0  0  0  0
 12 13  1  0  0  0  0
 12 14  1  0  0  0  0
  7 15  1  1  0  0  0
 10 16  1  1  0  0  0
  2 17  1  1  0  0  0
  7 18  1  6  0  0  0
  1 19  1  6  0  0  0
 10 20  1  6  0  0  0
M  END
>  <cdx:fragmentId>
5

$$$$
