934286.cdx
  Mrv1902 05222410252D          

 34 37  0  0  0  0            999 V2000
    4.5236   -9.5595    0.0000 C   0  0  0  0  0  0  0  0  0  0  0  0
    3.8092   -9.9720    0.0000 C   0  0  0  0  0  0  0  0  0  0  0  0
    3.8092  -10.7970    0.0000 C   0  0  1  0  0  0  0  0  0  0  0  0
    4.5236  -11.2095    0.0000 C   0  0  0  0  0  0  0  0  0  0  0  0
    5.2381  -10.7970    0.0000 C   0  0  2  0  0  0  0  0  0  0  0  0
    5.9526  -11.2095    0.0000 C   0  0  0  0  0  0  0  0  0  0  0  0
    6.6670  -10.7970    0.0000 C   0  0  0  0  0  0  0  0  0  0  0  0
    6.6670   -9.9720    0.0000 C   0  0  0  0  0  0  0  0  0  0  0  0
    7.3815   -9.5595    0.0000 C   0  0  2  0  0  0  0  0  0  0  0  0
    8.1661   -9.8144    0.0000 C   0  0  0  0  0  0  0  0  0  0  0  0
    8.6511   -9.1470    0.0000 C   0  0  0  0  0  0  0  0  0  0  0  0
    8.1661   -8.4796    0.0000 C   0  0  1  0  0  0  0  0  0  0  0  0
    7.3815   -8.7345    0.0000 C   0  0  1  0  0  0  0  0  0  0  0  0
    6.6670   -8.3220    0.0000 C   0  0  0  0  0  0  0  0  0  0  0  0
    5.9526   -8.7345    0.0000 C   0  0  0  0  0  0  0  0  0  0  0  0
    5.9526   -9.5595    0.0000 C   0  0  0  0  0  0  0  0  0  0  0  0
    5.2381   -9.9720    0.0000 C   0  0  1  0  0  0  0  0  0  0  0  0
    3.0947  -11.2095    0.0000 O   0  0  0  0  0  0  0  0  0  0  0  0
    7.3815  -10.3845    0.0000 C   0  0  0  0  0  0  0  0  0  0  0  0
    7.3815   -7.9095    0.0000 C   0  0  0  0  0  0  0  0  0  0  0  0
    5.2381   -9.1470    0.0000 C   0  0  0  0  0  0  0  0  0  0  0  0
    4.9361  -11.9240    0.0000 C   0  0  0  0  0  0  0  0  0  0  0  0
    4.1111  -11.9240    0.0000 C   0  0  0  0  0  0  0  0  0  0  0  0
    7.8690   -7.0819    0.0000 C   0  0  0  0  0  0  0  0  0  0  0  0
    8.4211   -7.6949    0.0000 C   0  0  2  0  0  0  0  0  0  0  0  0
    9.2280   -7.5234    0.0000 C   0  0  0  0  0  0  0  0  0  0  0  0
    9.4830   -6.7388    0.0000 C   0  0  0  0  0  0  0  0  0  0  0  0
   10.2900   -6.5673    0.0000 C   0  0  0  0  0  0  0  0  0  0  0  0
   10.5449   -5.7826    0.0000 C   0  0  0  0  0  0  0  0  0  0  0  0
   11.3519   -5.6111    0.0000 C   0  0  0  0  0  0  0  0  0  0  0  0
    9.9929   -5.1696    0.0000 C   0  0  0  0  0  0  0  0  0  0  0  0
   11.6068   -4.8265    0.0000 O   0  0  0  0  0  0  0  0  0  0  0  0
    5.2381  -11.6220    0.0000 H   0  0  0  0  0  0  0  0  0  0  0  0
    8.9508   -8.2246    0.0000 H   0  0  0  0  0  0  0  0  0  0  0  0
  1  2  1  0  0  0  0
  2  3  1  0  0  0  0
  3  4  1  0  0  0  0
  4  5  1  0  0  0  0
  5  6  1  0  0  0  0
  6  7  1  0  0  0  0
  7  8  2  0  0  0  0
  8  9  1  0  0  0  0
  9 10  1  0  0  0  0
 10 11  1  0  0  0  0
 12 11  1  0  0  0  0
 12 13  1  0  0  0  0
  9 13  1  0  0  0  0
 13 14  1  0  0  0  0
 14 15  1  0  0  0  0
 15 16  2  0  0  0  0
  8 16  1  0  0  0  0
 16 17  1  0  0  0  0
  5 17  1  0  0  0  0
  1 17  1  0  0  0  0
  3 18  1  1  0  0  0
  9 19  1  6  0  0  0
 13 20  1  1  0  0  0
 17 21  1  1  0  0  0
  4 22  1  0  0  0  0
  4 23  1  0  0  0  0
 25 24  1  6  0  0  0
 25 26  1  0  0  0  0
 26 27  1  0  0  0  0
 27 28  1  0  0  0  0
 28 29  2  0  0  0  0
 29 30  1  0  0  0  0
 29 31  1  0  0  0  0
 30 32  1  0  0  0  0
 12 25  1  0  0  0  0
  5 33  1  6  0  0  0
 12 34  1  6  0  0  0
M  END
>  <cdx:fragmentId>
98907

$$$$
