93422.cdx
  Mrv1902 05222410232D          

 35 36  0  0  0  0            999 V2000
    2.7893   -7.9063    0.0000 C   0  0  0  0  0  0  0  0  0  0  0  0
    2.7893   -8.7313    0.0000 C   0  0  0  0  0  0  0  0  0  0  0  0
    3.5038   -9.1438    0.0000 C   0  0  0  0  0  0  0  0  0  0  0  0
    4.2182   -8.7313    0.0000 C   0  0  0  0  0  0  0  0  0  0  0  0
    4.2182   -7.9063    0.0000 C   0  0  0  0  0  0  0  0  0  0  0  0
    3.5038   -7.4937    0.0000 C   0  0  0  0  0  0  0  0  0  0  0  0
    2.0748   -7.4937    0.0000 C   0  0  0  0  0  0  0  0  0  0  0  0
    1.6623   -8.2082    0.0000 C   0  0  0  0  0  0  0  0  0  0  0  0
    2.4873   -6.7793    0.0000 C   0  0  0  0  0  0  0  0  0  0  0  0
    1.3604   -7.0812    0.0000 C   0  0  0  0  0  0  0  0  0  0  0  0
    4.9327   -7.4937    0.0000 C   0  0  0  0  0  0  0  0  0  0  0  0
    5.3452   -8.2082    0.0000 C   0  0  0  0  0  0  0  0  0  0  0  0
    4.5202   -6.7793    0.0000 C   0  0  0  0  0  0  0  0  0  0  0  0
    5.6472   -7.0812    0.0000 C   0  0  0  0  0  0  0  0  0  0  0  0
    4.9327   -9.1438    0.0000 O   0  0  0  0  0  0  0  0  0  0  0  0
    5.6472   -8.7313    0.0000 C   0  0  0  0  0  0  0  0  0  0  0  0
    6.3617   -9.1438    0.0000 C   0  0  0  0  0  0  0  0  0  0  0  0
    7.0761   -8.7313    0.0000 O   0  0  0  0  0  0  0  0  0  0  0  0
    7.7906   -9.1438    0.0000 C   0  0  0  0  0  0  0  0  0  0  0  0
    8.5051   -8.7313    0.0000 C   0  0  0  0  0  0  0  0  0  0  0  0
    9.2195   -9.1438    0.0000 O   0  0  0  0  0  0  0  0  0  0  0  0
    9.9340   -8.7313    0.0000 C   0  0  0  0  0  0  0  0  0  0  0  0
   10.6485   -9.1438    0.0000 C   0  0  0  0  0  0  0  0  0  0  0  0
   11.3630   -8.7313    0.0000 C   0  0  0  0  0  0  0  0  0  0  0  0
   11.3630   -7.9063    0.0000 C   0  0  0  0  0  0  0  0  0  0  0  0
   10.6485   -7.4937    0.0000 C   0  0  0  0  0  0  0  0  0  0  0  0
    9.9340   -7.9063    0.0000 C   0  0  0  0  0  0  0  0  0  0  0  0
    9.2195   -7.4937    0.0000 C   0  0  0  0  0  0  0  0  0  0  0  0
    8.8070   -8.2082    0.0000 C   0  0  0  0  0  0  0  0  0  0  0  0
    9.6320   -6.7793    0.0000 C   0  0  0  0  0  0  0  0  0  0  0  0
    8.5051   -7.0812    0.0000 C   0  0  0  0  0  0  0  0  0  0  0  0
   12.0774   -7.4937    0.0000 C   0  0  0  0  0  0  0  0  0  0  0  0
   12.4899   -8.2082    0.0000 C   0  0  0  0  0  0  0  0  0  0  0  0
   11.6649   -6.7793    0.0000 C   0  0  0  0  0  0  0  0  0  0  0  0
   12.7919   -7.0812    0.0000 C   0  0  0  0  0  0  0  0  0  0  0  0
  1  2  2  0  0  0  0
  2  3  1  0  0  0  0
  3  4  2  0  0  0  0
  4  5  1  0  0  0  0
  5  6  2  0  0  0  0
  6  1  1  0  0  0  0
  1  7  1  0  0  0  0
  7  8  1  0  0  0  0
  7  9  1  0  0  0  0
  7 10  1  0  0  0  0
  5 11  1  0  0  0  0
 11 12  1  0  0  0  0
 11 13  1  0  0  0  0
 11 14  1  0  0  0  0
  4 15  1  0  0  0  0
 15 16  1  0  0  0  0
 16 17  1  0  0  0  0
 17 18  1  0  0  0  0
 18 19  1  0  0  0  0
 19 20  1  0  0  0  0
 20 21  1  0  0  0  0
 21 22  1  0  0  0  0
 22 23  2  0  0  0  0
 23 24  1  0  0  0  0
 24 25  2  0  0  0  0
 25 26  1  0  0  0  0
 26 27  2  0  0  0  0
 27 22  1  0  0  0  0
 27 28  1  0  0  0  0
 28 29  1  0  0  0  0
 28 30  1  0  0  0  0
 28 31  1  0  0  0  0
 25 32  1  0  0  0  0
 32 33  1  0  0  0  0
 32 34  1  0  0  0  0
 32 35  1  0  0  0  0
M  END
>  <cdx:fragmentId>
5

$$$$
