93424.cdx
  Mrv1902 05222410252D          

 26 25  0  0  0  0            999 V2000
   10.0234  -10.4824    0.0000 C   0  0  0  0  0  0  0  0  0  0  0  0
    9.3089  -10.0699    0.0000 C   0  0  0  0  0  0  0  0  0  0  0  0
    8.5945  -10.4824    0.0000 C   0  0  0  0  0  0  0  0  0  0  0  0
    7.8800  -10.0699    0.0000 C   0  0  0  0  0  0  0  0  0  0  0  0
    7.1655  -10.4824    0.0000 C   0  0  0  0  0  0  0  0  0  0  0  0
    1.4548   -6.3589    0.0000 N   0  0  0  0  0  0  0  0  0  0  0  0
    2.8837   -6.3589    0.0000 N   0  0  0  0  0  0  0  0  0  0  0  0
    2.1693   -6.7714    0.0000 C   0  0  0  0  0  0  0  0  0  0  0  0
    2.1693   -7.5964    0.0000 N   0  0  0  0  0  0  0  0  0  0  0  0
    2.8837   -8.0089    0.0000 C   0  0  0  0  0  0  0  0  0  0  0  0
    2.8837   -8.8339    0.0000 C   0  0  0  0  0  0  0  0  0  0  0  0
    3.5982   -9.2464    0.0000 C   0  0  0  0  0  0  0  0  0  0  0  0
    2.8837  -11.3089    0.0000 O   0  0  0  0  0  0  0  0  0  0  0  0
    2.1693  -10.0714    0.0000 O   0  0  0  0  0  0  0  0  0  0  0  0
    2.8837  -10.4839    0.0000 C   0  0  0  0  0  0  0  0  0  0  0  0
    3.5982  -10.0714    0.0000 C   0  0  1  0  0  0  0  0  0  0  0  0
    5.0272   -9.2464    0.0000 O   0  0  0  0  0  0  0  0  0  0  0  0
    4.3127  -10.4839    0.0000 N   0  0  0  0  0  0  0  0  0  0  0  0
    5.0272  -10.0714    0.0000 C   0  0  0  0  0  0  0  0  0  0  0  0
    5.7416  -10.4839    0.0000 C   0  0  0  0  0  0  0  0  0  0  0  0
    6.4511  -10.0699    0.0000 C   0  0  0  0  0  0  0  0  0  0  0  0
   10.7379  -10.0699    0.0000 C   0  0  0  0  0  0  0  0  0  0  0  0
   11.4524  -10.4824    0.0000 C   0  0  0  0  0  0  0  0  0  0  0  0
   12.1668  -10.0699    0.0000 C   0  0  0  0  0  0  0  0  0  0  0  0
   12.8813  -10.4824    0.0000 O   0  0  0  0  0  0  0  0  0  0  0  0
   12.1668   -9.2449    0.0000 O   0  0  0  0  0  0  0  0  0  0  0  0
  1  2  1  0  0  0  0
  2  3  1  0  0  0  0
  3  4  1  0  0  0  0
  4  5  1  0  0  0  0
  8  6  1  0  0  0  0
  8  7  1  0  0  0  0
  9  8  2  0  0  0  0
 10  9  1  0  0  0  0
 11 10  1  0  0  0  0
 12 11  1  0  0  0  0
 16 12  1  0  0  0  0
 15 13  2  0  0  0  0
 15 14  1  0  0  0  0
 16 15  1  0  0  0  0
 16 18  1  6  0  0  0
 19 17  2  0  0  0  0
 19 18  1  0  0  0  0
 20 19  1  0  0  0  0
  5 21  1  0  0  0  0
 20 21  1  0  0  0  0
  1 22  1  0  0  0  0
 22 23  1  0  0  0  0
 23 24  1  0  0  0  0
 24 25  1  0  0  0  0
 24 26  2  0  0  0  0
M  END
>  <cdx:fragmentId>
90

$$$$
