93425.cdx
  Mrv1902 05222410252D          

 63 70  0  0  0  0            999 V2000
    6.7356   -6.9300    0.0000 C   0  0  0  0  0  0  0  0  0  0  0  0
    6.7356   -7.7550    0.0000 C   0  0  1  0  0  0  0  0  0  0  0  0
    7.4500   -8.1675    0.0000 C   0  0  1  0  0  0  0  0  0  0  0  0
    8.1645   -7.7550    0.0000 C   0  0  1  0  0  0  0  0  0  0  0  0
    8.1645   -6.9300    0.0000 C   0  0  2  0  0  0  0  0  0  0  0  0
    7.4500   -6.5175    0.0000 C   0  0  0  0  0  0  0  0  0  0  0  0
    8.8790   -8.1675    0.0000 C   0  0  0  0  0  0  0  0  0  0  0  0
    9.5934   -7.7550    0.0000 C   0  0  0  0  0  0  0  0  0  0  0  0
    9.5934   -6.9300    0.0000 C   0  0  2  0  0  0  0  0  0  0  0  0
    8.8790   -6.5175    0.0000 C   0  0  2  0  0  0  0  0  0  0  0  0
   10.3079   -6.5175    0.0000 C   0  0  1  0  0  0  0  0  0  0  0  0
   10.3079   -5.6925    0.0000 C   0  0  0  0  0  0  0  0  0  0  0  0
    9.5934   -5.2800    0.0000 C   0  0  0  0  0  0  0  0  0  0  0  0
    8.8790   -5.6925    0.0000 C   0  0  0  0  0  0  0  0  0  0  0  0
   11.0224   -6.9300    0.0000 C   0  0  0  0  0  0  0  0  0  0  0  0
   11.7369   -6.5175    0.0000 C   0  0  0  0  0  0  0  0  0  0  0  0
   11.7369   -5.6925    0.0000 C   0  0  2  0  0  0  0  0  0  0  0  0
   11.0224   -5.2800    0.0000 C   0  0  1  0  0  0  0  0  0  0  0  0
   12.4513   -5.2800    0.0000 C   0  0  1  0  0  0  0  0  0  0  0  0
   12.4513   -4.4550    0.0000 C   0  0  0  0  0  0  0  0  0  0  0  0
   11.7369   -4.0425    0.0000 C   0  0  1  0  0  0  0  0  0  0  0  0
   11.0224   -4.4550    0.0000 C   0  0  0  0  0  0  0  0  0  0  0  0
    6.0211   -8.1675    0.0000 O   0  0  0  0  0  0  0  0  0  0  0  0
    7.8625   -8.8820    0.0000 C   0  0  0  0  0  0  0  0  0  0  0  0
    8.1645   -6.1050    0.0000 C   0  0  0  0  0  0  0  0  0  0  0  0
    9.5934   -6.1050    0.0000 C   0  0  0  0  0  0  0  0  0  0  0  0
   10.3079   -4.8675    0.0000 H   0  0  0  0  0  0  0  0  0  0  0  0
   12.4513   -6.1050    0.0000 C   0  0  0  0  0  0  0  0  0  0  0  0
   12.3475   -3.5750    0.0000 C   0  0  0  0  0  0  0  0  0  0  0  0
   13.2825   -4.5925    0.0000 O   0  0  0  0  0  0  0  0  0  0  0  0
    7.0375   -8.8820    0.0000 C   0  0  0  0  0  0  0  0  0  0  0  0
    8.1645   -8.5800    0.0000 H   0  0  0  0  0  0  0  0  0  0  0  0
    8.8790   -7.3425    0.0000 H   0  0  0  0  0  0  0  0  0  0  0  0
   10.3079   -7.3425    0.0000 C   0  0  0  0  0  0  0  0  0  0  0  0
   11.3244   -3.3280    0.0000 C   0  0  0  0  0  0  0  0  0  0  0  0
   12.5610   -2.7781    0.0000 O   0  0  0  0  0  0  0  0  0  0  0  0
    8.1645   -5.2800    0.0000 O   0  0  0  0  0  0  0  0  0  0  0  0
   11.7369   -2.6136    0.0000 O   0  0  0  0  0  0  0  0  0  0  0  0
   10.4994   -3.3280    0.0000 O   0  0  0  0  0  0  0  0  0  0  0  0
    4.5823   -6.5054    0.0000 C   0  0  2  0  0  0  0  0  0  0  0  0
    3.8683   -6.9187    0.0000 C   0  0  2  0  0  0  0  0  0  0  0  0
    3.8693   -7.7437    0.0000 C   0  0  1  0  0  0  0  0  0  0  0  0
    4.5842   -8.1554    0.0000 C   0  0  2  0  0  0  0  0  0  0  0  0
    5.2982   -7.7421    0.0000 C   0  0  1  0  0  0  0  0  0  0  0  0
    5.2973   -6.9171    0.0000 O   0  0  0  0  0  0  0  0  0  0  0  0
    4.5814   -5.6804    0.0000 C   0  0  0  0  0  0  0  0  0  0  0  0
    3.1553   -8.1570    0.0000 O   0  0  0  0  0  0  0  0  0  0  0  0
    3.1534   -6.5070    0.0000 O   0  0  0  0  0  0  0  0  0  0  0  0
    4.5851   -8.9804    0.0000 O   0  0  0  0  0  0  0  0  0  0  0  0
    3.8664   -5.2687    0.0000 O   0  0  0  0  0  0  0  0  0  0  0  0
    5.2954   -5.2671    0.0000 O   0  0  0  0  0  0  0  0  0  0  0  0
    2.4462   -9.4033    0.0000 C   0  0  2  0  0  0  0  0  0  0  0  0
    2.4521  -10.2283    0.0000 C   0  0  2  0  0  0  0  0  0  0  0  0
    3.1695  -10.6357    0.0000 C   0  0  1  0  0  0  0  0  0  0  0  0
    3.8810  -10.2181    0.0000 C   0  0  2  0  0  0  0  0  0  0  0  0
    3.8751   -9.3931    0.0000 C   0  0  1  0  0  0  0  0  0  0  0  0
    3.1577   -8.9857    0.0000 O   0  0  0  0  0  0  0  0  0  0  0  0
    1.7288   -8.9960    0.0000 C   0  0  0  0  0  0  0  0  0  0  0  0
    3.1754  -11.4607    0.0000 O   0  0  0  0  0  0  0  0  0  0  0  0
    1.7406  -10.6459    0.0000 O   0  0  0  0  0  0  0  0  0  0  0  0
    4.5984  -10.6255    0.0000 O   0  0  0  0  0  0  0  0  0  0  0  0
    1.0173   -9.4136    0.0000 O   0  0  0  0  0  0  0  0  0  0  0  0
    1.7229   -8.1710    0.0000 O   0  0  0  0  0  0  0  0  0  0  0  0
  1  2  1  0  0  0  0
  2  3  1  0  0  0  0
  3  4  1  0  0  0  0
  4  5  1  0  0  0  0
  5  6  1  0  0  0  0
  6  1  1  0  0  0  0
  4  7  1  0  0  0  0
  7  8  1  0  0  0  0
  8  9  1  0  0  0  0
  9 10  1  0  0  0  0
 10  5  1  0  0  0  0
  9 11  1  0  0  0  0
 11 12  1  0  0  0  0
 12 13  2  0  0  0  0
 13 14  1  0  0  0  0
 14 10  1  0  0  0  0
 11 15  1  0  0  0  0
 15 16  1  0  0  0  0
 16 17  1  0  0  0  0
 17 18  1  0  0  0  0
 18 12  1  0  0  0  0
 17 19  1  0  0  0  0
 19 20  1  0  0  0  0
 20 21  1  0  0  0  0
 21 22  1  0  0  0  0
 22 18  1  0  0  0  0
  2 23  1  1  0  0  0
  3 24  1  1  0  0  0
  5 25  1  1  0  0  0
  9 26  1  1  0  0  0
 18 27  1  1  0  0  0
 17 28  1  1  0  0  0
 21 29  1  1  0  0  0
 19 30  1  1  0  0  0
  3 31  1  6  0  0  0
  4 32  1  6  0  0  0
 10 33  1  6  0  0  0
 11 34  1  6  0  0  0
 21 35  1  6  0  0  0
 29 30  1  0  0  0  0
 29 36  2  0  0  0  0
 14 37  2  0  0  0  0
 35 38  1  0  0  0  0
 35 39  2  0  0  0  0
 40 41  1  0  0  0  0
 41 42  1  0  0  0  0
 42 43  1  0  0  0  0
 43 44  1  0  0  0  0
 44 45  1  0  0  0  0
 45 40  1  0  0  0  0
 40 46  1  1  0  0  0
 42 47  1  1  0  0  0
 41 48  1  6  0  0  0
 43 49  1  6  0  0  0
 46 50  1  0  0  0  0
 46 51  2  0  0  0  0
 52 53  1  0  0  0  0
 53 54  1  0  0  0  0
 54 55  1  0  0  0  0
 55 56  1  0  0  0  0
 56 57  1  0  0  0  0
 57 52  1  0  0  0  0
 52 58  1  1  0  0  0
 54 59  1  1  0  0  0
 53 60  1  6  0  0  0
 55 61  1  6  0  0  0
 58 62  1  0  0  0  0
 58 63  2  0  0  0  0
 56 49  1  1  0  0  0
 44 23  1  1  0  0  0
M  END
>  <cdx:fragmentId>
5

$$$$
