93438.cdx
  Mrv1902 05222410222D          

 32 35  0  0  0  0            999 V2000
    8.6231   -8.7870    0.0000 C   0  0  2  0  0  0  0  0  0  0  0  0
    9.3438   -9.1885    0.0000 C   0  0  0  0  0  0  0  0  0  0  0  0
   10.0519   -8.7652    0.0000 C   0  0  2  0  0  0  0  0  0  0  0  0
   10.7726   -9.1667    0.0000 C   0  0  0  0  0  0  0  0  0  0  0  0
   11.4807   -8.7433    0.0000 C   0  0  0  0  0  0  0  0  0  0  0  0
   11.4681   -7.9184    0.0000 C   0  0  1  0  0  0  0  0  0  0  0  0
   10.7474   -7.5169    0.0000 C   0  0  1  0  0  0  0  0  0  0  0  0
   10.0393   -7.9402    0.0000 C   0  0  2  0  0  0  0  0  0  0  0  0
    9.3186   -7.5387    0.0000 C   0  0  0  0  0  0  0  0  0  0  0  0
    8.6105   -7.9621    0.0000 C   0  0  2  0  0  0  0  0  0  0  0  0
   10.5600   -8.2500    0.0000 C   0  0  0  0  0  0  0  0  0  0  0  0
   10.0645   -9.5901    0.0000 O   0  0  0  0  0  0  0  0  0  0  0  0
    7.8961   -7.5496    0.0000 O   0  0  0  0  0  0  0  0  0  0  0  0
   10.0393   -7.1152    0.0000 C   0  0  0  0  0  0  0  0  0  0  0  0
   12.1762   -7.4951    0.0000 C   0  0  0  0  0  0  0  0  0  0  0  0
    9.7672   -9.8966    0.0000 C   0  0  0  0  0  0  0  0  0  0  0  0
    8.9423   -9.9092    0.0000 C   0  0  0  0  0  0  0  0  0  0  0  0
   10.7348   -6.6920    0.0000 H   0  0  0  0  0  0  0  0  0  0  0  0
    7.9150   -9.2103    0.0000 H   0  0  0  0  0  0  0  0  0  0  0  0
    7.1816   -7.9621    0.0000 C   0  0  0  0  0  0  0  0  0  0  0  0
    6.4671   -7.5496    0.0000 C   0  0  0  0  0  0  0  0  0  0  0  0
    7.1816   -8.7871    0.0000 O   0  0  0  0  0  0  0  0  0  0  0  0
    5.7526   -7.9621    0.0000 C   0  0  0  0  0  0  0  0  0  0  0  0
    5.0382   -7.5496    0.0000 C   0  0  0  0  0  0  0  0  0  0  0  0
    5.0382   -6.7246    0.0000 C   0  0  0  0  0  0  0  0  0  0  0  0
    4.3237   -6.3121    0.0000 C   0  0  0  0  0  0  0  0  0  0  0  0
    3.6092   -6.7246    0.0000 C   0  0  0  0  0  0  0  0  0  0  0  0
    3.6092   -7.5496    0.0000 C   0  0  0  0  0  0  0  0  0  0  0  0
    4.3237   -7.9621    0.0000 C   0  0  0  0  0  0  0  0  0  0  0  0
    2.8948   -6.3121    0.0000 O   0  0  0  0  0  0  0  0  0  0  0  0
    2.8948   -7.9621    0.0000 O   0  0  0  0  0  0  0  0  0  0  0  0
    2.1803   -7.5496    0.0000 C   0  0  0  0  0  0  0  0  0  0  0  0
  1  2  1  0  0  0  0
  2  3  1  0  0  0  0
  3  4  1  0  0  0  0
  4  5  1  0  0  0  0
  5  6  1  0  0  0  0
  6  7  1  0  0  0  0
  7  8  1  0  0  0  0
  8  9  1  0  0  0  0
  9 10  1  0  0  0  0
  1 10  1  0  0  0  0
  1 11  1  0  0  0  0
  7 11  1  0  0  0  0
  3  8  1  0  0  0  0
  3 12  1  6  0  0  0
 10 13  1  1  0  0  0
  8 14  1  6  0  0  0
  6 15  1  1  0  0  0
  2 16  1  0  0  0  0
  2 17  1  0  0  0  0
  7 18  1  1  0  0  0
  1 19  1  1  0  0  0
 13 20  1  0  0  0  0
 20 21  1  0  0  0  0
 20 22  2  0  0  0  0
 21 23  2  0  0  0  0
 23 24  1  0  0  0  0
 24 25  2  0  0  0  0
 25 26  1  0  0  0  0
 26 27  2  0  0  0  0
 27 28  1  0  0  0  0
 28 29  2  0  0  0  0
 29 24  1  0  0  0  0
 27 30  1  0  0  0  0
 28 31  1  0  0  0  0
 31 32  1  0  0  0  0
M  END
>  <cdx:groupId>
61

>  <cdx:fragmentId>
5

$$$$
