93435.cdx
  Mrv1902 05222410242D          

 52 58  0  0  0  0            999 V2000
    6.7906   -7.8650    0.0000 C   0  0  0  0  0  0  0  0  0  0  0  0
    6.7906   -8.6900    0.0000 C   0  0  1  0  0  0  0  0  0  0  0  0
    7.5050   -9.1025    0.0000 C   0  0  0  0  0  0  0  0  0  0  0  0
    8.2195   -8.6900    0.0000 C   0  0  1  0  0  0  0  0  0  0  0  0
    8.2195   -7.8650    0.0000 C   0  0  2  0  0  0  0  0  0  0  0  0
    7.5050   -7.4525    0.0000 C   0  0  0  0  0  0  0  0  0  0  0  0
    8.9340   -9.1025    0.0000 C   0  0  0  0  0  0  0  0  0  0  0  0
    9.6484   -8.6900    0.0000 C   0  0  0  0  0  0  0  0  0  0  0  0
    9.6484   -7.8650    0.0000 C   0  0  2  0  0  0  0  0  0  0  0  0
    8.9340   -7.4525    0.0000 C   0  0  2  0  0  0  0  0  0  0  0  0
   10.3629   -7.4525    0.0000 C   0  0  2  0  0  0  0  0  0  0  0  0
   10.3629   -6.6275    0.0000 C   0  0  2  0  0  0  0  0  0  0  0  0
    9.6484   -6.2150    0.0000 C   0  0  0  0  0  0  0  0  0  0  0  0
    8.9340   -6.6275    0.0000 C   0  0  0  0  0  0  0  0  0  0  0  0
   11.1475   -7.7074    0.0000 C   0  0  0  0  0  0  0  0  0  0  0  0
   11.6325   -7.0400    0.0000 C   0  0  0  0  0  0  0  0  0  0  0  0
   11.1475   -6.3726    0.0000 C   0  0  2  0  0  0  0  0  0  0  0  0
    6.0761   -9.1025    0.0000 O   0  0  0  0  0  0  0  0  0  0  0  0
    8.2195   -7.0400    0.0000 C   0  0  0  0  0  0  0  0  0  0  0  0
   10.3629   -5.8025    0.0000 C   0  0  0  0  0  0  0  0  0  0  0  0
   11.4025   -5.5879    0.0000 C   0  0  0  0  0  0  0  0  0  0  0  0
   10.3629   -8.2775    0.0000 O   0  0  0  0  0  0  0  0  0  0  0  0
    9.6484   -7.0400    0.0000 H   0  0  0  0  0  0  0  0  0  0  0  0
    8.2195   -9.5150    0.0000 H   0  0  0  0  0  0  0  0  0  0  0  0
    8.9340   -8.2775    0.0000 H   0  0  0  0  0  0  0  0  0  0  0  0
   12.1871   -5.3330    0.0000 C   0  0  0  0  0  0  0  0  0  0  0  0
   12.1871   -4.5080    0.0000 C   0  0  0  0  0  0  0  0  0  0  0  0
   11.4025   -4.2531    0.0000 O   0  0  0  0  0  0  0  0  0  0  0  0
   10.9175   -4.9205    0.0000 C   0  0  0  0  0  0  0  0  0  0  0  0
   12.8545   -4.0231    0.0000 O   0  0  0  0  0  0  0  0  0  0  0  0
    5.3616   -8.6900    0.0000 C   0  0  2  0  0  0  0  0  0  0  0  0
    5.3616   -7.8650    0.0000 O   0  0  0  0  0  0  0  0  0  0  0  0
    4.6471   -7.4525    0.0000 C   0  0  1  0  0  0  0  0  0  0  0  0
    3.9327   -7.8650    0.0000 C   0  0  2  0  0  0  0  0  0  0  0  0
    3.9327   -8.6900    0.0000 C   0  0  1  0  0  0  0  0  0  0  0  0
    4.6471   -9.1025    0.0000 C   0  0  1  0  0  0  0  0  0  0  0  0
    3.2182   -7.4525    0.0000 O   0  0  0  0  0  0  0  0  0  0  0  0
    1.0748  -10.3400    0.0000 O   0  0  0  0  0  0  0  0  0  0  0  0
    1.7893  -11.5775    0.0000 O   0  0  0  0  0  0  0  0  0  0  0  0
    4.6471  -11.5775    0.0000 O   0  0  0  0  0  0  0  0  0  0  0  0
    1.7893   -9.9275    0.0000 C   0  0  0  0  0  0  0  0  0  0  0  0
    3.2182  -12.4025    0.0000 O   0  0  0  0  0  0  0  0  0  0  0  0
    3.2182   -9.9275    0.0000 O   0  0  0  0  0  0  0  0  0  0  0  0
    2.5037  -10.3400    0.0000 C   0  0  1  0  0  0  0  0  0  0  0  0
    4.6471   -6.6275    0.0000 C   0  0  0  0  0  0  0  0  0  0  0  0
    3.2182   -9.1025    0.0000 O   0  0  0  0  0  0  0  0  0  0  0  0
    3.9327   -6.2150    0.0000 O   0  0  0  0  0  0  0  0  0  0  0  0
    2.5037  -11.1650    0.0000 C   0  0  2  0  0  0  0  0  0  0  0  0
    3.2182  -11.5775    0.0000 C   0  0  1  0  0  0  0  0  0  0  0  0
    3.9327  -11.1650    0.0000 C   0  0  2  0  0  0  0  0  0  0  0  0
    3.9327  -10.3400    0.0000 C   0  0  2  0  0  0  0  0  0  0  0  0
    4.6471   -9.9275    0.0000 O   0  0  0  0  0  0  0  0  0  0  0  0
  1  2  1  0  0  0  0
  2  3  1  0  0  0  0
  3  4  1  0  0  0  0
  4  5  1  0  0  0  0
  5  6  1  0  0  0  0
  6  1  1  0  0  0  0
  4  7  1  0  0  0  0
  7  8  1  0  0  0  0
  8  9  1  0  0  0  0
  9 10  1  0  0  0  0
 10  5  1  0  0  0  0
  9 11  1  0  0  0  0
 11 12  1  0  0  0  0
 12 13  1  0  0  0  0
 13 14  1  0  0  0  0
 14 10  1  0  0  0  0
 11 15  1  0  0  0  0
 15 16  1  0  0  0  0
 16 17  1  0  0  0  0
 17 12  1  0  0  0  0
  2 18  1  1  0  0  0
  5 19  1  1  0  0  0
 12 20  1  1  0  0  0
 17 21  1  1  0  0  0
 11 22  1  1  0  0  0
  9 23  1  1  0  0  0
  4 24  1  6  0  0  0
 10 25  1  6  0  0  0
 21 26  2  0  0  0  0
 26 27  1  0  0  0  0
 27 28  1  0  0  0  0
 28 29  1  0  0  0  0
 29 21  1  0  0  0  0
 27 30  2  0  0  0  0
 31 18  1  1  0  0  0
 31 32  1  0  0  0  0
 32 33  1  0  0  0  0
 33 34  1  0  0  0  0
 34 35  1  0  0  0  0
 35 36  1  0  0  0  0
 36 31  1  0  0  0  0
 41 38  1  0  0  0  0
 36 52  1  6  0  0  0
 34 37  1  6  0  0  0
 48 39  1  6  0  0  0
 50 40  1  6  0  0  0
 44 41  1  1  0  0  0
 49 42  1  1  0  0  0
 43 51  1  0  0  0  0
 44 43  1  0  0  0  0
 48 44  1  0  0  0  0
 49 48  1  0  0  0  0
 50 49  1  0  0  0  0
 51 50  1  0  0  0  0
 33 45  1  1  0  0  0
 35 46  1  1  0  0  0
 45 47  1  0  0  0  0
 51 52  1  1  0  0  0
M  END
>  <cdx:fragmentId>
5

$$$$
