93437.cdx
  Mrv1902 05222410232D          

 38 40  0  0  0  0            999 V2000
   14.8381   -9.1995    0.0000 C   0  0  2  0  0  0  0  0  0  0  0  0
   15.5588   -9.6010    0.0000 C   0  0  0  0  0  0  0  0  0  0  0  0
   16.2669   -9.1777    0.0000 C   0  0  2  0  0  0  0  0  0  0  0  0
   16.9876   -9.5792    0.0000 C   0  0  0  0  0  0  0  0  0  0  0  0
   17.6957   -9.1558    0.0000 C   0  0  0  0  0  0  0  0  0  0  0  0
   17.6831   -8.3309    0.0000 C   0  0  1  0  0  0  0  0  0  0  0  0
   16.9624   -7.9294    0.0000 C   0  0  1  0  0  0  0  0  0  0  0  0
   16.2543   -8.3527    0.0000 C   0  0  2  0  0  0  0  0  0  0  0  0
   15.5336   -7.9512    0.0000 C   0  0  0  0  0  0  0  0  0  0  0  0
   14.8255   -8.3746    0.0000 C   0  0  2  0  0  0  0  0  0  0  0  0
   16.7750   -8.6625    0.0000 C   0  0  0  0  0  0  0  0  0  0  0  0
   16.2795  -10.0026    0.0000 O   0  0  0  0  0  0  0  0  0  0  0  0
   14.1111   -7.9621    0.0000 O   0  0  0  0  0  0  0  0  0  0  0  0
   16.2543   -7.5277    0.0000 C   0  0  0  0  0  0  0  0  0  0  0  0
   18.3912   -7.9076    0.0000 C   0  0  0  0  0  0  0  0  0  0  0  0
   15.9822  -10.3091    0.0000 C   0  0  0  0  0  0  0  0  0  0  0  0
   15.1573  -10.3217    0.0000 C   0  0  0  0  0  0  0  0  0  0  0  0
   16.9498   -7.1045    0.0000 H   0  0  0  0  0  0  0  0  0  0  0  0
   14.1300   -9.6228    0.0000 H   0  0  0  0  0  0  0  0  0  0  0  0
   13.3966   -8.3746    0.0000 C   0  0  0  0  0  0  0  0  0  0  0  0
   12.6821   -7.9621    0.0000 C   0  0  0  0  0  0  0  0  0  0  0  0
   13.3966   -9.1996    0.0000 O   0  0  0  0  0  0  0  0  0  0  0  0
   11.9676   -8.3746    0.0000 C   0  0  0  0  0  0  0  0  0  0  0  0
   11.2532   -7.9621    0.0000 C   0  0  0  0  0  0  0  0  0  0  0  0
   10.5387   -8.3746    0.0000 C   0  0  0  0  0  0  0  0  0  0  0  0
    9.8242   -7.9621    0.0000 C   0  0  0  0  0  0  0  0  0  0  0  0
    9.1098   -8.3746    0.0000 C   0  0  0  0  0  0  0  0  0  0  0  0
    8.3953   -7.9621    0.0000 C   0  0  0  0  0  0  0  0  0  0  0  0
    7.6808   -8.3746    0.0000 C   0  0  0  0  0  0  0  0  0  0  0  0
    6.9663   -7.9621    0.0000 C   0  0  0  0  0  0  0  0  0  0  0  0
    6.2519   -8.3746    0.0000 C   0  0  0  0  0  0  0  0  0  0  0  0
    5.5374   -7.9621    0.0000 C   0  0  0  0  0  0  0  0  0  0  0  0
    4.8229   -8.3746    0.0000 C   0  0  0  0  0  0  0  0  0  0  0  0
    4.1085   -7.9621    0.0000 C   0  0  0  0  0  0  0  0  0  0  0  0
    3.3940   -8.3746    0.0000 C   0  0  0  0  0  0  0  0  0  0  0  0
    2.6795   -7.9621    0.0000 C   0  0  0  0  0  0  0  0  0  0  0  0
    1.9650   -8.3746    0.0000 C   0  0  0  0  0  0  0  0  0  0  0  0
    1.2506   -7.9621    0.0000 C   0  0  0  0  0  0  0  0  0  0  0  0
  1  2  1  0  0  0  0
  2  3  1  0  0  0  0
  3  4  1  0  0  0  0
  4  5  1  0  0  0  0
  5  6  1  0  0  0  0
  6  7  1  0  0  0  0
  7  8  1  0  0  0  0
  8  9  1  0  0  0  0
  9 10  1  0  0  0  0
  1 10  1  0  0  0  0
  1 11  1  0  0  0  0
  7 11  1  0  0  0  0
  3  8  1  0  0  0  0
  3 12  1  6  0  0  0
 10 13  1  1  0  0  0
  8 14  1  6  0  0  0
  6 15  1  1  0  0  0
  2 16  1  0  0  0  0
  2 17  1  0  0  0  0
  7 18  1  1  0  0  0
  1 19  1  1  0  0  0
 13 20  1  0  0  0  0
 20 21  1  0  0  0  0
 20 22  2  0  0  0  0
 21 23  1  0  0  0  0
 23 24  1  0  0  0  0
 24 25  1  0  0  0  0
 25 26  1  0  0  0  0
 26 27  1  0  0  0  0
 27 28  1  0  0  0  0
 28 29  1  0  0  0  0
 29 30  2  0  0  0  0
 30 31  1  0  0  0  0
 31 32  1  0  0  0  0
 32 33  1  0  0  0  0
 33 34  1  0  0  0  0
 34 35  1  0  0  0  0
 35 36  1  0  0  0  0
 36 37  1  0  0  0  0
 37 38  1  0  0  0  0
M  END
>  <cdx:groupId>
61

>  <cdx:fragmentId>
5

$$$$
