93439.cdx
  Mrv1902 05222410222D          

  7  6  0  0  0  0            999 V2000
    5.8698   -5.7200    0.0000 O   0  0  0  0  0  0  0  0  0  0  0  0
    8.7277   -6.5450    0.0000 C   0  0  0  0  0  0  0  0  0  0  0  0
    8.0132   -6.9575    0.0000 C   0  0  0  0  0  0  0  0  0  0  0  0
    7.2988   -6.5450    0.0000 C   0  0  0  0  0  0  0  0  0  0  0  0
    6.5843   -6.9575    0.0000 C   0  0  0  0  0  0  0  0  0  0  0  0
    5.8698   -6.5450    0.0000 C   0  0  0  0  0  0  0  0  0  0  0  0
    5.1554   -6.9575    0.0000 O   0  0  0  0  0  0  0  0  0  0  0  0
  6  1  2  0  0  0  0
  2  3  1  0  0  0  0
  3  4  1  0  0  0  0
  4  5  1  0  0  0  0
  5  6  1  0  0  0  0
  6  7  1  0  0  0  0
M  END
>  <cdx:fragmentId>
3

$$$$
