93433.cdx
  Mrv1902 05222410252D          

 31 35  0  0  0  0            999 V2000
    9.6370   -8.6512    0.0000 C   0  0  0  0  0  0  0  0  0  0  0  0
    8.2549   -4.5103    0.0000 H   0  0  0  0  0  0  0  0  0  0  0  0
    6.8095   -6.9690    0.0000 H   0  0  0  0  0  0  0  0  0  0  0  0
    8.2269   -6.9851    0.0000 H   0  0  0  0  0  0  0  0  0  0  0  0
    8.9740   -4.1059    0.0000 C   0  0  0  0  0  0  0  0  0  0  0  0
    9.6464   -7.8263    0.0000 O   0  0  0  0  0  0  0  0  0  0  0  0
    8.2175   -7.8101    0.0000 O   0  0  0  0  0  0  0  0  0  0  0  0
    8.9366   -7.4057    0.0000 C   0  0  0  0  0  0  0  0  0  0  0  0
    9.6744   -5.3515    0.0000 O   0  0  0  0  0  0  0  0  0  0  0  0
    9.6651   -6.1764    0.0000 C   0  0  0  0  0  0  0  0  0  0  0  0
    8.9460   -6.5808    0.0000 C   0  0  0  0  0  0  0  0  0  0  0  0
    8.9647   -4.9309    0.0000 C   0  0  1  0  0  0  0  0  0  0  0  0
    6.8074   -6.1440    0.0000 C   0  0  2  0  0  0  0  0  0  0  0  0
    7.5171   -6.5646    0.0000 C   0  0  0  0  0  0  0  0  0  0  0  0
    8.2362   -6.1602    0.0000 C   0  0  1  0  0  0  0  0  0  0  0  0
    8.2456   -5.3353    0.0000 C   0  0  2  0  0  0  0  0  0  0  0  0
    7.5358   -4.9147    0.0000 C   0  0  0  0  0  0  0  0  0  0  0  0
    6.8167   -5.3191    0.0000 N   0  3  0  0  0  0  0  0  0  0  0  0
    6.0350   -5.0552    0.0000 C   0  0  0  0  0  0  0  0  0  0  0  0
    5.5426   -5.7171    0.0000 C   0  0  0  0  0  0  0  0  0  0  0  0
    6.0199   -6.3900    0.0000 C   0  0  2  0  0  0  0  0  0  0  0  0
    5.2325   -6.6361    0.0000 C   0  0  0  0  0  0  0  0  0  0  0  0
    5.2231   -7.4610    0.0000 N   0  0  0  0  0  0  0  0  0  0  0  0
    6.0048   -7.7248    0.0000 C   0  0  0  0  0  0  0  0  0  0  0  0
    6.4972   -7.0629    0.0000 C   0  0  0  0  0  0  0  0  0  0  0  0
    6.3318   -8.4823    0.0000 C   0  0  0  0  0  0  0  0  0  0  0  0
    7.1512   -8.5778    0.0000 C   0  0  0  0  0  0  0  0  0  0  0  0
    7.6437   -7.9159    0.0000 C   0  0  0  0  0  0  0  0  0  0  0  0
    7.3167   -7.1585    0.0000 C   0  0  0  0  0  0  0  0  0  0  0  0
    4.5706   -6.1436    0.0000 O   0  0  0  0  0  0  0  0  0  0  0  0
    6.8146   -4.4941    0.0000 O   0  5  0  0  0  0  0  0  0  0  0  0
  6  1  1  0  0  0  0
 16  2  1  1  0  0  0
 13  3  1  6  0  0  0
 15  4  1  6  0  0  0
 12  5  1  1  0  0  0
 11  8  1  0  0  0  0
  8  6  1  0  0  0  0
  8  7  2  0  0  0  0
 11 15  1  0  0  0  0
 12 16  1  0  0  0  0
 12  9  1  0  0  0  0
 10  9  1  0  0  0  0
 11 10  2  0  0  0  0
 18 13  1  0  0  0  0
 21 13  1  0  0  0  0
 14 13  1  0  0  0  0
 15 14  1  0  0  0  0
 16 15  1  0  0  0  0
 17 16  1  0  0  0  0
 18 17  1  0  0  0  0
 19 18  1  0  0  0  0
 20 19  1  0  0  0  0
 21 20  1  6  0  0  0
 21 22  1  0  0  0  0
 22 23  1  0  0  0  0
 23 24  1  0  0  0  0
 24 25  2  0  0  0  0
 25 21  1  0  0  0  0
 24 26  1  0  0  0  0
 26 27  2  0  0  0  0
 27 28  1  0  0  0  0
 28 29  2  0  0  0  0
 29 25  1  0  0  0  0
 22 30  2  0  0  0  0
 18 31  1  0  0  0  0
M  CHG  2  18   1  31  -1
M  END
>  <cdx:fragmentId>
1978

$$$$
