93436.cdx
  Mrv1902 05222410232D          

 92100  0  0  0  0            999 V2000
    4.4806   -1.6637    0.0000 C   0  0  2  0  0  0  0  0  0  0  0  0
    4.4806   -2.4888    0.0000 C   0  0  2  0  0  0  0  0  0  0  0  0
    5.1950   -2.9013    0.0000 C   0  0  1  0  0  0  0  0  0  0  0  0
    5.9095   -2.4888    0.0000 C   0  0  2  0  0  0  0  0  0  0  0  0
    5.9095   -1.6637    0.0000 C   0  0  0  0  0  0  0  0  0  0  0  0
    5.1950   -1.2512    0.0000 C   0  0  0  0  0  0  0  0  0  0  0  0
    5.1950   -3.7262    0.0000 C   0  0  0  0  0  0  0  0  0  0  0  0
    5.9095   -4.1387    0.0000 C   0  0  0  0  0  0  0  0  0  0  0  0
    6.6240   -3.7262    0.0000 C   0  0  2  0  0  0  0  0  0  0  0  0
    6.6240   -2.9013    0.0000 C   0  0  2  0  0  0  0  0  0  0  0  0
    7.3384   -4.1387    0.0000 C   0  0  1  0  0  0  0  0  0  0  0  0
    8.0529   -3.7262    0.0000 C   0  0  0  0  0  0  0  0  0  0  0  0
    8.0529   -2.9013    0.0000 C   0  0  0  0  0  0  0  0  0  0  0  0
    7.3384   -2.4888    0.0000 C   0  0  0  0  0  0  0  0  0  0  0  0
    7.3384   -4.9637    0.0000 C   0  0  0  0  0  0  0  0  0  0  0  0
    8.0529   -5.3762    0.0000 C   0  0  0  0  0  0  0  0  0  0  0  0
    8.7674   -4.9637    0.0000 C   0  0  2  0  0  0  0  0  0  0  0  0
    8.7674   -4.1387    0.0000 C   0  0  1  0  0  0  0  0  0  0  0  0
    9.4819   -5.3762    0.0000 C   0  0  0  0  0  0  0  0  0  0  0  0
   10.1963   -4.9637    0.0000 C   0  0  0  0  0  0  0  0  0  0  0  0
   10.1963   -4.1387    0.0000 C   0  0  0  0  0  0  0  0  0  0  0  0
    9.4819   -3.7262    0.0000 C   0  0  0  0  0  0  0  0  0  0  0  0
   10.6088   -3.4243    0.0000 C   0  0  0  0  0  0  0  0  0  0  0  0
   10.9932   -4.3523    0.0000 C   0  0  0  0  0  0  0  0  0  0  0  0
    8.7674   -5.7887    0.0000 C   0  0  0  0  0  0  0  0  0  0  0  0
    9.4819   -6.2012    0.0000 O   0  0  0  0  0  0  0  0  0  0  0  0
    8.0529   -6.2012    0.0000 O   0  0  0  0  0  0  0  0  0  0  0  0
    9.4819   -7.0262    0.0000 C   0  0  2  0  0  0  0  0  0  0  0  0
    8.7674   -7.4387    0.0000 O   0  0  0  0  0  0  0  0  0  0  0  0
    8.7674   -8.2637    0.0000 C   0  0  1  0  0  0  0  0  0  0  0  0
    9.4819   -8.6762    0.0000 C   0  0  2  0  0  0  0  0  0  0  0  0
   10.1963   -8.2637    0.0000 C   0  0  1  0  0  0  0  0  0  0  0  0
   10.1963   -7.4387    0.0000 C   0  0  1  0  0  0  0  0  0  0  0  0
   10.9108   -8.6762    0.0000 O   0  0  0  0  0  0  0  0  0  0  0  0
   11.6253   -8.2637    0.0000 C   0  0  2  0  0  0  0  0  0  0  0  0
   11.6253   -7.4387    0.0000 O   0  0  0  0  0  0  0  0  0  0  0  0
   10.9108   -7.0262    0.0000 O   0  0  0  0  0  0  0  0  0  0  0  0
   12.3397   -8.6762    0.0000 C   0  0  1  0  0  0  0  0  0  0  0  0
   13.0542   -8.2637    0.0000 C   0  0  2  0  0  0  0  0  0  0  0  0
   13.0542   -7.4387    0.0000 C   0  0  1  0  0  0  0  0  0  0  0  0
   12.3397   -7.0262    0.0000 C   0  0  1  0  0  0  0  0  0  0  0  0
   13.7687   -7.0262    0.0000 O   0  0  0  0  0  0  0  0  0  0  0  0
   13.0542   -5.7888    0.0000 O   0  0  0  0  0  0  0  0  0  0  0  0
   12.3397   -6.2012    0.0000 C   0  0  0  0  0  0  0  0  0  0  0  0
    8.0529   -8.6762    0.0000 C   0  0  0  0  0  0  0  0  0  0  0  0
    8.0529   -9.5012    0.0000 O   0  0  0  0  0  0  0  0  0  0  0  0
    9.4819   -9.5012    0.0000 O   0  0  0  0  0  0  0  0  0  0  0  0
    6.6240   -9.5012    0.0000 O   0  0  0  0  0  0  0  0  0  0  0  0
    7.3384   -9.9137    0.0000 C   0  0  2  0  0  0  0  0  0  0  0  0
    5.9095   -9.9137    0.0000 C   0  0  1  0  0  0  0  0  0  0  0  0
    5.9095  -10.7387    0.0000 C   0  0  2  0  0  0  0  0  0  0  0  0
    6.6240  -11.1512    0.0000 C   0  0  1  0  0  0  0  0  0  0  0  0
    7.3384  -10.7387    0.0000 C   0  0  1  0  0  0  0  0  0  0  0  0
    5.1950   -8.6762    0.0000 O   0  0  0  0  0  0  0  0  0  0  0  0
    5.1950   -9.5012    0.0000 C   0  0  0  0  0  0  0  0  0  0  0  0
    6.6240  -11.9762    0.0000 O   0  0  0  0  0  0  0  0  0  0  0  0
    7.3384  -12.3887    0.0000 O   0  0  0  0  0  0  0  0  0  0  0  0
    8.0529  -11.9762    0.0000 C   0  0  1  0  0  0  0  0  0  0  0  0
    8.0529  -11.1512    0.0000 O   0  0  0  0  0  0  0  0  0  0  0  0
    7.3384  -13.2137    0.0000 C   0  0  1  0  0  0  0  0  0  0  0  0
    8.0529  -13.6262    0.0000 C   0  0  2  0  0  0  0  0  0  0  0  0
    8.7674  -13.2137    0.0000 C   0  0  1  0  0  0  0  0  0  0  0  0
    8.7674  -12.3887    0.0000 C   0  0  1  0  0  0  0  0  0  0  0  0
    6.6240  -13.6262    0.0000 C   0  0  0  0  0  0  0  0  0  0  0  0
    6.6240  -14.4512    0.0000 O   0  0  0  0  0  0  0  0  0  0  0  0
    8.0529  -14.4512    0.0000 O   0  0  0  0  0  0  0  0  0  0  0  0
    3.6556   -2.4888    0.0000 C   0  0  0  0  0  0  0  0  0  0  0  0
    3.2431   -3.2032    0.0000 O   0  0  0  0  0  0  0  0  0  0  0  0
    3.2431   -1.7743    0.0000 O   0  0  0  0  0  0  0  0  0  0  0  0
    9.4819  -13.6262    0.0000 O   0  0  0  0  0  0  0  0  0  0  0  0
   12.3397   -9.5012    0.0000 O   0  0  0  0  0  0  0  0  0  0  0  0
    9.4819   -4.5512    0.0000 H   0  0  0  0  0  0  0  0  0  0  0  0
    6.2115   -4.4407    0.0000 C   0  0  0  0  0  0  0  0  0  0  0  0
    6.6240   -2.0762    0.0000 C   0  0  0  0  0  0  0  0  0  0  0  0
    4.0681   -3.2032    0.0000 C   0  0  0  0  0  0  0  0  0  0  0  0
    3.7661   -1.2512    0.0000 O   0  0  0  0  0  0  0  0  0  0  0  0
    4.7825   -3.6157    0.0000 H   0  0  0  0  0  0  0  0  0  0  0  0
    7.3384   -3.3138    0.0000 H   0  0  0  0  0  0  0  0  0  0  0  0
    6.9259   -4.8532    0.0000 C   0  0  0  0  0  0  0  0  0  0  0  0
   13.7687   -8.6762    0.0000 O   0  0  0  0  0  0  0  0  0  0  0  0
    5.1950  -11.1512    0.0000 O   0  0  0  0  0  0  0  0  0  0  0  0
    9.4819  -11.9762    0.0000 O   0  0  0  0  0  0  0  0  0  0  0  0
    3.2420   -3.9812    0.0000 C   0  0  0  0  0  0  0  0  0  0  0  0
    2.5278   -4.3943    0.0000 C   0  0  0  0  0  0  0  0  0  0  0  0
    2.5285   -5.2193    0.0000 C   0  0  0  0  0  0  0  0  0  0  0  0
    1.8143   -5.6323    0.0000 C   0  0  0  0  0  0  0  0  0  0  0  0
    1.8150   -6.4573    0.0000 C   0  0  0  0  0  0  0  0  0  0  0  0
    1.1009   -6.8704    0.0000 O   0  0  0  0  0  0  0  0  0  0  0  0
    2.5298   -6.8693    0.0000 O   0  0  0  0  0  0  0  0  0  0  0  0
    3.2433   -5.6312    0.0000 O   0  0  0  0  0  0  0  0  0  0  0  0
    1.8137   -4.8073    0.0000 C   0  0  0  0  0  0  0  0  0  0  0  0
    3.9568   -4.3931    0.0000 O   0  0  0  0  0  0  0  0  0  0  0  0
  1  2  1  0  0  0  0
  2  3  1  0  0  0  0
  3  4  1  0  0  0  0
  4  5  1  0  0  0  0
  5  6  1  0  0  0  0
  6  1  1  0  0  0  0
  3  7  1  0  0  0  0
  7  8  1  0  0  0  0
  8  9  1  0  0  0  0
  9 10  1  0  0  0  0
 10  4  1  0  0  0  0
  9 11  1  0  0  0  0
 11 12  1  0  0  0  0
 12 13  2  0  0  0  0
 13 14  1  0  0  0  0
 14 10  1  0  0  0  0
 11 15  1  0  0  0  0
 15 16  1  0  0  0  0
 16 17  1  0  0  0  0
 17 18  1  0  0  0  0
 18 12  1  0  0  0  0
 17 19  1  0  0  0  0
 19 20  1  0  0  0  0
 20 21  1  0  0  0  0
 21 22  1  0  0  0  0
 22 18  1  0  0  0  0
 21 23  1  0  0  0  0
 21 24  1  0  0  0  0
 17 25  1  1  0  0  0
 25 26  1  0  0  0  0
 25 27  2  0  0  0  0
 28 26  1  1  0  0  0
 28 29  1  0  0  0  0
 29 30  1  0  0  0  0
 30 31  1  0  0  0  0
 31 32  1  0  0  0  0
 32 33  1  0  0  0  0
 33 28  1  0  0  0  0
 32 34  1  1  0  0  0
 35 34  1  6  0  0  0
 35 36  1  0  0  0  0
 33 37  1  6  0  0  0
 35 38  1  0  0  0  0
 38 39  1  0  0  0  0
 39 40  1  0  0  0  0
 40 41  1  0  0  0  0
 41 36  1  0  0  0  0
 40 42  1  1  0  0  0
 43 44  1  0  0  0  0
 41 44  1  6  0  0  0
 30 45  1  1  0  0  0
 45 46  1  0  0  0  0
 31 47  1  6  0  0  0
 48 49  1  0  0  0  0
 49 46  1  1  0  0  0
 48 50  1  0  0  0  0
 50 51  1  0  0  0  0
 51 52  1  0  0  0  0
 52 53  1  0  0  0  0
 53 49  1  0  0  0  0
 54 55  1  0  0  0  0
 50 55  1  1  0  0  0
 52 56  1  1  0  0  0
 57 58  1  0  0  0  0
 58 59  1  1  0  0  0
 53 59  1  6  0  0  0
 57 60  1  0  0  0  0
 60 61  1  0  0  0  0
 61 62  1  0  0  0  0
 62 63  1  0  0  0  0
 63 58  1  0  0  0  0
 60 64  1  1  0  0  0
 64 65  1  0  0  0  0
 61 66  1  6  0  0  0
  2 67  1  0  0  0  0
 67 68  1  0  0  0  0
 67 69  2  0  0  0  0
 62 70  1  1  0  0  0
 38 71  1  1  0  0  0
 18 72  1  1  0  0  0
  9 73  1  1  0  0  0
  4 74  1  1  0  0  0
  2 75  1  1  0  0  0
  1 76  1  1  0  0  0
  3 77  1  6  0  0  0
 10 78  1  6  0  0  0
 11 79  1  6  0  0  0
 39 80  1  6  0  0  0
 51 81  1  6  0  0  0
 63 82  1  6  0  0  0
 84 83  1  0  0  0  0
 85 84  1  0  0  0  0
 86 85  1  0  0  0  0
 87 86  1  0  0  0  0
 88 87  1  0  0  0  0
 87 89  2  0  0  0  0
 85 90  1  0  0  0  0
 85 91  1  0  0  0  0
 83 92  2  0  0  0  0
 83 68  1  0  0  0  0
M  END
>  <cdx:fragmentId>
5

$$$$
