93434.cdx
  Mrv1902 05222410242D          

 47 52  0  0  0  0            999 V2000
    1.7306  -10.9863    0.0000 C   0  0  0  0  0  0  0  0  0  0  0  0
    1.7306  -11.8113    0.0000 C   0  0  0  0  0  0  0  0  0  0  0  0
    2.4450  -12.2238    0.0000 C   0  0  0  0  0  0  0  0  0  0  0  0
    3.1595  -11.8113    0.0000 C   0  0  0  0  0  0  0  0  0  0  0  0
    3.1595  -10.9863    0.0000 C   0  0  0  0  0  0  0  0  0  0  0  0
    2.4450  -10.5737    0.0000 C   0  0  0  0  0  0  0  0  0  0  0  0
    4.5884  -10.9863    0.0000 C   0  0  0  0  0  0  0  0  0  0  0  0
    3.8740  -10.5737    0.0000 C   0  0  0  0  0  0  0  0  0  0  0  0
    5.3029  -10.5737    0.0000 C   0  0  0  0  0  0  0  0  0  0  0  0
    5.3029   -9.7487    0.0000 O   0  0  0  0  0  0  0  0  0  0  0  0
    6.0174  -10.9863    0.0000 O   0  0  0  0  0  0  0  0  0  0  0  0
    6.7319  -10.5737    0.0000 C   0  0  1  0  0  0  0  0  0  0  0  0
    6.7319   -9.7487    0.0000 C   0  0  0  0  0  0  0  0  0  0  0  0
    7.4463  -10.9863    0.0000 C   0  0  0  0  0  0  0  0  0  0  0  0
    8.1608  -10.5737    0.0000 C   0  0  1  0  0  0  0  0  0  0  0  0
    8.1608   -9.7487    0.0000 C   0  0  2  0  0  0  0  0  0  0  0  0
    7.4463   -9.3362    0.0000 C   0  0  0  0  0  0  0  0  0  0  0  0
    8.8753  -10.9863    0.0000 C   0  0  0  0  0  0  0  0  0  0  0  0
    9.5897  -10.5737    0.0000 C   0  0  0  0  0  0  0  0  0  0  0  0
    9.5897   -9.7487    0.0000 C   0  0  2  0  0  0  0  0  0  0  0  0
    8.8753   -9.3362    0.0000 C   0  0  2  0  0  0  0  0  0  0  0  0
   10.3042   -9.3362    0.0000 C   0  0  1  0  0  0  0  0  0  0  0  0
   10.3042   -8.5113    0.0000 C   0  0  0  0  0  0  0  0  0  0  0  0
    9.5897   -8.0987    0.0000 C   0  0  0  0  0  0  0  0  0  0  0  0
    8.8753   -8.5113    0.0000 C   0  0  0  0  0  0  0  0  0  0  0  0
   11.0187   -9.7487    0.0000 C   0  0  0  0  0  0  0  0  0  0  0  0
   11.7331   -9.3362    0.0000 C   0  0  0  0  0  0  0  0  0  0  0  0
   11.7331   -8.5113    0.0000 C   0  0  2  0  0  0  0  0  0  0  0  0
   11.0187   -8.0987    0.0000 C   0  0  1  0  0  0  0  0  0  0  0  0
   12.4476   -8.0987    0.0000 C   0  0  0  0  0  0  0  0  0  0  0  0
   12.4476   -7.2738    0.0000 C   0  0  0  0  0  0  0  0  0  0  0  0
   11.7331   -6.8613    0.0000 C   0  0  2  0  0  0  0  0  0  0  0  0
   11.0187   -7.2738    0.0000 C   0  0  2  0  0  0  0  0  0  0  0  0
   12.4476   -8.9238    0.0000 C   0  0  0  0  0  0  0  0  0  0  0  0
   13.1621   -8.5113    0.0000 O   0  0  0  0  0  0  0  0  0  0  0  0
    7.0338  -11.7007    0.0000 C   0  0  0  0  0  0  0  0  0  0  0  0
    7.8588  -11.7007    0.0000 C   0  0  0  0  0  0  0  0  0  0  0  0
    1.0161  -10.5737    0.0000 O   0  0  0  0  0  0  0  0  0  0  0  0
    1.0161  -12.2238    0.0000 O   0  0  0  0  0  0  0  0  0  0  0  0
   10.3042   -6.8613    0.0000 C   0  0  0  0  0  0  0  0  0  0  0  0
   10.3042   -7.6863    0.0000 H   0  0  0  0  0  0  0  0  0  0  0  0
    9.5897   -8.9238    0.0000 C   0  0  0  0  0  0  0  0  0  0  0  0
    8.1608   -8.9238    0.0000 C   0  0  0  0  0  0  0  0  0  0  0  0
   11.7331   -6.0362    0.0000 C   0  0  0  0  0  0  0  0  0  0  0  0
   10.3042  -10.1612    0.0000 C   0  0  0  0  0  0  0  0  0  0  0  0
    8.1608  -11.3988    0.0000 H   0  0  0  0  0  0  0  0  0  0  0  0
    8.8753  -10.1612    0.0000 H   0  0  0  0  0  0  0  0  0  0  0  0
  1  2  2  0  0  0  0
  2  3  1  0  0  0  0
  3  4  2  0  0  0  0
  4  5  1  0  0  0  0
  5  6  2  0  0  0  0
  6  1  1  0  0  0  0
  7  8  2  0  0  0  0
  8  5  1  0  0  0  0
  7  9  1  0  0  0  0
  9 10  2  0  0  0  0
  9 11  1  0  0  0  0
 12 11  1  1  0  0  0
 12 13  1  0  0  0  0
 12 14  1  0  0  0  0
 14 15  1  0  0  0  0
 15 16  1  0  0  0  0
 16 17  1  0  0  0  0
 17 13  1  0  0  0  0
 15 18  1  0  0  0  0
 18 19  1  0  0  0  0
 19 20  1  0  0  0  0
 20 21  1  0  0  0  0
 21 16  1  0  0  0  0
 20 22  1  0  0  0  0
 22 23  1  0  0  0  0
 23 24  2  0  0  0  0
 24 25  1  0  0  0  0
 25 21  1  0  0  0  0
 22 26  1  0  0  0  0
 26 27  1  0  0  0  0
 27 28  1  0  0  0  0
 28 29  1  0  0  0  0
 29 23  1  0  0  0  0
 28 30  1  0  0  0  0
 30 31  1  0  0  0  0
 31 32  1  0  0  0  0
 32 33  1  0  0  0  0
 33 29  1  0  0  0  0
 28 34  1  1  0  0  0
 34 35  1  0  0  0  0
 14 36  1  0  0  0  0
 14 37  1  0  0  0  0
  1 38  1  0  0  0  0
  2 39  1  0  0  0  0
 33 40  1  1  0  0  0
 29 41  1  1  0  0  0
 20 42  1  1  0  0  0
 16 43  1  1  0  0  0
 32 44  1  6  0  0  0
 22 45  1  6  0  0  0
 15 46  1  6  0  0  0
 21 47  1  6  0  0  0
M  END
>  <cdx:fragmentId>
5

$$$$
