93449.cdx
  Mrv1902 05222410182D          

 40 44  0  0  0  0            999 V2000
   10.0099   -6.4366    0.0000 C   0  0  0  0  0  0  0  0  0  0  0  0
   10.0099   -7.2616    0.0000 C   0  0  0  0  0  0  0  0  0  0  0  0
    9.2955   -7.6741    0.0000 C   0  0  0  0  0  0  0  0  0  0  0  0
    8.5810   -7.2616    0.0000 C   0  0  0  0  0  0  0  0  0  0  0  0
    8.5810   -6.4366    0.0000 C   0  0  0  0  0  0  0  0  0  0  0  0
    9.2955   -6.0241    0.0000 C   0  0  0  0  0  0  0  0  0  0  0  0
    7.8665   -7.6741    0.0000 C   0  0  0  0  0  0  0  0  0  0  0  0
    7.8665   -8.4991    0.0000 C   0  0  0  0  0  0  0  0  0  0  0  0
    8.5810   -8.9116    0.0000 C   0  0  0  0  0  0  0  0  0  0  0  0
    8.5810   -9.7366    0.0000 C   0  0  0  0  0  0  0  0  0  0  0  0
    7.8665  -10.1491    0.0000 C   0  0  0  0  0  0  0  0  0  0  0  0
    7.1521   -9.7366    0.0000 C   0  0  0  0  0  0  0  0  0  0  0  0
    7.1521   -8.9116    0.0000 C   0  0  0  0  0  0  0  0  0  0  0  0
    7.8665  -10.9741    0.0000 O   0  0  0  0  0  0  0  0  0  0  0  0
    6.7234   -6.1891    0.0000 C   0  0  0  0  0  0  0  0  0  0  0  0
    6.7234   -7.0141    0.0000 C   0  0  0  0  0  0  0  0  0  0  0  0
    6.0089   -7.4266    0.0000 C   0  0  0  0  0  0  0  0  0  0  0  0
    5.2944   -7.0141    0.0000 C   0  0  0  0  0  0  0  0  0  0  0  0
    5.2944   -6.1891    0.0000 C   0  0  0  0  0  0  0  0  0  0  0  0
    6.0089   -5.7766    0.0000 C   0  0  0  0  0  0  0  0  0  0  0  0
    7.4378   -5.7766    0.0000 C   0  0  0  0  0  0  0  0  0  0  0  0
    7.4378   -4.9516    0.0000 C   0  0  0  0  0  0  0  0  0  0  0  0
    8.1523   -4.5391    0.0000 C   0  0  0  0  0  0  0  0  0  0  0  0
    8.8668   -4.9516    0.0000 C   0  0  0  0  0  0  0  0  0  0  0  0
    8.8668   -5.7766    0.0000 C   0  0  0  0  0  0  0  0  0  0  0  0
    8.1523   -6.1891    0.0000 C   0  0  0  0  0  0  0  0  0  0  0  0
    4.5800   -7.4266    0.0000 C   0  0  0  0  0  0  0  0  0  0  0  0
    3.8655   -7.0141    0.0000 O   0  0  0  0  0  0  0  0  0  0  0  0
    9.5813   -4.5391    0.0000 O   0  0  0  0  0  0  0  0  0  0  0  0
    6.0089   -8.2516    0.0000 C   0  0  0  0  0  0  0  0  0  0  0  0
    6.0089   -9.0766    0.0000 C   0  0  0  0  0  0  0  0  0  0  0  0
    6.0089   -9.9016    0.0000 C   0  0  0  0  0  0  0  0  0  0  0  0
    6.7234  -10.3141    0.0000 C   0  0  0  0  0  0  0  0  0  0  0  0
    6.7234  -11.1391    0.0000 C   0  0  0  0  0  0  0  0  0  0  0  0
    6.0089  -11.5516    0.0000 C   0  0  0  0  0  0  0  0  0  0  0  0
    5.2944  -11.1391    0.0000 C   0  0  0  0  0  0  0  0  0  0  0  0
    5.2944  -10.3141    0.0000 C   0  0  0  0  0  0  0  0  0  0  0  0
    6.0089  -12.3766    0.0000 O   0  0  0  0  0  0  0  0  0  0  0  0
    7.4378  -11.5516    0.0000 O   0  0  0  0  0  0  0  0  0  0  0  0
   10.7244   -6.0241    0.0000 O   0  0  0  0  0  0  0  0  0  0  0  0
  1  2  1  0  0  0  0
  2  3  2  0  0  0  0
  3  4  1  0  0  0  0
  4  5  1  0  0  0  0
  5  6  2  0  0  0  0
  1  6  1  0  0  0  0
  8  9  1  0  0  0  0
  9 10  2  0  0  0  0
 10 11  1  0  0  0  0
 11 12  2  0  0  0  0
 12 13  1  0  0  0  0
  8 13  2  0  0  0  0
 11 14  1  0  0  0  0
  7  8  1  0  0  0  0
 15 16  1  0  0  0  0
 16 17  2  0  0  0  0
 17 18  1  0  0  0  0
 18 19  2  0  0  0  0
 19 20  1  0  0  0  0
 15 20  2  0  0  0  0
 21 22  1  0  0  0  0
 22 23  2  0  0  0  0
 23 24  1  0  0  0  0
 24 25  2  0  0  0  0
 25 26  1  0  0  0  0
 21 26  2  0  0  0  0
 15 21  1  0  0  0  0
 27 28  1  0  0  0  0
 18 27  1  0  0  0  0
 24 29  1  0  0  0  0
 30 31  3  0  0  0  0
 32 33  1  0  0  0  0
 33 34  2  0  0  0  0
 34 35  1  0  0  0  0
 35 36  2  0  0  0  0
 36 37  1  0  0  0  0
 32 37  2  0  0  0  0
 35 38  1  0  0  0  0
 34 39  1  0  0  0  0
 31 32  1  0  0  0  0
 17 30  1  0  0  0  0
  7 16  1  0  0  0  0
  4  7  2  0  0  0  0
  1 40  2  0  0  0  0
M  END
>  <cdx:groupId>
126

>  <cdx:fragmentId>
45

$$$$
