93447.cdx
  Mrv1902 05222410272D          

 40 43  0  0  0  0            999 V2000
    5.5531   -4.5925    0.0000 C   0  0  2  0  0  0  0  0  0  0  0  0
    5.5531   -5.4175    0.0000 C   0  0  2  0  0  0  0  0  0  0  0  0
    6.2675   -5.8300    0.0000 C   0  0  1  0  0  0  0  0  0  0  0  0
    6.9820   -5.4175    0.0000 C   0  0  2  0  0  0  0  0  0  0  0  0
    6.9820   -4.5925    0.0000 C   0  0  1  0  0  0  0  0  0  0  0  0
    6.2675   -4.1800    0.0000 O   0  0  0  0  0  0  0  0  0  0  0  0
    4.8386   -4.1800    0.0000 C   0  0  0  0  0  0  0  0  0  0  0  0
    7.6965   -4.1800    0.0000 O   0  0  0  0  0  0  0  0  0  0  0  0
    6.2675   -6.6550    0.0000 O   0  0  0  0  0  0  0  0  0  0  0  0
    4.8386   -5.8300    0.0000 O   0  0  0  0  0  0  0  0  0  0  0  0
    7.6965   -5.8300    0.0000 O   0  0  0  0  0  0  0  0  0  0  0  0
    4.1241   -4.5925    0.0000 O   0  0  0  0  0  0  0  0  0  0  0  0
    7.6965   -6.6550    0.0000 C   0  0  2  0  0  0  0  0  0  0  0  0
    7.0290   -7.1399    0.0000 O   0  0  0  0  0  0  0  0  0  0  0  0
    7.2840   -7.9245    0.0000 C   0  0  0  0  0  0  0  0  0  0  0  0
    8.1090   -7.9245    0.0000 C   0  0  2  0  0  0  0  0  0  0  0  0
    8.3639   -7.1399    0.0000 C   0  0  1  0  0  0  0  0  0  0  0  0
    9.1485   -6.8850    0.0000 O   0  0  0  0  0  0  0  0  0  0  0  0
    8.9059   -8.1381    0.0000 O   0  0  0  0  0  0  0  0  0  0  0  0
    8.3225   -8.7214    0.0000 C   0  0  0  0  0  0  0  0  0  0  0  0
    7.7391   -9.3048    0.0000 O   0  0  0  0  0  0  0  0  0  0  0  0
    8.3718   -4.5788    0.0000 C   0  0  0  0  0  0  0  0  0  0  0  0
    8.3718   -5.4037    0.0000 C   0  0  0  0  0  0  0  0  0  0  0  0
    9.0863   -5.8163    0.0000 C   0  0  0  0  0  0  0  0  0  0  0  0
    9.8007   -5.4037    0.0000 C   0  0  0  0  0  0  0  0  0  0  0  0
    9.8007   -4.5788    0.0000 C   0  0  0  0  0  0  0  0  0  0  0  0
    9.0863   -4.1662    0.0000 C   0  0  0  0  0  0  0  0  0  0  0  0
    7.0058  -10.5079    0.0000 C   0  0  0  0  0  0  0  0  0  0  0  0
    6.2935  -10.0916    0.0000 C   0  0  0  0  0  0  0  0  0  0  0  0
    5.5768  -10.5002    0.0000 C   0  0  0  0  0  0  0  0  0  0  0  0
    5.5724  -11.3252    0.0000 C   0  0  0  0  0  0  0  0  0  0  0  0
    6.2847  -11.7416    0.0000 C   0  0  0  0  0  0  0  0  0  0  0  0
    7.0013  -11.3329    0.0000 C   0  0  0  0  0  0  0  0  0  0  0  0
   10.5152   -4.1662    0.0000 H   0  0  0  0  0  0  0  0  0  0  0  0
   10.5152   -5.8163    0.0000 O   0  0  0  0  0  0  0  0  0  0  0  0
    6.2802  -12.5666    0.0000 O   0  0  0  0  0  0  0  0  0  0  0  0
    5.5635  -12.9752    0.0000 C   0  0  0  0  0  0  0  0  0  0  0  0
    4.8557  -11.7339    0.0000 O   0  0  0  0  0  0  0  0  0  0  0  0
    7.7224  -10.0993    0.0000 C   0  0  0  0  0  0  0  0  0  0  0  0
    8.4347  -10.5156    0.0000 O   0  0  0  0  0  0  0  0  0  0  0  0
  1  2  1  0  0  0  0
  2  3  1  0  0  0  0
  3  4  1  0  0  0  0
  4  5  1  0  0  0  0
  5  6  1  0  0  0  0
  6  1  1  0  0  0  0
  1  7  1  1  0  0  0
  5  8  1  1  0  0  0
  3  9  1  1  0  0  0
  2 10  1  6  0  0  0
  4 11  1  6  0  0  0
  7 12  1  0  0  0  0
 13 11  1  1  0  0  0
 13 14  1  0  0  0  0
 14 15  1  0  0  0  0
 15 16  1  0  0  0  0
 16 17  1  0  0  0  0
 17 13  1  0  0  0  0
 17 18  1  6  0  0  0
 16 19  1  6  0  0  0
 16 20  1  1  0  0  0
 20 21  1  0  0  0  0
 22 23  2  0  0  0  0
 23 24  1  0  0  0  0
 24 25  2  0  0  0  0
 25 26  1  0  0  0  0
 26 27  2  0  0  0  0
 27 22  1  0  0  0  0
 28 29  2  0  0  0  0
 29 30  1  0  0  0  0
 30 31  2  0  0  0  0
 31 32  1  0  0  0  0
 32 33  2  0  0  0  0
 33 28  1  0  0  0  0
 26 34  1  0  0  0  0
 25 35  1  0  0  0  0
 32 36  1  0  0  0  0
 36 37  1  0  0  0  0
 31 38  1  0  0  0  0
 28 39  1  0  0  0  0
 39 40  2  0  0  0  0
 22  8  1  0  0  0  0
 39 21  1  0  0  0  0
M  END
>  <cdx:fragmentId>
5

$$$$
