93440.cdx
  Mrv1902 05222410262D          

 34 36  0  0  0  0            999 V2000
    5.0194   -9.4228    0.0000 O   0  0  0  0  0  0  0  0  0  0  0  0
    7.1124  -10.6678    0.0000 H   0  0  0  0  0  0  0  0  0  0  0  0
    7.1154   -8.1928    0.0000 H   0  0  0  0  0  0  0  0  0  0  0  0
    9.2388   -5.3017    0.0000 C   0  0  2  0  0  0  0  0  0  0  0  0
    8.5192   -4.8982    0.0000 C   0  0  2  0  0  0  0  0  0  0  0  0
    7.8099   -5.3196    0.0000 C   0  0  1  0  0  0  0  0  0  0  0  0
    7.8203   -6.1446    0.0000 C   0  0  2  0  0  0  0  0  0  0  0  0
    6.5404  -10.8918    0.0000 O   0  0  0  0  0  0  0  0  0  0  0  0
    8.5399   -6.5481    0.0000 C   0  0  1  0  0  0  0  0  0  0  0  0
    9.2491   -6.1266    0.0000 O   0  0  0  0  0  0  0  0  0  0  0  0
    5.7435  -10.6783    0.0000 C   0  0  0  0  0  0  0  0  0  0  0  0
    6.3317   -8.7601    0.0000 C   0  0  0  0  0  0  0  0  0  0  0  0
    5.8444   -9.4258    0.0000 C   0  0  1  0  0  0  0  0  0  0  0  0
    6.3269  -10.0949    0.0000 C   0  0  2  0  0  0  0  0  0  0  0  0
    9.2424  -13.5630    0.0000 C   0  0  0  0  0  0  0  0  0  0  0  0
    8.5324  -12.3230    0.0000 C   0  0  0  0  0  0  0  0  0  0  0  0
    9.2454  -12.7380    0.0000 C   0  0  0  0  0  0  0  0  0  0  0  0
    9.9614  -12.3281    0.0000 C   0  0  0  0  0  0  0  0  0  0  0  0
    7.8224  -11.0829    0.0000 O   0  0  0  0  0  0  0  0  0  0  0  0
    8.5354  -11.4980    0.0000 C   0  0  0  0  0  0  0  0  0  0  0  0
    9.2514  -11.0880    0.0000 O   0  0  0  0  0  0  0  0  0  0  0  0
    7.1124   -9.8428    0.0000 C   0  0  1  0  0  0  0  0  0  0  0  0
    7.8254  -10.2579    0.0000 C   0  0  1  0  0  0  0  0  0  0  0  0
    8.5414   -9.8480    0.0000 O   0  0  0  0  0  0  0  0  0  0  0  0
    8.5443   -9.0230    0.0000 C   0  0  0  0  0  0  0  0  0  0  0  0
    7.1154   -9.0178    0.0000 C   0  0  1  0  0  0  0  0  0  0  0  0
    7.8313   -8.6079    0.0000 C   0  0  0  0  0  0  0  0  0  0  0  0
    7.8343   -7.7829    0.0000 C   0  0  0  0  0  0  0  0  0  0  0  0
    9.9480   -4.0552    0.0000 O   0  0  0  0  0  0  0  0  0  0  0  0
    9.9480   -4.8802    0.0000 C   0  0  0  0  0  0  0  0  0  0  0  0
    8.5503   -7.3730    0.0000 O   0  0  0  0  0  0  0  0  0  0  0  0
    7.0903   -4.9161    0.0000 O   0  0  0  0  0  0  0  0  0  0  0  0
    8.5088   -4.0733    0.0000 O   0  0  0  0  0  0  0  0  0  0  0  0
    7.1111   -6.5660    0.0000 O   0  0  0  0  0  0  0  0  0  0  0  0
 13  1  1  1  0  0  0
 22  2  1  1  0  0  0
 26  3  1  1  0  0  0
 14  8  1  6  0  0  0
 14 11  1  1  0  0  0
 12 26  1  0  0  0  0
 13 12  1  0  0  0  0
 14 13  1  0  0  0  0
 22 14  1  0  0  0  0
 17 15  1  0  0  0  0
 16 20  1  0  0  0  0
 17 16  1  0  0  0  0
 18 17  1  0  0  0  0
 23 19  1  1  0  0  0
 20 19  1  0  0  0  0
 21 20  2  0  0  0  0
 22 26  1  0  0  0  0
 23 22  1  0  0  0  0
 24 23  1  0  0  0  0
 25 24  1  0  0  0  0
 27 25  2  0  0  0  0
 27 26  1  0  0  0  0
 28 27  1  0  0  0  0
 31 28  1  0  0  0  0
  4  5  1  0  0  0  0
  5  6  1  0  0  0  0
  6  7  1  0  0  0  0
  7  9  1  0  0  0  0
  9 10  1  0  0  0  0
 10  4  1  0  0  0  0
 29 30  1  0  0  0  0
  4 30  1  1  0  0  0
  9 31  1  1  0  0  0
  6 32  1  1  0  0  0
  5 33  1  6  0  0  0
  7 34  1  6  0  0  0
M  END
>  <cdx:fragmentId>
5

$$$$
