93442.cdx
  Mrv1902 05222410272D          

 30 31  0  0  0  0            999 V2000
    2.2531  -10.4912    0.0000 O   0  0  0  0  0  0  0  0  0  0  0  0
    2.9675  -11.7287    0.0000 O   0  0  0  0  0  0  0  0  0  0  0  0
    3.6820  -11.3163    0.0000 C   0  0  2  0  0  0  0  0  0  0  0  0
    3.6820  -10.4912    0.0000 C   0  0  1  0  0  0  0  0  0  0  0  0
    2.9675  -10.0787    0.0000 C   0  0  0  0  0  0  0  0  0  0  0  0
    4.3965  -11.7287    0.0000 C   0  0  1  0  0  0  0  0  0  0  0  0
    5.1109  -11.3163    0.0000 C   0  0  2  0  0  0  0  0  0  0  0  0
    5.1109  -10.4912    0.0000 C   0  0  1  0  0  0  0  0  0  0  0  0
    4.3965  -10.0787    0.0000 O   0  0  0  0  0  0  0  0  0  0  0  0
    5.8254  -10.0787    0.0000 O   0  0  0  0  0  0  0  0  0  0  0  0
    5.8254   -9.2538    0.0000 C   0  0  2  0  0  0  0  0  0  0  0  0
    5.1109   -8.8413    0.0000 O   0  0  0  0  0  0  0  0  0  0  0  0
    6.5399   -8.8413    0.0000 C   0  0  1  0  0  0  0  0  0  0  0  0
    6.5399   -8.0162    0.0000 C   0  0  1  0  0  0  0  0  0  0  0  0
    5.8254   -7.6037    0.0000 C   0  0  0  0  0  0  0  0  0  0  0  0
    5.1109   -8.0162    0.0000 C   0  0  0  0  0  0  0  0  0  0  0  0
    7.2544   -9.2538    0.0000 C   0  0  0  0  0  0  0  0  0  0  0  0
    7.9688   -8.8413    0.0000 O   0  0  0  0  0  0  0  0  0  0  0  0
    7.9688   -8.0162    0.0000 C   0  0  0  0  0  0  0  0  0  0  0  0
    7.2544   -7.6037    0.0000 C   0  0  0  0  0  0  0  0  0  0  0  0
    8.6833   -9.2538    0.0000 C   0  0  0  0  0  0  0  0  0  0  0  0
    9.3978   -8.0162    0.0000 C   0  0  0  0  0  0  0  0  0  0  0  0
    8.6833   -7.6037    0.0000 O   0  0  0  0  0  0  0  0  0  0  0  0
    6.5399   -6.3662    0.0000 O   0  0  0  0  0  0  0  0  0  0  0  0
    5.8254   -6.7788    0.0000 C   0  0  0  0  0  0  0  0  0  0  0  0
    5.1109   -6.3662    0.0000 O   0  0  0  0  0  0  0  0  0  0  0  0
    5.1109   -5.5413    0.0000 C   0  0  0  0  0  0  0  0  0  0  0  0
    7.2544  -10.0787    0.0000 C   0  0  0  0  0  0  0  0  0  0  0  0
    4.3965  -12.5538    0.0000 O   0  0  0  0  0  0  0  0  0  0  0  0
    5.8254  -11.7287    0.0000 O   0  0  0  0  0  0  0  0  0  0  0  0
  3  2  1  6  0  0  0
  3  4  1  0  0  0  0
  4  5  1  1  0  0  0
  5  1  1  0  0  0  0
  3  6  1  0  0  0  0
  6  7  1  0  0  0  0
  7  8  1  0  0  0  0
  8  9  1  0  0  0  0
  9  4  1  0  0  0  0
  8 10  1  1  0  0  0
 11 10  1  6  0  0  0
 11 12  1  0  0  0  0
 11 13  1  0  0  0  0
 13 14  1  0  0  0  0
 14 15  1  0  0  0  0
 15 16  2  0  0  0  0
 16 12  1  0  0  0  0
 13 17  1  1  0  0  0
 18 19  1  0  0  0  0
 19 20  1  0  0  0  0
 14 20  1  1  0  0  0
 18 21  1  0  0  0  0
 22 23  1  0  0  0  0
 23 19  1  0  0  0  0
 24 25  2  0  0  0  0
 25 15  1  0  0  0  0
 25 26  1  0  0  0  0
 26 27  1  0  0  0  0
 17 28  2  0  0  0  0
  6 29  1  1  0  0  0
  7 30  1  6  0  0  0
M  END
>  <cdx:fragmentId>
5

$$$$
