93448.cdx
  Mrv1902 05222410182D          

 40 44  0  0  0  0            999 V2000
   10.0099   -6.0929    0.0000 C   0  0  0  0  0  0  0  0  0  0  0  0
   10.0099   -6.9179    0.0000 C   0  0  0  0  0  0  0  0  0  0  0  0
    9.2955   -7.3304    0.0000 C   0  0  0  0  0  0  0  0  0  0  0  0
    8.5810   -6.9179    0.0000 C   0  0  0  0  0  0  0  0  0  0  0  0
    8.5810   -6.0929    0.0000 C   0  0  0  0  0  0  0  0  0  0  0  0
    9.2955   -5.6804    0.0000 C   0  0  0  0  0  0  0  0  0  0  0  0
    7.8665   -7.3304    0.0000 C   0  0  0  0  0  0  0  0  0  0  0  0
    7.8665   -8.1554    0.0000 C   0  0  0  0  0  0  0  0  0  0  0  0
    8.5810   -8.5679    0.0000 C   0  0  0  0  0  0  0  0  0  0  0  0
    8.5810   -9.3929    0.0000 C   0  0  0  0  0  0  0  0  0  0  0  0
    7.8665   -9.8054    0.0000 C   0  0  0  0  0  0  0  0  0  0  0  0
    7.1521   -9.3929    0.0000 C   0  0  0  0  0  0  0  0  0  0  0  0
    7.1521   -8.5679    0.0000 C   0  0  0  0  0  0  0  0  0  0  0  0
    7.8665  -10.6304    0.0000 O   0  0  0  0  0  0  0  0  0  0  0  0
    6.7234   -5.8454    0.0000 C   0  0  0  0  0  0  0  0  0  0  0  0
    6.7234   -6.6704    0.0000 C   0  0  0  0  0  0  0  0  0  0  0  0
    6.0089   -7.0829    0.0000 C   0  0  0  0  0  0  0  0  0  0  0  0
    5.2944   -6.6704    0.0000 C   0  0  0  0  0  0  0  0  0  0  0  0
    5.2944   -5.8454    0.0000 C   0  0  0  0  0  0  0  0  0  0  0  0
    6.0089   -5.4329    0.0000 C   0  0  0  0  0  0  0  0  0  0  0  0
    7.4378   -5.4329    0.0000 C   0  0  0  0  0  0  0  0  0  0  0  0
    7.4378   -4.6079    0.0000 C   0  0  0  0  0  0  0  0  0  0  0  0
    8.1523   -4.1954    0.0000 C   0  0  0  0  0  0  0  0  0  0  0  0
    8.8668   -4.6079    0.0000 C   0  0  0  0  0  0  0  0  0  0  0  0
    8.8668   -5.4329    0.0000 C   0  0  0  0  0  0  0  0  0  0  0  0
    8.1523   -5.8454    0.0000 C   0  0  0  0  0  0  0  0  0  0  0  0
    6.0089   -7.9079    0.0000 C   0  0  0  0  0  0  0  0  0  0  0  0
    6.0089   -8.7329    0.0000 C   0  0  0  0  0  0  0  0  0  0  0  0
    6.0089   -9.5579    0.0000 C   0  0  0  0  0  0  0  0  0  0  0  0
    6.7234   -9.9704    0.0000 C   0  0  0  0  0  0  0  0  0  0  0  0
    6.7234  -10.7954    0.0000 C   0  0  0  0  0  0  0  0  0  0  0  0
    6.0089  -11.2079    0.0000 C   0  0  0  0  0  0  0  0  0  0  0  0
    5.2944  -10.7954    0.0000 C   0  0  0  0  0  0  0  0  0  0  0  0
    5.2944   -9.9704    0.0000 C   0  0  0  0  0  0  0  0  0  0  0  0
    6.0089  -12.0329    0.0000 O   0  0  0  0  0  0  0  0  0  0  0  0
    4.5800   -7.0829    0.0000 C   0  0  0  0  0  0  0  0  0  0  0  0
    3.8655   -6.6704    0.0000 O   0  0  0  0  0  0  0  0  0  0  0  0
    9.5813   -4.1954    0.0000 O   0  0  0  0  0  0  0  0  0  0  0  0
    6.7234   -4.1954    0.0000 O   0  0  0  0  0  0  0  0  0  0  0  0
   10.7244   -5.6804    0.0000 O   0  0  0  0  0  0  0  0  0  0  0  0
  1  2  1  0  0  0  0
  2  3  2  0  0  0  0
  3  4  1  0  0  0  0
  4  5  1  0  0  0  0
  5  6  2  0  0  0  0
  1  6  1  0  0  0  0
  8  9  1  0  0  0  0
  9 10  2  0  0  0  0
 10 11  1  0  0  0  0
 11 12  2  0  0  0  0
 12 13  1  0  0  0  0
  8 13  2  0  0  0  0
 11 14  1  0  0  0  0
  7  8  1  0  0  0  0
 15 16  1  0  0  0  0
 16 17  2  0  0  0  0
 17 18  1  0  0  0  0
 18 19  2  0  0  0  0
 19 20  1  0  0  0  0
 15 20  2  0  0  0  0
 21 22  1  0  0  0  0
 22 23  2  0  0  0  0
 23 24  1  0  0  0  0
 24 25  2  0  0  0  0
 25 26  1  0  0  0  0
 21 26  2  0  0  0  0
 15 21  1  0  0  0  0
 27 28  3  0  0  0  0
 29 30  1  0  0  0  0
 30 31  2  0  0  0  0
 31 32  1  0  0  0  0
 32 33  2  0  0  0  0
 33 34  1  0  0  0  0
 29 34  2  0  0  0  0
 32 35  1  0  0  0  0
 28 29  1  0  0  0  0
 17 27  1  0  0  0  0
 36 37  1  0  0  0  0
 18 36  1  0  0  0  0
 24 38  1  0  0  0  0
 22 39  1  0  0  0  0
  7 16  1  0  0  0  0
  4  7  2  0  0  0  0
  1 40  2  0  0  0  0
M  END
>  <cdx:groupId>
126

>  <cdx:fragmentId>
45

$$$$
