93444.cdx
  Mrv1902 05222410282D          

102112  0  0  0  0            999 V2000
    4.8931   -5.1563    0.0000 C   0  0  0  0  0  0  0  0  0  0  0  0
    4.8931   -5.9813    0.0000 C   0  0  1  0  0  0  0  0  0  0  0  0
    5.6075   -6.3937    0.0000 C   0  0  1  0  0  0  0  0  0  0  0  0
    6.3220   -5.9813    0.0000 C   0  0  0  0  0  0  0  0  0  0  0  0
    6.3220   -5.1563    0.0000 C   0  0  2  0  0  0  0  0  0  0  0  0
    5.6075   -4.7438    0.0000 C   0  0  0  0  0  0  0  0  0  0  0  0
    7.0365   -6.3937    0.0000 C   0  0  0  0  0  0  0  0  0  0  0  0
    7.7509   -5.9813    0.0000 C   0  0  0  0  0  0  0  0  0  0  0  0
    7.7509   -5.1563    0.0000 C   0  0  2  0  0  0  0  0  0  0  0  0
    7.0365   -4.7438    0.0000 C   0  0  0  0  0  0  0  0  0  0  0  0
    8.4654   -4.7438    0.0000 C   0  0  1  0  0  0  0  0  0  0  0  0
    8.4654   -3.9188    0.0000 C   0  0  0  0  0  0  0  0  0  0  0  0
    7.7509   -3.5062    0.0000 C   0  0  0  0  0  0  0  0  0  0  0  0
    7.0365   -3.9188    0.0000 C   0  0  0  0  0  0  0  0  0  0  0  0
    9.1799   -5.1563    0.0000 C   0  0  0  0  0  0  0  0  0  0  0  0
    9.8944   -4.7438    0.0000 C   0  0  0  0  0  0  0  0  0  0  0  0
    9.8944   -3.9188    0.0000 C   0  0  2  0  0  0  0  0  0  0  0  0
    9.1799   -3.5062    0.0000 C   0  0  0  0  0  0  0  0  0  0  0  0
   10.6088   -3.5062    0.0000 C   0  0  0  0  0  0  0  0  0  0  0  0
   10.6088   -2.6812    0.0000 C   0  0  0  0  0  0  0  0  0  0  0  0
    9.8944   -2.2688    0.0000 C   0  0  1  0  0  0  0  0  0  0  0  0
    9.1799   -2.6812    0.0000 C   0  0  0  0  0  0  0  0  0  0  0  0
    9.4819   -1.5543    0.0000 C   0  0  0  0  0  0  0  0  0  0  0  0
   10.6088   -4.3313    0.0000 C   0  0  0  0  0  0  0  0  0  0  0  0
    7.7509   -4.3313    0.0000 C   0  0  0  0  0  0  0  0  0  0  0  0
    6.3220   -4.3313    0.0000 C   0  0  0  0  0  0  0  0  0  0  0  0
    5.1950   -7.1082    0.0000 C   0  0  0  0  0  0  0  0  0  0  0  0
    4.1786   -6.3937    0.0000 O   0  0  0  0  0  0  0  0  0  0  0  0
    6.0200   -7.1082    0.0000 C   0  0  0  0  0  0  0  0  0  0  0  0
    8.4654   -5.5687    0.0000 C   0  0  0  0  0  0  0  0  0  0  0  0
   10.3069   -1.5543    0.0000 C   0  0  0  0  0  0  0  0  0  0  0  0
   10.6088   -5.1563    0.0000 C   0  0  0  0  0  0  0  0  0  0  0  0
    3.4641   -6.8062    0.0000 C   0  0  2  0  0  0  0  0  0  0  0  0
    2.7496   -6.3937    0.0000 O   0  0  0  0  0  0  0  0  0  0  0  0
    2.0352   -6.8062    0.0000 C   0  0  1  0  0  0  0  0  0  0  0  0
    2.0352   -7.6313    0.0000 C   0  0  2  0  0  0  0  0  0  0  0  0
    2.7496   -8.0437    0.0000 C   0  0  1  0  0  0  0  0  0  0  0  0
    3.4641   -7.6313    0.0000 C   0  0  1  0  0  0  0  0  0  0  0  0
    1.3207   -6.3937    0.0000 C   0  0  0  0  0  0  0  0  0  0  0  0
    2.7496   -8.8688    0.0000 O   0  0  0  0  0  0  0  0  0  0  0  0
    1.3207   -8.0437    0.0000 O   0  0  0  0  0  0  0  0  0  0  0  0
    4.1786   -8.0437    0.0000 O   0  0  0  0  0  0  0  0  0  0  0  0
    4.1786   -8.8688    0.0000 C   0  0  2  0  0  0  0  0  0  0  0  0
    3.4641   -9.2813    0.0000 O   0  0  0  0  0  0  0  0  0  0  0  0
    3.4641  -10.1063    0.0000 C   0  0  1  0  0  0  0  0  0  0  0  0
    4.1786  -10.5188    0.0000 C   0  0  1  0  0  0  0  0  0  0  0  0
    4.8931  -10.1063    0.0000 C   0  0  1  0  0  0  0  0  0  0  0  0
    4.8931   -9.2813    0.0000 C   0  0  1  0  0  0  0  0  0  0  0  0
    2.7496  -10.5188    0.0000 C   0  0  0  0  0  0  0  0  0  0  0  0
    4.1786  -11.3438    0.0000 O   0  0  0  0  0  0  0  0  0  0  0  0
    5.6075  -10.5188    0.0000 O   0  0  0  0  0  0  0  0  0  0  0  0
    5.6075   -8.8688    0.0000 O   0  0  0  0  0  0  0  0  0  0  0  0
   11.3233   -3.9188    0.0000 O   0  0  0  0  0  0  0  0  0  0  0  0
   11.1170   -5.3487    0.0000 O   0  0  0  0  0  0  0  0  0  0  0  0
   10.7111   -6.0670    0.0000 C   0  0  2  0  0  0  0  0  0  0  0  0
    9.8861   -6.0745    0.0000 O   0  0  0  0  0  0  0  0  0  0  0  0
    9.4802   -6.7927    0.0000 C   0  0  1  0  0  0  0  0  0  0  0  0
    9.8992   -7.5034    0.0000 C   0  0  1  0  0  0  0  0  0  0  0  0
   10.7241   -7.4958    0.0000 C   0  0  1  0  0  0  0  0  0  0  0  0
   11.1301   -6.7776    0.0000 C   0  0  1  0  0  0  0  0  0  0  0  0
    8.6552   -6.8003    0.0000 C   0  0  0  0  0  0  0  0  0  0  0  0
    9.4932   -8.2216    0.0000 O   0  0  0  0  0  0  0  0  0  0  0  0
   11.1432   -8.2065    0.0000 O   0  0  0  0  0  0  0  0  0  0  0  0
   10.7372   -8.9247    0.0000 C   0  0  2  0  0  0  0  0  0  0  0  0
    9.9175   -9.0185    0.0000 O   0  0  0  0  0  0  0  0  0  0  0  0
    9.7534   -9.8270    0.0000 C   0  0  2  0  0  0  0  0  0  0  0  0
   10.4716  -10.2329    0.0000 C   0  0  1  0  0  0  0  0  0  0  0  0
   11.0796   -9.6753    0.0000 C   0  0  1  0  0  0  0  0  0  0  0  0
   10.5653  -11.0526    0.0000 O   0  0  0  0  0  0  0  0  0  0  0  0
    9.0028  -10.1694    0.0000 C   0  0  0  0  0  0  0  0  0  0  0  0
   11.8881   -9.8394    0.0000 O   0  0  0  0  0  0  0  0  0  0  0  0
    8.3310   -9.6906    0.0000 O   0  0  0  0  0  0  0  0  0  0  0  0
   10.7487  -11.8122    0.0000 C   0  0  1  0  0  0  0  0  0  0  0  0
   10.7625  -12.6371    0.0000 C   0  0  1  0  0  0  0  0  0  0  0  0
   11.4837  -13.0377    0.0000 C   0  0  2  0  0  0  0  0  0  0  0  0
   12.1912  -12.6134    0.0000 C   0  0  2  0  0  0  0  0  0  0  0  0
   12.1775  -11.7885    0.0000 C   0  0  1  0  0  0  0  0  0  0  0  0
   11.4562  -11.3879    0.0000 O   0  0  0  0  0  0  0  0  0  0  0  0
   10.0549  -13.0615    0.0000 O   0  0  0  0  0  0  0  0  0  0  0  0
   10.0275  -11.4117    0.0000 C   0  0  0  0  0  0  0  0  0  0  0  0
   11.4974  -13.8626    0.0000 O   0  0  0  0  0  0  0  0  0  0  0  0
   12.9124  -13.0139    0.0000 O   0  0  0  0  0  0  0  0  0  0  0  0
   10.0687  -13.8863    0.0000 C   0  0  2  0  0  0  0  0  0  0  0  0
    9.3612  -14.3107    0.0000 O   0  0  0  0  0  0  0  0  0  0  0  0
    9.3749  -15.1356    0.0000 C   0  0  0  0  0  0  0  0  0  0  0  0
   10.0961  -15.5361    0.0000 C   0  0  2  0  0  0  0  0  0  0  0  0
   10.8036  -15.1118    0.0000 C   0  0  1  0  0  0  0  0  0  0  0  0
   10.7899  -14.2869    0.0000 C   0  0  1  0  0  0  0  0  0  0  0  0
   11.5902  -14.4871    0.0000 O   0  0  0  0  0  0  0  0  0  0  0  0
   10.1098  -16.3610    0.0000 O   0  0  0  0  0  0  0  0  0  0  0  0
   11.5249  -15.5123    0.0000 O   0  0  0  0  0  0  0  0  0  0  0  0
    6.8450   -7.1082    0.0000 O   0  0  0  0  0  0  0  0  0  0  0  0
    0.6062   -6.8062    0.0000 O   0  0  0  0  0  0  0  0  0  0  0  0
    1.3207   -5.5687    0.0000 O   0  0  0  0  0  0  0  0  0  0  0  0
    2.7496  -11.3438    0.0000 O   0  0  0  0  0  0  0  0  0  0  0  0
    8.6682   -8.2216    0.0000 C   0  0  0  0  0  0  0  0  0  0  0  0
    8.2557   -8.9361    0.0000 C   0  0  0  0  0  0  0  0  0  0  0  0
    8.2557   -7.5071    0.0000 O   0  0  0  0  0  0  0  0  0  0  0  0
   12.8850  -11.3641    0.0000 O   0  0  0  0  0  0  0  0  0  0  0  0
   11.3233   -4.7438    0.0000 C   0  0  0  0  0  0  0  0  0  0  0  0
   12.0378   -5.1563    0.0000 C   0  0  0  0  0  0  0  0  0  0  0  0
   12.7522   -4.7438    0.0000 C   0  0  0  0  0  0  0  0  0  0  0  0
  1  2  1  0  0  0  0
  2  3  1  0  0  0  0
  3  4  1  0  0  0  0
  4  5  1  0  0  0  0
  5  6  1  0  0  0  0
  6  1  1  0  0  0  0
  4  7  1  0  0  0  0
  7  8  1  0  0  0  0
  8  9  1  0  0  0  0
  9 10  1  0  0  0  0
 10  5  1  0  0  0  0
  9 11  1  0  0  0  0
 11 12  1  0  0  0  0
 12 13  2  0  0  0  0
 13 14  1  0  0  0  0
 14 10  1  0  0  0  0
 11 15  1  0  0  0  0
 15 16  1  0  0  0  0
 16 17  1  0  0  0  0
 17 18  1  0  0  0  0
 18 12  1  0  0  0  0
 17 19  1  0  0  0  0
 19 20  1  0  0  0  0
 20 21  1  0  0  0  0
 21 22  1  0  0  0  0
 22 18  1  0  0  0  0
 21 23  1  1  0  0  0
 17 24  1  1  0  0  0
  9 25  1  1  0  0  0
  5 26  1  1  0  0  0
  3 27  1  1  0  0  0
  2 28  1  1  0  0  0
  3 29  1  6  0  0  0
 11 30  1  6  0  0  0
 21 31  1  6  0  0  0
 16 32  1  0  0  0  0
 33 28  1  1  0  0  0
 33 34  1  0  0  0  0
 34 35  1  0  0  0  0
 35 36  1  0  0  0  0
 36 37  1  0  0  0  0
 37 38  1  0  0  0  0
 38 33  1  0  0  0  0
 35 39  1  1  0  0  0
 37 40  1  1  0  0  0
 36 41  1  6  0  0  0
 38 42  1  6  0  0  0
 43 42  1  1  0  0  0
 43 44  1  0  0  0  0
 44 45  1  0  0  0  0
 45 46  1  0  0  0  0
 46 47  1  0  0  0  0
 47 48  1  0  0  0  0
 48 43  1  0  0  0  0
 45 49  1  1  0  0  0
 46 50  1  1  0  0  0
 47 51  1  1  0  0  0
 48 52  1  6  0  0  0
 24 53  2  0  0  0  0
 24 54  1  0  0  0  0
 55 54  1  1  0  0  0
 55 56  1  0  0  0  0
 56 57  1  0  0  0  0
 57 58  1  0  0  0  0
 58 59  1  0  0  0  0
 59 60  1  0  0  0  0
 60 55  1  0  0  0  0
 57 61  1  1  0  0  0
 58 62  1  1  0  0  0
 59 63  1  1  0  0  0
 64 63  1  1  0  0  0
 64 65  1  0  0  0  0
 65 66  1  0  0  0  0
 66 67  1  0  0  0  0
 67 68  1  0  0  0  0
 68 64  1  0  0  0  0
 67 69  1  1  0  0  0
 66 70  1  6  0  0  0
 68 71  1  6  0  0  0
 70 72  1  0  0  0  0
 73 74  1  0  0  0  0
 74 75  1  0  0  0  0
 75 76  1  0  0  0  0
 76 77  1  0  0  0  0
 77 78  1  0  0  0  0
 78 73  1  0  0  0  0
 74 79  1  1  0  0  0
 73 80  1  6  0  0  0
 75 81  1  6  0  0  0
 76 82  1  6  0  0  0
 83 79  1  1  0  0  0
 83 84  1  0  0  0  0
 84 85  1  0  0  0  0
 85 86  1  0  0  0  0
 86 87  1  0  0  0  0
 87 88  1  0  0  0  0
 88 83  1  0  0  0  0
 88 89  1  6  0  0  0
 86 90  1  6  0  0  0
 87 91  1  1  0  0  0
 29 92  2  0  0  0  0
 39 93  1  0  0  0  0
 39 94  2  0  0  0  0
 49 95  1  0  0  0  0
 62 96  1  0  0  0  0
 96 97  1  0  0  0  0
 96 98  2  0  0  0  0
 77 99  1  1  0  0  0
 60 99  1  6  0  0  0
 32100  1  0  0  0  0
100101  1  0  0  0  0
101102  1  0  0  0  0
M  END
>  <cdx:fragmentId>
5

$$$$
