93441.cdx
  Mrv1902 05222410262D          

 31 34  0  0  0  0            999 V2000
    6.4193   -7.6313    0.0000 C   0  0  2  0  0  0  0  0  0  0  0  0
    6.4193   -8.4563    0.0000 C   0  0  0  0  0  0  0  0  0  0  0  0
    7.1338   -8.8688    0.0000 O   0  0  0  0  0  0  0  0  0  0  0  0
    7.8482   -8.4563    0.0000 C   0  0  0  0  0  0  0  0  0  0  0  0
    7.8482   -7.6313    0.0000 C   0  0  0  0  0  0  0  0  0  0  0  0
    7.1338   -7.2188    0.0000 C   0  0  0  0  0  0  0  0  0  0  0  0
    8.5627   -8.8688    0.0000 C   0  0  0  0  0  0  0  0  0  0  0  0
    9.2772   -8.4563    0.0000 C   0  0  0  0  0  0  0  0  0  0  0  0
    9.2772   -7.6313    0.0000 C   0  0  0  0  0  0  0  0  0  0  0  0
    8.5627   -7.2188    0.0000 C   0  0  0  0  0  0  0  0  0  0  0  0
    9.9917   -8.8688    0.0000 O   0  0  0  0  0  0  0  0  0  0  0  0
   10.7061   -8.4563    0.0000 C   0  0  0  0  0  0  0  0  0  0  0  0
   10.7061   -7.6313    0.0000 C   0  0  0  0  0  0  0  0  0  0  0  0
    9.9917   -7.2188    0.0000 C   0  0  0  0  0  0  0  0  0  0  0  0
    5.7048   -7.2188    0.0000 O   0  0  0  0  0  0  0  0  0  0  0  0
    5.5943   -8.4563    0.0000 C   0  0  0  0  0  0  0  0  0  0  0  0
    6.0068   -9.1707    0.0000 C   0  0  0  0  0  0  0  0  0  0  0  0
    8.5627   -6.3937    0.0000 O   0  0  0  0  0  0  0  0  0  0  0  0
    9.9917   -6.3937    0.0000 O   0  0  0  0  0  0  0  0  0  0  0  0
   11.4206   -8.8688    0.0000 C   0  0  0  0  0  0  0  0  0  0  0  0
    4.8800   -7.2355    0.0000 C   0  0  2  0  0  0  0  0  0  0  0  0
    4.4531   -6.5296    0.0000 O   0  0  0  0  0  0  0  0  0  0  0  0
    3.6282   -6.5463    0.0000 C   0  0  1  0  0  0  0  0  0  0  0  0
    3.2303   -7.2690    0.0000 C   0  0  2  0  0  0  0  0  0  0  0  0
    3.6573   -7.9750    0.0000 C   0  0  1  0  0  0  0  0  0  0  0  0
    4.4821   -7.9582    0.0000 C   0  0  1  0  0  0  0  0  0  0  0  0
    3.2594   -8.6977    0.0000 O   0  0  0  0  0  0  0  0  0  0  0  0
    3.2013   -5.8404    0.0000 C   0  0  0  0  0  0  0  0  0  0  0  0
    4.9090   -8.6642    0.0000 O   0  0  0  0  0  0  0  0  0  0  0  0
    2.4055   -7.2858    0.0000 O   0  0  0  0  0  0  0  0  0  0  0  0
    2.3765   -5.8571    0.0000 O   0  0  0  0  0  0  0  0  0  0  0  0
  1  2  1  0  0  0  0
  2  3  1  0  0  0  0
  3  4  1  0  0  0  0
  4  5  2  0  0  0  0
  5  6  1  0  0  0  0
  6  1  1  0  0  0  0
  4  7  1  0  0  0  0
  7  8  2  0  0  0  0
  8  9  1  0  0  0  0
  9 10  2  0  0  0  0
 10  5  1  0  0  0  0
  8 11  1  0  0  0  0
 11 12  1  0  0  0  0
 12 13  2  0  0  0  0
 13 14  1  0  0  0  0
 14  9  1  0  0  0  0
  1 15  1  1  0  0  0
  2 16  1  0  0  0  0
  2 17  1  0  0  0  0
 10 18  1  0  0  0  0
 14 19  2  0  0  0  0
 12 20  1  0  0  0  0
 21 15  1  1  0  0  0
 21 22  1  0  0  0  0
 22 23  1  0  0  0  0
 23 24  1  0  0  0  0
 24 25  1  0  0  0  0
 25 26  1  0  0  0  0
 26 21  1  0  0  0  0
 25 27  1  1  0  0  0
 23 28  1  1  0  0  0
 26 29  1  6  0  0  0
 24 30  1  6  0  0  0
 28 31  1  0  0  0  0
M  END
>  <cdx:fragmentId>
5

$$$$
