93450.cdx
  Mrv1902 05222410282D          

 39 43  0  0  0  0            999 V2000
    6.1443   -8.9925    0.0000 C   0  0  0  0  0  0  0  0  0  0  0  0
    6.1443   -9.8175    0.0000 C   0  0  0  0  0  0  0  0  0  0  0  0
    6.8588  -10.2300    0.0000 C   0  0  0  0  0  0  0  0  0  0  0  0
    7.5732   -9.8175    0.0000 C   0  0  0  0  0  0  0  0  0  0  0  0
    7.5732   -8.9925    0.0000 C   0  0  0  0  0  0  0  0  0  0  0  0
    6.8588   -8.5800    0.0000 C   0  0  0  0  0  0  0  0  0  0  0  0
    6.8588   -7.7550    0.0000 C   0  0  0  0  0  0  0  0  0  0  0  0
    6.1443   -7.3425    0.0000 C   0  0  0  0  0  0  0  0  0  0  0  0
    7.5732   -7.3425    0.0000 C   0  0  0  0  0  0  0  0  0  0  0  0
    6.1443   -6.5175    0.0000 C   0  0  0  0  0  0  0  0  0  0  0  0
    5.4298   -6.1050    0.0000 C   0  0  0  0  0  0  0  0  0  0  0  0
    4.7154   -6.5175    0.0000 C   0  0  0  0  0  0  0  0  0  0  0  0
    4.7154   -7.3425    0.0000 C   0  0  0  0  0  0  0  0  0  0  0  0
    5.4298   -7.7550    0.0000 C   0  0  0  0  0  0  0  0  0  0  0  0
    8.2877   -7.7550    0.0000 C   0  0  0  0  0  0  0  0  0  0  0  0
    9.0022   -7.3425    0.0000 C   0  0  0  0  0  0  0  0  0  0  0  0
    9.0022   -6.5175    0.0000 C   0  0  0  0  0  0  0  0  0  0  0  0
    8.2877   -6.1050    0.0000 C   0  0  0  0  0  0  0  0  0  0  0  0
    7.5732   -6.5175    0.0000 C   0  0  0  0  0  0  0  0  0  0  0  0
    4.0009   -6.1050    0.0000 O   0  0  0  0  0  0  0  0  0  0  0  0
    9.7167   -6.1050    0.0000 O   0  0  0  0  0  0  0  0  0  0  0  0
    8.2877  -10.2300    0.0000 H   0  0  0  0  0  0  0  0  0  0  0  0
    8.2877   -8.5800    0.0000 C   0  0  0  0  0  0  0  0  0  0  0  0
    9.0022   -8.1675    0.0000 C   0  0  0  0  0  0  0  0  0  0  0  0
    9.7167   -7.7550    0.0000 C   0  0  0  0  0  0  0  0  0  0  0  0
   10.4311   -8.1675    0.0000 C   0  0  0  0  0  0  0  0  0  0  0  0
   11.1456   -7.7550    0.0000 C   0  0  0  0  0  0  0  0  0  0  0  0
   11.1456   -6.9300    0.0000 C   0  0  0  0  0  0  0  0  0  0  0  0
   10.4311   -6.5175    0.0000 C   0  0  0  0  0  0  0  0  0  0  0  0
    9.7167   -6.9300    0.0000 C   0  0  0  0  0  0  0  0  0  0  0  0
   11.8601   -6.5175    0.0000 O   0  0  0  0  0  0  0  0  0  0  0  0
    5.3193   -8.9925    0.0000 C   0  0  0  0  0  0  0  0  0  0  0  0
    4.9068   -8.2780    0.0000 C   0  0  0  0  0  0  0  0  0  0  0  0
    4.0818   -8.2780    0.0000 C   0  0  0  0  0  0  0  0  0  0  0  0
    3.6693   -8.9925    0.0000 C   0  0  0  0  0  0  0  0  0  0  0  0
    4.0818   -9.7070    0.0000 C   0  0  0  0  0  0  0  0  0  0  0  0
    4.9068   -9.7070    0.0000 C   0  0  0  0  0  0  0  0  0  0  0  0
    2.8443   -8.9925    0.0000 O   0  0  0  0  0  0  0  0  0  0  0  0
    3.2864   -6.5175    0.0000 C   0  0  0  0  0  0  0  0  0  0  0  0
  1  2  2  0  0  0  0
  2  3  1  0  0  0  0
  3  4  2  0  0  0  0
  4  5  1  0  0  0  0
  5  6  2  0  0  0  0
  6  1  1  0  0  0  0
  6  7  1  0  0  0  0
  7  8  1  0  0  0  0
  7  9  2  0  0  0  0
  8 10  1  0  0  0  0
 10 11  2  0  0  0  0
 11 12  1  0  0  0  0
 12 13  2  0  0  0  0
 13 14  1  0  0  0  0
 14  8  2  0  0  0  0
  9 15  1  0  0  0  0
 15 16  2  0  0  0  0
 16 17  1  0  0  0  0
 17 18  1  0  0  0  0
 18 19  2  0  0  0  0
 19  9  1  0  0  0  0
 12 20  1  0  0  0  0
 17 21  2  0  0  0  0
  4 22  1  0  0  0  0
  5 23  1  0  0  0  0
 23 24  3  0  0  0  0
 24 25  1  0  0  0  0
 25 26  2  0  0  0  0
 26 27  1  0  0  0  0
 27 28  2  0  0  0  0
 28 29  1  0  0  0  0
 29 30  2  0  0  0  0
 30 25  1  0  0  0  0
 28 31  1  0  0  0  0
  1 32  1  0  0  0  0
 32 33  2  0  0  0  0
 33 34  1  0  0  0  0
 34 35  2  0  0  0  0
 35 36  1  0  0  0  0
 36 37  2  0  0  0  0
 37 32  1  0  0  0  0
 35 38  1  0  0  0  0
 20 39  1  0  0  0  0
M  END
>  <cdx:fragmentId>
5

$$$$
