93456.cdx
  Mrv1902 05222410272D          

 13 14  0  0  0  0            999 V2000
    4.5356   -6.2150    0.0000 C   0  0  2  0  0  0  0  0  0  0  0  0
    4.5356   -7.0400    0.0000 C   0  0  0  0  0  0  0  0  0  0  0  0
    5.2500   -7.4525    0.0000 C   0  0  0  0  0  0  0  0  0  0  0  0
    5.9645   -7.0400    0.0000 N   0  3  0  0  0  0  0  0  0  0  0  0
    5.9645   -6.2150    0.0000 C   0  0  2  0  0  0  0  0  0  0  0  0
    5.2500   -5.8025    0.0000 C   0  0  0  0  0  0  0  0  0  0  0  0
    6.6790   -7.4525    0.0000 C   0  0  0  0  0  0  0  0  0  0  0  0
    7.3934   -7.0400    0.0000 C   0  0  0  0  0  0  0  0  0  0  0  0
    7.3934   -6.2150    0.0000 C   0  0  0  0  0  0  0  0  0  0  0  0
    6.6790   -5.8025    0.0000 C   0  0  0  0  0  0  0  0  0  0  0  0
    3.8211   -5.8025    0.0000 C   0  0  0  0  0  0  0  0  0  0  0  0
    5.9645   -5.3900    0.0000 H   0  0  0  0  0  0  0  0  0  0  0  0
    5.2500   -8.2775    0.0000 C   0  0  0  0  0  0  0  0  0  0  0  0
  1  2  1  0  0  0  0
  2  3  1  0  0  0  0
  3  4  2  0  0  0  0
  4  5  1  0  0  0  0
  5  6  1  0  0  0  0
  6  1  1  0  0  0  0
  4  7  1  0  0  0  0
  7  8  1  0  0  0  0
  8  9  1  0  0  0  0
  9 10  1  0  0  0  0
 10  5  1  0  0  0  0
  1 11  1  1  0  0  0
  5 12  1  1  0  0  0
  3 13  1  0  0  0  0
M  CHG  1   4   1
M  END
>  <cdx:fragmentId>
5

$$$$
