93451.cdx
  Mrv1902 05222410282D          

 16 17  0  0  0  0            999 V2000
    4.6043   -5.8988    0.0000 C   0  0  0  0  0  0  0  0  0  0  0  0
    4.6043   -6.7237    0.0000 C   0  0  0  0  0  0  0  0  0  0  0  0
    5.3188   -7.1362    0.0000 C   0  0  0  0  0  0  0  0  0  0  0  0
    6.0332   -6.7237    0.0000 C   0  0  0  0  0  0  0  0  0  0  0  0
    6.0332   -5.8988    0.0000 C   0  0  0  0  0  0  0  0  0  0  0  0
    5.3188   -5.4863    0.0000 C   0  0  0  0  0  0  0  0  0  0  0  0
    6.7477   -7.1362    0.0000 C   0  0  2  0  0  0  0  0  0  0  0  0
    7.4622   -6.7237    0.0000 C   0  0  0  0  0  0  0  0  0  0  0  0
    7.4622   -5.8988    0.0000 C   0  0  0  0  0  0  0  0  0  0  0  0
    6.7477   -5.4863    0.0000 C   0  0  0  0  0  0  0  0  0  0  0  0
    5.3188   -7.9612    0.0000 C   0  0  0  0  0  0  0  0  0  0  0  0
    6.0332   -5.0737    0.0000 C   0  0  0  0  0  0  0  0  0  0  0  0
    8.1767   -7.1362    0.0000 C   0  0  0  0  0  0  0  0  0  0  0  0
    8.8911   -6.7237    0.0000 C   0  0  0  0  0  0  0  0  0  0  0  0
    8.1767   -7.9612    0.0000 C   0  0  0  0  0  0  0  0  0  0  0  0
    6.7477   -7.9612    0.0000 O   0  0  0  0  0  0  0  0  0  0  0  0
  1  2  1  0  0  0  0
  2  3  2  0  0  0  0
  3  4  1  0  0  0  0
  4  5  1  0  0  0  0
  5  6  1  0  0  0  0
  6  1  1  0  0  0  0
  4  7  1  0  0  0  0
  7  8  1  0  0  0  0
  8  9  1  0  0  0  0
  9 10  1  0  0  0  0
 10  5  1  0  0  0  0
  3 11  1  0  0  0  0
  5 12  1  0  0  0  0
  8 13  1  0  0  0  0
 13 14  2  0  0  0  0
 13 15  1  0  0  0  0
  7 16  1  6  0  0  0
M  END
>  <cdx:fragmentId>
9

$$$$
