93454.cdx
  Mrv1902 05222410262D          

 91 98  0  0  0  0            999 V2000
    6.7906   -6.8613    0.0000 C   0  0  2  0  0  0  0  0  0  0  0  0
    6.7906   -7.6863    0.0000 C   0  0  2  0  0  0  0  0  0  0  0  0
    7.5050   -8.0987    0.0000 C   0  0  1  0  0  0  0  0  0  0  0  0
    8.2195   -7.6863    0.0000 C   0  0  2  0  0  0  0  0  0  0  0  0
    8.2195   -6.8613    0.0000 C   0  0  2  0  0  0  0  0  0  0  0  0
    7.5050   -6.4487    0.0000 O   0  0  0  0  0  0  0  0  0  0  0  0
    6.0761   -6.4487    0.0000 C   0  0  0  0  0  0  0  0  0  0  0  0
    7.5050   -8.9238    0.0000 O   0  0  0  0  0  0  0  0  0  0  0  0
    8.9340   -6.4487    0.0000 O   0  0  0  0  0  0  0  0  0  0  0  0
    6.0618   -8.1030    0.0000 O   0  0  0  0  0  0  0  0  0  0  0  0
    8.9340   -8.0987    0.0000 O   0  0  0  0  0  0  0  0  0  0  0  0
    7.1063   -9.6460    0.0000 C   0  0  2  0  0  0  0  0  0  0  0  0
    6.2815   -9.6619    0.0000 O   0  0  0  0  0  0  0  0  0  0  0  0
    5.8828  -10.3841    0.0000 C   0  0  1  0  0  0  0  0  0  0  0  0
    6.3089  -11.0905    0.0000 C   0  0  2  0  0  0  0  0  0  0  0  0
    7.1338  -11.0747    0.0000 C   0  0  1  0  0  0  0  0  0  0  0  0
    7.5325  -10.3524    0.0000 C   0  0  1  0  0  0  0  0  0  0  0  0
    7.5599  -11.7811    0.0000 O   0  0  0  0  0  0  0  0  0  0  0  0
    5.9102  -11.8128    0.0000 O   0  0  0  0  0  0  0  0  0  0  0  0
    8.3573  -10.3366    0.0000 O   0  0  0  0  0  0  0  0  0  0  0  0
    5.1895  -12.2143    0.0000 C   0  0  2  0  0  0  0  0  0  0  0  0
    4.4814  -11.7910    0.0000 O   0  0  0  0  0  0  0  0  0  0  0  0
    3.7608  -12.1925    0.0000 C   0  0  1  0  0  0  0  0  0  0  0  0
    3.7482  -13.0174    0.0000 C   0  0  2  0  0  0  0  0  0  0  0  0
    4.4563  -13.4408    0.0000 C   0  0  1  0  0  0  0  0  0  0  0  0
    5.1769  -13.0392    0.0000 C   0  0  1  0  0  0  0  0  0  0  0  0
    3.0527  -11.7692    0.0000 C   0  0  0  0  0  0  0  0  0  0  0  0
    4.4437  -14.2657    0.0000 O   0  0  0  0  0  0  0  0  0  0  0  0
    3.0275  -13.4190    0.0000 O   0  0  0  0  0  0  0  0  0  0  0  0
    5.8850  -13.4626    0.0000 O   0  0  0  0  0  0  0  0  0  0  0  0
    2.3320  -12.1707    0.0000 O   0  0  0  0  0  0  0  0  0  0  0  0
    9.3439   -8.7996    0.0000 C   0  0  2  0  0  0  0  0  0  0  0  0
    8.9303   -9.5134    0.0000 O   0  0  0  0  0  0  0  0  0  0  0  0
    9.3417  -10.2285    0.0000 C   0  0  1  0  0  0  0  0  0  0  0  0
   10.1667  -10.2297    0.0000 C   0  0  2  0  0  0  0  0  0  0  0  0
   10.5803   -9.5159    0.0000 C   0  0  1  0  0  0  0  0  0  0  0  0
   10.1689   -8.8008    0.0000 C   0  0  1  0  0  0  0  0  0  0  0  0
    8.9281  -10.9424    0.0000 C   0  0  0  0  0  0  0  0  0  0  0  0
   11.4053   -9.5171    0.0000 O   0  0  0  0  0  0  0  0  0  0  0  0
   10.5781  -10.9448    0.0000 O   0  0  0  0  0  0  0  0  0  0  0  0
   10.5824   -8.0870    0.0000 O   0  0  0  0  0  0  0  0  0  0  0  0
    9.3396  -11.6574    0.0000 O   0  0  0  0  0  0  0  0  0  0  0  0
   10.8613   -7.2691    0.0000 C   0  0  2  0  0  0  0  0  0  0  0  0
   11.1296   -6.4890    0.0000 C   0  0  2  0  0  0  0  0  0  0  0  0
   10.4706   -5.9927    0.0000 C   0  0  1  0  0  0  0  0  0  0  0  0
    9.7950   -6.4661    0.0000 C   0  0  1  0  0  0  0  0  0  0  0  0
   10.0364   -7.2549    0.0000 O   0  0  0  0  0  0  0  0  0  0  0  0
   11.3347   -7.9447    0.0000 C   0  0  0  0  0  0  0  0  0  0  0  0
   10.4848   -5.1678    0.0000 O   0  0  0  0  0  0  0  0  0  0  0  0
   11.9185   -6.2475    0.0000 O   0  0  0  0  0  0  0  0  0  0  0  0
   12.1565   -7.8726    0.0000 O   0  0  0  0  0  0  0  0  0  0  0  0
   11.6999   -4.4147    0.0000 C   0  0  0  0  0  0  0  0  0  0  0  0
   12.1323   -5.1173    0.0000 C   0  0  0  0  0  0  0  0  0  0  0  0
   12.9570   -5.0942    0.0000 C   0  0  0  0  0  0  0  0  0  0  0  0
   13.3493   -4.3684    0.0000 C   0  0  0  0  0  0  0  0  0  0  0  0
   12.9169   -3.6658    0.0000 C   0  0  0  0  0  0  0  0  0  0  0  0
   12.0922   -3.6889    0.0000 C   0  0  0  0  0  0  0  0  0  0  0  0
   10.8752   -4.4378    0.0000 C   0  0  0  0  0  0  0  0  0  0  0  0
   10.4429   -3.7352    0.0000 O   0  0  0  0  0  0  0  0  0  0  0  0
    3.0227   -8.8412    0.0000 C   0  0  0  0  0  0  0  0  0  0  0  0
    3.0404   -8.0163    0.0000 C   0  0  0  0  0  0  0  0  0  0  0  0
    2.3349   -7.5886    0.0000 C   0  0  0  0  0  0  0  0  0  0  0  0
    1.6118   -7.9857    0.0000 C   0  0  0  0  0  0  0  0  0  0  0  0
    1.5941   -8.8105    0.0000 C   0  0  0  0  0  0  0  0  0  0  0  0
    2.2996   -9.2382    0.0000 C   0  0  0  0  0  0  0  0  0  0  0  0
    0.8710   -9.2076    0.0000 O   0  0  0  0  0  0  0  0  0  0  0  0
    3.7636   -7.6193    0.0000 C   0  0  0  0  0  0  0  0  0  0  0  0
    4.4690   -8.0470    0.0000 C   0  0  0  0  0  0  0  0  0  0  0  0
    5.1922   -7.6499    0.0000 C   0  0  0  0  0  0  0  0  0  0  0  0
    5.2099   -6.8251    0.0000 O   0  0  0  0  0  0  0  0  0  0  0  0
    4.6471   -5.6238    0.0000 O   0  0  0  0  0  0  0  0  0  0  0  0
    5.3616   -4.3862    0.0000 C   0  0  0  0  0  0  0  0  0  0  0  0
    5.3616   -5.2113    0.0000 C   0  0  0  0  0  0  0  0  0  0  0  0
    6.0761   -5.6238    0.0000 O   0  0  0  0  0  0  0  0  0  0  0  0
    4.6318   -9.6935    0.0000 O   0  0  0  0  0  0  0  0  0  0  0  0
    5.0579  -10.4000    0.0000 C   0  0  0  0  0  0  0  0  0  0  0  0
    9.5814   -5.6692    0.0000 C   0  0  0  0  0  0  0  0  0  0  0  0
    8.7845   -5.4557    0.0000 O   0  0  0  0  0  0  0  0  0  0  0  0
    8.5710   -4.6588    0.0000 C   0  0  0  0  0  0  0  0  0  0  0  0
    7.7741   -4.4452    0.0000 C   0  0  0  0  0  0  0  0  0  0  0  0
    9.1544   -4.0754    0.0000 O   0  0  0  0  0  0  0  0  0  0  0  0
    7.5606   -3.6484    0.0000 C   0  0  0  0  0  0  0  0  0  0  0  0
    6.7637   -3.4348    0.0000 C   0  0  0  0  0  0  0  0  0  0  0  0
    6.5502   -2.6379    0.0000 C   0  0  0  0  0  0  0  0  0  0  0  0
    5.7533   -2.4244    0.0000 C   0  0  0  0  0  0  0  0  0  0  0  0
    5.1699   -3.0078    0.0000 C   0  0  0  0  0  0  0  0  0  0  0  0
    5.3835   -3.8047    0.0000 C   0  0  0  0  0  0  0  0  0  0  0  0
    6.1803   -4.0182    0.0000 C   0  0  0  0  0  0  0  0  0  0  0  0
    4.3730   -2.7942    0.0000 O   0  0  0  0  0  0  0  0  0  0  0  0
    0.9063   -7.5580    0.0000 O   0  0  0  0  0  0  0  0  0  0  0  0
    0.1832   -7.9551    0.0000 C   0  0  0  0  0  0  0  0  0  0  0  0
  1  2  1  0  0  0  0
  2  3  1  0  0  0  0
  3  4  1  0  0  0  0
  4  5  1  0  0  0  0
  5  6  1  0  0  0  0
  6  1  1  0  0  0  0
  1  7  1  1  0  0  0
  3  8  1  1  0  0  0
  5  9  1  6  0  0  0
  4 11  1  6  0  0  0
 12  8  1  1  0  0  0
 12 13  1  0  0  0  0
 13 14  1  0  0  0  0
 14 15  1  0  0  0  0
 15 16  1  0  0  0  0
 16 17  1  0  0  0  0
 17 12  1  0  0  0  0
 14 76  1  1  0  0  0
 16 18  1  1  0  0  0
 15 19  1  6  0  0  0
 17 20  1  6  0  0  0
 21 19  1  1  0  0  0
 21 22  1  0  0  0  0
 22 23  1  0  0  0  0
 23 24  1  0  0  0  0
 24 25  1  0  0  0  0
 25 26  1  0  0  0  0
 26 21  1  0  0  0  0
 23 27  1  1  0  0  0
 25 28  1  1  0  0  0
 24 29  1  6  0  0  0
 26 30  1  6  0  0  0
 27 31  1  0  0  0  0
 32 33  1  0  0  0  0
 33 34  1  0  0  0  0
 34 35  1  0  0  0  0
 35 36  1  0  0  0  0
 36 37  1  0  0  0  0
 37 32  1  0  0  0  0
 34 38  1  1  0  0  0
 36 39  1  1  0  0  0
 35 40  1  6  0  0  0
 37 41  1  6  0  0  0
 38 42  1  0  0  0  0
 32 11  1  1  0  0  0
 43 44  1  0  0  0  0
 44 45  1  0  0  0  0
 45 46  1  0  0  0  0
 46 47  1  0  0  0  0
 47 43  1  0  0  0  0
 43 48  1  1  0  0  0
 45 49  1  1  0  0  0
 44 50  1  6  0  0  0
 48 51  1  0  0  0  0
 73 71  2  0  0  0  0
  7 74  1  0  0  0  0
 52 53  2  0  0  0  0
 53 54  1  0  0  0  0
 54 55  2  0  0  0  0
 55 56  1  0  0  0  0
 56 57  2  0  0  0  0
 57 52  1  0  0  0  0
 52 58  1  0  0  0  0
 58 59  2  0  0  0  0
 58 49  1  0  0  0  0
 60 61  2  0  0  0  0
 61 62  1  0  0  0  0
 62 63  2  0  0  0  0
 63 64  1  0  0  0  0
 64 65  2  0  0  0  0
 65 60  1  0  0  0  0
 64 66  1  0  0  0  0
 61 67  1  0  0  0  0
 67 68  2  0  0  0  0
 68 69  1  0  0  0  0
 69 70  2  0  0  0  0
 69 10  1  0  0  0  0
 73 72  1  0  0  0  0
 74 73  1  0  0  0  0
 76 75  1  0  0  0  0
  2 10  1  6  0  0  0
 46  9  1  1  0  0  0
 46 77  1  6  0  0  0
 77 78  1  0  0  0  0
 78 79  1  0  0  0  0
 79 80  1  0  0  0  0
 79 81  2  0  0  0  0
 80 82  2  0  0  0  0
 82 83  1  0  0  0  0
 83 84  2  0  0  0  0
 84 85  1  0  0  0  0
 85 86  2  0  0  0  0
 86 87  1  0  0  0  0
 87 88  2  0  0  0  0
 88 83  1  0  0  0  0
 86 89  1  0  0  0  0
 63 90  1  0  0  0  0
 90 91  1  0  0  0  0
M  END
>  <cdx:fragmentId>
5

$$$$
