93459.cdx
  Mrv1902 05222410202D          

 20 21  0  0  0  0            999 V2000
    7.2443   -6.4763    0.0000 C   0  0  0  0  0  0  0  0  0  0  0  0
    7.2443   -7.3012    0.0000 C   0  0  1  0  0  0  0  0  0  0  0  0
    7.9588   -7.7138    0.0000 C   0  0  1  0  0  0  0  0  0  0  0  0
    8.6732   -7.3012    0.0000 C   0  0  0  0  0  0  0  0  0  0  0  0
    8.6732   -6.4763    0.0000 C   0  0  0  0  0  0  0  0  0  0  0  0
    7.9588   -6.0638    0.0000 C   0  0  0  0  0  0  0  0  0  0  0  0
    9.4579   -7.5562    0.0000 C   0  0  0  0  0  0  0  0  0  0  0  0
    9.9428   -6.8888    0.0000 O   0  0  0  0  0  0  0  0  0  0  0  0
    9.4579   -6.2213    0.0000 C   0  0  0  0  0  0  0  0  0  0  0  0
    9.7128   -5.4367    0.0000 C   0  0  0  0  0  0  0  0  0  0  0  0
   11.5201   -4.2127    0.0000 C   0  0  0  0  0  0  0  0  0  0  0  0
   10.7232   -4.4263    0.0000 C   0  0  0  0  0  0  0  0  0  0  0  0
   10.5097   -5.2232    0.0000 C   0  0  0  0  0  0  0  0  0  0  0  0
    9.7128   -8.3408    0.0000 O   0  0  0  0  0  0  0  0  0  0  0  0
    6.5298   -7.7138    0.0000 C   0  0  0  0  0  0  0  0  0  0  0  0
    5.8154   -7.3012    0.0000 C   0  0  0  0  0  0  0  0  0  0  0  0
    5.1009   -7.7138    0.0000 C   0  0  0  0  0  0  0  0  0  0  0  0
    4.3864   -7.3012    0.0000 C   0  0  0  0  0  0  0  0  0  0  0  0
    7.9588   -8.5388    0.0000 O   0  0  0  0  0  0  0  0  0  0  0  0
    6.5298   -8.5388    0.0000 O   0  0  0  0  0  0  0  0  0  0  0  0
  1  2  1  0  0  0  0
  2  3  1  0  0  0  0
  3  4  1  0  0  0  0
  4  5  2  0  0  0  0
  5  6  1  0  0  0  0
  6  1  1  0  0  0  0
  4  7  1  0  0  0  0
  7  8  1  0  0  0  0
  8  9  1  0  0  0  0
  9  5  1  0  0  0  0
  9 10  2  0  0  0  0
 12 11  1  0  0  0  0
 10 13  1  0  0  0  0
 13 12  1  0  0  0  0
  7 14  2  0  0  0  0
  2 15  1  1  0  0  0
 15 16  1  0  0  0  0
 16 17  1  0  0  0  0
 17 18  1  0  0  0  0
  3 19  1  1  0  0  0
 15 20  2  0  0  0  0
M  END
>  <cdx:fragmentId>
5

$$$$
