934518.cdx
  Mrv1902 05222410232D          

 36 40  0  0  0  0            999 V2000
    5.5472   -8.0612    0.0000 C   0  0  0  0  0  0  0  0  0  0  0  0
    4.8328   -8.4737    0.0000 C   0  0  0  0  0  0  0  0  0  0  0  0
    4.8328   -9.2987    0.0000 C   0  0  1  0  0  0  0  0  0  0  0  0
    5.5472   -9.7112    0.0000 C   0  0  1  0  0  0  0  0  0  0  0  0
    6.2617   -9.2987    0.0000 C   0  0  2  0  0  0  0  0  0  0  0  0
    6.9762   -9.7112    0.0000 C   0  0  0  0  0  0  0  0  0  0  0  0
    7.6906   -9.2987    0.0000 C   0  0  0  0  0  0  0  0  0  0  0  0
    7.6906   -8.4737    0.0000 C   0  0  1  0  0  0  0  0  0  0  0  0
    8.4051   -8.0612    0.0000 C   0  0  2  0  0  0  0  0  0  0  0  0
    9.1196   -8.4737    0.0000 C   0  0  0  0  0  0  0  0  0  0  0  0
    9.8341   -8.0612    0.0000 C   0  0  1  0  0  0  0  0  0  0  0  0
    9.8341   -7.2362    0.0000 C   0  0  1  0  0  0  0  0  0  0  0  0
   10.5485   -6.8237    0.0000 C   0  0  0  0  0  0  0  0  0  0  0  0
   10.5485   -5.9987    0.0000 C   0  0  0  0  0  0  0  0  0  0  0  0
    9.8341   -5.5862    0.0000 C   0  0  1  0  0  0  0  0  0  0  0  0
    9.1196   -5.9987    0.0000 C   0  0  0  0  0  0  0  0  0  0  0  0
    9.1196   -6.8237    0.0000 C   0  0  1  0  0  0  0  0  0  0  0  0
    8.4051   -7.2362    0.0000 C   0  0  0  0  0  0  0  0  0  0  0  0
    7.6906   -6.8237    0.0000 C   0  0  0  0  0  0  0  0  0  0  0  0
    6.9762   -7.2362    0.0000 C   0  0  0  0  0  0  0  0  0  0  0  0
    6.9762   -8.0612    0.0000 C   0  0  0  0  0  0  0  0  0  0  0  0
    6.2617   -8.4737    0.0000 C   0  0  1  0  0  0  0  0  0  0  0  0
    4.1183   -9.7112    0.0000 O   0  0  0  0  0  0  0  0  0  0  0  0
   10.5485   -8.4737    0.0000 O   0  0  0  0  0  0  0  0  0  0  0  0
    6.2617   -7.6487    0.0000 C   0  0  0  0  0  0  0  0  0  0  0  0
    9.4216   -4.8717    0.0000 C   0  0  0  0  0  0  0  0  0  0  0  0
   10.2466   -4.8717    0.0000 C   0  0  0  0  0  0  0  0  0  0  0  0
    8.4051   -8.8862    0.0000 C   0  0  0  0  0  0  0  0  0  0  0  0
    7.6906   -7.6487    0.0000 C   0  0  0  0  0  0  0  0  0  0  0  0
    5.1347  -10.4257    0.0000 C   0  0  0  0  0  0  0  0  0  0  0  0
   10.5485   -7.6487    0.0000 C   0  0  0  0  0  0  0  0  0  0  0  0
   11.2630   -7.2362    0.0000 O   0  0  0  0  0  0  0  0  0  0  0  0
    5.9597  -10.4257    0.0000 C   0  0  0  0  0  0  0  0  0  0  0  0
    5.5472  -11.1401    0.0000 O   0  0  0  0  0  0  0  0  0  0  0  0
    6.2617  -10.1237    0.0000 H   0  0  0  0  0  0  0  0  0  0  0  0
    9.1196   -7.6487    0.0000 H   0  0  0  0  0  0  0  0  0  0  0  0
  1  2  1  0  0  0  0
  2  3  1  0  0  0  0
  3  4  1  0  0  0  0
  4  5  1  0  0  0  0
  5  6  1  0  0  0  0
  6  7  1  0  0  0  0
  7  8  1  0  0  0  0
  8  9  1  0  0  0  0
  9 10  1  0  0  0  0
 10 11  1  0  0  0  0
 11 12  1  0  0  0  0
 12 13  1  0  0  0  0
 13 14  1  0  0  0  0
 14 15  1  0  0  0  0
 15 16  1  0  0  0  0
 16 17  1  0  0  0  0
 12 17  1  0  0  0  0
 17 18  1  0  0  0  0
  9 18  1  0  0  0  0
 18 19  2  0  0  0  0
 19 20  1  0  0  0  0
 20 21  2  0  0  0  0
  8 21  1  0  0  0  0
 21 22  1  0  0  0  0
  5 22  1  0  0  0  0
  1 22  1  0  0  0  0
  3 23  1  1  0  0  0
 11 24  1  1  0  0  0
 22 25  1  1  0  0  0
 15 26  1  1  0  0  0
 15 27  1  6  0  0  0
  9 28  1  6  0  0  0
  8 29  1  1  0  0  0
  4 30  1  1  0  0  0
 31 32  1  0  0  0  0
 12 31  1  1  0  0  0
 33 34  1  0  0  0  0
  4 33  1  6  0  0  0
  5 35  1  6  0  0  0
 17 36  1  1  0  0  0
M  END
>  <cdx:fragmentId>
32502

$$$$
