93461.cdx
  Mrv1902 05222410182D          

 18 19  0  0  0  0            999 V2000
    5.4293   -7.2188    0.0000 C   0  0  0  0  0  0  0  0  0  0  0  0
    5.4293   -8.0437    0.0000 C   0  0  0  0  0  0  0  0  0  0  0  0
    6.1438   -8.4563    0.0000 C   0  0  2  0  0  0  0  0  0  0  0  0
    6.8582   -8.0437    0.0000 C   0  0  1  0  0  0  0  0  0  0  0  0
    6.8582   -7.2188    0.0000 C   0  0  2  0  0  0  0  0  0  0  0  0
    6.1438   -6.8062    0.0000 C   0  0  2  0  0  0  0  0  0  0  0  0
    7.5727   -8.4563    0.0000 C   0  0  0  0  0  0  0  0  0  0  0  0
    8.2872   -8.0437    0.0000 C   0  0  0  0  0  0  0  0  0  0  0  0
    8.2872   -7.2188    0.0000 C   0  0  0  0  0  0  0  0  0  0  0  0
    7.5727   -6.8062    0.0000 C   0  0  0  0  0  0  0  0  0  0  0  0
    6.7271   -6.2229    0.0000 C   0  0  0  0  0  0  0  0  0  0  0  0
    9.0017   -6.8062    0.0000 C   0  0  0  0  0  0  0  0  0  0  0  0
    9.7161   -7.2188    0.0000 C   0  0  0  0  0  0  0  0  0  0  0  0
    9.0017   -5.9813    0.0000 C   0  0  0  0  0  0  0  0  0  0  0  0
    5.5604   -6.2229    0.0000 O   0  0  0  0  0  0  0  0  0  0  0  0
    6.1438   -9.2813    0.0000 O   0  0  0  0  0  0  0  0  0  0  0  0
    6.8582   -8.8688    0.0000 C   0  0  0  0  0  0  0  0  0  0  0  0
    6.8582   -6.3937    0.0000 H   0  0  0  0  0  0  0  0  0  0  0  0
  1  2  1  0  0  0  0
  2  3  1  0  0  0  0
  3  4  1  0  0  0  0
  4  5  1  0  0  0  0
  5  6  1  0  0  0  0
  6  1  1  0  0  0  0
  4  7  1  0  0  0  0
  7  8  1  0  0  0  0
  8  9  2  0  0  0  0
  9 10  1  0  0  0  0
 10  5  1  0  0  0  0
  6 11  1  0  0  0  0
  9 12  1  0  0  0  0
 12 13  1  0  0  0  0
 12 14  1  0  0  0  0
  6 15  1  6  0  0  0
  3 16  1  6  0  0  0
  4 17  1  6  0  0  0
  5 18  1  1  0  0  0
M  END
>  <cdx:fragmentId>
5

$$$$
