93462.cdx
  Mrv1902 05222410192D          

 31 35  0  0  0  0            999 V2000
    5.7960   -9.0062    0.0000 C   0  0  1  0  0  0  0  0  0  0  0  0
    5.7960   -9.8312    0.0000 C   0  0  0  0  0  0  0  0  0  0  0  0
    6.4410  -10.3456    0.0000 C   0  0  0  0  0  0  0  0  0  0  0  0
    7.2453  -10.1620    0.0000 C   0  0  0  0  0  0  0  0  0  0  0  0
    7.6032   -9.4187    0.0000 C   0  0  0  0  0  0  0  0  0  0  0  0
    7.2453   -8.6755    0.0000 N   0  0  0  0  0  0  0  0  0  0  0  0
    6.4410   -8.4919    0.0000 C   0  0  1  0  0  0  0  0  0  0  0  0
    7.6684   -7.9672    0.0000 C   0  0  1  0  0  0  0  0  0  0  0  0
    7.1256   -7.3459    0.0000 C   0  0  0  0  0  0  0  0  0  0  0  0
    6.3670   -7.6702    0.0000 C   0  0  0  0  0  0  0  0  0  0  0  0
    8.4901   -7.8933    0.0000 C   0  0  1  0  0  0  0  0  0  0  0  0
    9.0329   -8.5146    0.0000 O   0  0  0  0  0  0  0  0  0  0  0  0
    9.7915   -8.1903    0.0000 C   0  0  0  0  0  0  0  0  0  0  0  0
    9.7176   -7.3686    0.0000 C   0  0  2  0  0  0  0  0  0  0  0  0
    8.9132   -7.1851    0.0000 C   0  0  0  0  0  0  0  0  0  0  0  0
   10.4997   -8.6135    0.0000 O   0  0  0  0  0  0  0  0  0  0  0  0
    5.8576   -7.9085    0.0000 C   0  0  1  0  0  0  0  0  0  0  0  0
    5.0607   -7.6950    0.0000 C   0  0  0  0  0  0  0  0  0  0  0  0
    4.3462   -8.1075    0.0000 C   0  0  1  0  0  0  0  0  0  0  0  0
    4.7587   -8.8220    0.0000 C   0  0  1  0  0  0  0  0  0  0  0  0
    4.3462   -7.2825    0.0000 O   0  0  0  0  0  0  0  0  0  0  0  0
    5.1975   -7.1225    0.0000 C   0  0  0  0  0  0  0  0  0  0  0  0
    5.4110   -6.3256    0.0000 O   0  0  0  0  0  0  0  0  0  0  0  0
    4.2851   -9.4974    0.0000 C   0  0  0  0  0  0  0  0  0  0  0  0
    4.2851  -10.3224    0.0000 C   0  0  0  0  0  0  0  0  0  0  0  0
   10.3388   -6.8258    0.0000 C   0  0  0  0  0  0  0  0  0  0  0  0
    8.2518   -8.5506    0.0000 H   0  0  0  0  0  0  0  0  0  0  0  0
    6.2701   -7.1940    0.0000 C   0  0  0  0  0  0  0  0  0  0  0  0
    3.5494   -8.3210    0.0000 H   0  0  0  0  0  0  0  0  0  0  0  0
    8.0512   -7.1947    0.0000 H   0  0  0  0  0  0  0  0  0  0  0  0
    5.2126   -9.5896    0.0000 H   0  0  0  0  0  0  0  0  0  0  0  0
  1  2  1  0  0  0  0
  2  3  1  0  0  0  0
  3  4  1  0  0  0  0
  4  5  1  0  0  0  0
  5  6  1  0  0  0  0
  6  7  1  0  0  0  0
  7  1  1  0  0  0  0
  6  8  1  0  0  0  0
  8  9  1  0  0  0  0
  9 10  1  0  0  0  0
  7 10  1  6  0  0  0
  8 11  1  0  0  0  0
 11 12  1  0  0  0  0
 12 13  1  0  0  0  0
 13 14  1  0  0  0  0
 14 15  1  0  0  0  0
 15 11  1  0  0  0  0
 13 16  2  0  0  0  0
  7 17  1  0  0  0  0
 17 18  1  0  0  0  0
 18 19  1  0  0  0  0
 19 20  1  0  0  0  0
 20  1  1  0  0  0  0
 19 21  1  1  0  0  0
 21 22  1  0  0  0  0
 17 22  1  1  0  0  0
 22 23  2  0  0  0  0
 20 24  1  6  0  0  0
 24 25  1  0  0  0  0
 14 26  1  6  0  0  0
  8 27  1  6  0  0  0
 17 28  1  6  0  0  0
 19 29  1  6  0  0  0
 11 30  1  1  0  0  0
  1 31  1  1  0  0  0
M  END
>  <cdx:fragmentId>
5

$$$$
