93460.cdx
  Mrv1902 05222410182D          

 31 35  0  0  0  0            999 V2000
    3.9718   -5.5687    0.0000 C   0  0  0  0  0  0  0  0  0  0  0  0
    3.9718   -6.3937    0.0000 C   0  0  0  0  0  0  0  0  0  0  0  0
    4.6863   -6.8062    0.0000 C   0  0  0  0  0  0  0  0  0  0  0  0
    5.4007   -6.3937    0.0000 C   0  0  0  0  0  0  0  0  0  0  0  0
    5.4007   -5.5687    0.0000 C   0  0  0  0  0  0  0  0  0  0  0  0
    4.6863   -5.1563    0.0000 C   0  0  0  0  0  0  0  0  0  0  0  0
    6.1152   -6.8062    0.0000 N   0  0  0  0  0  0  0  0  0  0  0  0
    6.8297   -6.3937    0.0000 C   0  0  0  0  0  0  0  0  0  0  0  0
    6.8297   -5.5687    0.0000 C   0  0  0  0  0  0  0  0  0  0  0  0
    7.5442   -6.8062    0.0000 C   0  0  0  0  0  0  0  0  0  0  0  0
    8.2586   -6.3937    0.0000 N   0  0  0  0  0  0  0  0  0  0  0  0
    8.2586   -5.5687    0.0000 C   0  0  0  0  0  0  0  0  0  0  0  0
    7.5442   -5.1563    0.0000 C   0  0  0  0  0  0  0  0  0  0  0  0
    7.5442   -7.6313    0.0000 C   0  0  0  0  0  0  0  0  0  0  0  0
    8.2586   -8.0437    0.0000 C   0  0  0  0  0  0  0  0  0  0  0  0
    8.9731   -7.6313    0.0000 C   0  0  0  0  0  0  0  0  0  0  0  0
    8.9731   -6.8062    0.0000 C   0  0  0  0  0  0  0  0  0  0  0  0
    8.2586   -8.8687    0.0000 C   0  0  0  0  0  0  0  0  0  0  0  0
    8.9731   -9.2812    0.0000 C   0  0  0  0  0  0  0  0  0  0  0  0
    9.6876   -8.8687    0.0000 C   0  0  0  0  0  0  0  0  0  0  0  0
    9.6876   -8.0437    0.0000 C   0  0  0  0  0  0  0  0  0  0  0  0
    3.2573   -5.1563    0.0000 O   0  0  0  0  0  0  0  0  0  0  0  0
    3.2573   -6.8062    0.0000 O   0  0  0  0  0  0  0  0  0  0  0  0
   10.4020   -9.2812    0.0000 H   0  0  0  0  0  0  0  0  0  0  0  0
    8.9731  -10.1062    0.0000 O   0  0  0  0  0  0  0  0  0  0  0  0
    7.5442   -9.2812    0.0000 C   0  0  0  0  0  0  0  0  0  0  0  0
    6.8297   -8.8687    0.0000 O   0  0  0  0  0  0  0  0  0  0  0  0
    7.5442  -10.1062    0.0000 O   0  0  0  0  0  0  0  0  0  0  0  0
    6.1152   -9.2812    0.0000 C   0  0  0  0  0  0  0  0  0  0  0  0
    3.2573   -7.6313    0.0000 C   0  0  0  0  0  0  0  0  0  0  0  0
    2.5429   -5.5687    0.0000 C   0  0  0  0  0  0  0  0  0  0  0  0
  1  2  2  0  0  0  0
  2  3  1  0  0  0  0
  3  4  2  0  0  0  0
  4  5  1  0  0  0  0
  5  6  2  0  0  0  0
  6  1  1  0  0  0  0
  4  7  1  0  0  0  0
  7  8  1  0  0  0  0
  8  9  2  0  0  0  0
  8 10  1  0  0  0  0
 10 11  1  0  0  0  0
 11 12  1  0  0  0  0
 12 13  1  0  0  0  0
 13  9  1  0  0  0  0
 10 14  1  0  0  0  0
 14 15  1  0  0  0  0
 15 16  1  0  0  0  0
 16 17  1  0  0  0  0
 17 11  1  0  0  0  0
 15 18  1  0  0  0  0
 18 19  1  0  0  0  0
 19 20  1  0  0  0  0
 20 21  1  0  0  0  0
 21 16  1  0  0  0  0
  1 22  1  0  0  0  0
  2 23  1  0  0  0  0
  5  9  1  0  0  0  0
 20 24  1  0  0  0  0
 19 25  1  0  0  0  0
 18 26  1  0  0  0  0
 26 27  1  0  0  0  0
 26 28  2  0  0  0  0
 27 29  1  0  0  0  0
 23 30  1  0  0  0  0
 22 31  1  0  0  0  0
M  END
>  <cdx:fragmentId>
5

$$$$
