93464.cdx
  Mrv1902 05222410202D          

 32 35  0  0  0  0            999 V2000
    3.1743   -8.7175    0.0000 C   0  0  0  0  0  0  0  0  0  0  0  0
    3.1743   -9.5425    0.0000 C   0  0  0  0  0  0  0  0  0  0  0  0
    3.8888   -9.9550    0.0000 C   0  0  1  0  0  0  0  0  0  0  0  0
    4.6032   -9.5425    0.0000 C   0  0  2  0  0  0  0  0  0  0  0  0
    4.6032   -8.7175    0.0000 C   0  0  0  0  0  0  0  0  0  0  0  0
    3.8888   -8.3050    0.0000 C   0  0  0  0  0  0  0  0  0  0  0  0
    5.3177   -9.9550    0.0000 C   0  0  0  0  0  0  0  0  0  0  0  0
    6.0322   -9.5425    0.0000 C   0  0  0  0  0  0  0  0  0  0  0  0
    6.0322   -8.7175    0.0000 C   0  0  0  0  0  0  0  0  0  0  0  0
    5.3177   -8.3050    0.0000 C   0  0  1  0  0  0  0  0  0  0  0  0
    6.7467   -8.3050    0.0000 C   0  0  2  0  0  0  0  0  0  0  0  0
    6.7467   -7.4800    0.0000 C   0  0  1  0  0  0  0  0  0  0  0  0
    6.0322   -7.0675    0.0000 C   0  0  0  0  0  0  0  0  0  0  0  0
    5.3177   -7.4800    0.0000 C   0  0  0  0  0  0  0  0  0  0  0  0
    7.4611   -8.7175    0.0000 C   0  0  0  0  0  0  0  0  0  0  0  0
    8.1756   -8.3050    0.0000 C   0  0  0  0  0  0  0  0  0  0  0  0
    8.1756   -7.4800    0.0000 C   0  0  2  0  0  0  0  0  0  0  0  0
    7.4611   -7.0675    0.0000 C   0  0  0  0  0  0  0  0  0  0  0  0
    2.4598   -9.9550    0.0000 O   0  0  0  0  0  0  0  0  0  0  0  0
    8.8901   -7.0675    0.0000 C   0  0  0  0  0  0  0  0  0  0  0  0
    9.6045   -7.4800    0.0000 C   0  0  0  0  0  0  0  0  0  0  0  0
   10.3190   -7.0675    0.0000 C   0  0  0  0  0  0  0  0  0  0  0  0
   11.0335   -7.4800    0.0000 C   0  0  0  0  0  0  0  0  0  0  0  0
   11.7480   -7.0675    0.0000 C   0  0  0  0  0  0  0  0  0  0  0  0
   10.3190   -6.2425    0.0000 O   0  0  0  0  0  0  0  0  0  0  0  0
   11.0335   -8.3050    0.0000 C   0  0  0  0  0  0  0  0  0  0  0  0
    8.1756   -6.6550    0.0000 C   0  0  0  0  0  0  0  0  0  0  0  0
    6.7467   -9.1300    0.0000 C   0  0  0  0  0  0  0  0  0  0  0  0
    3.8888  -10.7800    0.0000 C   0  0  0  0  0  0  0  0  0  0  0  0
    4.6032  -10.3675    0.0000 C   0  0  0  0  0  0  0  0  0  0  0  0
    6.7467   -6.6550    0.0000 C   0  0  0  0  0  0  0  0  0  0  0  0
    5.3177   -9.1300    0.0000 C   0  0  0  0  0  0  0  0  0  0  0  0
  1  2  1  0  0  0  0
  2  3  1  0  0  0  0
  3  4  1  0  0  0  0
  4  5  1  0  0  0  0
  5  6  1  0  0  0  0
  6  1  1  0  0  0  0
  4  7  1  0  0  0  0
  7  8  1  0  0  0  0
  8  9  1  0  0  0  0
  9 10  1  0  0  0  0
 10  5  1  0  0  0  0
  9 11  1  0  0  0  0
 11 12  1  0  0  0  0
 12 13  1  0  0  0  0
 13 14  1  0  0  0  0
 14 10  1  0  0  0  0
 11 15  1  0  0  0  0
 15 16  1  0  0  0  0
 16 17  1  0  0  0  0
 17 18  1  0  0  0  0
 18 12  1  0  0  0  0
  2 19  2  0  0  0  0
 17 20  1  6  0  0  0
 20 21  1  0  0  0  0
 21 22  1  0  0  0  0
 22 23  1  0  0  0  0
 23 24  1  0  0  0  0
 22 25  2  0  0  0  0
 23 26  2  0  0  0  0
 17 27  1  1  0  0  0
 11 28  1  1  0  0  0
  3 29  1  1  0  0  0
  4 30  1  1  0  0  0
 12 31  1  6  0  0  0
 10 32  1  1  0  0  0
M  END
>  <cdx:fragmentId>
5

$$$$
