93463.cdx
  Mrv1902 05222410192D          

 27 28  0  0  0  0            999 V2000
    2.8173   -8.3463    0.0000 O   0  0  0  0  0  0  0  0  0  0  0  0
    2.1029   -9.5838    0.0000 C   0  0  0  0  0  0  0  0  0  0  0  0
    2.8173   -9.9963    0.0000 O   0  0  0  0  0  0  0  0  0  0  0  0
    4.9607   -9.5837    0.0000 C   0  0  0  0  0  0  0  0  0  0  0  0
    4.9607   -8.7588    0.0000 C   0  0  0  0  0  0  0  0  0  0  0  0
    4.2463   -8.3462    0.0000 C   0  0  0  0  0  0  0  0  0  0  0  0
    3.5318   -8.7588    0.0000 C   0  0  0  0  0  0  0  0  0  0  0  0
    3.5318   -9.5838    0.0000 C   0  0  0  0  0  0  0  0  0  0  0  0
    4.2463   -9.9962    0.0000 C   0  0  0  0  0  0  0  0  0  0  0  0
    5.6752   -8.3462    0.0000 C   0  0  0  0  0  0  0  0  0  0  0  0
    6.3897   -8.7587    0.0000 C   0  0  0  0  0  0  0  0  0  0  0  0
    7.1042   -8.3462    0.0000 C   0  0  0  0  0  0  0  0  0  0  0  0
    7.8186   -8.7587    0.0000 O   0  0  0  0  0  0  0  0  0  0  0  0
    7.1042   -7.5212    0.0000 O   0  0  0  0  0  0  0  0  0  0  0  0
    8.5331   -8.3462    0.0000 C   0  0  2  0  0  0  0  0  0  0  0  0
    9.2476   -8.7587    0.0000 C   0  0  0  0  0  0  0  0  0  0  0  0
    9.9620   -8.3462    0.0000 C   0  0  0  0  0  0  0  0  0  0  0  0
   10.6765   -8.7587    0.0000 C   0  0  0  0  0  0  0  0  0  0  0  0
   11.3910   -8.3462    0.0000 C   0  0  0  0  0  0  0  0  0  0  0  0
   11.3910   -7.5212    0.0000 C   0  0  0  0  0  0  0  0  0  0  0  0
   10.6765   -7.1087    0.0000 C   0  0  0  0  0  0  0  0  0  0  0  0
    9.9620   -7.5212    0.0000 C   0  0  0  0  0  0  0  0  0  0  0  0
   12.1055   -7.1087    0.0000 O   0  0  0  0  0  0  0  0  0  0  0  0
   12.1055   -8.7587    0.0000 O   0  0  0  0  0  0  0  0  0  0  0  0
    8.5331   -7.5212    0.0000 C   0  0  0  0  0  0  0  0  0  0  0  0
    9.2476   -7.1087    0.0000 O   0  0  0  0  0  0  0  0  0  0  0  0
    7.8186   -7.1087    0.0000 O   0  0  0  0  0  0  0  0  0  0  0  0
  7  1  1  0  0  0  0
  3  2  1  0  0  0  0
  8  3  1  0  0  0  0
  4  9  1  0  0  0  0
  5  4  2  0  0  0  0
  6  5  1  0  0  0  0
  7  6  2  0  0  0  0
  8  7  1  0  0  0  0
  9  8  2  0  0  0  0
  5 10  1  0  0  0  0
 10 11  2  0  0  0  0
 11 12  1  0  0  0  0
 12 13  1  0  0  0  0
 12 14  2  0  0  0  0
 13 15  1  0  0  0  0
 15 16  1  0  0  0  0
 16 17  1  0  0  0  0
 17 18  2  0  0  0  0
 18 19  1  0  0  0  0
 19 20  2  0  0  0  0
 20 21  1  0  0  0  0
 21 22  2  0  0  0  0
 22 17  1  0  0  0  0
 20 23  1  0  0  0  0
 19 24  1  0  0  0  0
 15 25  1  1  0  0  0
 25 26  1  0  0  0  0
 25 27  2  0  0  0  0
M  END
>  <cdx:fragmentId>
5

$$$$
