93467.cdx
  Mrv1902 05222410192D          

 48 53  0  0  0  0            999 V2000
    2.7893   -9.4462    0.0000 C   0  0  0  0  0  0  0  0  0  0  0  0
    2.7893  -10.2713    0.0000 C   0  0  1  0  0  0  0  0  0  0  0  0
    3.5038  -10.6837    0.0000 C   0  0  1  0  0  0  0  0  0  0  0  0
    4.2182  -10.2713    0.0000 C   0  0  1  0  0  0  0  0  0  0  0  0
    4.2182   -9.4462    0.0000 C   0  0  2  0  0  0  0  0  0  0  0  0
    3.5038   -9.0337    0.0000 C   0  0  0  0  0  0  0  0  0  0  0  0
    4.9327  -10.6837    0.0000 C   0  0  0  0  0  0  0  0  0  0  0  0
    5.6472  -10.2713    0.0000 C   0  0  0  0  0  0  0  0  0  0  0  0
    5.6472   -9.4462    0.0000 C   0  0  2  0  0  0  0  0  0  0  0  0
    4.9327   -9.0337    0.0000 C   0  0  2  0  0  0  0  0  0  0  0  0
    6.3617   -9.0337    0.0000 C   0  0  1  0  0  0  0  0  0  0  0  0
    6.3617   -8.2088    0.0000 C   0  0  0  0  0  0  0  0  0  0  0  0
    5.6472   -7.7963    0.0000 C   0  0  0  0  0  0  0  0  0  0  0  0
    4.9327   -8.2088    0.0000 C   0  0  0  0  0  0  0  0  0  0  0  0
    7.0761   -9.4462    0.0000 C   0  0  0  0  0  0  0  0  0  0  0  0
    7.7906   -9.0337    0.0000 C   0  0  0  0  0  0  0  0  0  0  0  0
    7.7906   -8.2088    0.0000 C   0  0  0  0  0  0  0  0  0  0  0  0
    7.0761   -7.7963    0.0000 C   0  0  1  0  0  0  0  0  0  0  0  0
    8.5051   -7.7963    0.0000 C   0  0  0  0  0  0  0  0  0  0  0  0
    8.5051   -6.9712    0.0000 C   0  0  0  0  0  0  0  0  0  0  0  0
    7.7906   -6.5587    0.0000 C   0  0  1  0  0  0  0  0  0  0  0  0
    7.0761   -6.9712    0.0000 C   0  0  1  0  0  0  0  0  0  0  0  0
    8.5051   -8.6212    0.0000 C   0  0  0  0  0  0  0  0  0  0  0  0
    8.5051   -9.4462    0.0000 O   0  0  0  0  0  0  0  0  0  0  0  0
    9.2195   -9.8588    0.0000 O   0  0  0  0  0  0  0  0  0  0  0  0
    9.9340   -9.4462    0.0000 C   0  0  1  0  0  0  0  0  0  0  0  0
    9.9340   -8.6212    0.0000 C   0  0  2  0  0  0  0  0  0  0  0  0
    9.2195   -8.2088    0.0000 O   0  0  0  0  0  0  0  0  0  0  0  0
   10.6485   -9.8588    0.0000 C   0  0  2  0  0  0  0  0  0  0  0  0
   11.3630   -9.4462    0.0000 C   0  0  1  0  0  0  0  0  0  0  0  0
   11.3630   -8.6212    0.0000 C   0  0  2  0  0  0  0  0  0  0  0  0
   10.6485   -8.2088    0.0000 O   0  0  0  0  0  0  0  0  0  0  0  0
   12.0774   -9.8588    0.0000 O   0  0  0  0  0  0  0  0  0  0  0  0
   12.7919   -8.6212    0.0000 O   0  0  0  0  0  0  0  0  0  0  0  0
   12.0774   -8.2088    0.0000 C   0  0  0  0  0  0  0  0  0  0  0  0
    2.0748  -10.6837    0.0000 O   0  0  0  0  0  0  0  0  0  0  0  0
    3.0913  -11.3982    0.0000 C   0  0  0  0  0  0  0  0  0  0  0  0
    4.2182   -8.6212    0.0000 C   0  0  0  0  0  0  0  0  0  0  0  0
    5.6472   -8.6212    0.0000 C   0  0  0  0  0  0  0  0  0  0  0  0
    7.0761   -8.6212    0.0000 H   0  0  0  0  0  0  0  0  0  0  0  0
    7.3781   -5.8443    0.0000 C   0  0  0  0  0  0  0  0  0  0  0  0
   10.6485  -10.6837    0.0000 O   0  0  0  0  0  0  0  0  0  0  0  0
    8.2031   -5.8443    0.0000 C   0  0  0  0  0  0  0  0  0  0  0  0
    6.3617   -6.5587    0.0000 O   0  0  0  0  0  0  0  0  0  0  0  0
    6.3617   -9.8588    0.0000 C   0  0  0  0  0  0  0  0  0  0  0  0
    4.9327   -9.8588    0.0000 H   0  0  0  0  0  0  0  0  0  0  0  0
    4.2182  -11.0962    0.0000 H   0  0  0  0  0  0  0  0  0  0  0  0
    3.9163  -11.3982    0.0000 C   0  0  0  0  0  0  0  0  0  0  0  0
  1  2  1  0  0  0  0
  2  3  1  0  0  0  0
  3  4  1  0  0  0  0
  4  5  1  0  0  0  0
  5  6  1  0  0  0  0
  6  1  1  0  0  0  0
  4  7  1  0  0  0  0
  7  8  1  0  0  0  0
  8  9  1  0  0  0  0
  9 10  1  0  0  0  0
 10  5  1  0  0  0  0
  9 11  1  0  0  0  0
 11 12  1  0  0  0  0
 12 13  2  0  0  0  0
 13 14  1  0  0  0  0
 14 10  1  0  0  0  0
 11 15  1  0  0  0  0
 15 16  1  0  0  0  0
 16 17  1  0  0  0  0
 17 18  1  0  0  0  0
 18 12  1  0  0  0  0
 17 19  1  0  0  0  0
 19 20  1  0  0  0  0
 20 21  1  0  0  0  0
 21 22  1  0  0  0  0
 22 18  1  0  0  0  0
 17 23  1  0  0  0  0
 23 24  2  0  0  0  0
 26 25  1  1  0  0  0
 26 27  1  0  0  0  0
 27 28  1  6  0  0  0
 28 23  1  0  0  0  0
 26 29  1  0  0  0  0
 29 30  1  0  0  0  0
 30 31  1  0  0  0  0
 31 32  1  0  0  0  0
 32 27  1  0  0  0  0
 30 33  1  1  0  0  0
 34 35  1  0  0  0  0
 31 35  1  6  0  0  0
  2 36  1  1  0  0  0
  3 37  1  1  0  0  0
  5 38  1  1  0  0  0
  9 39  1  1  0  0  0
 18 40  1  1  0  0  0
 21 41  1  1  0  0  0
 29 42  1  6  0  0  0
 21 43  1  6  0  0  0
 22 44  1  6  0  0  0
 11 45  1  6  0  0  0
 10 46  1  6  0  0  0
  4 47  1  6  0  0  0
  3 48  1  6  0  0  0
M  END
>  <cdx:fragmentId>
5

$$$$
