93465.cdx
  Mrv1902 05222410202D          

 31 34  0  0  0  0            999 V2000
    8.1656   -7.1500    0.0000 O   0  0  0  0  0  0  0  0  0  0  0  0
    8.1656   -7.9750    0.0000 C   0  0  1  0  0  0  0  0  0  0  0  0
    8.8800   -8.3875    0.0000 C   0  0  2  0  0  0  0  0  0  0  0  0
    9.5945   -7.9750    0.0000 C   0  0  1  0  0  0  0  0  0  0  0  0
    9.5945   -7.1500    0.0000 C   0  0  2  0  0  0  0  0  0  0  0  0
    8.8800   -6.7375    0.0000 C   0  0  2  0  0  0  0  0  0  0  0  0
    8.8800   -5.9125    0.0000 O   0  0  0  0  0  0  0  0  0  0  0  0
    7.4511   -8.3875    0.0000 C   0  0  0  0  0  0  0  0  0  0  0  0
   10.3090   -8.3875    0.0000 O   0  0  0  0  0  0  0  0  0  0  0  0
   10.3090   -6.7375    0.0000 O   0  0  0  0  0  0  0  0  0  0  0  0
    8.8800   -9.2125    0.0000 O   0  0  0  0  0  0  0  0  0  0  0  0
    8.1656   -5.5000    0.0000 C   0  0  0  0  0  0  0  0  0  0  0  0
    8.1656   -4.6750    0.0000 C   0  0  1  0  0  0  0  0  0  0  0  0
    8.8800   -4.2625    0.0000 C   0  0  1  0  0  0  0  0  0  0  0  0
    8.8800   -3.4375    0.0000 C   0  0  1  0  0  0  0  0  0  0  0  0
    8.1656   -3.0250    0.0000 C   0  0  0  0  0  0  0  0  0  0  0  0
    7.4511   -3.4375    0.0000 C   0  0  0  0  0  0  0  0  0  0  0  0
    7.4511   -4.2625    0.0000 C   0  0  2  0  0  0  0  0  0  0  0  0
    7.9873   -3.5205    0.0000 C   0  0  0  0  0  0  0  0  0  0  0  0
    9.7050   -4.2625    0.0000 C   0  0  0  0  0  0  0  0  0  0  0  0
    9.2925   -4.9770    0.0000 C   0  0  0  0  0  0  0  0  0  0  0  0
    6.7366   -7.9750    0.0000 O   0  0  0  0  0  0  0  0  0  0  0  0
    6.0221   -8.3875    0.0000 C   0  0  2  0  0  0  0  0  0  0  0  0
    5.2685   -8.0519    0.0000 O   0  0  0  0  0  0  0  0  0  0  0  0
    4.7164   -8.6650    0.0000 C   0  0  0  0  0  0  0  0  0  0  0  0
    5.1289   -9.3795    0.0000 C   0  0  1  0  0  0  0  0  0  0  0  0
    5.9359   -9.2080    0.0000 C   0  0  1  0  0  0  0  0  0  0  0  0
    5.3425  -10.1764    0.0000 C   0  0  0  0  0  0  0  0  0  0  0  0
    4.5456   -9.9629    0.0000 O   0  0  0  0  0  0  0  0  0  0  0  0
    6.5490   -9.7600    0.0000 O   0  0  0  0  0  0  0  0  0  0  0  0
    4.7591  -10.7598    0.0000 O   0  0  0  0  0  0  0  0  0  0  0  0
  1  2  1  0  0  0  0
  2  3  1  0  0  0  0
  3  4  1  0  0  0  0
  4  5  1  0  0  0  0
  5  6  1  0  0  0  0
  6  1  1  0  0  0  0
  6  7  1  1  0  0  0
  2  8  1  1  0  0  0
  4  9  1  1  0  0  0
  5 10  1  6  0  0  0
  3 11  1  6  0  0  0
  7 12  1  0  0  0  0
 13 12  1  6  0  0  0
 13 14  1  0  0  0  0
 14 15  1  0  0  0  0
 15 16  1  0  0  0  0
 16 17  1  0  0  0  0
 17 18  1  0  0  0  0
 18 13  1  0  0  0  0
 18 19  1  1  0  0  0
 15 19  1  1  0  0  0
 14 20  1  1  0  0  0
 14 21  1  6  0  0  0
  8 22  1  0  0  0  0
 23 22  1  1  0  0  0
 23 24  1  0  0  0  0
 24 25  1  0  0  0  0
 25 26  1  0  0  0  0
 26 27  1  0  0  0  0
 27 23  1  0  0  0  0
 26 28  1  1  0  0  0
 26 29  1  6  0  0  0
 27 30  1  6  0  0  0
 28 31  1  0  0  0  0
M  END
>  <cdx:fragmentId>
5

$$$$
