93479.cdx
  Mrv1902 05222410282D          

 34 38  0  0  0  0            999 V2000
    3.5868   -9.1162    0.0000 C   0  0  0  0  0  0  0  0  0  0  0  0
    3.5868   -9.9413    0.0000 C   0  0  0  0  0  0  0  0  0  0  0  0
    4.3013  -10.3537    0.0000 C   0  0  0  0  0  0  0  0  0  0  0  0
    5.0157   -9.9413    0.0000 C   0  0  0  0  0  0  0  0  0  0  0  0
    5.0157   -9.1162    0.0000 C   0  0  2  0  0  0  0  0  0  0  0  0
    4.3013   -8.7037    0.0000 C   0  0  0  0  0  0  0  0  0  0  0  0
    5.7302  -10.3537    0.0000 C   0  0  0  0  0  0  0  0  0  0  0  0
    6.4447   -9.9413    0.0000 C   0  0  0  0  0  0  0  0  0  0  0  0
    6.4447   -9.1162    0.0000 C   0  0  0  0  0  0  0  0  0  0  0  0
    5.7302   -8.7037    0.0000 C   0  0  0  0  0  0  0  0  0  0  0  0
    7.1592   -8.7037    0.0000 C   0  0  1  0  0  0  0  0  0  0  0  0
    7.1592   -7.8788    0.0000 C   0  0  2  0  0  0  0  0  0  0  0  0
    6.4447   -7.4663    0.0000 C   0  0  0  0  0  0  0  0  0  0  0  0
    5.7302   -7.8788    0.0000 C   0  0  0  0  0  0  0  0  0  0  0  0
    7.9438   -8.9587    0.0000 C   0  0  0  0  0  0  0  0  0  0  0  0
    8.4287   -8.2912    0.0000 C   0  0  0  0  0  0  0  0  0  0  0  0
    7.9438   -7.6238    0.0000 C   0  0  0  0  0  0  0  0  0  0  0  0
    2.8723  -10.3537    0.0000 O   0  0  0  0  0  0  0  0  0  0  0  0
    3.8888  -11.0682    0.0000 C   0  0  0  0  0  0  0  0  0  0  0  0
    4.7138  -11.0682    0.0000 C   0  0  0  0  0  0  0  0  0  0  0  0
    5.0157   -8.2912    0.0000 C   0  0  0  0  0  0  0  0  0  0  0  0
    7.1592   -7.0537    0.0000 C   0  0  0  0  0  0  0  0  0  0  0  0
    7.1592   -9.5287    0.0000 C   0  0  0  0  0  0  0  0  0  0  0  0
    8.1987   -6.8392    0.0000 C   0  0  2  0  0  0  0  0  0  0  0  0
    7.6467   -6.2261    0.0000 C   0  0  0  0  0  0  0  0  0  0  0  0
    9.0057   -6.6677    0.0000 C   0  0  2  0  0  0  0  0  0  0  0  0
    9.5577   -7.2808    0.0000 O   0  0  0  0  0  0  0  0  0  0  0  0
   10.3647   -7.1092    0.0000 C   0  0  0  0  0  0  0  0  0  0  0  0
   10.6196   -6.3246    0.0000 C   0  0  0  0  0  0  0  0  0  0  0  0
   10.0676   -5.7115    0.0000 C   0  0  0  0  0  0  0  0  0  0  0  0
    9.2606   -5.8830    0.0000 C   0  0  0  0  0  0  0  0  0  0  0  0
   11.4266   -6.1531    0.0000 C   0  0  0  0  0  0  0  0  0  0  0  0
   10.9167   -7.7223    0.0000 O   0  0  0  0  0  0  0  0  0  0  0  0
    8.7922   -7.4646    0.0000 H   0  0  0  0  0  0  0  0  0  0  0  0
  1  2  1  0  0  0  0
  2  3  1  0  0  0  0
  3  4  1  0  0  0  0
  4  5  1  0  0  0  0
  5  6  1  0  0  0  0
  6  1  1  0  0  0  0
  4  7  1  0  0  0  0
  7  8  1  0  0  0  0
  8  9  1  0  0  0  0
  9 10  1  0  0  0  0
 10  5  1  0  0  0  0
  9 11  1  0  0  0  0
 11 12  1  0  0  0  0
 12 13  1  0  0  0  0
 13 14  1  0  0  0  0
 14 10  2  0  0  0  0
 11 15  1  0  0  0  0
 15 16  1  0  0  0  0
 16 17  1  0  0  0  0
 17 12  1  0  0  0  0
  2 18  2  0  0  0  0
  3 19  1  0  0  0  0
  3 20  1  0  0  0  0
  5 21  1  1  0  0  0
 12 22  1  1  0  0  0
 11 23  1  6  0  0  0
 17 24  1  0  0  0  0
 24 25  1  6  0  0  0
 24 26  1  0  0  0  0
 26 27  1  0  0  0  0
 27 28  1  0  0  0  0
 28 29  1  0  0  0  0
 29 30  2  0  0  0  0
 30 31  1  0  0  0  0
 31 26  1  0  0  0  0
 29 32  1  0  0  0  0
 28 33  2  0  0  0  0
 26 34  1  6  0  0  0
M  END
>  <cdx:fragmentId>
5

$$$$
