93470.cdx
  Mrv1902 05222410202D          

 36 39  0  0  0  0            999 V2000
    3.4631  -10.1888    0.0000 C   0  0  0  0  0  0  0  0  0  0  0  0
    3.4631  -11.0137    0.0000 C   0  0  0  0  0  0  0  0  0  0  0  0
    4.1775  -11.4262    0.0000 C   0  0  0  0  0  0  0  0  0  0  0  0
    4.8920  -11.0137    0.0000 C   0  0  0  0  0  0  0  0  0  0  0  0
    4.8920  -10.1888    0.0000 C   0  0  2  0  0  0  0  0  0  0  0  0
    4.1775   -9.7763    0.0000 C   0  0  0  0  0  0  0  0  0  0  0  0
    5.6065  -11.4262    0.0000 C   0  0  0  0  0  0  0  0  0  0  0  0
    6.3209  -11.0137    0.0000 C   0  0  0  0  0  0  0  0  0  0  0  0
    6.3209  -10.1888    0.0000 C   0  0  2  0  0  0  0  0  0  0  0  0
    5.6065   -9.7763    0.0000 C   0  0  0  0  0  0  0  0  0  0  0  0
    7.0354   -9.7763    0.0000 C   0  0  0  0  0  0  0  0  0  0  0  0
    7.0354   -8.9513    0.0000 C   0  0  2  0  0  0  0  0  0  0  0  0
    6.3209   -8.5388    0.0000 C   0  0  0  0  0  0  0  0  0  0  0  0
    5.6065   -8.9513    0.0000 C   0  0  0  0  0  0  0  0  0  0  0  0
    7.8200  -10.0312    0.0000 C   0  0  0  0  0  0  0  0  0  0  0  0
    8.3050   -9.3637    0.0000 C   0  0  0  0  0  0  0  0  0  0  0  0
    7.8200   -8.6963    0.0000 C   0  0  2  0  0  0  0  0  0  0  0  0
    2.7486  -11.4262    0.0000 O   0  0  0  0  0  0  0  0  0  0  0  0
    4.1775  -12.2512    0.0000 C   0  0  0  0  0  0  0  0  0  0  0  0
    4.8920   -8.5388    0.0000 O   0  0  0  0  0  0  0  0  0  0  0  0
    7.0354   -8.1263    0.0000 C   0  0  0  0  0  0  0  0  0  0  0  0
    7.0354  -10.6013    0.0000 C   0  0  0  0  0  0  0  0  0  0  0  0
    8.0750   -7.9117    0.0000 C   0  0  0  0  0  0  0  0  0  0  0  0
    8.2885   -7.1148    0.0000 C   0  0  0  0  0  0  0  0  0  0  0  0
    8.8660   -8.1460    0.0000 O   0  0  0  0  0  0  0  0  0  0  0  0
    7.2839   -7.6774    0.0000 C   0  0  0  0  0  0  0  0  0  0  0  0
    9.0854   -6.9013    0.0000 C   0  0  0  0  0  0  0  0  0  0  0  0
    9.2989   -6.1044    0.0000 C   0  0  0  0  0  0  0  0  0  0  0  0
   10.0958   -5.8909    0.0000 C   0  0  0  0  0  0  0  0  0  0  0  0
   10.3093   -5.0940    0.0000 C   0  0  0  0  0  0  0  0  0  0  0  0
   10.6792   -6.4742    0.0000 C   0  0  0  0  0  0  0  0  0  0  0  0
    9.7260   -4.5106    0.0000 O   0  0  0  0  0  0  0  0  0  0  0  0
   11.1062   -4.8804    0.0000 O   0  0  0  0  0  0  0  0  0  0  0  0
    4.8920   -9.3637    0.0000 H   0  0  0  0  0  0  0  0  0  0  0  0
    6.3209   -9.3637    0.0000 H   0  0  0  0  0  0  0  0  0  0  0  0
    8.6450   -8.6963    0.0000 H   0  0  0  0  0  0  0  0  0  0  0  0
  1  2  1  0  0  0  0
  2  3  1  0  0  0  0
  3  4  2  0  0  0  0
  4  5  1  0  0  0  0
  5  6  1  0  0  0  0
  6  1  1  0  0  0  0
  4  7  1  0  0  0  0
  7  8  1  0  0  0  0
  8  9  1  0  0  0  0
  9 10  1  0  0  0  0
 10  5  1  0  0  0  0
  9 11  1  0  0  0  0
 11 12  1  0  0  0  0
 12 13  1  0  0  0  0
 13 14  1  0  0  0  0
 14 10  1  0  0  0  0
 11 15  1  0  0  0  0
 15 16  1  0  0  0  0
 16 17  1  0  0  0  0
 17 12  1  0  0  0  0
  2 18  2  0  0  0  0
  3 19  1  0  0  0  0
 14 20  2  0  0  0  0
 12 21  1  1  0  0  0
 11 22  1  0  0  0  0
 17 23  1  0  0  0  0
 23 24  1  0  0  0  0
 23 25  1  1  0  0  0
 23 26  1  0  0  0  0
 24 27  1  0  0  0  0
 27 28  1  0  0  0  0
 28 29  2  0  0  0  0
 29 30  1  0  0  0  0
 29 31  1  0  0  0  0
 30 32  2  0  0  0  0
 30 33  1  0  0  0  0
  5 34  1  1  0  0  0
  9 35  1  1  0  0  0
 17 36  1  6  0  0  0
M  END
>  <cdx:fragmentId>
5

$$$$
