93474.cdx
  Mrv1902 05222410182D          

 68 72  0  0  0  0            999 V2000
    3.3938  -11.8376    0.0000 O   0  0  0  0  0  0  0  0  0  0  0  0
    4.1082  -11.4251    0.0000 C   0  0  2  0  0  0  0  0  0  0  0  0
    4.1082  -10.6001    0.0000 C   0  0  1  0  0  0  0  0  0  0  0  0
    3.3938  -10.1876    0.0000 C   0  0  0  0  0  0  0  0  0  0  0  0
    4.8227  -11.8376    0.0000 C   0  0  1  0  0  0  0  0  0  0  0  0
    5.5372  -11.4251    0.0000 C   0  0  2  0  0  0  0  0  0  0  0  0
    5.5372  -10.6001    0.0000 C   0  0  2  0  0  0  0  0  0  0  0  0
    4.8227  -10.1876    0.0000 O   0  0  0  0  0  0  0  0  0  0  0  0
    6.2517  -11.8376    0.0000 O   0  0  0  0  0  0  0  0  0  0  0  0
    6.2517  -10.1876    0.0000 O   0  0  0  0  0  0  0  0  0  0  0  0
    3.3938   -9.3626    0.0000 O   0  0  0  0  0  0  0  0  0  0  0  0
    2.6793   -8.9501    0.0000 C   0  0  0  0  0  0  0  0  0  0  0  0
    2.6793   -8.1251    0.0000 C   0  0  0  0  0  0  0  0  0  0  0  0
    1.9648   -9.3626    0.0000 O   0  0  0  0  0  0  0  0  0  0  0  0
    6.2517  -12.6626    0.0000 C   0  0  0  0  0  0  0  0  0  0  0  0
    6.9661  -13.0751    0.0000 C   0  0  0  0  0  0  0  0  0  0  0  0
    5.5372  -13.0751    0.0000 O   0  0  0  0  0  0  0  0  0  0  0  0
    6.4652   -9.3908    0.0000 C   0  0  1  0  0  0  0  0  0  0  0  0
    6.9267   -8.7069    0.0000 C   0  0  2  0  0  0  0  0  0  0  0  0
    6.4189   -8.0567    0.0000 C   0  0  1  0  0  0  0  0  0  0  0  0
    5.6436   -8.3387    0.0000 C   0  0  2  0  0  0  0  0  0  0  0  0
    5.6722   -9.1632    0.0000 O   0  0  0  0  0  0  0  0  0  0  0  0
    7.0485   -9.9741    0.0000 C   0  0  0  0  0  0  0  0  0  0  0  0
    7.0485  -10.7991    0.0000 O   0  0  0  0  0  0  0  0  0  0  0  0
    7.7630  -11.2116    0.0000 C   0  0  0  0  0  0  0  0  0  0  0  0
    8.4775  -10.7991    0.0000 C   0  0  0  0  0  0  0  0  0  0  0  0
    9.1920  -11.2116    0.0000 C   0  0  0  0  0  0  0  0  0  0  0  0
    9.9064  -10.7991    0.0000 C   0  0  0  0  0  0  0  0  0  0  0  0
    7.7630  -12.0366    0.0000 O   0  0  0  0  0  0  0  0  0  0  0  0
   10.6209  -11.2116    0.0000 C   0  0  0  0  0  0  0  0  0  0  0  0
   11.3354  -10.7991    0.0000 C   0  0  0  0  0  0  0  0  0  0  0  0
   11.3354   -9.9741    0.0000 C   0  0  0  0  0  0  0  0  0  0  0  0
   10.6209   -9.5616    0.0000 C   0  0  0  0  0  0  0  0  0  0  0  0
    9.9064   -9.9741    0.0000 C   0  0  0  0  0  0  0  0  0  0  0  0
   12.0498   -9.5616    0.0000 O   0  0  0  0  0  0  0  0  0  0  0  0
   12.0498  -11.2116    0.0000 O   0  0  0  0  0  0  0  0  0  0  0  0
   12.7643  -10.7991    0.0000 C   0  0  0  0  0  0  0  0  0  0  0  0
    7.7512   -8.6783    0.0000 O   0  0  0  0  0  0  0  0  0  0  0  0
    6.6464   -7.2637    0.0000 O   0  0  0  0  0  0  0  0  0  0  0  0
    8.1637   -7.9638    0.0000 C   0  0  0  0  0  0  0  0  0  0  0  0
    8.9887   -7.9638    0.0000 C   0  0  0  0  0  0  0  0  0  0  0  0
    9.4012   -7.2493    0.0000 C   0  0  0  0  0  0  0  0  0  0  0  0
   10.2262   -7.2493    0.0000 C   0  0  0  0  0  0  0  0  0  0  0  0
    7.7512   -7.2493    0.0000 O   0  0  0  0  0  0  0  0  0  0  0  0
   10.6387   -7.9638    0.0000 C   0  0  0  0  0  0  0  0  0  0  0  0
   11.4637   -7.9638    0.0000 C   0  0  0  0  0  0  0  0  0  0  0  0
   11.8762   -7.2493    0.0000 C   0  0  0  0  0  0  0  0  0  0  0  0
   11.4637   -6.5349    0.0000 C   0  0  0  0  0  0  0  0  0  0  0  0
   10.6387   -6.5349    0.0000 C   0  0  0  0  0  0  0  0  0  0  0  0
   12.7012   -7.2493    0.0000 O   0  0  0  0  0  0  0  0  0  0  0  0
   11.8762   -8.6783    0.0000 O   0  0  0  0  0  0  0  0  0  0  0  0
   12.7012   -8.6783    0.0000 C   0  0  0  0  0  0  0  0  0  0  0  0
    4.9597   -7.8772    0.0000 C   0  0  0  0  0  0  0  0  0  0  0  0
    4.9597   -7.0522    0.0000 O   0  0  0  0  0  0  0  0  0  0  0  0
    4.2452   -6.6397    0.0000 C   0  0  0  0  0  0  0  0  0  0  0  0
    4.2452   -5.8147    0.0000 C   0  0  0  0  0  0  0  0  0  0  0  0
    3.5308   -7.0522    0.0000 O   0  0  0  0  0  0  0  0  0  0  0  0
    3.5308   -5.4022    0.0000 C   0  0  0  0  0  0  0  0  0  0  0  0
    3.5308   -4.5772    0.0000 C   0  0  0  0  0  0  0  0  0  0  0  0
    4.2452   -4.1647    0.0000 C   0  0  0  0  0  0  0  0  0  0  0  0
    4.2452   -3.3397    0.0000 C   0  0  0  0  0  0  0  0  0  0  0  0
    3.5308   -2.9272    0.0000 C   0  0  0  0  0  0  0  0  0  0  0  0
    2.8163   -3.3397    0.0000 C   0  0  0  0  0  0  0  0  0  0  0  0
    2.8163   -4.1647    0.0000 C   0  0  0  0  0  0  0  0  0  0  0  0
    3.5308   -2.1022    0.0000 O   0  0  0  0  0  0  0  0  0  0  0  0
    4.9597   -2.9272    0.0000 O   0  0  0  0  0  0  0  0  0  0  0  0
    4.9597   -2.1022    0.0000 C   0  0  0  0  0  0  0  0  0  0  0  0
    4.8227  -12.6626    0.0000 O   0  0  0  0  0  0  0  0  0  0  0  0
  2  1  1  6  0  0  0
  2  3  1  0  0  0  0
  3  4  1  1  0  0  0
  2  5  1  0  0  0  0
  5  6  1  0  0  0  0
  6  7  1  0  0  0  0
  7  8  1  0  0  0  0
  8  3  1  0  0  0  0
  6  9  1  6  0  0  0
  7 10  1  6  0  0  0
  4 11  1  0  0  0  0
 11 12  1  0  0  0  0
 12 13  1  0  0  0  0
 12 14  2  0  0  0  0
  9 15  1  0  0  0  0
 15 16  1  0  0  0  0
 15 17  2  0  0  0  0
 18 10  1  6  0  0  0
 18 19  1  0  0  0  0
 19 20  1  0  0  0  0
 20 21  1  0  0  0  0
 21 22  1  0  0  0  0
 22 18  1  0  0  0  0
 18 23  1  1  0  0  0
 23 24  1  0  0  0  0
 24 25  1  0  0  0  0
 25 26  1  0  0  0  0
 26 27  2  0  0  0  0
 27 28  1  0  0  0  0
 25 29  2  0  0  0  0
 28 30  2  0  0  0  0
 30 31  1  0  0  0  0
 31 32  2  0  0  0  0
 32 33  1  0  0  0  0
 33 34  2  0  0  0  0
 34 28  1  0  0  0  0
 32 35  1  0  0  0  0
 31 36  1  0  0  0  0
 36 37  1  0  0  0  0
 19 38  1  6  0  0  0
 20 39  1  1  0  0  0
 38 40  1  0  0  0  0
 40 41  1  0  0  0  0
 41 42  2  0  0  0  0
 42 43  1  0  0  0  0
 40 44  2  0  0  0  0
 43 45  2  0  0  0  0
 45 46  1  0  0  0  0
 46 47  2  0  0  0  0
 47 48  1  0  0  0  0
 48 49  2  0  0  0  0
 49 43  1  0  0  0  0
 47 50  1  0  0  0  0
 46 51  1  0  0  0  0
 51 52  1  0  0  0  0
 21 53  1  6  0  0  0
 53 54  1  0  0  0  0
 54 55  1  0  0  0  0
 55 56  1  0  0  0  0
 55 57  2  0  0  0  0
 56 58  2  0  0  0  0
 58 59  1  0  0  0  0
 59 60  2  0  0  0  0
 60 61  1  0  0  0  0
 61 62  2  0  0  0  0
 62 63  1  0  0  0  0
 63 64  2  0  0  0  0
 64 59  1  0  0  0  0
 62 65  1  0  0  0  0
 61 66  1  0  0  0  0
 66 67  1  0  0  0  0
  5 68  1  1  0  0  0
M  END
>  <cdx:fragmentId>
251

$$$$
