93472.cdx
  Mrv1902 05222410192D          

 24 26  0  0  0  0            999 V2000
    4.5631   -6.4763    0.0000 C   0  0  0  0  0  0  0  0  0  0  0  0
    4.5631   -7.3012    0.0000 C   0  0  0  0  0  0  0  0  0  0  0  0
    5.2775   -7.7138    0.0000 C   0  0  0  0  0  0  0  0  0  0  0  0
    5.9920   -7.3012    0.0000 C   0  0  0  0  0  0  0  0  0  0  0  0
    5.9920   -6.4763    0.0000 C   0  0  0  0  0  0  0  0  0  0  0  0
    5.2775   -6.0638    0.0000 C   0  0  0  0  0  0  0  0  0  0  0  0
    6.7065   -7.7138    0.0000 O   0  0  0  0  0  0  0  0  0  0  0  0
    7.4209   -7.3012    0.0000 C   0  0  0  0  0  0  0  0  0  0  0  0
    7.4209   -6.4763    0.0000 C   0  0  0  0  0  0  0  0  0  0  0  0
    6.7065   -6.0638    0.0000 C   0  0  0  0  0  0  0  0  0  0  0  0
    7.4209   -8.9512    0.0000 O   0  0  0  0  0  0  0  0  0  0  0  0
    8.1354   -8.5388    0.0000 C   0  0  0  0  0  0  0  0  0  0  0  0
    8.1354   -7.7138    0.0000 C   0  0  0  0  0  0  0  0  0  0  0  0
    8.8499   -8.9513    0.0000 C   0  0  0  0  0  0  0  0  0  0  0  0
    9.5644   -8.5388    0.0000 C   0  0  0  0  0  0  0  0  0  0  0  0
    9.5644   -7.7138    0.0000 C   0  0  0  0  0  0  0  0  0  0  0  0
    8.8499   -7.3012    0.0000 C   0  0  0  0  0  0  0  0  0  0  0  0
    5.2775   -8.5388    0.0000 O   0  0  0  0  0  0  0  0  0  0  0  0
    4.5631   -8.9513    0.0000 C   0  0  0  0  0  0  0  0  0  0  0  0
    3.8486   -7.7138    0.0000 O   0  0  0  0  0  0  0  0  0  0  0  0
    3.1341   -7.3012    0.0000 C   0  0  0  0  0  0  0  0  0  0  0  0
    5.2775   -5.2387    0.0000 O   0  0  0  0  0  0  0  0  0  0  0  0
    6.7065   -5.2387    0.0000 O   0  0  0  0  0  0  0  0  0  0  0  0
    7.4209   -9.7762    0.0000 C   0  0  0  0  0  0  0  0  0  0  0  0
  1  2  1  0  0  0  0
  2  3  2  0  0  0  0
  3  4  1  0  0  0  0
  4  5  2  0  0  0  0
  5  6  1  0  0  0  0
  6  1  2  0  0  0  0
  4  7  1  0  0  0  0
  7  8  1  0  0  0  0
  8  9  2  0  0  0  0
  9 10  1  0  0  0  0
 10  5  1  0  0  0  0
 11 12  1  0  0  0  0
 12 13  1  0  0  0  0
 13  8  1  0  0  0  0
 12 14  2  0  0  0  0
 14 15  1  0  0  0  0
 15 16  2  0  0  0  0
 16 17  1  0  0  0  0
 17 13  2  0  0  0  0
  3 18  1  0  0  0  0
 18 19  1  0  0  0  0
  2 20  1  0  0  0  0
 20 21  1  0  0  0  0
  6 22  1  0  0  0  0
 10 23  2  0  0  0  0
 11 24  1  0  0  0  0
M  END
>  <cdx:fragmentId>
5

$$$$
