93473.cdx
  Mrv1902 05222410192D          

 51 57  0  0  0  0            999 V2000
    6.4606   -3.7262    0.0000 C   0  0  0  0  0  0  0  0  0  0  0  0
    6.4606   -4.5512    0.0000 C   0  0  0  0  0  0  0  0  0  0  0  0
    7.1750   -4.9637    0.0000 C   0  0  0  0  0  0  0  0  0  0  0  0
    7.8895   -4.5512    0.0000 C   0  0  0  0  0  0  0  0  0  0  0  0
    7.8895   -3.7262    0.0000 C   0  0  0  0  0  0  0  0  0  0  0  0
    7.1750   -3.3138    0.0000 C   0  0  0  0  0  0  0  0  0  0  0  0
    5.7461   -4.9637    0.0000 C   0  0  0  0  0  0  0  0  0  0  0  0
    5.7461   -5.7888    0.0000 C   0  0  0  0  0  0  0  0  0  0  0  0
    6.4606   -6.2012    0.0000 C   0  0  0  0  0  0  0  0  0  0  0  0
    7.1750   -5.7888    0.0000 C   0  0  0  0  0  0  0  0  0  0  0  0
    5.0316   -6.2012    0.0000 C   0  0  0  0  0  0  0  0  0  0  0  0
    5.0316   -7.0263    0.0000 C   0  0  0  0  0  0  0  0  0  0  0  0
    5.7461   -7.4387    0.0000 C   0  0  0  0  0  0  0  0  0  0  0  0
    6.4606   -7.0263    0.0000 C   0  0  0  0  0  0  0  0  0  0  0  0
    4.3171   -8.2637    0.0000 O   0  0  0  0  0  0  0  0  0  0  0  0
    5.0316   -8.6762    0.0000 C   0  0  1  0  0  0  0  0  0  0  0  0
    5.7461   -8.2637    0.0000 O   0  0  0  0  0  0  0  0  0  0  0  0
    3.6027   -8.6762    0.0000 C   0  0  1  0  0  0  0  0  0  0  0  0
    3.6027   -9.5013    0.0000 C   0  0  2  0  0  0  0  0  0  0  0  0
    4.3171   -9.9138    0.0000 C   0  0  1  0  0  0  0  0  0  0  0  0
    5.0316   -9.5013    0.0000 C   0  0  1  0  0  0  0  0  0  0  0  0
    2.8882   -8.2637    0.0000 C   0  0  0  0  0  0  0  0  0  0  0  0
    2.1737   -8.6762    0.0000 O   0  0  0  0  0  0  0  0  0  0  0  0
    2.8882   -9.9137    0.0000 O   0  0  0  0  0  0  0  0  0  0  0  0
    7.1750   -7.4387    0.0000 C   0  0  0  0  0  0  0  0  0  0  0  0
    7.1750   -8.2637    0.0000 C   0  0  0  0  0  0  0  0  0  0  0  0
    7.8895   -8.6762    0.0000 C   0  0  0  0  0  0  0  0  0  0  0  0
    8.6040   -8.2637    0.0000 C   0  0  0  0  0  0  0  0  0  0  0  0
    8.6040   -7.4387    0.0000 C   0  0  0  0  0  0  0  0  0  0  0  0
    7.8895   -7.0262    0.0000 C   0  0  0  0  0  0  0  0  0  0  0  0
    9.3184   -7.0262    0.0000 C   0  0  0  0  0  0  0  0  0  0  0  0
    9.3184   -6.2012    0.0000 C   0  0  0  0  0  0  0  0  0  0  0  0
    8.6040   -5.7887    0.0000 C   0  0  0  0  0  0  0  0  0  0  0  0
    7.8895   -6.2012    0.0000 C   0  0  0  0  0  0  0  0  0  0  0  0
   10.0329   -5.7887    0.0000 C   0  0  0  0  0  0  0  0  0  0  0  0
   10.0329   -4.9637    0.0000 C   0  0  0  0  0  0  0  0  0  0  0  0
    9.3184   -4.5512    0.0000 C   0  0  0  0  0  0  0  0  0  0  0  0
    8.6040   -4.9637    0.0000 C   0  0  0  0  0  0  0  0  0  0  0  0
    5.7461   -3.3138    0.0000 O   0  0  0  0  0  0  0  0  0  0  0  0
    8.6040   -3.3137    0.0000 C   0  0  0  0  0  0  0  0  0  0  0  0
    5.0316   -4.5512    0.0000 O   0  0  0  0  0  0  0  0  0  0  0  0
    8.0000   -5.7888    0.0000 O   0  0  0  0  0  0  0  0  0  0  0  0
    7.0645   -6.2012    0.0000 O   0  0  0  0  0  0  0  0  0  0  0  0
    4.3171   -5.7888    0.0000 O   0  0  0  0  0  0  0  0  0  0  0  0
    6.4606   -8.6762    0.0000 O   0  0  0  0  0  0  0  0  0  0  0  0
    9.3184   -8.6762    0.0000 O   0  0  0  0  0  0  0  0  0  0  0  0
   10.0329   -7.4387    0.0000 O   0  0  0  0  0  0  0  0  0  0  0  0
   10.7474   -6.2012    0.0000 O   0  0  0  0  0  0  0  0  0  0  0  0
    9.3184   -3.7262    0.0000 C   0  0  0  0  0  0  0  0  0  0  0  0
    4.3171  -10.7387    0.0000 O   0  0  0  0  0  0  0  0  0  0  0  0
    5.7461   -9.9138    0.0000 O   0  0  0  0  0  0  0  0  0  0  0  0
  1  2  1  0  0  0  0
  2  3  2  0  0  0  0
  3  4  1  0  0  0  0
  4  5  2  0  0  0  0
  5  6  1  0  0  0  0
  6  1  2  0  0  0  0
  2  7  1  0  0  0  0
  7  8  1  0  0  0  0
  8  9  2  0  0  0  0
  9 10  1  0  0  0  0
 10  3  1  0  0  0  0
  8 11  1  0  0  0  0
 11 12  2  0  0  0  0
 12 13  1  0  0  0  0
 13 14  2  0  0  0  0
 14  9  1  0  0  0  0
 15 16  1  0  0  0  0
 16 17  1  1  0  0  0
 17 13  1  0  0  0  0
 15 18  1  0  0  0  0
 18 19  1  0  0  0  0
 19 20  1  0  0  0  0
 20 21  1  0  0  0  0
 21 16  1  0  0  0  0
 18 22  1  1  0  0  0
 22 23  1  0  0  0  0
 19 24  1  6  0  0  0
 14 25  1  0  0  0  0
 25 26  1  0  0  0  0
 26 27  2  0  0  0  0
 27 28  1  0  0  0  0
 28 29  2  0  0  0  0
 29 30  1  0  0  0  0
 30 25  2  0  0  0  0
 29 31  1  0  0  0  0
 31 32  1  0  0  0  0
 32 33  2  0  0  0  0
 33 34  1  0  0  0  0
 34 30  1  0  0  0  0
 32 35  1  0  0  0  0
 35 36  2  0  0  0  0
 36 37  1  0  0  0  0
 37 38  2  0  0  0  0
 38 33  1  0  0  0  0
  1 39  1  0  0  0  0
  5 40  1  0  0  0  0
  7 41  2  0  0  0  0
 10 42  2  0  0  0  0
 34 43  2  0  0  0  0
 11 44  1  0  0  0  0
 26 45  1  0  0  0  0
 28 46  1  0  0  0  0
 31 47  2  0  0  0  0
 35 48  1  0  0  0  0
 37 49  1  0  0  0  0
 20 50  1  1  0  0  0
 21 51  1  6  0  0  0
M  END
>  <cdx:fragmentId>
5

$$$$
