93484.cdx
  Mrv1902 05222410272D          

 20 19  0  0  0  0            999 V2000
   12.3983   -2.2146    0.0000 C   0  0  0  0  0  0  0  0  0  0  0  0
   11.6838   -2.6271    0.0000 C   0  0  0  0  0  0  0  0  0  0  0  0
   10.9693   -2.2146    0.0000 C   0  0  0  0  0  0  0  0  0  0  0  0
   10.2549   -2.6271    0.0000 C   0  0  0  0  0  0  0  0  0  0  0  0
    9.5404   -3.0396    0.0000 C   0  0  0  0  0  0  0  0  0  0  0  0
    8.8259   -3.4521    0.0000 C   0  0  0  0  0  0  0  0  0  0  0  0
    8.1114   -3.8646    0.0000 C   0  0  0  0  0  0  0  0  0  0  0  0
    7.3970   -4.2771    0.0000 C   0  0  0  0  0  0  0  0  0  0  0  0
    6.6825   -3.8646    0.0000 C   0  0  0  0  0  0  0  0  0  0  0  0
    5.9680   -4.2771    0.0000 C   0  0  0  0  0  0  0  0  0  0  0  0
    5.2536   -3.8646    0.0000 C   0  0  0  0  0  0  0  0  0  0  0  0
    4.5391   -4.2771    0.0000 C   0  0  0  0  0  0  0  0  0  0  0  0
    3.8246   -3.8646    0.0000 C   0  0  0  0  0  0  0  0  0  0  0  0
    3.1101   -4.2771    0.0000 C   0  0  0  0  0  0  0  0  0  0  0  0
    2.3957   -3.8646    0.0000 C   0  0  0  0  0  0  0  0  0  0  0  0
    1.6812   -4.2771    0.0000 C   0  0  0  0  0  0  0  0  0  0  0  0
    0.9667   -3.8646    0.0000 C   0  0  0  0  0  0  0  0  0  0  0  0
   10.9693   -1.3896    0.0000 O   0  0  0  0  0  0  0  0  0  0  0  0
    6.6825   -3.0396    0.0000 O   0  0  0  0  0  0  0  0  0  0  0  0
    5.9680   -5.1021    0.0000 O   0  0  0  0  0  0  0  0  0  0  0  0
  1  2  2  0  0  0  0
  2  3  1  0  0  0  0
  3  4  1  0  0  0  0
  4  5  3  0  0  0  0
  5  6  1  0  0  0  0
  6  7  3  0  0  0  0
  7  8  1  0  0  0  0
  8  9  1  0  0  0  0
  9 10  1  0  0  0  0
 10 11  1  0  0  0  0
 11 12  1  0  0  0  0
 12 13  1  0  0  0  0
 13 14  1  0  0  0  0
 14 15  1  0  0  0  0
 15 16  1  0  0  0  0
 16 17  1  0  0  0  0
  3 18  1  0  0  0  0
  9 19  1  0  0  0  0
 10 20  1  0  0  0  0
M  END
>  <cdx:groupId>
61

>  <cdx:fragmentId>
5

$$$$
