93487.cdx
  Mrv1902 05222410282D          

 15 16  0  0  0  0            999 V2000
    5.7588   -7.3843    0.0000 C   0  0  0  0  0  0  0  0  0  0  0  0
    5.3463   -8.0987    0.0000 C   0  0  0  0  0  0  0  0  0  0  0  0
    5.7588   -8.8132    0.0000 C   0  0  0  0  0  0  0  0  0  0  0  0
    6.5838   -8.8132    0.0000 C   0  0  0  0  0  0  0  0  0  0  0  0
    6.9963   -8.0987    0.0000 C   0  0  0  0  0  0  0  0  0  0  0  0
    6.5838   -7.3843    0.0000 C   0  0  0  0  0  0  0  0  0  0  0  0
    4.5213   -8.0987    0.0000 C   0  0  0  0  0  0  0  0  0  0  0  0
    7.4812   -8.7662    0.0000 C   0  0  1  0  0  0  0  0  0  0  0  0
    8.2658   -8.5112    0.0000 C   0  0  0  0  0  0  0  0  0  0  0  0
    8.2658   -7.6862    0.0000 C   0  0  0  0  0  0  0  0  0  0  0  0
    7.4812   -7.4313    0.0000 C   0  0  1  0  0  0  0  0  0  0  0  0
    7.2263   -9.5508    0.0000 C   0  0  0  0  0  0  0  0  0  0  0  0
    7.2263   -6.6467    0.0000 C   0  0  0  0  0  0  0  0  0  0  0  0
    7.7783   -6.0336    0.0000 C   0  0  0  0  0  0  0  0  0  0  0  0
    6.4193   -6.4752    0.0000 C   0  0  0  0  0  0  0  0  0  0  0  0
  1  2  2  0  0  0  0
  2  3  1  0  0  0  0
  3  4  1  0  0  0  0
  4  5  1  0  0  0  0
  5  6  1  0  0  0  0
  6  1  1  0  0  0  0
  2  7  1  0  0  0  0
  5  8  1  0  0  0  0
  8  9  1  0  0  0  0
  9 10  1  0  0  0  0
 10 11  1  0  0  0  0
 11  5  1  0  0  0  0
  8 12  1  1  0  0  0
 11 13  1  6  0  0  0
 13 14  1  0  0  0  0
 13 15  2  0  0  0  0
M  END
>  <cdx:fragmentId>
5

$$$$
