93486.cdx
  Mrv1902 05222410282D          

 17 20  0  0  0  0            999 V2000
    2.9268   -7.8375    0.0000 C   0  0  0  0  0  0  0  0  0  0  0  0
    2.9268   -8.6625    0.0000 C   0  0  0  0  0  0  0  0  0  0  0  0
    3.6413   -9.0750    0.0000 C   0  0  0  0  0  0  0  0  0  0  0  0
    4.3557   -8.6625    0.0000 C   0  0  0  0  0  0  0  0  0  0  0  0
    4.3557   -7.8375    0.0000 C   0  0  0  0  0  0  0  0  0  0  0  0
    3.6413   -7.4250    0.0000 C   0  0  0  0  0  0  0  0  0  0  0  0
    5.1404   -8.9174    0.0000 N   0  0  0  0  0  0  0  0  0  0  0  0
    5.6253   -8.2500    0.0000 C   0  0  0  0  0  0  0  0  0  0  0  0
    5.1404   -7.5826    0.0000 C   0  0  0  0  0  0  0  0  0  0  0  0
    6.4458   -8.1638    0.0000 C   0  0  0  0  0  0  0  0  0  0  0  0
    6.7813   -7.4101    0.0000 C   0  0  0  0  0  0  0  0  0  0  0  0
    6.2964   -6.7426    0.0000 O   0  0  0  0  0  0  0  0  0  0  0  0
    5.4759   -6.8289    0.0000 C   0  0  0  0  0  0  0  0  0  0  0  0
    7.0589   -8.7158    0.0000 N   0  0  0  0  0  0  0  0  0  0  0  0
    7.7733   -8.3033    0.0000 C   0  0  0  0  0  0  0  0  0  0  0  0
    7.6018   -7.4963    0.0000 C   0  0  0  0  0  0  0  0  0  0  0  0
    4.9910   -6.1614    0.0000 O   0  0  0  0  0  0  0  0  0  0  0  0
  1  2  2  0  0  0  0
  2  3  1  0  0  0  0
  3  4  2  0  0  0  0
  4  5  1  0  0  0  0
  5  6  2  0  0  0  0
  6  1  1  0  0  0  0
  4  7  1  0  0  0  0
  7  8  1  0  0  0  0
  8  9  2  0  0  0  0
  9  5  1  0  0  0  0
  8 10  1  0  0  0  0
 10 11  1  0  0  0  0
 11 12  1  0  0  0  0
 12 13  1  0  0  0  0
 13  9  1  0  0  0  0
 10 14  2  0  0  0  0
 14 15  1  0  0  0  0
 15 16  1  0  0  0  0
 16 11  1  0  0  0  0
 13 17  2  0  0  0  0
M  END
>  <cdx:fragmentId>
5

$$$$
