93480.cdx
  Mrv1902 05222410272D          

 57 64  0  0  0  0            999 V2000
   14.8619   -8.4810    0.0000 C   0  0  1  0  0  0  0  0  0  0  0  0
   14.1475   -8.8935    0.0000 C   0  0  2  0  0  0  0  0  0  0  0  0
   14.1475   -9.7185    0.0000 C   0  0  0  0  0  0  0  0  0  0  0  0
   13.4330  -10.1310    0.0000 C   0  0  0  0  0  0  0  0  0  0  0  0
   12.7185   -9.7185    0.0000 C   0  0  0  0  0  0  0  0  0  0  0  0
   12.0040  -10.1310    0.0000 C   0  0  0  0  0  0  0  0  0  0  0  0
   11.2896   -9.7185    0.0000 C   0  0  2  0  0  0  0  0  0  0  0  0
   11.2896   -8.8935    0.0000 C   0  0  0  0  0  0  0  0  0  0  0  0
   12.0040   -8.4810    0.0000 C   0  0  0  0  0  0  0  0  0  0  0  0
   12.7185   -8.8935    0.0000 C   0  0  2  0  0  0  0  0  0  0  0  0
   13.4330   -8.4810    0.0000 C   0  0  1  0  0  0  0  0  0  0  0  0
   13.4330   -7.6560    0.0000 C   0  0  0  0  0  0  0  0  0  0  0  0
   14.1475   -7.2435    0.0000 C   0  0  0  0  0  0  0  0  0  0  0  0
   14.8619   -7.6560    0.0000 C   0  0  2  0  0  0  0  0  0  0  0  0
   15.6465   -7.4011    0.0000 C   0  0  1  0  0  0  0  0  0  0  0  0
   16.1315   -6.7336    0.0000 C   0  0  1  0  0  0  0  0  0  0  0  0
   16.9161   -6.9886    0.0000 C   0  0  1  0  0  0  0  0  0  0  0  0
   17.6306   -6.5761    0.0000 C   0  0  0  0  0  0  0  0  0  0  0  0
   18.3450   -6.9886    0.0000 C   0  0  0  0  0  0  0  0  0  0  0  0
   18.3450   -7.8136    0.0000 C   0  0  1  0  0  0  0  0  0  0  0  0
   17.6306   -8.2261    0.0000 C   0  0  0  0  0  0  0  0  0  0  0  0
   16.9161   -7.8136    0.0000 N   0  0  0  0  0  0  0  0  0  0  0  0
   16.1315   -8.0685    0.0000 C   0  0  1  0  0  0  0  0  0  0  0  0
   15.6465   -8.7359    0.0000 C   0  0  0  0  0  0  0  0  0  0  0  0
   10.5751  -10.1310    0.0000 O   0  0  0  0  0  0  0  0  0  0  0  0
   19.0595   -8.2261    0.0000 C   0  0  0  0  0  0  0  0  0  0  0  0
   15.8765   -5.9490    0.0000 C   0  0  0  0  0  0  0  0  0  0  0  0
   14.8619   -6.8310    0.0000 C   0  0  0  0  0  0  0  0  0  0  0  0
   12.7185   -8.0685    0.0000 C   0  0  0  0  0  0  0  0  0  0  0  0
   14.8619   -9.3060    0.0000 H   0  0  0  0  0  0  0  0  0  0  0  0
   14.1475   -8.0685    0.0000 H   0  0  0  0  0  0  0  0  0  0  0  0
   13.4330   -9.3060    0.0000 H   0  0  0  0  0  0  0  0  0  0  0  0
   15.2849   -6.6596    0.0000 H   0  0  0  0  0  0  0  0  0  0  0  0
   16.8299   -6.1681    0.0000 H   0  0  0  0  0  0  0  0  0  0  0  0
   16.6164   -8.7359    0.0000 H   0  0  0  0  0  0  0  0  0  0  0  0
    9.8606   -9.7185    0.0000 C   0  0  2  0  0  0  0  0  0  0  0  0
    9.8606   -8.8935    0.0000 O   0  0  0  0  0  0  0  0  0  0  0  0
    9.1462   -8.4810    0.0000 C   0  0  1  0  0  0  0  0  0  0  0  0
    8.4317   -8.8935    0.0000 C   0  0  2  0  0  0  0  0  0  0  0  0
    8.4317   -9.7185    0.0000 C   0  0  1  0  0  0  0  0  0  0  0  0
    9.1462  -10.1310    0.0000 C   0  0  1  0  0  0  0  0  0  0  0  0
    9.1462   -7.6560    0.0000 C   0  0  0  0  0  0  0  0  0  0  0  0
    7.7172  -10.1310    0.0000 O   0  0  0  0  0  0  0  0  0  0  0  0
    9.1462  -10.9560    0.0000 O   0  0  0  0  0  0  0  0  0  0  0  0
    7.7172   -8.4810    0.0000 O   0  0  0  0  0  0  0  0  0  0  0  0
    8.4317   -7.2435    0.0000 O   0  0  0  0  0  0  0  0  0  0  0  0
    6.8922   -8.4839    0.0000 C   0  0  2  0  0  0  0  0  0  0  0  0
    6.4772   -7.7708    0.0000 O   0  0  0  0  0  0  0  0  0  0  0  0
    5.6522   -7.7737    0.0000 C   0  0  1  0  0  0  0  0  0  0  0  0
    5.2422   -8.4896    0.0000 C   0  0  2  0  0  0  0  0  0  0  0  0
    5.6572   -9.2027    0.0000 C   0  0  1  0  0  0  0  0  0  0  0  0
    6.4822   -9.1998    0.0000 C   0  0  1  0  0  0  0  0  0  0  0  0
    5.2372   -7.0607    0.0000 C   0  0  0  0  0  0  0  0  0  0  0  0
    5.2472   -9.9186    0.0000 O   0  0  0  0  0  0  0  0  0  0  0  0
    4.4172   -8.4925    0.0000 O   0  0  0  0  0  0  0  0  0  0  0  0
    6.8972   -9.9128    0.0000 O   0  0  0  0  0  0  0  0  0  0  0  0
    4.4122   -7.0636    0.0000 O   0  0  0  0  0  0  0  0  0  0  0  0
  1  2  1  0  0  0  0
  2  3  1  0  0  0  0
  3  4  1  0  0  0  0
  4  5  2  0  0  0  0
  5  6  1  0  0  0  0
  6  7  1  0  0  0  0
  7  8  1  0  0  0  0
  8  9  1  0  0  0  0
  9 10  1  0  0  0  0
 10 11  1  0  0  0  0
 11 12  1  0  0  0  0
 12 13  1  0  0  0  0
 13 14  1  0  0  0  0
 14 15  1  0  0  0  0
 15 16  1  0  0  0  0
 16 17  1  0  0  0  0
 17 18  1  0  0  0  0
 18 19  1  0  0  0  0
 19 20  1  0  0  0  0
 20 21  1  0  0  0  0
 21 22  1  0  0  0  0
 22 23  1  0  0  0  0
 23 24  1  0  0  0  0
  1 24  1  0  0  0  0
  1 14  1  0  0  0  0
 15 23  1  0  0  0  0
 17 22  1  0  0  0  0
  2 11  1  0  0  0  0
  5 10  1  0  0  0  0
  7 25  1  1  0  0  0
 20 26  1  6  0  0  0
 16 27  1  6  0  0  0
 14 28  1  1  0  0  0
 10 29  1  1  0  0  0
  1 30  1  6  0  0  0
  2 31  1  1  0  0  0
 11 32  1  6  0  0  0
 15 33  1  6  0  0  0
 17 34  1  6  0  0  0
 23 35  1  6  0  0  0
 36 25  1  1  0  0  0
 36 37  1  0  0  0  0
 37 38  1  0  0  0  0
 38 39  1  0  0  0  0
 39 40  1  0  0  0  0
 40 41  1  0  0  0  0
 41 36  1  0  0  0  0
 38 42  1  1  0  0  0
 40 43  1  1  0  0  0
 41 44  1  6  0  0  0
 39 45  1  6  0  0  0
 42 46  1  0  0  0  0
 47 45  1  1  0  0  0
 47 48  1  0  0  0  0
 48 49  1  0  0  0  0
 49 50  1  0  0  0  0
 50 51  1  0  0  0  0
 51 52  1  0  0  0  0
 52 47  1  0  0  0  0
 49 53  1  1  0  0  0
 51 54  1  1  0  0  0
 50 55  1  6  0  0  0
 52 56  1  6  0  0  0
 53 57  1  0  0  0  0
M  END
>  <cdx:fragmentId>
5

$$$$
