9348.cdx
  Mrv1902 05222410272D          

 67 75  0  0  0  0            999 V2000
    8.3241   -9.4050    0.0000 C   0  0  0  0  0  0  0  0  0  0  0  0
    8.3241  -10.2300    0.0000 C   0  0  1  0  0  0  0  0  0  0  0  0
    9.0385  -10.6425    0.0000 C   0  0  1  0  0  0  0  0  0  0  0  0
    9.7530  -10.2300    0.0000 C   0  0  1  0  0  0  0  0  0  0  0  0
    9.7530   -9.4050    0.0000 C   0  0  2  0  0  0  0  0  0  0  0  0
    9.0385   -8.9925    0.0000 C   0  0  0  0  0  0  0  0  0  0  0  0
   10.4675  -10.6425    0.0000 C   0  0  0  0  0  0  0  0  0  0  0  0
   11.1819  -10.2300    0.0000 C   0  0  0  0  0  0  0  0  0  0  0  0
   11.1819   -9.4050    0.0000 C   0  0  2  0  0  0  0  0  0  0  0  0
   10.4675   -8.9925    0.0000 C   0  0  2  0  0  0  0  0  0  0  0  0
   11.8964   -8.9925    0.0000 C   0  0  1  0  0  0  0  0  0  0  0  0
   11.8964   -8.1675    0.0000 C   0  0  2  0  0  0  0  0  0  0  0  0
   11.1819   -7.7550    0.0000 C   0  0  0  0  0  0  0  0  0  0  0  0
   10.4675   -8.1675    0.0000 C   0  0  0  0  0  0  0  0  0  0  0  0
   12.6109   -9.4050    0.0000 C   0  0  0  0  0  0  0  0  0  0  0  0
   13.3254   -8.9925    0.0000 C   0  0  2  0  0  0  0  0  0  0  0  0
   13.3254   -8.1675    0.0000 C   0  0  2  0  0  0  0  0  0  0  0  0
   12.6109   -7.7550    0.0000 C   0  0  1  0  0  0  0  0  0  0  0  0
   14.0398   -7.7550    0.0000 C   0  0  0  0  0  0  0  0  0  0  0  0
   14.0398   -6.9300    0.0000 C   0  0  0  0  0  0  0  0  0  0  0  0
   13.3254   -6.5175    0.0000 C   0  0  1  0  0  0  0  0  0  0  0  0
   12.6109   -6.9300    0.0000 C   0  0  0  0  0  0  0  0  0  0  0  0
    7.6096  -10.6425    0.0000 O   0  0  0  0  0  0  0  0  0  0  0  0
    8.6260  -11.3570    0.0000 C   0  0  0  0  0  0  0  0  0  0  0  0
    9.7530   -8.5800    0.0000 C   0  0  0  0  0  0  0  0  0  0  0  0
   11.1819   -8.5800    0.0000 C   0  0  0  0  0  0  0  0  0  0  0  0
   11.8964   -7.3425    0.0000 O   0  0  0  0  0  0  0  0  0  0  0  0
   12.6109   -8.5800    0.0000 H   0  0  0  0  0  0  0  0  0  0  0  0
   13.3254   -7.3425    0.0000 C   0  0  0  0  0  0  0  0  0  0  0  0
   13.7379   -5.8030    0.0000 C   0  0  0  0  0  0  0  0  0  0  0  0
    9.4510  -11.3570    0.0000 C   0  0  0  0  0  0  0  0  0  0  0  0
    9.7530  -11.0550    0.0000 H   0  0  0  0  0  0  0  0  0  0  0  0
   10.4675   -9.8175    0.0000 H   0  0  0  0  0  0  0  0  0  0  0  0
   11.8964   -9.8175    0.0000 C   0  0  0  0  0  0  0  0  0  0  0  0
   14.0398   -9.4050    0.0000 O   0  0  0  0  0  0  0  0  0  0  0  0
   12.9129   -5.8030    0.0000 C   0  0  0  0  0  0  0  0  0  0  0  0
   13.3254   -5.0886    0.0000 O   0  0  0  0  0  0  0  0  0  0  0  0
    6.1729   -8.9774    0.0000 C   0  0  0  0  0  0  0  0  0  0  0  0
    5.4583   -9.3896    0.0000 C   0  0  1  0  0  0  0  0  0  0  0  0
    5.4580  -10.2146    0.0000 C   0  0  1  0  0  0  0  0  0  0  0  0
    6.1723  -10.6274    0.0000 C   0  0  2  0  0  0  0  0  0  0  0  0
    6.8869  -10.2151    0.0000 C   0  0  1  0  0  0  0  0  0  0  0  0
    6.8872   -9.3901    0.0000 O   0  0  0  0  0  0  0  0  0  0  0  0
    4.7433  -10.6268    0.0000 O   0  0  0  0  0  0  0  0  0  0  0  0
    4.7440   -8.9768    0.0000 O   0  0  0  0  0  0  0  0  0  0  0  0
    6.1720  -11.4524    0.0000 O   0  0  0  0  0  0  0  0  0  0  0  0
    5.4523   -6.9064    0.0000 C   0  0  2  0  0  0  0  0  0  0  0  0
    4.7374   -6.4946    0.0000 C   0  0  2  0  0  0  0  0  0  0  0  0
    4.0233   -6.9078    0.0000 C   0  0  1  0  0  0  0  0  0  0  0  0
    4.0242   -7.7328    0.0000 C   0  0  2  0  0  0  0  0  0  0  0  0
    4.7390   -8.1446    0.0000 C   0  0  1  0  0  0  0  0  0  0  0  0
    5.4531   -7.7314    0.0000 O   0  0  0  0  0  0  0  0  0  0  0  0
    6.1663   -6.4932    0.0000 C   0  0  0  0  0  0  0  0  0  0  0  0
    3.3085   -6.4960    0.0000 O   0  0  0  0  0  0  0  0  0  0  0  0
    4.7366   -5.6696    0.0000 O   0  0  0  0  0  0  0  0  0  0  0  0
    3.3101   -8.1460    0.0000 O   0  0  0  0  0  0  0  0  0  0  0  0
    6.1655   -5.6682    0.0000 O   0  0  0  0  0  0  0  0  0  0  0  0
    1.8616   -6.5117    0.0000 C   0  0  1  0  0  0  0  0  0  0  0  0
    1.1470   -6.9239    0.0000 C   0  0  1  0  0  0  0  0  0  0  0  0
    1.1467   -7.7489    0.0000 C   0  0  2  0  0  0  0  0  0  0  0  0
    1.8610   -8.1617    0.0000 C   0  0  2  0  0  0  0  0  0  0  0  0
    2.5756   -7.7495    0.0000 C   0  0  1  0  0  0  0  0  0  0  0  0
    2.5759   -6.9245    0.0000 O   0  0  0  0  0  0  0  0  0  0  0  0
    0.4327   -6.5112    0.0000 O   0  0  0  0  0  0  0  0  0  0  0  0
    1.8619   -5.6867    0.0000 C   0  0  0  0  0  0  0  0  0  0  0  0
    0.4320   -8.1612    0.0000 O   0  0  0  0  0  0  0  0  0  0  0  0
    1.8607   -8.9867    0.0000 O   0  0  0  0  0  0  0  0  0  0  0  0
  1  2  1  0  0  0  0
  2  3  1  0  0  0  0
  3  4  1  0  0  0  0
  4  5  1  0  0  0  0
  5  6  1  0  0  0  0
  6  1  1  0  0  0  0
  4  7  1  0  0  0  0
  7  8  1  0  0  0  0
  8  9  1  0  0  0  0
  9 10  1  0  0  0  0
 10  5  1  0  0  0  0
  9 11  1  0  0  0  0
 11 12  1  0  0  0  0
 12 13  1  0  0  0  0
 13 14  1  0  0  0  0
 14 10  1  0  0  0  0
 11 15  1  0  0  0  0
 15 16  1  0  0  0  0
 16 17  1  0  0  0  0
 17 18  1  0  0  0  0
 18 12  1  0  0  0  0
 17 19  1  0  0  0  0
 19 20  1  0  0  0  0
 20 21  1  0  0  0  0
 21 22  1  0  0  0  0
 22 18  1  0  0  0  0
  2 23  1  1  0  0  0
  3 24  1  1  0  0  0
  5 25  1  1  0  0  0
  9 26  1  1  0  0  0
 12 27  1  1  0  0  0
 18 28  1  1  0  0  0
 17 29  1  1  0  0  0
 21 30  1  1  0  0  0
  3 31  1  6  0  0  0
  4 32  1  6  0  0  0
 10 33  1  6  0  0  0
 11 34  1  6  0  0  0
 16 35  1  6  0  0  0
 21 36  1  6  0  0  0
 29 27  1  0  0  0  0
 30 37  2  0  0  0  0
 38 39  1  0  0  0  0
 39 40  1  0  0  0  0
 40 41  1  0  0  0  0
 41 42  1  0  0  0  0
 42 43  1  0  0  0  0
 43 38  1  0  0  0  0
 40 44  1  1  0  0  0
 39 45  1  1  0  0  0
 41 46  1  6  0  0  0
 47 48  1  0  0  0  0
 48 49  1  0  0  0  0
 49 50  1  0  0  0  0
 50 51  1  0  0  0  0
 51 52  1  0  0  0  0
 52 47  1  0  0  0  0
 47 53  1  1  0  0  0
 49 54  1  1  0  0  0
 48 55  1  6  0  0  0
 50 56  1  6  0  0  0
 53 57  1  0  0  0  0
 51 45  1  1  0  0  0
 58 59  1  0  0  0  0
 59 60  1  0  0  0  0
 60 61  1  0  0  0  0
 61 62  1  0  0  0  0
 62 63  1  0  0  0  0
 63 58  1  0  0  0  0
 59 64  1  1  0  0  0
 58 65  1  6  0  0  0
 60 66  1  6  0  0  0
 61 67  1  6  0  0  0
 62 56  1  1  0  0  0
 42 23  1  1  0  0  0
M  END
>  <cdx:fragmentId>
108

$$$$
