93485.cdx
  Mrv1902 05222410272D          

 33 36  0  0  0  0            999 V2000
    2.8306   -7.7687    0.0000 C   0  0  1  0  0  0  0  0  0  0  0  0
    2.8306   -8.5938    0.0000 C   0  0  1  0  0  0  0  0  0  0  0  0
    3.5450   -9.0062    0.0000 C   0  0  2  0  0  0  0  0  0  0  0  0
    4.2595   -8.5938    0.0000 C   0  0  1  0  0  0  0  0  0  0  0  0
    4.2595   -7.7687    0.0000 O   0  0  0  0  0  0  0  0  0  0  0  0
    3.5450   -7.3563    0.0000 C   0  0  2  0  0  0  0  0  0  0  0  0
    4.9740   -9.0062    0.0000 O   0  0  0  0  0  0  0  0  0  0  0  0
    5.6884   -8.5938    0.0000 C   0  0  0  0  0  0  0  0  0  0  0  0
    5.6884   -7.7687    0.0000 C   0  0  0  0  0  0  0  0  0  0  0  0
    4.9740   -7.3563    0.0000 O   0  0  0  0  0  0  0  0  0  0  0  0
    6.4029   -9.0062    0.0000 C   0  0  0  0  0  0  0  0  0  0  0  0
    7.1174   -8.5938    0.0000 C   0  0  0  0  0  0  0  0  0  0  0  0
    7.1174   -7.7687    0.0000 C   0  0  0  0  0  0  0  0  0  0  0  0
    6.4029   -7.3563    0.0000 C   0  0  0  0  0  0  0  0  0  0  0  0
    7.8319   -9.0062    0.0000 C   0  0  0  0  0  0  0  0  0  0  0  0
    8.5463   -8.5938    0.0000 C   0  0  0  0  0  0  0  0  0  0  0  0
    8.5463   -7.7687    0.0000 C   0  0  0  0  0  0  0  0  0  0  0  0
    7.8319   -7.3563    0.0000 O   0  0  0  0  0  0  0  0  0  0  0  0
    4.9740   -6.5313    0.0000 C   0  0  0  0  0  0  0  0  0  0  0  0
    4.2595   -6.1188    0.0000 O   0  0  0  0  0  0  0  0  0  0  0  0
    3.5450   -6.5313    0.0000 C   0  0  0  0  0  0  0  0  0  0  0  0
    9.2608   -7.3563    0.0000 C   0  0  0  0  0  0  0  0  0  0  0  0
    9.2608   -6.5313    0.0000 C   0  0  0  0  0  0  0  0  0  0  0  0
    9.9753   -7.7687    0.0000 C   0  0  0  0  0  0  0  0  0  0  0  0
   10.6897   -7.3563    0.0000 C   0  0  0  0  0  0  0  0  0  0  0  0
   10.6897   -6.5313    0.0000 C   0  0  0  0  0  0  0  0  0  0  0  0
    9.9753   -6.1188    0.0000 C   0  0  0  0  0  0  0  0  0  0  0  0
   11.4042   -6.1188    0.0000 O   0  0  0  0  0  0  0  0  0  0  0  0
    7.8319   -9.8312    0.0000 O   0  0  0  0  0  0  0  0  0  0  0  0
    6.4029   -9.8312    0.0000 O   0  0  0  0  0  0  0  0  0  0  0  0
    2.1161   -9.0062    0.0000 O   0  0  0  0  0  0  0  0  0  0  0  0
    2.1161   -7.3563    0.0000 O   0  0  0  0  0  0  0  0  0  0  0  0
    3.5450   -9.8312    0.0000 O   0  0  0  0  0  0  0  0  0  0  0  0
  1  2  1  0  0  0  0
  2  3  1  0  0  0  0
  3  4  1  0  0  0  0
  4  5  1  0  0  0  0
  5  6  1  0  0  0  0
  6  1  1  0  0  0  0
  4  7  1  1  0  0  0
  7  8  1  0  0  0  0
  8  9  2  0  0  0  0
  9 10  1  0  0  0  0
  8 11  1  0  0  0  0
 11 12  2  0  0  0  0
 12 13  1  0  0  0  0
 13 14  2  0  0  0  0
 14  9  1  0  0  0  0
 12 15  1  0  0  0  0
 15 16  1  0  0  0  0
 16 17  2  0  0  0  0
 17 18  1  0  0  0  0
 18 13  1  0  0  0  0
 10 19  1  0  0  0  0
 20 21  1  0  0  0  0
  6 21  1  1  0  0  0
 17 22  1  0  0  0  0
 22 23  1  0  0  0  0
 22 24  2  0  0  0  0
 24 25  1  0  0  0  0
 25 26  2  0  0  0  0
 26 27  1  0  0  0  0
 27 23  2  0  0  0  0
 26 28  1  0  0  0  0
 15 29  2  0  0  0  0
 11 30  1  0  0  0  0
  2 31  1  1  0  0  0
  1 32  1  6  0  0  0
  3 33  1  6  0  0  0
M  END
>  <cdx:fragmentId>
5

$$$$
