93481.cdx
  Mrv1902 05222410272D          

 71 78  0  0  0  0            999 V2000
   12.1713   -5.5509    0.0000 C   0  0  2  0  0  0  0  0  0  0  0  0
   12.1710   -4.7259    0.0000 C   0  0  0  0  0  0  0  0  0  0  0  0
   11.4563   -4.3137    0.0000 C   0  0  1  0  0  0  0  0  0  0  0  0
   10.7420   -4.7265    0.0000 C   0  0  0  0  0  0  0  0  0  0  0  0
   10.7424   -5.5515    0.0000 C   0  0  2  0  0  0  0  0  0  0  0  0
   11.4570   -5.9637    0.0000 C   0  0  1  0  0  0  0  0  0  0  0  0
   10.0281   -5.9643    0.0000 C   0  0  0  0  0  0  0  0  0  0  0  0
   10.0285   -6.7893    0.0000 C   0  0  1  0  0  0  0  0  0  0  0  0
   10.7431   -7.2015    0.0000 C   0  0  0  0  0  0  0  0  0  0  0  0
   11.4574   -6.7887    0.0000 C   0  0  0  0  0  0  0  0  0  0  0  0
    9.3134   -5.5521    0.0000 C   0  0  0  0  0  0  0  0  0  0  0  0
    8.5992   -5.9649    0.0000 C   0  0  0  0  0  0  0  0  0  0  0  0
    8.5995   -6.7899    0.0000 C   0  0  1  0  0  0  0  0  0  0  0  0
    9.3142   -7.2021    0.0000 C   0  0  1  0  0  0  0  0  0  0  0  0
    7.8852   -7.2027    0.0000 C   0  0  2  0  0  0  0  0  0  0  0  0
    7.8856   -8.0277    0.0000 C   0  0  1  0  0  0  0  0  0  0  0  0
    8.6002   -8.4399    0.0000 C   0  0  0  0  0  0  0  0  0  0  0  0
    9.3145   -8.0271    0.0000 C   0  0  0  0  0  0  0  0  0  0  0  0
    7.1706   -6.7905    0.0000 C   0  0  0  0  0  0  0  0  0  0  0  0
    6.4563   -7.2034    0.0000 C   0  0  0  0  0  0  0  0  0  0  0  0
    6.4566   -8.0284    0.0000 C   0  0  1  0  0  0  0  0  0  0  0  0
    7.1713   -8.4405    0.0000 C   0  0  2  0  0  0  0  0  0  0  0  0
    5.0273   -7.2040    0.0000 O   0  0  0  0  0  0  0  0  0  0  0  0
    5.0277   -8.0290    0.0000 C   0  0  1  0  0  0  0  0  0  0  0  0
    5.7424   -8.4412    0.0000 O   0  0  0  0  0  0  0  0  0  0  0  0
    4.3127   -6.7918    0.0000 C   0  0  1  0  0  0  0  0  0  0  0  0
    3.5984   -7.2046    0.0000 C   0  0  2  0  0  0  0  0  0  0  0  0
    3.5988   -8.0296    0.0000 C   0  0  1  0  0  0  0  0  0  0  0  0
    4.3134   -8.4418    0.0000 C   0  0  1  0  0  0  0  0  0  0  0  0
    2.8845   -8.4424    0.0000 O   0  0  0  0  0  0  0  0  0  0  0  0
    2.8848   -9.2674    0.0000 O   0  0  0  0  0  0  0  0  0  0  0  0
    3.5995   -9.6796    0.0000 C   0  0  1  0  0  0  0  0  0  0  0  0
    4.3138   -9.2668    0.0000 O   0  0  0  0  0  0  0  0  0  0  0  0
    2.1705   -9.6802    0.0000 C   0  0  1  0  0  0  0  0  0  0  0  0
    2.1709  -10.5052    0.0000 C   0  0  1  0  0  0  0  0  0  0  0  0
    2.8855  -10.9174    0.0000 C   0  0  1  0  0  0  0  0  0  0  0  0
    3.5998  -10.5046    0.0000 C   0  0  1  0  0  0  0  0  0  0  0  0
    2.8859  -11.7424    0.0000 O   0  0  0  0  0  0  0  0  0  0  0  0
    3.6006  -12.1546    0.0000 O   0  0  0  0  0  0  0  0  0  0  0  0
    4.3148  -11.7418    0.0000 C   0  0  1  0  0  0  0  0  0  0  0  0
    4.3145  -10.9168    0.0000 O   0  0  0  0  0  0  0  0  0  0  0  0
    3.6009  -12.9796    0.0000 C   0  0  2  0  0  0  0  0  0  0  0  0
    4.3156  -13.3918    0.0000 C   0  0  1  0  0  0  0  0  0  0  0  0
    5.0299  -12.9790    0.0000 C   0  0  2  0  0  0  0  0  0  0  0  0
    5.0295  -12.1540    0.0000 C   0  0  1  0  0  0  0  0  0  0  0  0
    4.3123   -5.9668    0.0000 C   0  0  0  0  0  0  0  0  0  0  0  0
    3.5977   -5.5546    0.0000 O   0  0  0  0  0  0  0  0  0  0  0  0
    2.8837   -6.7924    0.0000 O   0  0  0  0  0  0  0  0  0  0  0  0
    1.4566  -10.9180    0.0000 O   0  0  0  0  0  0  0  0  0  0  0  0
    1.4559   -9.2680    0.0000 C   0  0  0  0  0  0  0  0  0  0  0  0
    4.3159  -14.2168    0.0000 O   0  0  0  0  0  0  0  0  0  0  0  0
    7.5841   -9.1548    0.0000 C   0  0  0  0  0  0  0  0  0  0  0  0
    7.8849   -6.3777    0.0000 C   0  0  0  0  0  0  0  0  0  0  0  0
    9.3142   -6.3771    0.0000 C   0  0  0  0  0  0  0  0  0  0  0  0
   12.1717   -6.3759    0.0000 C   0  0  0  0  0  0  0  0  0  0  0  0
   12.8860   -5.9631    0.0000 O   0  0  0  0  0  0  0  0  0  0  0  0
   11.0435   -3.5994    0.0000 C   0  0  0  0  0  0  0  0  0  0  0  0
    5.7445  -13.3912    0.0000 O   0  0  0  0  0  0  0  0  0  0  0  0
    5.7438  -11.7412    0.0000 O   0  0  0  0  0  0  0  0  0  0  0  0
    2.8866  -13.3924    0.0000 C   0  0  0  0  0  0  0  0  0  0  0  0
    6.7591   -9.1552    0.0000 C   0  0  0  0  0  0  0  0  0  0  0  0
   10.0285   -7.6143    0.0000 C   0  0  0  0  0  0  0  0  0  0  0  0
   11.8685   -3.5990    0.0000 C   0  0  0  0  0  0  0  0  0  0  0  0
    1.4555   -8.4430    0.0000 O   0  0  0  0  0  0  0  0  0  0  0  0
    5.0266   -5.5540    0.0000 O   0  0  0  0  0  0  0  0  0  0  0  0
    7.1719   -9.8695    0.0000 O   0  0  0  0  0  0  0  0  0  0  0  0
   12.6935   -3.5987    0.0000 O   0  0  0  0  0  0  0  0  0  0  0  0
   11.4557   -2.8847    0.0000 O   0  0  0  0  0  0  0  0  0  0  0  0
    7.8856   -8.8527    0.0000 H   0  0  0  0  0  0  0  0  0  0  0  0
    8.5995   -7.6149    0.0000 H   0  0  0  0  0  0  0  0  0  0  0  0
   10.7424   -6.3765    0.0000 H   0  0  0  0  0  0  0  0  0  0  0  0
  1  2  1  0  0  0  0
  2  3  1  0  0  0  0
  3  4  1  0  0  0  0
  4  5  1  0  0  0  0
  5  6  1  0  0  0  0
  6  1  1  0  0  0  0
  5  7  1  0  0  0  0
  7  8  1  0  0  0  0
  8  9  1  0  0  0  0
  9 10  1  0  0  0  0
 10  6  1  0  0  0  0
  7 11  2  0  0  0  0
 11 12  1  0  0  0  0
 12 13  1  0  0  0  0
 13 14  1  0  0  0  0
 14  8  1  0  0  0  0
 13 15  1  0  0  0  0
 15 16  1  0  0  0  0
 16 17  1  0  0  0  0
 17 18  1  0  0  0  0
 18 14  1  0  0  0  0
 15 19  1  0  0  0  0
 19 20  1  0  0  0  0
 20 21  1  0  0  0  0
 21 22  1  0  0  0  0
 22 16  1  0  0  0  0
 23 24  1  0  0  0  0
 24 25  1  1  0  0  0
 21 25  1  1  0  0  0
 23 26  1  0  0  0  0
 26 27  1  0  0  0  0
 27 28  1  0  0  0  0
 28 29  1  0  0  0  0
 29 24  1  0  0  0  0
 28 30  1  1  0  0  0
 31 32  1  0  0  0  0
 32 33  1  1  0  0  0
 29 33  1  6  0  0  0
 31 34  1  0  0  0  0
 34 35  1  0  0  0  0
 35 36  1  0  0  0  0
 36 37  1  0  0  0  0
 37 32  1  0  0  0  0
 36 38  1  1  0  0  0
 39 40  1  0  0  0  0
 40 41  1  1  0  0  0
 37 41  1  6  0  0  0
 39 42  1  0  0  0  0
 42 43  1  0  0  0  0
 43 44  1  0  0  0  0
 44 45  1  0  0  0  0
 45 40  1  0  0  0  0
 26 46  1  1  0  0  0
 46 47  2  0  0  0  0
 27 48  1  6  0  0  0
 35 49  1  1  0  0  0
 34 50  1  1  0  0  0
 43 51  1  1  0  0  0
 22 52  1  1  0  0  0
 15 53  1  1  0  0  0
 14 54  1  1  0  0  0
  6 55  1  1  0  0  0
  1 56  1  1  0  0  0
  3 57  1  1  0  0  0
 44 58  1  6  0  0  0
 45 59  1  6  0  0  0
 42 60  1  6  0  0  0
 22 61  1  6  0  0  0
  8 62  1  6  0  0  0
  3 63  1  6  0  0  0
 50 64  1  0  0  0  0
 46 65  1  0  0  0  0
 52 66  1  0  0  0  0
 63 67  1  0  0  0  0
 63 68  2  0  0  0  0
 16 69  1  6  0  0  0
 13 70  1  6  0  0  0
  5 71  1  1  0  0  0
M  END
>  <cdx:fragmentId>
5

$$$$
