93499.cdx
  Mrv1902 05222410192D          

 41 46  0  0  0  0            999 V2000
    3.8756   -7.1913    0.0000 C   0  0  0  0  0  0  0  0  0  0  0  0
    3.8756   -8.0162    0.0000 C   0  0  0  0  0  0  0  0  0  0  0  0
    4.5900   -8.4288    0.0000 C   0  0  0  0  0  0  0  0  0  0  0  0
    5.3045   -8.0162    0.0000 C   0  0  0  0  0  0  0  0  0  0  0  0
    5.3045   -7.1913    0.0000 C   0  0  0  0  0  0  0  0  0  0  0  0
    4.5900   -6.7788    0.0000 C   0  0  0  0  0  0  0  0  0  0  0  0
    6.0190   -8.4288    0.0000 C   0  0  0  0  0  0  0  0  0  0  0  0
    6.7334   -8.0162    0.0000 C   0  0  0  0  0  0  0  0  0  0  0  0
    6.7334   -7.1913    0.0000 C   0  0  0  0  0  0  0  0  0  0  0  0
    6.0190   -6.7788    0.0000 O   0  0  0  0  0  0  0  0  0  0  0  0
    8.1624   -7.1913    0.0000 C   0  0  0  0  0  0  0  0  0  0  0  0
    7.4479   -6.7788    0.0000 C   0  0  0  0  0  0  0  0  0  0  0  0
    8.8769   -6.7788    0.0000 C   0  0  0  0  0  0  0  0  0  0  0  0
    8.8769   -5.9538    0.0000 C   0  0  0  0  0  0  0  0  0  0  0  0
    8.1624   -5.5413    0.0000 C   0  0  0  0  0  0  0  0  0  0  0  0
    7.4479   -5.9538    0.0000 C   0  0  0  0  0  0  0  0  0  0  0  0
    9.5913   -7.1913    0.0000 C   0  0  0  0  0  0  0  0  0  0  0  0
   10.3058   -6.7788    0.0000 C   0  0  0  0  0  0  0  0  0  0  0  0
   10.3058   -5.9538    0.0000 O   0  0  0  0  0  0  0  0  0  0  0  0
    9.5913   -5.5413    0.0000 O   0  0  0  0  0  0  0  0  0  0  0  0
   11.0203   -7.1913    0.0000 C   0  0  0  0  0  0  0  0  0  0  0  0
   11.7347   -6.7788    0.0000 C   0  0  0  0  0  0  0  0  0  0  0  0
   11.7347   -5.9538    0.0000 C   0  0  0  0  0  0  0  0  0  0  0  0
   11.0203   -5.5413    0.0000 C   0  0  0  0  0  0  0  0  0  0  0  0
    9.5913   -8.0162    0.0000 C   0  0  0  0  0  0  0  0  0  0  0  0
   10.3058   -8.4287    0.0000 C   0  0  0  0  0  0  0  0  0  0  0  0
   11.0203   -8.0162    0.0000 C   0  0  0  0  0  0  0  0  0  0  0  0
   11.0203   -4.7162    0.0000 C   0  0  0  0  0  0  0  0  0  0  0  0
   10.3058   -4.3037    0.0000 C   0  0  0  0  0  0  0  0  0  0  0  0
   11.7347   -4.3037    0.0000 C   0  0  0  0  0  0  0  0  0  0  0  0
   11.7347   -3.4788    0.0000 C   0  0  0  0  0  0  0  0  0  0  0  0
   11.0203   -3.0662    0.0000 C   0  0  0  0  0  0  0  0  0  0  0  0
   10.3058   -3.4788    0.0000 C   0  0  0  0  0  0  0  0  0  0  0  0
    3.1611   -6.7788    0.0000 O   0  0  0  0  0  0  0  0  0  0  0  0
    4.5900   -9.2538    0.0000 O   0  0  0  0  0  0  0  0  0  0  0  0
    6.0190   -9.2538    0.0000 O   0  0  0  0  0  0  0  0  0  0  0  0
    8.8769   -8.4287    0.0000 O   0  0  0  0  0  0  0  0  0  0  0  0
   10.3058   -9.2537    0.0000 O   0  0  0  0  0  0  0  0  0  0  0  0
   11.7347   -8.4287    0.0000 O   0  0  0  0  0  0  0  0  0  0  0  0
   12.4492   -7.1913    0.0000 O   0  0  0  0  0  0  0  0  0  0  0  0
   11.0203   -2.2412    0.0000 O   0  0  0  0  0  0  0  0  0  0  0  0
  1  2  2  0  0  0  0
  2  3  1  0  0  0  0
  3  4  2  0  0  0  0
  4  5  1  0  0  0  0
  5  6  2  0  0  0  0
  6  1  1  0  0  0  0
  4  7  1  0  0  0  0
  7  8  1  0  0  0  0
  8  9  2  0  0  0  0
  9 10  1  0  0  0  0
 10  5  1  0  0  0  0
 11 12  2  0  0  0  0
 12  9  1  0  0  0  0
 11 13  1  0  0  0  0
 13 14  2  0  0  0  0
 14 15  1  0  0  0  0
 15 16  2  0  0  0  0
 16 12  1  0  0  0  0
 13 17  1  0  0  0  0
 17 18  1  0  0  0  0
 18 19  1  0  0  0  0
 20 14  1  0  0  0  0
 18 21  2  0  0  0  0
 21 22  1  0  0  0  0
 22 23  1  0  0  0  0
 23 24  2  0  0  0  0
 24 19  1  0  0  0  0
 17 25  2  0  0  0  0
 25 26  1  0  0  0  0
 26 27  2  0  0  0  0
 27 21  1  0  0  0  0
 24 28  1  0  0  0  0
 28 29  1  0  0  0  0
 28 30  2  0  0  0  0
 30 31  1  0  0  0  0
 31 32  2  0  0  0  0
 32 33  1  0  0  0  0
 33 29  2  0  0  0  0
  1 34  1  0  0  0  0
  3 35  1  0  0  0  0
  7 36  2  0  0  0  0
 25 37  1  0  0  0  0
 26 38  1  0  0  0  0
 27 39  1  0  0  0  0
 22 40  2  0  0  0  0
 32 41  1  0  0  0  0
M  END
>  <cdx:fragmentId>
5

$$$$
