93491.cdx
  Mrv1902 05222410272D          

 37 40  0  0  0  0            999 V2000
    5.1011   -9.3256    0.0000 C   0  0  0  0  0  0  0  0  0  0  0  0
    5.1011  -10.1506    0.0000 C   0  0  1  0  0  0  0  0  0  0  0  0
    5.8156  -10.5631    0.0000 C   0  0  0  0  0  0  0  0  0  0  0  0
    6.5301  -10.1506    0.0000 C   0  0  0  0  0  0  0  0  0  0  0  0
    6.5301   -9.3256    0.0000 C   0  0  2  0  0  0  0  0  0  0  0  0
    5.8156   -8.9131    0.0000 C   0  0  0  0  0  0  0  0  0  0  0  0
    7.2445  -10.5631    0.0000 C   0  0  0  0  0  0  0  0  0  0  0  0
    7.9590  -10.1506    0.0000 C   0  0  0  0  0  0  0  0  0  0  0  0
    7.9590   -9.3256    0.0000 C   0  0  2  0  0  0  0  0  0  0  0  0
    7.2445   -8.9131    0.0000 C   0  0  2  0  0  0  0  0  0  0  0  0
    8.6735   -8.9131    0.0000 C   0  0  1  0  0  0  0  0  0  0  0  0
    8.6735   -8.0881    0.0000 C   0  0  2  0  0  0  0  0  0  0  0  0
    7.9590   -7.6756    0.0000 C   0  0  0  0  0  0  0  0  0  0  0  0
    7.2445   -8.0881    0.0000 C   0  0  0  0  0  0  0  0  0  0  0  0
    9.4581   -9.1681    0.0000 C   0  0  0  0  0  0  0  0  0  0  0  0
    9.9430   -8.5006    0.0000 C   0  0  0  0  0  0  0  0  0  0  0  0
    9.4581   -7.8332    0.0000 C   0  0  2  0  0  0  0  0  0  0  0  0
    9.6716   -7.0363    0.0000 C   0  0  1  0  0  0  0  0  0  0  0  0
   10.4685   -6.8228    0.0000 C   0  0  0  0  0  0  0  0  0  0  0  0
    4.3867  -10.5631    0.0000 O   0  0  0  0  0  0  0  0  0  0  0  0
    6.5301   -8.5006    0.0000 C   0  0  0  0  0  0  0  0  0  0  0  0
    8.6735   -7.2631    0.0000 C   0  0  0  0  0  0  0  0  0  0  0  0
    9.0883   -6.4530    0.0000 C   0  0  0  0  0  0  0  0  0  0  0  0
   10.6821   -6.0259    0.0000 C   0  0  0  0  0  0  0  0  0  0  0  0
   11.4675   -5.8025    0.0000 C   0  0  2  0  0  0  0  0  0  0  0  0
   11.6810   -5.0056    0.0000 C   0  0  0  0  0  0  0  0  0  0  0  0
   12.4779   -4.7921    0.0000 C   0  0  0  0  0  0  0  0  0  0  0  0
   11.0977   -4.4222    0.0000 C   0  0  0  0  0  0  0  0  0  0  0  0
   12.0509   -6.3859    0.0000 C   0  0  0  0  0  0  0  0  0  0  0  0
   12.8478   -6.1723    0.0000 C   0  0  0  0  0  0  0  0  0  0  0  0
    7.2445   -9.7381    0.0000 H   0  0  0  0  0  0  0  0  0  0  0  0
    7.9590   -8.5006    0.0000 H   0  0  0  0  0  0  0  0  0  0  0  0
    8.6735   -9.7381    0.0000 H   0  0  0  0  0  0  0  0  0  0  0  0
   10.2550   -7.6197    0.0000 H   0  0  0  0  0  0  0  0  0  0  0  0
    3.6722  -10.1506    0.0000 C   0  0  0  0  0  0  0  0  0  0  0  0
    2.9577  -10.5631    0.0000 C   0  0  0  0  0  0  0  0  0  0  0  0
    3.6722   -9.3256    0.0000 O   0  0  0  0  0  0  0  0  0  0  0  0
  1  2  1  0  0  0  0
  2  3  1  0  0  0  0
  3  4  1  0  0  0  0
  4  5  1  0  0  0  0
  5  6  1  0  0  0  0
  6  1  1  0  0  0  0
  4  7  2  0  0  0  0
  7  8  1  0  0  0  0
  8  9  1  0  0  0  0
  9 10  1  0  0  0  0
 10  5  1  0  0  0  0
  9 11  1  0  0  0  0
 11 12  1  0  0  0  0
 12 13  1  0  0  0  0
 13 14  1  0  0  0  0
 14 10  1  0  0  0  0
 11 15  1  0  0  0  0
 15 16  1  0  0  0  0
 16 17  1  0  0  0  0
 17 12  1  0  0  0  0
 17 18  1  0  0  0  0
 18 19  1  0  0  0  0
  2 20  1  1  0  0  0
  5 21  1  1  0  0  0
 12 22  1  1  0  0  0
 18 23  1  6  0  0  0
 19 24  1  0  0  0  0
 25 24  1  6  0  0  0
 25 26  1  0  0  0  0
 26 27  1  0  0  0  0
 26 28  1  0  0  0  0
 25 29  1  0  0  0  0
 29 30  1  0  0  0  0
 10 31  1  6  0  0  0
  9 32  1  1  0  0  0
 11 33  1  6  0  0  0
 17 34  1  6  0  0  0
 20 35  1  0  0  0  0
 35 36  1  0  0  0  0
 35 37  2  0  0  0  0
M  END
>  <cdx:fragmentId>
130

$$$$
