93492.cdx
  Mrv1902 05222410282D          

 46 50  0  0  0  0            999 V2000
    2.1820  -11.4743    0.0000 C   0  0  1  0  0  0  0  0  0  0  0  0
    2.1820  -10.6493    0.0000 C   0  0  0  0  0  0  0  0  0  0  0  0
    2.8965  -10.2368    0.0000 C   0  0  0  0  0  0  0  0  0  0  0  0
    2.8965  -11.8868    0.0000 C   0  0  0  0  0  0  0  0  0  0  0  0
    3.6109  -11.4743    0.0000 C   0  0  0  0  0  0  0  0  0  0  0  0
    4.3254  -11.8868    0.0000 C   0  0  0  0  0  0  0  0  0  0  0  0
    5.0399  -11.4743    0.0000 C   0  0  0  0  0  0  0  0  0  0  0  0
    5.0399  -10.6493    0.0000 C   0  0  1  0  0  0  0  0  0  0  0  0
    5.7544  -10.2368    0.0000 C   0  0  2  0  0  0  0  0  0  0  0  0
    6.5390  -10.4917    0.0000 C   0  0  0  0  0  0  0  0  0  0  0  0
    7.0239   -9.8243    0.0000 C   0  0  0  0  0  0  0  0  0  0  0  0
    6.5390   -9.1569    0.0000 C   0  0  2  0  0  0  0  0  0  0  0  0
    6.7939   -8.3722    0.0000 C   0  0  1  0  0  0  0  0  0  0  0  0
    7.6009   -8.2007    0.0000 C   0  0  0  0  0  0  0  0  0  0  0  0
    7.8558   -7.4161    0.0000 C   0  0  0  0  0  0  0  0  0  0  0  0
    6.2419   -7.7592    0.0000 C   0  0  0  0  0  0  0  0  0  0  0  0
    5.7544   -9.4118    0.0000 C   0  0  2  0  0  0  0  0  0  0  0  0
    5.7544   -8.5868    0.0000 C   0  0  0  0  0  0  0  0  0  0  0  0
    5.0399   -8.9993    0.0000 C   0  0  0  0  0  0  0  0  0  0  0  0
    4.3254   -9.4118    0.0000 C   0  0  0  0  0  0  0  0  0  0  0  0
    4.3254  -10.2368    0.0000 C   0  0  2  0  0  0  0  0  0  0  0  0
    3.6109  -10.6493    0.0000 C   0  0  1  0  0  0  0  0  0  0  0  0
    3.6109   -9.8243    0.0000 C   0  0  0  0  0  0  0  0  0  0  0  0
    1.4675  -11.8868    0.0000 O   0  0  0  0  0  0  0  0  0  0  0  0
    4.3254  -11.0618    0.0000 H   0  0  0  0  0  0  0  0  0  0  0  0
    5.0399   -9.8243    0.0000 H   0  0  0  0  0  0  0  0  0  0  0  0
    5.7544  -11.0618    0.0000 H   0  0  0  0  0  0  0  0  0  0  0  0
    8.3657   -5.8469    0.0000 C   0  0  0  0  0  0  0  0  0  0  0  0
    9.7247   -6.2884    0.0000 C   0  0  0  0  0  0  0  0  0  0  0  0
    8.9177   -6.4599    0.0000 C   0  0  0  0  0  0  0  0  0  0  0  0
   10.0218   -7.6861    0.0000 C   0  0  0  0  0  0  0  0  0  0  0  0
    9.2148   -7.8577    0.0000 C   0  0  0  0  0  0  0  0  0  0  0  0
    8.6628   -7.2446    0.0000 C   0  0  2  0  0  0  0  0  0  0  0  0
    7.3359   -8.9433    0.0000 H   0  0  0  0  0  0  0  0  0  0  0  0
   10.5738   -8.2992    0.0000 O   0  0  0  0  0  0  0  0  0  0  0  0
   11.3808   -8.1277    0.0000 C   0  0  0  0  0  0  0  0  0  0  0  0
   11.9328   -8.7408    0.0000 C   0  0  0  0  0  0  0  0  0  0  0  0
   11.6358   -7.3431    0.0000 O   0  0  0  0  0  0  0  0  0  0  0  0
   12.7398   -8.5693    0.0000 C   0  0  0  0  0  0  0  0  0  0  0  0
   13.2919   -9.1824    0.0000 C   0  0  0  0  0  0  0  0  0  0  0  0
   13.0369   -9.9670    0.0000 C   0  0  0  0  0  0  0  0  0  0  0  0
   13.5889  -10.5801    0.0000 C   0  0  0  0  0  0  0  0  0  0  0  0
   14.3959  -10.4086    0.0000 C   0  0  0  0  0  0  0  0  0  0  0  0
   14.6509   -9.6239    0.0000 C   0  0  0  0  0  0  0  0  0  0  0  0
   14.0988   -9.0108    0.0000 C   0  0  0  0  0  0  0  0  0  0  0  0
   14.9479  -11.0216    0.0000 O   0  0  0  0  0  0  0  0  0  0  0  0
 30 28  1  0  0  0  0
 30 29  1  0  0  0  0
 33 30  1  0  0  0  0
 32 31  1  0  0  0  0
 33 32  1  0  0  0  0
  1  2  1  0  0  0  0
  2  3  1  0  0  0  0
  1  4  1  0  0  0  0
  4  5  1  0  0  0  0
  5  6  2  0  0  0  0
  6  7  1  0  0  0  0
  7  8  1  0  0  0  0
  8  9  1  0  0  0  0
  9 10  1  0  0  0  0
 10 11  1  0  0  0  0
 12 11  1  0  0  0  0
 12 13  1  0  0  0  0
 13 14  1  0  0  0  0
 14 15  1  0  0  0  0
 33 15  1  6  0  0  0
 13 16  1  6  0  0  0
 12 17  1  0  0  0  0
  9 17  1  0  0  0  0
 17 18  1  1  0  0  0
 17 19  1  0  0  0  0
 19 20  1  0  0  0  0
 20 21  1  0  0  0  0
  8 21  1  0  0  0  0
 21 22  1  0  0  0  0
  3 22  1  0  0  0  0
  5 22  1  0  0  0  0
 22 23  1  1  0  0  0
  1 24  1  1  0  0  0
 21 25  1  6  0  0  0
  8 26  1  1  0  0  0
  9 27  1  6  0  0  0
 12 34  1  6  0  0  0
 31 35  1  0  0  0  0
 35 36  1  0  0  0  0
 36 37  1  0  0  0  0
 36 38  2  0  0  0  0
 37 39  2  0  0  0  0
 39 40  1  0  0  0  0
 40 41  2  0  0  0  0
 41 42  1  0  0  0  0
 42 43  2  0  0  0  0
 43 44  1  0  0  0  0
 44 45  2  0  0  0  0
 45 40  1  0  0  0  0
 43 46  1  0  0  0  0
M  END
>  <cdx:fragmentId>
5

$$$$
