93495.cdx
  Mrv1902 05222410272D          

 33 36  0  0  0  0            999 V2000
    3.7793  -10.7947    0.0000 C   0  0  1  0  0  0  0  0  0  0  0  0
    3.7793   -9.9697    0.0000 C   0  0  0  0  0  0  0  0  0  0  0  0
    4.4938   -9.5572    0.0000 C   0  0  0  0  0  0  0  0  0  0  0  0
    4.4938  -11.2072    0.0000 C   0  0  0  0  0  0  0  0  0  0  0  0
    5.2083  -10.7947    0.0000 C   0  0  2  0  0  0  0  0  0  0  0  0
    5.9227  -11.2072    0.0000 C   0  0  0  0  0  0  0  0  0  0  0  0
    6.6372  -10.7947    0.0000 C   0  0  0  0  0  0  0  0  0  0  0  0
    6.6372   -9.9697    0.0000 C   0  0  0  0  0  0  0  0  0  0  0  0
    7.3517   -9.5572    0.0000 C   0  0  0  0  0  0  0  0  0  0  0  0
    8.1363   -9.8121    0.0000 C   0  0  0  0  0  0  0  0  0  0  0  0
    8.6212   -9.1447    0.0000 C   0  0  0  0  0  0  0  0  0  0  0  0
    8.1363   -8.4772    0.0000 C   0  0  2  0  0  0  0  0  0  0  0  0
    8.3912   -7.6926    0.0000 C   0  0  1  0  0  0  0  0  0  0  0  0
    9.1982   -7.5211    0.0000 C   0  0  0  0  0  0  0  0  0  0  0  0
    9.4532   -6.7365    0.0000 C   0  0  0  0  0  0  0  0  0  0  0  0
    9.9630   -5.1672    0.0000 C   0  0  0  0  0  0  0  0  0  0  0  0
    7.8392   -7.0795    0.0000 C   0  0  0  0  0  0  0  0  0  0  0  0
    7.3517   -8.7322    0.0000 C   0  0  2  0  0  0  0  0  0  0  0  0
    7.3517   -7.9072    0.0000 C   0  0  0  0  0  0  0  0  0  0  0  0
    6.6372   -8.3197    0.0000 C   0  0  0  0  0  0  0  0  0  0  0  0
    5.9227   -8.7322    0.0000 C   0  0  0  0  0  0  0  0  0  0  0  0
    5.9227   -9.5572    0.0000 C   0  0  2  0  0  0  0  0  0  0  0  0
    5.2083   -9.9697    0.0000 C   0  0  1  0  0  0  0  0  0  0  0  0
    5.2083   -9.1447    0.0000 C   0  0  0  0  0  0  0  0  0  0  0  0
    3.0649  -11.2072    0.0000 O   0  0  0  0  0  0  0  0  0  0  0  0
    5.9227  -10.3822    0.0000 H   0  0  0  0  0  0  0  0  0  0  0  0
   11.3220   -5.6088    0.0000 C   0  0  0  0  0  0  0  0  0  0  0  0
   10.5151   -5.7803    0.0000 C   0  0  0  0  0  0  0  0  0  0  0  0
   11.6191   -7.0065    0.0000 C   0  0  0  0  0  0  0  0  0  0  0  0
   10.8122   -7.1780    0.0000 C   0  0  0  0  0  0  0  0  0  0  0  0
   10.2601   -6.5649    0.0000 C   0  0  2  0  0  0  0  0  0  0  0  0
    5.2083  -11.6197    0.0000 H   0  0  0  0  0  0  0  0  0  0  0  0
    8.9332   -8.2637    0.0000 H   0  0  0  0  0  0  0  0  0  0  0  0
 28 16  2  0  0  0  0
 28 27  1  0  0  0  0
 31 28  1  0  0  0  0
 30 29  1  0  0  0  0
 31 30  1  0  0  0  0
  1  2  1  0  0  0  0
  2  3  1  0  0  0  0
  1  4  1  0  0  0  0
  4  5  1  0  0  0  0
  5  6  1  0  0  0  0
  6  7  1  0  0  0  0
  7  8  2  0  0  0  0
  8  9  1  0  0  0  0
  9 10  2  0  0  0  0
 10 11  1  0  0  0  0
 11 12  1  0  0  0  0
 12 13  1  0  0  0  0
 13 14  1  0  0  0  0
 14 15  1  0  0  0  0
 31 15  1  6  0  0  0
 13 17  1  6  0  0  0
 12 18  1  0  0  0  0
  9 18  1  0  0  0  0
 18 19  1  1  0  0  0
 18 20  1  0  0  0  0
 20 21  1  0  0  0  0
 21 22  1  0  0  0  0
  8 22  1  0  0  0  0
 22 23  1  0  0  0  0
  3 23  1  0  0  0  0
  5 23  1  0  0  0  0
 23 24  1  1  0  0  0
  1 25  1  1  0  0  0
 22 26  1  6  0  0  0
  5 32  1  6  0  0  0
 12 33  1  6  0  0  0
M  END
>  <cdx:fragmentId>
5

$$$$
