93497.cdx
  Mrv1902 05222410262D          

 33 35  0  0  0  0            999 V2000
    6.0481   -8.3050    0.0000 C   0  0  0  0  0  0  0  0  0  0  0  0
    6.0481   -9.1300    0.0000 C   0  0  0  0  0  0  0  0  0  0  0  0
    6.7625   -9.5425    0.0000 C   0  0  0  0  0  0  0  0  0  0  0  0
    7.4770   -9.1300    0.0000 C   0  0  0  0  0  0  0  0  0  0  0  0
    7.4770   -8.3050    0.0000 C   0  0  0  0  0  0  0  0  0  0  0  0
    6.7625   -7.8925    0.0000 C   0  0  0  0  0  0  0  0  0  0  0  0
    5.3336   -7.8925    0.0000 O   0  0  0  0  0  0  0  0  0  0  0  0
    6.7625  -10.3675    0.0000 O   0  0  0  0  0  0  0  0  0  0  0  0
    8.1915   -7.8925    0.0000 C   0  0  0  0  0  0  0  0  0  0  0  0
    8.9059   -8.3050    0.0000 C   0  0  0  0  0  0  0  0  0  0  0  0
    9.6204   -7.8925    0.0000 C   0  0  0  0  0  0  0  0  0  0  0  0
   10.3349   -8.3050    0.0000 C   0  0  0  0  0  0  0  0  0  0  0  0
   11.0494   -7.8925    0.0000 C   0  0  0  0  0  0  0  0  0  0  0  0
   11.0494   -7.0675    0.0000 C   0  0  0  0  0  0  0  0  0  0  0  0
   10.3349   -6.6550    0.0000 C   0  0  0  0  0  0  0  0  0  0  0  0
    9.6204   -7.0675    0.0000 C   0  0  0  0  0  0  0  0  0  0  0  0
   11.7638   -6.6550    0.0000 O   0  0  0  0  0  0  0  0  0  0  0  0
   12.4783   -6.2425    0.0000 S   0  0  0  0  0  0  0  0  0  0  0  0
   12.8908   -6.9570    0.0000 O   0  0  0  0  0  0  0  0  0  0  0  0
   12.0658   -5.5280    0.0000 O   0  0  0  0  0  0  0  0  0  0  0  0
   13.1928   -5.8300    0.0000 O   0  0  0  0  0  0  0  0  0  0  0  0
   11.7638   -8.3050    0.0000 H   0  0  0  0  0  0  0  0  0  0  0  0
    4.6191   -8.3050    0.0000 C   0  0  2  0  0  0  0  0  0  0  0  0
    3.9046   -7.8925    0.0000 O   0  0  0  0  0  0  0  0  0  0  0  0
    3.1902   -8.3050    0.0000 C   0  0  1  0  0  0  0  0  0  0  0  0
    3.1902   -9.1300    0.0000 C   0  0  2  0  0  0  0  0  0  0  0  0
    3.9046   -9.5425    0.0000 C   0  0  1  0  0  0  0  0  0  0  0  0
    4.6191   -9.1300    0.0000 C   0  0  1  0  0  0  0  0  0  0  0  0
    2.4757   -7.8925    0.0000 C   0  0  0  0  0  0  0  0  0  0  0  0
    3.9046  -10.3675    0.0000 O   0  0  0  0  0  0  0  0  0  0  0  0
    2.4757   -9.5425    0.0000 O   0  0  0  0  0  0  0  0  0  0  0  0
    5.3336   -9.5425    0.0000 O   0  0  0  0  0  0  0  0  0  0  0  0
    1.7612   -8.3050    0.0000 O   0  0  0  0  0  0  0  0  0  0  0  0
  1  2  2  0  0  0  0
  2  3  1  0  0  0  0
  3  4  2  0  0  0  0
  4  5  1  0  0  0  0
  5  6  2  0  0  0  0
  6  1  1  0  0  0  0
  1  7  1  0  0  0  0
  3  8  1  0  0  0  0
  5  9  1  0  0  0  0
  9 10  2  0  0  0  0
 10 11  1  0  0  0  0
 11 12  2  0  0  0  0
 12 13  1  0  0  0  0
 13 14  2  0  0  0  0
 14 15  1  0  0  0  0
 15 16  2  0  0  0  0
 16 11  1  0  0  0  0
 14 17  1  0  0  0  0
 13 22  1  0  0  0  0
 23  7  1  1  0  0  0
 23 24  1  0  0  0  0
 24 25  1  0  0  0  0
 25 26  1  0  0  0  0
 26 27  1  0  0  0  0
 27 28  1  0  0  0  0
 28 23  1  0  0  0  0
 25 29  1  1  0  0  0
 27 30  1  1  0  0  0
 26 31  1  6  0  0  0
 28 32  1  6  0  0  0
 29 33  1  0  0  0  0
 17 18  1  0  0  0  0
 18 19  2  0  0  0  0
 18 20  2  0  0  0  0
 18 21  1  0  0  0  0
M  STY  1   1 SUP
M  SAL   1  5  17  18  19  20  21
M  SBL   1  1  18
M  SMT   1 OSO3H
M  SAP   1  1  17  14  1
M  END
>  <cdx:fragmentId>
5

$$$$
