93498.cdx
  Mrv1902 05222410192D          

 23 24  0  0  0  0            999 V2000
    8.8853   -8.9783    0.0000 O   0  0  0  0  0  0  0  0  0  0  0  0
    8.0884   -9.1918    0.0000 C   0  0  0  0  0  0  0  0  0  0  0  0
    6.6588   -6.0037    0.0000 C   0  0  0  0  0  0  0  0  0  0  0  0
    7.2848   -6.0861    0.0000 O   0  0  0  0  0  0  0  0  0  0  0  0
    4.7378   -8.9929    0.0000 C   0  0  0  0  0  0  0  0  0  0  0  0
    5.8550   -9.8838    0.0000 C   0  0  0  0  0  0  0  0  0  0  0  0
    5.5536   -9.1158    0.0000 C   0  0  0  0  0  0  0  0  0  0  0  0
    8.3019   -8.3949    0.0000 C   0  0  1  0  0  0  0  0  0  0  0  0
    8.7869   -7.7275    0.0000 C   0  0  0  0  0  0  0  0  0  0  0  0
    8.3019   -7.0601    0.0000 C   0  0  0  0  0  0  0  0  0  0  0  0
    6.8723   -6.8006    0.0000 C   0  0  1  0  0  0  0  0  0  0  0  0
    6.0680   -6.9842    0.0000 C   0  0  0  0  0  0  0  0  0  0  0  0
    5.7100   -7.7275    0.0000 C   0  0  0  0  0  0  0  0  0  0  0  0
    6.0680   -8.4708    0.0000 C   0  0  0  0  0  0  0  0  0  0  0  0
    6.8723   -8.6544    0.0000 C   0  0  0  0  0  0  0  0  0  0  0  0
    7.5173   -8.1400    0.0000 C   0  0  1  0  0  0  0  0  0  0  0  0
    7.5173   -7.3150    0.0000 C   0  0  1  0  0  0  0  0  0  0  0  0
    7.5173   -8.9650    0.0000 H   0  0  0  0  0  0  0  0  0  0  0  0
    7.5173   -6.4900    0.0000 H   0  0  0  0  0  0  0  0  0  0  0  0
    5.8619   -5.7902    0.0000 S   0  0  0  0  0  0  0  0  0  0  0  0
    5.6484   -6.5871    0.0000 O   0  0  0  0  0  0  0  0  0  0  0  0
    5.0650   -5.5767    0.0000 O   0  0  0  0  0  0  0  0  0  0  0  0
    6.0754   -4.9933    0.0000 O   0  0  0  0  0  0  0  0  0  0  0  0
  8  1  1  6  0  0  0
  8  2  1  0  0  0  0
 11  3  1  0  0  0  0
 11  4  1  1  0  0  0
  7  5  1  0  0  0  0
  7  6  1  0  0  0  0
 14  7  1  0  0  0  0
  8 16  1  0  0  0  0
  9  8  1  0  0  0  0
 10  9  1  0  0  0  0
 17 10  1  0  0  0  0
 11 17  1  0  0  0  0
 12 11  1  0  0  0  0
 13 12  1  0  0  0  0
 14 13  1  0  0  0  0
 15 14  2  0  0  0  0
 16 15  1  0  0  0  0
 17 16  1  0  0  0  0
 16 18  1  6  0  0  0
 17 19  1  1  0  0  0
  3 20  1  0  0  0  0
 20 21  2  0  0  0  0
 20 22  1  0  0  0  0
 20 23  2  0  0  0  0
M  END
>  <cdx:fragmentId>
5

$$$$
