93500.cdx
  Mrv1902 05222410182D          

 44 48  0  0  0  0            999 V2000
    6.2268   -5.0462    0.0000 C   0  0  0  0  0  0  0  0  0  0  0  0
    6.2268   -5.8712    0.0000 C   0  0  0  0  0  0  0  0  0  0  0  0
    6.9413   -6.2837    0.0000 C   0  0  0  0  0  0  0  0  0  0  0  0
    7.6557   -5.8712    0.0000 C   0  0  0  0  0  0  0  0  0  0  0  0
    7.6557   -5.0462    0.0000 C   0  0  0  0  0  0  0  0  0  0  0  0
    6.9413   -4.6338    0.0000 C   0  0  0  0  0  0  0  0  0  0  0  0
    5.5123   -4.6338    0.0000 O   0  0  0  0  0  0  0  0  0  0  0  0
    4.7979   -5.0462    0.0000 C   0  0  0  0  0  0  0  0  0  0  0  0
    6.9413   -7.1088    0.0000 O   0  0  0  0  0  0  0  0  0  0  0  0
    8.3702   -6.2837    0.0000 C   0  0  0  0  0  0  0  0  0  0  0  0
    9.0847   -5.8712    0.0000 C   0  0  0  0  0  0  0  0  0  0  0  0
    9.0847   -5.0462    0.0000 C   0  0  0  0  0  0  0  0  0  0  0  0
    8.3702   -4.6338    0.0000 O   0  0  0  0  0  0  0  0  0  0  0  0
    8.3702   -7.1088    0.0000 O   0  0  0  0  0  0  0  0  0  0  0  0
    9.7992   -4.6337    0.0000 C   0  0  0  0  0  0  0  0  0  0  0  0
   10.5136   -5.0462    0.0000 C   0  0  0  0  0  0  0  0  0  0  0  0
   11.2281   -4.6337    0.0000 C   0  0  0  0  0  0  0  0  0  0  0  0
   11.2281   -3.8087    0.0000 C   0  0  0  0  0  0  0  0  0  0  0  0
   10.5136   -3.3963    0.0000 C   0  0  0  0  0  0  0  0  0  0  0  0
    9.7992   -3.8087    0.0000 C   0  0  0  0  0  0  0  0  0  0  0  0
   11.9426   -3.3962    0.0000 O   0  0  0  0  0  0  0  0  0  0  0  0
    5.5123   -6.2837    0.0000 C   0  0  2  0  0  0  0  0  0  0  0  0
    4.7979   -5.8712    0.0000 O   0  0  0  0  0  0  0  0  0  0  0  0
    4.0834   -6.2837    0.0000 C   0  0  1  0  0  0  0  0  0  0  0  0
    4.0834   -7.1088    0.0000 C   0  0  2  0  0  0  0  0  0  0  0  0
    4.7979   -7.5213    0.0000 C   0  0  1  0  0  0  0  0  0  0  0  0
    5.5123   -7.1088    0.0000 C   0  0  1  0  0  0  0  0  0  0  0  0
    3.3689   -5.8712    0.0000 C   0  0  0  0  0  0  0  0  0  0  0  0
    4.7979   -8.3462    0.0000 O   0  0  0  0  0  0  0  0  0  0  0  0
    3.3689   -7.5213    0.0000 O   0  0  0  0  0  0  0  0  0  0  0  0
    6.2268   -7.5213    0.0000 O   0  0  0  0  0  0  0  0  0  0  0  0
    2.6544   -6.2837    0.0000 O   0  0  0  0  0  0  0  0  0  0  0  0
    6.9413   -7.9337    0.0000 C   0  0  2  0  0  0  0  0  0  0  0  0
    6.2268   -8.3462    0.0000 O   0  0  0  0  0  0  0  0  0  0  0  0
    6.2268   -9.1713    0.0000 C   0  0  1  0  0  0  0  0  0  0  0  0
    6.9413   -9.5838    0.0000 C   0  0  2  0  0  0  0  0  0  0  0  0
    7.6557   -9.1713    0.0000 C   0  0  1  0  0  0  0  0  0  0  0  0
    7.6557   -8.3462    0.0000 C   0  0  1  0  0  0  0  0  0  0  0  0
    5.5123   -9.5838    0.0000 C   0  0  0  0  0  0  0  0  0  0  0  0
    8.3702   -9.5838    0.0000 O   0  0  0  0  0  0  0  0  0  0  0  0
    8.3702   -7.9337    0.0000 O   0  0  0  0  0  0  0  0  0  0  0  0
    6.9413  -10.4087    0.0000 O   0  0  0  0  0  0  0  0  0  0  0  0
    5.5123  -10.4087    0.0000 O   0  0  0  0  0  0  0  0  0  0  0  0
    5.5123   -5.4588    0.0000 H   0  0  0  0  0  0  0  0  0  0  0  0
  1  2  2  0  0  0  0
  2  3  1  0  0  0  0
  3  4  2  0  0  0  0
  4  5  1  0  0  0  0
  5  6  2  0  0  0  0
  6  1  1  0  0  0  0
  1  7  1  0  0  0  0
  7  8  1  0  0  0  0
  3  9  1  0  0  0  0
  4 10  1  0  0  0  0
 10 11  1  0  0  0  0
 11 12  2  0  0  0  0
 12 13  1  0  0  0  0
 13  5  1  0  0  0  0
 10 14  2  0  0  0  0
 12 15  1  0  0  0  0
 15 16  2  0  0  0  0
 16 17  1  0  0  0  0
 17 18  2  0  0  0  0
 18 19  1  0  0  0  0
 19 20  2  0  0  0  0
 20 15  1  0  0  0  0
 18 21  1  0  0  0  0
  2 22  1  0  0  0  0
 22 23  1  0  0  0  0
 23 24  1  0  0  0  0
 24 25  1  0  0  0  0
 25 26  1  0  0  0  0
 26 27  1  0  0  0  0
 27 22  1  0  0  0  0
 24 28  1  1  0  0  0
 26 29  1  1  0  0  0
 25 30  1  6  0  0  0
 27 31  1  6  0  0  0
 28 32  1  0  0  0  0
 33  9  1  1  0  0  0
 33 34  1  0  0  0  0
 34 35  1  0  0  0  0
 35 36  1  0  0  0  0
 36 37  1  0  0  0  0
 37 38  1  0  0  0  0
 38 33  1  0  0  0  0
 35 39  1  1  0  0  0
 37 40  1  1  0  0  0
 38 41  1  6  0  0  0
 36 42  1  6  0  0  0
 39 43  1  0  0  0  0
 22 44  1  6  0  0  0
M  END
>  <cdx:fragmentId>
5

$$$$
