935011.cdx
  Mrv1902 05222410262D          

 32 35  0  0  0  0            999 V2000
    5.9982  -11.8673    0.0000 O   0  0  0  0  0  0  0  0  0  0  0  0
    6.2717  -11.0889    0.0000 C   0  0  0  0  0  0  0  0  0  0  0  0
    5.7344  -10.4629    0.0000 C   0  0  0  0  0  0  0  0  0  0  0  0
    4.9236  -10.6153    0.0000 O   0  0  0  0  0  0  0  0  0  0  0  0
    7.0825  -10.9366    0.0000 C   0  0  0  0  0  0  0  0  0  0  0  0
    7.3560  -10.1582    0.0000 C   0  0  0  0  0  0  0  0  0  0  0  0
    6.8187   -9.5322    0.0000 C   0  0  0  0  0  0  0  0  0  0  0  0
    6.0079   -9.6846    0.0000 C   0  0  0  0  0  0  0  0  0  0  0  0
    4.3862   -9.9892    0.0000 C   0  0  0  0  0  0  0  0  0  0  0  0
    7.6199  -11.5626    0.0000 O   0  0  0  0  0  0  0  0  0  0  0  0
    8.4307  -11.4103    0.0000 C   0  0  0  0  0  0  0  0  0  0  0  0
    7.0921   -8.7539    0.0000 C   0  0  1  0  0  0  0  0  0  0  0  0
    7.8699   -8.4788    0.0000 C   0  0  1  0  0  0  0  0  0  0  0  0
    7.8487   -7.6541    0.0000 C   0  0  1  0  0  0  0  0  0  0  0  0
    7.0578   -7.4194    0.0000 C   0  0  0  0  0  0  0  0  0  0  0  0
    6.5902   -8.0991    0.0000 O   0  0  0  0  0  0  0  0  0  0  0  0
    8.6609   -8.7135    0.0000 C   0  0  0  0  0  0  0  0  0  0  0  0
    9.1284   -8.0338    0.0000 O   0  0  0  0  0  0  0  0  0  0  0  0
    8.6265   -7.3790    0.0000 C   0  0  1  0  0  0  0  0  0  0  0  0
    8.9000   -6.6007    0.0000 C   0  0  0  0  0  0  0  0  0  0  0  0
    9.7108   -6.4483    0.0000 C   0  0  0  0  0  0  0  0  0  0  0  0
    9.9843   -5.6700    0.0000 C   0  0  0  0  0  0  0  0  0  0  0  0
    9.4469   -5.0440    0.0000 C   0  0  0  0  0  0  0  0  0  0  0  0
    8.6361   -5.1963    0.0000 C   0  0  0  0  0  0  0  0  0  0  0  0
    8.3626   -5.9747    0.0000 C   0  0  0  0  0  0  0  0  0  0  0  0
    9.7204   -4.2656    0.0000 O   0  0  0  0  0  0  0  0  0  0  0  0
   10.7951   -5.5176    0.0000 O   0  0  0  0  0  0  0  0  0  0  0  0
   11.3324   -6.1437    0.0000 C   0  0  0  0  0  0  0  0  0  0  0  0
    8.0988   -4.5703    0.0000 O   0  0  0  0  0  0  0  0  0  0  0  0
    7.2880   -4.7226    0.0000 C   0  0  0  0  0  0  0  0  0  0  0  0
    7.8487   -6.8291    0.0000 H   0  0  0  0  0  0  0  0  0  0  0  0
    7.8699   -9.3038    0.0000 H   0  0  0  0  0  0  0  0  0  0  0  0
  1  2  1  0  0  0  0
  2  3  1  0  0  0  0
  3  4  1  0  0  0  0
  2  5  2  0  0  0  0
  5  6  1  0  0  0  0
  6  7  2  0  0  0  0
  7  8  1  0  0  0  0
  8  3  2  0  0  0  0
  4  9  1  0  0  0  0
  5 10  1  0  0  0  0
 10 11  1  0  0  0  0
 12  7  1  6  0  0  0
 12 13  1  0  0  0  0
 13 14  1  0  0  0  0
 14 15  1  0  0  0  0
 15 16  1  0  0  0  0
 16 12  1  0  0  0  0
 13 17  1  0  0  0  0
 17 18  1  0  0  0  0
 18 19  1  0  0  0  0
 19 14  1  0  0  0  0
 19 20  1  6  0  0  0
 20 21  2  0  0  0  0
 21 22  1  0  0  0  0
 22 23  2  0  0  0  0
 23 24  1  0  0  0  0
 24 25  2  0  0  0  0
 25 20  1  0  0  0  0
 23 26  1  0  0  0  0
 22 27  1  0  0  0  0
 27 28  1  0  0  0  0
 24 29  1  0  0  0  0
 29 30  1  0  0  0  0
 14 31  1  6  0  0  0
 13 32  1  6  0  0  0
M  END
>  <cdx:fragmentId>
5

$$$$
