93509.cdx
  Mrv1902 05222410262D          

 30 32  0  0  0  0            999 V2000
    7.3500   -8.4852    0.0000 C   0  0  0  0  0  0  0  0  0  0  0  0
    8.0628   -8.9006    0.0000 C   0  0  0  0  0  0  0  0  0  0  0  0
    8.7790   -8.4909    0.0000 C   0  0  0  0  0  0  0  0  0  0  0  0
    8.7823   -7.6660    0.0000 C   0  0  0  0  0  0  0  0  0  0  0  0
    8.0695   -7.2506    0.0000 C   0  0  0  0  0  0  0  0  0  0  0  0
    7.3534   -7.6602    0.0000 C   0  0  0  0  0  0  0  0  0  0  0  0
    9.4984   -7.2563    0.0000 O   0  0  0  0  0  0  0  0  0  0  0  0
   10.2129   -7.6688    0.0000 C   0  0  0  0  0  0  0  0  0  0  0  0
    9.4918   -8.9063    0.0000 O   0  0  0  0  0  0  0  0  0  0  0  0
    9.4833   -9.7313    0.0000 C   0  0  2  0  0  0  0  0  0  0  0  0
    8.7647  -10.1364    0.0000 O   0  0  0  0  0  0  0  0  0  0  0  0
    8.7562  -10.9614    0.0000 C   0  0  1  0  0  0  0  0  0  0  0  0
    9.4664  -11.3812    0.0000 C   0  0  2  0  0  0  0  0  0  0  0  0
   10.1851  -10.9760    0.0000 C   0  0  1  0  0  0  0  0  0  0  0  0
   10.1935  -10.1511    0.0000 C   0  0  1  0  0  0  0  0  0  0  0  0
    8.0376  -11.3666    0.0000 C   0  0  0  0  0  0  0  0  0  0  0  0
   10.8953  -11.3958    0.0000 O   0  0  0  0  0  0  0  0  0  0  0  0
    9.4580  -12.2062    0.0000 O   0  0  0  0  0  0  0  0  0  0  0  0
   10.9122   -9.7459    0.0000 O   0  0  0  0  0  0  0  0  0  0  0  0
    8.0291  -12.1915    0.0000 O   0  0  0  0  0  0  0  0  0  0  0  0
    6.6339   -8.8948    0.0000 C   0  0  0  0  0  0  0  0  0  0  0  0
    5.9211   -8.4794    0.0000 C   0  0  0  0  0  0  0  0  0  0  0  0
    3.0632   -8.4679    0.0000 O   0  0  0  0  0  0  0  0  0  0  0  0
    4.4822  -10.9487    0.0000 O   0  0  0  0  0  0  0  0  0  0  0  0
    5.2017   -9.7140    0.0000 C   0  0  0  0  0  0  0  0  0  0  0  0
    5.2050   -8.8890    0.0000 C   0  0  0  0  0  0  0  0  0  0  0  0
    4.4922   -8.4737    0.0000 C   0  0  0  0  0  0  0  0  0  0  0  0
    3.7760   -8.8833    0.0000 C   0  0  0  0  0  0  0  0  0  0  0  0
    3.7727   -9.7083    0.0000 C   0  0  0  0  0  0  0  0  0  0  0  0
    4.4855  -10.1237    0.0000 C   0  0  0  0  0  0  0  0  0  0  0  0
  1  2  2  0  0  0  0
  2  3  1  0  0  0  0
  3  4  2  0  0  0  0
  4  5  1  0  0  0  0
  5  6  2  0  0  0  0
  6  1  1  0  0  0  0
  4  7  1  0  0  0  0
  7  8  1  0  0  0  0
  3  9  1  0  0  0  0
 10  9  1  1  0  0  0
 10 11  1  0  0  0  0
 11 12  1  0  0  0  0
 12 13  1  0  0  0  0
 13 14  1  0  0  0  0
 14 15  1  0  0  0  0
 15 10  1  0  0  0  0
 12 16  1  1  0  0  0
 14 17  1  1  0  0  0
 13 18  1  6  0  0  0
 15 19  1  6  0  0  0
 21  1  1  0  0  0  0
 16 20  1  0  0  0  0
 22 21  2  0  0  0  0
 26 22  1  0  0  0  0
 28 23  1  0  0  0  0
 30 24  1  0  0  0  0
 25 30  1  0  0  0  0
 26 25  2  0  0  0  0
 27 26  1  0  0  0  0
 28 27  2  0  0  0  0
 29 28  1  0  0  0  0
 30 29  2  0  0  0  0
M  END
>  <cdx:fragmentId>
5

$$$$
