93505.cdx
  Mrv1902 05222410202D          

 25 26  0  0  0  0            999 V2000
    8.1370   -7.8068    0.0000 C   0  0  0  0  0  0  0  0  0  0  0  0
    8.1370   -6.9818    0.0000 C   0  0  0  0  0  0  0  0  0  0  0  0
    7.4225   -6.5693    0.0000 C   0  0  0  0  0  0  0  0  0  0  0  0
    6.7081   -6.9818    0.0000 C   0  0  0  0  0  0  0  0  0  0  0  0
    6.7081   -7.8068    0.0000 C   0  0  0  0  0  0  0  0  0  0  0  0
    7.4225   -8.2193    0.0000 C   0  0  0  0  0  0  0  0  0  0  0  0
    7.4225   -9.0443    0.0000 O   0  0  0  0  0  0  0  0  0  0  0  0
    8.8515   -8.2193    0.0000 O   0  0  0  0  0  0  0  0  0  0  0  0
    9.5659   -7.8068    0.0000 C   0  0  0  0  0  0  0  0  0  0  0  0
    5.9936   -8.2193    0.0000 O   0  0  0  0  0  0  0  0  0  0  0  0
    5.2791   -7.8068    0.0000 C   0  0  0  0  0  0  0  0  0  0  0  0
    7.4225   -5.7443    0.0000 C   0  0  0  0  0  0  0  0  0  0  0  0
    6.7081   -5.3318    0.0000 O   0  0  0  0  0  0  0  0  0  0  0  0
    8.1370   -5.3318    0.0000 O   0  5  0  0  0  0  0  0  0  0  0  0
    6.7081   -9.4568    0.0000 C   0  0  2  0  0  0  0  0  0  0  0  0
    5.9936   -9.0443    0.0000 O   0  0  0  0  0  0  0  0  0  0  0  0
    5.2791   -9.4568    0.0000 C   0  0  1  0  0  0  0  0  0  0  0  0
    5.2791  -10.2818    0.0000 C   0  0  2  0  0  0  0  0  0  0  0  0
    5.9936  -10.6943    0.0000 C   0  0  1  0  0  0  0  0  0  0  0  0
    6.7081  -10.2818    0.0000 C   0  0  1  0  0  0  0  0  0  0  0  0
    4.5646   -9.0443    0.0000 C   0  0  0  0  0  0  0  0  0  0  0  0
    5.9936  -11.5193    0.0000 O   0  0  0  0  0  0  0  0  0  0  0  0
    7.4225  -10.6943    0.0000 O   0  0  0  0  0  0  0  0  0  0  0  0
    4.5646  -10.6943    0.0000 O   0  0  0  0  0  0  0  0  0  0  0  0
    3.8502   -9.4568    0.0000 O   0  0  0  0  0  0  0  0  0  0  0  0
  1  2  2  0  0  0  0
  2  3  1  0  0  0  0
  3  4  2  0  0  0  0
  4  5  1  0  0  0  0
  5  6  2  0  0  0  0
  6  1  1  0  0  0  0
  6  7  1  0  0  0  0
  1  8  1  0  0  0  0
  8  9  1  0  0  0  0
  5 10  1  0  0  0  0
 10 11  1  0  0  0  0
  3 12  1  0  0  0  0
 12 13  2  0  0  0  0
 12 14  1  0  0  0  0
 15  7  1  1  0  0  0
 15 16  1  0  0  0  0
 16 17  1  0  0  0  0
 17 18  1  0  0  0  0
 18 19  1  0  0  0  0
 19 20  1  0  0  0  0
 20 15  1  0  0  0  0
 17 21  1  1  0  0  0
 19 22  1  1  0  0  0
 20 23  1  6  0  0  0
 18 24  1  6  0  0  0
 21 25  1  0  0  0  0
M  CHG  1  14  -1
M  END
>  <cdx:fragmentId>
5

$$$$
