93507.cdx
  Mrv1902 05222410192D          

 34 36  0  0  0  0            999 V2000
    3.9581   -5.1563    0.0000 C   0  0  2  0  0  0  0  0  0  0  0  0
    3.9581   -5.9813    0.0000 C   0  0  2  0  0  0  0  0  0  0  0  0
    4.6725   -6.3937    0.0000 C   0  0  1  0  0  0  0  0  0  0  0  0
    5.3870   -5.9813    0.0000 C   0  0  2  0  0  0  0  0  0  0  0  0
    5.3870   -5.1563    0.0000 C   0  0  1  0  0  0  0  0  0  0  0  0
    4.6725   -4.7438    0.0000 O   0  0  0  0  0  0  0  0  0  0  0  0
    3.2436   -4.7438    0.0000 C   0  0  0  0  0  0  0  0  0  0  0  0
    6.1015   -4.7437    0.0000 O   0  0  0  0  0  0  0  0  0  0  0  0
    4.6725   -7.2188    0.0000 O   0  0  0  0  0  0  0  0  0  0  0  0
    3.2436   -6.3937    0.0000 O   0  0  0  0  0  0  0  0  0  0  0  0
    6.1015   -6.3937    0.0000 O   0  0  0  0  0  0  0  0  0  0  0  0
    2.5291   -5.1563    0.0000 O   0  0  0  0  0  0  0  0  0  0  0  0
    6.9265   -4.7437    0.0000 C   0  0  0  0  0  0  0  0  0  0  0  0
    7.3390   -5.4582    0.0000 C   0  0  0  0  0  0  0  0  0  0  0  0
    8.1640   -5.4582    0.0000 C   0  0  0  0  0  0  0  0  0  0  0  0
    8.5765   -4.7437    0.0000 C   0  0  0  0  0  0  0  0  0  0  0  0
    8.1640   -4.0293    0.0000 C   0  0  0  0  0  0  0  0  0  0  0  0
    7.3390   -4.0293    0.0000 C   0  0  0  0  0  0  0  0  0  0  0  0
    6.9265   -3.3148    0.0000 O   0  0  0  0  0  0  0  0  0  0  0  0
    7.3390   -2.6003    0.0000 C   0  0  0  0  0  0  0  0  0  0  0  0
    6.9265   -6.1727    0.0000 O   0  0  0  0  0  0  0  0  0  0  0  0
    7.3390   -6.8872    0.0000 C   0  0  0  0  0  0  0  0  0  0  0  0
    9.4015   -4.7437    0.0000 C   0  0  0  0  0  0  0  0  0  0  0  0
    9.8140   -4.0293    0.0000 O   0  0  0  0  0  0  0  0  0  0  0  0
    9.8140   -5.4582    0.0000 O   0  0  0  0  0  0  0  0  0  0  0  0
    6.1015   -7.2188    0.0000 C   0  0  2  0  0  0  0  0  0  0  0  0
    5.4340   -7.7037    0.0000 O   0  0  0  0  0  0  0  0  0  0  0  0
    5.6890   -8.4883    0.0000 C   0  0  0  0  0  0  0  0  0  0  0  0
    6.5140   -8.4883    0.0000 C   0  0  2  0  0  0  0  0  0  0  0  0
    6.7689   -7.7037    0.0000 C   0  0  1  0  0  0  0  0  0  0  0  0
    7.5535   -7.4487    0.0000 O   0  0  0  0  0  0  0  0  0  0  0  0
    7.3109   -8.7018    0.0000 O   0  0  0  0  0  0  0  0  0  0  0  0
    6.5140   -9.3133    0.0000 C   0  0  0  0  0  0  0  0  0  0  0  0
    7.2284   -9.7258    0.0000 O   0  0  0  0  0  0  0  0  0  0  0  0
  1  2  1  0  0  0  0
  2  3  1  0  0  0  0
  3  4  1  0  0  0  0
  4  5  1  0  0  0  0
  5  6  1  0  0  0  0
  6  1  1  0  0  0  0
  1  7  1  1  0  0  0
  5  8  1  1  0  0  0
  3  9  1  1  0  0  0
  2 10  1  6  0  0  0
  4 11  1  6  0  0  0
  7 12  1  0  0  0  0
  8 13  1  0  0  0  0
 13 14  2  0  0  0  0
 14 15  1  0  0  0  0
 15 16  2  0  0  0  0
 16 17  1  0  0  0  0
 17 18  2  0  0  0  0
 18 13  1  0  0  0  0
 18 19  1  0  0  0  0
 19 20  1  0  0  0  0
 14 21  1  0  0  0  0
 21 22  1  0  0  0  0
 16 23  1  0  0  0  0
 23 24  2  0  0  0  0
 23 25  1  0  0  0  0
 26 11  1  1  0  0  0
 26 27  1  0  0  0  0
 27 28  1  0  0  0  0
 28 29  1  0  0  0  0
 29 30  1  0  0  0  0
 30 26  1  0  0  0  0
 30 31  1  6  0  0  0
 29 32  1  6  0  0  0
 29 33  1  1  0  0  0
 33 34  1  0  0  0  0
M  END
>  <cdx:fragmentId>
5

$$$$
