93514.cdx
  Mrv1902 05222410182D          

 45 48  0  0  0  0            999 V2000
    2.7481   -9.0062    0.0000 O   0  0  0  0  0  0  0  0  0  0  0  0
    3.4625  -10.2437    0.0000 O   0  0  0  0  0  0  0  0  0  0  0  0
    4.1770   -9.8312    0.0000 C   0  0  2  0  0  0  0  0  0  0  0  0
    4.1770   -9.0062    0.0000 C   0  0  1  0  0  0  0  0  0  0  0  0
    3.4625   -8.5938    0.0000 C   0  0  0  0  0  0  0  0  0  0  0  0
    4.8915  -10.2437    0.0000 C   0  0  1  0  0  0  0  0  0  0  0  0
    5.6059   -9.8312    0.0000 C   0  0  2  0  0  0  0  0  0  0  0  0
    5.6059   -9.0062    0.0000 C   0  0  1  0  0  0  0  0  0  0  0  0
    4.8915   -8.5938    0.0000 O   0  0  0  0  0  0  0  0  0  0  0  0
    6.3204   -8.5938    0.0000 O   0  0  0  0  0  0  0  0  0  0  0  0
    6.3204   -7.7687    0.0000 C   0  0  0  0  0  0  0  0  0  0  0  0
    5.6059   -7.3563    0.0000 C   0  0  0  0  0  0  0  0  0  0  0  0
    7.0349   -7.3563    0.0000 C   0  0  0  0  0  0  0  0  0  0  0  0
    7.0349   -6.5313    0.0000 C   0  0  0  0  0  0  0  0  0  0  0  0
    6.3204   -6.1188    0.0000 C   0  0  0  0  0  0  0  0  0  0  0  0
    5.6059   -6.5313    0.0000 C   0  0  0  0  0  0  0  0  0  0  0  0
    7.7494   -7.7687    0.0000 C   0  0  0  0  0  0  0  0  0  0  0  0
    8.4638   -7.3563    0.0000 O   0  0  0  0  0  0  0  0  0  0  0  0
    8.4638   -6.5313    0.0000 C   0  0  0  0  0  0  0  0  0  0  0  0
    7.7494   -6.1188    0.0000 O   0  0  0  0  0  0  0  0  0  0  0  0
    7.0349   -9.0062    0.0000 O   0  0  0  0  0  0  0  0  0  0  0  0
    7.7494   -8.5938    0.0000 C   0  0  0  0  0  0  0  0  0  0  0  0
    9.1783   -6.1188    0.0000 C   0  0  0  0  0  0  0  0  0  0  0  0
    9.1783   -5.2938    0.0000 C   0  0  0  0  0  0  0  0  0  0  0  0
    9.8928   -6.5313    0.0000 C   0  0  0  0  0  0  0  0  0  0  0  0
   10.6072   -6.1188    0.0000 C   0  0  0  0  0  0  0  0  0  0  0  0
   10.6072   -5.2938    0.0000 C   0  0  0  0  0  0  0  0  0  0  0  0
    9.8928   -4.8812    0.0000 C   0  0  0  0  0  0  0  0  0  0  0  0
    4.8915   -6.1188    0.0000 O   0  0  0  0  0  0  0  0  0  0  0  0
    8.4638   -9.0062    0.0000 O   0  0  0  0  0  0  0  0  0  0  0  0
   11.3217   -4.8812    0.0000 O   0  0  0  0  0  0  0  0  0  0  0  0
   11.3217   -6.5313    0.0000 O   0  0  0  0  0  0  0  0  0  0  0  0
    4.8915  -11.0688    0.0000 O   0  0  0  0  0  0  0  0  0  0  0  0
    6.3204  -10.2437    0.0000 O   0  0  0  0  0  0  0  0  0  0  0  0
    7.0157  -12.2996    0.0000 O   0  0  0  0  0  0  0  0  0  0  0  0
    8.4446  -12.3032    0.0000 O   0  0  0  0  0  0  0  0  0  0  0  0
    8.4467  -11.4782    0.0000 C   0  0  2  0  0  0  0  0  0  0  0  0
    7.7333  -11.0639    0.0000 C   0  0  1  0  0  0  0  0  0  0  0  0
    7.0178  -11.4746    0.0000 C   0  0  0  0  0  0  0  0  0  0  0  0
    9.1622  -11.0675    0.0000 C   0  0  1  0  0  0  0  0  0  0  0  0
    9.1643  -10.2425    0.0000 C   0  0  2  0  0  0  0  0  0  0  0  0
    8.4509   -9.8282    0.0000 C   0  0  1  0  0  0  0  0  0  0  0  0
    7.7354  -10.2389    0.0000 O   0  0  0  0  0  0  0  0  0  0  0  0
    9.8757  -11.4818    0.0000 O   0  0  0  0  0  0  0  0  0  0  0  0
    9.8798   -9.8318    0.0000 O   0  0  0  0  0  0  0  0  0  0  0  0
  3  2  1  6  0  0  0
  3  4  1  0  0  0  0
  4  5  1  1  0  0  0
  5  1  1  0  0  0  0
  3  6  1  0  0  0  0
  6  7  1  0  0  0  0
  7  8  1  0  0  0  0
  8  9  1  0  0  0  0
  9  4  1  0  0  0  0
  8 10  1  1  0  0  0
 10 11  1  0  0  0  0
 11 12  1  0  0  0  0
 11 13  2  0  0  0  0
 13 14  1  0  0  0  0
 14 15  2  0  0  0  0
 15 16  1  0  0  0  0
 16 12  2  0  0  0  0
 13 17  1  0  0  0  0
 18 19  2  0  0  0  0
 19 20  1  0  0  0  0
 20 14  1  0  0  0  0
 21 22  2  0  0  0  0
 22 17  1  0  0  0  0
 19 23  1  0  0  0  0
 23 24  2  0  0  0  0
 23 25  1  0  0  0  0
 25 26  2  0  0  0  0
 26 27  1  0  0  0  0
 27 28  2  0  0  0  0
 28 24  1  0  0  0  0
 16 29  1  0  0  0  0
 22 30  1  0  0  0  0
 27 31  1  0  0  0  0
 26 32  1  0  0  0  0
  6 33  1  1  0  0  0
  7 34  1  6  0  0  0
 37 36  1  6  0  0  0
 37 38  1  0  0  0  0
 38 39  1  1  0  0  0
 39 35  1  0  0  0  0
 37 40  1  0  0  0  0
 40 41  1  0  0  0  0
 41 42  1  0  0  0  0
 42 43  1  0  0  0  0
 43 38  1  0  0  0  0
 40 44  1  1  0  0  0
 41 45  1  6  0  0  0
 42 30  1  1  0  0  0
M  END
>  <cdx:fragmentId>
5

$$$$
