9351.cdx
  Mrv1902 05222410192D          

245275  0  0  0  0            999 V2000
    2.9816   -3.0245    0.0000 C   0  0  0  0  0  0  0  0  0  0  0  0
    2.9816   -3.8492    0.0000 C   0  0  0  0  0  0  0  0  0  0  0  0
    3.6958   -4.2616    0.0000 C   0  0  0  0  0  0  0  0  0  0  0  0
    4.4101   -3.8492    0.0000 C   0  0  0  0  0  0  0  0  0  0  0  0
    4.4101   -3.0245    0.0000 C   0  0  0  0  0  0  0  0  0  0  0  0
    3.6958   -2.6121    0.0000 C   0  0  0  0  0  0  0  0  0  0  0  0
    5.1243   -4.2616    0.0000 C   0  0  1  0  0  0  0  0  0  0  0  0
    5.8386   -3.8492    0.0000 C   0  0  2  0  0  0  0  0  0  0  0  0
    5.8386   -3.0245    0.0000 C   0  0  2  0  0  0  0  0  0  0  0  0
    5.1243   -2.6121    0.0000 O   0  0  0  0  0  0  0  0  0  0  0  0
    6.5528   -4.2616    0.0000 O   0  0  0  0  0  0  0  0  0  0  0  0
    7.2671   -3.0245    0.0000 C   0  0  0  0  0  0  0  0  0  0  0  0
    6.5528   -2.6121    0.0000 C   0  0  0  0  0  0  0  0  0  0  0  0
    7.9813   -2.6121    0.0000 C   0  0  0  0  0  0  0  0  0  0  0  0
    7.9813   -1.7874    0.0000 C   0  0  0  0  0  0  0  0  0  0  0  0
    7.2671   -1.3750    0.0000 C   0  0  0  0  0  0  0  0  0  0  0  0
    6.5528   -1.7874    0.0000 C   0  0  0  0  0  0  0  0  0  0  0  0
    8.6955   -1.3750    0.0000 O   0  0  0  0  0  0  0  0  0  0  0  0
    8.6955   -3.0245    0.0000 O   0  0  0  0  0  0  0  0  0  0  0  0
    2.2673   -2.6121    0.0000 O   0  0  0  0  0  0  0  0  0  0  0  0
    3.6958   -5.0863    0.0000 O   0  0  0  0  0  0  0  0  0  0  0  0
    5.1552   -5.7839    0.0000 C   0  0  0  0  0  0  0  0  0  0  0  0
    4.4410   -6.1963    0.0000 C   0  0  0  0  0  0  0  0  0  0  0  0
    4.4410   -7.0210    0.0000 C   0  0  0  0  0  0  0  0  0  0  0  0
    5.1552   -7.4334    0.0000 C   0  0  0  0  0  0  0  0  0  0  0  0
    5.8695   -7.0210    0.0000 C   0  0  0  0  0  0  0  0  0  0  0  0
    5.8695   -6.1963    0.0000 C   0  0  0  0  0  0  0  0  0  0  0  0
    6.5837   -7.4334    0.0000 C   0  0  1  0  0  0  0  0  0  0  0  0
    7.2980   -7.0210    0.0000 C   0  0  2  0  0  0  0  0  0  0  0  0
    7.2980   -6.1963    0.0000 C   0  0  2  0  0  0  0  0  0  0  0  0
    6.5837   -5.7839    0.0000 O   0  0  0  0  0  0  0  0  0  0  0  0
    8.0122   -7.4334    0.0000 O   0  0  0  0  0  0  0  0  0  0  0  0
    8.0122   -5.7839    0.0000 C   0  0  0  0  0  0  0  0  0  0  0  0
    8.7265   -6.1963    0.0000 C   0  0  0  0  0  0  0  0  0  0  0  0
    9.4407   -5.7839    0.0000 C   0  0  0  0  0  0  0  0  0  0  0  0
    9.4407   -4.9592    0.0000 C   0  0  0  0  0  0  0  0  0  0  0  0
    8.7265   -4.5468    0.0000 C   0  0  0  0  0  0  0  0  0  0  0  0
    8.0122   -4.9592    0.0000 C   0  0  0  0  0  0  0  0  0  0  0  0
    3.7268   -5.7839    0.0000 O   0  0  0  0  0  0  0  0  0  0  0  0
    5.1552   -8.2581    0.0000 O   0  0  0  0  0  0  0  0  0  0  0  0
   10.1550   -4.5468    0.0000 O   0  0  0  0  0  0  0  0  0  0  0  0
   10.1550   -6.1963    0.0000 O   0  0  0  0  0  0  0  0  0  0  0  0
   10.7262   -3.2650    0.0000 C   0  0  0  0  0  0  0  0  0  0  0  0
   11.4405   -3.6774    0.0000 C   0  0  0  0  0  0  0  0  0  0  0  0
   11.4405   -4.5021    0.0000 C   0  0  0  0  0  0  0  0  0  0  0  0
   12.1547   -4.9145    0.0000 C   0  0  0  0  0  0  0  0  0  0  0  0
   12.8689   -4.5021    0.0000 C   0  0  0  0  0  0  0  0  0  0  0  0
   12.8689   -3.6774    0.0000 C   0  0  0  0  0  0  0  0  0  0  0  0
   12.1547   -3.2650    0.0000 C   0  0  0  0  0  0  0  0  0  0  0  0
   10.7262   -2.4403    0.0000 O   0  0  0  0  0  0  0  0  0  0  0  0
   13.5832   -3.2650    0.0000 O   0  0  0  0  0  0  0  0  0  0  0  0
   13.5832   -4.9145    0.0000 O   0  0  0  0  0  0  0  0  0  0  0  0
   12.1547   -5.7393    0.0000 O   0  0  0  0  0  0  0  0  0  0  0  0
   11.5094   -6.5690    0.0000 C   0  0  0  0  0  0  0  0  0  0  0  0
   12.2236   -6.9814    0.0000 C   0  0  0  0  0  0  0  0  0  0  0  0
   12.2236   -7.8061    0.0000 C   0  0  0  0  0  0  0  0  0  0  0  0
   12.9379   -8.2185    0.0000 C   0  0  0  0  0  0  0  0  0  0  0  0
   13.6521   -7.8061    0.0000 C   0  0  0  0  0  0  0  0  0  0  0  0
   13.6521   -6.9814    0.0000 C   0  0  0  0  0  0  0  0  0  0  0  0
   12.9379   -6.5690    0.0000 C   0  0  0  0  0  0  0  0  0  0  0  0
   11.5094   -5.7443    0.0000 O   0  0  0  0  0  0  0  0  0  0  0  0
   14.3663   -6.5690    0.0000 O   0  0  0  0  0  0  0  0  0  0  0  0
   14.3663   -8.2185    0.0000 O   0  0  0  0  0  0  0  0  0  0  0  0
   12.9379   -9.0433    0.0000 O   0  0  0  0  0  0  0  0  0  0  0  0
    6.5985   -8.8767    0.0000 C   0  0  0  0  0  0  0  0  0  0  0  0
    5.8843   -9.2891    0.0000 C   0  0  0  0  0  0  0  0  0  0  0  0
    5.8843  -10.1138    0.0000 C   0  0  0  0  0  0  0  0  0  0  0  0
    6.5985  -10.5262    0.0000 C   0  0  0  0  0  0  0  0  0  0  0  0
    7.3128  -10.1138    0.0000 C   0  0  0  0  0  0  0  0  0  0  0  0
    7.3128   -9.2891    0.0000 C   0  0  0  0  0  0  0  0  0  0  0  0
    8.0270  -10.5262    0.0000 C   0  0  1  0  0  0  0  0  0  0  0  0
    8.7413  -10.1138    0.0000 C   0  0  2  0  0  0  0  0  0  0  0  0
    8.7413   -9.2891    0.0000 C   0  0  2  0  0  0  0  0  0  0  0  0
    8.0270   -8.8767    0.0000 O   0  0  0  0  0  0  0  0  0  0  0  0
    9.4555   -8.8767    0.0000 C   0  0  0  0  0  0  0  0  0  0  0  0
   10.1698   -9.2891    0.0000 C   0  0  0  0  0  0  0  0  0  0  0  0
   10.8840   -8.8767    0.0000 C   0  0  0  0  0  0  0  0  0  0  0  0
   10.8840   -8.0520    0.0000 C   0  0  0  0  0  0  0  0  0  0  0  0
   10.1698   -7.6396    0.0000 C   0  0  0  0  0  0  0  0  0  0  0  0
    9.4555   -8.0520    0.0000 C   0  0  0  0  0  0  0  0  0  0  0  0
    5.1700   -8.8767    0.0000 O   0  0  0  0  0  0  0  0  0  0  0  0
    6.5985  -11.3509    0.0000 O   0  0  0  0  0  0  0  0  0  0  0  0
   11.5983   -7.6396    0.0000 O   0  0  0  0  0  0  0  0  0  0  0  0
   11.5983   -9.2891    0.0000 O   0  0  0  0  0  0  0  0  0  0  0  0
   13.6743   -9.8680    0.0000 C   0  0  0  0  0  0  0  0  0  0  0  0
   14.3885  -10.2804    0.0000 C   0  0  0  0  0  0  0  0  0  0  0  0
   14.3885  -11.1051    0.0000 C   0  0  0  0  0  0  0  0  0  0  0  0
   15.1028  -11.5175    0.0000 C   0  0  0  0  0  0  0  0  0  0  0  0
   15.8170  -11.1051    0.0000 C   0  0  0  0  0  0  0  0  0  0  0  0
   15.8170  -10.2804    0.0000 C   0  0  0  0  0  0  0  0  0  0  0  0
   15.1028   -9.8680    0.0000 C   0  0  0  0  0  0  0  0  0  0  0  0
   13.6743   -9.0433    0.0000 O   0  0  0  0  0  0  0  0  0  0  0  0
   16.5313   -9.8680    0.0000 O   0  0  0  0  0  0  0  0  0  0  0  0
   16.5313  -11.5175    0.0000 O   0  0  0  0  0  0  0  0  0  0  0  0
   15.1028  -12.3422    0.0000 O   0  0  0  0  0  0  0  0  0  0  0  0
    8.0075  -12.0726    0.0000 C   0  0  0  0  0  0  0  0  0  0  0  0
    7.2932  -12.4849    0.0000 C   0  0  0  0  0  0  0  0  0  0  0  0
    7.2932  -13.3097    0.0000 C   0  0  0  0  0  0  0  0  0  0  0  0
    8.0075  -13.7220    0.0000 C   0  0  0  0  0  0  0  0  0  0  0  0
    8.7217  -13.3097    0.0000 C   0  0  0  0  0  0  0  0  0  0  0  0
    8.7217  -12.4849    0.0000 C   0  0  0  0  0  0  0  0  0  0  0  0
    9.4360  -13.7220    0.0000 C   0  0  1  0  0  0  0  0  0  0  0  0
   10.1502  -13.3097    0.0000 C   0  0  2  0  0  0  0  0  0  0  0  0
   10.1502  -12.4849    0.0000 C   0  0  2  0  0  0  0  0  0  0  0  0
    9.4360  -12.0726    0.0000 O   0  0  0  0  0  0  0  0  0  0  0  0
   10.8645  -12.0726    0.0000 C   0  0  0  0  0  0  0  0  0  0  0  0
   11.5787  -12.4849    0.0000 C   0  0  0  0  0  0  0  0  0  0  0  0
   12.2929  -12.0726    0.0000 C   0  0  0  0  0  0  0  0  0  0  0  0
   12.2929  -11.2478    0.0000 C   0  0  0  0  0  0  0  0  0  0  0  0
   11.5787  -10.8355    0.0000 C   0  0  0  0  0  0  0  0  0  0  0  0
   10.8645  -11.2478    0.0000 C   0  0  0  0  0  0  0  0  0  0  0  0
    6.5790  -12.0726    0.0000 O   0  0  0  0  0  0  0  0  0  0  0  0
    8.0075  -14.5468    0.0000 O   0  0  0  0  0  0  0  0  0  0  0  0
   13.0072  -10.8355    0.0000 O   0  0  0  0  0  0  0  0  0  0  0  0
   13.0072  -12.4849    0.0000 O   0  0  0  0  0  0  0  0  0  0  0  0
   14.3616  -13.0982    0.0000 C   0  0  0  0  0  0  0  0  0  0  0  0
   15.0758  -13.5106    0.0000 C   0  0  0  0  0  0  0  0  0  0  0  0
   15.0758  -14.3353    0.0000 C   0  0  0  0  0  0  0  0  0  0  0  0
   15.7901  -14.7477    0.0000 C   0  0  0  0  0  0  0  0  0  0  0  0
   16.5043  -14.3353    0.0000 C   0  0  0  0  0  0  0  0  0  0  0  0
   16.5043  -13.5106    0.0000 C   0  0  0  0  0  0  0  0  0  0  0  0
   15.7901  -13.0982    0.0000 C   0  0  0  0  0  0  0  0  0  0  0  0
   14.3616  -12.2735    0.0000 O   0  0  0  0  0  0  0  0  0  0  0  0
   17.2186  -13.0982    0.0000 O   0  0  0  0  0  0  0  0  0  0  0  0
   17.2186  -14.7477    0.0000 O   0  0  0  0  0  0  0  0  0  0  0  0
   15.7901  -15.5724    0.0000 O   0  0  0  0  0  0  0  0  0  0  0  0
    9.4508  -15.2684    0.0000 C   0  0  0  0  0  0  0  0  0  0  0  0
    8.7365  -15.6808    0.0000 C   0  0  0  0  0  0  0  0  0  0  0  0
    8.7365  -16.5055    0.0000 C   0  0  0  0  0  0  0  0  0  0  0  0
    9.4508  -16.9179    0.0000 C   0  0  0  0  0  0  0  0  0  0  0  0
   10.1650  -16.5055    0.0000 C   0  0  0  0  0  0  0  0  0  0  0  0
   10.1650  -15.6808    0.0000 C   0  0  0  0  0  0  0  0  0  0  0  0
   10.8793  -16.9179    0.0000 C   0  0  1  0  0  0  0  0  0  0  0  0
   11.5935  -16.5055    0.0000 C   0  0  2  0  0  0  0  0  0  0  0  0
   11.5935  -15.6808    0.0000 C   0  0  2  0  0  0  0  0  0  0  0  0
   10.8793  -15.2684    0.0000 O   0  0  0  0  0  0  0  0  0  0  0  0
   12.3078  -15.2684    0.0000 C   0  0  0  0  0  0  0  0  0  0  0  0
   13.0220  -15.6808    0.0000 C   0  0  0  0  0  0  0  0  0  0  0  0
   13.7362  -15.2684    0.0000 C   0  0  0  0  0  0  0  0  0  0  0  0
   13.7362  -14.4437    0.0000 C   0  0  0  0  0  0  0  0  0  0  0  0
   13.0220  -14.0313    0.0000 C   0  0  0  0  0  0  0  0  0  0  0  0
   12.3078  -14.4437    0.0000 C   0  0  0  0  0  0  0  0  0  0  0  0
    8.0223  -15.2684    0.0000 O   0  0  0  0  0  0  0  0  0  0  0  0
    9.4508  -17.7427    0.0000 O   0  0  0  0  0  0  0  0  0  0  0  0
   14.4505  -14.0313    0.0000 O   0  0  0  0  0  0  0  0  0  0  0  0
   14.4505  -15.6808    0.0000 O   0  0  0  0  0  0  0  0  0  0  0  0
   16.5609  -15.9848    0.0000 C   0  0  0  0  0  0  0  0  0  0  0  0
   17.2751  -16.3972    0.0000 C   0  0  0  0  0  0  0  0  0  0  0  0
   17.2751  -17.2219    0.0000 C   0  0  0  0  0  0  0  0  0  0  0  0
   17.9894  -17.6343    0.0000 C   0  0  0  0  0  0  0  0  0  0  0  0
   18.7036  -17.2219    0.0000 C   0  0  0  0  0  0  0  0  0  0  0  0
   18.7036  -16.3972    0.0000 C   0  0  0  0  0  0  0  0  0  0  0  0
   17.9907  -15.9798    0.0000 C   0  0  0  0  0  0  0  0  0  0  0  0
   16.5609  -15.1601    0.0000 O   0  0  0  0  0  0  0  0  0  0  0  0
   19.4179  -15.9848    0.0000 O   0  0  0  0  0  0  0  0  0  0  0  0
   19.4179  -17.6343    0.0000 O   0  0  0  0  0  0  0  0  0  0  0  0
   17.9894  -18.4590    0.0000 O   0  0  0  0  0  0  0  0  0  0  0  0
   10.8597  -18.3612    0.0000 C   0  0  0  0  0  0  0  0  0  0  0  0
   10.1455  -18.7736    0.0000 C   0  0  0  0  0  0  0  0  0  0  0  0
   10.1455  -19.5983    0.0000 C   0  0  0  0  0  0  0  0  0  0  0  0
   10.8597  -20.0107    0.0000 C   0  0  0  0  0  0  0  0  0  0  0  0
   11.5739  -19.5983    0.0000 C   0  0  0  0  0  0  0  0  0  0  0  0
   11.5739  -18.7736    0.0000 C   0  0  0  0  0  0  0  0  0  0  0  0
   12.2882  -20.0107    0.0000 C   0  0  1  0  0  0  0  0  0  0  0  0
   13.0024  -19.5983    0.0000 C   0  0  2  0  0  0  0  0  0  0  0  0
   13.0024  -18.7736    0.0000 C   0  0  2  0  0  0  0  0  0  0  0  0
   12.2882  -18.3612    0.0000 O   0  0  0  0  0  0  0  0  0  0  0  0
   13.7167  -18.3612    0.0000 C   0  0  0  0  0  0  0  0  0  0  0  0
   14.4309  -18.7736    0.0000 C   0  0  0  0  0  0  0  0  0  0  0  0
   15.1452  -18.3612    0.0000 C   0  0  0  0  0  0  0  0  0  0  0  0
   15.1452  -17.5365    0.0000 C   0  0  0  0  0  0  0  0  0  0  0  0
   14.4309  -17.1241    0.0000 C   0  0  0  0  0  0  0  0  0  0  0  0
   13.7167  -17.5365    0.0000 C   0  0  0  0  0  0  0  0  0  0  0  0
    9.4312  -18.3612    0.0000 O   0  0  0  0  0  0  0  0  0  0  0  0
   10.8597  -20.8354    0.0000 O   0  0  0  0  0  0  0  0  0  0  0  0
   15.8594  -17.1241    0.0000 O   0  0  0  0  0  0  0  0  0  0  0  0
   15.8594  -18.7736    0.0000 O   0  0  0  0  0  0  0  0  0  0  0  0
   17.2138  -19.1120    0.0000 C   0  0  0  0  0  0  0  0  0  0  0  0
   18.0999  -19.4556    0.0000 C   0  0  0  0  0  0  0  0  0  0  0  0
   18.0999  -20.2803    0.0000 C   0  0  0  0  0  0  0  0  0  0  0  0
   18.8141  -20.6927    0.0000 C   0  0  0  0  0  0  0  0  0  0  0  0
   19.5284  -20.2803    0.0000 C   0  0  0  0  0  0  0  0  0  0  0  0
   19.5284  -19.4556    0.0000 C   0  0  0  0  0  0  0  0  0  0  0  0
   18.8141  -19.0432    0.0000 C   0  0  0  0  0  0  0  0  0  0  0  0
   17.2138  -18.2872    0.0000 O   0  0  0  0  0  0  0  0  0  0  0  0
   20.2426  -19.0432    0.0000 O   0  0  0  0  0  0  0  0  0  0  0  0
   20.2426  -20.6927    0.0000 O   0  0  0  0  0  0  0  0  0  0  0  0
   18.8141  -21.5174    0.0000 O   0  0  0  0  0  0  0  0  0  0  0  0
   12.2686  -21.5227    0.0000 C   0  0  0  0  0  0  0  0  0  0  0  0
   11.5544  -21.9351    0.0000 C   0  0  0  0  0  0  0  0  0  0  0  0
   11.5544  -22.7598    0.0000 C   0  0  0  0  0  0  0  0  0  0  0  0
   12.2686  -23.1722    0.0000 C   0  0  0  0  0  0  0  0  0  0  0  0
   12.9829  -22.7598    0.0000 C   0  0  0  0  0  0  0  0  0  0  0  0
   12.9829  -21.9351    0.0000 C   0  0  0  0  0  0  0  0  0  0  0  0
   13.6971  -23.1722    0.0000 C   0  0  1  0  0  0  0  0  0  0  0  0
   14.4114  -22.7598    0.0000 C   0  0  2  0  0  0  0  0  0  0  0  0
   14.4114  -21.9351    0.0000 C   0  0  2  0  0  0  0  0  0  0  0  0
   13.6971  -21.5227    0.0000 O   0  0  0  0  0  0  0  0  0  0  0  0
   15.1256  -23.1722    0.0000 O   0  0  0  0  0  0  0  0  0  0  0  0
   15.1256  -21.5227    0.0000 C   0  0  0  0  0  0  0  0  0  0  0  0
   15.8399  -21.9351    0.0000 C   0  0  0  0  0  0  0  0  0  0  0  0
   16.5541  -21.5227    0.0000 C   0  0  0  0  0  0  0  0  0  0  0  0
   16.5541  -20.6980    0.0000 C   0  0  0  0  0  0  0  0  0  0  0  0
   15.8399  -20.2856    0.0000 C   0  0  0  0  0  0  0  0  0  0  0  0
   15.1256  -20.6980    0.0000 C   0  0  0  0  0  0  0  0  0  0  0  0
   10.8401  -21.5227    0.0000 O   0  0  0  0  0  0  0  0  0  0  0  0
   12.2686  -23.9969    0.0000 O   0  0  0  0  0  0  0  0  0  0  0  0
   17.2684  -20.2856    0.0000 O   0  0  0  0  0  0  0  0  0  0  0  0
   17.2684  -21.9351    0.0000 O   0  0  0  0  0  0  0  0  0  0  0  0
   18.1760  -22.3422    0.0000 C   0  0  0  0  0  0  0  0  0  0  0  0
   19.0964  -22.7546    0.0000 C   0  0  0  0  0  0  0  0  0  0  0  0
   19.0964  -23.5793    0.0000 C   0  0  0  0  0  0  0  0  0  0  0  0
   19.8107  -23.9917    0.0000 C   0  0  0  0  0  0  0  0  0  0  0  0
   20.5249  -23.5793    0.0000 C   0  0  0  0  0  0  0  0  0  0  0  0
   20.5249  -22.7546    0.0000 C   0  0  0  0  0  0  0  0  0  0  0  0
   19.8107  -22.3422    0.0000 C   0  0  0  0  0  0  0  0  0  0  0  0
   18.1760  -21.5174    0.0000 O   0  0  0  0  0  0  0  0  0  0  0  0
   21.2392  -22.3422    0.0000 O   0  0  0  0  0  0  0  0  0  0  0  0
   21.2392  -23.9917    0.0000 O   0  0  0  0  0  0  0  0  0  0  0  0
   19.8107  -24.8164    0.0000 O   0  0  0  0  0  0  0  0  0  0  0  0
    9.6341  -10.6293    0.0000 O   0  0  0  0  0  0  0  0  0  0  0  0
   11.0430  -13.8251    0.0000 O   0  0  0  0  0  0  0  0  0  0  0  0
   12.4863  -17.0210    0.0000 O   0  0  0  0  0  0  0  0  0  0  0  0
   13.8952  -20.1138    0.0000 O   0  0  0  0  0  0  0  0  0  0  0  0
   13.6971  -24.5472    0.0000 C   0  0  0  0  0  0  0  0  0  0  0  0
   12.9826  -24.9597    0.0000 C   0  0  0  0  0  0  0  0  0  0  0  0
   12.9826  -25.7847    0.0000 C   0  0  0  0  0  0  0  0  0  0  0  0
   13.6971  -26.1972    0.0000 C   0  0  0  0  0  0  0  0  0  0  0  0
   14.4116  -25.7847    0.0000 C   0  0  0  0  0  0  0  0  0  0  0  0
   14.4116  -24.9597    0.0000 C   0  0  0  0  0  0  0  0  0  0  0  0
   12.2682  -26.1972    0.0000 C   0  0  0  0  0  0  0  0  0  0  0  0
   12.2682  -27.0222    0.0000 C   0  0  1  0  0  0  0  0  0  0  0  0
   12.9826  -27.4347    0.0000 C   0  0  2  0  0  0  0  0  0  0  0  0
   13.6971  -27.0222    0.0000 O   0  0  0  0  0  0  0  0  0  0  0  0
   11.5537  -27.4347    0.0000 O   0  0  0  0  0  0  0  0  0  0  0  0
   12.9826  -28.2597    0.0000 C   0  0  0  0  0  0  0  0  0  0  0  0
   12.2682  -28.6722    0.0000 C   0  0  0  0  0  0  0  0  0  0  0  0
   12.2682  -29.4972    0.0000 C   0  0  0  0  0  0  0  0  0  0  0  0
   12.9826  -29.9097    0.0000 C   0  0  0  0  0  0  0  0  0  0  0  0
   13.6971  -29.4972    0.0000 C   0  0  0  0  0  0  0  0  0  0  0  0
   13.6971  -28.6722    0.0000 C   0  0  0  0  0  0  0  0  0  0  0  0
   12.9826  -30.7347    0.0000 O   0  0  0  0  0  0  0  0  0  0  0  0
   14.4116  -29.9097    0.0000 O   0  0  0  0  0  0  0  0  0  0  0  0
   12.2682  -24.5472    0.0000 O   0  0  0  0  0  0  0  0  0  0  0  0
   15.1261  -24.5472    0.0000 O   0  0  0  0  0  0  0  0  0  0  0  0
  1  2  2  0  0  0  0
  2  3  1  0  0  0  0
  3  4  2  0  0  0  0
  4  5  1  0  0  0  0
  5  6  2  0  0  0  0
  6  1  1  0  0  0  0
  4  7  1  0  0  0  0
  7  8  1  0  0  0  0
  8  9  1  0  0  0  0
  9 10  1  0  0  0  0
 10  5  1  0  0  0  0
  8 11  1  6  0  0  0
 12 13  2  0  0  0  0
  9 13  1  6  0  0  0
 12 14  1  0  0  0  0
 14 15  2  0  0  0  0
 15 16  1  0  0  0  0
 16 17  2  0  0  0  0
 17 13  1  0  0  0  0
 15 18  1  0  0  0  0
 14 19  1  0  0  0  0
  1 20  1  0  0  0  0
  3 21  1  0  0  0  0
  7 22  1  1  0  0  0
 22 23  2  0  0  0  0
 23 24  1  0  0  0  0
 24 25  2  0  0  0  0
 25 26  1  0  0  0  0
 26 27  2  0  0  0  0
 27 22  1  0  0  0  0
 26 28  1  0  0  0  0
 28 29  1  0  0  0  0
 29 30  1  0  0  0  0
 30 31  1  0  0  0  0
 31 27  1  0  0  0  0
 29 32  1  6  0  0  0
 30 33  1  6  0  0  0
 33 34  2  0  0  0  0
 34 35  1  0  0  0  0
 35 36  2  0  0  0  0
 36 37  1  0  0  0  0
 37 38  2  0  0  0  0
 38 33  1  0  0  0  0
 23 39  1  0  0  0  0
 25 40  1  0  0  0  0
 36 41  1  0  0  0  0
 35 42  1  0  0  0  0
 43 44  1  0  0  0  0
 44 45  2  0  0  0  0
 45 46  1  0  0  0  0
 46 47  2  0  0  0  0
 47 48  1  0  0  0  0
 48 49  2  0  0  0  0
 49 44  1  0  0  0  0
 43 50  2  0  0  0  0
 48 51  1  0  0  0  0
 47 52  1  0  0  0  0
 46 53  1  0  0  0  0
 54 55  1  0  0  0  0
 55 56  2  0  0  0  0
 56 57  1  0  0  0  0
 57 58  2  0  0  0  0
 58 59  1  0  0  0  0
 59 60  2  0  0  0  0
 60 55  1  0  0  0  0
 54 61  2  0  0  0  0
 59 62  1  0  0  0  0
 58 63  1  0  0  0  0
 57 64  1  0  0  0  0
 43 11  1  0  0  0  0
 54 32  1  0  0  0  0
 65 66  2  0  0  0  0
 66 67  1  0  0  0  0
 67 68  2  0  0  0  0
 68 69  1  0  0  0  0
 69 70  2  0  0  0  0
 70 65  1  0  0  0  0
 69 71  1  0  0  0  0
 71 72  1  0  0  0  0
 72 73  1  0  0  0  0
 73 74  1  0  0  0  0
 74 70  1  0  0  0  0
 73 75  1  6  0  0  0
 75 76  2  0  0  0  0
 76 77  1  0  0  0  0
 77 78  2  0  0  0  0
 78 79  1  0  0  0  0
 79 80  2  0  0  0  0
 80 75  1  0  0  0  0
 66 81  1  0  0  0  0
 68 82  1  0  0  0  0
 78 83  1  0  0  0  0
 77 84  1  0  0  0  0
 85 86  1  0  0  0  0
 86 87  2  0  0  0  0
 87 88  1  0  0  0  0
 88 89  2  0  0  0  0
 89 90  1  0  0  0  0
 90 91  2  0  0  0  0
 91 86  1  0  0  0  0
 85 92  2  0  0  0  0
 90 93  1  0  0  0  0
 89 94  1  0  0  0  0
 88 95  1  0  0  0  0
 96 97  2  0  0  0  0
 97 98  1  0  0  0  0
 98 99  2  0  0  0  0
 99100  1  0  0  0  0
100101  2  0  0  0  0
101 96  1  0  0  0  0
100102  1  0  0  0  0
102103  1  0  0  0  0
103104  1  0  0  0  0
104105  1  0  0  0  0
105101  1  0  0  0  0
104106  1  6  0  0  0
106107  2  0  0  0  0
107108  1  0  0  0  0
108109  2  0  0  0  0
109110  1  0  0  0  0
110111  2  0  0  0  0
111106  1  0  0  0  0
 97112  1  0  0  0  0
 99113  1  0  0  0  0
109114  1  0  0  0  0
108115  1  0  0  0  0
116117  1  0  0  0  0
117118  2  0  0  0  0
118119  1  0  0  0  0
119120  2  0  0  0  0
120121  1  0  0  0  0
121122  2  0  0  0  0
122117  1  0  0  0  0
116123  2  0  0  0  0
121124  1  0  0  0  0
120125  1  0  0  0  0
119126  1  0  0  0  0
127128  2  0  0  0  0
128129  1  0  0  0  0
129130  2  0  0  0  0
130131  1  0  0  0  0
131132  2  0  0  0  0
132127  1  0  0  0  0
131133  1  0  0  0  0
133134  1  0  0  0  0
134135  1  0  0  0  0
135136  1  0  0  0  0
136132  1  0  0  0  0
135137  1  6  0  0  0
137138  2  0  0  0  0
138139  1  0  0  0  0
139140  2  0  0  0  0
140141  1  0  0  0  0
141142  2  0  0  0  0
142137  1  0  0  0  0
128143  1  0  0  0  0
130144  1  0  0  0  0
140145  1  0  0  0  0
139146  1  0  0  0  0
147148  1  0  0  0  0
148149  2  0  0  0  0
149150  1  0  0  0  0
150151  2  0  0  0  0
151152  1  0  0  0  0
152153  2  0  0  0  0
153148  1  0  0  0  0
147154  2  0  0  0  0
152155  1  0  0  0  0
151156  1  0  0  0  0
150157  1  0  0  0  0
158159  2  0  0  0  0
159160  1  0  0  0  0
160161  2  0  0  0  0
161162  1  0  0  0  0
162163  2  0  0  0  0
163158  1  0  0  0  0
162164  1  0  0  0  0
164165  1  0  0  0  0
165166  1  0  0  0  0
166167  1  0  0  0  0
167163  1  0  0  0  0
166168  1  6  0  0  0
168169  2  0  0  0  0
169170  1  0  0  0  0
170171  2  0  0  0  0
171172  1  0  0  0  0
172173  2  0  0  0  0
173168  1  0  0  0  0
159174  1  0  0  0  0
161175  1  0  0  0  0
171176  1  0  0  0  0
170177  1  0  0  0  0
178179  1  0  0  0  0
179180  2  0  0  0  0
180181  1  0  0  0  0
181182  2  0  0  0  0
182183  1  0  0  0  0
183184  2  0  0  0  0
184179  1  0  0  0  0
178185  2  0  0  0  0
183186  1  0  0  0  0
182187  1  0  0  0  0
181188  1  0  0  0  0
189190  2  0  0  0  0
190191  1  0  0  0  0
191192  2  0  0  0  0
192193  1  0  0  0  0
193194  2  0  0  0  0
194189  1  0  0  0  0
193195  1  0  0  0  0
195196  1  0  0  0  0
196197  1  0  0  0  0
197198  1  0  0  0  0
198194  1  0  0  0  0
196199  1  6  0  0  0
197200  1  6  0  0  0
200201  2  0  0  0  0
201202  1  0  0  0  0
202203  2  0  0  0  0
203204  1  0  0  0  0
204205  2  0  0  0  0
205200  1  0  0  0  0
190206  1  0  0  0  0
192207  1  0  0  0  0
203208  1  0  0  0  0
202209  1  0  0  0  0
210211  1  0  0  0  0
211212  2  0  0  0  0
212213  1  0  0  0  0
213214  2  0  0  0  0
214215  1  0  0  0  0
215216  2  0  0  0  0
216211  1  0  0  0  0
210217  2  0  0  0  0
215218  1  0  0  0  0
214219  1  0  0  0  0
213220  1  0  0  0  0
210199  1  0  0  0  0
 28 65  1  1  0  0  0
 71 96  1  1  0  0  0
102127  1  1  0  0  0
133158  1  1  0  0  0
164189  1  1  0  0  0
 72221  1  6  0  0  0
 85221  1  0  0  0  0
103222  1  6  0  0  0
222116  1  0  0  0  0
134223  1  6  0  0  0
223147  1  0  0  0  0
165224  1  6  0  0  0
224178  1  0  0  0  0
195225  1  1  0  0  0
225226  2  0  0  0  0
226227  1  0  0  0  0
227228  2  0  0  0  0
228229  1  0  0  0  0
229230  2  0  0  0  0
230225  1  0  0  0  0
227231  1  0  0  0  0
231232  1  0  0  0  0
232233  1  0  0  0  0
233234  1  0  0  0  0
234228  1  0  0  0  0
232235  1  1  0  0  0
233236  1  6  0  0  0
236237  2  0  0  0  0
237238  1  0  0  0  0
238239  2  0  0  0  0
239240  1  0  0  0  0
240241  2  0  0  0  0
241236  1  0  0  0  0
239242  1  0  0  0  0
240243  1  0  0  0  0
226244  1  0  0  0  0
230245  1  0  0  0  0
M  END
>  <cdx:fragmentId>
5

$$$$
