93519.cdx
  Mrv1902 05222410282D          

 27 31  0  0  0  0            999 V2000
    4.5218   -6.9575    0.0000 C   0  0  0  0  0  0  0  0  0  0  0  0
    4.5218   -7.7825    0.0000 C   0  0  0  0  0  0  0  0  0  0  0  0
    5.2363   -8.1950    0.0000 C   0  0  1  0  0  0  0  0  0  0  0  0
    5.9507   -7.7825    0.0000 C   0  0  0  0  0  0  0  0  0  0  0  0
    5.9507   -6.9575    0.0000 C   0  0  1  0  0  0  0  0  0  0  0  0
    5.2363   -6.5450    0.0000 C   0  0  2  0  0  0  0  0  0  0  0  0
    6.6652   -8.1950    0.0000 C   0  0  1  0  0  0  0  0  0  0  0  0
    7.3797   -7.7825    0.0000 C   0  0  2  0  0  0  0  0  0  0  0  0
    7.3797   -6.9575    0.0000 C   0  0  2  0  0  0  0  0  0  0  0  0
    6.6652   -6.5450    0.0000 C   0  0  0  0  0  0  0  0  0  0  0  0
    8.0942   -6.5450    0.0000 C   0  0  1  0  0  0  0  0  0  0  0  0
    8.0942   -5.7200    0.0000 C   0  0  1  0  0  0  0  0  0  0  0  0
    7.3797   -5.3075    0.0000 C   0  0  0  0  0  0  0  0  0  0  0  0
    6.6652   -5.7200    0.0000 C   0  0  0  0  0  0  0  0  0  0  0  0
    4.8238   -8.9095    0.0000 C   0  0  0  0  0  0  0  0  0  0  0  0
    6.6652   -9.0200    0.0000 O   0  0  0  0  0  0  0  0  0  0  0  0
    8.0942   -8.1950    0.0000 O   0  0  0  0  0  0  0  0  0  0  0  0
    8.0942   -7.3700    0.0000 C   0  0  0  0  0  0  0  0  0  0  0  0
    8.8086   -6.1325    0.0000 C   0  0  0  0  0  0  0  0  0  0  0  0
    5.2363   -5.7200    0.0000 H   0  0  0  0  0  0  0  0  0  0  0  0
    5.9507   -6.1325    0.0000 C   0  0  0  0  0  0  0  0  0  0  0  0
    6.6652   -7.3700    0.0000 O   0  0  0  0  0  0  0  0  0  0  0  0
    5.6488   -8.9095    0.0000 C   0  0  0  0  0  0  0  0  0  0  0  0
    5.9507   -5.3075    0.0000 O   0  0  0  0  0  0  0  0  0  0  0  0
    8.8086   -7.7825    0.0000 O   0  0  0  0  0  0  0  0  0  0  0  0
    9.5231   -6.5450    0.0000 C   0  0  0  0  0  0  0  0  0  0  0  0
    8.8086   -6.9575    0.0000 O   0  0  0  0  0  0  0  0  0  0  0  0
  1  2  1  0  0  0  0
  2  3  1  0  0  0  0
  3  4  1  0  0  0  0
  4  5  1  0  0  0  0
  5  6  1  0  0  0  0
  6  1  1  0  0  0  0
  4  7  1  0  0  0  0
  7  8  1  0  0  0  0
  8  9  1  0  0  0  0
  9 10  1  0  0  0  0
 10  5  1  0  0  0  0
  9 11  1  0  0  0  0
 11 12  1  0  0  0  0
 12 13  1  0  0  0  0
 13 14  1  0  0  0  0
 14 10  1  0  0  0  0
  3 15  1  1  0  0  0
  7 16  1  1  0  0  0
  8 17  1  1  0  0  0
  9 18  1  1  0  0  0
 12 19  1  1  0  0  0
  6 20  1  6  0  0  0
  5 21  1  6  0  0  0
  8 22  1  6  0  0  0
  3 23  1  6  0  0  0
 21 22  1  0  0  0  0
 14 24  1  0  0  0  0
 18 19  1  0  0  0  0
 18 25  2  0  0  0  0
 19 26  2  0  0  0  0
 11 27  1  1  0  0  0
M  END
>  <cdx:fragmentId>
5

$$$$
