93513.cdx
  Mrv1902 05222410192D          

 40 45  0  0  0  0            999 V2000
    1.7306   -5.6788    0.0000 C   0  0  0  0  0  0  0  0  0  0  0  0
    1.7306   -6.5038    0.0000 C   0  0  0  0  0  0  0  0  0  0  0  0
    2.4450   -6.9162    0.0000 C   0  0  0  0  0  0  0  0  0  0  0  0
    3.1595   -6.5038    0.0000 C   0  0  0  0  0  0  0  0  0  0  0  0
    3.1595   -5.6788    0.0000 C   0  0  0  0  0  0  0  0  0  0  0  0
    2.4450   -5.2663    0.0000 C   0  0  0  0  0  0  0  0  0  0  0  0
    3.8740   -6.9162    0.0000 C   0  0  0  0  0  0  0  0  0  0  0  0
    4.5884   -6.5038    0.0000 C   0  0  0  0  0  0  0  0  0  0  0  0
    4.5884   -5.6788    0.0000 C   0  0  0  0  0  0  0  0  0  0  0  0
    3.8740   -5.2663    0.0000 O   0  0  0  0  0  0  0  0  0  0  0  0
    1.0161   -5.2663    0.0000 O   0  0  0  0  0  0  0  0  0  0  0  0
    2.4450   -7.7413    0.0000 O   0  0  0  0  0  0  0  0  0  0  0  0
    3.8740   -7.7413    0.0000 O   0  0  0  0  0  0  0  0  0  0  0  0
    5.3029   -5.2662    0.0000 C   0  0  0  0  0  0  0  0  0  0  0  0
    6.0174   -5.6787    0.0000 C   0  0  0  0  0  0  0  0  0  0  0  0
    6.7319   -5.2662    0.0000 C   0  0  0  0  0  0  0  0  0  0  0  0
    6.7319   -4.4412    0.0000 C   0  0  0  0  0  0  0  0  0  0  0  0
    6.0174   -4.0287    0.0000 C   0  0  0  0  0  0  0  0  0  0  0  0
    5.3029   -4.4412    0.0000 C   0  0  0  0  0  0  0  0  0  0  0  0
    7.4463   -4.0287    0.0000 O   0  0  0  0  0  0  0  0  0  0  0  0
    7.4463   -5.6788    0.0000 C   0  0  0  0  0  0  0  0  0  0  0  0
    7.4463   -6.5038    0.0000 C   0  0  0  0  0  0  0  0  0  0  0  0
    8.1608   -6.9162    0.0000 C   0  0  0  0  0  0  0  0  0  0  0  0
    8.8753   -6.5038    0.0000 C   0  0  0  0  0  0  0  0  0  0  0  0
    8.8753   -5.6788    0.0000 C   0  0  0  0  0  0  0  0  0  0  0  0
    8.1608   -5.2663    0.0000 C   0  0  0  0  0  0  0  0  0  0  0  0
    8.1608   -4.4412    0.0000 O   0  0  0  0  0  0  0  0  0  0  0  0
    6.7319   -6.9162    0.0000 O   0  0  0  0  0  0  0  0  0  0  0  0
    9.5897   -6.9162    0.0000 O   0  0  0  0  0  0  0  0  0  0  0  0
   10.3042   -6.5038    0.0000 C   0  0  0  0  0  0  0  0  0  0  0  0
   10.3042   -5.6788    0.0000 C   0  0  0  0  0  0  0  0  0  0  0  0
    9.5897   -5.2663    0.0000 C   0  0  0  0  0  0  0  0  0  0  0  0
    9.5897   -4.4412    0.0000 O   0  0  0  0  0  0  0  0  0  0  0  0
   11.0187   -6.9162    0.0000 C   0  0  0  0  0  0  0  0  0  0  0  0
   11.0187   -7.7413    0.0000 C   0  0  0  0  0  0  0  0  0  0  0  0
   11.7331   -8.1538    0.0000 C   0  0  0  0  0  0  0  0  0  0  0  0
   12.4476   -7.7413    0.0000 C   0  0  0  0  0  0  0  0  0  0  0  0
   12.4476   -6.9162    0.0000 C   0  0  0  0  0  0  0  0  0  0  0  0
   11.7331   -6.5037    0.0000 C   0  0  0  0  0  0  0  0  0  0  0  0
   13.1621   -8.1537    0.0000 O   0  0  0  0  0  0  0  0  0  0  0  0
  1  2  2  0  0  0  0
  2  3  1  0  0  0  0
  3  4  2  0  0  0  0
  4  5  1  0  0  0  0
  5  6  2  0  0  0  0
  6  1  1  0  0  0  0
  4  7  1  0  0  0  0
  7  8  1  0  0  0  0
  8  9  2  0  0  0  0
  9 10  1  0  0  0  0
 10  5  1  0  0  0  0
  1 11  1  0  0  0  0
  3 12  1  0  0  0  0
  7 13  2  0  0  0  0
  9 14  1  0  0  0  0
 14 15  2  0  0  0  0
 15 16  1  0  0  0  0
 16 17  2  0  0  0  0
 17 18  1  0  0  0  0
 18 19  2  0  0  0  0
 19 14  1  0  0  0  0
 17 20  1  0  0  0  0
 16 21  1  0  0  0  0
 21 22  2  0  0  0  0
 22 23  1  0  0  0  0
 23 24  2  0  0  0  0
 24 25  1  0  0  0  0
 25 26  2  0  0  0  0
 26 21  1  0  0  0  0
 26 27  1  0  0  0  0
 22 28  1  0  0  0  0
 24 29  1  0  0  0  0
 29 30  1  0  0  0  0
 30 31  2  0  0  0  0
 31 32  1  0  0  0  0
 32 25  1  0  0  0  0
 32 33  2  0  0  0  0
 30 34  1  0  0  0  0
 34 35  2  0  0  0  0
 35 36  1  0  0  0  0
 36 37  2  0  0  0  0
 37 38  1  0  0  0  0
 38 39  2  0  0  0  0
 39 34  1  0  0  0  0
 37 40  1  0  0  0  0
M  END
>  <cdx:fragmentId>
5

$$$$
