93512.cdx
  Mrv1902 05222410202D          

 38 42  0  0  0  0            999 V2000
    3.3668   -7.7963    0.0000 C   0  0  0  0  0  0  0  0  0  0  0  0
    3.3668   -8.6212    0.0000 C   0  0  1  0  0  0  0  0  0  0  0  0
    4.0813   -9.0337    0.0000 C   0  0  0  0  0  0  0  0  0  0  0  0
    4.7957   -8.6212    0.0000 C   0  0  1  0  0  0  0  0  0  0  0  0
    4.7957   -7.7963    0.0000 C   0  0  2  0  0  0  0  0  0  0  0  0
    4.0813   -7.3838    0.0000 C   0  0  0  0  0  0  0  0  0  0  0  0
    5.5102   -9.0337    0.0000 C   0  0  0  0  0  0  0  0  0  0  0  0
    6.2247   -8.6212    0.0000 C   0  0  0  0  0  0  0  0  0  0  0  0
    6.2247   -7.7963    0.0000 C   0  0  2  0  0  0  0  0  0  0  0  0
    5.5102   -7.3838    0.0000 C   0  0  2  0  0  0  0  0  0  0  0  0
    6.9392   -7.3838    0.0000 C   0  0  1  0  0  0  0  0  0  0  0  0
    6.9392   -6.5587    0.0000 C   0  0  0  0  0  0  0  0  0  0  0  0
    6.2247   -6.1463    0.0000 C   0  0  0  0  0  0  0  0  0  0  0  0
    5.5102   -6.5587    0.0000 C   0  0  2  0  0  0  0  0  0  0  0  0
    7.6536   -7.7963    0.0000 C   0  0  0  0  0  0  0  0  0  0  0  0
    8.3681   -7.3838    0.0000 C   0  0  0  0  0  0  0  0  0  0  0  0
    8.3681   -6.5587    0.0000 C   0  0  2  0  0  0  0  0  0  0  0  0
    7.6536   -6.1463    0.0000 C   0  0  1  0  0  0  0  0  0  0  0  0
    9.0826   -6.1463    0.0000 C   0  0  0  0  0  0  0  0  0  0  0  0
    9.0826   -5.3213    0.0000 C   0  0  0  0  0  0  0  0  0  0  0  0
    8.3681   -4.9088    0.0000 C   0  0  2  0  0  0  0  0  0  0  0  0
    7.6536   -5.3213    0.0000 C   0  0  2  0  0  0  0  0  0  0  0  0
    2.6523   -9.0337    0.0000 O   0  0  0  0  0  0  0  0  0  0  0  0
    4.7957   -6.9712    0.0000 C   0  0  0  0  0  0  0  0  0  0  0  0
    6.2247   -6.9712    0.0000 C   0  0  0  0  0  0  0  0  0  0  0  0
    4.7957   -6.1463    0.0000 O   0  0  0  0  0  0  0  0  0  0  0  0
    6.9392   -4.9088    0.0000 C   0  0  0  0  0  0  0  0  0  0  0  0
    6.9392   -5.7338    0.0000 H   0  0  0  0  0  0  0  0  0  0  0  0
    9.0826   -6.9712    0.0000 C   0  0  0  0  0  0  0  0  0  0  0  0
    8.3681   -4.0838    0.0000 C   0  0  0  0  0  0  0  0  0  0  0  0
    6.9392   -8.2088    0.0000 C   0  0  0  0  0  0  0  0  0  0  0  0
    5.5102   -8.2088    0.0000 H   0  0  0  0  0  0  0  0  0  0  0  0
    4.7957   -9.4462    0.0000 H   0  0  0  0  0  0  0  0  0  0  0  0
    3.6688   -9.7482    0.0000 C   0  0  0  0  0  0  0  0  0  0  0  0
    9.7970   -6.5587    0.0000 O   0  0  0  0  0  0  0  0  0  0  0  0
    9.0826   -7.7963    0.0000 O   0  0  0  0  0  0  0  0  0  0  0  0
    4.4938   -9.7482    0.0000 C   0  0  0  0  0  0  0  0  0  0  0  0
    4.0813   -6.5587    0.0000 C   0  0  0  0  0  0  0  0  0  0  0  0
  1  2  1  0  0  0  0
  2  3  1  0  0  0  0
  3  4  1  0  0  0  0
  4  5  1  0  0  0  0
  5  6  1  0  0  0  0
  6  1  1  0  0  0  0
  4  7  1  0  0  0  0
  7  8  1  0  0  0  0
  8  9  1  0  0  0  0
  9 10  1  0  0  0  0
 10  5  1  0  0  0  0
  9 11  1  0  0  0  0
 11 12  1  0  0  0  0
 12 13  2  0  0  0  0
 13 14  1  0  0  0  0
 14 10  1  0  0  0  0
 11 15  1  0  0  0  0
 15 16  1  0  0  0  0
 16 17  1  0  0  0  0
 17 18  1  0  0  0  0
 18 12  1  0  0  0  0
 17 19  1  0  0  0  0
 19 20  1  0  0  0  0
 20 21  1  0  0  0  0
 21 22  1  0  0  0  0
 22 18  1  0  0  0  0
  2 23  1  1  0  0  0
  5 24  1  1  0  0  0
  9 25  1  1  0  0  0
 14 26  1  1  0  0  0
 22 27  1  1  0  0  0
 18 28  1  1  0  0  0
 17 29  1  1  0  0  0
 21 30  1  6  0  0  0
 11 31  1  6  0  0  0
 10 32  1  6  0  0  0
  4 33  1  6  0  0  0
  3 34  1  0  0  0  0
 29 35  2  0  0  0  0
 29 36  1  0  0  0  0
  3 37  1  0  0  0  0
 26 38  1  0  0  0  0
M  END
>  <cdx:fragmentId>
5

$$$$
