93510.cdx
  Mrv1902 05222410202D          

288323  0  0  0  0            999 V2000
    1.3866   -3.2720    0.0000 C   0  0  0  0  0  0  0  0  0  0  0  0
    1.3866   -4.0967    0.0000 C   0  0  0  0  0  0  0  0  0  0  0  0
    2.1008   -4.5091    0.0000 C   0  0  0  0  0  0  0  0  0  0  0  0
    2.8151   -4.0967    0.0000 C   0  0  0  0  0  0  0  0  0  0  0  0
    2.8151   -3.2720    0.0000 C   0  0  0  0  0  0  0  0  0  0  0  0
    2.1008   -2.8596    0.0000 C   0  0  0  0  0  0  0  0  0  0  0  0
    3.5293   -4.5091    0.0000 C   0  0  1  0  0  0  0  0  0  0  0  0
    4.2436   -4.0967    0.0000 C   0  0  2  0  0  0  0  0  0  0  0  0
    4.2436   -3.2720    0.0000 C   0  0  2  0  0  0  0  0  0  0  0  0
    3.5293   -2.8596    0.0000 O   0  0  0  0  0  0  0  0  0  0  0  0
    4.9578   -4.5091    0.0000 O   0  0  0  0  0  0  0  0  0  0  0  0
    5.6721   -3.2720    0.0000 C   0  0  0  0  0  0  0  0  0  0  0  0
    4.9578   -2.8596    0.0000 C   0  0  0  0  0  0  0  0  0  0  0  0
    6.3863   -2.8596    0.0000 C   0  0  0  0  0  0  0  0  0  0  0  0
    6.3863   -2.0349    0.0000 C   0  0  0  0  0  0  0  0  0  0  0  0
    5.6721   -1.6225    0.0000 C   0  0  0  0  0  0  0  0  0  0  0  0
    4.9578   -2.0349    0.0000 C   0  0  0  0  0  0  0  0  0  0  0  0
    7.1005   -1.6225    0.0000 O   0  0  0  0  0  0  0  0  0  0  0  0
    7.1005   -3.2720    0.0000 O   0  0  0  0  0  0  0  0  0  0  0  0
    0.6723   -2.8596    0.0000 O   0  0  0  0  0  0  0  0  0  0  0  0
    2.1008   -5.3338    0.0000 O   0  0  0  0  0  0  0  0  0  0  0  0
    3.5602   -6.0314    0.0000 C   0  0  0  0  0  0  0  0  0  0  0  0
    2.8460   -6.4438    0.0000 C   0  0  0  0  0  0  0  0  0  0  0  0
    2.8460   -7.2685    0.0000 C   0  0  0  0  0  0  0  0  0  0  0  0
    3.5602   -7.6809    0.0000 C   0  0  0  0  0  0  0  0  0  0  0  0
    4.2745   -7.2685    0.0000 C   0  0  0  0  0  0  0  0  0  0  0  0
    4.2745   -6.4438    0.0000 C   0  0  0  0  0  0  0  0  0  0  0  0
    4.9887   -7.6809    0.0000 C   0  0  1  0  0  0  0  0  0  0  0  0
    5.7030   -7.2685    0.0000 C   0  0  2  0  0  0  0  0  0  0  0  0
    5.7030   -6.4438    0.0000 C   0  0  2  0  0  0  0  0  0  0  0  0
    4.9887   -6.0314    0.0000 O   0  0  0  0  0  0  0  0  0  0  0  0
    6.4172   -7.6809    0.0000 O   0  0  0  0  0  0  0  0  0  0  0  0
    6.4172   -6.0314    0.0000 C   0  0  0  0  0  0  0  0  0  0  0  0
    7.1315   -6.4438    0.0000 C   0  0  0  0  0  0  0  0  0  0  0  0
    7.8457   -6.0314    0.0000 C   0  0  0  0  0  0  0  0  0  0  0  0
    7.8457   -5.2067    0.0000 C   0  0  0  0  0  0  0  0  0  0  0  0
    7.1315   -4.7943    0.0000 C   0  0  0  0  0  0  0  0  0  0  0  0
    6.4172   -5.2067    0.0000 C   0  0  0  0  0  0  0  0  0  0  0  0
    2.1318   -6.0314    0.0000 O   0  0  0  0  0  0  0  0  0  0  0  0
    3.5602   -8.5056    0.0000 O   0  0  0  0  0  0  0  0  0  0  0  0
    8.5600   -4.7943    0.0000 O   0  0  0  0  0  0  0  0  0  0  0  0
    8.5600   -6.4438    0.0000 O   0  0  0  0  0  0  0  0  0  0  0  0
    9.1312   -3.5125    0.0000 C   0  0  0  0  0  0  0  0  0  0  0  0
    9.8455   -3.9249    0.0000 C   0  0  0  0  0  0  0  0  0  0  0  0
    9.8455   -4.7496    0.0000 C   0  0  0  0  0  0  0  0  0  0  0  0
   10.5597   -5.1620    0.0000 C   0  0  0  0  0  0  0  0  0  0  0  0
   11.2739   -4.7496    0.0000 C   0  0  0  0  0  0  0  0  0  0  0  0
   11.2739   -3.9249    0.0000 C   0  0  0  0  0  0  0  0  0  0  0  0
   10.5597   -3.5125    0.0000 C   0  0  0  0  0  0  0  0  0  0  0  0
    9.1312   -2.6878    0.0000 O   0  0  0  0  0  0  0  0  0  0  0  0
   11.9882   -3.5125    0.0000 O   0  0  0  0  0  0  0  0  0  0  0  0
   11.9882   -5.1620    0.0000 O   0  0  0  0  0  0  0  0  0  0  0  0
   10.5597   -5.9868    0.0000 O   0  0  0  0  0  0  0  0  0  0  0  0
    9.9144   -6.8165    0.0000 C   0  0  0  0  0  0  0  0  0  0  0  0
   10.6286   -7.2289    0.0000 C   0  0  0  0  0  0  0  0  0  0  0  0
   10.6286   -8.0536    0.0000 C   0  0  0  0  0  0  0  0  0  0  0  0
   11.3429   -8.4660    0.0000 C   0  0  0  0  0  0  0  0  0  0  0  0
   12.0571   -8.0536    0.0000 C   0  0  0  0  0  0  0  0  0  0  0  0
   12.0571   -7.2289    0.0000 C   0  0  0  0  0  0  0  0  0  0  0  0
   11.3429   -6.8165    0.0000 C   0  0  0  0  0  0  0  0  0  0  0  0
    9.9144   -5.9918    0.0000 O   0  0  0  0  0  0  0  0  0  0  0  0
   12.7713   -6.8165    0.0000 O   0  0  0  0  0  0  0  0  0  0  0  0
   12.7713   -8.4660    0.0000 O   0  0  0  0  0  0  0  0  0  0  0  0
   11.3429   -9.2908    0.0000 O   0  0  0  0  0  0  0  0  0  0  0  0
    5.0035   -9.1242    0.0000 C   0  0  0  0  0  0  0  0  0  0  0  0
    4.2893   -9.5366    0.0000 C   0  0  0  0  0  0  0  0  0  0  0  0
    4.2893  -10.3613    0.0000 C   0  0  0  0  0  0  0  0  0  0  0  0
    5.0035  -10.7737    0.0000 C   0  0  0  0  0  0  0  0  0  0  0  0
    5.7178  -10.3613    0.0000 C   0  0  0  0  0  0  0  0  0  0  0  0
    5.7178   -9.5366    0.0000 C   0  0  0  0  0  0  0  0  0  0  0  0
    6.4320  -10.7737    0.0000 C   0  0  1  0  0  0  0  0  0  0  0  0
    7.1463  -10.3613    0.0000 C   0  0  2  0  0  0  0  0  0  0  0  0
    7.1463   -9.5366    0.0000 C   0  0  2  0  0  0  0  0  0  0  0  0
    6.4320   -9.1242    0.0000 O   0  0  0  0  0  0  0  0  0  0  0  0
    7.8605   -9.1242    0.0000 C   0  0  0  0  0  0  0  0  0  0  0  0
    8.5748   -9.5366    0.0000 C   0  0  0  0  0  0  0  0  0  0  0  0
    9.2890   -9.1242    0.0000 C   0  0  0  0  0  0  0  0  0  0  0  0
    9.2890   -8.2995    0.0000 C   0  0  0  0  0  0  0  0  0  0  0  0
    8.5748   -7.8871    0.0000 C   0  0  0  0  0  0  0  0  0  0  0  0
    7.8605   -8.2995    0.0000 C   0  0  0  0  0  0  0  0  0  0  0  0
    3.5750   -9.1242    0.0000 O   0  0  0  0  0  0  0  0  0  0  0  0
    5.0035  -11.5984    0.0000 O   0  0  0  0  0  0  0  0  0  0  0  0
   10.0033   -7.8871    0.0000 O   0  0  0  0  0  0  0  0  0  0  0  0
   10.0033   -9.5366    0.0000 O   0  0  0  0  0  0  0  0  0  0  0  0
   12.0793  -10.1155    0.0000 C   0  0  0  0  0  0  0  0  0  0  0  0
   12.7935  -10.5279    0.0000 C   0  0  0  0  0  0  0  0  0  0  0  0
   12.7935  -11.3526    0.0000 C   0  0  0  0  0  0  0  0  0  0  0  0
   13.5078  -11.7650    0.0000 C   0  0  0  0  0  0  0  0  0  0  0  0
   14.2220  -11.3526    0.0000 C   0  0  0  0  0  0  0  0  0  0  0  0
   14.2220  -10.5279    0.0000 C   0  0  0  0  0  0  0  0  0  0  0  0
   13.5078  -10.1155    0.0000 C   0  0  0  0  0  0  0  0  0  0  0  0
   12.0793   -9.2908    0.0000 O   0  0  0  0  0  0  0  0  0  0  0  0
   14.9363  -10.1155    0.0000 O   0  0  0  0  0  0  0  0  0  0  0  0
   14.9363  -11.7650    0.0000 O   0  0  0  0  0  0  0  0  0  0  0  0
   13.5078  -12.5897    0.0000 O   0  0  0  0  0  0  0  0  0  0  0  0
    6.4125  -12.3201    0.0000 C   0  0  0  0  0  0  0  0  0  0  0  0
    5.6982  -12.7324    0.0000 C   0  0  0  0  0  0  0  0  0  0  0  0
    5.6982  -13.5572    0.0000 C   0  0  0  0  0  0  0  0  0  0  0  0
    6.4125  -13.9695    0.0000 C   0  0  0  0  0  0  0  0  0  0  0  0
    7.1267  -13.5572    0.0000 C   0  0  0  0  0  0  0  0  0  0  0  0
    7.1267  -12.7324    0.0000 C   0  0  0  0  0  0  0  0  0  0  0  0
    7.8410  -13.9695    0.0000 C   0  0  1  0  0  0  0  0  0  0  0  0
    8.5552  -13.5572    0.0000 C   0  0  2  0  0  0  0  0  0  0  0  0
    8.5552  -12.7324    0.0000 C   0  0  2  0  0  0  0  0  0  0  0  0
    7.8410  -12.3201    0.0000 O   0  0  0  0  0  0  0  0  0  0  0  0
    9.2695  -12.3201    0.0000 C   0  0  0  0  0  0  0  0  0  0  0  0
    9.9837  -12.7324    0.0000 C   0  0  0  0  0  0  0  0  0  0  0  0
   10.6979  -12.3201    0.0000 C   0  0  0  0  0  0  0  0  0  0  0  0
   10.6979  -11.4953    0.0000 C   0  0  0  0  0  0  0  0  0  0  0  0
    9.9837  -11.0830    0.0000 C   0  0  0  0  0  0  0  0  0  0  0  0
    9.2695  -11.4953    0.0000 C   0  0  0  0  0  0  0  0  0  0  0  0
    4.9840  -12.3201    0.0000 O   0  0  0  0  0  0  0  0  0  0  0  0
    6.4125  -14.7943    0.0000 O   0  0  0  0  0  0  0  0  0  0  0  0
   11.4122  -11.0830    0.0000 O   0  0  0  0  0  0  0  0  0  0  0  0
   11.4122  -12.7324    0.0000 O   0  0  0  0  0  0  0  0  0  0  0  0
   12.7666  -13.3457    0.0000 C   0  0  0  0  0  0  0  0  0  0  0  0
   13.4808  -13.7581    0.0000 C   0  0  0  0  0  0  0  0  0  0  0  0
   13.4808  -14.5828    0.0000 C   0  0  0  0  0  0  0  0  0  0  0  0
   14.1951  -14.9952    0.0000 C   0  0  0  0  0  0  0  0  0  0  0  0
   14.9093  -14.5828    0.0000 C   0  0  0  0  0  0  0  0  0  0  0  0
   14.9093  -13.7581    0.0000 C   0  0  0  0  0  0  0  0  0  0  0  0
   14.1951  -13.3457    0.0000 C   0  0  0  0  0  0  0  0  0  0  0  0
   12.7666  -12.5210    0.0000 O   0  0  0  0  0  0  0  0  0  0  0  0
   15.6236  -13.3457    0.0000 O   0  0  0  0  0  0  0  0  0  0  0  0
   15.6236  -14.9952    0.0000 O   0  0  0  0  0  0  0  0  0  0  0  0
   14.1951  -15.8199    0.0000 O   0  0  0  0  0  0  0  0  0  0  0  0
    7.8558  -15.5159    0.0000 C   0  0  0  0  0  0  0  0  0  0  0  0
    7.1415  -15.9283    0.0000 C   0  0  0  0  0  0  0  0  0  0  0  0
    7.1415  -16.7530    0.0000 C   0  0  0  0  0  0  0  0  0  0  0  0
    7.8558  -17.1654    0.0000 C   0  0  0  0  0  0  0  0  0  0  0  0
    8.5700  -16.7530    0.0000 C   0  0  0  0  0  0  0  0  0  0  0  0
    8.5700  -15.9283    0.0000 C   0  0  0  0  0  0  0  0  0  0  0  0
    9.2843  -17.1654    0.0000 C   0  0  1  0  0  0  0  0  0  0  0  0
    9.9985  -16.7530    0.0000 C   0  0  2  0  0  0  0  0  0  0  0  0
    9.9985  -15.9283    0.0000 C   0  0  2  0  0  0  0  0  0  0  0  0
    9.2843  -15.5159    0.0000 O   0  0  0  0  0  0  0  0  0  0  0  0
   10.7128  -15.5159    0.0000 C   0  0  0  0  0  0  0  0  0  0  0  0
   11.4270  -15.9283    0.0000 C   0  0  0  0  0  0  0  0  0  0  0  0
   12.1412  -15.5159    0.0000 C   0  0  0  0  0  0  0  0  0  0  0  0
   12.1412  -14.6912    0.0000 C   0  0  0  0  0  0  0  0  0  0  0  0
   11.4270  -14.2788    0.0000 C   0  0  0  0  0  0  0  0  0  0  0  0
   10.7128  -14.6912    0.0000 C   0  0  0  0  0  0  0  0  0  0  0  0
    6.4273  -15.5159    0.0000 O   0  0  0  0  0  0  0  0  0  0  0  0
    7.8558  -17.9902    0.0000 O   0  0  0  0  0  0  0  0  0  0  0  0
   12.8555  -14.2788    0.0000 O   0  0  0  0  0  0  0  0  0  0  0  0
   12.8555  -15.9283    0.0000 O   0  0  0  0  0  0  0  0  0  0  0  0
   14.9659  -16.2323    0.0000 C   0  0  0  0  0  0  0  0  0  0  0  0
   15.6801  -16.6447    0.0000 C   0  0  0  0  0  0  0  0  0  0  0  0
   15.6801  -17.4694    0.0000 C   0  0  0  0  0  0  0  0  0  0  0  0
   16.3944  -17.8818    0.0000 C   0  0  0  0  0  0  0  0  0  0  0  0
   17.1086  -17.4694    0.0000 C   0  0  0  0  0  0  0  0  0  0  0  0
   17.1086  -16.6447    0.0000 C   0  0  0  0  0  0  0  0  0  0  0  0
   16.3957  -16.2273    0.0000 C   0  0  0  0  0  0  0  0  0  0  0  0
   14.9659  -15.4076    0.0000 O   0  0  0  0  0  0  0  0  0  0  0  0
   17.8229  -16.2323    0.0000 O   0  0  0  0  0  0  0  0  0  0  0  0
   17.8229  -17.8818    0.0000 O   0  0  0  0  0  0  0  0  0  0  0  0
   16.3944  -18.7065    0.0000 O   0  0  0  0  0  0  0  0  0  0  0  0
    9.2647  -18.6087    0.0000 C   0  0  0  0  0  0  0  0  0  0  0  0
    8.5505  -19.0211    0.0000 C   0  0  0  0  0  0  0  0  0  0  0  0
    8.5505  -19.8458    0.0000 C   0  0  0  0  0  0  0  0  0  0  0  0
    9.2647  -20.2582    0.0000 C   0  0  0  0  0  0  0  0  0  0  0  0
    9.9789  -19.8458    0.0000 C   0  0  0  0  0  0  0  0  0  0  0  0
    9.9789  -19.0211    0.0000 C   0  0  0  0  0  0  0  0  0  0  0  0
   10.6932  -20.2582    0.0000 C   0  0  1  0  0  0  0  0  0  0  0  0
   11.4074  -19.8458    0.0000 C   0  0  2  0  0  0  0  0  0  0  0  0
   11.4074  -19.0211    0.0000 C   0  0  2  0  0  0  0  0  0  0  0  0
   10.6932  -18.6087    0.0000 O   0  0  0  0  0  0  0  0  0  0  0  0
   12.1217  -18.6087    0.0000 C   0  0  0  0  0  0  0  0  0  0  0  0
   12.8359  -19.0211    0.0000 C   0  0  0  0  0  0  0  0  0  0  0  0
   13.5502  -18.6087    0.0000 C   0  0  0  0  0  0  0  0  0  0  0  0
   13.5502  -17.7840    0.0000 C   0  0  0  0  0  0  0  0  0  0  0  0
   12.8359  -17.3716    0.0000 C   0  0  0  0  0  0  0  0  0  0  0  0
   12.1217  -17.7840    0.0000 C   0  0  0  0  0  0  0  0  0  0  0  0
    7.8362  -18.6087    0.0000 O   0  0  0  0  0  0  0  0  0  0  0  0
    9.2647  -21.0829    0.0000 O   0  0  0  0  0  0  0  0  0  0  0  0
   14.2644  -17.3716    0.0000 O   0  0  0  0  0  0  0  0  0  0  0  0
   14.2644  -19.0211    0.0000 O   0  0  0  0  0  0  0  0  0  0  0  0
   15.6188  -19.3595    0.0000 C   0  0  0  0  0  0  0  0  0  0  0  0
   16.5049  -19.7031    0.0000 C   0  0  0  0  0  0  0  0  0  0  0  0
   16.5049  -20.5278    0.0000 C   0  0  0  0  0  0  0  0  0  0  0  0
   17.2191  -20.9402    0.0000 C   0  0  0  0  0  0  0  0  0  0  0  0
   17.9334  -20.5278    0.0000 C   0  0  0  0  0  0  0  0  0  0  0  0
   17.9334  -19.7031    0.0000 C   0  0  0  0  0  0  0  0  0  0  0  0
   17.2191  -19.2907    0.0000 C   0  0  0  0  0  0  0  0  0  0  0  0
   15.6188  -18.5347    0.0000 O   0  0  0  0  0  0  0  0  0  0  0  0
   18.6476  -19.2907    0.0000 O   0  0  0  0  0  0  0  0  0  0  0  0
   18.6476  -20.9402    0.0000 O   0  0  0  0  0  0  0  0  0  0  0  0
   17.2191  -21.7649    0.0000 O   0  0  0  0  0  0  0  0  0  0  0  0
   10.6736  -21.7702    0.0000 C   0  0  0  0  0  0  0  0  0  0  0  0
    9.9594  -22.1826    0.0000 C   0  0  0  0  0  0  0  0  0  0  0  0
    9.9594  -23.0073    0.0000 C   0  0  0  0  0  0  0  0  0  0  0  0
   10.6736  -23.4197    0.0000 C   0  0  0  0  0  0  0  0  0  0  0  0
   11.3879  -23.0073    0.0000 C   0  0  0  0  0  0  0  0  0  0  0  0
   11.3879  -22.1826    0.0000 C   0  0  0  0  0  0  0  0  0  0  0  0
   12.1021  -23.4197    0.0000 C   0  0  1  0  0  0  0  0  0  0  0  0
   12.8164  -23.0073    0.0000 C   0  0  2  0  0  0  0  0  0  0  0  0
   12.8164  -22.1826    0.0000 C   0  0  2  0  0  0  0  0  0  0  0  0
   12.1021  -21.7702    0.0000 O   0  0  0  0  0  0  0  0  0  0  0  0
   13.5306  -23.4197    0.0000 O   0  0  0  0  0  0  0  0  0  0  0  0
   13.5306  -21.7702    0.0000 C   0  0  0  0  0  0  0  0  0  0  0  0
   14.2449  -22.1826    0.0000 C   0  0  0  0  0  0  0  0  0  0  0  0
   14.9591  -21.7702    0.0000 C   0  0  0  0  0  0  0  0  0  0  0  0
   14.9591  -20.9455    0.0000 C   0  0  0  0  0  0  0  0  0  0  0  0
   14.2449  -20.5331    0.0000 C   0  0  0  0  0  0  0  0  0  0  0  0
   13.5306  -20.9455    0.0000 C   0  0  0  0  0  0  0  0  0  0  0  0
    9.2451  -21.7702    0.0000 O   0  0  0  0  0  0  0  0  0  0  0  0
   10.6736  -24.2444    0.0000 O   0  0  0  0  0  0  0  0  0  0  0  0
   15.6734  -20.5331    0.0000 O   0  0  0  0  0  0  0  0  0  0  0  0
   15.6734  -22.1826    0.0000 O   0  0  0  0  0  0  0  0  0  0  0  0
   17.9560  -22.5897    0.0000 C   0  0  0  0  0  0  0  0  0  0  0  0
   18.8764  -23.0021    0.0000 C   0  0  0  0  0  0  0  0  0  0  0  0
   18.8764  -23.8268    0.0000 C   0  0  0  0  0  0  0  0  0  0  0  0
   19.5907  -24.2392    0.0000 C   0  0  0  0  0  0  0  0  0  0  0  0
   20.3049  -23.8268    0.0000 C   0  0  0  0  0  0  0  0  0  0  0  0
   20.3049  -23.0021    0.0000 C   0  0  0  0  0  0  0  0  0  0  0  0
   19.5907  -22.5897    0.0000 C   0  0  0  0  0  0  0  0  0  0  0  0
   17.9560  -21.7649    0.0000 O   0  0  0  0  0  0  0  0  0  0  0  0
   21.0192  -22.5897    0.0000 O   0  0  0  0  0  0  0  0  0  0  0  0
   21.0192  -24.2392    0.0000 O   0  0  0  0  0  0  0  0  0  0  0  0
   19.5907  -25.0639    0.0000 O   0  0  0  0  0  0  0  0  0  0  0  0
    8.0391  -10.8768    0.0000 O   0  0  0  0  0  0  0  0  0  0  0  0
    9.4480  -14.0726    0.0000 O   0  0  0  0  0  0  0  0  0  0  0  0
   10.8913  -17.2685    0.0000 O   0  0  0  0  0  0  0  0  0  0  0  0
   12.3002  -20.3613    0.0000 O   0  0  0  0  0  0  0  0  0  0  0  0
   12.1021  -24.7947    0.0000 C   0  0  0  0  0  0  0  0  0  0  0  0
   11.3894  -25.2351    0.0000 C   0  0  0  0  0  0  0  0  0  0  0  0
   11.3894  -26.0598    0.0000 C   0  0  0  0  0  0  0  0  0  0  0  0
   12.1036  -26.4722    0.0000 C   0  0  0  0  0  0  0  0  0  0  0  0
   12.8179  -26.0598    0.0000 C   0  0  0  0  0  0  0  0  0  0  0  0
   12.8179  -25.2351    0.0000 C   0  0  0  0  0  0  0  0  0  0  0  0
   13.5321  -26.4722    0.0000 C   0  0  1  0  0  0  0  0  0  0  0  0
   14.2464  -26.0598    0.0000 C   0  0  2  0  0  0  0  0  0  0  0  0
   14.2464  -25.2351    0.0000 C   0  0  2  0  0  0  0  0  0  0  0  0
   13.5321  -24.8227    0.0000 O   0  0  0  0  0  0  0  0  0  0  0  0
   14.9606  -26.4722    0.0000 O   0  0  0  0  0  0  0  0  0  0  0  0
   14.9606  -24.8227    0.0000 C   0  0  0  0  0  0  0  0  0  0  0  0
   15.6749  -25.2351    0.0000 C   0  0  0  0  0  0  0  0  0  0  0  0
   16.3891  -24.8227    0.0000 C   0  0  0  0  0  0  0  0  0  0  0  0
   16.3891  -23.9980    0.0000 C   0  0  0  0  0  0  0  0  0  0  0  0
   15.6749  -23.5856    0.0000 C   0  0  0  0  0  0  0  0  0  0  0  0
   14.9606  -23.9980    0.0000 C   0  0  0  0  0  0  0  0  0  0  0  0
   10.6751  -24.8227    0.0000 O   0  0  0  0  0  0  0  0  0  0  0  0
   12.1036  -27.2969    0.0000 O   0  0  0  0  0  0  0  0  0  0  0  0
   17.1034  -23.5856    0.0000 O   0  0  0  0  0  0  0  0  0  0  0  0
   17.1034  -25.2351    0.0000 O   0  0  0  0  0  0  0  0  0  0  0  0
   18.5885  -25.6422    0.0000 C   0  0  0  0  0  0  0  0  0  0  0  0
   19.5089  -26.0546    0.0000 C   0  0  0  0  0  0  0  0  0  0  0  0
   19.5089  -26.8793    0.0000 C   0  0  0  0  0  0  0  0  0  0  0  0
   20.2232  -27.2917    0.0000 C   0  0  0  0  0  0  0  0  0  0  0  0
   20.9374  -26.8793    0.0000 C   0  0  0  0  0  0  0  0  0  0  0  0
   20.9374  -26.0546    0.0000 C   0  0  0  0  0  0  0  0  0  0  0  0
   20.2232  -25.6422    0.0000 C   0  0  0  0  0  0  0  0  0  0  0  0
   18.5885  -24.8174    0.0000 O   0  0  0  0  0  0  0  0  0  0  0  0
   21.6517  -25.6422    0.0000 O   0  0  0  0  0  0  0  0  0  0  0  0
   21.6517  -27.2917    0.0000 O   0  0  0  0  0  0  0  0  0  0  0  0
   20.2232  -28.1164    0.0000 O   0  0  0  0  0  0  0  0  0  0  0  0
   13.5321  -27.8472    0.0000 C   0  0  0  0  0  0  0  0  0  0  0  0
   12.8032  -28.2601    0.0000 C   0  0  0  0  0  0  0  0  0  0  0  0
   12.8032  -29.0848    0.0000 C   0  0  0  0  0  0  0  0  0  0  0  0
   13.5174  -29.4972    0.0000 C   0  0  0  0  0  0  0  0  0  0  0  0
   14.2317  -29.0848    0.0000 C   0  0  0  0  0  0  0  0  0  0  0  0
   14.2317  -28.2601    0.0000 C   0  0  0  0  0  0  0  0  0  0  0  0
   14.9459  -29.4972    0.0000 C   0  0  0  0  0  0  0  0  0  0  0  0
   15.6602  -29.0848    0.0000 C   0  0  2  0  0  0  0  0  0  0  0  0
   15.6602  -28.2601    0.0000 C   0  0  2  0  0  0  0  0  0  0  0  0
   14.9459  -27.8477    0.0000 O   0  0  0  0  0  0  0  0  0  0  0  0
   16.3744  -29.4972    0.0000 O   0  0  0  0  0  0  0  0  0  0  0  0
   16.3744  -27.8477    0.0000 C   0  0  0  0  0  0  0  0  0  0  0  0
   17.0887  -28.2601    0.0000 C   0  0  0  0  0  0  0  0  0  0  0  0
   17.8029  -27.8477    0.0000 C   0  0  0  0  0  0  0  0  0  0  0  0
   17.8029  -27.0230    0.0000 C   0  0  0  0  0  0  0  0  0  0  0  0
   17.0887  -26.6106    0.0000 C   0  0  0  0  0  0  0  0  0  0  0  0
   16.3744  -27.0230    0.0000 C   0  0  0  0  0  0  0  0  0  0  0  0
   12.0889  -27.8477    0.0000 O   0  0  0  0  0  0  0  0  0  0  0  0
   13.5174  -30.3219    0.0000 O   0  0  0  0  0  0  0  0  0  0  0  0
   18.5172  -26.6106    0.0000 O   0  0  0  0  0  0  0  0  0  0  0  0
   18.5172  -28.2601    0.0000 O   0  0  0  0  0  0  0  0  0  0  0  0
   19.4248  -28.6672    0.0000 C   0  0  0  0  0  0  0  0  0  0  0  0
   20.3452  -29.0796    0.0000 C   0  0  0  0  0  0  0  0  0  0  0  0
   20.3452  -29.9043    0.0000 C   0  0  0  0  0  0  0  0  0  0  0  0
   21.0595  -30.3167    0.0000 C   0  0  0  0  0  0  0  0  0  0  0  0
   21.7737  -29.9043    0.0000 C   0  0  0  0  0  0  0  0  0  0  0  0
   21.7737  -29.0796    0.0000 C   0  0  0  0  0  0  0  0  0  0  0  0
   21.0595  -28.6672    0.0000 C   0  0  0  0  0  0  0  0  0  0  0  0
   19.4248  -27.8424    0.0000 O   0  0  0  0  0  0  0  0  0  0  0  0
   22.4880  -28.6672    0.0000 O   0  0  0  0  0  0  0  0  0  0  0  0
   22.4880  -30.3167    0.0000 O   0  0  0  0  0  0  0  0  0  0  0  0
   21.0595  -31.1414    0.0000 O   0  0  0  0  0  0  0  0  0  0  0  0
  1  2  2  0  0  0  0
  2  3  1  0  0  0  0
  3  4  2  0  0  0  0
  4  5  1  0  0  0  0
  5  6  2  0  0  0  0
  6  1  1  0  0  0  0
  4  7  1  0  0  0  0
  7  8  1  0  0  0  0
  8  9  1  0  0  0  0
  9 10  1  0  0  0  0
 10  5  1  0  0  0  0
  8 11  1  6  0  0  0
 12 13  2  0  0  0  0
  9 13  1  6  0  0  0
 12 14  1  0  0  0  0
 14 15  2  0  0  0  0
 15 16  1  0  0  0  0
 16 17  2  0  0  0  0
 17 13  1  0  0  0  0
 15 18  1  0  0  0  0
 14 19  1  0  0  0  0
  1 20  1  0  0  0  0
  3 21  1  0  0  0  0
  7 22  1  1  0  0  0
 22 23  2  0  0  0  0
 23 24  1  0  0  0  0
 24 25  2  0  0  0  0
 25 26  1  0  0  0  0
 26 27  2  0  0  0  0
 27 22  1  0  0  0  0
 26 28  1  0  0  0  0
 28 29  1  0  0  0  0
 29 30  1  0  0  0  0
 30 31  1  0  0  0  0
 31 27  1  0  0  0  0
 29 32  1  6  0  0  0
 30 33  1  6  0  0  0
 33 34  2  0  0  0  0
 34 35  1  0  0  0  0
 35 36  2  0  0  0  0
 36 37  1  0  0  0  0
 37 38  2  0  0  0  0
 38 33  1  0  0  0  0
 23 39  1  0  0  0  0
 25 40  1  0  0  0  0
 36 41  1  0  0  0  0
 35 42  1  0  0  0  0
 43 44  1  0  0  0  0
 44 45  2  0  0  0  0
 45 46  1  0  0  0  0
 46 47  2  0  0  0  0
 47 48  1  0  0  0  0
 48 49  2  0  0  0  0
 49 44  1  0  0  0  0
 43 50  2  0  0  0  0
 48 51  1  0  0  0  0
 47 52  1  0  0  0  0
 46 53  1  0  0  0  0
 54 55  1  0  0  0  0
 55 56  2  0  0  0  0
 56 57  1  0  0  0  0
 57 58  2  0  0  0  0
 58 59  1  0  0  0  0
 59 60  2  0  0  0  0
 60 55  1  0  0  0  0
 54 61  2  0  0  0  0
 59 62  1  0  0  0  0
 58 63  1  0  0  0  0
 57 64  1  0  0  0  0
 43 11  1  0  0  0  0
 54 32  1  0  0  0  0
 65 66  2  0  0  0  0
 66 67  1  0  0  0  0
 67 68  2  0  0  0  0
 68 69  1  0  0  0  0
 69 70  2  0  0  0  0
 70 65  1  0  0  0  0
 69 71  1  0  0  0  0
 71 72  1  0  0  0  0
 72 73  1  0  0  0  0
 73 74  1  0  0  0  0
 74 70  1  0  0  0  0
 73 75  1  6  0  0  0
 75 76  2  0  0  0  0
 76 77  1  0  0  0  0
 77 78  2  0  0  0  0
 78 79  1  0  0  0  0
 79 80  2  0  0  0  0
 80 75  1  0  0  0  0
 66 81  1  0  0  0  0
 68 82  1  0  0  0  0
 78 83  1  0  0  0  0
 77 84  1  0  0  0  0
 85 86  1  0  0  0  0
 86 87  2  0  0  0  0
 87 88  1  0  0  0  0
 88 89  2  0  0  0  0
 89 90  1  0  0  0  0
 90 91  2  0  0  0  0
 91 86  1  0  0  0  0
 85 92  2  0  0  0  0
 90 93  1  0  0  0  0
 89 94  1  0  0  0  0
 88 95  1  0  0  0  0
 96 97  2  0  0  0  0
 97 98  1  0  0  0  0
 98 99  2  0  0  0  0
 99100  1  0  0  0  0
100101  2  0  0  0  0
101 96  1  0  0  0  0
100102  1  0  0  0  0
102103  1  0  0  0  0
103104  1  0  0  0  0
104105  1  0  0  0  0
105101  1  0  0  0  0
104106  1  6  0  0  0
106107  2  0  0  0  0
107108  1  0  0  0  0
108109  2  0  0  0  0
109110  1  0  0  0  0
110111  2  0  0  0  0
111106  1  0  0  0  0
 97112  1  0  0  0  0
 99113  1  0  0  0  0
109114  1  0  0  0  0
108115  1  0  0  0  0
116117  1  0  0  0  0
117118  2  0  0  0  0
118119  1  0  0  0  0
119120  2  0  0  0  0
120121  1  0  0  0  0
121122  2  0  0  0  0
122117  1  0  0  0  0
116123  2  0  0  0  0
121124  1  0  0  0  0
120125  1  0  0  0  0
119126  1  0  0  0  0
127128  2  0  0  0  0
128129  1  0  0  0  0
129130  2  0  0  0  0
130131  1  0  0  0  0
131132  2  0  0  0  0
132127  1  0  0  0  0
131133  1  0  0  0  0
133134  1  0  0  0  0
134135  1  0  0  0  0
135136  1  0  0  0  0
136132  1  0  0  0  0
135137  1  6  0  0  0
137138  2  0  0  0  0
138139  1  0  0  0  0
139140  2  0  0  0  0
140141  1  0  0  0  0
141142  2  0  0  0  0
142137  1  0  0  0  0
128143  1  0  0  0  0
130144  1  0  0  0  0
140145  1  0  0  0  0
139146  1  0  0  0  0
147148  1  0  0  0  0
148149  2  0  0  0  0
149150  1  0  0  0  0
150151  2  0  0  0  0
151152  1  0  0  0  0
152153  2  0  0  0  0
153148  1  0  0  0  0
147154  2  0  0  0  0
152155  1  0  0  0  0
151156  1  0  0  0  0
150157  1  0  0  0  0
158159  2  0  0  0  0
159160  1  0  0  0  0
160161  2  0  0  0  0
161162  1  0  0  0  0
162163  2  0  0  0  0
163158  1  0  0  0  0
162164  1  0  0  0  0
164165  1  0  0  0  0
165166  1  0  0  0  0
166167  1  0  0  0  0
167163  1  0  0  0  0
166168  1  6  0  0  0
168169  2  0  0  0  0
169170  1  0  0  0  0
170171  2  0  0  0  0
171172  1  0  0  0  0
172173  2  0  0  0  0
173168  1  0  0  0  0
159174  1  0  0  0  0
161175  1  0  0  0  0
171176  1  0  0  0  0
170177  1  0  0  0  0
178179  1  0  0  0  0
179180  2  0  0  0  0
180181  1  0  0  0  0
181182  2  0  0  0  0
182183  1  0  0  0  0
183184  2  0  0  0  0
184179  1  0  0  0  0
178185  2  0  0  0  0
183186  1  0  0  0  0
182187  1  0  0  0  0
181188  1  0  0  0  0
189190  2  0  0  0  0
190191  1  0  0  0  0
191192  2  0  0  0  0
192193  1  0  0  0  0
193194  2  0  0  0  0
194189  1  0  0  0  0
193195  1  0  0  0  0
195196  1  0  0  0  0
196197  1  0  0  0  0
197198  1  0  0  0  0
198194  1  0  0  0  0
196199  1  6  0  0  0
197200  1  6  0  0  0
200201  2  0  0  0  0
201202  1  0  0  0  0
202203  2  0  0  0  0
203204  1  0  0  0  0
204205  2  0  0  0  0
205200  1  0  0  0  0
190206  1  0  0  0  0
192207  1  0  0  0  0
203208  1  0  0  0  0
202209  1  0  0  0  0
210211  1  0  0  0  0
211212  2  0  0  0  0
212213  1  0  0  0  0
213214  2  0  0  0  0
214215  1  0  0  0  0
215216  2  0  0  0  0
216211  1  0  0  0  0
210217  2  0  0  0  0
215218  1  0  0  0  0
214219  1  0  0  0  0
213220  1  0  0  0  0
210199  1  0  0  0  0
 28 65  1  1  0  0  0
 71 96  1  1  0  0  0
102127  1  1  0  0  0
133158  1  1  0  0  0
164189  1  1  0  0  0
 72221  1  6  0  0  0
 85221  1  0  0  0  0
103222  1  6  0  0  0
222116  1  0  0  0  0
134223  1  6  0  0  0
223147  1  0  0  0  0
165224  1  6  0  0  0
224178  1  0  0  0  0
195225  1  1  0  0  0
226227  1  0  0  0  0
227228  2  0  0  0  0
228229  1  0  0  0  0
229230  2  0  0  0  0
229231  1  0  0  0  0
231232  1  0  0  0  0
232233  1  0  0  0  0
233234  1  0  0  0  0
234230  1  0  0  0  0
232235  1  6  0  0  0
233236  1  6  0  0  0
236237  2  0  0  0  0
237238  1  0  0  0  0
238239  2  0  0  0  0
239240  1  0  0  0  0
240241  2  0  0  0  0
241236  1  0  0  0  0
226242  1  0  0  0  0
228243  1  0  0  0  0
239244  1  0  0  0  0
238245  1  0  0  0  0
246247  1  0  0  0  0
247248  2  0  0  0  0
248249  1  0  0  0  0
249250  2  0  0  0  0
250251  1  0  0  0  0
251252  2  0  0  0  0
252247  1  0  0  0  0
246253  2  0  0  0  0
251254  1  0  0  0  0
250255  1  0  0  0  0
249256  1  0  0  0  0
246235  1  0  0  0  0
231257  1  1  0  0  0
258259  1  0  0  0  0
259260  2  0  0  0  0
260261  1  0  0  0  0
261262  2  0  0  0  0
261263  1  0  0  0  0
263264  1  0  0  0  0
264265  1  0  0  0  0
265266  1  0  0  0  0
266262  1  0  0  0  0
264267  1  6  0  0  0
265268  1  6  0  0  0
268269  2  0  0  0  0
269270  1  0  0  0  0
270271  2  0  0  0  0
271272  1  0  0  0  0
272273  2  0  0  0  0
273268  1  0  0  0  0
258274  1  0  0  0  0
260275  1  0  0  0  0
271276  1  0  0  0  0
270277  1  0  0  0  0
278279  1  0  0  0  0
279280  2  0  0  0  0
280281  1  0  0  0  0
281282  2  0  0  0  0
282283  1  0  0  0  0
283284  2  0  0  0  0
284279  1  0  0  0  0
278285  2  0  0  0  0
283286  1  0  0  0  0
282287  1  0  0  0  0
281288  1  0  0  0  0
278267  1  0  0  0  0
225226  2  0  0  0  0
225230  1  0  0  0  0
257258  2  0  0  0  0
257262  1  0  0  0  0
M  END
>  <cdx:fragmentId>
5

$$$$
