93517.cdx
  Mrv1902 05222410192D          

 44 47  0  0  0  0            999 V2000
   11.3281   -4.2900    0.0000 C   0  0  0  0  0  0  0  0  0  0  0  0
   11.3281   -5.1150    0.0000 C   0  0  0  0  0  0  0  0  0  0  0  0
   12.0425   -5.5275    0.0000 C   0  0  0  0  0  0  0  0  0  0  0  0
   12.7570   -5.1150    0.0000 C   0  0  0  0  0  0  0  0  0  0  0  0
   12.7570   -4.2900    0.0000 C   0  0  0  0  0  0  0  0  0  0  0  0
   12.0425   -3.8775    0.0000 C   0  0  0  0  0  0  0  0  0  0  0  0
   13.4715   -3.8775    0.0000 O   0  0  0  0  0  0  0  0  0  0  0  0
   10.6136   -5.5275    0.0000 C   0  0  0  0  0  0  0  0  0  0  0  0
    9.8991   -5.1150    0.0000 C   0  0  0  0  0  0  0  0  0  0  0  0
    9.1846   -5.5275    0.0000 C   0  0  0  0  0  0  0  0  0  0  0  0
    8.4702   -5.1150    0.0000 O   0  0  0  0  0  0  0  0  0  0  0  0
    7.7557   -5.5275    0.0000 C   0  0  2  0  0  0  0  0  0  0  0  0
    7.0412   -5.1150    0.0000 O   0  0  0  0  0  0  0  0  0  0  0  0
    6.3268   -5.5275    0.0000 C   0  0  1  0  0  0  0  0  0  0  0  0
    6.3268   -6.3525    0.0000 C   0  0  2  0  0  0  0  0  0  0  0  0
    7.0412   -6.7650    0.0000 C   0  0  1  0  0  0  0  0  0  0  0  0
    7.7557   -6.3525    0.0000 C   0  0  1  0  0  0  0  0  0  0  0  0
    5.6123   -5.1150    0.0000 C   0  0  0  0  0  0  0  0  0  0  0  0
    7.0412   -7.5900    0.0000 O   0  0  0  0  0  0  0  0  0  0  0  0
    5.6123   -6.7650    0.0000 O   0  0  0  0  0  0  0  0  0  0  0  0
    8.4702   -6.7650    0.0000 O   0  0  0  0  0  0  0  0  0  0  0  0
    4.8978   -5.5275    0.0000 O   0  0  0  0  0  0  0  0  0  0  0  0
    8.4702   -7.5900    0.0000 C   0  0  2  0  0  0  0  0  0  0  0  0
    7.7557   -8.0025    0.0000 O   0  0  0  0  0  0  0  0  0  0  0  0
    7.7557   -8.8275    0.0000 C   0  0  1  0  0  0  0  0  0  0  0  0
    8.4702   -9.2400    0.0000 C   0  0  2  0  0  0  0  0  0  0  0  0
    9.1846   -8.8275    0.0000 C   0  0  1  0  0  0  0  0  0  0  0  0
    9.1846   -8.0025    0.0000 C   0  0  1  0  0  0  0  0  0  0  0  0
    7.0412   -9.2400    0.0000 C   0  0  0  0  0  0  0  0  0  0  0  0
    9.8991   -9.2400    0.0000 O   0  0  0  0  0  0  0  0  0  0  0  0
    9.8991   -7.5900    0.0000 O   0  0  0  0  0  0  0  0  0  0  0  0
    8.4702  -10.0650    0.0000 O   0  0  0  0  0  0  0  0  0  0  0  0
    7.0412  -10.0650    0.0000 O   0  0  0  0  0  0  0  0  0  0  0  0
    2.6311   -8.5701    0.0000 C   0  0  0  0  0  0  0  0  0  0  0  0
    2.1627   -7.8910    0.0000 C   0  0  0  0  0  0  0  0  0  0  0  0
    1.3403   -7.9571    0.0000 C   0  0  0  0  0  0  0  0  0  0  0  0
    0.9864   -8.7023    0.0000 C   0  0  0  0  0  0  0  0  0  0  0  0
    1.4548   -9.3815    0.0000 C   0  0  0  0  0  0  0  0  0  0  0  0
    2.2771   -9.3154    0.0000 C   0  0  0  0  0  0  0  0  0  0  0  0
    1.1009  -10.1267    0.0000 O   0  0  0  0  0  0  0  0  0  0  0  0
    2.5166   -7.1458    0.0000 C   0  0  0  0  0  0  0  0  0  0  0  0
    3.3389   -7.0797    0.0000 C   0  0  0  0  0  0  0  0  0  0  0  0
    3.6929   -6.3345    0.0000 C   0  0  0  0  0  0  0  0  0  0  0  0
    4.5152   -6.2684    0.0000 O   0  0  0  0  0  0  0  0  0  0  0  0
  1  2  2  0  0  0  0
  2  3  1  0  0  0  0
  3  4  2  0  0  0  0
  4  5  1  0  0  0  0
  5  6  2  0  0  0  0
  6  1  1  0  0  0  0
  5  7  1  0  0  0  0
  2  8  1  0  0  0  0
  8  9  2  0  0  0  0
  9 10  1  0  0  0  0
 10 11  1  0  0  0  0
 12 11  1  1  0  0  0
 12 13  1  0  0  0  0
 13 14  1  0  0  0  0
 14 15  1  0  0  0  0
 15 16  1  0  0  0  0
 16 17  1  0  0  0  0
 17 12  1  0  0  0  0
 14 18  1  1  0  0  0
 16 19  1  1  0  0  0
 15 20  1  6  0  0  0
 17 21  1  6  0  0  0
 18 22  1  0  0  0  0
 23 21  1  1  0  0  0
 23 24  1  0  0  0  0
 24 25  1  0  0  0  0
 25 26  1  0  0  0  0
 26 27  1  0  0  0  0
 27 28  1  0  0  0  0
 28 23  1  0  0  0  0
 25 29  1  1  0  0  0
 27 30  1  1  0  0  0
 28 31  1  6  0  0  0
 26 32  1  6  0  0  0
 29 33  1  0  0  0  0
 34 35  2  0  0  0  0
 35 36  1  0  0  0  0
 36 37  2  0  0  0  0
 37 38  1  0  0  0  0
 38 39  2  0  0  0  0
 39 34  1  0  0  0  0
 38 40  1  0  0  0  0
 35 41  1  0  0  0  0
 41 42  2  0  0  0  0
 42 43  1  0  0  0  0
 43 44  1  0  0  0  0
 44 22  1  0  0  0  0
M  END
>  <cdx:fragmentId>
23

$$$$
