93518.cdx
  Mrv1902 05222410282D          

 44 47  0  0  0  0            999 V2000
   10.5581   -4.8400    0.0000 C   0  0  0  0  0  0  0  0  0  0  0  0
   10.5581   -5.6650    0.0000 C   0  0  0  0  0  0  0  0  0  0  0  0
   11.2725   -6.0775    0.0000 C   0  0  0  0  0  0  0  0  0  0  0  0
   11.9870   -5.6650    0.0000 C   0  0  0  0  0  0  0  0  0  0  0  0
   11.9870   -4.8400    0.0000 C   0  0  0  0  0  0  0  0  0  0  0  0
   11.2725   -4.4275    0.0000 C   0  0  0  0  0  0  0  0  0  0  0  0
   12.7015   -4.4275    0.0000 O   0  0  0  0  0  0  0  0  0  0  0  0
    9.8436   -6.0775    0.0000 C   0  0  0  0  0  0  0  0  0  0  0  0
    9.1291   -5.6650    0.0000 C   0  0  0  0  0  0  0  0  0  0  0  0
    8.4146   -6.0775    0.0000 C   0  0  0  0  0  0  0  0  0  0  0  0
    7.7002   -5.6650    0.0000 O   0  0  0  0  0  0  0  0  0  0  0  0
    6.9857   -6.0775    0.0000 C   0  0  2  0  0  0  0  0  0  0  0  0
    6.2712   -5.6650    0.0000 O   0  0  0  0  0  0  0  0  0  0  0  0
    5.5568   -6.0775    0.0000 C   0  0  1  0  0  0  0  0  0  0  0  0
    5.5568   -6.9025    0.0000 C   0  0  2  0  0  0  0  0  0  0  0  0
    6.2712   -7.3150    0.0000 C   0  0  1  0  0  0  0  0  0  0  0  0
    6.9857   -6.9025    0.0000 C   0  0  1  0  0  0  0  0  0  0  0  0
    4.8423   -5.6650    0.0000 C   0  0  0  0  0  0  0  0  0  0  0  0
    6.2712   -8.1400    0.0000 O   0  0  0  0  0  0  0  0  0  0  0  0
    4.8423   -7.3150    0.0000 O   0  0  0  0  0  0  0  0  0  0  0  0
    7.7002   -7.3150    0.0000 O   0  0  0  0  0  0  0  0  0  0  0  0
    4.1278   -6.0775    0.0000 O   0  0  0  0  0  0  0  0  0  0  0  0
    7.7002   -8.1400    0.0000 C   0  0  2  0  0  0  0  0  0  0  0  0
    6.9857   -8.5525    0.0000 O   0  0  0  0  0  0  0  0  0  0  0  0
    6.9857   -9.3775    0.0000 C   0  0  1  0  0  0  0  0  0  0  0  0
    7.7002   -9.7900    0.0000 C   0  0  2  0  0  0  0  0  0  0  0  0
    8.4146   -9.3775    0.0000 C   0  0  1  0  0  0  0  0  0  0  0  0
    8.4146   -8.5525    0.0000 C   0  0  1  0  0  0  0  0  0  0  0  0
    6.2712   -9.7900    0.0000 C   0  0  0  0  0  0  0  0  0  0  0  0
    9.1291   -9.7900    0.0000 O   0  0  0  0  0  0  0  0  0  0  0  0
    9.1291   -8.1400    0.0000 O   0  0  0  0  0  0  0  0  0  0  0  0
    7.7002  -10.6150    0.0000 O   0  0  0  0  0  0  0  0  0  0  0  0
    6.2712  -10.6150    0.0000 O   0  0  0  0  0  0  0  0  0  0  0  0
    2.9061  -10.4401    0.0000 C   0  0  0  0  0  0  0  0  0  0  0  0
    2.4377   -9.7610    0.0000 C   0  0  0  0  0  0  0  0  0  0  0  0
    1.6153   -9.8271    0.0000 C   0  0  0  0  0  0  0  0  0  0  0  0
    1.2614  -10.5723    0.0000 C   0  0  0  0  0  0  0  0  0  0  0  0
    1.7298  -11.2515    0.0000 C   0  0  0  0  0  0  0  0  0  0  0  0
    2.5521  -11.1854    0.0000 C   0  0  0  0  0  0  0  0  0  0  0  0
    1.3759  -11.9967    0.0000 O   0  0  0  0  0  0  0  0  0  0  0  0
    2.7916   -9.0158    0.0000 C   0  0  0  0  0  0  0  0  0  0  0  0
    3.6139   -8.9497    0.0000 C   0  0  0  0  0  0  0  0  0  0  0  0
    3.9679   -8.2045    0.0000 C   0  0  0  0  0  0  0  0  0  0  0  0
    4.7902   -8.1384    0.0000 O   0  0  0  0  0  0  0  0  0  0  0  0
  1  2  2  0  0  0  0
  2  3  1  0  0  0  0
  3  4  2  0  0  0  0
  4  5  1  0  0  0  0
  5  6  2  0  0  0  0
  6  1  1  0  0  0  0
  5  7  1  0  0  0  0
  2  8  1  0  0  0  0
  8  9  2  0  0  0  0
  9 10  1  0  0  0  0
 10 11  1  0  0  0  0
 12 11  1  1  0  0  0
 12 13  1  0  0  0  0
 13 14  1  0  0  0  0
 14 15  1  0  0  0  0
 15 16  1  0  0  0  0
 16 17  1  0  0  0  0
 17 12  1  0  0  0  0
 14 18  1  1  0  0  0
 16 19  1  1  0  0  0
 15 20  1  6  0  0  0
 17 21  1  6  0  0  0
 18 22  1  0  0  0  0
 23 21  1  1  0  0  0
 23 24  1  0  0  0  0
 24 25  1  0  0  0  0
 25 26  1  0  0  0  0
 26 27  1  0  0  0  0
 27 28  1  0  0  0  0
 28 23  1  0  0  0  0
 25 29  1  1  0  0  0
 27 30  1  1  0  0  0
 28 31  1  6  0  0  0
 26 32  1  6  0  0  0
 29 33  1  0  0  0  0
 34 35  2  0  0  0  0
 35 36  1  0  0  0  0
 36 37  2  0  0  0  0
 37 38  1  0  0  0  0
 38 39  2  0  0  0  0
 39 34  1  0  0  0  0
 38 40  1  0  0  0  0
 35 41  1  0  0  0  0
 41 42  2  0  0  0  0
 42 43  1  0  0  0  0
 43 44  1  0  0  0  0
 20 44  1  0  0  0  0
M  END
>  <cdx:fragmentId>
23

$$$$
