93524.cdx
  Mrv1902 05222410282D          

 52 57  0  0  0  0            999 V2000
    4.1506   -8.9238    0.0000 C   0  0  0  0  0  0  0  0  0  0  0  0
    4.1506   -9.7487    0.0000 C   0  0  1  0  0  0  0  0  0  0  0  0
    4.8650  -10.1612    0.0000 C   0  0  1  0  0  0  0  0  0  0  0  0
    5.5795   -9.7487    0.0000 C   0  0  1  0  0  0  0  0  0  0  0  0
    5.5795   -8.9238    0.0000 C   0  0  2  0  0  0  0  0  0  0  0  0
    4.8650   -8.5113    0.0000 C   0  0  0  0  0  0  0  0  0  0  0  0
    6.2940  -10.1612    0.0000 C   0  0  0  0  0  0  0  0  0  0  0  0
    7.0084   -9.7487    0.0000 C   0  0  0  0  0  0  0  0  0  0  0  0
    7.0084   -8.9238    0.0000 C   0  0  2  0  0  0  0  0  0  0  0  0
    6.2940   -8.5113    0.0000 C   0  0  2  0  0  0  0  0  0  0  0  0
    7.7229   -8.5113    0.0000 C   0  0  1  0  0  0  0  0  0  0  0  0
    7.7229   -7.6863    0.0000 C   0  0  0  0  0  0  0  0  0  0  0  0
    7.0084   -7.2738    0.0000 C   0  0  0  0  0  0  0  0  0  0  0  0
    6.2940   -7.6863    0.0000 C   0  0  0  0  0  0  0  0  0  0  0  0
    8.4374   -8.9238    0.0000 C   0  0  0  0  0  0  0  0  0  0  0  0
    9.1519   -8.5113    0.0000 C   0  0  0  0  0  0  0  0  0  0  0  0
    9.1519   -7.6863    0.0000 C   0  0  2  0  0  0  0  0  0  0  0  0
    8.4374   -7.2738    0.0000 C   0  0  1  0  0  0  0  0  0  0  0  0
    9.8663   -7.2738    0.0000 C   0  0  0  0  0  0  0  0  0  0  0  0
    9.8663   -6.4487    0.0000 C   0  0  0  0  0  0  0  0  0  0  0  0
    9.1519   -6.0362    0.0000 C   0  0  2  0  0  0  0  0  0  0  0  0
    8.4374   -6.4487    0.0000 C   0  0  2  0  0  0  0  0  0  0  0  0
    3.4361  -10.1612    0.0000 O   0  0  0  0  0  0  0  0  0  0  0  0
    4.4525  -10.8757    0.0000 C   0  0  0  0  0  0  0  0  0  0  0  0
    5.5795   -8.0987    0.0000 C   0  0  0  0  0  0  0  0  0  0  0  0
    7.0084   -8.0987    0.0000 C   0  0  0  0  0  0  0  0  0  0  0  0
    7.6124   -6.4487    0.0000 C   0  0  0  0  0  0  0  0  0  0  0  0
    8.4374   -8.0987    0.0000 H   0  0  0  0  0  0  0  0  0  0  0  0
    9.8663   -8.0987    0.0000 C   0  0  0  0  0  0  0  0  0  0  0  0
    5.2775  -10.8757    0.0000 C   0  0  0  0  0  0  0  0  0  0  0  0
    5.5795  -10.5737    0.0000 H   0  0  0  0  0  0  0  0  0  0  0  0
    6.2940   -9.3362    0.0000 H   0  0  0  0  0  0  0  0  0  0  0  0
    7.7229   -9.3362    0.0000 C   0  0  0  0  0  0  0  0  0  0  0  0
    8.0249   -5.7343    0.0000 O   0  0  0  0  0  0  0  0  0  0  0  0
   10.5808   -7.6863    0.0000 O   0  0  0  0  0  0  0  0  0  0  0  0
    9.8663   -8.9238    0.0000 O   0  0  0  0  0  0  0  0  0  0  0  0
    9.4538   -9.6382    0.0000 C   0  0  2  0  0  0  0  0  0  0  0  0
    8.6288   -9.6382    0.0000 O   0  0  0  0  0  0  0  0  0  0  0  0
    8.2163  -10.3527    0.0000 C   0  0  1  0  0  0  0  0  0  0  0  0
    8.6288  -11.0672    0.0000 C   0  0  2  0  0  0  0  0  0  0  0  0
    9.4538  -11.0672    0.0000 C   0  0  1  0  0  0  0  0  0  0  0  0
    9.8663  -10.3527    0.0000 C   0  0  1  0  0  0  0  0  0  0  0  0
    7.3913  -10.3527    0.0000 C   0  0  0  0  0  0  0  0  0  0  0  0
    9.8663  -11.7816    0.0000 O   0  0  0  0  0  0  0  0  0  0  0  0
    8.2163  -11.7816    0.0000 O   0  0  0  0  0  0  0  0  0  0  0  0
   10.6913  -10.3527    0.0000 O   0  0  0  0  0  0  0  0  0  0  0  0
    6.9788  -11.0672    0.0000 O   0  0  0  0  0  0  0  0  0  0  0  0
    4.8650  -11.5902    0.0000 O   0  0  0  0  0  0  0  0  0  0  0  0
    5.2775  -12.3047    0.0000 C   0  0  0  0  0  0  0  0  0  0  0  0
    4.8650  -13.0191    0.0000 C   0  0  0  0  0  0  0  0  0  0  0  0
    6.1025  -12.3047    0.0000 O   0  0  0  0  0  0  0  0  0  0  0  0
    9.1519   -5.2113    0.0000 C   0  0  0  0  0  0  0  0  0  0  0  0
  1  2  1  0  0  0  0
  2  3  1  0  0  0  0
  3  4  1  0  0  0  0
  4  5  1  0  0  0  0
  5  6  1  0  0  0  0
  6  1  1  0  0  0  0
  4  7  1  0  0  0  0
  7  8  1  0  0  0  0
  8  9  1  0  0  0  0
  9 10  1  0  0  0  0
 10  5  1  0  0  0  0
  9 11  1  0  0  0  0
 11 12  1  0  0  0  0
 12 13  2  0  0  0  0
 13 14  1  0  0  0  0
 14 10  1  0  0  0  0
 11 15  1  0  0  0  0
 15 16  1  0  0  0  0
 16 17  1  0  0  0  0
 17 18  1  0  0  0  0
 18 12  1  0  0  0  0
 17 19  1  0  0  0  0
 19 20  1  0  0  0  0
 20 21  1  0  0  0  0
 21 22  1  0  0  0  0
 22 18  1  0  0  0  0
  2 23  1  1  0  0  0
  3 24  1  1  0  0  0
  5 25  1  1  0  0  0
  9 26  1  1  0  0  0
 22 27  1  1  0  0  0
 18 28  1  1  0  0  0
 17 29  1  1  0  0  0
  3 30  1  6  0  0  0
  4 31  1  6  0  0  0
 10 32  1  6  0  0  0
 11 33  1  6  0  0  0
 22 34  1  6  0  0  0
 29 35  2  0  0  0  0
 29 36  1  0  0  0  0
 37 36  1  1  0  0  0
 37 38  1  0  0  0  0
 38 39  1  0  0  0  0
 39 40  1  0  0  0  0
 40 41  1  0  0  0  0
 41 42  1  0  0  0  0
 42 37  1  0  0  0  0
 39 43  1  1  0  0  0
 41 44  1  1  0  0  0
 40 45  1  6  0  0  0
 42 46  1  6  0  0  0
 43 47  1  0  0  0  0
 30 48  1  0  0  0  0
 48 49  1  0  0  0  0
 49 50  1  0  0  0  0
 49 51  2  0  0  0  0
 21 52  1  6  0  0  0
M  END
>  <cdx:fragmentId>
5

$$$$
