93525.cdx
  Mrv1902 05222410282D          

 60 66  0  0  0  0            999 V2000
    5.5943   -8.6487    0.0000 C   0  0  0  0  0  0  0  0  0  0  0  0
    5.5943   -9.4738    0.0000 C   0  0  1  0  0  0  0  0  0  0  0  0
    6.3088   -9.8863    0.0000 C   0  0  1  0  0  0  0  0  0  0  0  0
    7.0232   -9.4738    0.0000 C   0  0  1  0  0  0  0  0  0  0  0  0
    7.0232   -8.6487    0.0000 C   0  0  2  0  0  0  0  0  0  0  0  0
    6.3088   -8.2363    0.0000 C   0  0  0  0  0  0  0  0  0  0  0  0
    7.7377   -9.8863    0.0000 C   0  0  0  0  0  0  0  0  0  0  0  0
    8.4522   -9.4738    0.0000 C   0  0  0  0  0  0  0  0  0  0  0  0
    8.4522   -8.6487    0.0000 C   0  0  2  0  0  0  0  0  0  0  0  0
    7.7377   -8.2363    0.0000 C   0  0  2  0  0  0  0  0  0  0  0  0
    9.1667   -8.2363    0.0000 C   0  0  1  0  0  0  0  0  0  0  0  0
    9.1667   -7.4112    0.0000 C   0  0  0  0  0  0  0  0  0  0  0  0
    8.4522   -6.9988    0.0000 C   0  0  0  0  0  0  0  0  0  0  0  0
    7.7377   -7.4112    0.0000 C   0  0  0  0  0  0  0  0  0  0  0  0
    9.8811   -8.6487    0.0000 C   0  0  0  0  0  0  0  0  0  0  0  0
   10.5956   -8.2363    0.0000 C   0  0  0  0  0  0  0  0  0  0  0  0
   10.5956   -7.4112    0.0000 C   0  0  2  0  0  0  0  0  0  0  0  0
    9.8811   -6.9988    0.0000 C   0  0  1  0  0  0  0  0  0  0  0  0
   11.3101   -6.9988    0.0000 C   0  0  0  0  0  0  0  0  0  0  0  0
   11.3101   -6.1737    0.0000 C   0  0  0  0  0  0  0  0  0  0  0  0
   10.5956   -5.7612    0.0000 C   0  0  2  0  0  0  0  0  0  0  0  0
    9.8811   -6.1737    0.0000 C   0  0  2  0  0  0  0  0  0  0  0  0
    4.8798   -9.8863    0.0000 O   0  0  0  0  0  0  0  0  0  0  0  0
    5.8963  -10.6007    0.0000 C   0  0  0  0  0  0  0  0  0  0  0  0
    7.0232   -7.8237    0.0000 C   0  0  0  0  0  0  0  0  0  0  0  0
    8.4522   -7.8237    0.0000 C   0  0  0  0  0  0  0  0  0  0  0  0
    9.0561   -6.1737    0.0000 C   0  0  0  0  0  0  0  0  0  0  0  0
    9.8811   -7.8237    0.0000 H   0  0  0  0  0  0  0  0  0  0  0  0
   11.3101   -7.8237    0.0000 C   0  0  0  0  0  0  0  0  0  0  0  0
    6.7213  -10.6007    0.0000 C   0  0  0  0  0  0  0  0  0  0  0  0
    7.0232  -10.2988    0.0000 H   0  0  0  0  0  0  0  0  0  0  0  0
    7.7377   -9.0613    0.0000 H   0  0  0  0  0  0  0  0  0  0  0  0
    9.1667   -9.0613    0.0000 C   0  0  0  0  0  0  0  0  0  0  0  0
    9.4686   -5.4593    0.0000 O   0  0  0  0  0  0  0  0  0  0  0  0
   12.0245   -7.4112    0.0000 O   0  0  0  0  0  0  0  0  0  0  0  0
   11.3101   -8.6487    0.0000 O   0  0  0  0  0  0  0  0  0  0  0  0
   10.8976   -9.3632    0.0000 C   0  0  2  0  0  0  0  0  0  0  0  0
   10.0726   -9.3632    0.0000 O   0  0  0  0  0  0  0  0  0  0  0  0
    9.6601  -10.0777    0.0000 C   0  0  1  0  0  0  0  0  0  0  0  0
   10.0726  -10.7922    0.0000 C   0  0  2  0  0  0  0  0  0  0  0  0
   10.8976  -10.7922    0.0000 C   0  0  1  0  0  0  0  0  0  0  0  0
   11.3101  -10.0777    0.0000 C   0  0  1  0  0  0  0  0  0  0  0  0
    8.8351  -10.0777    0.0000 C   0  0  0  0  0  0  0  0  0  0  0  0
   11.3101  -11.5066    0.0000 O   0  0  0  0  0  0  0  0  0  0  0  0
    9.6601  -11.5066    0.0000 O   0  0  0  0  0  0  0  0  0  0  0  0
   12.1351  -10.0777    0.0000 O   0  0  0  0  0  0  0  0  0  0  0  0
    8.4226  -10.7922    0.0000 O   0  0  0  0  0  0  0  0  0  0  0  0
    6.3088  -11.3152    0.0000 O   0  0  0  0  0  0  0  0  0  0  0  0
   10.5956   -4.9363    0.0000 C   0  0  0  0  0  0  0  0  0  0  0  0
    4.1654  -10.2988    0.0000 C   0  0  1  0  0  0  0  0  0  0  0  0
    3.4509   -9.8862    0.0000 O   0  0  0  0  0  0  0  0  0  0  0  0
    2.7364  -10.2988    0.0000 C   0  0  1  0  0  0  0  0  0  0  0  0
    2.7364  -11.1237    0.0000 C   0  0  2  0  0  0  0  0  0  0  0  0
    3.4509  -11.5362    0.0000 C   0  0  1  0  0  0  0  0  0  0  0  0
    4.1654  -11.1237    0.0000 C   0  0  1  0  0  0  0  0  0  0  0  0
    2.0219   -9.8863    0.0000 C   0  0  0  0  0  0  0  0  0  0  0  0
    3.4509  -12.3613    0.0000 O   0  0  0  0  0  0  0  0  0  0  0  0
    2.0219  -11.5362    0.0000 O   0  0  0  0  0  0  0  0  0  0  0  0
    4.8798  -11.5362    0.0000 O   0  0  0  0  0  0  0  0  0  0  0  0
    2.0219   -9.0613    0.0000 O   0  0  0  0  0  0  0  0  0  0  0  0
  1  2  1  0  0  0  0
  2  3  1  0  0  0  0
  3  4  1  0  0  0  0
  4  5  1  0  0  0  0
  5  6  1  0  0  0  0
  6  1  1  0  0  0  0
  4  7  1  0  0  0  0
  7  8  1  0  0  0  0
  8  9  1  0  0  0  0
  9 10  1  0  0  0  0
 10  5  1  0  0  0  0
  9 11  1  0  0  0  0
 11 12  1  0  0  0  0
 12 13  2  0  0  0  0
 13 14  1  0  0  0  0
 14 10  1  0  0  0  0
 11 15  1  0  0  0  0
 15 16  1  0  0  0  0
 16 17  1  0  0  0  0
 17 18  1  0  0  0  0
 18 12  1  0  0  0  0
 17 19  1  0  0  0  0
 19 20  1  0  0  0  0
 20 21  1  0  0  0  0
 21 22  1  0  0  0  0
 22 18  1  0  0  0  0
  2 23  1  1  0  0  0
  3 24  1  1  0  0  0
  5 25  1  1  0  0  0
  9 26  1  1  0  0  0
 22 27  1  1  0  0  0
 18 28  1  1  0  0  0
 17 29  1  1  0  0  0
  3 30  1  6  0  0  0
  4 31  1  6  0  0  0
 10 32  1  6  0  0  0
 11 33  1  6  0  0  0
 22 34  1  6  0  0  0
 29 35  2  0  0  0  0
 29 36  1  0  0  0  0
 37 36  1  1  0  0  0
 37 38  1  0  0  0  0
 38 39  1  0  0  0  0
 39 40  1  0  0  0  0
 40 41  1  0  0  0  0
 41 42  1  0  0  0  0
 42 37  1  0  0  0  0
 39 43  1  1  0  0  0
 41 44  1  1  0  0  0
 40 45  1  6  0  0  0
 42 46  1  6  0  0  0
 43 47  1  0  0  0  0
 30 48  1  0  0  0  0
 21 49  1  6  0  0  0
 50 23  1  6  0  0  0
 50 51  1  0  0  0  0
 51 52  1  0  0  0  0
 52 53  1  0  0  0  0
 53 54  1  0  0  0  0
 54 55  1  0  0  0  0
 55 50  1  0  0  0  0
 52 56  1  1  0  0  0
 54 57  1  1  0  0  0
 53 58  1  6  0  0  0
 55 59  1  6  0  0  0
 56 60  1  0  0  0  0
M  END
>  <cdx:fragmentId>
5

$$$$
