93528.cdx
  Mrv1902 05222410182D          

 51 56  0  0  0  0            999 V2000
    7.1223   -6.5863    0.0000 C   0  0  0  0  0  0  0  0  0  0  0  0
    7.1223   -7.4112    0.0000 C   0  0  1  0  0  0  0  0  0  0  0  0
    7.8368   -7.8237    0.0000 C   0  0  1  0  0  0  0  0  0  0  0  0
    8.5512   -7.4112    0.0000 C   0  0  1  0  0  0  0  0  0  0  0  0
    8.5512   -6.5863    0.0000 C   0  0  2  0  0  0  0  0  0  0  0  0
    7.8368   -6.1737    0.0000 C   0  0  0  0  0  0  0  0  0  0  0  0
    9.2657   -7.8237    0.0000 C   0  0  0  0  0  0  0  0  0  0  0  0
    9.9802   -7.4112    0.0000 C   0  0  0  0  0  0  0  0  0  0  0  0
    9.9802   -6.5863    0.0000 C   0  0  2  0  0  0  0  0  0  0  0  0
    9.2657   -6.1737    0.0000 C   0  0  2  0  0  0  0  0  0  0  0  0
   10.6946   -6.1737    0.0000 C   0  0  1  0  0  0  0  0  0  0  0  0
   10.6946   -5.3487    0.0000 C   0  0  0  0  0  0  0  0  0  0  0  0
    9.9802   -4.9363    0.0000 C   0  0  0  0  0  0  0  0  0  0  0  0
    9.2657   -5.3487    0.0000 C   0  0  0  0  0  0  0  0  0  0  0  0
   11.4091   -6.5863    0.0000 C   0  0  0  0  0  0  0  0  0  0  0  0
   12.1236   -6.1737    0.0000 C   0  0  0  0  0  0  0  0  0  0  0  0
   12.1236   -5.3487    0.0000 C   0  0  2  0  0  0  0  0  0  0  0  0
   11.4091   -4.9363    0.0000 C   0  0  1  0  0  0  0  0  0  0  0  0
   12.8381   -4.9363    0.0000 C   0  0  0  0  0  0  0  0  0  0  0  0
   12.8381   -4.1113    0.0000 C   0  0  0  0  0  0  0  0  0  0  0  0
   12.1236   -3.6988    0.0000 C   0  0  1  0  0  0  0  0  0  0  0  0
   11.4091   -4.1113    0.0000 C   0  0  1  0  0  0  0  0  0  0  0  0
    6.4078   -7.8237    0.0000 O   0  0  0  0  0  0  0  0  0  0  0  0
    7.4243   -8.5382    0.0000 C   0  0  0  0  0  0  0  0  0  0  0  0
    8.5512   -5.7612    0.0000 C   0  0  0  0  0  0  0  0  0  0  0  0
    9.9802   -5.7612    0.0000 C   0  0  0  0  0  0  0  0  0  0  0  0
   11.4091   -5.7612    0.0000 H   0  0  0  0  0  0  0  0  0  0  0  0
   12.8381   -5.7612    0.0000 C   0  0  0  0  0  0  0  0  0  0  0  0
    8.2493   -8.5382    0.0000 C   0  0  0  0  0  0  0  0  0  0  0  0
    8.5512   -8.2363    0.0000 H   0  0  0  0  0  0  0  0  0  0  0  0
    9.2657   -6.9988    0.0000 H   0  0  0  0  0  0  0  0  0  0  0  0
   10.6946   -6.9988    0.0000 C   0  0  0  0  0  0  0  0  0  0  0  0
   13.5525   -5.3487    0.0000 O   0  0  0  0  0  0  0  0  0  0  0  0
   12.8381   -6.5863    0.0000 O   0  0  0  0  0  0  0  0  0  0  0  0
   11.7111   -2.9843    0.0000 C   0  0  0  0  0  0  0  0  0  0  0  0
   10.6946   -3.6988    0.0000 O   0  0  0  0  0  0  0  0  0  0  0  0
   12.5361   -2.9843    0.0000 C   0  0  0  0  0  0  0  0  0  0  0  0
    9.0743   -8.5382    0.0000 O   0  0  0  0  0  0  0  0  0  0  0  0
    5.6933   -8.2363    0.0000 C   0  0  2  0  0  0  0  0  0  0  0  0
    4.9789   -7.8237    0.0000 O   0  0  0  0  0  0  0  0  0  0  0  0
    4.2644   -8.2363    0.0000 C   0  0  1  0  0  0  0  0  0  0  0  0
    4.2644   -9.0613    0.0000 C   0  0  2  0  0  0  0  0  0  0  0  0
    4.9789   -9.4737    0.0000 C   0  0  1  0  0  0  0  0  0  0  0  0
    5.6933   -9.0613    0.0000 C   0  0  1  0  0  0  0  0  0  0  0  0
    3.5499   -7.8237    0.0000 C   0  0  0  0  0  0  0  0  0  0  0  0
    4.9789  -10.2987    0.0000 O   0  0  0  0  0  0  0  0  0  0  0  0
    3.5499   -9.4738    0.0000 O   0  0  0  0  0  0  0  0  0  0  0  0
    6.4078   -9.4738    0.0000 O   0  0  0  0  0  0  0  0  0  0  0  0
    2.8355   -8.2363    0.0000 O   0  0  0  0  0  0  0  0  0  0  0  0
    3.5499   -6.9988    0.0000 O   0  0  0  0  0  0  0  0  0  0  0  0
    2.1210   -7.8237    0.0000 C   0  0  0  0  0  0  0  0  0  0  0  0
  1  2  1  0  0  0  0
  2  3  1  0  0  0  0
  3  4  1  0  0  0  0
  4  5  1  0  0  0  0
  5  6  1  0  0  0  0
  6  1  1  0  0  0  0
  4  7  1  0  0  0  0
  7  8  1  0  0  0  0
  8  9  1  0  0  0  0
  9 10  1  0  0  0  0
 10  5  1  0  0  0  0
  9 11  1  0  0  0  0
 11 12  1  0  0  0  0
 12 13  2  0  0  0  0
 13 14  1  0  0  0  0
 14 10  1  0  0  0  0
 11 15  1  0  0  0  0
 15 16  1  0  0  0  0
 16 17  1  0  0  0  0
 17 18  1  0  0  0  0
 18 12  1  0  0  0  0
 17 19  1  0  0  0  0
 19 20  1  0  0  0  0
 20 21  1  0  0  0  0
 21 22  1  0  0  0  0
 22 18  1  0  0  0  0
  2 23  1  1  0  0  0
  3 24  1  1  0  0  0
  5 25  1  1  0  0  0
  9 26  1  1  0  0  0
 18 27  1  1  0  0  0
 17 28  1  1  0  0  0
  3 29  1  6  0  0  0
  4 30  1  6  0  0  0
 10 31  1  6  0  0  0
 11 32  1  6  0  0  0
 28 33  2  0  0  0  0
 28 34  1  0  0  0  0
 21 35  1  1  0  0  0
 22 36  1  6  0  0  0
 21 37  1  6  0  0  0
 29 38  1  0  0  0  0
 39 23  1  1  0  0  0
 39 40  1  0  0  0  0
 40 41  1  0  0  0  0
 41 42  1  0  0  0  0
 42 43  1  0  0  0  0
 43 44  1  0  0  0  0
 44 39  1  0  0  0  0
 41 45  1  1  0  0  0
 43 46  1  1  0  0  0
 42 47  1  6  0  0  0
 44 48  1  6  0  0  0
 45 49  1  0  0  0  0
 45 50  2  0  0  0  0
 49 51  1  0  0  0  0
M  END
>  <cdx:fragmentId>
5

$$$$
