93521.cdx
  Mrv1902 05222410262D          

 76 84  0  0  0  0            999 V2000
    5.7593   -6.7237    0.0000 C   0  0  0  0  0  0  0  0  0  0  0  0
    5.7593   -7.5488    0.0000 C   0  0  1  0  0  0  0  0  0  0  0  0
    6.4738   -7.9612    0.0000 C   0  0  1  0  0  0  0  0  0  0  0  0
    7.1882   -7.5488    0.0000 C   0  0  0  0  0  0  0  0  0  0  0  0
    7.1882   -6.7237    0.0000 C   0  0  2  0  0  0  0  0  0  0  0  0
    6.4738   -6.3113    0.0000 C   0  0  0  0  0  0  0  0  0  0  0  0
    7.9027   -7.9612    0.0000 C   0  0  0  0  0  0  0  0  0  0  0  0
    8.6172   -7.5488    0.0000 C   0  0  0  0  0  0  0  0  0  0  0  0
    8.6172   -6.7237    0.0000 C   0  0  2  0  0  0  0  0  0  0  0  0
    7.9027   -6.3113    0.0000 C   0  0  0  0  0  0  0  0  0  0  0  0
    9.3317   -6.3113    0.0000 C   0  0  1  0  0  0  0  0  0  0  0  0
    9.3317   -5.4863    0.0000 C   0  0  0  0  0  0  0  0  0  0  0  0
    8.6172   -5.0737    0.0000 C   0  0  0  0  0  0  0  0  0  0  0  0
    7.9027   -5.4863    0.0000 C   0  0  0  0  0  0  0  0  0  0  0  0
   10.0461   -6.7237    0.0000 C   0  0  0  0  0  0  0  0  0  0  0  0
   10.7606   -6.3113    0.0000 C   0  0  0  0  0  0  0  0  0  0  0  0
   10.7606   -5.4863    0.0000 C   0  0  2  0  0  0  0  0  0  0  0  0
   10.0461   -5.0737    0.0000 C   0  0  0  0  0  0  0  0  0  0  0  0
   11.4751   -5.0737    0.0000 C   0  0  0  0  0  0  0  0  0  0  0  0
   11.4751   -4.2488    0.0000 C   0  0  2  0  0  0  0  0  0  0  0  0
   10.7606   -3.8363    0.0000 C   0  0  1  0  0  0  0  0  0  0  0  0
   10.0461   -4.2488    0.0000 C   0  0  2  0  0  0  0  0  0  0  0  0
    5.0448   -7.9612    0.0000 O   0  0  0  0  0  0  0  0  0  0  0  0
    6.0613   -8.6757    0.0000 C   0  0  0  0  0  0  0  0  0  0  0  0
    7.1882   -5.8988    0.0000 C   0  0  0  0  0  0  0  0  0  0  0  0
    8.6172   -5.8988    0.0000 C   0  0  0  0  0  0  0  0  0  0  0  0
   11.4751   -5.8988    0.0000 C   0  0  0  0  0  0  0  0  0  0  0  0
    9.4628   -3.6654    0.0000 C   0  0  0  0  0  0  0  0  0  0  0  0
    9.2492   -4.4623    0.0000 O   0  0  0  0  0  0  0  0  0  0  0  0
    9.3317   -7.1362    0.0000 C   0  0  0  0  0  0  0  0  0  0  0  0
    6.8863   -8.6757    0.0000 C   0  0  0  0  0  0  0  0  0  0  0  0
   12.1895   -5.4863    0.0000 O   0  0  0  0  0  0  0  0  0  0  0  0
   11.4751   -6.7237    0.0000 O   0  0  0  0  0  0  0  0  0  0  0  0
   11.4751   -7.5488    0.0000 C   0  0  2  0  0  0  0  0  0  0  0  0
   10.7606   -7.9612    0.0000 O   0  0  0  0  0  0  0  0  0  0  0  0
   10.7606   -8.7862    0.0000 C   0  0  1  0  0  0  0  0  0  0  0  0
   11.4751   -9.1987    0.0000 C   0  0  2  0  0  0  0  0  0  0  0  0
   12.1895   -8.7862    0.0000 C   0  0  1  0  0  0  0  0  0  0  0  0
   12.1895   -7.9612    0.0000 C   0  0  1  0  0  0  0  0  0  0  0  0
   10.0461   -9.1987    0.0000 C   0  0  0  0  0  0  0  0  0  0  0  0
   12.9040   -9.1987    0.0000 O   0  0  0  0  0  0  0  0  0  0  0  0
   12.9040   -7.5488    0.0000 O   0  0  0  0  0  0  0  0  0  0  0  0
   11.4751  -10.0238    0.0000 O   0  0  0  0  0  0  0  0  0  0  0  0
   10.0461  -10.0238    0.0000 O   0  0  0  0  0  0  0  0  0  0  0  0
    4.3304   -8.3737    0.0000 C   0  0  2  0  0  0  0  0  0  0  0  0
    3.6159   -7.9612    0.0000 O   0  0  0  0  0  0  0  0  0  0  0  0
    2.9014   -8.3737    0.0000 C   0  0  0  0  0  0  0  0  0  0  0  0
    2.9014   -9.1987    0.0000 C   0  0  1  0  0  0  0  0  0  0  0  0
    3.6159   -9.6112    0.0000 C   0  0  1  0  0  0  0  0  0  0  0  0
    4.3304   -9.1987    0.0000 C   0  0  1  0  0  0  0  0  0  0  0  0
    3.6159  -10.4362    0.0000 O   0  0  0  0  0  0  0  0  0  0  0  0
    2.1869   -9.6112    0.0000 O   0  0  0  0  0  0  0  0  0  0  0  0
    5.0448   -9.6112    0.0000 O   0  0  0  0  0  0  0  0  0  0  0  0
    5.0448  -10.4363    0.0000 C   0  0  2  0  0  0  0  0  0  0  0  0
    4.3304  -10.8488    0.0000 O   0  0  0  0  0  0  0  0  0  0  0  0
    4.3304  -11.6738    0.0000 C   0  0  1  0  0  0  0  0  0  0  0  0
    5.0448  -12.0862    0.0000 C   0  0  2  0  0  0  0  0  0  0  0  0
    5.7593  -11.6738    0.0000 C   0  0  1  0  0  0  0  0  0  0  0  0
    5.7593  -10.8488    0.0000 C   0  0  1  0  0  0  0  0  0  0  0  0
    3.6159  -12.0862    0.0000 C   0  0  0  0  0  0  0  0  0  0  0  0
    6.4738  -12.0862    0.0000 O   0  0  0  0  0  0  0  0  0  0  0  0
    6.4738  -10.4363    0.0000 O   0  0  0  0  0  0  0  0  0  0  0  0
    5.0448  -12.9112    0.0000 O   0  0  0  0  0  0  0  0  0  0  0  0
    3.6159  -12.9112    0.0000 O   0  0  0  0  0  0  0  0  0  0  0  0
    7.9276  -12.0651    0.0000 C   0  0  1  0  0  0  0  0  0  0  0  0
    8.6355  -11.6415    0.0000 C   0  0  2  0  0  0  0  0  0  0  0  0
    8.6225  -10.8166    0.0000 C   0  0  1  0  0  0  0  0  0  0  0  0
    7.9016  -10.4154    0.0000 C   0  0  2  0  0  0  0  0  0  0  0  0
    7.1937  -10.8390    0.0000 C   0  0  1  0  0  0  0  0  0  0  0  0
    7.2067  -11.6639    0.0000 O   0  0  0  0  0  0  0  0  0  0  0  0
    9.3304  -10.3929    0.0000 O   0  0  0  0  0  0  0  0  0  0  0  0
    7.9405  -12.8900    0.0000 C   0  0  0  0  0  0  0  0  0  0  0  0
    9.3563  -12.0427    0.0000 O   0  0  0  0  0  0  0  0  0  0  0  0
    7.8887   -9.5905    0.0000 O   0  0  0  0  0  0  0  0  0  0  0  0
   12.1895   -3.8363    0.0000 H   0  0  0  0  0  0  0  0  0  0  0  0
   10.7606   -3.0112    0.0000 C   0  0  0  0  0  0  0  0  0  0  0  0
  1  2  1  0  0  0  0
  2  3  1  0  0  0  0
  3  4  1  0  0  0  0
  4  5  1  0  0  0  0
  5  6  1  0  0  0  0
  6  1  1  0  0  0  0
  4  7  1  0  0  0  0
  7  8  1  0  0  0  0
  8  9  1  0  0  0  0
  9 10  1  0  0  0  0
 10  5  1  0  0  0  0
  9 11  1  0  0  0  0
 11 12  1  0  0  0  0
 12 13  2  0  0  0  0
 13 14  1  0  0  0  0
 14 10  1  0  0  0  0
 11 15  1  0  0  0  0
 15 16  1  0  0  0  0
 16 17  1  0  0  0  0
 17 18  1  0  0  0  0
 18 12  1  0  0  0  0
 17 19  1  0  0  0  0
 19 20  1  0  0  0  0
 20 21  1  0  0  0  0
 21 22  1  0  0  0  0
 22 18  1  0  0  0  0
  2 23  1  1  0  0  0
  3 24  1  1  0  0  0
  5 25  1  1  0  0  0
  9 26  1  1  0  0  0
 17 27  1  1  0  0  0
 22 28  1  0  0  0  0
 22 29  1  6  0  0  0
 11 30  1  6  0  0  0
  3 31  1  6  0  0  0
 27 32  2  0  0  0  0
 27 33  1  0  0  0  0
 34 33  1  1  0  0  0
 34 35  1  0  0  0  0
 35 36  1  0  0  0  0
 36 37  1  0  0  0  0
 37 38  1  0  0  0  0
 38 39  1  0  0  0  0
 39 34  1  0  0  0  0
 36 40  1  1  0  0  0
 38 41  1  1  0  0  0
 39 42  1  6  0  0  0
 37 43  1  6  0  0  0
 40 44  1  0  0  0  0
 45 23  1  1  0  0  0
 45 46  1  0  0  0  0
 46 47  1  0  0  0  0
 47 48  1  0  0  0  0
 48 49  1  0  0  0  0
 49 50  1  0  0  0  0
 50 45  1  0  0  0  0
 49 51  1  1  0  0  0
 48 52  1  1  0  0  0
 50 53  1  6  0  0  0
 54 53  1  1  0  0  0
 54 55  1  0  0  0  0
 55 56  1  0  0  0  0
 56 57  1  0  0  0  0
 57 58  1  0  0  0  0
 58 59  1  0  0  0  0
 59 54  1  0  0  0  0
 56 60  1  1  0  0  0
 58 61  1  1  0  0  0
 59 62  1  6  0  0  0
 57 63  1  6  0  0  0
 60 64  1  0  0  0  0
 65 66  1  0  0  0  0
 66 67  1  0  0  0  0
 67 68  1  0  0  0  0
 68 69  1  0  0  0  0
 69 70  1  0  0  0  0
 70 65  1  0  0  0  0
 67 71  1  1  0  0  0
 65 72  1  6  0  0  0
 66 73  1  6  0  0  0
 68 74  1  6  0  0  0
 69 62  1  1  0  0  0
 20 75  1  1  0  0  0
 21 76  1  1  0  0  0
M  END
>  <cdx:fragmentId>
5

$$$$
