93522.cdx
  Mrv1902 05222410272D          

 39 43  0  0  0  0            999 V2000
    3.1606   -7.9750    0.0000 C   0  0  0  0  0  0  0  0  0  0  0  0
    3.1606   -8.8000    0.0000 C   0  0  0  0  0  0  0  0  0  0  0  0
    3.8750   -9.2125    0.0000 C   0  0  1  0  0  0  0  0  0  0  0  0
    4.5895   -8.8000    0.0000 C   0  0  1  0  0  0  0  0  0  0  0  0
    4.5895   -7.9750    0.0000 C   0  0  2  0  0  0  0  0  0  0  0  0
    3.8750   -7.5625    0.0000 C   0  0  0  0  0  0  0  0  0  0  0  0
    5.3040   -9.2125    0.0000 C   0  0  0  0  0  0  0  0  0  0  0  0
    6.0184   -8.8000    0.0000 C   0  0  0  0  0  0  0  0  0  0  0  0
    6.0184   -7.9750    0.0000 C   0  0  2  0  0  0  0  0  0  0  0  0
    5.3040   -7.5625    0.0000 C   0  0  2  0  0  0  0  0  0  0  0  0
    6.7329   -7.5625    0.0000 C   0  0  1  0  0  0  0  0  0  0  0  0
    6.7329   -6.7375    0.0000 C   0  0  0  0  0  0  0  0  0  0  0  0
    6.0184   -6.3250    0.0000 C   0  0  0  0  0  0  0  0  0  0  0  0
    5.3040   -6.7375    0.0000 C   0  0  0  0  0  0  0  0  0  0  0  0
    7.4474   -7.9750    0.0000 C   0  0  0  0  0  0  0  0  0  0  0  0
    8.1619   -7.5625    0.0000 C   0  0  0  0  0  0  0  0  0  0  0  0
    8.1619   -6.7375    0.0000 C   0  0  2  0  0  0  0  0  0  0  0  0
    7.4474   -6.3250    0.0000 C   0  0  1  0  0  0  0  0  0  0  0  0
    8.8763   -6.3250    0.0000 C   0  0  0  0  0  0  0  0  0  0  0  0
    8.8763   -5.5000    0.0000 C   0  0  0  0  0  0  0  0  0  0  0  0
    8.1619   -5.0875    0.0000 C   0  0  2  0  0  0  0  0  0  0  0  0
    7.4474   -5.5000    0.0000 C   0  0  2  0  0  0  0  0  0  0  0  0
    6.6224   -5.5000    0.0000 C   0  0  0  0  0  0  0  0  0  0  0  0
    7.4474   -7.1500    0.0000 H   0  0  0  0  0  0  0  0  0  0  0  0
    8.8763   -7.1500    0.0000 C   0  0  0  0  0  0  0  0  0  0  0  0
    9.5908   -6.7375    0.0000 O   0  0  0  0  0  0  0  0  0  0  0  0
    8.8763   -7.9750    0.0000 O   0  0  0  0  0  0  0  0  0  0  0  0
    6.0184   -7.1500    0.0000 C   0  0  0  0  0  0  0  0  0  0  0  0
    4.5895   -7.1500    0.0000 C   0  0  0  0  0  0  0  0  0  0  0  0
    3.4625   -9.9270    0.0000 C   0  0  0  0  0  0  0  0  0  0  0  0
    4.2875   -9.9270    0.0000 C   0  0  0  0  0  0  0  0  0  0  0  0
    4.5895   -9.6250    0.0000 H   0  0  0  0  0  0  0  0  0  0  0  0
    6.7329   -8.3875    0.0000 C   0  0  0  0  0  0  0  0  0  0  0  0
    7.2339   -4.7031    0.0000 O   0  0  0  0  0  0  0  0  0  0  0  0
    8.1619   -4.2625    0.0000 C   0  0  0  0  0  0  0  0  0  0  0  0
    2.4461   -9.2125    0.0000 O   0  0  0  0  0  0  0  0  0  0  0  0
    4.5895   -6.3250    0.0000 O   0  0  0  0  0  0  0  0  0  0  0  0
    5.1125  -10.0238    0.0000 O   0  0  0  0  0  0  0  0  0  0  0  0
    5.3040   -8.3875    0.0000 H   0  0  0  0  0  0  0  0  0  0  0  0
  1  2  1  0  0  0  0
  2  3  1  0  0  0  0
  3  4  1  0  0  0  0
  4  5  1  0  0  0  0
  5  6  1  0  0  0  0
  6  1  1  0  0  0  0
  4  7  1  0  0  0  0
  7  8  1  0  0  0  0
  8  9  1  0  0  0  0
  9 10  1  0  0  0  0
 10  5  1  0  0  0  0
  9 11  1  0  0  0  0
 11 12  1  0  0  0  0
 12 13  2  0  0  0  0
 13 14  1  0  0  0  0
 14 10  1  0  0  0  0
 11 15  1  0  0  0  0
 15 16  1  0  0  0  0
 16 17  1  0  0  0  0
 17 18  1  0  0  0  0
 18 12  1  0  0  0  0
 17 19  1  0  0  0  0
 19 20  1  0  0  0  0
 20 21  1  0  0  0  0
 21 22  1  0  0  0  0
 22 18  1  0  0  0  0
 22 23  1  1  0  0  0
 18 24  1  1  0  0  0
 17 25  1  1  0  0  0
  9 28  1  1  0  0  0
  5 29  1  1  0  0  0
  3 30  1  1  0  0  0
  3 31  1  6  0  0  0
  4 32  1  6  0  0  0
 11 33  1  6  0  0  0
 22 34  1  6  0  0  0
 21 35  1  6  0  0  0
  2 36  2  0  0  0  0
 14 37  2  0  0  0  0
 10 39  1  6  0  0  0
 31 38  1  0  0  0  0
 25 26  2  0  0  0  0
 25 27  1  0  0  0  0
M  STY  1   1 SUP
M  SAL   1  3  25  26  27
M  SBL   1  1  29
M  SMT   1 COOH
M  SAP   1  1  25  17  1
M  END
>  <cdx:fragmentId>
5

$$$$
