93523.cdx
  Mrv1902 05222410262D          

 75 83  0  0  0  0            999 V2000
    6.8731   -7.4387    0.0000 O   0  0  0  0  0  0  0  0  0  0  0  0
    6.8731   -8.2637    0.0000 C   0  0  1  0  0  0  0  0  0  0  0  0
    7.5875   -8.6762    0.0000 O   0  0  0  0  0  0  0  0  0  0  0  0
    8.3020   -8.2637    0.0000 C   0  0  0  0  0  0  0  0  0  0  0  0
    8.3020   -7.4387    0.0000 C   0  0  2  0  0  0  0  0  0  0  0  0
    7.5875   -7.0263    0.0000 C   0  0  2  0  0  0  0  0  0  0  0  0
    9.0165   -7.0263    0.0000 C   0  0  1  0  0  0  0  0  0  0  0  0
    9.0165   -6.2012    0.0000 C   0  0  2  0  0  0  0  0  0  0  0  0
    8.3020   -5.7888    0.0000 C   0  0  0  0  0  0  0  0  0  0  0  0
    7.5875   -6.2012    0.0000 C   0  0  0  0  0  0  0  0  0  0  0  0
    9.7309   -7.4387    0.0000 C   0  0  0  0  0  0  0  0  0  0  0  0
   10.4454   -7.0263    0.0000 C   0  0  0  0  0  0  0  0  0  0  0  0
   10.4454   -6.2012    0.0000 C   0  0  2  0  0  0  0  0  0  0  0  0
    9.7309   -5.7888    0.0000 C   0  0  2  0  0  0  0  0  0  0  0  0
   11.1599   -5.7888    0.0000 C   0  0  1  0  0  0  0  0  0  0  0  0
   11.1599   -4.9637    0.0000 C   0  0  0  0  0  0  0  0  0  0  0  0
   10.4454   -4.5512    0.0000 C   0  0  0  0  0  0  0  0  0  0  0  0
    9.7309   -4.9637    0.0000 C   0  0  0  0  0  0  0  0  0  0  0  0
   11.8744   -6.2012    0.0000 C   0  0  0  0  0  0  0  0  0  0  0  0
   12.5888   -5.7888    0.0000 C   0  0  0  0  0  0  0  0  0  0  0  0
   12.5888   -4.9637    0.0000 C   0  0  2  0  0  0  0  0  0  0  0  0
   11.8744   -4.5512    0.0000 C   0  0  1  0  0  0  0  0  0  0  0  0
   13.3033   -4.5512    0.0000 C   0  0  0  0  0  0  0  0  0  0  0  0
   13.3033   -3.7262    0.0000 C   0  0  0  0  0  0  0  0  0  0  0  0
   12.5888   -3.3138    0.0000 C   0  0  2  0  0  0  0  0  0  0  0  0
   11.8744   -3.7262    0.0000 C   0  0  1  0  0  0  0  0  0  0  0  0
    6.1586   -8.6762    0.0000 C   0  0  0  0  0  0  0  0  0  0  0  0
    6.1586   -9.5013    0.0000 C   0  0  0  0  0  0  0  0  0  0  0  0
    5.4441   -9.9138    0.0000 C   0  0  0  0  0  0  0  0  0  0  0  0
    4.7296   -9.5013    0.0000 C   0  0  0  0  0  0  0  0  0  0  0  0
    4.0152   -9.9138    0.0000 C   0  0  0  0  0  0  0  0  0  0  0  0
    4.0152  -10.7387    0.0000 C   0  0  0  0  0  0  0  0  0  0  0  0
    4.7296  -11.1513    0.0000 C   0  0  0  0  0  0  0  0  0  0  0  0
    5.4441  -10.7387    0.0000 C   0  0  0  0  0  0  0  0  0  0  0  0
    3.3007   -9.5013    0.0000 O   0  0  0  0  0  0  0  0  0  0  0  0
    3.3007   -8.6762    0.0000 C   0  0  0  0  0  0  0  0  0  0  0  0
    4.7296  -11.9763    0.0000 O   0  0  0  0  0  0  0  0  0  0  0  0
    5.4441  -12.3887    0.0000 C   0  0  0  0  0  0  0  0  0  0  0  0
    3.3007  -11.1513    0.0000 O   0  0  0  0  0  0  0  0  0  0  0  0
    2.5862  -11.5638    0.0000 C   0  0  2  0  0  0  0  0  0  0  0  0
    1.8718  -11.1513    0.0000 O   0  0  0  0  0  0  0  0  0  0  0  0
    1.1573  -11.5638    0.0000 C   0  0  1  0  0  0  0  0  0  0  0  0
    1.1573  -12.3887    0.0000 C   0  0  2  0  0  0  0  0  0  0  0  0
    1.8718  -12.8012    0.0000 C   0  0  1  0  0  0  0  0  0  0  0  0
    2.5862  -12.3887    0.0000 C   0  0  1  0  0  0  0  0  0  0  0  0
    0.4428  -11.1513    0.0000 C   0  0  0  0  0  0  0  0  0  0  0  0
    1.8718  -13.6262    0.0000 O   0  0  0  0  0  0  0  0  0  0  0  0
    0.4428  -12.8012    0.0000 O   0  0  0  0  0  0  0  0  0  0  0  0
    3.3007  -12.8012    0.0000 O   0  0  0  0  0  0  0  0  0  0  0  0
    0.4428  -10.3262    0.0000 O   0  0  0  0  0  0  0  0  0  0  0  0
    6.1586   -7.8513    0.0000 H   0  0  0  0  0  0  0  0  0  0  0  0
    9.5998   -7.6096    0.0000 H   0  0  0  0  0  0  0  0  0  0  0  0
    9.7309   -6.6137    0.0000 H   0  0  0  0  0  0  0  0  0  0  0  0
   11.1599   -6.6137    0.0000 C   0  0  0  0  0  0  0  0  0  0  0  0
   11.8744   -2.9013    0.0000 O   0  0  0  0  0  0  0  0  0  0  0  0
   12.5888   -2.4888    0.0000 C   0  0  0  0  0  0  0  0  0  0  0  0
    8.7145   -8.1532    0.0000 C   0  0  0  0  0  0  0  0  0  0  0  0
    9.0165   -5.3763    0.0000 C   0  0  0  0  0  0  0  0  0  0  0  0
   10.4454   -5.3763    0.0000 C   0  0  0  0  0  0  0  0  0  0  0  0
   11.8744   -5.3763    0.0000 H   0  0  0  0  0  0  0  0  0  0  0  0
   11.0775   -3.5127    0.0000 C   0  0  0  0  0  0  0  0  0  0  0  0
   13.3033   -5.3763    0.0000 C   0  0  0  0  0  0  0  0  0  0  0  0
   14.0178   -4.9637    0.0000 O   0  0  0  0  0  0  0  0  0  0  0  0
   13.3033   -6.2012    0.0000 O   0  0  0  0  0  0  0  0  0  0  0  0
   12.8908   -6.9157    0.0000 C   0  0  2  0  0  0  0  0  0  0  0  0
   12.0658   -6.9157    0.0000 O   0  0  0  0  0  0  0  0  0  0  0  0
   11.6533   -7.6302    0.0000 C   0  0  1  0  0  0  0  0  0  0  0  0
   12.0658   -8.3447    0.0000 C   0  0  2  0  0  0  0  0  0  0  0  0
   12.8908   -8.3447    0.0000 C   0  0  1  0  0  0  0  0  0  0  0  0
   13.3033   -7.6302    0.0000 C   0  0  1  0  0  0  0  0  0  0  0  0
   10.8283   -7.6302    0.0000 C   0  0  0  0  0  0  0  0  0  0  0  0
   13.3033   -9.0591    0.0000 O   0  0  0  0  0  0  0  0  0  0  0  0
   14.1283   -7.6302    0.0000 O   0  0  0  0  0  0  0  0  0  0  0  0
   11.6533   -9.0591    0.0000 O   0  0  0  0  0  0  0  0  0  0  0  0
   10.4158   -8.3447    0.0000 O   0  0  0  0  0  0  0  0  0  0  0  0
  1  2  1  0  0  0  0
  2  3  1  0  0  0  0
  3  4  1  0  0  0  0
  5  4  1  6  0  0  0
  5  6  1  0  0  0  0
  6  1  1  1  0  0  0
  5  7  1  0  0  0  0
  7  8  1  0  0  0  0
  8  9  1  0  0  0  0
  9 10  1  0  0  0  0
 10  6  1  0  0  0  0
  7 11  1  0  0  0  0
 11 12  1  0  0  0  0
 12 13  1  0  0  0  0
 13 14  1  0  0  0  0
 14  8  1  0  0  0  0
 13 15  1  0  0  0  0
 15 16  1  0  0  0  0
 16 17  2  0  0  0  0
 17 18  1  0  0  0  0
 18 14  1  0  0  0  0
 15 19  1  0  0  0  0
 19 20  1  0  0  0  0
 20 21  1  0  0  0  0
 21 22  1  0  0  0  0
 22 16  1  0  0  0  0
 21 23  1  0  0  0  0
 23 24  1  0  0  0  0
 24 25  1  0  0  0  0
 25 26  1  0  0  0  0
 26 22  1  0  0  0  0
  2 27  1  0  0  0  0
 27 28  2  0  0  0  0
 28 29  1  0  0  0  0
 29 30  2  0  0  0  0
 30 31  1  0  0  0  0
 31 32  2  0  0  0  0
 32 33  1  0  0  0  0
 33 34  2  0  0  0  0
 34 29  1  0  0  0  0
 31 35  1  0  0  0  0
 35 36  1  0  0  0  0
 33 37  1  0  0  0  0
 37 38  1  0  0  0  0
 32 39  1  0  0  0  0
 40 39  1  1  0  0  0
 40 41  1  0  0  0  0
 41 42  1  0  0  0  0
 42 43  1  0  0  0  0
 43 44  1  0  0  0  0
 44 45  1  0  0  0  0
 45 40  1  0  0  0  0
 42 46  1  1  0  0  0
 44 47  1  1  0  0  0
 43 48  1  6  0  0  0
 45 49  1  6  0  0  0
 46 50  1  0  0  0  0
  2 51  1  6  0  0  0
  7 52  1  6  0  0  0
 14 53  1  6  0  0  0
 15 54  1  6  0  0  0
 26 55  1  6  0  0  0
 25 56  1  6  0  0  0
  5 57  1  1  0  0  0
  8 58  1  1  0  0  0
 13 59  1  1  0  0  0
 22 60  1  1  0  0  0
 26 61  1  1  0  0  0
 21 62  1  1  0  0  0
 62 63  2  0  0  0  0
 62 64  1  0  0  0  0
 65 64  1  1  0  0  0
 65 66  1  0  0  0  0
 66 67  1  0  0  0  0
 67 68  1  0  0  0  0
 68 69  1  0  0  0  0
 69 70  1  0  0  0  0
 70 65  1  0  0  0  0
 67 71  1  1  0  0  0
 69 72  1  1  0  0  0
 70 73  1  6  0  0  0
 68 74  1  6  0  0  0
 71 75  1  0  0  0  0
M  END
>  <cdx:fragmentId>
5

$$$$
