93526.cdx
  Mrv1902 05222410272D          

 67 74  0  0  0  0            999 V2000
    6.6685   -7.3838    0.0000 C   0  0  0  0  0  0  0  0  0  0  0  0
    6.6685   -8.2088    0.0000 C   0  0  1  0  0  0  0  0  0  0  0  0
    7.3830   -8.6212    0.0000 C   0  0  1  0  0  0  0  0  0  0  0  0
    8.0975   -8.2088    0.0000 C   0  0  1  0  0  0  0  0  0  0  0  0
    8.0975   -7.3838    0.0000 C   0  0  2  0  0  0  0  0  0  0  0  0
    7.3830   -6.9712    0.0000 C   0  0  0  0  0  0  0  0  0  0  0  0
    8.8119   -8.6212    0.0000 C   0  0  0  0  0  0  0  0  0  0  0  0
    9.5264   -8.2088    0.0000 C   0  0  0  0  0  0  0  0  0  0  0  0
    9.5264   -7.3838    0.0000 C   0  0  2  0  0  0  0  0  0  0  0  0
    8.8119   -6.9712    0.0000 C   0  0  2  0  0  0  0  0  0  0  0  0
   10.2409   -6.9712    0.0000 C   0  0  1  0  0  0  0  0  0  0  0  0
   10.2409   -6.1463    0.0000 C   0  0  0  0  0  0  0  0  0  0  0  0
    9.5264   -5.7338    0.0000 C   0  0  0  0  0  0  0  0  0  0  0  0
    8.8119   -6.1463    0.0000 C   0  0  0  0  0  0  0  0  0  0  0  0
   10.9554   -7.3838    0.0000 C   0  0  0  0  0  0  0  0  0  0  0  0
   11.6698   -6.9712    0.0000 C   0  0  0  0  0  0  0  0  0  0  0  0
   11.6698   -6.1463    0.0000 C   0  0  2  0  0  0  0  0  0  0  0  0
   10.9554   -5.7338    0.0000 C   0  0  1  0  0  0  0  0  0  0  0  0
   12.3843   -5.7338    0.0000 C   0  0  0  0  0  0  0  0  0  0  0  0
   12.3843   -4.9088    0.0000 C   0  0  0  0  0  0  0  0  0  0  0  0
   11.6698   -4.4962    0.0000 C   0  0  2  0  0  0  0  0  0  0  0  0
   10.9554   -4.9088    0.0000 C   0  0  2  0  0  0  0  0  0  0  0  0
    5.9541   -8.6212    0.0000 O   0  0  0  0  0  0  0  0  0  0  0  0
    6.9705   -9.3357    0.0000 C   0  0  0  0  0  0  0  0  0  0  0  0
    8.0975   -6.5587    0.0000 C   0  0  0  0  0  0  0  0  0  0  0  0
    9.5264   -6.5587    0.0000 C   0  0  0  0  0  0  0  0  0  0  0  0
   10.1304   -4.9088    0.0000 C   0  0  0  0  0  0  0  0  0  0  0  0
   10.9554   -6.5587    0.0000 H   0  0  0  0  0  0  0  0  0  0  0  0
   12.3843   -6.5587    0.0000 C   0  0  0  0  0  0  0  0  0  0  0  0
    7.7955   -9.3357    0.0000 C   0  0  0  0  0  0  0  0  0  0  0  0
    8.0975   -9.0337    0.0000 H   0  0  0  0  0  0  0  0  0  0  0  0
    8.8119   -7.7963    0.0000 H   0  0  0  0  0  0  0  0  0  0  0  0
   10.2409   -7.7963    0.0000 C   0  0  0  0  0  0  0  0  0  0  0  0
   10.5429   -4.1943    0.0000 O   0  0  0  0  0  0  0  0  0  0  0  0
   13.0988   -6.1463    0.0000 O   0  0  0  0  0  0  0  0  0  0  0  0
   12.3843   -7.3838    0.0000 O   0  0  0  0  0  0  0  0  0  0  0  0
   11.6698   -3.6713    0.0000 C   0  0  0  0  0  0  0  0  0  0  0  0
    3.7490   -8.6531    0.0000 C   0  0  2  0  0  0  0  0  0  0  0  0
    3.3322   -7.9411    0.0000 O   0  0  0  0  0  0  0  0  0  0  0  0
    2.5072   -7.9461    0.0000 C   0  0  0  0  0  0  0  0  0  0  0  0
    2.0990   -8.6630    0.0000 C   0  0  2  0  0  0  0  0  0  0  0  0
    2.5157   -9.3750    0.0000 C   0  0  1  0  0  0  0  0  0  0  0  0
    3.3407   -9.3701    0.0000 C   0  0  1  0  0  0  0  0  0  0  0  0
    2.1075  -10.0919    0.0000 O   0  0  0  0  0  0  0  0  0  0  0  0
    1.2740   -8.6679    0.0000 O   0  0  0  0  0  0  0  0  0  0  0  0
    3.7575  -10.0821    0.0000 O   0  0  0  0  0  0  0  0  0  0  0  0
    3.3492  -10.7990    0.0000 C   0  0  2  0  0  0  0  0  0  0  0  0
    2.5243  -10.8039    0.0000 O   0  0  0  0  0  0  0  0  0  0  0  0
    2.1160  -11.5208    0.0000 C   0  0  1  0  0  0  0  0  0  0  0  0
    2.5328  -12.2328    0.0000 C   0  0  2  0  0  0  0  0  0  0  0  0
    3.3578  -12.2279    0.0000 C   0  0  1  0  0  0  0  0  0  0  0  0
    3.7660  -11.5110    0.0000 C   0  0  1  0  0  0  0  0  0  0  0  0
    1.2910  -11.5257    0.0000 C   0  0  0  0  0  0  0  0  0  0  0  0
    3.7745  -12.9399    0.0000 O   0  0  0  0  0  0  0  0  0  0  0  0
    4.5910  -11.5061    0.0000 O   0  0  0  0  0  0  0  0  0  0  0  0
    2.1245  -12.9497    0.0000 O   0  0  0  0  0  0  0  0  0  0  0  0
    0.8828  -12.2426    0.0000 O   0  0  0  0  0  0  0  0  0  0  0  0
    5.0483  -13.6409    0.0000 C   0  0  1  0  0  0  0  0  0  0  0  0
    5.8731  -13.6231    0.0000 C   0  0  2  0  0  0  0  0  0  0  0  0
    6.2700  -12.8998    0.0000 C   0  0  1  0  0  0  0  0  0  0  0  0
    5.8421  -12.1945    0.0000 C   0  0  2  0  0  0  0  0  0  0  0  0
    5.0173  -12.2123    0.0000 C   0  0  1  0  0  0  0  0  0  0  0  0
    4.6204  -12.9356    0.0000 O   0  0  0  0  0  0  0  0  0  0  0  0
    7.0948  -12.8820    0.0000 O   0  0  0  0  0  0  0  0  0  0  0  0
    4.6513  -14.3642    0.0000 C   0  0  0  0  0  0  0  0  0  0  0  0
    6.3010  -14.3284    0.0000 O   0  0  0  0  0  0  0  0  0  0  0  0
    6.2390  -11.4712    0.0000 O   0  0  0  0  0  0  0  0  0  0  0  0
  1  2  1  0  0  0  0
  2  3  1  0  0  0  0
  3  4  1  0  0  0  0
  4  5  1  0  0  0  0
  5  6  1  0  0  0  0
  6  1  1  0  0  0  0
  4  7  1  0  0  0  0
  7  8  1  0  0  0  0
  8  9  1  0  0  0  0
  9 10  1  0  0  0  0
 10  5  1  0  0  0  0
  9 11  1  0  0  0  0
 11 12  1  0  0  0  0
 12 13  2  0  0  0  0
 13 14  1  0  0  0  0
 14 10  1  0  0  0  0
 11 15  1  0  0  0  0
 15 16  1  0  0  0  0
 16 17  1  0  0  0  0
 17 18  1  0  0  0  0
 18 12  1  0  0  0  0
 17 19  1  0  0  0  0
 19 20  1  0  0  0  0
 20 21  1  0  0  0  0
 21 22  1  0  0  0  0
 22 18  1  0  0  0  0
  2 23  1  1  0  0  0
  3 24  1  1  0  0  0
  5 25  1  1  0  0  0
  9 26  1  1  0  0  0
 22 27  1  1  0  0  0
 18 28  1  1  0  0  0
 17 29  1  1  0  0  0
  3 30  1  6  0  0  0
  4 31  1  6  0  0  0
 10 32  1  6  0  0  0
 11 33  1  6  0  0  0
 22 34  1  6  0  0  0
 29 35  2  0  0  0  0
 29 36  1  0  0  0  0
 21 37  1  6  0  0  0
 38 39  1  0  0  0  0
 39 40  1  0  0  0  0
 40 41  1  0  0  0  0
 41 42  1  0  0  0  0
 42 43  1  0  0  0  0
 43 38  1  0  0  0  0
 42 44  1  1  0  0  0
 41 45  1  6  0  0  0
 43 46  1  6  0  0  0
 47 46  1  1  0  0  0
 47 48  1  0  0  0  0
 48 49  1  0  0  0  0
 49 50  1  0  0  0  0
 50 51  1  0  0  0  0
 51 52  1  0  0  0  0
 52 47  1  0  0  0  0
 49 53  1  1  0  0  0
 51 54  1  1  0  0  0
 52 55  1  6  0  0  0
 50 56  1  6  0  0  0
 53 57  1  0  0  0  0
 58 59  1  0  0  0  0
 59 60  1  0  0  0  0
 60 61  1  0  0  0  0
 61 62  1  0  0  0  0
 62 63  1  0  0  0  0
 63 58  1  0  0  0  0
 60 64  1  1  0  0  0
 58 65  1  6  0  0  0
 59 66  1  6  0  0  0
 61 67  1  6  0  0  0
 62 55  1  1  0  0  0
 38 23  1  1  0  0  0
M  END
>  <cdx:fragmentId>
5

$$$$
