93529.cdx
  Mrv1902 05222410182D          

 46 51  0  0  0  0            999 V2000
    3.4631   -6.8200    0.0000 C   0  0  0  0  0  0  0  0  0  0  0  0
    3.4631   -7.6450    0.0000 C   0  0  0  0  0  0  0  0  0  0  0  0
    4.1775   -8.0575    0.0000 C   0  0  0  0  0  0  0  0  0  0  0  0
    4.8920   -7.6450    0.0000 C   0  0  0  0  0  0  0  0  0  0  0  0
    4.8920   -6.8200    0.0000 C   0  0  0  0  0  0  0  0  0  0  0  0
    4.1775   -6.4075    0.0000 C   0  0  0  0  0  0  0  0  0  0  0  0
    5.6065   -8.0575    0.0000 C   0  0  0  0  0  0  0  0  0  0  0  0
    6.3209   -7.6450    0.0000 C   0  0  0  0  0  0  0  0  0  0  0  0
    6.3209   -6.8200    0.0000 C   0  0  0  0  0  0  0  0  0  0  0  0
    5.6065   -6.4075    0.0000 C   0  0  0  0  0  0  0  0  0  0  0  0
    7.0354   -6.4075    0.0000 C   0  0  0  0  0  0  0  0  0  0  0  0
    7.0354   -5.5825    0.0000 C   0  0  0  0  0  0  0  0  0  0  0  0
    6.3209   -5.1700    0.0000 C   0  0  0  0  0  0  0  0  0  0  0  0
    5.6065   -5.5825    0.0000 C   0  0  0  0  0  0  0  0  0  0  0  0
    7.7499   -6.8200    0.0000 C   0  0  0  0  0  0  0  0  0  0  0  0
    8.4644   -6.4075    0.0000 C   0  0  0  0  0  0  0  0  0  0  0  0
    8.4644   -5.5825    0.0000 C   0  0  0  0  0  0  0  0  0  0  0  0
    7.7499   -5.1700    0.0000 C   0  0  0  0  0  0  0  0  0  0  0  0
    9.1788   -5.1700    0.0000 C   0  0  0  0  0  0  0  0  0  0  0  0
    9.1788   -4.3450    0.0000 C   0  0  0  0  0  0  0  0  0  0  0  0
    8.4644   -3.9325    0.0000 C   0  0  0  0  0  0  0  0  0  0  0  0
    7.7499   -4.3450    0.0000 C   0  0  0  0  0  0  0  0  0  0  0  0
    4.8920   -5.9950    0.0000 C   0  0  0  0  0  0  0  0  0  0  0  0
    6.3209   -5.9950    0.0000 C   0  0  0  0  0  0  0  0  0  0  0  0
    2.7486   -8.0575    0.0000 O   0  0  0  0  0  0  0  0  0  0  0  0
    4.5900   -8.7720    0.0000 C   0  0  0  0  0  0  0  0  0  0  0  0
    9.1788   -5.9950    0.0000 C   0  0  0  0  0  0  0  0  0  0  0  0
    6.9249   -4.3450    0.0000 C   0  0  0  0  0  0  0  0  0  0  0  0
    7.3374   -3.6305    0.0000 O   0  0  0  0  0  0  0  0  0  0  0  0
    8.4644   -3.1075    0.0000 C   0  0  0  0  0  0  0  0  0  0  0  0
    7.0354   -7.2325    0.0000 C   0  0  0  0  0  0  0  0  0  0  0  0
    3.7650   -8.7720    0.0000 C   0  0  0  0  0  0  0  0  0  0  0  0
    5.4150   -8.7720    0.0000 O   0  0  0  0  0  0  0  0  0  0  0  0
    9.8933   -5.5825    0.0000 O   0  0  0  0  0  0  0  0  0  0  0  0
    9.1788   -6.8200    0.0000 O   0  0  0  0  0  0  0  0  0  0  0  0
    8.7663   -7.5345    0.0000 C   0  0  0  0  0  0  0  0  0  0  0  0
    7.9413   -7.5345    0.0000 O   0  0  0  0  0  0  0  0  0  0  0  0
    7.5288   -8.2489    0.0000 C   0  0  0  0  0  0  0  0  0  0  0  0
    7.9413   -8.9634    0.0000 C   0  0  0  0  0  0  0  0  0  0  0  0
    8.7663   -8.9634    0.0000 C   0  0  0  0  0  0  0  0  0  0  0  0
    9.1788   -8.2489    0.0000 C   0  0  0  0  0  0  0  0  0  0  0  0
    6.7038   -8.2489    0.0000 C   0  0  0  0  0  0  0  0  0  0  0  0
    6.2913   -8.9634    0.0000 O   0  0  0  0  0  0  0  0  0  0  0  0
    7.5288   -9.6779    0.0000 O   0  0  0  0  0  0  0  0  0  0  0  0
    9.1788   -9.6779    0.0000 O   0  0  0  0  0  0  0  0  0  0  0  0
   10.0038   -8.2489    0.0000 O   0  0  0  0  0  0  0  0  0  0  0  0
  1  2  1  0  0  0  0
  2  3  1  0  0  0  0
  3  4  1  0  0  0  0
  4  5  1  0  0  0  0
  5  6  1  0  0  0  0
  6  1  1  0  0  0  0
  4  7  1  0  0  0  0
  7  8  1  0  0  0  0
  8  9  1  0  0  0  0
  9 10  1  0  0  0  0
 10  5  1  0  0  0  0
  9 11  1  0  0  0  0
 11 12  1  0  0  0  0
 12 13  2  0  0  0  0
 13 14  1  0  0  0  0
 14 10  1  0  0  0  0
 11 15  1  0  0  0  0
 15 16  1  0  0  0  0
 16 17  1  0  0  0  0
 17 18  1  0  0  0  0
 18 12  1  0  0  0  0
 17 19  1  0  0  0  0
 19 20  1  0  0  0  0
 20 21  1  0  0  0  0
 21 22  1  0  0  0  0
 22 18  1  0  0  0  0
  5 23  1  0  0  0  0
  9 24  1  0  0  0  0
  2 25  1  0  0  0  0
  3 26  1  0  0  0  0
 17 27  1  0  0  0  0
 22 28  1  0  0  0  0
 22 29  1  0  0  0  0
 21 30  1  0  0  0  0
 11 31  1  0  0  0  0
  3 32  1  0  0  0  0
 26 33  1  0  0  0  0
 27 34  2  0  0  0  0
 27 35  1  0  0  0  0
 35 36  1  0  0  0  0
 36 37  1  0  0  0  0
 37 38  1  0  0  0  0
 38 39  1  0  0  0  0
 39 40  1  0  0  0  0
 40 41  1  0  0  0  0
 41 36  1  0  0  0  0
 38 42  1  0  0  0  0
 42 43  1  0  0  0  0
 39 44  1  0  0  0  0
 40 45  1  0  0  0  0
 41 46  1  0  0  0  0
M  END
>  <cdx:fragmentId>
5

$$$$
