93534.cdx
  Mrv1902 05222410262D          

 79 87  0  0  0  0            999 V2000
    9.2974   -5.8320    0.0000 C   0  0  0  0  0  0  0  0  0  0  0  0
    9.5311   -6.6232    0.0000 C   0  0  0  0  0  0  0  0  0  0  0  0
   10.3332   -6.8163    0.0000 C   0  0  0  0  0  0  0  0  0  0  0  0
   10.9015   -6.2183    0.0000 C   0  0  0  0  0  0  0  0  0  0  0  0
   10.6677   -5.4271    0.0000 C   0  0  0  0  0  0  0  0  0  0  0  0
    9.8657   -5.2340    0.0000 C   0  0  0  0  0  0  0  0  0  0  0  0
   10.7638   -7.5201    0.0000 C   0  0  0  0  0  0  0  0  0  0  0  0
   10.3696   -8.2448    0.0000 C   0  0  0  0  0  0  0  0  0  0  0  0
   10.8002   -8.9485    0.0000 C   0  0  0  0  0  0  0  0  0  0  0  0
   11.6249   -8.9275    0.0000 C   0  0  0  0  0  0  0  0  0  0  0  0
   12.0191   -8.2028    0.0000 C   0  0  0  0  0  0  0  0  0  0  0  0
   11.5885   -7.4990    0.0000 C   0  0  0  0  0  0  0  0  0  0  0  0
    9.6319   -4.4428    0.0000 O   0  0  0  0  0  0  0  0  0  0  0  0
   11.2360   -4.8291    0.0000 O   0  0  0  0  0  0  0  0  0  0  0  0
   11.7036   -6.4114    0.0000 O   0  0  0  0  0  0  0  0  0  0  0  0
   11.9827   -6.7743    0.0000 O   0  0  0  0  0  0  0  0  0  0  0  0
   12.8438   -8.1817    0.0000 O   0  0  0  0  0  0  0  0  0  0  0  0
   12.0555   -9.6312    0.0000 O   0  0  0  0  0  0  0  0  0  0  0  0
   11.6613  -10.3560    0.0000 C   0  0  0  0  0  0  0  0  0  0  0  0
   10.8366  -10.3770    0.0000 C   0  0  0  0  0  0  0  0  0  0  0  0
   10.4425  -11.1018    0.0000 C   0  0  0  0  0  0  0  0  0  0  0  0
   10.8730  -11.8055    0.0000 C   0  0  0  0  0  0  0  0  0  0  0  0
   11.6978  -11.7845    0.0000 C   0  0  0  0  0  0  0  0  0  0  0  0
   12.0919  -11.0597    0.0000 C   0  0  0  0  0  0  0  0  0  0  0  0
   10.4060   -9.6733    0.0000 O   0  0  0  0  0  0  0  0  0  0  0  0
    9.6177  -11.1228    0.0000 O   0  0  0  0  0  0  0  0  0  0  0  0
   10.4789  -12.5302    0.0000 O   0  0  0  0  0  0  0  0  0  0  0  0
   12.9167  -11.0387    0.0000 C   0  0  0  0  0  0  0  0  0  0  0  0
    8.7342   -6.8367    0.0000 C   0  0  0  0  0  0  0  0  0  0  0  0
    8.1509   -6.2533    0.0000 O   0  0  0  0  0  0  0  0  0  0  0  0
    8.5207   -7.6336    0.0000 O   0  0  0  0  0  0  0  0  0  0  0  0
    7.7238   -7.8471    0.0000 C   0  0  1  0  0  0  0  0  0  0  0  0
    7.1405   -7.2638    0.0000 C   0  0  1  0  0  0  0  0  0  0  0  0
    6.3436   -7.4773    0.0000 C   0  0  2  0  0  0  0  0  0  0  0  0
    6.1300   -8.2742    0.0000 C   0  0  1  0  0  0  0  0  0  0  0  0
    6.7134   -8.8575    0.0000 O   0  0  0  0  0  0  0  0  0  0  0  0
    7.5103   -8.6440    0.0000 C   0  0  2  0  0  0  0  0  0  0  0  0
    8.0937   -9.2274    0.0000 C   0  0  0  0  0  0  0  0  0  0  0  0
    8.8081   -8.8149    0.0000 O   0  0  0  0  0  0  0  0  0  0  0  0
    9.6625   -8.8694    0.0000 C   0  0  0  0  0  0  0  0  0  0  0  0
    9.7118   -9.5925    0.0000 O   0  0  0  0  0  0  0  0  0  0  0  0
    5.3331   -8.4877    0.0000 O   0  0  0  0  0  0  0  0  0  0  0  0
    7.3540   -6.4669    0.0000 O   0  0  0  0  0  0  0  0  0  0  0  0
    5.7602   -6.8939    0.0000 O   0  0  0  0  0  0  0  0  0  0  0  0
   13.3472  -11.7424    0.0000 O   0  0  0  0  0  0  0  0  0  0  0  0
   13.3108  -10.3139    0.0000 O   0  0  0  0  0  0  0  0  0  0  0  0
    3.3295   -4.6184    0.0000 C   0  0  0  0  0  0  0  0  0  0  0  0
    3.0653   -5.3999    0.0000 C   0  0  0  0  0  0  0  0  0  0  0  0
    3.6101   -6.0195    0.0000 C   0  0  0  0  0  0  0  0  0  0  0  0
    4.4191   -5.8574    0.0000 C   0  0  0  0  0  0  0  0  0  0  0  0
    4.6832   -5.0758    0.0000 C   0  0  0  0  0  0  0  0  0  0  0  0
    4.1384   -4.4563    0.0000 C   0  0  0  0  0  0  0  0  0  0  0  0
    4.4025   -3.6747    0.0000 O   0  0  0  0  0  0  0  0  0  0  0  0
    2.7846   -3.9988    0.0000 O   0  0  0  0  0  0  0  0  0  0  0  0
    2.2564   -5.5620    0.0000 O   0  0  0  0  0  0  0  0  0  0  0  0
    4.9306   -6.8944    0.0000 C   0  0  0  0  0  0  0  0  0  0  0  0
    4.5072   -7.6024    0.0000 O   0  0  0  0  0  0  0  0  0  0  0  0
    5.8909   -4.7350    0.0000 C   0  0  0  0  0  0  0  0  0  0  0  0
    6.5707   -5.2024    0.0000 C   0  0  0  0  0  0  0  0  0  0  0  0
    7.3157   -4.8480    0.0000 C   0  0  0  0  0  0  0  0  0  0  0  0
    7.3808   -4.0262    0.0000 C   0  0  0  0  0  0  0  0  0  0  0  0
    6.7021   -3.5583    0.0000 C   0  0  0  0  0  0  0  0  0  0  0  0
    5.9571   -3.9127    0.0000 C   0  0  0  0  0  0  0  0  0  0  0  0
    5.3919   -3.3117    0.0000 O   0  0  0  0  0  0  0  0  0  0  0  0
    6.7678   -2.7359    0.0000 O   0  0  0  0  0  0  0  0  0  0  0  0
    8.1258   -3.6717    0.0000 O   0  0  0  0  0  0  0  0  0  0  0  0
    6.5055   -6.0248    0.0000 C   0  0  0  0  0  0  0  0  0  0  0  0
    5.7838   -6.4245    0.0000 O   0  0  0  0  0  0  0  0  0  0  0  0
    4.9206   -9.2022    0.0000 C   0  0  0  0  0  0  0  0  0  0  0  0
    4.0956   -9.2022    0.0000 C   0  0  0  0  0  0  0  0  0  0  0  0
    5.3331   -9.9166    0.0000 O   0  0  0  0  0  0  0  0  0  0  0  0
    3.6831   -8.4877    0.0000 C   0  0  0  0  0  0  0  0  0  0  0  0
    2.8581   -8.4877    0.0000 C   0  0  0  0  0  0  0  0  0  0  0  0
    2.4456   -9.2022    0.0000 C   0  0  0  0  0  0  0  0  0  0  0  0
    2.8581   -9.9166    0.0000 C   0  0  0  0  0  0  0  0  0  0  0  0
    3.6831   -9.9166    0.0000 C   0  0  0  0  0  0  0  0  0  0  0  0
    2.4456   -7.7732    0.0000 O   0  0  0  0  0  0  0  0  0  0  0  0
    1.6206   -9.2022    0.0000 O   0  0  0  0  0  0  0  0  0  0  0  0
    2.4456  -10.6311    0.0000 O   0  0  0  0  0  0  0  0  0  0  0  0
  1  2  2  0  0  0  0
  2  3  1  0  0  0  0
  3  4  2  0  0  0  0
  4  5  1  0  0  0  0
  5  6  2  0  0  0  0
  6  1  1  0  0  0  0
  3  7  1  0  0  0  0
  7  8  2  0  0  0  0
  8  9  1  0  0  0  0
  9 10  2  0  0  0  0
 10 11  1  0  0  0  0
 11 12  2  0  0  0  0
 12  7  1  0  0  0  0
  6 13  1  0  0  0  0
  5 14  1  0  0  0  0
  4 15  1  0  0  0  0
 12 16  1  0  0  0  0
 11 17  1  0  0  0  0
 10 18  1  0  0  0  0
 18 19  1  0  0  0  0
 19 20  2  0  0  0  0
 20 21  1  0  0  0  0
 21 22  2  0  0  0  0
 22 23  1  0  0  0  0
 23 24  2  0  0  0  0
 24 19  1  0  0  0  0
 20 25  1  0  0  0  0
 21 26  1  0  0  0  0
 22 27  1  0  0  0  0
 24 28  1  0  0  0  0
  2 29  1  0  0  0  0
 29 30  2  0  0  0  0
 29 31  1  0  0  0  0
 32 31  1  6  0  0  0
 32 33  1  0  0  0  0
 33 34  1  0  0  0  0
 34 35  1  0  0  0  0
 35 36  1  0  0  0  0
 36 37  1  0  0  0  0
 37 32  1  0  0  0  0
 37 38  1  1  0  0  0
 38 39  1  0  0  0  0
  8 40  1  0  0  0  0
 39 40  1  0  0  0  0
 40 41  2  0  0  0  0
 35 42  1  1  0  0  0
 33 43  1  1  0  0  0
 34 44  1  6  0  0  0
 28 45  1  0  0  0  0
 28 46  2  0  0  0  0
 47 48  2  0  0  0  0
 48 49  1  0  0  0  0
 49 50  2  0  0  0  0
 50 51  1  0  0  0  0
 51 52  2  0  0  0  0
 52 47  1  0  0  0  0
 52 53  1  0  0  0  0
 47 54  1  0  0  0  0
 48 55  1  0  0  0  0
 50 56  1  0  0  0  0
 56 57  2  0  0  0  0
 56 44  1  0  0  0  0
 51 58  1  0  0  0  0
 58 59  2  0  0  0  0
 59 60  1  0  0  0  0
 60 61  2  0  0  0  0
 61 62  1  0  0  0  0
 62 63  2  0  0  0  0
 63 58  1  0  0  0  0
 63 64  1  0  0  0  0
 62 65  1  0  0  0  0
 61 66  1  0  0  0  0
 59 67  1  0  0  0  0
 67 43  1  0  0  0  0
 67 68  2  0  0  0  0
 42 69  1  0  0  0  0
 69 70  1  0  0  0  0
 69 71  2  0  0  0  0
 70 72  2  0  0  0  0
 72 73  1  0  0  0  0
 73 74  2  0  0  0  0
 74 75  1  0  0  0  0
 75 76  2  0  0  0  0
 76 70  1  0  0  0  0
 73 77  1  0  0  0  0
 74 78  1  0  0  0  0
 75 79  1  0  0  0  0
M  END
>  <cdx:fragmentId>
5

$$$$
