93530.cdx
  Mrv1902 05222410282D          

 30 34  0  0  0  0            999 V2000
    5.1543   -7.4525    0.0000 C   0  0  0  0  0  0  0  0  0  0  0  0
    5.1543   -8.2775    0.0000 C   0  0  0  0  0  0  0  0  0  0  0  0
    5.8688   -8.6900    0.0000 C   0  0  1  0  0  0  0  0  0  0  0  0
    6.5832   -8.2775    0.0000 C   0  0  0  0  0  0  0  0  0  0  0  0
    6.5832   -7.4525    0.0000 C   0  0  1  0  0  0  0  0  0  0  0  0
    5.8688   -7.0400    0.0000 C   0  0  1  0  0  0  0  0  0  0  0  0
    7.2977   -8.6900    0.0000 C   0  0  1  0  0  0  0  0  0  0  0  0
    8.0122   -8.2775    0.0000 C   0  0  2  0  0  0  0  0  0  0  0  0
    8.0122   -7.4525    0.0000 C   0  0  2  0  0  0  0  0  0  0  0  0
    7.2977   -7.0400    0.0000 C   0  0  0  0  0  0  0  0  0  0  0  0
    8.7267   -7.0400    0.0000 C   0  0  1  0  0  0  0  0  0  0  0  0
    8.7267   -6.2150    0.0000 C   0  0  1  0  0  0  0  0  0  0  0  0
    8.0122   -5.8025    0.0000 C   0  0  0  0  0  0  0  0  0  0  0  0
    7.2977   -6.2150    0.0000 C   0  0  0  0  0  0  0  0  0  0  0  0
    5.4563   -9.4045    0.0000 C   0  0  0  0  0  0  0  0  0  0  0  0
    7.2977   -9.5150    0.0000 O   0  0  0  0  0  0  0  0  0  0  0  0
    8.7267   -8.6900    0.0000 O   0  0  0  0  0  0  0  0  0  0  0  0
    8.7267   -7.8650    0.0000 C   0  0  0  0  0  0  0  0  0  0  0  0
    9.4411   -6.6275    0.0000 C   0  0  0  0  0  0  0  0  0  0  0  0
    6.2813   -9.4045    0.0000 C   0  0  0  0  0  0  0  0  0  0  0  0
    6.5832   -6.6275    0.0000 C   0  0  0  0  0  0  0  0  0  0  0  0
    7.2977   -7.8650    0.0000 O   0  0  0  0  0  0  0  0  0  0  0  0
    5.8688   -6.2150    0.0000 O   0  0  0  0  0  0  0  0  0  0  0  0
    6.5832   -5.8025    0.0000 H   0  0  0  0  0  0  0  0  0  0  0  0
   10.1556   -7.0400    0.0000 C   0  0  0  0  0  0  0  0  0  0  0  0
    9.4411   -8.2775    0.0000 O   0  0  0  0  0  0  0  0  0  0  0  0
   10.3624   -7.9612    0.0000 O   0  0  0  0  0  0  0  0  0  0  0  0
   11.0724   -7.5411    0.0000 C   0  0  0  0  0  0  0  0  0  0  0  0
   11.7912   -7.9460    0.0000 C   0  0  0  0  0  0  0  0  0  0  0  0
   11.0636   -6.7162    0.0000 O   0  0  0  0  0  0  0  0  0  0  0  0
  1  2  1  0  0  0  0
  2  3  1  0  0  0  0
  3  4  1  0  0  0  0
  4  5  1  0  0  0  0
  5  6  1  0  0  0  0
  6  1  1  0  0  0  0
  4  7  1  0  0  0  0
  7  8  1  0  0  0  0
  8  9  1  0  0  0  0
  9 10  1  0  0  0  0
 10  5  1  0  0  0  0
  9 11  1  0  0  0  0
 11 12  1  0  0  0  0
 12 13  1  0  0  0  0
 13 14  1  0  0  0  0
 14 10  1  0  0  0  0
  3 15  1  1  0  0  0
  7 16  1  1  0  0  0
  8 17  1  1  0  0  0
  9 18  1  1  0  0  0
 12 19  1  1  0  0  0
  3 20  1  6  0  0  0
  5 21  1  6  0  0  0
  8 22  1  6  0  0  0
  6 23  1  6  0  0  0
 21 22  1  0  0  0  0
 14 24  1  0  0  0  0
 18 19  1  0  0  0  0
 19 25  2  0  0  0  0
 18 26  2  0  0  0  0
 11 27  1  1  0  0  0
 27 28  1  0  0  0  0
 28 29  1  0  0  0  0
 28 30  2  0  0  0  0
M  END
>  <cdx:fragmentId>
5

$$$$
