93538.cdx
  Mrv1902 05222410202D          

 20 22  0  0  0  0            999 V2000
    4.7577   -5.0710    0.0000 C   0  0  0  0  0  0  0  0  0  0  0  0
    4.9712   -5.8679    0.0000 O   0  0  0  0  0  0  0  0  0  0  0  0
    6.0716   -4.6383    0.0000 O   0  0  0  0  0  0  0  0  0  0  0  0
    7.3937   -6.3751    0.0000 C   0  0  0  0  0  0  0  0  0  0  0  0
    7.1364   -5.5913    0.0000 C   0  0  0  0  0  0  0  0  0  0  0  0
    6.3289   -5.4222    0.0000 C   0  0  0  0  0  0  0  0  0  0  0  0
    5.7787   -6.0369    0.0000 C   0  0  0  0  0  0  0  0  0  0  0  0
    6.0360   -6.8208    0.0000 C   0  0  0  0  0  0  0  0  0  0  0  0
    6.8435   -6.9899    0.0000 C   0  0  0  0  0  0  0  0  0  0  0  0
    8.9314   -9.8877    0.0000 O   0  0  0  0  0  0  0  0  0  0  0  0
    7.1008   -7.7737    0.0000 C   0  0  1  0  0  0  0  0  0  0  0  0
    6.6179   -8.4426    0.0000 O   0  0  0  0  0  0  0  0  0  0  0  0
    7.1049   -9.1086    0.0000 C   0  0  0  0  0  0  0  0  0  0  0  0
    7.8862   -8.0263    0.0000 C   0  0  2  0  0  0  0  0  0  0  0  0
    7.8887   -8.8513    0.0000 C   0  0  1  0  0  0  0  0  0  0  0  0
    8.6741   -9.1038    0.0000 C   0  0  0  0  0  0  0  0  0  0  0  0
    9.1570   -8.4349    0.0000 O   0  0  0  0  0  0  0  0  0  0  0  0
    8.6701   -7.7690    0.0000 C   0  0  0  0  0  0  0  0  0  0  0  0
    7.8837   -7.2013    0.0000 H   0  0  0  0  0  0  0  0  0  0  0  0
    7.8912   -9.6763    0.0000 H   0  0  0  0  0  0  0  0  0  0  0  0
  2  1  1  0  0  0  0
  7  2  1  0  0  0  0
  6  3  1  0  0  0  0
  4  9  1  0  0  0  0
  5  4  2  0  0  0  0
  6  5  1  0  0  0  0
  7  6  2  0  0  0  0
  8  7  1  0  0  0  0
  9  8  2  0  0  0  0
 11  9  1  6  0  0  0
 16 10  2  0  0  0  0
 11 14  1  0  0  0  0
 12 11  1  0  0  0  0
 13 12  1  0  0  0  0
 15 13  1  0  0  0  0
 14 18  1  0  0  0  0
 15 14  1  0  0  0  0
 16 15  1  0  0  0  0
 17 16  1  0  0  0  0
 18 17  1  0  0  0  0
 14 19  1  6  0  0  0
 15 20  1  6  0  0  0
M  END
>  <cdx:fragmentId>
5

$$$$
