93535.cdx
  Mrv1902 05222410262D          

 46 52  0  0  0  0            999 V2000
   15.8013  -10.3644    0.0000 C   0  0  1  0  0  0  0  0  0  0  0  0
   16.5127   -9.9468    0.0000 C   0  0  2  0  0  0  0  0  0  0  0  0
   17.2992  -10.1960    0.0000 C   0  0  0  0  0  0  0  0  0  0  0  0
   17.7793   -9.5251    0.0000 C   0  0  2  0  0  0  0  0  0  0  0  0
   18.5620   -9.2645    0.0000 O   0  0  0  0  0  0  0  0  0  0  0  0
   18.5561   -8.4395    0.0000 C   0  0  2  0  0  0  0  0  0  0  0  0
   17.7696   -8.1903    0.0000 C   0  0  2  0  0  0  0  0  0  0  0  0
   17.2895   -8.8612    0.0000 C   0  0  2  0  0  0  0  0  0  0  0  0
   16.5068   -9.1218    0.0000 C   0  0  1  0  0  0  0  0  0  0  0  0
   15.7894   -8.7144    0.0000 C   0  0  0  0  0  0  0  0  0  0  0  0
   15.0779   -9.1321    0.0000 C   0  0  0  0  0  0  0  0  0  0  0  0
   15.0838   -9.9571    0.0000 C   0  0  2  0  0  0  0  0  0  0  0  0
   14.3724  -10.3747    0.0000 C   0  0  1  0  0  0  0  0  0  0  0  0
   13.6549   -9.9674    0.0000 C   0  0  1  0  0  0  0  0  0  0  0  0
   12.9435  -10.3850    0.0000 C   0  0  0  0  0  0  0  0  0  0  0  0
   12.9494  -11.2100    0.0000 C   0  0  1  0  0  0  0  0  0  0  0  0
   13.6668  -11.6173    0.0000 C   0  0  0  0  0  0  0  0  0  0  0  0
   14.3783  -11.1997    0.0000 C   0  0  0  0  0  0  0  0  0  0  0  0
   15.0958  -11.6070    0.0000 C   0  0  0  0  0  0  0  0  0  0  0  0
   15.8072  -11.1894    0.0000 C   0  0  0  0  0  0  0  0  0  0  0  0
   18.4639   -7.6197    0.0000 O   0  0  0  0  0  0  0  0  0  0  0  0
   19.3122   -8.7696    0.0000 C   0  0  0  0  0  0  0  0  0  0  0  0
   19.9761   -8.2799    0.0000 C   0  0  0  0  0  0  0  0  0  0  0  0
   19.8839   -7.4601    0.0000 C   0  0  2  0  0  0  0  0  0  0  0  0
   19.1278   -7.1300    0.0000 C   0  0  0  0  0  0  0  0  0  0  0  0
   13.6490   -9.1424    0.0000 O   0  0  0  0  0  0  0  0  0  0  0  0
   12.2379  -11.6277    0.0000 O   0  0  0  0  0  0  0  0  0  0  0  0
   14.3664   -9.5497    0.0000 C   0  0  0  0  0  0  0  0  0  0  0  0
   16.5068   -8.2968    0.0000 C   0  0  0  0  0  0  0  0  0  0  0  0
   17.5090   -7.4075    0.0000 C   0  0  0  0  0  0  0  0  0  0  0  0
   20.5478   -6.9703    0.0000 C   0  0  0  0  0  0  0  0  0  0  0  0
   15.7953   -9.5394    0.0000 H   0  0  0  0  0  0  0  0  0  0  0  0
   16.5187  -10.7717    0.0000 H   0  0  0  0  0  0  0  0  0  0  0  0
   18.2690  -10.1890    0.0000 H   0  0  0  0  0  0  0  0  0  0  0  0
   16.9225   -8.1223    0.0000 H   0  0  0  0  0  0  0  0  0  0  0  0
   15.0898  -10.7820    0.0000 H   0  0  0  0  0  0  0  0  0  0  0  0
   12.9315   -8.7351    0.0000 C   0  0  2  0  0  0  0  0  0  0  0  0
   12.9226   -7.9101    0.0000 O   0  0  0  0  0  0  0  0  0  0  0  0
   12.2037   -7.5054    0.0000 C   0  0  1  0  0  0  0  0  0  0  0  0
   11.4937   -7.9101    0.0000 C   0  0  1  0  0  0  0  0  0  0  0  0
   11.4937   -8.7351    0.0000 C   0  0  1  0  0  0  0  0  0  0  0  0
   12.2037   -9.1398    0.0000 C   0  0  1  0  0  0  0  0  0  0  0  0
   12.2015   -6.6804    0.0000 C   0  0  0  0  0  0  0  0  0  0  0  0
   10.7804   -7.4957    0.0000 O   0  0  0  0  0  0  0  0  0  0  0  0
   10.7804   -9.1495    0.0000 O   0  0  0  0  0  0  0  0  0  0  0  0
   12.1993   -9.9648    0.0000 O   0  0  0  0  0  0  0  0  0  0  0  0
  1  2  1  0  0  0  0
  2  3  1  0  0  0  0
  3  4  1  0  0  0  0
  4  5  1  0  0  0  0
  6  5  1  6  0  0  0
  6  7  1  0  0  0  0
  7  8  1  0  0  0  0
  8  9  1  0  0  0  0
  9 10  1  0  0  0  0
 10 11  1  0  0  0  0
 11 12  1  0  0  0  0
 12 13  1  0  0  0  0
 13 14  1  0  0  0  0
 14 15  1  0  0  0  0
 15 16  1  0  0  0  0
 16 17  1  0  0  0  0
 17 18  1  0  0  0  0
 18 19  2  0  0  0  0
 19 20  1  0  0  0  0
  1 20  1  0  0  0  0
  1 12  1  0  0  0  0
 13 18  1  0  0  0  0
  2  9  1  0  0  0  0
  4  8  1  0  0  0  0
 22 23  1  0  0  0  0
 23 24  1  0  0  0  0
 24 25  1  0  0  0  0
 21 25  1  0  0  0  0
  6 21  1  0  0  0  0
  6 22  1  0  0  0  0
 14 26  1  1  0  0  0
 16 27  1  1  0  0  0
 13 28  1  1  0  0  0
  9 29  1  1  0  0  0
  7 30  1  6  0  0  0
 24 31  1  6  0  0  0
  1 32  1  1  0  0  0
  2 33  1  6  0  0  0
  4 34  1  6  0  0  0
  8 35  1  6  0  0  0
 12 36  1  6  0  0  0
 37 26  1  1  0  0  0
 37 38  1  0  0  0  0
 38 39  1  0  0  0  0
 39 40  1  0  0  0  0
 40 41  1  0  0  0  0
 41 42  1  0  0  0  0
 42 37  1  0  0  0  0
 39 43  1  1  0  0  0
 40 44  1  1  0  0  0
 41 45  1  1  0  0  0
 42 46  1  6  0  0  0
M  END
>  <cdx:fragmentId>
799

$$$$
