93532.cdx
  Mrv1902 05222410272D          

 79 86  0  0  0  0            999 V2000
    7.8811   -6.7945    0.0000 C   0  0  0  0  0  0  0  0  0  0  0  0
    8.1149   -7.5857    0.0000 C   0  0  0  0  0  0  0  0  0  0  0  0
    8.9169   -7.7788    0.0000 C   0  0  0  0  0  0  0  0  0  0  0  0
    9.4852   -7.1808    0.0000 C   0  0  0  0  0  0  0  0  0  0  0  0
    9.2515   -6.3896    0.0000 C   0  0  0  0  0  0  0  0  0  0  0  0
    8.4494   -6.1965    0.0000 C   0  0  0  0  0  0  0  0  0  0  0  0
    9.3475   -8.4826    0.0000 C   0  0  0  0  0  0  0  0  0  0  0  0
    8.9534   -9.2073    0.0000 C   0  0  0  0  0  0  0  0  0  0  0  0
    9.3839   -9.9110    0.0000 C   0  0  0  0  0  0  0  0  0  0  0  0
   10.2087   -9.8900    0.0000 C   0  0  0  0  0  0  0  0  0  0  0  0
   10.6028   -9.1653    0.0000 C   0  0  0  0  0  0  0  0  0  0  0  0
   10.1723   -8.4615    0.0000 C   0  0  0  0  0  0  0  0  0  0  0  0
    8.2156   -5.4053    0.0000 O   0  0  0  0  0  0  0  0  0  0  0  0
    9.8198   -5.7916    0.0000 O   0  0  0  0  0  0  0  0  0  0  0  0
   10.2873   -7.3739    0.0000 O   0  0  0  0  0  0  0  0  0  0  0  0
   10.5664   -7.7368    0.0000 O   0  0  0  0  0  0  0  0  0  0  0  0
   11.4276   -9.1442    0.0000 O   0  0  0  0  0  0  0  0  0  0  0  0
   10.6392  -10.5937    0.0000 O   0  0  0  0  0  0  0  0  0  0  0  0
   10.2451  -11.3185    0.0000 C   0  0  0  0  0  0  0  0  0  0  0  0
    9.4204  -11.3395    0.0000 C   0  0  0  0  0  0  0  0  0  0  0  0
    9.0262  -12.0643    0.0000 C   0  0  0  0  0  0  0  0  0  0  0  0
    9.4568  -12.7680    0.0000 C   0  0  0  0  0  0  0  0  0  0  0  0
   10.2815  -12.7470    0.0000 C   0  0  0  0  0  0  0  0  0  0  0  0
   10.6757  -12.0222    0.0000 C   0  0  0  0  0  0  0  0  0  0  0  0
    8.9898  -10.6358    0.0000 O   0  0  0  0  0  0  0  0  0  0  0  0
    8.2015  -12.0853    0.0000 O   0  0  0  0  0  0  0  0  0  0  0  0
    9.0626  -13.4927    0.0000 O   0  0  0  0  0  0  0  0  0  0  0  0
   11.5004  -12.0012    0.0000 C   0  0  0  0  0  0  0  0  0  0  0  0
    7.3180   -7.7992    0.0000 C   0  0  0  0  0  0  0  0  0  0  0  0
    6.7346   -7.2158    0.0000 O   0  0  0  0  0  0  0  0  0  0  0  0
    7.1045   -8.5961    0.0000 O   0  0  0  0  0  0  0  0  0  0  0  0
    6.3076   -8.8096    0.0000 C   0  0  1  0  0  0  0  0  0  0  0  0
    5.7242   -8.2263    0.0000 C   0  0  1  0  0  0  0  0  0  0  0  0
    4.9273   -8.4398    0.0000 C   0  0  2  0  0  0  0  0  0  0  0  0
    4.7138   -9.2367    0.0000 C   0  0  1  0  0  0  0  0  0  0  0  0
    5.2972   -9.8200    0.0000 O   0  0  0  0  0  0  0  0  0  0  0  0
    6.0940   -9.6065    0.0000 C   0  0  2  0  0  0  0  0  0  0  0  0
    6.6774  -10.1899    0.0000 C   0  0  0  0  0  0  0  0  0  0  0  0
    7.3919   -9.7774    0.0000 O   0  0  0  0  0  0  0  0  0  0  0  0
    8.2462   -9.8319    0.0000 C   0  0  0  0  0  0  0  0  0  0  0  0
    8.2955  -10.5550    0.0000 O   0  0  0  0  0  0  0  0  0  0  0  0
    3.9169   -9.4502    0.0000 O   0  0  0  0  0  0  0  0  0  0  0  0
    5.9377   -7.4294    0.0000 O   0  0  0  0  0  0  0  0  0  0  0  0
    4.3440   -7.8564    0.0000 O   0  0  0  0  0  0  0  0  0  0  0  0
   11.9310  -12.7049    0.0000 O   0  0  0  0  0  0  0  0  0  0  0  0
   11.8946  -11.2764    0.0000 O   0  0  0  0  0  0  0  0  0  0  0  0
   11.5368  -13.4297    0.0000 C   0  0  2  0  0  0  0  0  0  0  0  0
   10.7121  -13.4507    0.0000 O   0  0  0  0  0  0  0  0  0  0  0  0
   10.3179  -14.1754    0.0000 C   0  0  1  0  0  0  0  0  0  0  0  0
   10.7485  -14.8792    0.0000 C   0  0  2  0  0  0  0  0  0  0  0  0
   11.5732  -14.8581    0.0000 C   0  0  1  0  0  0  0  0  0  0  0  0
   11.9674  -14.1334    0.0000 C   0  0  1  0  0  0  0  0  0  0  0  0
    9.4932  -14.1965    0.0000 C   0  0  0  0  0  0  0  0  0  0  0  0
   12.0038  -15.5619    0.0000 O   0  0  0  0  0  0  0  0  0  0  0  0
   10.3544  -15.6039    0.0000 O   0  0  0  0  0  0  0  0  0  0  0  0
   12.7921  -14.1124    0.0000 O   0  0  0  0  0  0  0  0  0  0  0  0
    9.0807  -14.9109    0.0000 O   0  0  0  0  0  0  0  0  0  0  0  0
    2.3098   -5.6948    0.0000 C   0  0  0  0  0  0  0  0  0  0  0  0
    1.8864   -6.4028    0.0000 C   0  0  0  0  0  0  0  0  0  0  0  0
    2.2879   -7.1235    0.0000 C   0  0  0  0  0  0  0  0  0  0  0  0
    3.1128   -7.1362    0.0000 C   0  0  0  0  0  0  0  0  0  0  0  0
    3.5362   -6.4281    0.0000 C   0  0  0  0  0  0  0  0  0  0  0  0
    3.1347   -5.7074    0.0000 C   0  0  0  0  0  0  0  0  0  0  0  0
    3.5581   -4.9993    0.0000 O   0  0  0  0  0  0  0  0  0  0  0  0
    1.9083   -4.9741    0.0000 O   0  0  0  0  0  0  0  0  0  0  0  0
    1.0615   -6.3902    0.0000 O   0  0  0  0  0  0  0  0  0  0  0  0
    3.5143   -7.8569    0.0000 C   0  0  0  0  0  0  0  0  0  0  0  0
    3.0909   -8.5649    0.0000 O   0  0  0  0  0  0  0  0  0  0  0  0
    6.7223   -2.5835    0.0000 C   0  0  0  0  0  0  0  0  0  0  0  0
    5.8981   -2.6182    0.0000 C   0  0  0  0  0  0  0  0  0  0  0  0
    5.5160   -3.3494    0.0000 C   0  0  0  0  0  0  0  0  0  0  0  0
    5.9582   -4.0459    0.0000 C   0  0  0  0  0  0  0  0  0  0  0  0
    6.7825   -4.0112    0.0000 C   0  0  0  0  0  0  0  0  0  0  0  0
    7.1645   -3.2800    0.0000 C   0  0  0  0  0  0  0  0  0  0  0  0
    7.9888   -3.2453    0.0000 O   0  0  0  0  0  0  0  0  0  0  0  0
    7.1044   -1.8523    0.0000 O   0  0  0  0  0  0  0  0  0  0  0  0
    5.4559   -1.9217    0.0000 O   0  0  0  0  0  0  0  0  0  0  0  0
    5.5761   -4.7771    0.0000 C   0  0  0  0  0  0  0  0  0  0  0  0
    4.7519   -4.8118    0.0000 O   0  0  0  0  0  0  0  0  0  0  0  0
  1  2  2  0  0  0  0
  2  3  1  0  0  0  0
  3  4  2  0  0  0  0
  4  5  1  0  0  0  0
  5  6  2  0  0  0  0
  6  1  1  0  0  0  0
  3  7  1  0  0  0  0
  7  8  2  0  0  0  0
  8  9  1  0  0  0  0
  9 10  2  0  0  0  0
 10 11  1  0  0  0  0
 11 12  2  0  0  0  0
 12  7  1  0  0  0  0
  6 13  1  0  0  0  0
  5 14  1  0  0  0  0
  4 15  1  0  0  0  0
 12 16  1  0  0  0  0
 11 17  1  0  0  0  0
 10 18  1  0  0  0  0
 18 19  1  0  0  0  0
 19 20  2  0  0  0  0
 20 21  1  0  0  0  0
 21 22  2  0  0  0  0
 22 23  1  0  0  0  0
 23 24  2  0  0  0  0
 24 19  1  0  0  0  0
 20 25  1  0  0  0  0
 21 26  1  0  0  0  0
 22 27  1  0  0  0  0
 24 28  1  0  0  0  0
  2 29  1  0  0  0  0
 29 30  2  0  0  0  0
 29 31  1  0  0  0  0
 32 31  1  6  0  0  0
 32 33  1  0  0  0  0
 33 34  1  0  0  0  0
 34 35  1  0  0  0  0
 35 36  1  0  0  0  0
 36 37  1  0  0  0  0
 37 32  1  0  0  0  0
 37 38  1  1  0  0  0
 38 39  1  0  0  0  0
  8 40  1  0  0  0  0
 39 40  1  0  0  0  0
 40 41  2  0  0  0  0
 35 42  1  1  0  0  0
 33 43  1  1  0  0  0
 34 44  1  6  0  0  0
 28 45  1  0  0  0  0
 28 46  2  0  0  0  0
 47 45  1  1  0  0  0
 47 48  1  0  0  0  0
 48 49  1  0  0  0  0
 49 50  1  0  0  0  0
 50 51  1  0  0  0  0
 51 52  1  0  0  0  0
 52 47  1  0  0  0  0
 49 53  1  1  0  0  0
 51 54  1  1  0  0  0
 50 55  1  6  0  0  0
 52 56  1  6  0  0  0
 53 57  1  0  0  0  0
 58 59  2  0  0  0  0
 59 60  1  0  0  0  0
 60 61  2  0  0  0  0
 61 62  1  0  0  0  0
 62 63  2  0  0  0  0
 63 58  1  0  0  0  0
 63 64  1  0  0  0  0
 58 65  1  0  0  0  0
 59 66  1  0  0  0  0
 61 67  1  0  0  0  0
 67 68  2  0  0  0  0
 69 70  2  0  0  0  0
 70 71  1  0  0  0  0
 71 72  2  0  0  0  0
 72 73  1  0  0  0  0
 73 74  2  0  0  0  0
 74 69  1  0  0  0  0
 74 75  1  0  0  0  0
 69 76  1  0  0  0  0
 70 77  1  0  0  0  0
 72 78  1  0  0  0  0
 78 79  2  0  0  0  0
 67 44  1  0  0  0  0
 78 43  1  0  0  0  0
M  END
>  <cdx:fragmentId>
5

$$$$
