93539.cdx
  Mrv1902 05222410202D          

 23 22  0  0  0  0            999 V2000
   13.5593   -6.9438    0.0000 O   0  0  0  0  0  0  0  0  0  0  0  0
   12.8448   -7.3563    0.0000 C   0  0  0  0  0  0  0  0  0  0  0  0
   12.1303   -6.9438    0.0000 C   0  0  0  0  0  0  0  0  0  0  0  0
   11.4158   -7.3563    0.0000 C   0  0  0  0  0  0  0  0  0  0  0  0
   10.7014   -6.9438    0.0000 C   0  0  0  0  0  0  0  0  0  0  0  0
    9.9869   -7.3563    0.0000 C   0  0  0  0  0  0  0  0  0  0  0  0
    9.2724   -6.9438    0.0000 C   0  0  0  0  0  0  0  0  0  0  0  0
    8.5580   -7.3563    0.0000 C   0  0  0  0  0  0  0  0  0  0  0  0
    7.8435   -6.9438    0.0000 C   0  0  0  0  0  0  0  0  0  0  0  0
    7.1290   -7.3563    0.0000 C   0  0  0  0  0  0  0  0  0  0  0  0
    6.4145   -6.9438    0.0000 C   0  0  0  0  0  0  0  0  0  0  0  0
    5.7001   -7.3563    0.0000 C   0  0  0  0  0  0  0  0  0  0  0  0
    4.9856   -6.9438    0.0000 C   0  0  0  0  0  0  0  0  0  0  0  0
    4.2711   -7.3563    0.0000 C   0  0  0  0  0  0  0  0  0  0  0  0
    3.5567   -6.9438    0.0000 C   0  0  0  0  0  0  0  0  0  0  0  0
    2.8422   -7.3563    0.0000 C   0  0  0  0  0  0  0  0  0  0  0  0
    2.1277   -6.9438    0.0000 C   0  0  0  0  0  0  0  0  0  0  0  0
    1.4132   -7.3563    0.0000 C   0  0  0  0  0  0  0  0  0  0  0  0
    0.6988   -6.9438    0.0000 C   0  0  0  0  0  0  0  0  0  0  0  0
    6.4145   -6.1188    0.0000 O   0  0  0  0  0  0  0  0  0  0  0  0
    7.1290   -8.1813    0.0000 O   0  0  0  0  0  0  0  0  0  0  0  0
    9.2724   -6.1188    0.0000 O   0  0  0  0  0  0  0  0  0  0  0  0
   12.8448   -8.1813    0.0000 O   0  0  0  0  0  0  0  0  0  0  0  0
  2  1  1  0  0  0  0
  3  2  1  0  0  0  0
  4  3  1  0  0  0  0
  5  4  1  0  0  0  0
  6  5  1  0  0  0  0
  7  6  1  0  0  0  0
  8  7  1  0  0  0  0
  9  8  2  0  0  0  0
 10  9  1  0  0  0  0
 11 10  1  0  0  0  0
 12 11  1  0  0  0  0
 13 12  1  0  0  0  0
 14 13  1  0  0  0  0
 15 14  1  0  0  0  0
 16 15  1  0  0  0  0
 17 16  1  0  0  0  0
 18 17  1  0  0  0  0
 19 18  1  0  0  0  0
 11 20  1  0  0  0  0
 10 21  1  0  0  0  0
  7 22  1  0  0  0  0
  2 23  2  0  0  0  0
M  END
>  <cdx:fragmentId>
3

$$$$
