93544.cdx
  Mrv1902 05222410252D          

 57 63  0  0  0  0            999 V2000
    7.0436   -8.3155    0.0000 C   0  0  0  0  0  0  0  0  0  0  0  0
    7.7574   -8.7291    0.0000 C   0  0  0  0  0  0  0  0  0  0  0  0
    8.4725   -8.3176    0.0000 C   0  0  0  0  0  0  0  0  0  0  0  0
    8.4737   -7.4926    0.0000 C   0  0  0  0  0  0  0  0  0  0  0  0
    7.7599   -7.0791    0.0000 C   0  0  0  0  0  0  0  0  0  0  0  0
    7.0448   -7.4905    0.0000 C   0  0  0  0  0  0  0  0  0  0  0  0
    9.1864   -8.7312    0.0000 C   0  0  0  0  0  0  0  0  0  0  0  0
    9.9015   -8.3197    0.0000 C   0  0  0  0  0  0  0  0  0  0  0  0
    9.9027   -7.4947    0.0000 C   0  0  0  0  0  0  0  0  0  0  0  0
    9.1888   -7.0812    0.0000 O   0  0  0  0  0  0  0  0  0  0  0  0
   10.6857   -8.5758    0.0000 O   0  0  0  0  0  0  0  0  0  0  0  0
   11.1716   -7.9091    0.0000 C   0  0  0  0  0  0  0  0  0  0  0  0
   10.6877   -7.2409    0.0000 C   0  0  0  0  0  0  0  0  0  0  0  0
   11.9922   -7.8241    0.0000 C   0  0  0  0  0  0  0  0  0  0  0  0
   12.3289   -7.0709    0.0000 C   0  0  0  0  0  0  0  0  0  0  0  0
   11.8449   -6.4027    0.0000 C   0  0  0  0  0  0  0  0  0  0  0  0
   11.0243   -6.4878    0.0000 C   0  0  0  0  0  0  0  0  0  0  0  0
    6.3309   -7.0770    0.0000 O   0  0  0  0  0  0  0  0  0  0  0  0
    7.7562   -9.5541    0.0000 O   0  0  0  0  0  0  0  0  0  0  0  0
    9.1852   -9.5562    0.0000 O   0  0  0  0  0  0  0  0  0  0  0  0
    9.9901   -6.6744    0.0000 C   0  0  0  0  0  0  0  0  0  0  0  0
    9.9865   -9.1403    0.0000 O   0  0  0  0  0  0  0  0  0  0  0  0
   13.1495   -6.9858    0.0000 O   0  0  0  0  0  0  0  0  0  0  0  0
    1.3664   -7.4633    0.0000 O   0  0  0  0  0  0  0  0  0  0  0  0
    2.7925   -9.9400    0.0000 O   0  0  0  0  0  0  0  0  0  0  0  0
    3.5093   -7.8783    0.0000 C   0  0  0  0  0  0  0  0  0  0  0  0
    2.7954   -7.4650    0.0000 C   0  0  0  0  0  0  0  0  0  0  0  0
    2.0804   -7.8767    0.0000 C   0  0  0  0  0  0  0  0  0  0  0  0
    2.0794   -8.7017    0.0000 C   0  0  0  0  0  0  0  0  0  0  0  0
    2.7934   -9.1150    0.0000 C   0  0  0  0  0  0  0  0  0  0  0  0
    3.5084   -8.7033    0.0000 C   0  0  0  0  0  0  0  0  0  0  0  0
    3.6818   -3.5864    0.0000 C   0  0  0  0  0  0  0  0  0  0  0  0
    2.2529   -3.5884    0.0000 C   0  0  0  0  0  0  0  0  0  0  0  0
    2.9679   -3.9999    0.0000 C   0  0  0  0  0  0  0  0  0  0  0  0
    2.9691   -4.8249    0.0000 C   0  0  0  0  0  0  0  0  0  0  0  0
    3.6841   -5.2364    0.0000 C   0  0  0  0  0  0  0  0  0  0  0  0
    2.2564   -6.0634    0.0000 O   0  0  0  0  0  0  0  0  0  0  0  0
    5.1143   -6.0593    0.0000 O   0  0  0  0  0  0  0  0  0  0  0  0
    4.4004   -6.4728    0.0000 C   0  0  0  0  0  0  0  0  0  0  0  0
    3.6853   -6.0614    0.0000 C   0  0  0  0  0  0  0  0  0  0  0  0
    2.9714   -6.4749    0.0000 C   0  0  0  0  0  0  0  0  0  0  0  0
    2.9726   -7.2999    0.0000 C   0  0  0  0  0  0  0  0  0  0  0  0
    3.6877   -7.7114    0.0000 C   0  0  0  0  0  0  0  0  0  0  0  0
    4.4015   -7.2978    0.0000 C   0  0  0  0  0  0  0  0  0  0  0  0
    5.8305   -7.2958    0.0000 O   0  0  0  0  0  0  0  0  0  0  0  0
    5.1166   -7.7093    0.0000 C   0  0  0  0  0  0  0  0  0  0  0  0
    5.1213  -11.0093    0.0000 C   0  0  0  0  0  0  0  0  0  0  0  0
    5.1178   -8.5343    0.0000 C   0  0  2  0  0  0  0  0  0  0  0  0
    4.4039   -8.9478    0.0000 C   0  0  2  0  0  0  0  0  0  0  0  0
    4.4051   -9.7728    0.0000 C   0  0  0  0  0  0  0  0  0  0  0  0
    5.1201  -10.1843    0.0000 C   0  0  0  0  0  0  0  0  0  0  0  0
    5.8340   -9.7708    0.0000 C   0  0  0  0  0  0  0  0  0  0  0  0
    5.8328   -8.9458    0.0000 C   0  0  1  0  0  0  0  0  0  0  0  0
    9.3234   -6.1885    0.0000 C   0  0  0  0  0  0  0  0  0  0  0  0
    9.4108   -5.3681    0.0000 C   0  0  0  0  0  0  0  0  0  0  0  0
    8.7441   -4.8822    0.0000 C   0  0  0  0  0  0  0  0  0  0  0  0
   10.1650   -5.0337    0.0000 C   0  0  0  0  0  0  0  0  0  0  0  0
  1  2  2  0  0  0  0
  2  3  1  0  0  0  0
  3  4  2  0  0  0  0
  4  5  1  0  0  0  0
  5  6  2  0  0  0  0
  6  1  1  0  0  0  0
  3  7  1  0  0  0  0
  7  8  1  0  0  0  0
  8  9  1  0  0  0  0
  9 10  1  0  0  0  0
 10  4  1  0  0  0  0
  8 11  1  0  0  0  0
 11 12  1  0  0  0  0
 12 13  2  0  0  0  0
 13  9  1  0  0  0  0
 12 14  1  0  0  0  0
 14 15  2  0  0  0  0
 15 16  1  0  0  0  0
 16 17  2  0  0  0  0
 17 13  1  0  0  0  0
  6 18  1  0  0  0  0
  2 19  1  0  0  0  0
  7 20  2  0  0  0  0
  9 21  1  0  0  0  0
  8 22  1  0  0  0  0
 15 23  1  0  0  0  0
 28 24  1  0  0  0  0
 53  1  1  6  0  0  0
 30 25  1  0  0  0  0
 26 31  1  0  0  0  0
 27 26  2  0  0  0  0
 28 27  1  0  0  0  0
 29 28  2  0  0  0  0
 30 29  1  0  0  0  0
 31 30  2  0  0  0  0
 49 31  1  6  0  0  0
 34 32  1  0  0  0  0
 34 33  1  0  0  0  0
 35 34  2  0  0  0  0
 36 35  1  0  0  0  0
 40 36  1  0  0  0  0
 41 37  1  0  0  0  0
 39 38  1  0  0  0  0
 39 44  1  0  0  0  0
 40 39  2  0  0  0  0
 41 40  1  0  0  0  0
 42 41  2  0  0  0  0
 43 42  1  0  0  0  0
 44 43  2  0  0  0  0
 46 44  1  0  0  0  0
 46 45  2  0  0  0  0
 48 46  1  1  0  0  0
 51 47  1  0  0  0  0
 48 53  1  0  0  0  0
 49 48  1  0  0  0  0
 50 49  1  0  0  0  0
 51 50  1  0  0  0  0
 52 51  2  0  0  0  0
 53 52  1  0  0  0  0
 21 54  1  0  0  0  0
 54 55  2  0  0  0  0
 55 56  1  0  0  0  0
 55 57  1  0  0  0  0
M  END
>  <cdx:fragmentId>
5

$$$$
