93543.cdx
  Mrv1902 05222410232D          

 42 48  0  0  0  0            999 V2000
   10.8625   -5.4450    0.0000 O   0  0  0  0  0  0  0  0  0  0  0  0
   11.4571   -5.9606    0.0000 C   0  0  0  0  0  0  0  0  0  0  0  0
   12.2821   -5.9606    0.0000 C   0  0  0  0  0  0  0  0  0  0  0  0
   12.6946   -6.6751    0.0000 C   0  0  0  0  0  0  0  0  0  0  0  0
   12.2821   -7.3896    0.0000 C   0  0  0  0  0  0  0  0  0  0  0  0
   11.4571   -7.3896    0.0000 C   0  0  0  0  0  0  0  0  0  0  0  0
   11.0446   -6.6751    0.0000 C   0  0  0  0  0  0  0  0  0  0  0  0
    9.5051   -4.6126    0.0000 C   0  0  0  0  0  0  0  0  0  0  0  0
    8.7906   -8.3251    0.0000 O   0  0  0  0  0  0  0  0  0  0  0  0
    5.9328   -5.8501    0.0000 O   0  0  0  0  0  0  0  0  0  0  0  0
    5.1321   -6.2671    0.0000 O   0  0  0  0  0  0  0  0  0  0  0  0
    5.1321   -8.7331    0.0000 C   0  0  0  0  0  0  0  0  0  0  0  0
    5.7451   -9.2851    0.0000 C   0  0  0  0  0  0  0  0  0  0  0  0
    5.5736  -10.0921    0.0000 C   0  0  0  0  0  0  0  0  0  0  0  0
    6.1867  -10.6441    0.0000 C   0  0  0  0  0  0  0  0  0  0  0  0
    4.7890  -10.3470    0.0000 C   0  0  0  0  0  0  0  0  0  0  0  0
    1.9722   -8.4263    0.0000 O   0  0  0  0  0  0  0  0  0  0  0  0
    9.9275   -5.6100    0.0000 C   0  0  0  0  0  0  0  0  0  0  0  0
   10.4225   -4.6200    0.0000 C   0  0  0  0  0  0  0  0  0  0  0  0
   10.1750   -6.3525    0.0000 C   0  0  0  0  0  0  0  0  0  0  0  0
    9.4875   -6.9025    0.0000 C   0  0  0  0  0  0  0  0  0  0  0  0
    7.3617   -5.8501    0.0000 O   0  0  0  0  0  0  0  0  0  0  0  0
    8.9650   -5.9125    0.0000 C   0  0  0  0  0  0  0  0  0  0  0  0
    8.7906   -6.6751    0.0000 C   0  0  0  0  0  0  0  0  0  0  0  0
    4.0981   -8.9212    0.0000 C   0  0  0  0  0  0  0  0  0  0  0  0
    3.2776   -9.0075    0.0000 C   0  0  0  0  0  0  0  0  0  0  0  0
    2.7927   -8.3400    0.0000 C   0  0  0  0  0  0  0  0  0  0  0  0
    3.1283   -7.5863    0.0000 C   0  0  0  0  0  0  0  0  0  0  0  0
    4.4337   -8.1676    0.0000 C   0  0  0  0  0  0  0  0  0  0  0  0
    3.9487   -7.5001    0.0000 C   0  0  0  0  0  0  0  0  0  0  0  0
    4.4337   -6.8327    0.0000 O   0  0  0  0  0  0  0  0  0  0  0  0
    5.9328   -8.3251    0.0000 O   0  0  0  0  0  0  0  0  0  0  0  0
    5.2183   -7.9126    0.0000 C   0  0  0  0  0  0  0  0  0  0  0  0
    5.2183   -7.0876    0.0000 C   0  0  0  0  0  0  0  0  0  0  0  0
    5.9328   -6.6751    0.0000 C   0  0  0  0  0  0  0  0  0  0  0  0
    7.3617   -8.3251    0.0000 C   0  0  0  0  0  0  0  0  0  0  0  0
    6.6472   -7.9126    0.0000 C   0  0  0  0  0  0  0  0  0  0  0  0
    6.6472   -7.0876    0.0000 C   0  0  0  0  0  0  0  0  0  0  0  0
    7.3617   -6.6751    0.0000 C   0  0  0  0  0  0  0  0  0  0  0  0
    8.0762   -7.0876    0.0000 C   0  0  0  0  0  0  0  0  0  0  0  0
    8.0762   -7.9126    0.0000 C   0  0  0  0  0  0  0  0  0  0  0  0
   13.5196   -6.6751    0.0000 O   0  0  0  0  0  0  0  0  0  0  0  0
  2  1  1  0  0  0  0
 18  1  1  0  0  0  0
  2  7  1  0  0  0  0
  3  2  2  0  0  0  0
  4  3  1  0  0  0  0
  5  4  2  0  0  0  0
  6  5  1  0  0  0  0
  7  6  2  0  0  0  0
 20  7  1  0  0  0  0
 18  8  1  0  0  0  0
 41  9  1  0  0  0  0
 35 10  2  0  0  0  0
 34 11  1  0  0  0  0
 12 13  1  0  0  0  0
 13 14  2  0  0  0  0
 14 15  1  0  0  0  0
 33 12  1  0  0  0  0
 14 16  1  0  0  0  0
 27 17  1  0  0  0  0
 18 23  1  0  0  0  0
 19 18  1  0  0  0  0
 20 19  1  0  0  0  0
 21 20  1  0  0  0  0
 24 21  1  0  0  0  0
 22 39  1  0  0  0  0
 24 23  2  0  0  0  0
 40 24  1  0  0  0  0
 25 29  1  0  0  0  0
 26 25  2  0  0  0  0
 27 26  1  0  0  0  0
 28 27  2  0  0  0  0
 30 28  1  0  0  0  0
 29 33  1  0  0  0  0
 30 29  2  0  0  0  0
 31 30  1  0  0  0  0
 34 31  1  0  0  0  0
 32 37  1  0  0  0  0
 33 32  1  0  0  0  0
 34 33  1  0  0  0  0
 35 34  1  0  0  0  0
 38 35  1  0  0  0  0
 36 41  1  0  0  0  0
 37 36  2  0  0  0  0
 38 37  1  0  0  0  0
 39 38  2  0  0  0  0
 40 39  1  0  0  0  0
 41 40  2  0  0  0  0
  4 42  1  0  0  0  0
M  END
>  <cdx:fragmentId>
5

$$$$
