93540.cdx
  Mrv1902 05222410242D          

 14 15  0  0  0  0            999 V2000
    6.6244   -5.6839    0.0000 C   0  0  0  0  0  0  0  0  0  0  0  0
    7.0434   -6.3945    0.0000 C   0  0  0  0  0  0  0  0  0  0  0  0
    7.8488   -6.2156    0.0000 C   0  0  0  0  0  0  0  0  0  0  0  0
    7.9275   -5.3944    0.0000 C   0  0  0  0  0  0  0  0  0  0  0  0
    7.1708   -5.0658    0.0000 C   0  0  0  0  0  0  0  0  0  0  0  0
    8.5994   -5.8732    0.0000 C   0  0  0  0  0  0  0  0  0  0  0  0
    7.9199   -4.5694    0.0000 C   0  0  0  0  0  0  0  0  0  0  0  0
    7.2017   -4.1635    0.0000 C   0  0  0  0  0  0  0  0  0  0  0  0
    8.6306   -4.1504    0.0000 C   0  0  0  0  0  0  0  0  0  0  0  0
    7.2643   -7.1894    0.0000 C   0  0  0  0  0  0  0  0  0  0  0  0
    6.3328   -6.8136    0.0000 O   0  0  0  0  0  0  0  0  0  0  0  0
    5.7441   -6.2356    0.0000 C   0  0  0  0  0  0  0  0  0  0  0  0
    4.9492   -6.4564    0.0000 C   0  0  0  0  0  0  0  0  0  0  0  0
    5.9503   -5.4368    0.0000 O   0  0  0  0  0  0  0  0  0  0  0  0
  1  2  1  0  0  0  0
  2  3  1  0  0  0  0
  3  4  1  0  0  0  0
  4  5  1  0  0  0  0
  5  1  1  0  0  0  0
  3  6  1  0  0  0  0
  6  4  1  0  0  0  0
  4  7  1  0  0  0  0
  7  8  1  0  0  0  0
  7  9  1  0  0  0  0
  2 10  1  0  0  0  0
  2 11  1  0  0  0  0
 11 12  1  0  0  0  0
 12 13  1  0  0  0  0
 12 14  2  0  0  0  0
M  END
>  <cdx:fragmentId>
5

$$$$
