93542.cdx
  Mrv1902 05222410242D          

 63 68  0  0  0  0            999 V2000
    6.1935  -10.9465    0.0000 C   0  0  0  0  0  0  0  0  0  0  0  0
    6.9997  -10.7717    0.0000 O   0  0  0  0  0  0  0  0  0  0  0  0
    5.6716  -10.3075    0.0000 O   0  0  0  0  0  0  0  0  0  0  0  0
    3.7123   -7.8713    0.0000 C   0  0  0  0  0  0  0  0  0  0  0  0
    2.9995   -8.2868    0.0000 C   0  0  1  0  0  0  0  0  0  0  0  0
    2.2833   -7.8772    0.0000 C   0  0  0  0  0  0  0  0  0  0  0  0
    4.4284   -8.2809    0.0000 O   0  0  0  0  0  0  0  0  0  0  0  0
    3.7089   -7.0463    0.0000 O   0  0  0  0  0  0  0  0  0  0  0  0
    2.2799   -7.0522    0.0000 C   0  0  0  0  0  0  0  0  0  0  0  0
    2.9927   -6.6368    0.0000 C   0  0  0  0  0  0  0  0  0  0  0  0
    2.9893   -5.8118    0.0000 C   0  0  0  0  0  0  0  0  0  0  0  0
    2.2731   -5.4022    0.0000 C   0  0  0  0  0  0  0  0  0  0  0  0
    1.5604   -5.8177    0.0000 C   0  0  0  0  0  0  0  0  0  0  0  0
    1.5638   -6.6427    0.0000 C   0  0  0  0  0  0  0  0  0  0  0  0
    2.2697   -4.5772    0.0000 O   0  0  0  0  0  0  0  0  0  0  0  0
    3.7020   -5.3963    0.0000 O   0  0  0  0  0  0  0  0  0  0  0  0
    7.0709   -8.6323    0.0000 O   0  0  0  0  0  0  0  0  0  0  0  0
    7.3003  -10.0427    0.0000 O   0  0  0  0  0  0  0  0  0  0  0  0
    6.7784   -9.4037    0.0000 C   0  0  0  0  0  0  0  0  0  0  0  0
    7.6558   -7.0894    0.0000 O   0  0  0  0  0  0  0  0  0  0  0  0
    6.6122   -5.8114    0.0000 O   0  0  0  0  0  0  0  0  0  0  0  0
    5.2129   -7.4867    0.0000 C   0  0  0  0  0  0  0  0  0  0  0  0
    5.5054   -6.7153    0.0000 C   0  0  0  0  0  0  0  0  0  0  0  0
    6.3197   -6.5829    0.0000 C   0  0  0  0  0  0  0  0  0  0  0  0
    6.8415   -7.2219    0.0000 C   0  0  0  0  0  0  0  0  0  0  0  0
    6.5491   -7.9933    0.0000 C   0  0  0  0  0  0  0  0  0  0  0  0
    5.7348   -8.1257    0.0000 C   0  0  0  0  0  0  0  0  0  0  0  0
    5.4423   -8.8971    0.0000 C   0  0  0  0  0  0  0  0  0  0  0  0
    5.9641   -9.5361    0.0000 C   0  0  1  0  0  0  0  0  0  0  0  0
    9.7294  -12.3840    0.0000 O   0  0  0  0  0  0  0  0  0  0  0  0
    7.6699  -13.1070    0.0000 C   0  0  0  0  0  0  0  0  0  0  0  0
    8.4949  -13.1036    0.0000 C   0  0  0  0  0  0  0  0  0  0  0  0
    8.9044  -12.3874    0.0000 C   0  0  0  0  0  0  0  0  0  0  0  0
    8.4890  -11.6747    0.0000 C   0  0  0  0  0  0  0  0  0  0  0  0
    7.6640  -11.6781    0.0000 C   0  0  0  0  0  0  0  0  0  0  0  0
    7.2544  -12.3942    0.0000 C   0  0  0  0  0  0  0  0  0  0  0  0
    4.4523  -14.0558    0.0000 O   0  0  0  0  0  0  0  0  0  0  0  0
    5.1616  -12.8154    0.0000 C   0  0  0  0  0  0  0  0  0  0  0  0
    4.4489  -13.2308    0.0000 C   0  0  0  0  0  0  0  0  0  0  0  0
    3.7327  -12.8213    0.0000 C   0  0  0  0  0  0  0  0  0  0  0  0
    3.7293  -11.9963    0.0000 C   0  0  0  0  0  0  0  0  0  0  0  0
    4.4420  -11.5808    0.0000 C   0  0  0  0  0  0  0  0  0  0  0  0
    5.1582  -11.9904    0.0000 C   0  0  0  0  0  0  0  0  0  0  0  0
    5.9418  -11.7322    0.0000 C   0  0  1  0  0  0  0  0  0  0  0  0
    6.4295  -12.3976    0.0000 C   0  0  2  0  0  0  0  0  0  0  0  0
    5.9473  -13.0671    0.0000 O   0  0  0  0  0  0  0  0  0  0  0  0
    4.4318   -9.1058    0.0000 O   0  0  0  0  0  0  0  0  0  0  0  0
    4.4386  -10.7558    0.0000 C   0  0  0  0  0  0  0  0  0  0  0  0
    3.7225  -10.3463    0.0000 C   0  0  0  0  0  0  0  0  0  0  0  0
    3.7191   -9.5213    0.0000 C   0  0  0  0  0  0  0  0  0  0  0  0
    3.0029   -9.1117    0.0000 O   0  0  0  0  0  0  0  0  0  0  0  0
    8.9103  -13.8163    0.0000 O   0  0  0  0  0  0  0  0  0  0  0  0
   10.1449  -13.0968    0.0000 C   0  0  2  0  0  0  0  0  0  0  0  0
    9.7383  -13.8146    0.0000 O   0  0  0  0  0  0  0  0  0  0  0  0
   10.1449  -14.5257    0.0000 C   0  0  1  0  0  0  0  0  0  0  0  0
   10.9698  -14.5257    0.0000 C   0  0  2  0  0  0  0  0  0  0  0  0
   11.3764  -13.8146    0.0000 C   0  0  1  0  0  0  0  0  0  0  0  0
   10.9698  -13.0968    0.0000 C   0  0  1  0  0  0  0  0  0  0  0  0
    9.7309  -15.2393    0.0000 C   0  0  0  0  0  0  0  0  0  0  0  0
   12.2014  -13.8163    0.0000 O   0  0  0  0  0  0  0  0  0  0  0  0
   11.3853  -12.3840    0.0000 O   0  0  0  0  0  0  0  0  0  0  0  0
   11.3838  -15.2393    0.0000 O   0  0  0  0  0  0  0  0  0  0  0  0
   10.1419  -15.9546    0.0000 O   0  0  0  0  0  0  0  0  0  0  0  0
  5 51  1  6  0  0  0
 51 50  1  0  0  0  0
 48 42  1  0  0  0  0
 44  1  1  6  0  0  0
 29 19  1  0  0  0  0
 19 17  1  0  0  0  0
 19 18  2  0  0  0  0
 28 27  1  0  0  0  0
 25 20  1  0  0  0  0
 24 21  1  0  0  0  0
 27 22  2  0  0  0  0
 23 22  1  0  0  0  0
 24 23  2  0  0  0  0
 25 24  1  0  0  0  0
 26 25  2  0  0  0  0
 27 26  1  0  0  0  0
 29 28  1  0  0  0  0
 45 36  1  1  0  0  0
 33 30  1  0  0  0  0
 36 31  2  0  0  0  0
 32 31  1  0  0  0  0
 33 32  2  0  0  0  0
 34 33  1  0  0  0  0
 35 34  2  0  0  0  0
 36 35  1  0  0  0  0
 39 37  1  0  0  0  0
 46 38  1  0  0  0  0
 43 38  2  0  0  0  0
 39 38  1  0  0  0  0
 40 39  2  0  0  0  0
 41 40  1  0  0  0  0
 42 41  2  0  0  0  0
 43 42  1  0  0  0  0
 44 43  1  0  0  0  0
 45 44  1  0  0  0  0
 46 45  1  0  0  0  0
 50 47  2  0  0  0  0
 49 48  2  0  0  0  0
 50 49  1  0  0  0  0
  1  2  2  0  0  0  0
 29  3  1  6  0  0  0
  1  3  1  0  0  0  0
  4  5  1  0  0  0  0
  5  6  1  0  0  0  0
  4  7  2  0  0  0  0
  4  8  1  0  0  0  0
  9 10  1  0  0  0  0
 10 11  2  0  0  0  0
 11 12  1  0  0  0  0
 12 13  2  0  0  0  0
 13 14  1  0  0  0  0
  9 14  2  0  0  0  0
 12 15  1  0  0  0  0
 11 16  1  0  0  0  0
  6  9  1  0  0  0  0
 32 52  1  0  0  0  0
 53 30  1  1  0  0  0
 53 54  1  0  0  0  0
 54 55  1  0  0  0  0
 55 56  1  0  0  0  0
 56 57  1  0  0  0  0
 57 58  1  0  0  0  0
 58 53  1  0  0  0  0
 55 59  1  1  0  0  0
 57 60  1  1  0  0  0
 58 61  1  6  0  0  0
 56 62  1  6  0  0  0
 59 63  1  0  0  0  0
M  END
>  <cdx:fragmentId>
106635

$$$$
