93541.cdx
  Mrv1902 05222410242D          

 49 52  0  0  0  0            999 V2000
    8.3306   -6.4763    0.0000 C   0  0  0  0  0  0  0  0  0  0  0  0
    8.3306   -7.3012    0.0000 C   0  0  0  0  0  0  0  0  0  0  0  0
    9.0450   -7.7138    0.0000 C   0  0  0  0  0  0  0  0  0  0  0  0
    9.7595   -7.3012    0.0000 C   0  0  0  0  0  0  0  0  0  0  0  0
    9.7595   -6.4763    0.0000 C   0  0  0  0  0  0  0  0  0  0  0  0
    9.0450   -6.0638    0.0000 C   0  0  0  0  0  0  0  0  0  0  0  0
   10.4740   -6.0638    0.0000 C   0  0  0  0  0  0  0  0  0  0  0  0
   11.1884   -6.4763    0.0000 C   0  0  0  0  0  0  0  0  0  0  0  0
   10.4740   -5.2387    0.0000 C   0  0  0  0  0  0  0  0  0  0  0  0
   11.1884   -5.6512    0.0000 C   0  0  0  0  0  0  0  0  0  0  0  0
    9.0450   -8.5388    0.0000 C   0  0  0  0  0  0  0  0  0  0  0  0
    9.7595   -8.9513    0.0000 C   0  0  0  0  0  0  0  0  0  0  0  0
    8.2200   -8.5388    0.0000 C   0  0  0  0  0  0  0  0  0  0  0  0
    8.6325   -9.2532    0.0000 C   0  0  0  0  0  0  0  0  0  0  0  0
    9.7595   -9.7763    0.0000 C   0  0  0  0  0  0  0  0  0  0  0  0
   10.4740  -10.1888    0.0000 C   0  0  0  0  0  0  0  0  0  0  0  0
   11.1884   -9.7763    0.0000 C   0  0  0  0  0  0  0  0  0  0  0  0
   11.1884   -8.9513    0.0000 C   0  0  0  0  0  0  0  0  0  0  0  0
   10.4740   -8.5388    0.0000 C   0  0  0  0  0  0  0  0  0  0  0  0
    9.0450  -10.1888    0.0000 O   0  0  0  0  0  0  0  0  0  0  0  0
   11.9029   -8.5388    0.0000 C   0  0  0  0  0  0  0  0  0  0  0  0
   12.6174   -8.9513    0.0000 C   0  0  0  0  0  0  0  0  0  0  0  0
   11.9029   -7.7138    0.0000 C   0  0  0  0  0  0  0  0  0  0  0  0
   12.6174   -8.1263    0.0000 C   0  0  0  0  0  0  0  0  0  0  0  0
    7.6161   -7.7138    0.0000 O   0  0  0  0  0  0  0  0  0  0  0  0
    6.9016   -7.3012    0.0000 C   0  0  0  0  0  0  0  0  0  0  0  0
    6.9016   -6.4763    0.0000 C   0  0  0  0  0  0  0  0  0  0  0  0
    6.1871   -6.0638    0.0000 C   0  0  0  0  0  0  0  0  0  0  0  0
    5.4727   -6.4763    0.0000 C   0  0  0  0  0  0  0  0  0  0  0  0
    5.4727   -7.3012    0.0000 C   0  0  0  0  0  0  0  0  0  0  0  0
    6.1871   -7.7137    0.0000 C   0  0  0  0  0  0  0  0  0  0  0  0
    6.1871   -8.5387    0.0000 C   0  0  0  0  0  0  0  0  0  0  0  0
    5.6038   -9.1221    0.0000 C   0  0  0  0  0  0  0  0  0  0  0  0
    6.9840   -8.3252    0.0000 C   0  0  0  0  0  0  0  0  0  0  0  0
    6.5996   -9.2532    0.0000 C   0  0  0  0  0  0  0  0  0  0  0  0
    4.8069   -8.9086    0.0000 C   0  0  0  0  0  0  0  0  0  0  0  0
    4.2235   -9.4920    0.0000 C   0  0  0  0  0  0  0  0  0  0  0  0
    4.4371  -10.2888    0.0000 C   0  0  0  0  0  0  0  0  0  0  0  0
    5.2339  -10.5024    0.0000 C   0  0  0  0  0  0  0  0  0  0  0  0
    5.8173   -9.9190    0.0000 C   0  0  0  0  0  0  0  0  0  0  0  0
    6.6142  -10.1325    0.0000 O   0  0  0  0  0  0  0  0  0  0  0  0
    3.4266   -9.2784    0.0000 C   0  0  0  0  0  0  0  0  0  0  0  0
    2.8433   -9.8618    0.0000 C   0  0  0  0  0  0  0  0  0  0  0  0
    3.2131   -8.4815    0.0000 C   0  0  0  0  0  0  0  0  0  0  0  0
    2.6297   -9.0649    0.0000 C   0  0  0  0  0  0  0  0  0  0  0  0
    4.7582   -6.0638    0.0000 C   0  0  0  0  0  0  0  0  0  0  0  0
    4.0437   -6.4763    0.0000 C   0  0  0  0  0  0  0  0  0  0  0  0
    4.7582   -5.2387    0.0000 C   0  0  0  0  0  0  0  0  0  0  0  0
    4.0437   -5.6512    0.0000 C   0  0  0  0  0  0  0  0  0  0  0  0
  1  2  2  0  0  0  0
  2  3  1  0  0  0  0
  3  4  2  0  0  0  0
  4  5  1  0  0  0  0
  5  6  2  0  0  0  0
  6  1  1  0  0  0  0
  5  7  1  0  0  0  0
  7  8  1  0  0  0  0
  7  9  1  0  0  0  0
  7 10  1  0  0  0  0
  3 11  1  0  0  0  0
 11 12  1  0  0  0  0
 11 13  1  0  0  0  0
 11 14  1  0  0  0  0
 12 15  2  0  0  0  0
 15 16  1  0  0  0  0
 16 17  2  0  0  0  0
 17 18  1  0  0  0  0
 18 19  2  0  0  0  0
 19 12  1  0  0  0  0
 15 20  1  0  0  0  0
 18 21  1  0  0  0  0
 21 22  1  0  0  0  0
 21 23  1  0  0  0  0
 21 24  1  0  0  0  0
  2 25  1  0  0  0  0
 25 26  1  0  0  0  0
 26 27  2  0  0  0  0
 27 28  1  0  0  0  0
 28 29  2  0  0  0  0
 29 30  1  0  0  0  0
 30 31  2  0  0  0  0
 31 26  1  0  0  0  0
 31 32  1  0  0  0  0
 32 33  1  0  0  0  0
 32 34  1  0  0  0  0
 32 35  1  0  0  0  0
 33 36  2  0  0  0  0
 36 37  1  0  0  0  0
 37 38  2  0  0  0  0
 38 39  1  0  0  0  0
 39 40  2  0  0  0  0
 40 33  1  0  0  0  0
 40 41  1  0  0  0  0
 37 42  1  0  0  0  0
 42 43  1  0  0  0  0
 42 44  1  0  0  0  0
 42 45  1  0  0  0  0
 29 46  1  0  0  0  0
 46 47  1  0  0  0  0
 46 48  1  0  0  0  0
 46 49  1  0  0  0  0
M  END
>  <cdx:fragmentId>
5

$$$$
