9935561.cdx
  Mrv1902 05222410262D          

 37 40  0  0  0  0            999 V2000
    7.4167   -5.3454    0.0000 C   0  0  1  0  0  0  0  0  0  0  0  0
    8.1312   -4.9329    0.0000 C   0  0  1  0  0  0  0  0  0  0  0  0
    8.1312   -4.1079    0.0000 C   0  0  1  0  0  0  0  0  0  0  0  0
    7.4167   -3.6954    0.0000 C   0  0  0  0  0  0  0  0  0  0  0  0
    6.7023   -4.1079    0.0000 C   0  0  0  0  0  0  0  0  0  0  0  0
    6.7023   -4.9329    0.0000 O   0  0  0  0  0  0  0  0  0  0  0  0
    8.9158   -3.8530    0.0000 C   0  0  0  0  0  0  0  0  0  0  0  0
    9.4008   -4.5204    0.0000 C   0  0  0  0  0  0  0  0  0  0  0  0
    8.9158   -5.1879    0.0000 C   0  0  1  0  0  0  0  0  0  0  0  0
    7.4167   -2.8704    0.0000 C   0  0  0  0  0  0  0  0  0  0  0  0
    8.1312   -2.4579    0.0000 O   0  0  0  0  0  0  0  0  0  0  0  0
    6.7023   -2.4579    0.0000 O   0  0  0  0  0  0  0  0  0  0  0  0
    8.7443   -5.9948    0.0000 C   0  0  0  0  0  0  0  0  0  0  0  0
    9.5289   -5.7399    0.0000 O   0  0  0  0  0  0  0  0  0  0  0  0
    7.4167   -6.1704    0.0000 O   0  0  0  0  0  0  0  0  0  0  0  0
    5.9878   -6.1704    0.0000 O   0  0  0  0  0  0  0  0  0  0  0  0
    6.7023   -6.5829    0.0000 C   0  0  2  0  0  0  0  0  0  0  0  0
    6.7023   -7.4079    0.0000 C   0  0  1  0  0  0  0  0  0  0  0  0
    5.9878   -7.8204    0.0000 C   0  0  2  0  0  0  0  0  0  0  0  0
    5.2733   -7.4079    0.0000 C   0  0  1  0  0  0  0  0  0  0  0  0
    5.2733   -6.5829    0.0000 C   0  0  1  0  0  0  0  0  0  0  0  0
    4.5589   -6.1704    0.0000 C   0  0  0  0  0  0  0  0  0  0  0  0
    3.8444   -6.5829    0.0000 O   0  0  0  0  0  0  0  0  0  0  0  0
    7.4167   -7.8204    0.0000 O   0  0  0  0  0  0  0  0  0  0  0  0
    8.1312   -7.4079    0.0000 C   0  0  0  0  0  0  0  0  0  0  0  0
    8.8457   -7.8204    0.0000 C   0  0  0  0  0  0  0  0  0  0  0  0
    9.5602   -7.4079    0.0000 C   0  0  0  0  0  0  0  0  0  0  0  0
   10.2746   -7.8204    0.0000 C   0  0  0  0  0  0  0  0  0  0  0  0
   10.2746   -8.6454    0.0000 C   0  0  0  0  0  0  0  0  0  0  0  0
    9.5602   -9.0579    0.0000 C   0  0  0  0  0  0  0  0  0  0  0  0
    8.8457   -8.6454    0.0000 C   0  0  0  0  0  0  0  0  0  0  0  0
    8.1312   -6.5829    0.0000 O   0  0  0  0  0  0  0  0  0  0  0  0
   10.9891   -9.0579    0.0000 O   0  0  0  0  0  0  0  0  0  0  0  0
    4.5589   -7.8204    0.0000 O   0  0  0  0  0  0  0  0  0  0  0  0
    5.9878   -8.6454    0.0000 O   0  0  0  0  0  0  0  0  0  0  0  0
    8.2175   -3.2874    0.0000 H   0  0  0  0  0  0  0  0  0  0  0  0
    8.2175   -5.7534    0.0000 H   0  0  0  0  0  0  0  0  0  0  0  0
  1  2  1  0  0  0  0
  2  3  1  0  0  0  0
  3  4  1  0  0  0  0
  4  5  2  0  0  0  0
  5  6  1  0  0  0  0
  1  6  1  0  0  0  0
  7  8  1  0  0  0  0
  8  9  1  0  0  0  0
  9  2  1  0  0  0  0
  7  3  1  0  0  0  0
 10 11  2  0  0  0  0
 10 12  1  0  0  0  0
  4 10  1  0  0  0  0
  9 13  1  1  0  0  0
  9 14  1  6  0  0  0
 16 17  1  0  0  0  0
 17 18  1  0  0  0  0
 18 19  1  0  0  0  0
 19 20  1  0  0  0  0
 20 21  1  0  0  0  0
 16 21  1  0  0  0  0
 22 23  1  0  0  0  0
 21 22  1  1  0  0  0
 25 26  1  0  0  0  0
 26 27  1  0  0  0  0
 27 28  2  0  0  0  0
 28 29  1  0  0  0  0
 29 30  2  0  0  0  0
 30 31  1  0  0  0  0
 26 31  2  0  0  0  0
 25 32  2  0  0  0  0
 29 33  1  0  0  0  0
 24 25  1  0  0  0  0
 18 24  1  6  0  0  0
 20 34  1  6  0  0  0
 19 35  1  1  0  0  0
 17 15  1  1  0  0  0
  1 15  1  6  0  0  0
  3 36  1  6  0  0  0
  2 37  1  6  0  0  0
M  END
>  <cdx:groupId>
116

>  <cdx:fragmentId>
53

$$$$
