93554.cdx
  Mrv1902 05222410242D          

 11 10  0  0  0  0            999 V2000
    8.2674   -8.6710    0.0000 C   0  0  0  0  0  0  0  0  0  0  0  0
    7.5529   -9.0835    0.0000 C   0  0  0  0  0  0  0  0  0  0  0  0
    6.8384   -8.6710    0.0000 C   0  0  0  0  0  0  0  0  0  0  0  0
    8.2674   -7.8460    0.0000 O   0  0  0  0  0  0  0  0  0  0  0  0
    8.9818   -9.0835    0.0000 O   0  0  0  0  0  0  0  0  0  0  0  0
    6.1239   -9.0835    0.0000 S   0  0  0  0  0  0  0  0  0  0  0  0
    5.4095   -8.6710    0.0000 C   0  0  0  0  0  0  0  0  0  0  0  0
    4.6950   -9.0835    0.0000 C   0  0  0  0  0  0  0  0  0  0  0  0
    3.9805   -8.6710    0.0000 C   0  0  0  0  0  0  0  0  0  0  0  0
    9.6963   -8.6710    0.0000 C   0  0  0  0  0  0  0  0  0  0  0  0
   10.4108   -9.0835    0.0000 C   0  0  0  0  0  0  0  0  0  0  0  0
  1  2  1  0  0  0  0
  2  3  1  0  0  0  0
  1  4  2  0  0  0  0
  1  5  1  0  0  0  0
  7  8  1  0  0  0  0
  8  9  2  0  0  0  0
  6  7  1  0  0  0  0
  3  6  1  0  0  0  0
 10 11  1  0  0  0  0
  5 10  1  0  0  0  0
M  END
>  <cdx:groupId>
34

>  <cdx:fragmentId>
5

$$$$
