93559.cdx
  Mrv1902 05222410222D          

 18 18  0  0  0  0            999 V2000
    6.4722   -4.7438    0.0000 C   0  0  0  0  0  0  0  0  0  0  0  0
    7.1867   -5.1563    0.0000 C   0  0  1  0  0  0  0  0  0  0  0  0
    7.1867   -5.9813    0.0000 O   0  0  0  0  0  0  0  0  0  0  0  0
    6.4722   -6.3937    0.0000 C   0  0  2  0  0  0  0  0  0  0  0  0
    5.7577   -5.9812    0.0000 O   0  0  0  0  0  0  0  0  0  0  0  0
    5.0432   -6.3937    0.0000 C   0  0  1  0  0  0  0  0  0  0  0  0
    5.0432   -7.2188    0.0000 C   0  0  2  0  0  0  0  0  0  0  0  0
    5.7577   -7.6313    0.0000 C   0  0  1  0  0  0  0  0  0  0  0  0
    6.4722   -7.2188    0.0000 C   0  0  1  0  0  0  0  0  0  0  0  0
    4.3288   -5.9813    0.0000 C   0  0  0  0  0  0  0  0  0  0  0  0
    5.7577   -8.4563    0.0000 O   0  0  0  0  0  0  0  0  0  0  0  0
    4.3288   -7.6313    0.0000 O   0  0  0  0  0  0  0  0  0  0  0  0
    7.1867   -7.6313    0.0000 O   0  0  0  0  0  0  0  0  0  0  0  0
    3.6143   -6.3937    0.0000 O   0  0  0  0  0  0  0  0  0  0  0  0
    5.7577   -4.3313    0.0000 N   0  0  0  0  0  0  0  0  0  0  0  0
    7.9011   -4.7438    0.0000 C   0  0  0  0  0  0  0  0  0  0  0  0
    8.6156   -5.1563    0.0000 C   0  0  0  0  0  0  0  0  0  0  0  0
    7.9011   -3.9188    0.0000 C   0  0  0  0  0  0  0  0  0  0  0  0
  1  2  1  0  0  0  0
  2  3  1  6  0  0  0
  4  3  1  1  0  0  0
  4  5  1  0  0  0  0
  5  6  1  0  0  0  0
  6  7  1  0  0  0  0
  7  8  1  0  0  0  0
  8  9  1  0  0  0  0
  9  4  1  0  0  0  0
  6 10  1  1  0  0  0
  8 11  1  1  0  0  0
  7 12  1  6  0  0  0
  9 13  1  6  0  0  0
 10 14  1  0  0  0  0
  1 15  3  0  0  0  0
  2 16  1  0  0  0  0
 16 17  2  0  0  0  0
 16 18  1  0  0  0  0
M  END
>  <cdx:fragmentId>
109

$$$$
