93552.cdx
  Mrv1902 05222410252D          

 24 24  0  0  0  0            999 V2000
    3.1468   -7.1362    0.0000 C   0  0  2  0  0  0  0  0  0  0  0  0
    3.1468   -7.9612    0.0000 C   0  0  2  0  0  0  0  0  0  0  0  0
    3.8613   -8.3737    0.0000 C   0  0  1  0  0  0  0  0  0  0  0  0
    4.5757   -7.9612    0.0000 C   0  0  2  0  0  0  0  0  0  0  0  0
    4.5757   -7.1362    0.0000 C   0  0  1  0  0  0  0  0  0  0  0  0
    3.8613   -6.7237    0.0000 O   0  0  0  0  0  0  0  0  0  0  0  0
    2.4323   -6.7237    0.0000 C   0  0  0  0  0  0  0  0  0  0  0  0
    5.2902   -6.7237    0.0000 O   0  0  0  0  0  0  0  0  0  0  0  0
    3.8613   -9.1987    0.0000 O   0  0  0  0  0  0  0  0  0  0  0  0
    2.4323   -8.3737    0.0000 O   0  0  0  0  0  0  0  0  0  0  0  0
    5.2902   -8.3737    0.0000 O   0  0  0  0  0  0  0  0  0  0  0  0
    1.7179   -7.1362    0.0000 O   0  0  0  0  0  0  0  0  0  0  0  0
    6.0047   -7.1362    0.0000 C   0  0  1  0  0  0  0  0  0  0  0  0
    6.7192   -6.7237    0.0000 C   0  0  0  0  0  0  0  0  0  0  0  0
    7.4336   -7.1362    0.0000 C   0  0  0  0  0  0  0  0  0  0  0  0
    8.1481   -6.7237    0.0000 C   0  0  0  0  0  0  0  0  0  0  0  0
    8.8626   -7.1362    0.0000 C   0  0  0  0  0  0  0  0  0  0  0  0
    9.5770   -6.7237    0.0000 C   0  0  0  0  0  0  0  0  0  0  0  0
    8.8626   -7.9612    0.0000 C   0  0  0  0  0  0  0  0  0  0  0  0
    9.5770   -7.5487    0.0000 O   0  0  0  0  0  0  0  0  0  0  0  0
    6.0047   -7.9612    0.0000 C   0  0  0  0  0  0  0  0  0  0  0  0
    6.7192   -8.3737    0.0000 C   0  0  0  0  0  0  0  0  0  0  0  0
    5.7912   -6.3394    0.0000 C   0  0  0  0  0  0  0  0  0  0  0  0
   10.2915   -7.1362    0.0000 O   0  0  0  0  0  0  0  0  0  0  0  0
  1  2  1  0  0  0  0
  2  3  1  0  0  0  0
  3  4  1  0  0  0  0
  4  5  1  0  0  0  0
  5  6  1  0  0  0  0
  6  1  1  0  0  0  0
  1  7  1  1  0  0  0
  5  8  1  1  0  0  0
  3  9  1  1  0  0  0
  2 10  1  6  0  0  0
  4 11  1  6  0  0  0
  7 12  1  0  0  0  0
 13  8  1  1  0  0  0
 13 14  1  0  0  0  0
 14 15  1  0  0  0  0
 15 16  2  0  0  0  0
 16 17  1  0  0  0  0
 17 18  1  0  0  0  0
 17 19  1  0  0  0  0
 17 20  1  0  0  0  0
 13 21  1  0  0  0  0
 21 22  2  0  0  0  0
 13 23  1  6  0  0  0
 20 24  1  0  0  0  0
M  END
>  <cdx:fragmentId>
5

$$$$
