93557.cdx
  Mrv1902 05222410232D          

 58 64  0  0  0  0            999 V2000
   11.0679   -6.6910    0.0000 H   0  0  0  0  0  0  0  0  0  0  0  0
    9.6390   -6.6910    0.0000 H   0  0  0  0  0  0  0  0  0  0  0  0
   10.3535   -7.9285    0.0000 H   0  0  0  0  0  0  0  0  0  0  0  0
   11.5555   -9.9936    0.0000 O   0  0  0  0  0  0  0  0  0  0  0  0
    3.9232   -7.5160    0.0000 O   0  0  0  0  0  0  0  0  0  0  0  0
    3.2088   -6.2785    0.0000 O   0  0  0  0  0  0  0  0  0  0  0  0
    3.9232   -5.8660    0.0000 C   0  0  0  0  0  0  0  0  0  0  0  0
    5.3522   -9.9910    0.0000 O   0  0  0  0  0  0  0  0  0  0  0  0
    3.9232  -10.8160    0.0000 O   0  0  0  0  0  0  0  0  0  0  0  0
    2.4943   -9.9910    0.0000 O   0  0  0  0  0  0  0  0  0  0  0  0
    1.7798   -8.7535    0.0000 O   0  0  0  0  0  0  0  0  0  0  0  0
    2.4943   -8.3410    0.0000 C   0  0  0  0  0  0  0  0  0  0  0  0
    3.2088   -8.7535    0.0000 C   0  0  2  0  0  0  0  0  0  0  0  0
    3.2088   -9.5785    0.0000 C   0  0  2  0  0  0  0  0  0  0  0  0
    3.9232   -9.9910    0.0000 C   0  0  1  0  0  0  0  0  0  0  0  0
    4.6377   -9.5785    0.0000 C   0  0  2  0  0  0  0  0  0  0  0  0
    4.6377   -8.7535    0.0000 C   0  0  1  0  0  0  0  0  0  0  0  0
    3.9232   -8.3410    0.0000 O   0  0  0  0  0  0  0  0  0  0  0  0
    5.3522   -8.3410    0.0000 O   0  0  0  0  0  0  0  0  0  0  0  0
    8.6387   -8.5885    0.0000 O   0  0  0  0  0  0  0  0  0  0  0  0
    8.6387  -10.2385    0.0000 O   0  0  0  0  0  0  0  0  0  0  0  0
    7.2098  -11.0635    0.0000 O   0  0  0  0  0  0  0  0  0  0  0  0
    5.7809  -10.2385    0.0000 C   0  0  0  0  0  0  0  0  0  0  0  0
    6.4953   -9.8260    0.0000 C   0  0  1  0  0  0  0  0  0  0  0  0
    7.2098  -10.2385    0.0000 C   0  0  1  0  0  0  0  0  0  0  0  0
    7.9243   -9.8260    0.0000 C   0  0  2  0  0  0  0  0  0  0  0  0
    7.9243   -9.0010    0.0000 C   0  0  2  0  0  0  0  0  0  0  0  0
    7.2098   -8.5885    0.0000 C   0  0  1  0  0  0  0  0  0  0  0  0
    6.4953   -9.0010    0.0000 O   0  0  0  0  0  0  0  0  0  0  0  0
    7.2098   -7.7635    0.0000 O   0  0  0  0  0  0  0  0  0  0  0  0
    4.6377   -6.2785    0.0000 C   0  0  2  0  0  0  0  0  0  0  0  0
    4.6377   -7.1035    0.0000 C   0  0  2  0  0  0  0  0  0  0  0  0
    5.3522   -7.5160    0.0000 C   0  0  1  0  0  0  0  0  0  0  0  0
    6.0666   -7.1035    0.0000 C   0  0  2  0  0  0  0  0  0  0  0  0
    6.0666   -6.2785    0.0000 C   0  0  1  0  0  0  0  0  0  0  0  0
    5.3522   -5.8660    0.0000 O   0  0  0  0  0  0  0  0  0  0  0  0
    6.7811   -5.8660    0.0000 O   0  0  0  0  0  0  0  0  0  0  0  0
    8.9245   -7.9285    0.0000 C   0  0  0  0  0  0  0  0  0  0  0  0
   11.1542   -9.1615    0.0000 C   0  0  0  0  0  0  0  0  0  0  0  0
    8.9245   -7.1035    0.0000 C   0  0  1  0  0  0  0  0  0  0  0  0
    9.6390   -7.5160    0.0000 C   0  0  1  0  0  0  0  0  0  0  0  0
    9.6390   -8.3410    0.0000 C   0  0  0  0  0  0  0  0  0  0  0  0
   10.3535   -8.7535    0.0000 C   0  0  0  0  0  0  0  0  0  0  0  0
   11.0679   -8.3410    0.0000 C   0  0  1  0  0  0  0  0  0  0  0  0
   11.8526   -8.5959    0.0000 C   0  0  0  0  0  0  0  0  0  0  0  0
   12.3375   -7.9285    0.0000 C   0  0  0  0  0  0  0  0  0  0  0  0
   11.8526   -7.2610    0.0000 C   0  0  0  0  0  0  0  0  0  0  0  0
   11.0679   -7.5160    0.0000 C   0  0  1  0  0  0  0  0  0  0  0  0
   10.3535   -7.1035    0.0000 C   0  0  2  0  0  0  0  0  0  0  0  0
   10.3535   -6.2785    0.0000 C   0  0  0  0  0  0  0  0  0  0  0  0
    9.6390   -5.8660    0.0000 C   0  0  0  0  0  0  0  0  0  0  0  0
    8.9245   -6.2785    0.0000 C   0  0  0  0  0  0  0  0  0  0  0  0
    8.2101   -5.8660    0.0000 C   0  0  0  0  0  0  0  0  0  0  0  0
    7.4956   -6.2785    0.0000 C   0  0  2  0  0  0  0  0  0  0  0  0
    7.4956   -7.1035    0.0000 C   0  0  0  0  0  0  0  0  0  0  0  0
    8.2101   -7.5160    0.0000 C   0  0  0  0  0  0  0  0  0  0  0  0
   12.9145   -9.5521    0.0000 C   0  0  0  0  0  0  0  0  0  0  0  0
   12.1075   -9.3805    0.0000 C   0  0  0  0  0  0  0  0  0  0  0  0
 48  1  1  1  0  0  0
 41  2  1  1  0  0  0
 49  3  1  6  0  0  0
 58  4  2  0  0  0  0
 58 45  1  0  0  0  0
 54 37  1  6  0  0  0
 35 37  1  1  0  0  0
 32  5  1  6  0  0  0
 31  7  1  1  0  0  0
  7  6  1  0  0  0  0
 33 19  1  1  0  0  0
 17 19  1  1  0  0  0
 16  8  1  6  0  0  0
 15  9  1  1  0  0  0
 14 10  1  6  0  0  0
 13 12  1  1  0  0  0
 12 11  1  0  0  0  0
 18 13  1  0  0  0  0
 14 13  1  0  0  0  0
 15 14  1  0  0  0  0
 16 15  1  0  0  0  0
 17 16  1  0  0  0  0
 18 17  1  0  0  0  0
 34 30  1  6  0  0  0
 28 30  1  1  0  0  0
 27 20  1  6  0  0  0
 26 21  1  6  0  0  0
 25 22  1  1  0  0  0
 24 23  1  6  0  0  0
 29 24  1  0  0  0  0
 25 24  1  0  0  0  0
 26 25  1  0  0  0  0
 27 26  1  0  0  0  0
 28 27  1  0  0  0  0
 29 28  1  0  0  0  0
 36 31  1  0  0  0  0
 32 31  1  0  0  0  0
 33 32  1  0  0  0  0
 34 33  1  0  0  0  0
 35 34  1  0  0  0  0
 36 35  1  0  0  0  0
 40 38  1  6  0  0  0
 44 39  1  6  0  0  0
 56 40  1  0  0  0  0
 52 40  1  0  0  0  0
 41 40  1  0  0  0  0
 49 41  1  0  0  0  0
 42 41  1  0  0  0  0
 43 42  1  0  0  0  0
 44 43  1  0  0  0  0
 48 44  1  0  0  0  0
 45 44  1  0  0  0  0
 46 45  2  0  0  0  0
 47 46  1  0  0  0  0
 48 47  1  0  0  0  0
 49 48  1  0  0  0  0
 50 49  1  0  0  0  0
 51 50  1  0  0  0  0
 52 51  2  0  0  0  0
 53 52  1  0  0  0  0
 54 53  1  0  0  0  0
 55 54  1  0  0  0  0
 56 55  1  0  0  0  0
 58 57  1  0  0  0  0
M  END
>  <cdx:groupId>
182

>  <cdx:fragmentId>
63

$$$$
