93555.cdx
  Mrv1902 05222410242D          

 12 11  0  0  0  0            999 V2000
    7.5529   -8.1013    0.0000 S   0  0  0  0  0  0  0  0  0  0  0  0
    8.2674   -8.5138    0.0000 S   0  0  0  0  0  0  0  0  0  0  0  0
    3.9805   -8.5138    0.0000 C   0  0  0  0  0  0  0  0  0  0  0  0
    4.6950   -8.1013    0.0000 C   0  0  0  0  0  0  0  0  0  0  0  0
    5.4095   -8.5138    0.0000 C   0  0  0  0  0  0  0  0  0  0  0  0
    6.1239   -8.1013    0.0000 S   0  0  0  0  0  0  0  0  0  0  0  0
    6.8384   -8.5138    0.0000 C   0  0  0  0  0  0  0  0  0  0  0  0
    6.8384   -9.3388    0.0000 C   0  0  0  0  0  0  0  0  0  0  0  0
    6.1239   -9.7513    0.0000 C   0  0  0  0  0  0  0  0  0  0  0  0
    8.9818   -8.1013    0.0000 C   0  0  0  0  0  0  0  0  0  0  0  0
    9.6963   -8.5138    0.0000 C   0  0  0  0  0  0  0  0  0  0  0  0
   10.4108   -8.1013    0.0000 C   0  0  0  0  0  0  0  0  0  0  0  0
  1  2  1  0  0  0  0
  3  4  1  0  0  0  0
  4  5  2  0  0  0  0
  5  6  1  0  0  0  0
  6  7  1  0  0  0  0
  7  8  1  0  0  0  0
  8  9  1  0  0  0  0
  1  7  1  0  0  0  0
 10 11  1  0  0  0  0
 11 12  1  0  0  0  0
  2 10  1  0  0  0  0
M  END
>  <cdx:groupId>
40

>  <cdx:fragmentId>
9

$$$$
