93567.cdx
  Mrv1902 05222410222D          

 31 34  0  0  0  0            999 V2000
    3.4768   -7.7825    0.0000 C   0  0  0  0  0  0  0  0  0  0  0  0
    3.4768   -8.6075    0.0000 C   0  0  0  0  0  0  0  0  0  0  0  0
    4.1913   -9.0200    0.0000 C   0  0  0  0  0  0  0  0  0  0  0  0
    4.9057   -8.6075    0.0000 C   0  0  0  0  0  0  0  0  0  0  0  0
    4.9057   -7.7825    0.0000 C   0  0  0  0  0  0  0  0  0  0  0  0
    4.1913   -7.3700    0.0000 C   0  0  0  0  0  0  0  0  0  0  0  0
    5.6202   -9.0200    0.0000 C   0  0  0  0  0  0  0  0  0  0  0  0
    6.3347   -8.6075    0.0000 C   0  0  0  0  0  0  0  0  0  0  0  0
    6.3347   -7.7825    0.0000 C   0  0  0  0  0  0  0  0  0  0  0  0
    5.6202   -7.3700    0.0000 O   0  0  0  0  0  0  0  0  0  0  0  0
    7.7636   -7.7825    0.0000 C   0  0  0  0  0  0  0  0  0  0  0  0
    7.0492   -7.3700    0.0000 C   0  0  0  0  0  0  0  0  0  0  0  0
    8.4781   -7.3700    0.0000 C   0  0  0  0  0  0  0  0  0  0  0  0
    8.4781   -6.5450    0.0000 C   0  0  0  0  0  0  0  0  0  0  0  0
    7.7636   -6.1325    0.0000 C   0  0  0  0  0  0  0  0  0  0  0  0
    7.0492   -6.5450    0.0000 C   0  0  0  0  0  0  0  0  0  0  0  0
    2.7623   -7.3700    0.0000 O   0  0  0  0  0  0  0  0  0  0  0  0
    4.1913   -9.8450    0.0000 O   0  0  0  0  0  0  0  0  0  0  0  0
    5.6202   -9.8450    0.0000 O   0  0  0  0  0  0  0  0  0  0  0  0
    9.1926   -6.1325    0.0000 O   0  0  0  0  0  0  0  0  0  0  0  0
   10.5999   -7.7993    0.0000 C   0  0  2  0  0  0  0  0  0  0  0  0
   11.3197   -7.3963    0.0000 C   0  0  2  0  0  0  0  0  0  0  0  0
   11.3307   -6.5713    0.0000 C   0  0  1  0  0  0  0  0  0  0  0  0
   10.6217   -6.1494    0.0000 C   0  0  2  0  0  0  0  0  0  0  0  0
    9.9019   -6.5524    0.0000 C   0  0  1  0  0  0  0  0  0  0  0  0
    9.8909   -7.3773    0.0000 O   0  0  0  0  0  0  0  0  0  0  0  0
   10.5889   -8.6242    0.0000 C   0  0  0  0  0  0  0  0  0  0  0  0
   12.0505   -6.1683    0.0000 O   0  0  0  0  0  0  0  0  0  0  0  0
   12.0287   -7.8182    0.0000 O   0  0  0  0  0  0  0  0  0  0  0  0
   10.6327   -5.3245    0.0000 O   0  0  0  0  0  0  0  0  0  0  0  0
   11.2979   -9.0461    0.0000 O   0  0  0  0  0  0  0  0  0  0  0  0
  1  2  2  0  0  0  0
  2  3  1  0  0  0  0
  3  4  2  0  0  0  0
  4  5  1  0  0  0  0
  5  6  2  0  0  0  0
  6  1  1  0  0  0  0
  4  7  1  0  0  0  0
  7  8  1  0  0  0  0
  8  9  2  0  0  0  0
  9 10  1  0  0  0  0
 10  5  1  0  0  0  0
 11 12  2  0  0  0  0
 12  9  1  0  0  0  0
 11 13  1  0  0  0  0
 13 14  2  0  0  0  0
 14 15  1  0  0  0  0
 15 16  2  0  0  0  0
 16 12  1  0  0  0  0
  1 17  1  0  0  0  0
  3 18  1  0  0  0  0
  7 19  2  0  0  0  0
 14 20  1  0  0  0  0
 21 22  1  0  0  0  0
 22 23  1  0  0  0  0
 23 24  1  0  0  0  0
 24 25  1  0  0  0  0
 25 26  1  0  0  0  0
 26 21  1  0  0  0  0
 21 27  1  1  0  0  0
 23 28  1  1  0  0  0
 22 29  1  6  0  0  0
 24 30  1  6  0  0  0
 27 31  1  0  0  0  0
 25 20  1  1  0  0  0
M  END
>  <cdx:fragmentId>
5

$$$$
