93561.cdx
  Mrv1902 05222410212D          

 29 31  0  0  0  0            999 V2000
    7.8108   -6.9424    0.0000 C   0  0  0  0  0  0  0  0  0  0  0  0
    8.5198   -7.3641    0.0000 C   0  0  0  0  0  0  0  0  0  0  0  0
    9.2396   -6.9609    0.0000 C   0  0  0  0  0  0  0  0  0  0  0  0
    9.2503   -6.1359    0.0000 C   0  0  0  0  0  0  0  0  0  0  0  0
    8.5412   -5.7142    0.0000 C   0  0  0  0  0  0  0  0  0  0  0  0
    7.8214   -6.1175    0.0000 C   0  0  0  0  0  0  0  0  0  0  0  0
    9.9486   -7.3826    0.0000 O   0  0  0  0  0  0  0  0  0  0  0  0
    9.9700   -5.7327    0.0000 O   0  0  0  0  0  0  0  0  0  0  0  0
    9.9581   -8.2090    0.0000 C   0  0  1  0  0  0  0  0  0  0  0  0
   10.6694   -8.6269    0.0000 C   0  0  2  0  0  0  0  0  0  0  0  0
   11.3870   -8.2198    0.0000 O   0  0  0  0  0  0  0  0  0  0  0  0
   10.6632   -9.4519    0.0000 C   0  0  1  0  0  0  0  0  0  0  0  0
   11.3745   -9.8698    0.0000 O   0  0  0  0  0  0  0  0  0  0  0  0
    9.9456   -9.8590    0.0000 C   0  0  2  0  0  0  0  0  0  0  0  0
    9.9394  -10.6840    0.0000 O   0  0  0  0  0  0  0  0  0  0  0  0
    9.2343   -9.4411    0.0000 C   0  0  2  0  0  0  0  0  0  0  0  0
    9.2405   -8.6161    0.0000 O   0  0  0  0  0  0  0  0  0  0  0  0
    8.5167   -9.8482    0.0000 C   0  0  0  0  0  0  0  0  0  0  0  0
    8.5105  -10.6732    0.0000 O   0  0  0  0  0  0  0  0  0  0  0  0
    4.9211   -9.3802    0.0000 O   0  0  0  0  0  0  0  0  0  0  0  0
    3.5243   -6.8869    0.0000 O   0  0  0  0  0  0  0  0  0  0  0  0
    4.9531   -6.9054    0.0000 C   0  0  0  0  0  0  0  0  0  0  0  0
    4.2334   -7.3086    0.0000 C   0  0  0  0  0  0  0  0  0  0  0  0
    4.2227   -8.1335    0.0000 C   0  0  0  0  0  0  0  0  0  0  0  0
    4.9318   -8.5553    0.0000 C   0  0  0  0  0  0  0  0  0  0  0  0
    5.6515   -8.1520    0.0000 C   0  0  0  0  0  0  0  0  0  0  0  0
    5.6622   -7.3271    0.0000 C   0  0  0  0  0  0  0  0  0  0  0  0
    6.3819   -6.9239    0.0000 C   0  0  0  0  0  0  0  0  0  0  0  0
    7.0910   -7.3456    0.0000 C   0  0  0  0  0  0  0  0  0  0  0  0
  1  2  1  0  0  0  0
  2  3  2  0  0  0  0
  3  4  1  0  0  0  0
  4  5  2  0  0  0  0
  5  6  1  0  0  0  0
  1  6  2  0  0  0  0
  3  7  1  0  0  0  0
  4  8  1  0  0  0  0
 25 20  1  0  0  0  0
 23 21  1  0  0  0  0
  9 10  1  0  0  0  0
 10 11  1  6  0  0  0
 10 12  1  0  0  0  0
 12 13  1  1  0  0  0
 29  1  1  0  0  0  0
 27 22  2  0  0  0  0
 23 22  1  0  0  0  0
 24 23  2  0  0  0  0
 25 24  1  0  0  0  0
 26 25  2  0  0  0  0
 27 26  1  0  0  0  0
 28 27  1  0  0  0  0
 29 28  2  0  0  0  0
 12 14  1  0  0  0  0
 14 15  1  6  0  0  0
 14 16  1  0  0  0  0
 16 17  1  0  0  0  0
 16 18  1  1  0  0  0
 18 19  1  0  0  0  0
  9 17  1  0  0  0  0
  9  7  1  1  0  0  0
M  END
>  <cdx:fragmentId>
5

$$$$
