93566.cdx
  Mrv1902 05222410232D          

 39 42  0  0  0  0            999 V2000
    6.8660   -5.4381    0.0000 O   0  0  0  0  0  0  0  0  0  0  0  0
    7.5809   -5.8498    0.0000 C   0  0  0  0  0  0  0  0  0  0  0  0
    7.5818   -6.6748    0.0000 C   0  0  0  0  0  0  0  0  0  0  0  0
    8.2968   -7.0865    0.0000 C   0  0  0  0  0  0  0  0  0  0  0  0
    9.0108   -6.6732    0.0000 C   0  0  0  0  0  0  0  0  0  0  0  0
    9.0099   -5.8482    0.0000 C   0  0  0  0  0  0  0  0  0  0  0  0
    8.2950   -5.4365    0.0000 C   0  0  0  0  0  0  0  0  0  0  0  0
    9.7239   -5.4350    0.0000 C   0  0  0  0  0  0  0  0  0  0  0  0
   10.4388   -5.8467    0.0000 C   0  0  0  0  0  0  0  0  0  0  0  0
   11.1529   -5.4334    0.0000 C   0  0  0  0  0  0  0  0  0  0  0  0
   11.1520   -4.6084    0.0000 C   0  0  0  0  0  0  0  0  0  0  0  0
   11.8660   -4.1952    0.0000 C   0  0  0  0  0  0  0  0  0  0  0  0
   12.5809   -4.6069    0.0000 C   0  0  0  0  0  0  0  0  0  0  0  0
   12.5818   -5.4319    0.0000 C   0  0  0  0  0  0  0  0  0  0  0  0
   11.8678   -5.8452    0.0000 C   0  0  0  0  0  0  0  0  0  0  0  0
   13.2949   -4.1936    0.0000 O   0  0  0  0  0  0  0  0  0  0  0  0
    8.2976   -7.9115    0.0000 O   0  0  0  0  0  0  0  0  0  0  0  0
    7.5832   -8.3240    0.0000 C   0  0  2  0  0  0  0  0  0  0  0  0
    6.8687   -7.9115    0.0000 O   0  0  0  0  0  0  0  0  0  0  0  0
    6.1542   -8.3240    0.0000 C   0  0  1  0  0  0  0  0  0  0  0  0
    6.1542   -9.1490    0.0000 C   0  0  2  0  0  0  0  0  0  0  0  0
    6.8687   -9.5615    0.0000 C   0  0  1  0  0  0  0  0  0  0  0  0
    7.5832   -9.1490    0.0000 C   0  0  1  0  0  0  0  0  0  0  0  0
    5.4398   -7.9115    0.0000 C   0  0  0  0  0  0  0  0  0  0  0  0
    6.8687  -10.3865    0.0000 O   0  0  0  0  0  0  0  0  0  0  0  0
    5.4398   -9.5615    0.0000 O   0  0  0  0  0  0  0  0  0  0  0  0
    8.2976   -9.5615    0.0000 O   0  0  0  0  0  0  0  0  0  0  0  0
    4.7253   -8.3240    0.0000 O   0  0  0  0  0  0  0  0  0  0  0  0
    4.0116   -8.7411    0.0000 C   0  0  0  0  0  0  0  0  0  0  0  0
    3.2987   -8.3258    0.0000 C   0  0  0  0  0  0  0  0  0  0  0  0
    4.0083   -9.5661    0.0000 O   0  0  0  0  0  0  0  0  0  0  0  0
    3.3020   -7.5008    0.0000 C   0  0  0  0  0  0  0  0  0  0  0  0
    2.5891   -7.0855    0.0000 C   0  0  0  0  0  0  0  0  0  0  0  0
    1.8730   -7.4952    0.0000 C   0  0  0  0  0  0  0  0  0  0  0  0
    1.8698   -8.3202    0.0000 C   0  0  0  0  0  0  0  0  0  0  0  0
    2.5826   -8.7355    0.0000 C   0  0  0  0  0  0  0  0  0  0  0  0
    2.5923   -6.2605    0.0000 O   0  0  0  0  0  0  0  0  0  0  0  0
    1.1602   -7.0799    0.0000 O   0  0  0  0  0  0  0  0  0  0  0  0
    1.1537   -8.7299    0.0000 O   0  0  0  0  0  0  0  0  0  0  0  0
  2  3  1  0  0  0  0
  3  4  2  0  0  0  0
  4  5  1  0  0  0  0
  5  6  2  0  0  0  0
  6  7  1  0  0  0  0
  2  7  2  0  0  0  0
  1  2  1  0  0  0  0
  8  9  2  0  0  0  0
 10 11  1  0  0  0  0
 11 12  2  0  0  0  0
 12 13  1  0  0  0  0
 13 14  2  0  0  0  0
 14 15  1  0  0  0  0
 10 15  2  0  0  0  0
 13 16  1  0  0  0  0
  9 10  1  0  0  0  0
  6  8  1  0  0  0  0
  4 17  1  0  0  0  0
 18 17  1  1  0  0  0
 18 19  1  0  0  0  0
 19 20  1  0  0  0  0
 20 21  1  0  0  0  0
 21 22  1  0  0  0  0
 22 23  1  0  0  0  0
 23 18  1  0  0  0  0
 20 24  1  1  0  0  0
 22 25  1  1  0  0  0
 21 26  1  6  0  0  0
 23 27  1  6  0  0  0
 24 28  1  0  0  0  0
 29 30  1  0  0  0  0
 29 31  2  0  0  0  0
 30 32  2  0  0  0  0
 32 33  1  0  0  0  0
 33 34  2  0  0  0  0
 34 35  1  0  0  0  0
 35 36  2  0  0  0  0
 36 30  1  0  0  0  0
 33 37  1  0  0  0  0
 34 38  1  0  0  0  0
 35 39  1  0  0  0  0
 29 28  1  0  0  0  0
M  END
>  <cdx:groupId>
88

>  <cdx:fragmentId>
45

$$$$
