93565.cdx
  Mrv1902 05222410222D          

 39 42  0  0  0  0            999 V2000
    4.1573   -4.9431    0.0000 O   0  0  0  0  0  0  0  0  0  0  0  0
    4.8722   -5.3548    0.0000 C   0  0  0  0  0  0  0  0  0  0  0  0
    4.8731   -6.1798    0.0000 C   0  0  0  0  0  0  0  0  0  0  0  0
    5.5880   -6.5915    0.0000 C   0  0  0  0  0  0  0  0  0  0  0  0
    6.3020   -6.1782    0.0000 C   0  0  0  0  0  0  0  0  0  0  0  0
    6.3011   -5.3532    0.0000 C   0  0  0  0  0  0  0  0  0  0  0  0
    5.5862   -4.9415    0.0000 C   0  0  0  0  0  0  0  0  0  0  0  0
    7.0152   -4.9400    0.0000 C   0  0  0  0  0  0  0  0  0  0  0  0
    7.7301   -5.3517    0.0000 C   0  0  0  0  0  0  0  0  0  0  0  0
    8.4441   -4.9384    0.0000 C   0  0  0  0  0  0  0  0  0  0  0  0
    8.4432   -4.1134    0.0000 C   0  0  0  0  0  0  0  0  0  0  0  0
    9.1572   -3.7002    0.0000 C   0  0  0  0  0  0  0  0  0  0  0  0
    9.8722   -4.1119    0.0000 C   0  0  0  0  0  0  0  0  0  0  0  0
    9.8730   -4.9369    0.0000 C   0  0  0  0  0  0  0  0  0  0  0  0
    9.1590   -5.3502    0.0000 C   0  0  0  0  0  0  0  0  0  0  0  0
   10.5862   -3.6986    0.0000 O   0  0  0  0  0  0  0  0  0  0  0  0
    5.5889   -7.4165    0.0000 O   0  0  0  0  0  0  0  0  0  0  0  0
    4.8744   -7.8290    0.0000 C   0  0  2  0  0  0  0  0  0  0  0  0
    4.1600   -7.4165    0.0000 O   0  0  0  0  0  0  0  0  0  0  0  0
    3.4455   -7.8290    0.0000 C   0  0  1  0  0  0  0  0  0  0  0  0
    3.4455   -8.6540    0.0000 C   0  0  2  0  0  0  0  0  0  0  0  0
    4.1600   -9.0665    0.0000 C   0  0  1  0  0  0  0  0  0  0  0  0
    4.8744   -8.6540    0.0000 C   0  0  1  0  0  0  0  0  0  0  0  0
    2.7310   -7.4165    0.0000 C   0  0  0  0  0  0  0  0  0  0  0  0
    4.1600   -9.8915    0.0000 O   0  0  0  0  0  0  0  0  0  0  0  0
    2.7310   -9.0665    0.0000 O   0  0  0  0  0  0  0  0  0  0  0  0
    5.5889   -9.0665    0.0000 O   0  0  0  0  0  0  0  0  0  0  0  0
    2.0165   -7.8290    0.0000 O   0  0  0  0  0  0  0  0  0  0  0  0
    6.3034   -8.6540    0.0000 C   0  0  0  0  0  0  0  0  0  0  0  0
    7.0178   -9.0665    0.0000 C   0  0  0  0  0  0  0  0  0  0  0  0
    6.3034   -7.8290    0.0000 O   0  0  0  0  0  0  0  0  0  0  0  0
    7.0178   -9.8915    0.0000 C   0  0  0  0  0  0  0  0  0  0  0  0
    7.7323  -10.3040    0.0000 C   0  0  0  0  0  0  0  0  0  0  0  0
    8.4468   -9.8915    0.0000 C   0  0  0  0  0  0  0  0  0  0  0  0
    8.4468   -9.0665    0.0000 C   0  0  0  0  0  0  0  0  0  0  0  0
    7.7323   -8.6540    0.0000 C   0  0  0  0  0  0  0  0  0  0  0  0
    7.7323  -11.1290    0.0000 O   0  0  0  0  0  0  0  0  0  0  0  0
    9.1612  -10.3040    0.0000 O   0  0  0  0  0  0  0  0  0  0  0  0
    9.1612   -8.6540    0.0000 O   0  0  0  0  0  0  0  0  0  0  0  0
  2  3  1  0  0  0  0
  3  4  2  0  0  0  0
  4  5  1  0  0  0  0
  5  6  2  0  0  0  0
  6  7  1  0  0  0  0
  2  7  2  0  0  0  0
  1  2  1  0  0  0  0
  8  9  2  0  0  0  0
 10 11  1  0  0  0  0
 11 12  2  0  0  0  0
 12 13  1  0  0  0  0
 13 14  2  0  0  0  0
 14 15  1  0  0  0  0
 10 15  2  0  0  0  0
 13 16  1  0  0  0  0
  9 10  1  0  0  0  0
  6  8  1  0  0  0  0
  4 17  1  0  0  0  0
 18 17  1  1  0  0  0
 18 19  1  0  0  0  0
 19 20  1  0  0  0  0
 20 21  1  0  0  0  0
 21 22  1  0  0  0  0
 22 23  1  0  0  0  0
 23 18  1  0  0  0  0
 20 24  1  1  0  0  0
 22 25  1  1  0  0  0
 21 26  1  6  0  0  0
 23 27  1  6  0  0  0
 24 28  1  0  0  0  0
 27 29  1  0  0  0  0
 29 30  1  0  0  0  0
 29 31  2  0  0  0  0
 30 32  2  0  0  0  0
 32 33  1  0  0  0  0
 33 34  2  0  0  0  0
 34 35  1  0  0  0  0
 35 36  2  0  0  0  0
 36 30  1  0  0  0  0
 33 37  1  0  0  0  0
 34 38  1  0  0  0  0
 35 39  1  0  0  0  0
M  END
>  <cdx:groupId>
88

>  <cdx:fragmentId>
45

$$$$
