93563.cdx
  Mrv1902 05222410212D          

 29 31  0  0  0  0            999 V2000
    4.2683   -6.9109    0.0000 O   0  0  0  0  0  0  0  0  0  0  0  0
    4.9833   -7.3226    0.0000 C   0  0  2  0  0  0  0  0  0  0  0  0
    4.9841   -8.1476    0.0000 C   0  0  1  0  0  0  0  0  0  0  0  0
    4.2701   -8.5609    0.0000 C   0  0  2  0  0  0  0  0  0  0  0  0
    3.5552   -8.1491    0.0000 C   0  0  1  0  0  0  0  0  0  0  0  0
    3.5543   -7.3241    0.0000 C   0  0  1  0  0  0  0  0  0  0  0  0
    5.6991   -8.5593    0.0000 O   0  0  0  0  0  0  0  0  0  0  0  0
    4.2710   -9.3859    0.0000 O   0  0  0  0  0  0  0  0  0  0  0  0
    2.8412   -8.5624    0.0000 O   0  0  0  0  0  0  0  0  0  0  0  0
    2.8394   -6.9124    0.0000 C   0  0  0  0  0  0  0  0  0  0  0  0
    2.1254   -7.3257    0.0000 O   0  0  0  0  0  0  0  0  0  0  0  0
    5.6973   -6.9093    0.0000 O   0  0  0  0  0  0  0  0  0  0  0  0
    6.4122   -7.3210    0.0000 C   0  0  0  0  0  0  0  0  0  0  0  0
    6.4131   -8.1460    0.0000 C   0  0  0  0  0  0  0  0  0  0  0  0
    7.1280   -8.5578    0.0000 C   0  0  0  0  0  0  0  0  0  0  0  0
    7.8420   -8.1445    0.0000 C   0  0  0  0  0  0  0  0  0  0  0  0
    7.8411   -7.3195    0.0000 C   0  0  0  0  0  0  0  0  0  0  0  0
    7.1262   -6.9078    0.0000 C   0  0  0  0  0  0  0  0  0  0  0  0
    8.5552   -6.9062    0.0000 C   0  0  0  0  0  0  0  0  0  0  0  0
    9.2701   -7.3180    0.0000 C   0  0  0  0  0  0  0  0  0  0  0  0
    9.9841   -6.9047    0.0000 C   0  0  0  0  0  0  0  0  0  0  0  0
    9.9832   -6.0797    0.0000 C   0  0  0  0  0  0  0  0  0  0  0  0
   10.6972   -5.6664    0.0000 C   0  0  0  0  0  0  0  0  0  0  0  0
   11.4122   -6.0781    0.0000 C   0  0  0  0  0  0  0  0  0  0  0  0
   11.4130   -6.9031    0.0000 C   0  0  0  0  0  0  0  0  0  0  0  0
   10.6990   -7.3164    0.0000 C   0  0  0  0  0  0  0  0  0  0  0  0
   12.1262   -5.6649    0.0000 O   0  0  0  0  0  0  0  0  0  0  0  0
    7.1289   -9.3828    0.0000 O   0  0  0  0  0  0  0  0  0  0  0  0
    2.8385   -6.0874    0.0000 O   0  0  0  0  0  0  0  0  0  0  0  0
  1  2  1  0  0  0  0
  2  3  1  0  0  0  0
  3  4  1  0  0  0  0
  4  5  1  0  0  0  0
  5  6  1  0  0  0  0
  1  6  1  0  0  0  0
  3  7  1  6  0  0  0
  4  8  1  1  0  0  0
  5  9  1  6  0  0  0
 10 11  1  0  0  0  0
  6 10  1  1  0  0  0
 13 14  1  0  0  0  0
 14 15  2  0  0  0  0
 15 16  1  0  0  0  0
 16 17  2  0  0  0  0
 17 18  1  0  0  0  0
 13 18  2  0  0  0  0
 12 13  1  0  0  0  0
 19 20  2  0  0  0  0
 21 22  1  0  0  0  0
 22 23  2  0  0  0  0
 23 24  1  0  0  0  0
 24 25  2  0  0  0  0
 25 26  1  0  0  0  0
 21 26  2  0  0  0  0
 24 27  1  0  0  0  0
 20 21  1  0  0  0  0
 17 19  1  0  0  0  0
 15 28  1  0  0  0  0
  2 12  1  1  0  0  0
 10 29  2  0  0  0  0
M  END
>  <cdx:fragmentId>
45

$$$$
