93560.cdx
  Mrv1902 05222410212D          

 29 31  0  0  0  0            999 V2000
    9.8773   -8.8347    0.0000 O   0  0  0  0  0  0  0  0  0  0  0  0
    5.5928  -10.4908    0.0000 C   0  0  0  0  0  0  0  0  0  0  0  0
    4.8778  -10.0793    0.0000 C   0  0  0  0  0  0  0  0  0  0  0  0
    4.1639  -10.4929    0.0000 C   0  0  0  0  0  0  0  0  0  0  0  0
    4.1650  -11.3179    0.0000 C   0  0  0  0  0  0  0  0  0  0  0  0
    4.8801  -11.7293    0.0000 C   0  0  0  0  0  0  0  0  0  0  0  0
    5.5940  -11.3158    0.0000 C   0  0  0  0  0  0  0  0  0  0  0  0
   10.5869   -9.2556    0.0000 C   0  0  1  0  0  0  0  0  0  0  0  0
   11.3061   -8.8514    0.0000 C   0  0  2  0  0  0  0  0  0  0  0  0
   11.3158   -8.0265    0.0000 O   0  0  0  0  0  0  0  0  0  0  0  0
   12.0157   -9.2722    0.0000 C   0  0  1  0  0  0  0  0  0  0  0  0
   12.7350   -8.8681    0.0000 O   0  0  0  0  0  0  0  0  0  0  0  0
   12.0061  -10.0972    0.0000 C   0  0  2  0  0  0  0  0  0  0  0  0
   12.7157  -10.5180    0.0000 O   0  0  0  0  0  0  0  0  0  0  0  0
    4.8813  -12.5543    0.0000 O   0  0  0  0  0  0  0  0  0  0  0  0
    3.4488  -10.0814    0.0000 O   0  0  0  0  0  0  0  0  0  0  0  0
   11.2869  -10.5013    0.0000 C   0  0  2  0  0  0  0  0  0  0  0  0
   10.5773  -10.0805    0.0000 O   0  0  0  0  0  0  0  0  0  0  0  0
   11.2773  -11.3262    0.0000 C   0  0  0  0  0  0  0  0  0  0  0  0
   11.9869  -11.7471    0.0000 O   0  0  0  0  0  0  0  0  0  0  0  0
    8.4507  -10.4868    0.0000 C   0  0  0  0  0  0  0  0  0  0  0  0
    9.1646  -10.0733    0.0000 C   0  0  0  0  0  0  0  0  0  0  0  0
    9.1634   -9.2483    0.0000 C   0  0  0  0  0  0  0  0  0  0  0  0
    8.4484   -8.8368    0.0000 C   0  0  0  0  0  0  0  0  0  0  0  0
    7.7345   -9.2503    0.0000 C   0  0  0  0  0  0  0  0  0  0  0  0
    7.7356  -10.0753    0.0000 C   0  0  0  0  0  0  0  0  0  0  0  0
    6.3067  -10.0773    0.0000 C   0  0  0  0  0  0  0  0  0  0  0  0
    7.0218  -10.4888    0.0000 C   0  0  0  0  0  0  0  0  0  0  0  0
    9.8796  -10.4847    0.0000 O   0  0  0  0  0  0  0  0  0  0  0  0
 23  1  1  0  0  0  0
 26 21  2  0  0  0  0
 22 21  1  0  0  0  0
 23 22  2  0  0  0  0
 24 23  1  0  0  0  0
 25 24  2  0  0  0  0
 26 25  1  0  0  0  0
 28 26  1  0  0  0  0
 28 27  2  0  0  0  0
 27  2  1  0  0  0  0
  2  3  1  0  0  0  0
  3  4  2  0  0  0  0
  4  5  1  0  0  0  0
  5  6  2  0  0  0  0
  6  7  1  0  0  0  0
  2  7  2  0  0  0  0
  8  1  1  1  0  0  0
  8  9  1  0  0  0  0
  9 10  1  6  0  0  0
  9 11  1  0  0  0  0
 11 12  1  1  0  0  0
 11 13  1  0  0  0  0
 13 14  1  6  0  0  0
 13 17  1  0  0  0  0
  6 15  1  0  0  0  0
  4 16  1  0  0  0  0
 17 18  1  0  0  0  0
 17 19  1  1  0  0  0
 19 20  1  0  0  0  0
  8 18  1  0  0  0  0
 22 29  1  0  0  0  0
M  END
>  <cdx:fragmentId>
5

$$$$
