93564.cdx
  Mrv1902 05222410222D          

 28 30  0  0  0  0            999 V2000
    5.6973   -6.9093    0.0000 O   0  0  0  0  0  0  0  0  0  0  0  0
    6.4122   -7.3210    0.0000 C   0  0  0  0  0  0  0  0  0  0  0  0
    6.4131   -8.1460    0.0000 C   0  0  0  0  0  0  0  0  0  0  0  0
    7.1280   -8.5578    0.0000 C   0  0  0  0  0  0  0  0  0  0  0  0
    7.8420   -8.1445    0.0000 C   0  0  0  0  0  0  0  0  0  0  0  0
    7.8411   -7.3195    0.0000 C   0  0  0  0  0  0  0  0  0  0  0  0
    7.1262   -6.9078    0.0000 C   0  0  0  0  0  0  0  0  0  0  0  0
    8.5552   -6.9062    0.0000 C   0  0  0  0  0  0  0  0  0  0  0  0
    9.2701   -7.3180    0.0000 C   0  0  0  0  0  0  0  0  0  0  0  0
    9.9841   -6.9047    0.0000 C   0  0  0  0  0  0  0  0  0  0  0  0
    9.9832   -6.0797    0.0000 C   0  0  0  0  0  0  0  0  0  0  0  0
   10.6972   -5.6664    0.0000 C   0  0  0  0  0  0  0  0  0  0  0  0
   11.4122   -6.0781    0.0000 C   0  0  0  0  0  0  0  0  0  0  0  0
   11.4130   -6.9031    0.0000 C   0  0  0  0  0  0  0  0  0  0  0  0
   10.6990   -7.3164    0.0000 C   0  0  0  0  0  0  0  0  0  0  0  0
   12.1262   -5.6649    0.0000 O   0  0  0  0  0  0  0  0  0  0  0  0
    7.1289   -9.3828    0.0000 O   0  0  0  0  0  0  0  0  0  0  0  0
    6.4149   -9.7960    0.0000 C   0  0  2  0  0  0  0  0  0  0  0  0
    5.6995   -9.3851    0.0000 O   0  0  0  0  0  0  0  0  0  0  0  0
    4.9859   -9.7960    0.0000 C   0  0  1  0  0  0  0  0  0  0  0  0
    4.9859  -10.6210    0.0000 C   0  0  2  0  0  0  0  0  0  0  0  0
    5.6995  -11.0320    0.0000 C   0  0  1  0  0  0  0  0  0  0  0  0
    6.4149  -10.6210    0.0000 C   0  0  1  0  0  0  0  0  0  0  0  0
    4.2717   -9.3832    0.0000 C   0  0  0  0  0  0  0  0  0  0  0  0
    5.6991  -11.8570    0.0000 O   0  0  0  0  0  0  0  0  0  0  0  0
    7.1289  -11.0343    0.0000 O   0  0  0  0  0  0  0  0  0  0  0  0
    4.2717  -11.0339    0.0000 O   0  0  0  0  0  0  0  0  0  0  0  0
    3.5570   -9.7953    0.0000 O   0  0  0  0  0  0  0  0  0  0  0  0
  2  3  1  0  0  0  0
  3  4  2  0  0  0  0
  4  5  1  0  0  0  0
  5  6  2  0  0  0  0
  6  7  1  0  0  0  0
  2  7  2  0  0  0  0
  1  2  1  0  0  0  0
  8  9  2  0  0  0  0
 10 11  1  0  0  0  0
 11 12  2  0  0  0  0
 12 13  1  0  0  0  0
 13 14  2  0  0  0  0
 14 15  1  0  0  0  0
 10 15  2  0  0  0  0
 13 16  1  0  0  0  0
  9 10  1  0  0  0  0
  6  8  1  0  0  0  0
  4 17  1  0  0  0  0
 18 17  1  1  0  0  0
 18 19  1  0  0  0  0
 19 20  1  0  0  0  0
 20 21  1  0  0  0  0
 21 22  1  0  0  0  0
 22 23  1  0  0  0  0
 23 18  1  0  0  0  0
 20 24  1  1  0  0  0
 22 25  1  1  0  0  0
 23 26  1  6  0  0  0
 21 27  1  6  0  0  0
 24 28  1  0  0  0  0
M  END
>  <cdx:fragmentId>
45

$$$$
