93568.cdx
  Mrv1902 05222410242D          

 48 53  0  0  0  0            999 V2000
    3.5043  -10.7112    0.0000 C   0  0  0  0  0  0  0  0  0  0  0  0
    3.5043  -11.5362    0.0000 C   0  0  1  0  0  0  0  0  0  0  0  0
    4.2188  -11.9488    0.0000 C   0  0  0  0  0  0  0  0  0  0  0  0
    4.9332  -11.5362    0.0000 C   0  0  0  0  0  0  0  0  0  0  0  0
    4.9332  -10.7112    0.0000 C   0  0  2  0  0  0  0  0  0  0  0  0
    4.2188  -10.2988    0.0000 C   0  0  0  0  0  0  0  0  0  0  0  0
    5.6477  -11.9488    0.0000 C   0  0  0  0  0  0  0  0  0  0  0  0
    6.3622  -11.5362    0.0000 C   0  0  0  0  0  0  0  0  0  0  0  0
    6.3622  -10.7112    0.0000 C   0  0  2  0  0  0  0  0  0  0  0  0
    5.6477  -10.2988    0.0000 C   0  0  2  0  0  0  0  0  0  0  0  0
    7.0767  -10.2988    0.0000 C   0  0  1  0  0  0  0  0  0  0  0  0
    7.0767   -9.4738    0.0000 C   0  0  1  0  0  0  0  0  0  0  0  0
    6.3622   -9.0613    0.0000 C   0  0  0  0  0  0  0  0  0  0  0  0
    5.6477   -9.4738    0.0000 C   0  0  0  0  0  0  0  0  0  0  0  0
    2.7898  -11.9488    0.0000 O   0  0  0  0  0  0  0  0  0  0  0  0
    4.9332   -9.8863    0.0000 C   0  0  0  0  0  0  0  0  0  0  0  0
    7.0767   -8.6487    0.0000 C   0  0  0  0  0  0  0  0  0  0  0  0
    7.8613  -10.5537    0.0000 C   0  0  0  0  0  0  0  0  0  0  0  0
    8.3462   -9.8863    0.0000 C   0  0  2  0  0  0  0  0  0  0  0  0
    7.8613   -9.2188    0.0000 C   0  0  2  0  0  0  0  0  0  0  0  0
    8.1162   -8.4342    0.0000 C   0  0  2  0  0  0  0  0  0  0  0  0
    7.4017   -8.0217    0.0000 C   0  0  0  0  0  0  0  0  0  0  0  0
    8.9232   -8.2627    0.0000 C   0  0  0  0  0  0  0  0  0  0  0  0
    9.4752   -8.8758    0.0000 C   0  0  0  0  0  0  0  0  0  0  0  0
   10.2822   -8.7042    0.0000 C   0  0  0  0  0  0  0  0  0  0  0  0
   10.5371   -7.9196    0.0000 C   0  0  0  0  0  0  0  0  0  0  0  0
    9.9851   -7.3065    0.0000 C   0  0  0  0  0  0  0  0  0  0  0  0
    9.1781   -7.4780    0.0000 N   0  0  0  0  0  0  0  0  0  0  0  0
    9.1712   -9.8863    0.0000 O   0  0  0  0  0  0  0  0  0  0  0  0
    8.6261   -6.8649    0.0000 C   0  0  0  0  0  0  0  0  0  0  0  0
   11.2516   -7.5071    0.0000 C   0  0  0  0  0  0  0  0  0  0  0  0
   11.2516   -8.3321    0.0000 O   0  0  0  0  0  0  0  0  0  0  0  0
   11.2516   -9.1571    0.0000 C   0  0  2  0  0  0  0  0  0  0  0  0
   10.5371   -9.5696    0.0000 O   0  0  0  0  0  0  0  0  0  0  0  0
   10.5371  -10.3946    0.0000 C   0  0  1  0  0  0  0  0  0  0  0  0
   11.2516  -10.8071    0.0000 C   0  0  2  0  0  0  0  0  0  0  0  0
   11.9661  -10.3946    0.0000 C   0  0  1  0  0  0  0  0  0  0  0  0
   11.9661   -9.5696    0.0000 C   0  0  1  0  0  0  0  0  0  0  0  0
    9.8227  -10.8071    0.0000 C   0  0  0  0  0  0  0  0  0  0  0  0
   12.6805  -10.8071    0.0000 O   0  0  0  0  0  0  0  0  0  0  0  0
   11.2516  -11.6321    0.0000 O   0  0  0  0  0  0  0  0  0  0  0  0
   12.6805   -9.1571    0.0000 O   0  0  0  0  0  0  0  0  0  0  0  0
    9.8227  -11.6321    0.0000 O   0  0  0  0  0  0  0  0  0  0  0  0
    7.9027   -7.6373    0.0000 O   0  0  0  0  0  0  0  0  0  0  0  0
    5.6477  -11.1237    0.0000 H   0  0  0  0  0  0  0  0  0  0  0  0
    6.3622   -9.8863    0.0000 H   0  0  0  0  0  0  0  0  0  0  0  0
    7.0767  -11.1237    0.0000 H   0  0  0  0  0  0  0  0  0  0  0  0
    8.6459   -8.9639    0.0000 H   0  0  0  0  0  0  0  0  0  0  0  0
  1  2  1  0  0  0  0
  2  3  1  0  0  0  0
  3  4  1  0  0  0  0
  4  5  1  0  0  0  0
  5  6  1  0  0  0  0
  6  1  1  0  0  0  0
  4  7  2  0  0  0  0
  7  8  1  0  0  0  0
  8  9  1  0  0  0  0
  9 10  1  0  0  0  0
 10  5  1  0  0  0  0
  9 11  1  0  0  0  0
 11 12  1  0  0  0  0
 12 13  1  0  0  0  0
 13 14  1  0  0  0  0
 14 10  1  0  0  0  0
  2 15  1  1  0  0  0
  5 16  1  1  0  0  0
 12 17  1  1  0  0  0
 11 18  1  0  0  0  0
 18 19  1  0  0  0  0
 19 20  1  0  0  0  0
 20 12  1  0  0  0  0
 20 21  1  0  0  0  0
 21 22  1  6  0  0  0
 21 23  1  0  0  0  0
 23 24  1  0  0  0  0
 24 25  1  0  0  0  0
 25 26  1  0  0  0  0
 26 27  1  0  0  0  0
 27 28  1  0  0  0  0
 28 23  1  0  0  0  0
 19 29  1  6  0  0  0
 28 30  1  0  0  0  0
 26 31  1  0  0  0  0
 26 32  1  0  0  0  0
 33 32  1  1  0  0  0
 33 34  1  0  0  0  0
 34 35  1  0  0  0  0
 35 36  1  0  0  0  0
 36 37  1  0  0  0  0
 37 38  1  0  0  0  0
 38 33  1  0  0  0  0
 35 39  1  1  0  0  0
 37 40  1  1  0  0  0
 36 41  1  6  0  0  0
 38 42  1  6  0  0  0
 39 43  1  0  0  0  0
 21 44  1  0  0  0  0
 10 45  1  6  0  0  0
  9 46  1  1  0  0  0
 11 47  1  6  0  0  0
 20 48  1  6  0  0  0
M  END
>  <cdx:fragmentId>
5

$$$$
