93578.cdx
  Mrv1902 05222410252D          

 67 74  0  0  0  0            999 V2000
   12.2204  -10.6718    0.0000 C   0  0  0  0  0  0  0  0  0  0  0  0
   11.5060  -11.0843    0.0000 C   0  0  0  0  0  0  0  0  0  0  0  0
   11.5060  -11.9093    0.0000 C   0  0  1  0  0  0  0  0  0  0  0  0
   12.2204  -12.3218    0.0000 C   0  0  0  0  0  0  0  0  0  0  0  0
   12.9349  -11.9093    0.0000 C   0  0  2  0  0  0  0  0  0  0  0  0
   13.6494  -12.3218    0.0000 C   0  0  0  0  0  0  0  0  0  0  0  0
   14.3638  -11.9093    0.0000 C   0  0  0  0  0  0  0  0  0  0  0  0
   14.3638  -11.0843    0.0000 C   0  0  1  0  0  0  0  0  0  0  0  0
   15.0783  -10.6718    0.0000 C   0  0  2  0  0  0  0  0  0  0  0  0
   15.0783   -9.8468    0.0000 C   0  0  0  0  0  0  0  0  0  0  0  0
   14.3638   -9.4343    0.0000 C   0  0  0  0  0  0  0  0  0  0  0  0
   13.6494   -9.8468    0.0000 C   0  0  0  0  0  0  0  0  0  0  0  0
   13.6494  -10.6718    0.0000 C   0  0  2  0  0  0  0  0  0  0  0  0
   12.9349  -11.0843    0.0000 C   0  0  1  0  0  0  0  0  0  0  0  0
   15.0783  -11.4968    0.0000 C   0  0  0  0  0  0  0  0  0  0  0  0
   12.9349  -10.2593    0.0000 C   0  0  0  0  0  0  0  0  0  0  0  0
   14.3638  -10.2593    0.0000 C   0  0  0  0  0  0  0  0  0  0  0  0
   12.6329  -13.0363    0.0000 C   0  0  0  0  0  0  0  0  0  0  0  0
   11.8079  -13.0363    0.0000 C   0  0  0  0  0  0  0  0  0  0  0  0
   10.7915  -12.3218    0.0000 O   0  0  0  0  0  0  0  0  0  0  0  0
   15.7928  -11.0843    0.0000 C   0  0  0  0  0  0  0  0  0  0  0  0
   16.5073  -10.6718    0.0000 C   0  0  0  0  0  0  0  0  0  0  0  0
   16.5073   -9.8468    0.0000 C   0  0  2  0  0  0  0  0  0  0  0  0
   15.7928   -9.4343    0.0000 C   0  0  1  0  0  0  0  0  0  0  0  0
   17.2217   -9.4343    0.0000 C   0  0  0  0  0  0  0  0  0  0  0  0
   17.2217   -8.6093    0.0000 C   0  0  0  0  0  0  0  0  0  0  0  0
   16.5073   -8.1968    0.0000 C   0  0  0  0  0  0  0  0  0  0  0  0
   15.7928   -8.6093    0.0000 C   0  0  0  0  0  0  0  0  0  0  0  0
   16.9198   -7.4823    0.0000 C   0  0  0  0  0  0  0  0  0  0  0  0
   16.0948   -7.4823    0.0000 C   0  0  0  0  0  0  0  0  0  0  0  0
   17.2217  -10.2593    0.0000 C   0  0  0  0  0  0  0  0  0  0  0  0
   17.2217  -11.0843    0.0000 O   0  0  0  0  0  0  0  0  0  0  0  0
   17.9362   -9.8468    0.0000 O   0  0  0  0  0  0  0  0  0  0  0  0
   18.6507  -10.2593    0.0000 C   0  0  2  0  0  0  0  0  0  0  0  0
   18.6507  -11.0843    0.0000 O   0  0  0  0  0  0  0  0  0  0  0  0
   19.3651  -11.4968    0.0000 C   0  0  1  0  0  0  0  0  0  0  0  0
   20.0796  -11.0843    0.0000 C   0  0  2  0  0  0  0  0  0  0  0  0
   20.0796  -10.2593    0.0000 C   0  0  1  0  0  0  0  0  0  0  0  0
   19.3651   -9.8468    0.0000 C   0  0  1  0  0  0  0  0  0  0  0  0
   19.3651  -12.3218    0.0000 C   0  0  0  0  0  0  0  0  0  0  0  0
   20.7941   -9.8468    0.0000 O   0  0  0  0  0  0  0  0  0  0  0  0
   19.3651   -9.0218    0.0000 O   0  0  0  0  0  0  0  0  0  0  0  0
   20.7941  -11.4968    0.0000 O   0  0  0  0  0  0  0  0  0  0  0  0
   20.0796  -12.7343    0.0000 O   0  0  0  0  0  0  0  0  0  0  0  0
   12.9349  -12.7343    0.0000 H   0  0  0  0  0  0  0  0  0  0  0  0
   13.6494  -11.4968    0.0000 H   0  0  0  0  0  0  0  0  0  0  0  0
   15.7928  -10.2593    0.0000 H   0  0  0  0  0  0  0  0  0  0  0  0
   10.0770  -11.9093    0.0000 C   0  0  2  0  0  0  0  0  0  0  0  0
   10.0770  -11.0843    0.0000 O   0  0  0  0  0  0  0  0  0  0  0  0
    9.3626  -10.6718    0.0000 C   0  0  1  0  0  0  0  0  0  0  0  0
    8.6481  -11.0843    0.0000 C   0  0  2  0  0  0  0  0  0  0  0  0
    8.6481  -11.9093    0.0000 C   0  0  1  0  0  0  0  0  0  0  0  0
    9.3626  -12.3218    0.0000 C   0  0  1  0  0  0  0  0  0  0  0  0
    9.3626   -9.8468    0.0000 C   0  0  0  0  0  0  0  0  0  0  0  0
    7.9336  -12.3218    0.0000 O   0  0  0  0  0  0  0  0  0  0  0  0
    7.9336  -10.6718    0.0000 O   0  0  0  0  0  0  0  0  0  0  0  0
    9.3626  -13.1468    0.0000 O   0  0  0  0  0  0  0  0  0  0  0  0
    8.6481  -13.5593    0.0000 C   0  0  2  0  0  0  0  0  0  0  0  0
    7.9336  -13.1468    0.0000 O   0  0  0  0  0  0  0  0  0  0  0  0
    7.2191  -13.5593    0.0000 C   0  0  0  0  0  0  0  0  0  0  0  0
    7.2191  -14.3843    0.0000 C   0  0  2  0  0  0  0  0  0  0  0  0
    7.9336  -14.7968    0.0000 C   0  0  1  0  0  0  0  0  0  0  0  0
    8.6481  -14.3843    0.0000 C   0  0  1  0  0  0  0  0  0  0  0  0
    8.6481   -9.4343    0.0000 O   0  0  0  0  0  0  0  0  0  0  0  0
    7.9336  -15.6218    0.0000 O   0  0  0  0  0  0  0  0  0  0  0  0
    9.3626  -14.7968    0.0000 O   0  0  0  0  0  0  0  0  0  0  0  0
    6.5047  -14.7968    0.0000 O   0  0  0  0  0  0  0  0  0  0  0  0
  1  2  1  0  0  0  0
  2  3  1  0  0  0  0
  3  4  1  0  0  0  0
  4  5  1  0  0  0  0
  5  6  1  0  0  0  0
  6  7  1  0  0  0  0
  7  8  1  0  0  0  0
  8  9  1  0  0  0  0
  9 10  1  0  0  0  0
 10 11  2  0  0  0  0
 11 12  1  0  0  0  0
 12 13  1  0  0  0  0
  8 13  1  0  0  0  0
 13 14  1  0  0  0  0
  5 14  1  0  0  0  0
  1 14  1  0  0  0  0
  9 15  1  6  0  0  0
 14 16  1  1  0  0  0
  8 17  1  1  0  0  0
  4 18  1  0  0  0  0
  4 19  1  0  0  0  0
  3 20  1  1  0  0  0
  9 21  1  0  0  0  0
 21 22  1  0  0  0  0
 22 23  1  0  0  0  0
 23 24  1  0  0  0  0
 24 10  1  0  0  0  0
 23 25  1  0  0  0  0
 25 26  1  0  0  0  0
 26 27  1  0  0  0  0
 27 28  1  0  0  0  0
 28 24  1  0  0  0  0
 27 29  1  0  0  0  0
 27 30  1  0  0  0  0
 23 31  1  1  0  0  0
 31 32  2  0  0  0  0
 31 33  1  0  0  0  0
 34 33  1  1  0  0  0
 34 35  1  0  0  0  0
 35 36  1  0  0  0  0
 36 37  1  0  0  0  0
 37 38  1  0  0  0  0
 38 39  1  0  0  0  0
 39 34  1  0  0  0  0
 36 40  1  1  0  0  0
 38 41  1  1  0  0  0
 39 42  1  6  0  0  0
 37 43  1  6  0  0  0
 40 44  1  0  0  0  0
  5 45  1  6  0  0  0
 13 46  1  6  0  0  0
 24 47  1  1  0  0  0
 48 20  1  1  0  0  0
 48 49  1  0  0  0  0
 49 50  1  0  0  0  0
 50 51  1  0  0  0  0
 51 52  1  0  0  0  0
 52 53  1  0  0  0  0
 53 48  1  0  0  0  0
 50 54  1  1  0  0  0
 52 55  1  1  0  0  0
 51 56  1  6  0  0  0
 53 57  1  6  0  0  0
 58 57  1  1  0  0  0
 58 59  1  0  0  0  0
 59 60  1  0  0  0  0
 60 61  1  0  0  0  0
 61 62  1  0  0  0  0
 62 63  1  0  0  0  0
 63 58  1  0  0  0  0
 54 64  1  0  0  0  0
 62 65  1  1  0  0  0
 63 66  1  6  0  0  0
 61 67  1  6  0  0  0
M  END
>  <cdx:fragmentId>
31943

$$$$
