93579.cdx
  Mrv1902 05222410242D          

 17 17  0  0  0  0            999 V2000
    9.1358   -7.5999    0.0000 N   0  0  0  0  0  0  0  0  0  0  0  0
    8.3816   -7.9342    0.0000 C   0  0  0  0  0  0  0  0  0  0  0  0
    8.4665   -8.7548    0.0000 C   0  0  0  0  0  0  0  0  0  0  0  0
    9.2732   -8.9277    0.0000 N   0  0  0  0  0  0  0  0  0  0  0  0
    9.6869   -8.2139    0.0000 C   0  0  0  0  0  0  0  0  0  0  0  0
   10.5075   -8.1290    0.0000 N   0  0  0  0  0  0  0  0  0  0  0  0
    7.6678   -7.5206    0.0000 C   0  0  0  0  0  0  0  0  0  0  0  0
    6.9527   -7.9319    0.0000 C   0  0  0  0  0  0  0  0  0  0  0  0
    7.6692   -6.6956    0.0000 C   0  0  0  0  0  0  0  0  0  0  0  0
    6.9553   -6.2819    0.0000 O   0  0  0  0  0  0  0  0  0  0  0  0
    8.3843   -6.2842    0.0000 O   0  0  0  0  0  0  0  0  0  0  0  0
    6.2389   -7.5183    0.0000 C   0  0  0  0  0  0  0  0  0  0  0  0
    5.5237   -7.9296    0.0000 C   0  0  0  0  0  0  0  0  0  0  0  0
    4.8099   -7.5159    0.0000 C   0  0  1  0  0  0  0  0  0  0  0  0
    4.0948   -7.9273    0.0000 C   0  0  0  0  0  0  0  0  0  0  0  0
    4.2266   -6.9326    0.0000 C   0  0  0  0  0  0  0  0  0  0  0  0
    5.2224   -6.8015    0.0000 O   0  0  0  0  0  0  0  0  0  0  0  0
  1  2  1  0  0  0  0
  2  3  1  0  0  0  0
  3  4  1  0  0  0  0
  4  5  1  0  0  0  0
  5  1  1  0  0  0  0
  5  6  2  0  0  0  0
  2  7  1  0  0  0  0
  7  8  1  0  0  0  0
  7  9  1  0  0  0  0
  9 10  1  0  0  0  0
  9 11  2  0  0  0  0
  8 12  1  0  0  0  0
 12 13  1  0  0  0  0
 13 14  1  0  0  0  0
 14 15  1  0  0  0  0
 14 16  1  0  0  0  0
 14 17  1  6  0  0  0
M  END
>  <cdx:fragmentId>
101

$$$$
