93577.cdx
  Mrv1902 05222410212D          

 11 11  0  0  0  0            999 V2000
    5.9106   -6.6825    0.0000 C   0  0  0  0  0  0  0  0  0  0  0  0
    5.9106   -7.5075    0.0000 C   0  0  0  0  0  0  0  0  0  0  0  0
    6.6250   -7.9200    0.0000 C   0  0  0  0  0  0  0  0  0  0  0  0
    7.3395   -7.5075    0.0000 C   0  0  0  0  0  0  0  0  0  0  0  0
    7.3395   -6.6825    0.0000 C   0  0  0  0  0  0  0  0  0  0  0  0
    6.6250   -6.2700    0.0000 C   0  0  0  0  0  0  0  0  0  0  0  0
    6.6250   -8.7450    0.0000 C   0  0  0  0  0  0  0  0  0  0  0  0
    5.1961   -6.2700    0.0000 O   0  0  0  0  0  0  0  0  0  0  0  0
    6.6250   -5.4450    0.0000 C   0  0  0  0  0  0  0  0  0  0  0  0
    5.9106   -5.0325    0.0000 C   0  0  0  0  0  0  0  0  0  0  0  0
    7.3395   -5.0325    0.0000 C   0  0  0  0  0  0  0  0  0  0  0  0
  1  2  1  0  0  0  0
  2  3  2  0  0  0  0
  3  4  1  0  0  0  0
  4  5  1  0  0  0  0
  5  6  1  0  0  0  0
  6  1  1  0  0  0  0
  3  7  1  0  0  0  0
  1  8  2  0  0  0  0
  6  9  1  0  0  0  0
  9 10  1  0  0  0  0
  9 11  1  0  0  0  0
M  END
>  <cdx:fragmentId>
5

$$$$
