935761.cdx
  Mrv1902 05222410242D          

 29 31  0  0  0  0            999 V2000
    4.3116   -7.9534    0.0000 O   0  0  0  0  0  0  0  0  0  0  0  0
   10.7198  -10.8897    0.0000 O   0  0  0  0  0  0  0  0  0  0  0  0
   12.8725   -9.6685    0.0000 C   0  0  0  0  0  0  0  0  0  0  0  0
   12.1675   -8.4256    0.0000 C   0  0  0  0  0  0  0  0  0  0  0  0
   12.1612   -9.2506    0.0000 C   0  0  0  0  0  0  0  0  0  0  0  0
   11.4436   -9.6576    0.0000 C   0  0  0  0  0  0  0  0  0  0  0  0
   10.7323   -9.2397    0.0000 C   0  0  0  0  0  0  0  0  0  0  0  0
    8.5795  -10.4609    0.0000 C   0  0  0  0  0  0  0  0  0  0  0  0
    9.2908  -10.8788    0.0000 C   0  0  0  0  0  0  0  0  0  0  0  0
   10.0084  -10.4718    0.0000 C   0  0  0  0  0  0  0  0  0  0  0  0
   10.0147   -9.6468    0.0000 C   0  0  0  0  0  0  0  0  0  0  0  0
    9.3034   -9.2289    0.0000 C   0  0  0  0  0  0  0  0  0  0  0  0
    8.5858   -9.6359    0.0000 C   0  0  0  0  0  0  0  0  0  0  0  0
    2.1589   -9.1746    0.0000 C   0  0  0  0  0  0  0  0  0  0  0  0
    2.8639  -10.4175    0.0000 C   0  0  0  0  0  0  0  0  0  0  0  0
    2.8702   -9.5925    0.0000 C   0  0  0  0  0  0  0  0  0  0  0  0
    3.5878   -9.1854    0.0000 C   0  0  0  0  0  0  0  0  0  0  0  0
    4.2991   -9.6033    0.0000 C   0  0  0  0  0  0  0  0  0  0  0  0
    7.1506  -10.4500    0.0000 O   0  0  0  0  0  0  0  0  0  0  0  0
    7.1694   -7.9751    0.0000 O   0  0  0  0  0  0  0  0  0  0  0  0
    6.4519   -8.3822    0.0000 C   0  0  0  0  0  0  0  0  0  0  0  0
    5.7405   -7.9643    0.0000 C   0  0  0  0  0  0  0  0  0  0  0  0
    5.0230   -8.3713    0.0000 C   0  0  0  0  0  0  0  0  0  0  0  0
    5.0167   -9.1963    0.0000 C   0  0  0  0  0  0  0  0  0  0  0  0
    5.7280   -9.6142    0.0000 C   0  0  0  0  0  0  0  0  0  0  0  0
    6.4456   -9.2071    0.0000 C   0  0  0  0  0  0  0  0  0  0  0  0
    7.1569   -9.6251    0.0000 C   0  0  0  0  0  0  0  0  0  0  0  0
    7.8745   -9.2180    0.0000 C   0  0  0  0  0  0  0  0  0  0  0  0
    7.8808   -8.3930    0.0000 C   0  0  0  0  0  0  0  0  0  0  0  0
 23  1  1  0  0  0  0
 28 13  1  0  0  0  0
 10  2  1  0  0  0  0
 11  7  1  0  0  0  0
  5  3  1  0  0  0  0
  5  4  1  0  0  0  0
  6  5  2  0  0  0  0
  7  6  1  0  0  0  0
 13  8  2  0  0  0  0
  9  8  1  0  0  0  0
 10  9  2  0  0  0  0
 11 10  1  0  0  0  0
 12 11  2  0  0  0  0
 13 12  1  0  0  0  0
 24 18  1  0  0  0  0
 16 14  1  0  0  0  0
 16 15  1  0  0  0  0
 17 16  2  0  0  0  0
 18 17  1  0  0  0  0
 27 19  2  0  0  0  0
 29 20  1  0  0  0  0
 21 20  1  0  0  0  0
 26 21  2  0  0  0  0
 22 21  1  0  0  0  0
 23 22  2  0  0  0  0
 24 23  1  0  0  0  0
 25 24  2  0  0  0  0
 26 25  1  0  0  0  0
 27 26  1  0  0  0  0
 28 27  1  0  0  0  0
 29 28  1  0  0  0  0
M  END
>  <cdx:groupId>
221773

>  <cdx:fragmentId>
221687

$$$$
