93574.cdx
  Mrv1902 05222410212D          

 42 45  0  0  0  0            999 V2000
    2.6243   -9.1300    0.0000 O   0  0  0  0  0  0  0  0  0  0  0  0
    3.3388  -10.3675    0.0000 O   0  0  0  0  0  0  0  0  0  0  0  0
    4.0532   -9.9550    0.0000 C   0  0  2  0  0  0  0  0  0  0  0  0
    4.0532   -9.1300    0.0000 C   0  0  1  0  0  0  0  0  0  0  0  0
    3.3388   -8.7175    0.0000 C   0  0  0  0  0  0  0  0  0  0  0  0
    4.7677  -10.3675    0.0000 C   0  0  1  0  0  0  0  0  0  0  0  0
    5.4822   -9.9550    0.0000 C   0  0  2  0  0  0  0  0  0  0  0  0
    5.4822   -9.1300    0.0000 C   0  0  1  0  0  0  0  0  0  0  0  0
    4.7677   -8.7175    0.0000 O   0  0  0  0  0  0  0  0  0  0  0  0
    6.1967   -8.7175    0.0000 O   0  0  0  0  0  0  0  0  0  0  0  0
    6.1967   -7.8925    0.0000 C   0  0  1  0  0  0  0  0  0  0  0  0
    6.9111   -7.4800    0.0000 C   0  0  2  0  0  0  0  0  0  0  0  0
    6.9111   -6.6550    0.0000 O   0  0  0  0  0  0  0  0  0  0  0  0
    6.1967   -6.2425    0.0000 C   0  0  1  0  0  0  0  0  0  0  0  0
    5.4822   -6.6550    0.0000 C   0  0  2  0  0  0  0  0  0  0  0  0
    5.4822   -7.4800    0.0000 C   0  0  2  0  0  0  0  0  0  0  0  0
    6.1967   -5.4175    0.0000 C   0  0  0  0  0  0  0  0  0  0  0  0
    5.4822   -5.0050    0.0000 O   0  0  0  0  0  0  0  0  0  0  0  0
    7.6256   -7.8925    0.0000 O   0  0  0  0  0  0  0  0  0  0  0  0
    8.3401   -7.4800    0.0000 C   0  0  1  0  0  0  0  0  0  0  0  0
    8.7526   -8.1945    0.0000 C   0  0  2  0  0  0  0  0  0  0  0  0
    9.5595   -8.0229    0.0000 C   0  0  1  0  0  0  0  0  0  0  0  0
    9.6458   -7.2025    0.0000 C   0  0  2  0  0  0  0  0  0  0  0  0
    8.8921   -6.8669    0.0000 O   0  0  0  0  0  0  0  0  0  0  0  0
    7.7567   -6.8966    0.0000 C   0  0  0  0  0  0  0  0  0  0  0  0
    7.9702   -6.0997    0.0000 O   0  0  0  0  0  0  0  0  0  0  0  0
   10.3603   -6.7900    0.0000 C   0  0  0  0  0  0  0  0  0  0  0  0
   10.3603   -5.9650    0.0000 O   0  0  0  0  0  0  0  0  0  0  0  0
    8.4170   -8.9481    0.0000 O   0  0  0  0  0  0  0  0  0  0  0  0
    8.4432   -9.7727    0.0000 C   0  0  0  0  0  0  0  0  0  0  0  0
    7.7422  -10.2077    0.0000 O   0  0  0  0  0  0  0  0  0  0  0  0
    9.1704  -10.1624    0.0000 C   0  0  0  0  0  0  0  0  0  0  0  0
    9.1966  -10.9869    0.0000 C   0  0  0  0  0  0  0  0  0  0  0  0
    9.9238  -11.3766    0.0000 C   0  0  0  0  0  0  0  0  0  0  0  0
   10.6248  -10.9416    0.0000 C   0  0  0  0  0  0  0  0  0  0  0  0
   10.5986  -10.1170    0.0000 C   0  0  0  0  0  0  0  0  0  0  0  0
    9.8714   -9.7274    0.0000 C   0  0  0  0  0  0  0  0  0  0  0  0
    4.7677  -11.1925    0.0000 O   0  0  0  0  0  0  0  0  0  0  0  0
    4.7677   -7.8925    0.0000 O   0  0  0  0  0  0  0  0  0  0  0  0
   10.1429   -8.6063    0.0000 O   0  0  0  0  0  0  0  0  0  0  0  0
    6.1967  -10.3675    0.0000 O   0  0  0  0  0  0  0  0  0  0  0  0
    4.7677   -6.2425    0.0000 O   0  0  0  0  0  0  0  0  0  0  0  0
  3  2  1  6  0  0  0
  3  4  1  0  0  0  0
  4  5  1  1  0  0  0
  5  1  1  0  0  0  0
  3  6  1  0  0  0  0
  6  7  1  0  0  0  0
  7  8  1  0  0  0  0
  8  9  1  0  0  0  0
  9  4  1  0  0  0  0
  8 10  1  1  0  0  0
 11 10  1  6  0  0  0
 11 12  1  0  0  0  0
 12 13  1  0  0  0  0
 13 14  1  0  0  0  0
 14 15  1  0  0  0  0
 15 16  1  0  0  0  0
 16 11  1  0  0  0  0
 14 17  1  1  0  0  0
 17 18  1  0  0  0  0
 12 19  1  6  0  0  0
 20 19  1  6  0  0  0
 20 21  1  0  0  0  0
 21 22  1  0  0  0  0
 22 23  1  0  0  0  0
 23 24  1  0  0  0  0
 24 20  1  0  0  0  0
 20 25  1  1  0  0  0
 25 26  1  0  0  0  0
 23 27  1  6  0  0  0
 27 28  1  0  0  0  0
 21 29  1  6  0  0  0
 29 30  1  0  0  0  0
 30 31  2  0  0  0  0
 30 32  1  0  0  0  0
 32 33  2  0  0  0  0
 33 34  1  0  0  0  0
 34 35  2  0  0  0  0
 35 36  1  0  0  0  0
 36 37  2  0  0  0  0
 37 32  1  0  0  0  0
  6 38  1  1  0  0  0
 16 39  1  1  0  0  0
 22 40  1  1  0  0  0
  7 41  1  6  0  0  0
 15 42  1  6  0  0  0
M  END
>  <cdx:fragmentId>
5

$$$$
