93589.cdx
  Mrv1902 05222410202D          

 21 23  0  0  0  0            999 V2000
    5.2506   -6.6137    0.0000 C   0  0  0  0  0  0  0  0  0  0  0  0
    5.2506   -7.4387    0.0000 C   0  0  0  0  0  0  0  0  0  0  0  0
    5.9650   -7.8513    0.0000 C   0  0  1  0  0  0  0  0  0  0  0  0
    6.6795   -7.4387    0.0000 C   0  0  1  0  0  0  0  0  0  0  0  0
    6.6795   -6.6137    0.0000 C   0  0  2  0  0  0  0  0  0  0  0  0
    5.9650   -6.2012    0.0000 C   0  0  0  0  0  0  0  0  0  0  0  0
    7.3940   -7.8513    0.0000 C   0  0  0  0  0  0  0  0  0  0  0  0
    8.1084   -7.4387    0.0000 C   0  0  0  0  0  0  0  0  0  0  0  0
    8.1084   -6.6137    0.0000 C   0  0  0  0  0  0  0  0  0  0  0  0
    7.3940   -6.2012    0.0000 C   0  0  0  0  0  0  0  0  0  0  0  0
    8.7215   -6.0617    0.0000 C   0  0  0  0  0  0  0  0  0  0  0  0
    8.3860   -5.3080    0.0000 O   0  0  0  0  0  0  0  0  0  0  0  0
    7.5655   -5.3943    0.0000 C   0  0  0  0  0  0  0  0  0  0  0  0
    6.3775   -8.5657    0.0000 C   0  0  0  0  0  0  0  0  0  0  0  0
    6.6795   -5.7888    0.0000 C   0  0  0  0  0  0  0  0  0  0  0  0
    5.5525   -8.5657    0.0000 C   0  0  0  0  0  0  0  0  0  0  0  0
    6.6795   -8.2637    0.0000 H   0  0  0  0  0  0  0  0  0  0  0  0
    7.0135   -4.7812    0.0000 O   0  0  0  0  0  0  0  0  0  0  0  0
    5.9650   -9.2802    0.0000 O   0  0  0  0  0  0  0  0  0  0  0  0
    7.2025   -8.5657    0.0000 O   0  0  0  0  0  0  0  0  0  0  0  0
    6.3775   -9.9947    0.0000 C   0  0  0  0  0  0  0  0  0  0  0  0
  1  2  1  0  0  0  0
  2  3  1  0  0  0  0
  3  4  1  0  0  0  0
  4  5  1  0  0  0  0
  5  6  1  0  0  0  0
  6  1  1  0  0  0  0
  4  7  1  0  0  0  0
  7  8  1  0  0  0  0
  8  9  1  0  0  0  0
  9 10  2  0  0  0  0
 10  5  1  0  0  0  0
  9 11  1  0  0  0  0
 11 12  1  0  0  0  0
 12 13  1  0  0  0  0
 13 10  1  0  0  0  0
  3 14  1  1  0  0  0
  5 15  1  1  0  0  0
  3 16  1  6  0  0  0
  4 17  1  6  0  0  0
 13 18  2  0  0  0  0
 14 19  1  0  0  0  0
 14 20  2  0  0  0  0
 19 21  1  0  0  0  0
M  END
>  <cdx:fragmentId>
5

$$$$
