93586.cdx
  Mrv1902 05222410242D          

 11 11  0  0  0  0            999 V2000
    6.5018   -6.5175    0.0000 C   0  0  0  0  0  0  0  0  0  0  0  0
    6.5018   -7.3425    0.0000 C   0  0  0  0  0  0  0  0  0  0  0  0
    7.2163   -7.7550    0.0000 C   0  0  0  0  0  0  0  0  0  0  0  0
    7.9307   -7.3425    0.0000 C   0  0  0  0  0  0  0  0  0  0  0  0
    7.9307   -6.5175    0.0000 C   0  0  0  0  0  0  0  0  0  0  0  0
    7.2163   -6.1050    0.0000 C   0  0  0  0  0  0  0  0  0  0  0  0
    7.2163   -5.2800    0.0000 C   0  0  0  0  0  0  0  0  0  0  0  0
    6.5018   -4.8675    0.0000 O   0  0  0  0  0  0  0  0  0  0  0  0
    7.9307   -4.8675    0.0000 O   0  0  0  0  0  0  0  0  0  0  0  0
    7.2163   -8.5800    0.0000 O   0  0  0  0  0  0  0  0  0  0  0  0
    6.5018   -8.9925    0.0000 C   0  0  0  0  0  0  0  0  0  0  0  0
  1  2  2  0  0  0  0
  2  3  1  0  0  0  0
  3  4  2  0  0  0  0
  4  5  1  0  0  0  0
  5  6  2  0  0  0  0
  6  1  1  0  0  0  0
  6  7  1  0  0  0  0
  7  8  2  0  0  0  0
  7  9  1  0  0  0  0
  3 10  1  0  0  0  0
 10 11  1  0  0  0  0
M  END
>  <cdx:fragmentId>
5

$$$$
