93587.cdx
  Mrv1902 05222410252D          

 53 59  0  0  0  0            999 V2000
    3.6143   -4.5375    0.0000 C   0  0  0  0  0  0  0  0  0  0  0  0
    3.6143   -5.3625    0.0000 C   0  0  0  0  0  0  0  0  0  0  0  0
    4.3288   -5.7750    0.0000 C   0  0  0  0  0  0  0  0  0  0  0  0
    5.0432   -5.3625    0.0000 C   0  0  0  0  0  0  0  0  0  0  0  0
    5.0432   -4.5375    0.0000 C   0  0  0  0  0  0  0  0  0  0  0  0
    4.3288   -4.1250    0.0000 C   0  0  0  0  0  0  0  0  0  0  0  0
    5.7577   -5.7750    0.0000 C   0  0  1  0  0  0  0  0  0  0  0  0
    6.4722   -5.3625    0.0000 C   0  0  2  0  0  0  0  0  0  0  0  0
    6.4722   -4.5375    0.0000 C   0  0  2  0  0  0  0  0  0  0  0  0
    5.7577   -4.1250    0.0000 O   0  0  0  0  0  0  0  0  0  0  0  0
    4.3288   -6.6000    0.0000 O   0  0  0  0  0  0  0  0  0  0  0  0
    5.0432   -7.0125    0.0000 C   0  0  1  0  0  0  0  0  0  0  0  0
    5.7577   -6.6000    0.0000 C   0  0  1  0  0  0  0  0  0  0  0  0
    4.3288   -8.2500    0.0000 C   0  0  0  0  0  0  0  0  0  0  0  0
    5.0432   -7.8375    0.0000 C   0  0  0  0  0  0  0  0  0  0  0  0
    4.3288   -9.0750    0.0000 C   0  0  0  0  0  0  0  0  0  0  0  0
    5.0432   -9.4875    0.0000 C   0  0  0  0  0  0  0  0  0  0  0  0
    5.7577   -9.0750    0.0000 C   0  0  0  0  0  0  0  0  0  0  0  0
    5.7577   -8.2500    0.0000 C   0  0  0  0  0  0  0  0  0  0  0  0
    7.9011   -4.5375    0.0000 C   0  0  0  0  0  0  0  0  0  0  0  0
    7.1867   -4.1250    0.0000 C   0  0  0  0  0  0  0  0  0  0  0  0
    8.6156   -4.1250    0.0000 C   0  0  0  0  0  0  0  0  0  0  0  0
    8.6156   -3.3000    0.0000 C   0  0  0  0  0  0  0  0  0  0  0  0
    7.9011   -2.8875    0.0000 C   0  0  0  0  0  0  0  0  0  0  0  0
    7.1867   -3.3000    0.0000 C   0  0  0  0  0  0  0  0  0  0  0  0
    2.8998   -4.1250    0.0000 O   0  0  0  0  0  0  0  0  0  0  0  0
    9.3301   -2.8875    0.0000 O   0  0  0  0  0  0  0  0  0  0  0  0
    7.9011   -2.0625    0.0000 O   0  0  0  0  0  0  0  0  0  0  0  0
    5.0432  -10.3125    0.0000 O   0  0  0  0  0  0  0  0  0  0  0  0
    7.9159   -8.1125    0.0000 C   0  0  0  0  0  0  0  0  0  0  0  0
    7.9159   -8.9375    0.0000 C   0  0  0  0  0  0  0  0  0  0  0  0
    8.6304   -9.3500    0.0000 C   0  0  0  0  0  0  0  0  0  0  0  0
    9.3449   -8.9375    0.0000 C   0  0  0  0  0  0  0  0  0  0  0  0
    9.3449   -8.1125    0.0000 C   0  0  0  0  0  0  0  0  0  0  0  0
    8.6304   -7.7000    0.0000 C   0  0  0  0  0  0  0  0  0  0  0  0
    7.2015   -9.3500    0.0000 O   0  0  0  0  0  0  0  0  0  0  0  0
    8.6304  -10.1750    0.0000 O   0  0  0  0  0  0  0  0  0  0  0  0
   10.0594   -7.7000    0.0000 O   0  0  0  0  0  0  0  0  0  0  0  0
    5.5290  -10.7771    0.0000 C   0  0  2  0  0  0  0  0  0  0  0  0
    5.9366  -11.4943    0.0000 C   0  0  2  0  0  0  0  0  0  0  0  0
    6.7616  -11.4999    0.0000 C   0  0  1  0  0  0  0  0  0  0  0  0
    7.1789  -10.7883    0.0000 C   0  0  2  0  0  0  0  0  0  0  0  0
    6.7713  -10.0710    0.0000 C   0  0  1  0  0  0  0  0  0  0  0  0
    5.9463  -10.0654    0.0000 O   0  0  0  0  0  0  0  0  0  0  0  0
    4.7040  -10.7715    0.0000 C   0  0  0  0  0  0  0  0  0  0  0  0
    7.1692  -12.2172    0.0000 O   0  0  0  0  0  0  0  0  0  0  0  0
    5.5193  -12.2060    0.0000 O   0  0  0  0  0  0  0  0  0  0  0  0
    8.0039  -10.7939    0.0000 O   0  0  0  0  0  0  0  0  0  0  0  0
    4.2866  -11.4831    0.0000 O   0  0  0  0  0  0  0  0  0  0  0  0
    7.1867   -5.7750    0.0000 O   0  0  0  0  0  0  0  0  0  0  0  0
    6.4722   -6.1875    0.0000 H   0  0  0  0  0  0  0  0  0  0  0  0
    4.3288   -7.4250    0.0000 H   0  0  0  0  0  0  0  0  0  0  0  0
    5.7577   -7.4250    0.0000 H   0  0  0  0  0  0  0  0  0  0  0  0
  1  2  2  0  0  0  0
  2  3  1  0  0  0  0
  3  4  2  0  0  0  0
  4  5  1  0  0  0  0
  5  6  2  0  0  0  0
  6  1  1  0  0  0  0
  4  7  1  0  0  0  0
  7  8  1  0  0  0  0
  8  9  1  0  0  0  0
  9 10  1  0  0  0  0
 10  5  1  0  0  0  0
  3 11  1  0  0  0  0
 11 12  1  0  0  0  0
 12 13  1  0  0  0  0
 13  7  1  0  0  0  0
 14 15  2  0  0  0  0
 15 12  1  0  0  0  0
 14 16  1  0  0  0  0
 16 17  2  0  0  0  0
 17 18  1  0  0  0  0
 18 19  2  0  0  0  0
 19 15  1  0  0  0  0
 20 21  2  0  0  0  0
  9 21  1  6  0  0  0
 20 22  1  0  0  0  0
 22 23  2  0  0  0  0
 23 24  1  0  0  0  0
 24 25  2  0  0  0  0
 25 21  1  0  0  0  0
  1 26  1  0  0  0  0
 23 27  1  0  0  0  0
 24 28  1  0  0  0  0
 17 29  1  0  0  0  0
 13 30  1  0  0  0  0
 30 31  2  0  0  0  0
 31 32  1  0  0  0  0
 32 33  2  0  0  0  0
 33 34  1  0  0  0  0
 34 35  2  0  0  0  0
 35 30  1  0  0  0  0
 31 36  1  0  0  0  0
 32 37  1  0  0  0  0
 34 38  1  0  0  0  0
 39 40  1  0  0  0  0
 40 41  1  0  0  0  0
 41 42  1  0  0  0  0
 42 43  1  0  0  0  0
 43 44  1  0  0  0  0
 44 39  1  0  0  0  0
 39 45  1  1  0  0  0
 41 46  1  1  0  0  0
 40 47  1  6  0  0  0
 42 48  1  6  0  0  0
 45 49  1  0  0  0  0
  8 50  1  6  0  0  0
  7 51  1  6  0  0  0
 12 52  1  6  0  0  0
 13 53  1  1  0  0  0
 43 36  1  1  0  0  0
M  END
>  <cdx:fragmentId>
5

$$$$
