93584.cdx
  Mrv1902 05222410262D          

 11 11  0  0  0  0            999 V2000
    6.3918   -6.6000    0.0000 C   0  0  0  0  0  0  0  0  0  0  0  0
    6.3918   -7.4250    0.0000 C   0  0  0  0  0  0  0  0  0  0  0  0
    7.1063   -7.8375    0.0000 C   0  0  0  0  0  0  0  0  0  0  0  0
    7.8207   -7.4250    0.0000 C   0  0  0  0  0  0  0  0  0  0  0  0
    7.8207   -6.6000    0.0000 C   0  0  0  0  0  0  0  0  0  0  0  0
    7.1063   -6.1875    0.0000 C   0  0  0  0  0  0  0  0  0  0  0  0
    7.1063   -8.6625    0.0000 C   0  0  0  0  0  0  0  0  0  0  0  0
    7.8207   -9.0750    0.0000 C   0  0  0  0  0  0  0  0  0  0  0  0
    6.3918   -9.0750    0.0000 C   0  0  0  0  0  0  0  0  0  0  0  0
    6.6938   -5.4730    0.0000 C   0  0  0  0  0  0  0  0  0  0  0  0
    7.5188   -5.4730    0.0000 O   0  0  0  0  0  0  0  0  0  0  0  0
  1  2  1  0  0  0  0
  2  3  1  0  0  0  0
  3  4  2  0  0  0  0
  4  5  1  0  0  0  0
  5  6  1  0  0  0  0
  6  1  1  0  0  0  0
  3  7  1  0  0  0  0
  7  8  1  0  0  0  0
  7  9  1  0  0  0  0
  6 10  1  0  0  0  0
  6 11  1  0  0  0  0
M  END
>  <cdx:fragmentId>
5

$$$$
