93583.cdx
  Mrv1902 05222410242D          

 61 67  0  0  0  0            999 V2000
   10.8080  -10.3125    0.0000 C   0  0  2  0  0  0  0  0  0  0  0  0
   10.8080  -11.1375    0.0000 C   0  0  1  0  0  0  0  0  0  0  0  0
   11.5225  -11.5500    0.0000 C   0  0  0  0  0  0  0  0  0  0  0  0
   12.2370  -11.1375    0.0000 C   0  0  1  0  0  0  0  0  0  0  0  0
   12.2370  -10.3125    0.0000 C   0  0  2  0  0  0  0  0  0  0  0  0
   11.5225   -9.9000    0.0000 C   0  0  0  0  0  0  0  0  0  0  0  0
   12.9514  -11.5500    0.0000 C   0  0  0  0  0  0  0  0  0  0  0  0
   13.6659  -11.1375    0.0000 C   0  0  0  0  0  0  0  0  0  0  0  0
   13.6659  -10.3125    0.0000 C   0  0  2  0  0  0  0  0  0  0  0  0
   12.9514   -9.9000    0.0000 C   0  0  2  0  0  0  0  0  0  0  0  0
   14.3804   -9.9000    0.0000 C   0  0  1  0  0  0  0  0  0  0  0  0
   14.3804   -9.0750    0.0000 C   0  0  0  0  0  0  0  0  0  0  0  0
   13.6659   -8.6625    0.0000 C   0  0  0  0  0  0  0  0  0  0  0  0
   12.9514   -9.0750    0.0000 C   0  0  0  0  0  0  0  0  0  0  0  0
   15.0949  -10.3125    0.0000 C   0  0  0  0  0  0  0  0  0  0  0  0
   15.8093   -9.9000    0.0000 C   0  0  2  0  0  0  0  0  0  0  0  0
   15.8093   -9.0750    0.0000 C   0  0  2  0  0  0  0  0  0  0  0  0
   15.0949   -8.6625    0.0000 C   0  0  1  0  0  0  0  0  0  0  0  0
   16.5238   -8.6625    0.0000 C   0  0  0  0  0  0  0  0  0  0  0  0
   16.5238   -7.8375    0.0000 C   0  0  1  0  0  0  0  0  0  0  0  0
   15.8093   -7.4250    0.0000 C   0  0  0  0  0  0  0  0  0  0  0  0
   15.0949   -7.8375    0.0000 C   0  0  0  0  0  0  0  0  0  0  0  0
   10.0936   -9.9000    0.0000 O   0  0  0  0  0  0  0  0  0  0  0  0
   10.0936  -11.5500    0.0000 O   0  0  0  0  0  0  0  0  0  0  0  0
   11.1100  -12.2645    0.0000 C   0  0  0  0  0  0  0  0  0  0  0  0
   11.9350  -12.2645    0.0000 C   0  0  0  0  0  0  0  0  0  0  0  0
   12.2370   -9.4875    0.0000 C   0  0  0  0  0  0  0  0  0  0  0  0
   12.2370  -11.9625    0.0000 H   0  0  0  0  0  0  0  0  0  0  0  0
   12.9514  -10.7250    0.0000 H   0  0  0  0  0  0  0  0  0  0  0  0
   13.6659   -9.4875    0.0000 C   0  0  0  0  0  0  0  0  0  0  0  0
   14.3804  -10.7250    0.0000 C   0  0  0  0  0  0  0  0  0  0  0  0
   15.0949   -9.4875    0.0000 H   0  0  0  0  0  0  0  0  0  0  0  0
   15.8093  -10.7250    0.0000 O   0  0  0  0  0  0  0  0  0  0  0  0
   16.5238   -9.4875    0.0000 C   0  0  0  0  0  0  0  0  0  0  0  0
   17.2383   -9.0750    0.0000 O   0  0  0  0  0  0  0  0  0  0  0  0
   16.5238  -10.3125    0.0000 O   0  0  0  0  0  0  0  0  0  0  0  0
   15.3968   -6.7105    0.0000 C   0  0  0  0  0  0  0  0  0  0  0  0
   16.2218   -6.7105    0.0000 C   0  0  0  0  0  0  0  0  0  0  0  0
   10.0936   -9.0750    0.0000 C   0  0  2  0  0  0  0  0  0  0  0  0
   10.8080   -8.6625    0.0000 O   0  0  0  0  0  0  0  0  0  0  0  0
   10.8080   -7.8375    0.0000 C   0  0  1  0  0  0  0  0  0  0  0  0
   10.0936   -7.4250    0.0000 C   0  0  2  0  0  0  0  0  0  0  0  0
    9.3791   -7.8375    0.0000 C   0  0  1  0  0  0  0  0  0  0  0  0
    9.3791   -8.6625    0.0000 C   0  0  1  0  0  0  0  0  0  0  0  0
   11.5225   -7.4250    0.0000 C   0  0  0  0  0  0  0  0  0  0  0  0
    8.6646   -7.4250    0.0000 O   0  0  0  0  0  0  0  0  0  0  0  0
   10.0936   -6.6000    0.0000 O   0  0  0  0  0  0  0  0  0  0  0  0
    8.6646   -9.0750    0.0000 O   0  0  0  0  0  0  0  0  0  0  0  0
   11.5225   -6.6000    0.0000 O   0  0  0  0  0  0  0  0  0  0  0  0
   17.2383   -7.4250    0.0000 O   0  0  0  0  0  0  0  0  0  0  0  0
   17.9527   -7.8375    0.0000 C   0  0  2  0  0  0  0  0  0  0  0  0
   17.9527   -8.6625    0.0000 O   0  0  0  0  0  0  0  0  0  0  0  0
   18.6672   -9.0750    0.0000 C   0  0  1  0  0  0  0  0  0  0  0  0
   19.3817   -8.6625    0.0000 C   0  0  2  0  0  0  0  0  0  0  0  0
   19.3817   -7.8375    0.0000 C   0  0  1  0  0  0  0  0  0  0  0  0
   18.6672   -7.4250    0.0000 C   0  0  1  0  0  0  0  0  0  0  0  0
   18.6672   -9.9000    0.0000 C   0  0  0  0  0  0  0  0  0  0  0  0
   20.0962   -7.4250    0.0000 O   0  0  0  0  0  0  0  0  0  0  0  0
   18.6672   -6.6000    0.0000 O   0  0  0  0  0  0  0  0  0  0  0  0
   20.0962   -9.0750    0.0000 O   0  0  0  0  0  0  0  0  0  0  0  0
   19.3817  -10.3125    0.0000 O   0  0  0  0  0  0  0  0  0  0  0  0
  1  2  1  0  0  0  0
  2  3  1  0  0  0  0
  3  4  1  0  0  0  0
  4  5  1  0  0  0  0
  5  6  1  0  0  0  0
  6  1  1  0  0  0  0
  4  7  1  0  0  0  0
  7  8  1  0  0  0  0
  8  9  1  0  0  0  0
  9 10  1  0  0  0  0
 10  5  1  0  0  0  0
  9 11  1  0  0  0  0
 11 12  1  0  0  0  0
 12 13  2  0  0  0  0
 13 14  1  0  0  0  0
 14 10  1  0  0  0  0
 11 15  1  0  0  0  0
 15 16  1  0  0  0  0
 16 17  1  0  0  0  0
 17 18  1  0  0  0  0
 18 12  1  0  0  0  0
 17 19  1  0  0  0  0
 19 20  1  0  0  0  0
 20 21  1  0  0  0  0
 21 22  1  0  0  0  0
 22 18  1  0  0  0  0
  1 23  1  1  0  0  0
  2 24  1  1  0  0  0
  3 25  1  0  0  0  0
  3 26  1  0  0  0  0
  5 27  1  1  0  0  0
  4 28  1  6  0  0  0
 10 29  1  6  0  0  0
  9 30  1  1  0  0  0
 11 31  1  6  0  0  0
 18 32  1  1  0  0  0
 16 33  1  6  0  0  0
 17 34  1  1  0  0  0
 34 35  1  0  0  0  0
 34 36  2  0  0  0  0
 21 37  1  0  0  0  0
 21 38  1  0  0  0  0
 39 23  1  1  0  0  0
 39 40  1  0  0  0  0
 40 41  1  0  0  0  0
 41 42  1  0  0  0  0
 42 43  1  0  0  0  0
 43 44  1  0  0  0  0
 44 39  1  0  0  0  0
 41 45  1  1  0  0  0
 43 46  1  1  0  0  0
 42 47  1  6  0  0  0
 44 48  1  6  0  0  0
 45 49  1  0  0  0  0
 20 50  1  1  0  0  0
 51 50  1  1  0  0  0
 51 52  1  0  0  0  0
 52 53  1  0  0  0  0
 53 54  1  0  0  0  0
 54 55  1  0  0  0  0
 55 56  1  0  0  0  0
 56 51  1  0  0  0  0
 53 57  1  1  0  0  0
 55 58  1  1  0  0  0
 56 59  1  6  0  0  0
 54 60  1  6  0  0  0
 57 61  1  0  0  0  0
M  END
>  <cdx:fragmentId>
189

$$$$
