93580.cdx
  Mrv1902 05222410232D          

 28 28  0  0  0  0            999 V2000
    6.1850   -5.7750    0.0000 C   0  0  0  0  0  0  0  0  0  0  0  0
    6.8995   -5.3625    0.0000 C   0  0  0  0  0  0  0  0  0  0  0  0
    7.6140   -5.7750    0.0000 C   0  0  0  0  0  0  0  0  0  0  0  0
    8.3284   -5.3625    0.0000 C   0  0  0  0  0  0  0  0  0  0  0  0
    9.0429   -5.7750    0.0000 C   0  0  0  0  0  0  0  0  0  0  0  0
    9.7574   -5.3625    0.0000 C   0  0  0  0  0  0  0  0  0  0  0  0
   10.4719   -5.7750    0.0000 C   0  0  0  0  0  0  0  0  0  0  0  0
   11.1863   -5.3625    0.0000 C   0  0  0  0  0  0  0  0  0  0  0  0
   11.9008   -5.7750    0.0000 O   0  0  0  0  0  0  0  0  0  0  0  0
    6.8995   -4.5375    0.0000 O   0  0  0  0  0  0  0  0  0  0  0  0
    7.6140   -6.6000    0.0000 O   0  0  0  0  0  0  0  0  0  0  0  0
    5.4706   -6.1875    0.0000 C   0  0  0  0  0  0  0  0  0  0  0  0
    4.7561   -6.6000    0.0000 C   0  0  0  0  0  0  0  0  0  0  0  0
    4.0416   -7.0125    0.0000 C   0  0  0  0  0  0  0  0  0  0  0  0
    3.3271   -7.4250    0.0000 C   0  0  0  0  0  0  0  0  0  0  0  0
    2.6127   -7.8375    0.0000 C   0  0  0  0  0  0  0  0  0  0  0  0
    1.8982   -8.2500    0.0000 C   0  0  0  0  0  0  0  0  0  0  0  0
    5.9736   -8.0194    0.0000 C   0  0  2  0  0  0  0  0  0  0  0  0
    6.3899   -8.7316    0.0000 C   0  0  2  0  0  0  0  0  0  0  0  0
    7.2149   -8.7272    0.0000 C   0  0  1  0  0  0  0  0  0  0  0  0
    7.6236   -8.0105    0.0000 C   0  0  2  0  0  0  0  0  0  0  0  0
    7.2072   -7.2983    0.0000 C   0  0  1  0  0  0  0  0  0  0  0  0
    6.3822   -7.3027    0.0000 O   0  0  0  0  0  0  0  0  0  0  0  0
    5.1486   -8.0238    0.0000 C   0  0  0  0  0  0  0  0  0  0  0  0
    7.6312   -9.4394    0.0000 O   0  0  0  0  0  0  0  0  0  0  0  0
    5.9812   -9.4483    0.0000 O   0  0  0  0  0  0  0  0  0  0  0  0
    8.4485   -8.0061    0.0000 O   0  0  0  0  0  0  0  0  0  0  0  0
    4.7399   -8.7405    0.0000 O   0  0  0  0  0  0  0  0  0  0  0  0
  1  2  1  0  0  0  0
  2  3  1  0  0  0  0
  3  4  1  0  0  0  0
  4  5  2  0  0  0  0
  5  6  1  0  0  0  0
  6  7  1  0  0  0  0
  7  8  1  0  0  0  0
  8  9  1  0  0  0  0
  2 10  1  0  0  0  0
  3 11  1  0  0  0  0
  1 12  3  0  0  0  0
 12 13  1  0  0  0  0
 13 14  3  0  0  0  0
 14 15  1  0  0  0  0
 15 16  3  0  0  0  0
 16 17  1  0  0  0  0
 18 19  1  0  0  0  0
 19 20  1  0  0  0  0
 20 21  1  0  0  0  0
 21 22  1  0  0  0  0
 22 23  1  0  0  0  0
 23 18  1  0  0  0  0
 18 24  1  1  0  0  0
 20 25  1  1  0  0  0
 19 26  1  6  0  0  0
 21 27  1  6  0  0  0
 24 28  1  0  0  0  0
 22 11  1  1  0  0  0
M  END
>  <cdx:fragmentId>
3

$$$$
