93592.cdx
  Mrv1902 05222410242D          

 63 70  0  0  0  0            999 V2000
    4.9618   -8.1538    0.0000 C   0  0  0  0  0  0  0  0  0  0  0  0
    4.9618   -8.9788    0.0000 C   0  0  0  0  0  0  0  0  0  0  0  0
    5.6763   -9.3913    0.0000 C   0  0  0  0  0  0  0  0  0  0  0  0
    6.3907   -8.9788    0.0000 C   0  0  0  0  0  0  0  0  0  0  0  0
    6.3907   -8.1538    0.0000 C   0  0  0  0  0  0  0  0  0  0  0  0
    5.6763   -7.7413    0.0000 C   0  0  0  0  0  0  0  0  0  0  0  0
    7.1052   -9.3913    0.0000 C   0  0  1  0  0  0  0  0  0  0  0  0
    7.8197   -8.9788    0.0000 C   0  0  0  0  0  0  0  0  0  0  0  0
    7.8197   -8.1538    0.0000 C   0  0  0  0  0  0  0  0  0  0  0  0
    7.1052   -7.7413    0.0000 C   0  0  0  0  0  0  0  0  0  0  0  0
    8.5342   -9.3913    0.0000 C   0  0  0  0  0  0  0  0  0  0  0  0
    9.2486   -8.9788    0.0000 C   0  0  0  0  0  0  0  0  0  0  0  0
    9.2486   -8.1538    0.0000 C   0  0  0  0  0  0  0  0  0  0  0  0
    8.5342   -7.7413    0.0000 C   0  0  0  0  0  0  0  0  0  0  0  0
    7.1052  -10.2163    0.0000 C   0  0  2  0  0  0  0  0  0  0  0  0
    6.3907  -10.6288    0.0000 C   0  0  0  0  0  0  0  0  0  0  0  0
    6.3907  -11.4537    0.0000 C   0  0  0  0  0  0  0  0  0  0  0  0
    7.1052  -11.8662    0.0000 C   0  0  0  0  0  0  0  0  0  0  0  0
    7.8197  -11.4537    0.0000 C   0  0  0  0  0  0  0  0  0  0  0  0
    7.8197  -10.6288    0.0000 C   0  0  0  0  0  0  0  0  0  0  0  0
    5.6763  -10.2163    0.0000 C   0  0  0  0  0  0  0  0  0  0  0  0
    4.9618  -10.6288    0.0000 C   0  0  0  0  0  0  0  0  0  0  0  0
    4.9618  -11.4537    0.0000 C   0  0  0  0  0  0  0  0  0  0  0  0
    5.6763  -11.8662    0.0000 C   0  0  0  0  0  0  0  0  0  0  0  0
    8.5342  -11.8662    0.0000 C   0  0  0  0  0  0  0  0  0  0  0  0
    9.2486  -11.4537    0.0000 C   0  0  0  0  0  0  0  0  0  0  0  0
    9.2486  -10.6288    0.0000 C   0  0  0  0  0  0  0  0  0  0  0  0
    8.5342  -10.2163    0.0000 C   0  0  0  0  0  0  0  0  0  0  0  0
    4.2473  -10.2163    0.0000 O   0  0  0  0  0  0  0  0  0  0  0  0
    3.5329  -10.6288    0.0000 C   0  0  0  0  0  0  0  0  0  0  0  0
    5.6763  -12.6913    0.0000 O   0  0  0  0  0  0  0  0  0  0  0  0
    7.1052  -12.6913    0.0000 O   0  0  0  0  0  0  0  0  0  0  0  0
    8.5342  -12.6913    0.0000 O   0  0  0  0  0  0  0  0  0  0  0  0
    9.9631  -10.2163    0.0000 C   0  0  0  0  0  0  0  0  0  0  0  0
    9.9631   -9.3913    0.0000 C   0  0  0  0  0  0  0  0  0  0  0  0
    8.5342   -6.9162    0.0000 O   0  0  0  0  0  0  0  0  0  0  0  0
    7.1052   -6.9162    0.0000 O   0  0  0  0  0  0  0  0  0  0  0  0
    5.6763   -6.9162    0.0000 O   0  0  0  0  0  0  0  0  0  0  0  0
    4.2473   -9.3913    0.0000 O   0  0  0  0  0  0  0  0  0  0  0  0
    6.3907   -9.8038    0.0000 H   0  0  0  0  0  0  0  0  0  0  0  0
    7.8197   -9.8038    0.0000 H   0  0  0  0  0  0  0  0  0  0  0  0
    4.9678   -6.4935    0.0000 C   0  0  2  0  0  0  0  0  0  0  0  0
    4.9797   -5.6686    0.0000 O   0  0  0  0  0  0  0  0  0  0  0  0
    4.2713   -5.2458    0.0000 C   0  0  1  0  0  0  0  0  0  0  0  0
    3.5509   -5.6480    0.0000 C   0  0  2  0  0  0  0  0  0  0  0  0
    3.5390   -6.4729    0.0000 C   0  0  1  0  0  0  0  0  0  0  0  0
    4.2475   -6.8957    0.0000 C   0  0  1  0  0  0  0  0  0  0  0  0
    2.8187   -6.8751    0.0000 O   0  0  0  0  0  0  0  0  0  0  0  0
    4.2831   -4.4209    0.0000 C   0  0  0  0  0  0  0  0  0  0  0  0
    4.2356   -7.7206    0.0000 O   0  0  0  0  0  0  0  0  0  0  0  0
    2.8425   -5.2252    0.0000 O   0  0  0  0  0  0  0  0  0  0  0  0
    3.5747   -3.9982    0.0000 O   0  0  0  0  0  0  0  0  0  0  0  0
    4.9618  -13.1037    0.0000 C   0  0  2  0  0  0  0  0  0  0  0  0
    4.2473  -12.6913    0.0000 O   0  0  0  0  0  0  0  0  0  0  0  0
    3.5329  -13.1037    0.0000 C   0  0  1  0  0  0  0  0  0  0  0  0
    3.5329  -13.9287    0.0000 C   0  0  2  0  0  0  0  0  0  0  0  0
    4.2473  -14.3412    0.0000 C   0  0  1  0  0  0  0  0  0  0  0  0
    4.9618  -13.9287    0.0000 C   0  0  1  0  0  0  0  0  0  0  0  0
    2.8184  -12.6913    0.0000 C   0  0  0  0  0  0  0  0  0  0  0  0
    2.1039  -13.1037    0.0000 O   0  0  0  0  0  0  0  0  0  0  0  0
    4.2473  -15.1663    0.0000 O   0  0  0  0  0  0  0  0  0  0  0  0
    2.8184  -14.3412    0.0000 O   0  0  0  0  0  0  0  0  0  0  0  0
    5.6763  -14.3412    0.0000 O   0  0  0  0  0  0  0  0  0  0  0  0
  1  2  2  0  0  0  0
  2  3  1  0  0  0  0
  3  4  2  0  0  0  0
  4  5  1  0  0  0  0
  5  6  2  0  0  0  0
  6  1  1  0  0  0  0
  4  7  1  0  0  0  0
  7  8  1  0  0  0  0
  8  9  2  0  0  0  0
  9 10  1  0  0  0  0
 10  5  1  0  0  0  0
  8 11  1  0  0  0  0
 11 12  2  0  0  0  0
 12 13  1  0  0  0  0
 13 14  2  0  0  0  0
 14  9  1  0  0  0  0
  7 15  1  0  0  0  0
 15 16  1  0  0  0  0
 16 17  2  0  0  0  0
 17 18  1  0  0  0  0
 18 19  1  0  0  0  0
 19 20  2  0  0  0  0
 20 15  1  0  0  0  0
 16 21  1  0  0  0  0
 21 22  2  0  0  0  0
 22 23  1  0  0  0  0
 23 24  2  0  0  0  0
 24 17  1  0  0  0  0
 19 25  1  0  0  0  0
 25 26  2  0  0  0  0
 26 27  1  0  0  0  0
 27 28  2  0  0  0  0
 28 20  1  0  0  0  0
 22 29  1  0  0  0  0
 29 30  1  0  0  0  0
 24 31  1  0  0  0  0
 18 32  2  0  0  0  0
 25 33  1  0  0  0  0
 27 34  1  0  0  0  0
 12 35  1  0  0  0  0
 14 36  1  0  0  0  0
 10 37  2  0  0  0  0
  6 38  1  0  0  0  0
  2 39  1  0  0  0  0
 15 40  1  6  0  0  0
  7 41  1  6  0  0  0
 42 38  1  1  0  0  0
 42 43  1  0  0  0  0
 43 44  1  0  0  0  0
 44 45  1  0  0  0  0
 45 46  1  0  0  0  0
 46 47  1  0  0  0  0
 47 42  1  0  0  0  0
 46 48  1  1  0  0  0
 44 49  1  1  0  0  0
 47 50  1  6  0  0  0
 45 51  1  6  0  0  0
 49 52  1  0  0  0  0
 53 31  1  1  0  0  0
 53 54  1  0  0  0  0
 54 55  1  0  0  0  0
 55 56  1  0  0  0  0
 56 57  1  0  0  0  0
 57 58  1  0  0  0  0
 58 53  1  0  0  0  0
 55 59  1  1  0  0  0
 59 60  1  0  0  0  0
 57 61  1  1  0  0  0
 56 62  1  6  0  0  0
 58 63  1  6  0  0  0
M  END
>  <cdx:fragmentId>
5

$$$$
