936.cdx
  Mrv1902 05222410202D          

  9  9  0  0  0  0            999 V2000
    5.6538   -3.1441    0.0000 C   0  0  0  0  0  0  0  0  0  0  0  0
    5.6538   -2.3191    0.0000 C   0  0  0  0  0  0  0  0  0  0  0  0
    4.9393   -1.9066    0.0000 C   0  0  0  0  0  0  0  0  0  0  0  0
    4.2249   -2.3191    0.0000 C   0  0  0  0  0  0  0  0  0  0  0  0
    4.2249   -3.1441    0.0000 C   0  0  0  0  0  0  0  0  0  0  0  0
    4.9393   -3.5566    0.0000 N   0  0  0  0  0  0  0  0  0  0  0  0
    6.3683   -1.9066    0.0000 C   0  0  0  0  0  0  0  0  0  0  0  0
    6.3683   -1.0816    0.0000 O   0  0  0  0  0  0  0  0  0  0  0  0
    7.0827   -2.3191    0.0000 N   0  0  0  0  0  0  0  0  0  0  0  0
  1  2  1  0  0  0  0
  2  3  2  0  0  0  0
  3  4  1  0  0  0  0
  4  5  2  0  0  0  0
  5  6  1  0  0  0  0
  1  6  2  0  0  0  0
  7  8  2  0  0  0  0
  7  9  1  0  0  0  0
  2  7  1  0  0  0  0
M  END
>  <cdx:groupId>
29

>  <cdx:fragmentId>
5

$$$$
