93609.cdx
  Mrv1902 05222410232D          

 78 86  0  0  0  0            999 V2000
    6.1856   -5.0600    0.0000 C   0  0  0  0  0  0  0  0  0  0  0  0
    6.1856   -5.8850    0.0000 C   0  0  1  0  0  0  0  0  0  0  0  0
    6.9000   -6.2975    0.0000 C   0  0  1  0  0  0  0  0  0  0  0  0
    7.6145   -5.8850    0.0000 C   0  0  1  0  0  0  0  0  0  0  0  0
    7.6145   -5.0600    0.0000 C   0  0  2  0  0  0  0  0  0  0  0  0
    6.9000   -4.6475    0.0000 C   0  0  0  0  0  0  0  0  0  0  0  0
    8.3290   -6.2975    0.0000 C   0  0  0  0  0  0  0  0  0  0  0  0
    9.0434   -5.8850    0.0000 C   0  0  0  0  0  0  0  0  0  0  0  0
    9.0434   -5.0600    0.0000 C   0  0  2  0  0  0  0  0  0  0  0  0
    8.3290   -4.6475    0.0000 C   0  0  2  0  0  0  0  0  0  0  0  0
    9.7579   -4.6475    0.0000 C   0  0  1  0  0  0  0  0  0  0  0  0
    9.7579   -3.8225    0.0000 C   0  0  0  0  0  0  0  0  0  0  0  0
    9.0434   -3.4100    0.0000 C   0  0  0  0  0  0  0  0  0  0  0  0
    8.3290   -3.8225    0.0000 C   0  0  0  0  0  0  0  0  0  0  0  0
   10.4724   -5.0600    0.0000 C   0  0  0  0  0  0  0  0  0  0  0  0
   11.1869   -4.6475    0.0000 C   0  0  0  0  0  0  0  0  0  0  0  0
   11.1869   -3.8225    0.0000 C   0  0  2  0  0  0  0  0  0  0  0  0
   10.4724   -3.4100    0.0000 C   0  0  1  0  0  0  0  0  0  0  0  0
   11.9013   -3.4100    0.0000 C   0  0  0  0  0  0  0  0  0  0  0  0
   11.9013   -2.5850    0.0000 C   0  0  0  0  0  0  0  0  0  0  0  0
   11.1869   -2.1725    0.0000 C   0  0  0  0  0  0  0  0  0  0  0  0
   10.4724   -2.5850    0.0000 C   0  0  0  0  0  0  0  0  0  0  0  0
    5.4711   -6.2975    0.0000 O   0  0  0  0  0  0  0  0  0  0  0  0
    7.3125   -7.0120    0.0000 C   0  0  0  0  0  0  0  0  0  0  0  0
    7.6145   -4.2350    0.0000 C   0  0  0  0  0  0  0  0  0  0  0  0
    9.4559   -5.7745    0.0000 C   0  0  0  0  0  0  0  0  0  0  0  0
   11.9013   -4.2350    0.0000 C   0  0  0  0  0  0  0  0  0  0  0  0
    7.6145   -6.7100    0.0000 H   0  0  0  0  0  0  0  0  0  0  0  0
    9.0434   -4.2350    0.0000 H   0  0  0  0  0  0  0  0  0  0  0  0
   10.1704   -5.3620    0.0000 C   0  0  0  0  0  0  0  0  0  0  0  0
   10.7744   -1.4580    0.0000 C   0  0  0  0  0  0  0  0  0  0  0  0
   11.5994   -1.4580    0.0000 C   0  0  0  0  0  0  0  0  0  0  0  0
   12.6158   -3.8225    0.0000 O   0  0  0  0  0  0  0  0  0  0  0  0
   11.1869   -2.9975    0.0000 H   0  0  0  0  0  0  0  0  0  0  0  0
    6.4875   -7.0120    0.0000 C   0  0  0  0  0  0  0  0  0  0  0  0
    6.9000   -7.7264    0.0000 O   0  0  0  0  0  0  0  0  0  0  0  0
    4.7566   -6.7100    0.0000 C   0  0  2  0  0  0  0  0  0  0  0  0
    4.0421   -6.2975    0.0000 O   0  0  0  0  0  0  0  0  0  0  0  0
    3.3277   -6.7100    0.0000 C   0  0  0  0  0  0  0  0  0  0  0  0
    3.3277   -7.5350    0.0000 C   0  0  1  0  0  0  0  0  0  0  0  0
    4.0421   -7.9475    0.0000 C   0  0  1  0  0  0  0  0  0  0  0  0
    4.7566   -7.5350    0.0000 C   0  0  1  0  0  0  0  0  0  0  0  0
    2.6132   -7.9475    0.0000 O   0  0  0  0  0  0  0  0  0  0  0  0
    4.0421   -8.7725    0.0000 O   0  0  0  0  0  0  0  0  0  0  0  0
    5.4711   -7.9475    0.0000 O   0  0  0  0  0  0  0  0  0  0  0  0
    9.2381   -9.9138    0.0000 C   0  0  2  0  0  0  0  0  0  0  0  0
    9.2381  -10.7387    0.0000 C   0  0  2  0  0  0  0  0  0  0  0  0
    9.9525  -11.1513    0.0000 C   0  0  1  0  0  0  0  0  0  0  0  0
   10.6670  -10.7387    0.0000 C   0  0  2  0  0  0  0  0  0  0  0  0
   10.6670   -9.9138    0.0000 C   0  0  1  0  0  0  0  0  0  0  0  0
    9.9525   -9.5013    0.0000 O   0  0  0  0  0  0  0  0  0  0  0  0
   11.3815   -9.5013    0.0000 O   0  0  0  0  0  0  0  0  0  0  0  0
    8.5236   -9.5013    0.0000 C   0  0  0  0  0  0  0  0  0  0  0  0
    9.9525  -11.9763    0.0000 O   0  0  0  0  0  0  0  0  0  0  0  0
    8.5236  -11.1513    0.0000 O   0  0  0  0  0  0  0  0  0  0  0  0
   11.3815  -11.1513    0.0000 O   0  0  0  0  0  0  0  0  0  0  0  0
    7.8091   -9.9138    0.0000 O   0  0  0  0  0  0  0  0  0  0  0  0
    7.0946  -10.3262    0.0000 C   0  0  2  0  0  0  0  0  0  0  0  0
    6.3802   -9.9138    0.0000 O   0  0  0  0  0  0  0  0  0  0  0  0
    5.6657  -10.3262    0.0000 C   0  0  1  0  0  0  0  0  0  0  0  0
    5.6657  -11.1513    0.0000 C   0  0  2  0  0  0  0  0  0  0  0  0
    6.3802  -11.5638    0.0000 C   0  0  1  0  0  0  0  0  0  0  0  0
    7.0946  -11.1513    0.0000 C   0  0  1  0  0  0  0  0  0  0  0  0
    6.3802  -12.3887    0.0000 O   0  0  0  0  0  0  0  0  0  0  0  0
    4.9512   -9.9138    0.0000 C   0  0  0  0  0  0  0  0  0  0  0  0
    4.9512  -11.5638    0.0000 O   0  0  0  0  0  0  0  0  0  0  0  0
    7.8091  -11.5638    0.0000 O   0  0  0  0  0  0  0  0  0  0  0  0
    4.2368  -10.3262    0.0000 O   0  0  0  0  0  0  0  0  0  0  0  0
    4.2368  -11.9763    0.0000 C   0  0  2  0  0  0  0  0  0  0  0  0
    3.5223  -11.5638    0.0000 O   0  0  0  0  0  0  0  0  0  0  0  0
    2.8078  -11.9763    0.0000 C   0  0  2  0  0  0  0  0  0  0  0  0
    2.8078  -12.8012    0.0000 C   0  0  1  0  0  0  0  0  0  0  0  0
    3.5223  -13.2137    0.0000 C   0  0  2  0  0  0  0  0  0  0  0  0
    4.2368  -12.8012    0.0000 C   0  0  1  0  0  0  0  0  0  0  0  0
    2.0933  -13.2137    0.0000 O   0  0  0  0  0  0  0  0  0  0  0  0
    2.0933  -11.5638    0.0000 C   0  0  0  0  0  0  0  0  0  0  0  0
    3.5223  -14.0387    0.0000 O   0  0  0  0  0  0  0  0  0  0  0  0
    4.9512  -13.2137    0.0000 O   0  0  0  0  0  0  0  0  0  0  0  0
  1  2  1  0  0  0  0
  2  3  1  0  0  0  0
  3  4  1  0  0  0  0
  4  5  1  0  0  0  0
  5  6  1  0  0  0  0
  6  1  1  0  0  0  0
  4  7  1  0  0  0  0
  7  8  1  0  0  0  0
  8  9  1  0  0  0  0
  9 10  1  0  0  0  0
 10  5  1  0  0  0  0
  9 11  1  0  0  0  0
 11 12  1  0  0  0  0
 12 13  2  0  0  0  0
 13 14  1  0  0  0  0
 14 10  1  0  0  0  0
 11 15  1  0  0  0  0
 15 16  1  0  0  0  0
 16 17  1  0  0  0  0
 17 18  1  0  0  0  0
 18 12  1  0  0  0  0
 17 19  1  0  0  0  0
 19 20  1  0  0  0  0
 20 21  1  0  0  0  0
 21 22  1  0  0  0  0
 22 18  1  0  0  0  0
  2 23  1  1  0  0  0
  3 24  1  1  0  0  0
  5 25  1  1  0  0  0
  9 26  1  1  0  0  0
 17 27  1  1  0  0  0
  4 28  1  6  0  0  0
 10 29  1  6  0  0  0
 11 30  1  6  0  0  0
 21 31  1  0  0  0  0
 21 32  1  0  0  0  0
 27 33  2  0  0  0  0
 18 34  1  1  0  0  0
  3 35  1  0  0  0  0
 35 36  1  0  0  0  0
 37 23  1  1  0  0  0
 37 38  1  0  0  0  0
 38 39  1  0  0  0  0
 39 40  1  0  0  0  0
 40 41  1  0  0  0  0
 41 42  1  0  0  0  0
 42 37  1  0  0  0  0
 40 43  1  1  0  0  0
 41 44  1  1  0  0  0
 42 45  1  6  0  0  0
 46 47  1  0  0  0  0
 47 48  1  0  0  0  0
 48 49  1  0  0  0  0
 49 50  1  0  0  0  0
 50 51  1  0  0  0  0
 51 46  1  0  0  0  0
 50 52  1  1  0  0  0
 46 53  1  1  0  0  0
 48 54  1  1  0  0  0
 47 55  1  6  0  0  0
 49 56  1  6  0  0  0
 53 57  1  0  0  0  0
 58 57  1  1  0  0  0
 58 59  1  0  0  0  0
 59 60  1  0  0  0  0
 60 61  1  0  0  0  0
 61 62  1  0  0  0  0
 62 63  1  0  0  0  0
 63 58  1  0  0  0  0
 62 64  1  1  0  0  0
 60 65  1  1  0  0  0
 61 66  1  6  0  0  0
 63 67  1  6  0  0  0
 65 68  1  0  0  0  0
 69 66  1  1  0  0  0
 69 70  1  0  0  0  0
 70 71  1  0  0  0  0
 71 72  1  0  0  0  0
 72 73  1  0  0  0  0
 73 74  1  0  0  0  0
 74 69  1  0  0  0  0
 72 75  1  1  0  0  0
 71 76  1  6  0  0  0
 73 77  1  6  0  0  0
 74 78  1  6  0  0  0
 27 52  1  0  0  0  0
M  END
>  <cdx:fragmentId>
5

$$$$
