93600.cdx
  Mrv1902 05222410202D          

 59 64  0  0  0  0            999 V2000
    6.9556   -8.4425    0.0000 C   0  0  0  0  0  0  0  0  0  0  0  0
    6.9556   -9.2675    0.0000 C   0  0  0  0  0  0  0  0  0  0  0  0
    7.6700   -9.6800    0.0000 C   0  0  0  0  0  0  0  0  0  0  0  0
    8.3845   -9.2675    0.0000 C   0  0  0  0  0  0  0  0  0  0  0  0
    8.3845   -8.4425    0.0000 C   0  0  0  0  0  0  0  0  0  0  0  0
    7.6700   -8.0300    0.0000 C   0  0  0  0  0  0  0  0  0  0  0  0
    9.0990   -9.6800    0.0000 O   0  0  0  0  0  0  0  0  0  0  0  0
    9.8134   -9.2675    0.0000 O   0  0  0  0  0  0  0  0  0  0  0  0
    9.8134   -8.4425    0.0000 C   0  0  1  0  0  0  0  0  0  0  0  0
    9.0990   -8.0300    0.0000 C   0  0  2  0  0  0  0  0  0  0  0  0
   11.2424   -8.4425    0.0000 C   0  0  0  0  0  0  0  0  0  0  0  0
   10.5279   -8.0300    0.0000 C   0  0  0  0  0  0  0  0  0  0  0  0
   11.9569   -8.0300    0.0000 C   0  0  0  0  0  0  0  0  0  0  0  0
   11.9569   -7.2050    0.0000 C   0  0  0  0  0  0  0  0  0  0  0  0
   11.2424   -6.7925    0.0000 C   0  0  0  0  0  0  0  0  0  0  0  0
   10.5279   -7.2050    0.0000 C   0  0  0  0  0  0  0  0  0  0  0  0
    7.6700   -7.2050    0.0000 C   0  0  0  0  0  0  0  0  0  0  0  0
    6.9556   -6.7925    0.0000 C   0  0  0  0  0  0  0  0  0  0  0  0
    7.6700   -5.5550    0.0000 C   0  0  0  0  0  0  0  0  0  0  0  0
    6.9556   -5.9675    0.0000 C   0  0  0  0  0  0  0  0  0  0  0  0
    7.6700   -4.7300    0.0000 C   0  0  0  0  0  0  0  0  0  0  0  0
    6.9556   -4.3175    0.0000 C   0  0  0  0  0  0  0  0  0  0  0  0
    6.2411   -4.7300    0.0000 C   0  0  0  0  0  0  0  0  0  0  0  0
    6.2411   -5.5550    0.0000 C   0  0  0  0  0  0  0  0  0  0  0  0
    9.0990   -7.2050    0.0000 C   0  0  0  0  0  0  0  0  0  0  0  0
    9.8134   -6.7925    0.0000 C   0  0  0  0  0  0  0  0  0  0  0  0
    9.8134   -5.9675    0.0000 C   0  0  0  0  0  0  0  0  0  0  0  0
    9.0990   -5.5550    0.0000 C   0  0  0  0  0  0  0  0  0  0  0  0
    8.3845   -5.9675    0.0000 C   0  0  0  0  0  0  0  0  0  0  0  0
    8.3845   -6.7925    0.0000 C   0  0  0  0  0  0  0  0  0  0  0  0
    9.0990   -4.7300    0.0000 O   0  0  0  0  0  0  0  0  0  0  0  0
   11.2424   -5.9675    0.0000 O   0  0  0  0  0  0  0  0  0  0  0  0
   12.6713   -8.4425    0.0000 O   0  0  0  0  0  0  0  0  0  0  0  0
   11.2974  -10.1475    0.0000 O   0  0  0  0  0  0  0  0  0  0  0  0
    6.9556   -3.4925    0.0000 O   0  0  0  0  0  0  0  0  0  0  0  0
    6.2411   -9.6800    0.0000 O   0  0  0  0  0  0  0  0  0  0  0  0
    5.8423   -7.7963    0.0000 O   0  0  0  0  0  0  0  0  0  0  0  0
    3.7815   -7.0808    0.0000 C   0  0  2  0  0  0  0  0  0  0  0  0
    3.3691   -7.7953    0.0000 C   0  0  2  0  0  0  0  0  0  0  0  0
    3.7818   -8.5097    0.0000 C   0  0  1  0  0  0  0  0  0  0  0  0
    4.6068   -8.5095    0.0000 C   0  0  2  0  0  0  0  0  0  0  0  0
    5.0191   -7.7949    0.0000 C   0  0  1  0  0  0  0  0  0  0  0  0
    4.6065   -7.0806    0.0000 O   0  0  0  0  0  0  0  0  0  0  0  0
    3.3688   -6.3664    0.0000 C   0  0  0  0  0  0  0  0  0  0  0  0
    3.3695   -9.2243    0.0000 O   0  0  0  0  0  0  0  0  0  0  0  0
    2.5441   -7.7955    0.0000 O   0  0  0  0  0  0  0  0  0  0  0  0
    5.0195   -9.2239    0.0000 O   0  0  0  0  0  0  0  0  0  0  0  0
    2.5438   -6.3666    0.0000 O   0  0  0  0  0  0  0  0  0  0  0  0
    9.1415  -10.5547    0.0000 C   0  0  2  0  0  0  0  0  0  0  0  0
    9.1415  -11.3797    0.0000 C   0  0  2  0  0  0  0  0  0  0  0  0
    9.8560  -11.7922    0.0000 C   0  0  1  0  0  0  0  0  0  0  0  0
   10.5705  -11.3797    0.0000 C   0  0  2  0  0  0  0  0  0  0  0  0
   10.5705  -10.5547    0.0000 C   0  0  1  0  0  0  0  0  0  0  0  0
    9.8560  -10.1422    0.0000 O   0  0  0  0  0  0  0  0  0  0  0  0
    8.4271  -10.1422    0.0000 C   0  0  0  0  0  0  0  0  0  0  0  0
    9.8560  -12.6172    0.0000 O   0  0  0  0  0  0  0  0  0  0  0  0
    8.4271  -11.7922    0.0000 O   0  0  0  0  0  0  0  0  0  0  0  0
   11.2850  -11.7922    0.0000 O   0  0  0  0  0  0  0  0  0  0  0  0
    7.7126  -10.5547    0.0000 O   0  0  0  0  0  0  0  0  0  0  0  0
  1  2  1  0  0  0  0
  2  3  2  0  0  0  0
  3  4  1  0  0  0  0
  4  5  2  0  0  0  0
  5  6  1  0  0  0  0
  6  1  2  0  0  0  0
  4  7  1  0  0  0  0
  9  8  1  1  0  0  0
  9 10  1  0  0  0  0
 10  5  1  0  0  0  0
 11 12  2  0  0  0  0
 12  9  1  0  0  0  0
 11 13  1  0  0  0  0
 13 14  2  0  0  0  0
 14 15  1  0  0  0  0
 15 16  2  0  0  0  0
 16 12  1  0  0  0  0
  6 17  1  0  0  0  0
 17 18  2  0  0  0  0
 19 20  2  0  0  0  0
 20 18  1  0  0  0  0
 19 21  1  0  0  0  0
 21 22  2  0  0  0  0
 22 23  1  0  0  0  0
 23 24  2  0  0  0  0
 24 20  1  0  0  0  0
 10 25  1  1  0  0  0
 25 26  2  0  0  0  0
 26 27  1  0  0  0  0
 27 28  2  0  0  0  0
 28 29  1  0  0  0  0
 29 30  2  0  0  0  0
 30 25  1  0  0  0  0
 28 31  1  0  0  0  0
 15 32  1  0  0  0  0
 13 33  1  0  0  0  0
 11 34  1  0  0  0  0
 22 35  1  0  0  0  0
  2 36  1  0  0  0  0
  1 37  1  0  0  0  0
 38 39  1  0  0  0  0
 39 40  1  0  0  0  0
 40 41  1  0  0  0  0
 41 42  1  0  0  0  0
 42 43  1  0  0  0  0
 43 38  1  0  0  0  0
 38 44  1  1  0  0  0
 40 45  1  1  0  0  0
 39 46  1  6  0  0  0
 41 47  1  6  0  0  0
 44 48  1  0  0  0  0
 49 50  1  0  0  0  0
 50 51  1  0  0  0  0
 51 52  1  0  0  0  0
 52 53  1  0  0  0  0
 53 54  1  0  0  0  0
 54 49  1  0  0  0  0
 49 55  1  1  0  0  0
 51 56  1  1  0  0  0
 50 57  1  6  0  0  0
 52 58  1  6  0  0  0
 55 59  1  0  0  0  0
 42 37  1  1  0  0  0
 53 34  1  1  0  0  0
M  END
>  <cdx:fragmentId>
5

$$$$
