93601.cdx
  Mrv1902 05222410212D          

 28 31  0  0  0  0            999 V2000
   11.4462   -9.5664    0.0000 O   0  0  0  0  0  0  0  0  0  0  0  0
   10.0173   -7.9164    0.0000 C   0  0  0  0  0  0  0  0  0  0  0  0
   10.7317   -8.3289    0.0000 C   0  0  0  0  0  0  0  0  0  0  0  0
   10.7317   -9.1539    0.0000 C   0  0  0  0  0  0  0  0  0  0  0  0
   10.0173   -9.5664    0.0000 C   0  0  0  0  0  0  0  0  0  0  0  0
    9.3028   -9.1539    0.0000 C   0  0  0  0  0  0  0  0  0  0  0  0
    9.3028   -8.3289    0.0000 C   0  0  0  0  0  0  0  0  0  0  0  0
    8.5883   -7.9164    0.0000 C   0  0  0  0  0  0  0  0  0  0  0  0
    5.7304   -7.9164    0.0000 C   0  0  0  0  0  0  0  0  0  0  0  0
    6.4449   -8.3289    0.0000 N   0  0  0  0  0  0  0  0  0  0  0  0
    7.8738   -8.3289    0.0000 N   0  0  0  0  0  0  0  0  0  0  0  0
    7.1594   -7.9164    0.0000 C   0  0  0  0  0  0  0  0  0  0  0  0
    7.1594   -7.0914    0.0000 N   0  0  0  0  0  0  0  0  0  0  0  0
    6.4449   -5.8539    0.0000 O   0  0  0  0  0  0  0  0  0  0  0  0
    6.4449   -6.6789    0.0000 C   0  0  0  0  0  0  0  0  0  0  0  0
    5.7304   -7.0914    0.0000 C   0  0  0  0  0  0  0  0  0  0  0  0
    4.9458   -6.8365    0.0000 N   0  0  0  0  0  0  0  0  0  0  0  0
    4.4609   -7.5039    0.0000 C   0  0  0  0  0  0  0  0  0  0  0  0
    4.9458   -8.1714    0.0000 N   0  0  0  0  0  0  0  0  0  0  0  0
    3.9062   -9.2109    0.0000 O   0  0  0  0  0  0  0  0  0  0  0  0
    4.6909   -8.9560    0.0000 C   0  0  2  0  0  0  0  0  0  0  0  0
    6.0008   -9.6234    0.0000 O   0  0  0  0  0  0  0  0  0  0  0  0
    5.1758   -9.6234    0.0000 C   0  0  2  0  0  0  0  0  0  0  0  0
    4.9458  -11.0755    0.0000 O   0  0  0  0  0  0  0  0  0  0  0  0
    4.6909  -10.2909    0.0000 C   0  0  2  0  0  0  0  0  0  0  0  0
    3.9062  -10.0359    0.0000 C   0  0  1  0  0  0  0  0  0  0  0  0
    3.2388  -10.5209    0.0000 C   0  0  0  0  0  0  0  0  0  0  0  0
    3.2388  -11.3459    0.0000 O   0  0  0  0  0  0  0  0  0  0  0  0
 11  8  1  0  0  0  0
  8  7  1  0  0  0  0
  4  1  1  0  0  0  0
  7  2  2  0  0  0  0
  3  2  1  0  0  0  0
  4  3  2  0  0  0  0
  5  4  1  0  0  0  0
  6  5  2  0  0  0  0
  7  6  1  0  0  0  0
 19  9  1  0  0  0  0
 16  9  2  0  0  0  0
 10  9  1  0  0  0  0
 12 10  2  0  0  0  0
 12 11  1  0  0  0  0
 13 12  1  0  0  0  0
 15 13  1  0  0  0  0
 15 14  2  0  0  0  0
 16 15  1  0  0  0  0
 17 16  1  0  0  0  0
 18 17  2  0  0  0  0
 19 18  1  0  0  0  0
 21 19  1  1  0  0  0
 26 20  1  0  0  0  0
 21 20  1  0  0  0  0
 23 21  1  0  0  0  0
 23 22  1  6  0  0  0
 25 23  1  0  0  0  0
 25 24  1  6  0  0  0
 26 25  1  0  0  0  0
 26 27  1  1  0  0  0
 28 27  1  0  0  0  0
M  END
>  <cdx:fragmentId>
113

$$$$
