936049.cdx
  Mrv1902 05222410232D          

 37 41  0  0  0  0            999 V2000
    7.1495   -8.8627    0.0000 C   0  0  1  0  0  0  0  0  0  0  0  0
    7.8639   -8.4502    0.0000 C   0  0  2  0  0  0  0  0  0  0  0  0
    8.5784   -8.8627    0.0000 C   0  0  0  0  0  0  0  0  0  0  0  0
    9.2929   -8.4502    0.0000 C   0  0  0  0  0  0  0  0  0  0  0  0
    9.2929   -7.6252    0.0000 C   0  0  1  0  0  0  0  0  0  0  0  0
    9.9060   -7.0732    0.0000 C   0  0  0  0  0  0  0  0  0  0  0  0
    9.5704   -6.3195    0.0000 C   0  0  0  0  0  0  0  0  0  0  0  0
    8.7499   -6.4058    0.0000 C   0  0  2  0  0  0  0  0  0  0  0  0
    8.5784   -7.2127    0.0000 C   0  0  2  0  0  0  0  0  0  0  0  0
    7.8639   -7.6252    0.0000 C   0  0  1  0  0  0  0  0  0  0  0  0
    7.1495   -7.2127    0.0000 C   0  0  0  0  0  0  0  0  0  0  0  0
    6.4350   -7.6252    0.0000 C   0  0  0  0  0  0  0  0  0  0  0  0
    6.4350   -8.4502    0.0000 C   0  0  2  0  0  0  0  0  0  0  0  0
    5.7205   -8.8627    0.0000 C   0  0  1  0  0  0  0  0  0  0  0  0
    4.9359   -8.6078    0.0000 C   0  0  0  0  0  0  0  0  0  0  0  0
    4.4510   -9.2752    0.0000 C   0  0  0  0  0  0  0  0  0  0  0  0
    4.9359   -9.9427    0.0000 C   0  0  0  0  0  0  0  0  0  0  0  0
    5.7205   -9.6877    0.0000 C   0  0  2  0  0  0  0  0  0  0  0  0
    6.4350  -10.1002    0.0000 C   0  0  0  0  0  0  0  0  0  0  0  0
    7.1495   -9.6877    0.0000 C   0  0  0  0  0  0  0  0  0  0  0  0
   10.0466   -7.9608    0.0000 C   0  0  0  0  0  0  0  0  0  0  0  0
   10.0466   -8.7858    0.0000 O   0  0  0  0  0  0  0  0  0  0  0  0
   10.7610   -7.5483    0.0000 O   0  0  0  0  0  0  0  0  0  0  0  0
    8.4528   -5.0080    0.0000 C   0  0  0  0  0  0  0  0  0  0  0  0
    8.1979   -5.7927    0.0000 C   0  0  0  0  0  0  0  0  0  0  0  0
    7.3909   -5.9642    0.0000 C   0  0  0  0  0  0  0  0  0  0  0  0
    5.1074  -10.7496    0.0000 C   0  0  0  0  0  0  0  0  0  0  0  0
    4.3228  -10.4947    0.0000 C   0  0  0  0  0  0  0  0  0  0  0  0
    5.7205   -8.0377    0.0000 C   0  0  0  0  0  0  0  0  0  0  0  0
    7.8639   -9.2752    0.0000 C   0  0  0  0  0  0  0  0  0  0  0  0
    7.1495   -8.0377    0.0000 C   0  0  0  0  0  0  0  0  0  0  0  0
    4.6810   -7.8232    0.0000 C   0  0  0  0  0  0  0  0  0  0  0  0
    3.8740   -7.6516    0.0000 O   0  0  0  0  0  0  0  0  0  0  0  0
    8.5784   -8.0377    0.0000 H   0  0  0  0  0  0  0  0  0  0  0  0
    7.8639   -6.8002    0.0000 H   0  0  0  0  0  0  0  0  0  0  0  0
    6.4350   -9.2752    0.0000 H   0  0  0  0  0  0  0  0  0  0  0  0
    5.7205  -10.5127    0.0000 H   0  0  0  0  0  0  0  0  0  0  0  0
  1  2  1  0  0  0  0
  2  3  1  0  0  0  0
  3  4  1  0  0  0  0
  4  5  1  0  0  0  0
  5  6  1  0  0  0  0
  6  7  1  0  0  0  0
  7  8  1  0  0  0  0
  8  9  1  0  0  0  0
  9 10  1  0  0  0  0
 10 11  1  0  0  0  0
 11 12  1  0  0  0  0
 12 13  1  0  0  0  0
 13 14  1  0  0  0  0
 14 15  1  0  0  0  0
 15 16  2  0  0  0  0
 16 17  1  0  0  0  0
 17 18  1  0  0  0  0
 18 19  1  0  0  0  0
 19 20  1  0  0  0  0
  1 20  1  0  0  0  0
  1 13  1  0  0  0  0
 14 18  1  0  0  0  0
  2 10  1  0  0  0  0
  5  9  1  0  0  0  0
 21 22  2  0  0  0  0
 21 23  1  0  0  0  0
  5 21  1  1  0  0  0
 24 25  2  0  0  0  0
 25 26  1  0  0  0  0
  8 25  1  6  0  0  0
 17 27  1  0  0  0  0
 17 28  1  0  0  0  0
 14 29  1  1  0  0  0
  2 30  1  6  0  0  0
  1 31  1  1  0  0  0
 32 33  2  0  0  0  0
 15 32  1  0  0  0  0
  9 34  1  6  0  0  0
 10 35  1  1  0  0  0
 13 36  1  6  0  0  0
 18 37  1  6  0  0  0
M  END
>  <cdx:fragmentId>
1261

$$$$
