93613.cdx
  Mrv1902 05222410222D          

 31 33  0  0  0  0            999 V2000
    4.4326   -3.6908    0.0000 C   0  0  0  0  0  0  0  0  0  0  0  0
    4.2577   -4.4971    0.0000 C   0  0  0  0  0  0  0  0  0  0  0  0
    4.8685   -5.0517    0.0000 C   0  0  0  0  0  0  0  0  0  0  0  0
    5.6542   -4.8000    0.0000 C   0  0  0  0  0  0  0  0  0  0  0  0
    5.8291   -3.9937    0.0000 C   0  0  0  0  0  0  0  0  0  0  0  0
    5.2183   -3.4392    0.0000 C   0  0  0  0  0  0  0  0  0  0  0  0
    6.6147   -3.7421    0.0000 C   0  0  1  0  0  0  0  0  0  0  0  0
    7.2801   -4.2298    0.0000 O   0  0  0  0  0  0  0  0  0  0  0  0
    7.9496   -3.7476    0.0000 C   0  0  2  0  0  0  0  0  0  0  0  0
    7.6979   -2.9619    0.0000 C   0  0  1  0  0  0  0  0  0  0  0  0
    6.8729   -2.9585    0.0000 C   0  0  2  0  0  0  0  0  0  0  0  0
    8.7331   -4.0058    0.0000 C   0  0  0  0  0  0  0  0  0  0  0  0
    8.9013   -4.8135    0.0000 C   0  0  0  0  0  0  0  0  0  0  0  0
    9.6849   -5.0717    0.0000 C   0  0  0  0  0  0  0  0  0  0  0  0
   10.3003   -4.5222    0.0000 C   0  0  0  0  0  0  0  0  0  0  0  0
   10.1321   -3.7145    0.0000 C   0  0  0  0  0  0  0  0  0  0  0  0
    9.3485   -3.4563    0.0000 C   0  0  0  0  0  0  0  0  0  0  0  0
    4.6936   -5.8579    0.0000 O   0  0  0  0  0  0  0  0  0  0  0  0
    5.3044   -6.4125    0.0000 C   0  0  0  0  0  0  0  0  0  0  0  0
    3.4720   -4.7488    0.0000 O   0  0  0  0  0  0  0  0  0  0  0  0
    3.2971   -5.5550    0.0000 C   0  0  0  0  0  0  0  0  0  0  0  0
    3.8218   -3.1363    0.0000 O   0  0  0  0  0  0  0  0  0  0  0  0
    3.0361   -3.3879    0.0000 C   0  0  0  0  0  0  0  0  0  0  0  0
    9.8530   -5.8794    0.0000 O   0  0  0  0  0  0  0  0  0  0  0  0
    9.2377   -6.4289    0.0000 C   0  0  0  0  0  0  0  0  0  0  0  0
   11.0838   -4.7804    0.0000 O   0  0  0  0  0  0  0  0  0  0  0  0
   11.3355   -5.5661    0.0000 C   0  0  0  0  0  0  0  0  0  0  0  0
   10.7475   -3.1651    0.0000 O   0  0  0  0  0  0  0  0  0  0  0  0
   11.5537   -3.3399    0.0000 C   0  0  0  0  0  0  0  0  0  0  0  0
    6.3908   -2.2891    0.0000 C   0  0  0  0  0  0  0  0  0  0  0  0
    8.1856   -2.2965    0.0000 C   0  0  0  0  0  0  0  0  0  0  0  0
  1  2  2  0  0  0  0
  2  3  1  0  0  0  0
  3  4  2  0  0  0  0
  4  5  1  0  0  0  0
  5  6  2  0  0  0  0
  6  1  1  0  0  0  0
  7  5  1  6  0  0  0
  7  8  1  0  0  0  0
  8  9  1  0  0  0  0
  9 10  1  0  0  0  0
 10 11  1  0  0  0  0
 11  7  1  0  0  0  0
  9 12  1  6  0  0  0
 12 13  2  0  0  0  0
 13 14  1  0  0  0  0
 14 15  2  0  0  0  0
 15 16  1  0  0  0  0
 16 17  2  0  0  0  0
 17 12  1  0  0  0  0
  3 18  1  0  0  0  0
 18 19  1  0  0  0  0
  2 20  1  0  0  0  0
 20 21  1  0  0  0  0
  1 22  1  0  0  0  0
 22 23  1  0  0  0  0
 14 24  1  0  0  0  0
 24 25  1  0  0  0  0
 15 26  1  0  0  0  0
 26 27  1  0  0  0  0
 16 28  1  0  0  0  0
 28 29  1  0  0  0  0
 11 30  1  1  0  0  0
 10 31  1  1  0  0  0
M  END
>  <cdx:fragmentId>
5

$$$$
