93615.cdx
  Mrv1902 05222410212D          

 71 78  0  0  0  0            999 V2000
    2.7618   -6.0638    0.0000 C   0  0  1  0  0  0  0  0  0  0  0  0
    2.7618   -6.8888    0.0000 C   0  0  1  0  0  0  0  0  0  0  0  0
    3.4763   -7.3012    0.0000 C   0  0  2  0  0  0  0  0  0  0  0  0
    4.1907   -6.8888    0.0000 C   0  0  1  0  0  0  0  0  0  0  0  0
    4.1907   -6.0638    0.0000 C   0  0  2  0  0  0  0  0  0  0  0  0
    3.4763   -5.6512    0.0000 C   0  0  0  0  0  0  0  0  0  0  0  0
    4.9052   -7.3012    0.0000 C   0  0  0  0  0  0  0  0  0  0  0  0
    5.6197   -6.8888    0.0000 C   0  0  0  0  0  0  0  0  0  0  0  0
    5.6197   -6.0638    0.0000 C   0  0  2  0  0  0  0  0  0  0  0  0
    4.9052   -5.6512    0.0000 C   0  0  2  0  0  0  0  0  0  0  0  0
    6.3342   -5.6512    0.0000 C   0  0  1  0  0  0  0  0  0  0  0  0
    6.3342   -4.8263    0.0000 C   0  0  0  0  0  0  0  0  0  0  0  0
    5.6197   -4.4138    0.0000 C   0  0  0  0  0  0  0  0  0  0  0  0
    4.9052   -4.8263    0.0000 C   0  0  0  0  0  0  0  0  0  0  0  0
    7.0486   -6.0638    0.0000 C   0  0  0  0  0  0  0  0  0  0  0  0
    7.7631   -5.6512    0.0000 C   0  0  0  0  0  0  0  0  0  0  0  0
    7.7631   -4.8263    0.0000 C   0  0  2  0  0  0  0  0  0  0  0  0
    7.0486   -4.4138    0.0000 C   0  0  1  0  0  0  0  0  0  0  0  0
    8.4776   -4.4138    0.0000 C   0  0  0  0  0  0  0  0  0  0  0  0
    8.4776   -3.5887    0.0000 C   0  0  0  0  0  0  0  0  0  0  0  0
    7.7631   -3.1763    0.0000 C   0  0  2  0  0  0  0  0  0  0  0  0
    7.0486   -3.5887    0.0000 C   0  0  2  0  0  0  0  0  0  0  0  0
    2.0473   -7.3012    0.0000 O   0  0  0  0  0  0  0  0  0  0  0  0
    4.1907   -5.2387    0.0000 C   0  0  0  0  0  0  0  0  0  0  0  0
    5.6197   -5.2387    0.0000 C   0  0  0  0  0  0  0  0  0  0  0  0
    8.4776   -5.2387    0.0000 C   0  0  0  0  0  0  0  0  0  0  0  0
    6.3342   -3.1763    0.0000 C   0  0  0  0  0  0  0  0  0  0  0  0
    2.0473   -5.6512    0.0000 O   0  0  0  0  0  0  0  0  0  0  0  0
    3.8888   -8.0157    0.0000 C   0  0  0  0  0  0  0  0  0  0  0  0
    6.3342   -6.4763    0.0000 C   0  0  0  0  0  0  0  0  0  0  0  0
    3.0638   -8.0157    0.0000 C   0  0  0  0  0  0  0  0  0  0  0  0
    2.2388   -8.0157    0.0000 O   0  0  0  0  0  0  0  0  0  0  0  0
    3.4763   -8.7302    0.0000 O   0  0  0  0  0  0  0  0  0  0  0  0
    9.1920   -4.8263    0.0000 O   0  0  0  0  0  0  0  0  0  0  0  0
    8.4776   -6.0638    0.0000 O   0  0  0  0  0  0  0  0  0  0  0  0
    4.1907   -7.7138    0.0000 H   0  0  0  0  0  0  0  0  0  0  0  0
    4.9052   -6.4763    0.0000 H   0  0  0  0  0  0  0  0  0  0  0  0
    7.0486   -5.2387    0.0000 H   0  0  0  0  0  0  0  0  0  0  0  0
    7.7631   -2.3512    0.0000 C   0  0  0  0  0  0  0  0  0  0  0  0
   10.6157   -8.9492    0.0000 O   0  0  0  0  0  0  0  0  0  0  0  0
    9.8967  -10.1841    0.0000 O   0  0  0  0  0  0  0  0  0  0  0  0
   10.6127   -9.7742    0.0000 C   0  0  2  0  0  0  0  0  0  0  0  0
   11.3256  -10.1893    0.0000 C   0  0  1  0  0  0  0  0  0  0  0  0
   11.3226  -11.0143    0.0000 C   0  0  2  0  0  0  0  0  0  0  0  0
   10.6066  -11.4242    0.0000 C   0  0  1  0  0  0  0  0  0  0  0  0
    9.8937  -11.0091    0.0000 C   0  0  1  0  0  0  0  0  0  0  0  0
    8.4647  -11.0039    0.0000 O   0  0  0  0  0  0  0  0  0  0  0  0
   12.0356  -11.4294    0.0000 O   0  0  0  0  0  0  0  0  0  0  0  0
   12.0416   -9.7794    0.0000 O   0  0  0  0  0  0  0  0  0  0  0  0
   10.5976  -13.8992    0.0000 O   0  0  0  0  0  0  0  0  0  0  0  0
    9.1656  -14.7190    0.0000 O   0  0  0  0  0  0  0  0  0  0  0  0
    7.7397  -13.8887    0.0000 O   0  0  0  0  0  0  0  0  0  0  0  0
    7.7457  -12.2388    0.0000 C   0  0  0  0  0  0  0  0  0  0  0  0
    8.4587  -12.6539    0.0000 C   0  0  1  0  0  0  0  0  0  0  0  0
    8.4557  -13.4789    0.0000 C   0  0  1  0  0  0  0  0  0  0  0  0
    9.1686  -13.8940    0.0000 C   0  0  2  0  0  0  0  0  0  0  0  0
    9.8846  -13.4841    0.0000 C   0  0  2  0  0  0  0  0  0  0  0  0
    9.8876  -12.6591    0.0000 C   0  0  1  0  0  0  0  0  0  0  0  0
    9.1747  -12.2440    0.0000 O   0  0  0  0  0  0  0  0  0  0  0  0
   10.6036  -12.2492    0.0000 O   0  0  0  0  0  0  0  0  0  0  0  0
    9.1777  -11.4190    0.0000 C   0  0  0  0  0  0  0  0  0  0  0  0
    9.9019   -8.5355    0.0000 C   0  0  0  0  0  0  0  0  0  0  0  0
    9.9075   -5.2355    0.0000 O   0  0  0  0  0  0  0  0  0  0  0  0
   11.3351   -6.0629    0.0000 O   0  0  0  0  0  0  0  0  0  0  0  0
   11.3322   -7.7129    0.0000 O   0  0  0  0  0  0  0  0  0  0  0  0
    9.9033   -7.7105    0.0000 C   0  0  2  0  0  0  0  0  0  0  0  0
   10.6185   -7.2992    0.0000 C   0  0  2  0  0  0  0  0  0  0  0  0
   10.6199   -6.4742    0.0000 C   0  0  1  0  0  0  0  0  0  0  0  0
    9.9061   -6.0605    0.0000 C   0  0  2  0  0  0  0  0  0  0  0  0
    9.1909   -6.4718    0.0000 C   0  0  1  0  0  0  0  0  0  0  0  0
    9.1895   -7.2968    0.0000 O   0  0  0  0  0  0  0  0  0  0  0  0
  1  2  1  0  0  0  0
  2  3  1  0  0  0  0
  3  4  1  0  0  0  0
  4  5  1  0  0  0  0
  5  6  1  0  0  0  0
  6  1  1  0  0  0  0
  4  7  1  0  0  0  0
  7  8  1  0  0  0  0
  8  9  1  0  0  0  0
  9 10  1  0  0  0  0
 10  5  1  0  0  0  0
  9 11  1  0  0  0  0
 11 12  1  0  0  0  0
 12 13  2  0  0  0  0
 13 14  1  0  0  0  0
 14 10  1  0  0  0  0
 11 15  1  0  0  0  0
 15 16  1  0  0  0  0
 16 17  1  0  0  0  0
 17 18  1  0  0  0  0
 18 12  1  0  0  0  0
 17 19  1  0  0  0  0
 19 20  1  0  0  0  0
 20 21  1  0  0  0  0
 21 22  1  0  0  0  0
 22 18  1  0  0  0  0
  2 23  1  1  0  0  0
  5 24  1  1  0  0  0
  9 25  1  1  0  0  0
 17 26  1  1  0  0  0
 22 27  1  1  0  0  0
  1 28  1  6  0  0  0
  3 29  1  6  0  0  0
 11 30  1  6  0  0  0
  3 31  1  1  0  0  0
 31 32  1  0  0  0  0
 29 33  1  0  0  0  0
 26 34  2  0  0  0  0
 26 35  1  0  0  0  0
  4 36  1  6  0  0  0
 10 37  1  6  0  0  0
 18 38  1  1  0  0  0
 21 39  1  6  0  0  0
 66 62  1  1  0  0  0
 62 40  1  0  0  0  0
 58 60  1  1  0  0  0
 57 50  1  6  0  0  0
 56 51  1  6  0  0  0
 55 52  1  1  0  0  0
 54 53  1  6  0  0  0
 59 54  1  0  0  0  0
 55 54  1  0  0  0  0
 56 55  1  0  0  0  0
 57 56  1  0  0  0  0
 58 57  1  0  0  0  0
 59 58  1  0  0  0  0
 61 47  1  0  0  0  0
 41 42  1  0  0  0  0
 69 63  1  6  0  0  0
 68 64  1  1  0  0  0
 67 65  1  6  0  0  0
 71 66  1  0  0  0  0
 67 66  1  0  0  0  0
 68 67  1  0  0  0  0
 69 68  1  0  0  0  0
 70 69  1  0  0  0  0
 71 70  1  0  0  0  0
 42 43  1  0  0  0  0
 43 44  1  0  0  0  0
 44 45  1  0  0  0  0
 45 46  1  0  0  0  0
 41 46  1  0  0  0  0
 45 60  1  6  0  0  0
 46 61  1  1  0  0  0
 44 48  1  1  0  0  0
 43 49  1  6  0  0  0
 42 40  1  1  0  0  0
 70 35  1  1  0  0  0
M  END
>  <cdx:fragmentId>
5

$$$$
