93611.cdx
  Mrv1902 05222410222D          

 68 75  0  0  0  0            999 V2000
   10.0847  -11.7635    0.0000 C   0  0  2  0  0  0  0  0  0  0  0  0
   10.7991  -12.1760    0.0000 O   0  0  0  0  0  0  0  0  0  0  0  0
   12.2281  -10.5260    0.0000 C   0  0  0  0  0  0  0  0  0  0  0  0
   11.5136  -10.9385    0.0000 C   0  0  0  0  0  0  0  0  0  0  0  0
   11.5136  -11.7635    0.0000 C   0  0  1  0  0  0  0  0  0  0  0  0
   12.2281  -12.1760    0.0000 C   0  0  0  0  0  0  0  0  0  0  0  0
   12.9426  -11.7635    0.0000 C   0  0  2  0  0  0  0  0  0  0  0  0
   13.6570  -12.1760    0.0000 C   0  0  0  0  0  0  0  0  0  0  0  0
   14.3715  -11.7635    0.0000 C   0  0  0  0  0  0  0  0  0  0  0  0
   14.3715  -10.9385    0.0000 C   0  0  1  0  0  0  0  0  0  0  0  0
   15.0860  -10.5260    0.0000 C   0  0  2  0  0  0  0  0  0  0  0  0
   15.8004  -10.9385    0.0000 C   0  0  0  0  0  0  0  0  0  0  0  0
   16.5149  -10.5260    0.0000 C   0  0  0  0  0  0  0  0  0  0  0  0
   16.5149   -9.7010    0.0000 C   0  0  1  0  0  0  0  0  0  0  0  0
   17.2294   -9.2885    0.0000 C   0  0  0  0  0  0  0  0  0  0  0  0
   17.2294   -8.4635    0.0000 C   0  0  0  0  0  0  0  0  0  0  0  0
   16.5149   -8.0510    0.0000 C   0  0  0  0  0  0  0  0  0  0  0  0
   15.8004   -8.4635    0.0000 C   0  0  0  0  0  0  0  0  0  0  0  0
   15.8004   -9.2885    0.0000 C   0  0  1  0  0  0  0  0  0  0  0  0
   15.0860   -9.7010    0.0000 C   0  0  0  0  0  0  0  0  0  0  0  0
   14.3715   -9.2885    0.0000 C   0  0  0  0  0  0  0  0  0  0  0  0
   13.6570   -9.7010    0.0000 C   0  0  0  0  0  0  0  0  0  0  0  0
   13.6570  -10.5260    0.0000 C   0  0  2  0  0  0  0  0  0  0  0  0
   12.9426  -10.9385    0.0000 C   0  0  1  0  0  0  0  0  0  0  0  0
   17.2294  -10.1135    0.0000 C   0  0  0  0  0  0  0  0  0  0  0  0
   17.2294  -10.9385    0.0000 O   0  0  0  0  0  0  0  0  0  0  0  0
   17.9439   -9.7010    0.0000 O   0  0  0  0  0  0  0  0  0  0  0  0
   12.9426  -10.1135    0.0000 C   0  0  0  0  0  0  0  0  0  0  0  0
   16.1024   -7.3365    0.0000 C   0  0  0  0  0  0  0  0  0  0  0  0
   16.9274   -7.3365    0.0000 C   0  0  0  0  0  0  0  0  0  0  0  0
   15.0860  -11.3510    0.0000 C   0  0  0  0  0  0  0  0  0  0  0  0
   14.3715  -10.1135    0.0000 C   0  0  0  0  0  0  0  0  0  0  0  0
   12.6406  -12.8905    0.0000 C   0  0  0  0  0  0  0  0  0  0  0  0
   11.8156  -12.8905    0.0000 C   0  0  0  0  0  0  0  0  0  0  0  0
   12.9426  -12.5885    0.0000 H   0  0  0  0  0  0  0  0  0  0  0  0
   15.8004  -10.1135    0.0000 H   0  0  0  0  0  0  0  0  0  0  0  0
   13.6570  -11.3510    0.0000 H   0  0  0  0  0  0  0  0  0  0  0  0
   10.0847  -10.9385    0.0000 O   0  0  0  0  0  0  0  0  0  0  0  0
    9.3702  -10.5260    0.0000 C   0  0  1  0  0  0  0  0  0  0  0  0
    8.6557  -10.9385    0.0000 C   0  0  2  0  0  0  0  0  0  0  0  0
    8.6557  -11.7635    0.0000 C   0  0  1  0  0  0  0  0  0  0  0  0
    9.3702  -12.1760    0.0000 C   0  0  1  0  0  0  0  0  0  0  0  0
    9.3702  -13.0010    0.0000 O   0  0  0  0  0  0  0  0  0  0  0  0
    8.6557  -13.4135    0.0000 C   0  0  2  0  0  0  0  0  0  0  0  0
    7.9413  -13.0010    0.0000 O   0  0  0  0  0  0  0  0  0  0  0  0
    7.2268  -13.4135    0.0000 C   0  0  1  0  0  0  0  0  0  0  0  0
    7.2268  -14.2385    0.0000 C   0  0  2  0  0  0  0  0  0  0  0  0
    7.9413  -14.6510    0.0000 C   0  0  1  0  0  0  0  0  0  0  0  0
    8.6557  -14.2385    0.0000 C   0  0  1  0  0  0  0  0  0  0  0  0
    9.3702   -9.7010    0.0000 C   0  0  0  0  0  0  0  0  0  0  0  0
    7.9413  -12.1760    0.0000 O   0  0  0  0  0  0  0  0  0  0  0  0
    6.5123  -13.0010    0.0000 C   0  0  0  0  0  0  0  0  0  0  0  0
    7.9413  -15.4760    0.0000 O   0  0  0  0  0  0  0  0  0  0  0  0
    7.9413  -10.5260    0.0000 O   0  0  0  0  0  0  0  0  0  0  0  0
    6.5123  -14.6510    0.0000 O   0  0  0  0  0  0  0  0  0  0  0  0
    9.3702  -14.6510    0.0000 O   0  0  0  0  0  0  0  0  0  0  0  0
    5.7978  -13.4135    0.0000 O   0  0  0  0  0  0  0  0  0  0  0  0
    8.6557   -9.2885    0.0000 O   0  0  0  0  0  0  0  0  0  0  0  0
   10.0847   -9.2885    0.0000 O   0  0  0  0  0  0  0  0  0  0  0  0
    6.0940  -15.3621    0.0000 C   0  0  2  0  0  0  0  0  0  0  0  0
    5.2690  -15.3554    0.0000 O   0  0  0  0  0  0  0  0  0  0  0  0
    4.8507  -16.0665    0.0000 C   0  0  0  0  0  0  0  0  0  0  0  0
    5.2574  -16.7843    0.0000 C   0  0  1  0  0  0  0  0  0  0  0  0
    6.0824  -16.7910    0.0000 C   0  0  1  0  0  0  0  0  0  0  0  0
    6.5007  -16.0799    0.0000 C   0  0  1  0  0  0  0  0  0  0  0  0
    6.4891  -17.5088    0.0000 O   0  0  0  0  0  0  0  0  0  0  0  0
    4.8391  -17.4954    0.0000 O   0  0  0  0  0  0  0  0  0  0  0  0
    7.3257  -16.0866    0.0000 O   0  0  0  0  0  0  0  0  0  0  0  0
  3  4  1  0  0  0  0
  4  5  1  0  0  0  0
  5  6  1  0  0  0  0
  6  7  1  0  0  0  0
  7  8  1  0  0  0  0
  8  9  1  0  0  0  0
  9 10  1  0  0  0  0
 10 11  1  0  0  0  0
 11 12  1  0  0  0  0
 12 13  1  0  0  0  0
 13 14  1  0  0  0  0
 14 15  1  0  0  0  0
 15 16  1  0  0  0  0
 16 17  1  0  0  0  0
 17 18  1  0  0  0  0
 18 19  1  0  0  0  0
 14 19  1  0  0  0  0
 19 20  1  0  0  0  0
 11 20  1  0  0  0  0
 20 21  2  0  0  0  0
 21 22  1  0  0  0  0
 22 23  1  0  0  0  0
 10 23  1  0  0  0  0
 23 24  1  0  0  0  0
  7 24  1  0  0  0  0
  3 24  1  0  0  0  0
 25 26  1  0  0  0  0
 25 27  2  0  0  0  0
 14 25  1  1  0  0  0
 24 28  1  1  0  0  0
 17 29  1  0  0  0  0
 17 30  1  0  0  0  0
 11 31  1  6  0  0  0
 10 32  1  1  0  0  0
  6 33  1  0  0  0  0
  6 34  1  0  0  0  0
  5  2  1  1  0  0  0
  1  2  1  1  0  0  0
  7 35  1  6  0  0  0
 19 36  1  1  0  0  0
 23 37  1  6  0  0  0
  1 38  1  0  0  0  0
 38 39  1  0  0  0  0
 39 40  1  0  0  0  0
 40 41  1  0  0  0  0
 41 42  1  0  0  0  0
 42  1  1  0  0  0  0
 42 43  1  6  0  0  0
 44 43  1  1  0  0  0
 44 45  1  0  0  0  0
 45 46  1  0  0  0  0
 46 47  1  0  0  0  0
 47 48  1  0  0  0  0
 48 49  1  0  0  0  0
 49 44  1  0  0  0  0
 39 50  1  1  0  0  0
 41 51  1  1  0  0  0
 46 52  1  1  0  0  0
 48 53  1  1  0  0  0
 40 54  1  6  0  0  0
 47 55  1  6  0  0  0
 49 56  1  6  0  0  0
 52 57  1  0  0  0  0
 50 58  1  0  0  0  0
 50 59  2  0  0  0  0
 60 55  1  1  0  0  0
 60 61  1  0  0  0  0
 61 62  1  0  0  0  0
 62 63  1  0  0  0  0
 63 64  1  0  0  0  0
 64 65  1  0  0  0  0
 65 60  1  0  0  0  0
 64 66  1  1  0  0  0
 63 67  1  1  0  0  0
 65 68  1  6  0  0  0
M  END
>  <cdx:fragmentId>
19825

$$$$
