93614.cdx
  Mrv1902 05222410202D          

 32 34  0  0  0  0            999 V2000
    7.8081   -5.8712    0.0000 C   0  0  1  0  0  0  0  0  0  0  0  0
    7.8081   -6.6962    0.0000 C   0  0  2  0  0  0  0  0  0  0  0  0
    8.5225   -7.1088    0.0000 C   0  0  1  0  0  0  0  0  0  0  0  0
    9.2370   -6.6962    0.0000 O   0  0  0  0  0  0  0  0  0  0  0  0
    9.2370   -5.8712    0.0000 C   0  0  0  0  0  0  0  0  0  0  0  0
    8.5225   -5.4588    0.0000 C   0  0  0  0  0  0  0  0  0  0  0  0
    7.0234   -5.6163    0.0000 C   0  0  1  0  0  0  0  0  0  0  0  0
    6.5385   -6.2837    0.0000 C   0  0  0  0  0  0  0  0  0  0  0  0
    7.0234   -6.9512    0.0000 C   0  0  0  0  0  0  0  0  0  0  0  0
    6.7685   -4.8317    0.0000 O   0  0  0  0  0  0  0  0  0  0  0  0
    6.7685   -7.7358    0.0000 C   0  0  0  0  0  0  0  0  0  0  0  0
    5.9716   -7.9493    0.0000 O   0  0  0  0  0  0  0  0  0  0  0  0
    8.5225   -4.6338    0.0000 C   0  0  0  0  0  0  0  0  0  0  0  0
    7.8081   -4.2213    0.0000 O   0  0  0  0  0  0  0  0  0  0  0  0
    9.2370   -4.2213    0.0000 O   0  0  0  0  0  0  0  0  0  0  0  0
    8.5225   -7.9337    0.0000 O   0  0  0  0  0  0  0  0  0  0  0  0
    7.7218   -5.0508    0.0000 C   0  0  0  0  0  0  0  0  0  0  0  0
    7.7218   -7.5167    0.0000 C   0  0  0  0  0  0  0  0  0  0  0  0
    5.7581   -8.7462    0.0000 C   0  0  0  0  0  0  0  0  0  0  0  0
    4.9612   -8.9598    0.0000 C   0  0  0  0  0  0  0  0  0  0  0  0
    6.3414   -9.3296    0.0000 O   0  0  0  0  0  0  0  0  0  0  0  0
    9.9621   -9.5928    0.0000 C   0  0  2  0  0  0  0  0  0  0  0  0
   10.6757   -9.1787    0.0000 C   0  0  2  0  0  0  0  0  0  0  0  0
   10.6739   -8.3538    0.0000 C   0  0  1  0  0  0  0  0  0  0  0  0
    9.9585   -7.9428    0.0000 C   0  0  2  0  0  0  0  0  0  0  0  0
    9.2449   -8.3569    0.0000 C   0  0  1  0  0  0  0  0  0  0  0  0
    9.2467   -9.1819    0.0000 O   0  0  0  0  0  0  0  0  0  0  0  0
    9.9639  -10.4178    0.0000 C   0  0  0  0  0  0  0  0  0  0  0  0
   11.3874   -7.9397    0.0000 O   0  0  0  0  0  0  0  0  0  0  0  0
   11.3910   -9.5897    0.0000 O   0  0  0  0  0  0  0  0  0  0  0  0
    9.9567   -7.1178    0.0000 O   0  0  0  0  0  0  0  0  0  0  0  0
   10.6793  -10.8287    0.0000 O   0  0  0  0  0  0  0  0  0  0  0  0
  1  2  1  0  0  0  0
  2  3  1  0  0  0  0
  3  4  1  0  0  0  0
  4  5  1  0  0  0  0
  5  6  2  0  0  0  0
  6  1  1  0  0  0  0
  1  7  1  0  0  0  0
  7  8  1  0  0  0  0
  8  9  2  0  0  0  0
  9  2  1  0  0  0  0
  7 10  1  1  0  0  0
  9 11  1  0  0  0  0
 11 12  1  0  0  0  0
  6 13  1  0  0  0  0
 13 14  2  0  0  0  0
 13 15  1  0  0  0  0
  3 16  1  1  0  0  0
  1 17  1  1  0  0  0
  2 18  1  1  0  0  0
 12 19  1  0  0  0  0
 19 20  1  0  0  0  0
 19 21  2  0  0  0  0
 22 23  1  0  0  0  0
 23 24  1  0  0  0  0
 24 25  1  0  0  0  0
 25 26  1  0  0  0  0
 26 27  1  0  0  0  0
 27 22  1  0  0  0  0
 22 28  1  1  0  0  0
 24 29  1  1  0  0  0
 23 30  1  6  0  0  0
 25 31  1  6  0  0  0
 28 32  1  0  0  0  0
 26 16  1  1  0  0  0
M  END
>  <cdx:fragmentId>
5

$$$$
