93612.cdx
  Mrv1902 05222410222D          

 38 41  0  0  0  0            999 V2000
    1.8681   -5.9813    0.0000 C   0  0  0  0  0  0  0  0  0  0  0  0
    1.8681   -6.8062    0.0000 C   0  0  0  0  0  0  0  0  0  0  0  0
    2.5825   -7.2188    0.0000 C   0  0  0  0  0  0  0  0  0  0  0  0
    3.2970   -6.8062    0.0000 C   0  0  0  0  0  0  0  0  0  0  0  0
    3.2970   -5.9813    0.0000 C   0  0  0  0  0  0  0  0  0  0  0  0
    2.5825   -5.5687    0.0000 C   0  0  0  0  0  0  0  0  0  0  0  0
    4.7259   -6.8062    0.0000 C   0  0  0  0  0  0  0  0  0  0  0  0
    4.7259   -5.9813    0.0000 C   0  0  0  0  0  0  0  0  0  0  0  0
    4.0115   -5.5687    0.0000 C   0  0  0  0  0  0  0  0  0  0  0  0
    6.1549   -6.8062    0.0000 C   0  0  0  0  0  0  0  0  0  0  0  0
    6.1549   -5.9813    0.0000 C   0  0  0  0  0  0  0  0  0  0  0  0
    5.4404   -5.5687    0.0000 O   0  0  0  0  0  0  0  0  0  0  0  0
    6.8694   -7.2188    0.0000 C   0  0  0  0  0  0  0  0  0  0  0  0
    7.5838   -6.8062    0.0000 C   0  0  0  0  0  0  0  0  0  0  0  0
    7.5838   -5.9813    0.0000 C   0  0  0  0  0  0  0  0  0  0  0  0
    6.8694   -5.5687    0.0000 C   0  0  0  0  0  0  0  0  0  0  0  0
    8.2983   -7.2188    0.0000 C   0  0  0  0  0  0  0  0  0  0  0  0
    8.3845   -8.0392    0.0000 C   0  0  0  0  0  0  0  0  0  0  0  0
    9.1915   -8.2108    0.0000 C   0  0  0  0  0  0  0  0  0  0  0  0
    9.6040   -7.4963    0.0000 C   0  0  0  0  0  0  0  0  0  0  0  0
    9.0520   -6.8832    0.0000 O   0  0  0  0  0  0  0  0  0  0  0  0
   10.4245   -7.4101    0.0000 C   0  0  0  0  0  0  0  0  0  0  0  0
   10.9094   -8.0775    0.0000 C   0  0  0  0  0  0  0  0  0  0  0  0
   11.7299   -7.9913    0.0000 C   0  0  0  0  0  0  0  0  0  0  0  0
   12.0654   -7.2376    0.0000 C   0  0  0  0  0  0  0  0  0  0  0  0
   11.5805   -6.5701    0.0000 C   0  0  0  0  0  0  0  0  0  0  0  0
   10.7600   -6.6564    0.0000 C   0  0  0  0  0  0  0  0  0  0  0  0
   12.8859   -7.1513    0.0000 O   0  0  0  0  0  0  0  0  0  0  0  0
   11.9161   -5.8165    0.0000 O   0  0  0  0  0  0  0  0  0  0  0  0
    7.7714   -8.5913    0.0000 C   0  0  0  0  0  0  0  0  0  0  0  0
    9.5271   -8.9644    0.0000 C   0  0  0  0  0  0  0  0  0  0  0  0
    6.8694   -4.7438    0.0000 O   0  0  0  0  0  0  0  0  0  0  0  0
    7.5838   -4.3313    0.0000 C   0  0  0  0  0  0  0  0  0  0  0  0
    1.1536   -7.2188    0.0000 O   0  0  0  0  0  0  0  0  0  0  0  0
    2.5825   -8.0437    0.0000 O   0  0  0  0  0  0  0  0  0  0  0  0
    3.2970   -8.4563    0.0000 C   0  0  0  0  0  0  0  0  0  0  0  0
    4.0115   -4.7438    0.0000 O   0  0  0  0  0  0  0  0  0  0  0  0
   11.5036   -5.1020    0.0000 C   0  0  0  0  0  0  0  0  0  0  0  0
  1  2  2  0  0  0  0
  2  3  1  0  0  0  0
  3  4  2  0  0  0  0
  4  5  1  0  0  0  0
  5  6  2  0  0  0  0
  6  1  1  0  0  0  0
  7  8  1  0  0  0  0
  8  9  1  0  0  0  0
  9  5  1  0  0  0  0
 10 11  2  0  0  0  0
 11 12  1  0  0  0  0
 12  8  1  0  0  0  0
 10 13  1  0  0  0  0
 13 14  2  0  0  0  0
 14 15  1  0  0  0  0
 15 16  2  0  0  0  0
 16 11  1  0  0  0  0
 14 17  1  0  0  0  0
 17 18  1  0  0  0  0
 18 19  1  0  0  0  0
 19 20  1  0  0  0  0
 20 21  1  0  0  0  0
 21 17  1  0  0  0  0
 20 22  1  0  0  0  0
 22 23  2  0  0  0  0
 23 24  1  0  0  0  0
 24 25  2  0  0  0  0
 25 26  1  0  0  0  0
 26 27  2  0  0  0  0
 27 22  1  0  0  0  0
 25 28  1  0  0  0  0
 26 29  1  0  0  0  0
 18 30  1  0  0  0  0
 19 31  1  0  0  0  0
 16 32  1  0  0  0  0
 32 33  1  0  0  0  0
  2 34  1  0  0  0  0
  3 35  1  0  0  0  0
 35 36  1  0  0  0  0
  9 37  1  0  0  0  0
 29 38  1  0  0  0  0
M  END
>  <cdx:fragmentId>
5

$$$$
