93623.cdx
  Mrv1902 05222410242D          

 29 31  0  0  0  0            999 V2000
    4.7472   -8.5505    0.0000 O   0  0  0  0  0  0  0  0  0  0  0  0
    5.5722   -8.5492    0.0000 C   0  0  0  0  0  0  0  0  0  0  0  0
    5.8259   -7.7642    0.0000 C   0  0  2  0  0  0  0  0  0  0  0  0
    5.1577   -7.2803    0.0000 C   0  0  2  0  0  0  0  0  0  0  0  0
    4.4910   -7.7663    0.0000 C   0  0  0  0  0  0  0  0  0  0  0  0
    6.4926   -7.2782    0.0000 C   0  0  2  0  0  0  0  0  0  0  0  0
    6.2271   -6.4910    0.0000 C   0  0  2  0  0  0  0  0  0  0  0  0
    5.4056   -6.4935    0.0000 C   0  0  0  0  0  0  0  0  0  0  0  0
    7.3233   -7.2689    0.0000 C   0  0  0  0  0  0  0  0  0  0  0  0
    7.5729   -6.4766    0.0000 C   0  0  0  0  0  0  0  0  0  0  0  0
    6.8965   -5.9962    0.0000 C   0  0  0  0  0  0  0  0  0  0  0  0
    3.6856   -7.9450    0.0000 C   0  0  0  0  0  0  0  0  0  0  0  0
    3.9335   -7.1581    0.0000 C   0  0  0  0  0  0  0  0  0  0  0  0
    6.8887   -5.1712    0.0000 O   0  0  0  0  0  0  0  0  0  0  0  0
    7.8148   -7.9315    0.0000 O   0  0  0  0  0  0  0  0  0  0  0  0
    6.4093   -8.3475    0.0000 O   0  0  0  0  0  0  0  0  0  0  0  0
    6.8736   -8.0099    0.0000 O   0  0  0  0  0  0  0  0  0  0  0  0
    9.3007   -5.1427    0.0000 C   0  0  0  0  0  0  0  0  0  0  0  0
    8.9735   -6.7599    0.0000 O   0  0  0  0  0  0  0  0  0  0  0  0
    8.5186   -5.4053    0.0000 C   0  0  0  0  0  0  0  0  0  0  0  0
    8.3550   -6.2140    0.0000 C   0  0  0  0  0  0  0  0  0  0  0  0
    6.0135   -5.6941    0.0000 H   0  0  0  0  0  0  0  0  0  0  0  0
    4.5743   -6.6969    0.0000 H   0  0  0  0  0  0  0  0  0  0  0  0
    6.0582   -9.2159    0.0000 C   0  0  0  0  0  0  0  0  0  0  0  0
    5.7238   -9.9701    0.0000 C   0  0  0  0  0  0  0  0  0  0  0  0
    6.2098  -10.6367    0.0000 C   0  0  0  0  0  0  0  0  0  0  0  0
    4.9035  -10.0576    0.0000 C   0  0  0  0  0  0  0  0  0  0  0  0
    9.9192   -5.6887    0.0000 C   0  0  0  0  0  0  0  0  0  0  0  0
    9.4643   -4.3341    0.0000 C   0  0  0  0  0  0  0  0  0  0  0  0
  1  2  1  0  0  0  0
  2  3  1  0  0  0  0
  3  4  1  0  0  0  0
  4  5  1  0  0  0  0
  5  1  1  0  0  0  0
  3  6  1  0  0  0  0
  6  7  1  0  0  0  0
  7  8  1  0  0  0  0
  8  4  1  0  0  0  0
  6  9  1  0  0  0  0
  9 10  2  0  0  0  0
 10 11  1  0  0  0  0
 11  7  1  0  0  0  0
  5 12  1  0  0  0  0
  5 13  1  0  0  0  0
 11 14  2  0  0  0  0
  9 15  1  0  0  0  0
  3 16  1  1  0  0  0
  6 17  1  1  0  0  0
 10 21  1  0  0  0  0
 20 18  1  0  0  0  0
 21 19  2  0  0  0  0
 21 20  1  0  0  0  0
  7 22  1  1  0  0  0
  4 23  1  1  0  0  0
  2 24  1  0  0  0  0
 24 25  2  0  0  0  0
 25 26  1  0  0  0  0
 25 27  1  0  0  0  0
 18 28  1  0  0  0  0
 18 29  1  0  0  0  0
M  END
>  <cdx:fragmentId>
114

$$$$
