93625.cdx
  Mrv1902 05222410252D          

 54 58  0  0  0  0            999 V2000
    5.2621   -9.0002    0.0000 C   0  0  0  0  0  0  0  0  0  0  0  0
    4.5476   -9.4127    0.0000 C   0  0  0  0  0  0  0  0  0  0  0  0
    5.2621   -8.1752    0.0000 O   0  0  0  0  0  0  0  0  0  0  0  0
    5.9765   -9.4127    0.0000 O   0  0  0  0  0  0  0  0  0  0  0  0
    7.4055   -7.7627    0.0000 O   0  0  0  0  0  0  0  0  0  0  0  0
    6.6910   -8.1752    0.0000 C   0  0  1  0  0  0  0  0  0  0  0  0
    6.6910   -9.0002    0.0000 C   0  0  2  0  0  0  0  0  0  0  0  0
    7.4055   -9.4127    0.0000 C   0  0  1  0  0  0  0  0  0  0  0  0
    8.1200   -9.0002    0.0000 C   0  0  2  0  0  0  0  0  0  0  0  0
    8.1200   -8.1752    0.0000 C   0  0  2  0  0  0  0  0  0  0  0  0
    5.9765   -7.7627    0.0000 C   0  0  0  0  0  0  0  0  0  0  0  0
    5.9765   -6.9377    0.0000 O   0  0  0  0  0  0  0  0  0  0  0  0
    7.4055   -6.9466    0.0000 O   0  0  0  0  0  0  0  0  0  0  0  0
    6.6936   -6.5296    0.0000 C   0  0  2  0  0  0  0  0  0  0  0  0
    6.6987   -5.7047    0.0000 C   0  0  1  0  0  0  0  0  0  0  0  0
    7.4158   -5.2966    0.0000 C   0  0  2  0  0  0  0  0  0  0  0  0
    8.1276   -5.7136    0.0000 C   0  0  2  0  0  0  0  0  0  0  0  0
    8.1225   -6.5386    0.0000 C   0  0  0  0  0  0  0  0  0  0  0  0
    8.8447   -5.3056    0.0000 O   0  0  0  0  0  0  0  0  0  0  0  0
    7.4209   -4.4717    0.0000 O   0  0  0  0  0  0  0  0  0  0  0  0
    5.9869   -5.2877    0.0000 O   0  0  0  0  0  0  0  0  0  0  0  0
    7.4055  -10.2377    0.0000 O   0  0  0  0  0  0  0  0  0  0  0  0
    5.9765  -10.2377    0.0000 O   0  0  0  0  0  0  0  0  0  0  0  0
    6.6910  -10.6502    0.0000 C   0  0  2  0  0  0  0  0  0  0  0  0
    6.6910  -11.4752    0.0000 C   0  0  1  0  0  0  0  0  0  0  0  0
    5.9765  -11.8877    0.0000 C   0  0  1  0  0  0  0  0  0  0  0  0
    5.2621  -11.4752    0.0000 C   0  0  2  0  0  0  0  0  0  0  0  0
    5.2621  -10.6502    0.0000 C   0  0  2  0  0  0  0  0  0  0  0  0
    4.5476  -10.2377    0.0000 C   0  0  0  0  0  0  0  0  0  0  0  0
    4.5476  -11.8877    0.0000 O   0  0  0  0  0  0  0  0  0  0  0  0
    5.9765  -12.7127    0.0000 O   0  0  0  0  0  0  0  0  0  0  0  0
    7.4055  -11.8877    0.0000 O   0  0  0  0  0  0  0  0  0  0  0  0
    8.8344   -7.7627    0.0000 O   0  0  0  0  0  0  0  0  0  0  0  0
    9.5489   -8.1752    0.0000 C   0  0  0  0  0  0  0  0  0  0  0  0
   10.2634   -7.7627    0.0000 C   0  0  0  0  0  0  0  0  0  0  0  0
   10.9778   -8.1752    0.0000 C   0  0  0  0  0  0  0  0  0  0  0  0
   11.6923   -7.7627    0.0000 C   0  0  0  0  0  0  0  0  0  0  0  0
   12.4068   -8.1752    0.0000 C   0  0  0  0  0  0  0  0  0  0  0  0
   12.4068   -9.0002    0.0000 C   0  0  0  0  0  0  0  0  0  0  0  0
   11.6923   -9.4127    0.0000 C   0  0  0  0  0  0  0  0  0  0  0  0
   10.9778   -9.0002    0.0000 C   0  0  0  0  0  0  0  0  0  0  0  0
   13.1213   -9.4127    0.0000 O   0  0  0  0  0  0  0  0  0  0  0  0
   13.1213   -7.7627    0.0000 O   0  0  0  0  0  0  0  0  0  0  0  0
    8.8344   -9.4127    0.0000 O   0  0  0  0  0  0  0  0  0  0  0  0
    3.8331   -5.7002    0.0000 O   0  0  0  0  0  0  0  0  0  0  0  0
    2.4042   -5.7002    0.0000 C   0  0  0  0  0  0  0  0  0  0  0  0
    2.4042   -6.5252    0.0000 O   0  0  0  0  0  0  0  0  0  0  0  0
    4.5476   -7.7627    0.0000 C   0  0  0  0  0  0  0  0  0  0  0  0
    4.5476   -6.9377    0.0000 C   0  0  0  0  0  0  0  0  0  0  0  0
    3.8331   -6.5252    0.0000 C   0  0  0  0  0  0  0  0  0  0  0  0
    3.1187   -6.9377    0.0000 C   0  0  0  0  0  0  0  0  0  0  0  0
    3.1187   -7.7627    0.0000 C   0  0  0  0  0  0  0  0  0  0  0  0
    3.8331   -8.1752    0.0000 C   0  0  0  0  0  0  0  0  0  0  0  0
    3.8331   -9.0002    0.0000 C   0  0  0  0  0  0  0  0  0  0  0  0
 54 53  1  0  0  0  0
 50 45  1  0  0  0  0
 51 47  1  0  0  0  0
 47 46  1  0  0  0  0
 53 48  2  0  0  0  0
 49 48  1  0  0  0  0
 50 49  2  0  0  0  0
 51 50  1  0  0  0  0
 52 51  2  0  0  0  0
 53 52  1  0  0  0  0
  1  2  1  0  0  0  0
  2 54  2  0  0  0  0
  1  3  2  0  0  0  0
  1  4  1  0  0  0  0
  5  6  1  0  0  0  0
  6  7  1  0  0  0  0
  7  8  1  0  0  0  0
  8  9  1  0  0  0  0
  9 10  1  0  0  0  0
  5 10  1  0  0  0  0
 13 14  1  0  0  0  0
 14 15  1  0  0  0  0
 15 16  1  0  0  0  0
 16 17  1  0  0  0  0
 17 18  1  0  0  0  0
 13 18  1  0  0  0  0
 17 19  1  1  0  0  0
 16 20  1  1  0  0  0
 15 21  1  6  0  0  0
 14 12  1  1  0  0  0
 11 12  1  0  0  0  0
  6 11  1  1  0  0  0
 23 24  1  0  0  0  0
 24 25  1  0  0  0  0
 25 26  1  0  0  0  0
 26 27  1  0  0  0  0
 27 28  1  0  0  0  0
 23 28  1  0  0  0  0
 28 29  1  6  0  0  0
 27 30  1  1  0  0  0
 26 31  1  6  0  0  0
 25 32  1  6  0  0  0
 24 22  1  1  0  0  0
  8 22  1  1  0  0  0
 34 35  1  0  0  0  0
 33 34  1  0  0  0  0
 36 37  1  0  0  0  0
 37 38  2  0  0  0  0
 38 39  1  0  0  0  0
 39 40  2  0  0  0  0
 40 41  1  0  0  0  0
 36 41  2  0  0  0  0
 39 42  1  0  0  0  0
 38 43  1  0  0  0  0
 35 36  1  0  0  0  0
 10 33  1  1  0  0  0
  9 44  1  6  0  0  0
  7  4  1  6  0  0  0
M  END
>  <cdx:fragmentId>
145299

$$$$
