93620.cdx
  Mrv1902 05222410232D          

 25 27  0  0  0  0            999 V2000
    5.5088   -6.4022    0.0000 C   0  0  0  0  0  0  0  0  0  0  0  0
    6.2232   -5.9897    0.0000 O   0  0  0  0  0  0  0  0  0  0  0  0
    7.6522   -8.4647    0.0000 O   0  0  0  0  0  0  0  0  0  0  0  0
    7.6522  -10.1147    0.0000 O   0  0  0  0  0  0  0  0  0  0  0  0
    6.2232  -10.9397    0.0000 O   0  0  0  0  0  0  0  0  0  0  0  0
    4.0798   -9.7022    0.0000 O   0  0  0  0  0  0  0  0  0  0  0  0
    4.7943  -10.1147    0.0000 C   0  0  0  0  0  0  0  0  0  0  0  0
    5.5088   -9.7022    0.0000 C   0  0  2  0  0  0  0  0  0  0  0  0
    6.2232  -10.1147    0.0000 C   0  0  2  0  0  0  0  0  0  0  0  0
    6.9377   -9.7022    0.0000 C   0  0  1  0  0  0  0  0  0  0  0  0
    6.9377   -8.8772    0.0000 C   0  0  2  0  0  0  0  0  0  0  0  0
    6.2232   -8.4647    0.0000 C   0  0  1  0  0  0  0  0  0  0  0  0
    5.5088   -8.8772    0.0000 O   0  0  0  0  0  0  0  0  0  0  0  0
    6.2232   -7.6397    0.0000 O   0  0  0  0  0  0  0  0  0  0  0  0
   10.5101   -7.6397    0.0000 O   0  0  0  0  0  0  0  0  0  0  0  0
    9.0811   -7.6397    0.0000 O   0  0  0  0  0  0  0  0  0  0  0  0
    8.3667   -7.2272    0.0000 C   0  0  0  0  0  0  0  0  0  0  0  0
    7.6522   -7.6397    0.0000 C   0  0  0  0  0  0  0  0  0  0  0  0
    6.9377   -7.2272    0.0000 C   0  0  0  0  0  0  0  0  0  0  0  0
    6.9377   -6.4022    0.0000 C   0  0  0  0  0  0  0  0  0  0  0  0
    7.6522   -5.9897    0.0000 C   0  0  0  0  0  0  0  0  0  0  0  0
    8.3667   -6.4022    0.0000 C   0  0  0  0  0  0  0  0  0  0  0  0
    9.0811   -5.9897    0.0000 C   0  0  0  0  0  0  0  0  0  0  0  0
    9.7956   -6.4022    0.0000 C   0  0  0  0  0  0  0  0  0  0  0  0
    9.7956   -7.2272    0.0000 C   0  0  0  0  0  0  0  0  0  0  0  0
 20  2  1  0  0  0  0
  2  1  1  0  0  0  0
 19 14  1  0  0  0  0
 12 14  1  1  0  0  0
 11  3  1  6  0  0  0
 10  4  1  1  0  0  0
  9  5  1  6  0  0  0
  8  7  1  1  0  0  0
  7  6  1  0  0  0  0
 13  8  1  0  0  0  0
  9  8  1  0  0  0  0
 10  9  1  0  0  0  0
 11 10  1  0  0  0  0
 12 11  1  0  0  0  0
 13 12  1  0  0  0  0
 25 15  2  0  0  0  0
 25 16  1  0  0  0  0
 17 16  1  0  0  0  0
 22 17  2  0  0  0  0
 18 17  1  0  0  0  0
 19 18  2  0  0  0  0
 20 19  1  0  0  0  0
 21 20  2  0  0  0  0
 22 21  1  0  0  0  0
 23 22  1  0  0  0  0
 24 23  2  0  0  0  0
 25 24  1  0  0  0  0
M  END
>  <cdx:fragmentId>
29

$$$$
