93624.cdx
  Mrv1902 05222410252D          

 54 58  0  0  0  0            999 V2000
    5.4756  -11.3917    0.0000 C   0  0  2  0  0  0  0  0  0  0  0  0
    6.1934  -11.7985    0.0000 C   0  0  2  0  0  0  0  0  0  0  0  0
    6.9045  -11.3803    0.0000 C   0  0  2  0  0  0  0  0  0  0  0  0
    6.8980  -10.5553    0.0000 C   0  0  1  0  0  0  0  0  0  0  0  0
    6.1802  -10.1485    0.0000 O   0  0  0  0  0  0  0  0  0  0  0  0
    5.4691  -10.5667    0.0000 C   0  0  1  0  0  0  0  0  0  0  0  0
    7.6091  -10.1371    0.0000 O   0  0  0  0  0  0  0  0  0  0  0  0
    7.6025   -9.3121    0.0000 C   0  0  1  0  0  0  0  0  0  0  0  0
    6.8848   -8.9054    0.0000 C   0  0  2  0  0  0  0  0  0  0  0  0
    6.1736   -9.3235    0.0000 O   0  0  0  0  0  0  0  0  0  0  0  0
    8.3137   -8.8940    0.0000 C   0  0  2  0  0  0  0  0  0  0  0  0
    8.3071   -8.0690    0.0000 C   0  0  1  0  0  0  0  0  0  0  0  0
    7.5894   -7.6622    0.0000 O   0  0  0  0  0  0  0  0  0  0  0  0
    6.8782   -8.0804    0.0000 C   0  0  2  0  0  0  0  0  0  0  0  0
   11.1649   -8.0462    0.0000 C   0  0  0  0  0  0  0  0  0  0  0  0
   11.8761   -7.6280    0.0000 C   0  0  0  0  0  0  0  0  0  0  0  0
   11.1715   -8.8712    0.0000 C   0  0  0  0  0  0  0  0  0  0  0  0
   11.8892   -9.2780    0.0000 C   0  0  0  0  0  0  0  0  0  0  0  0
   12.6004   -8.8598    0.0000 C   0  0  0  0  0  0  0  0  0  0  0  0
   12.5938   -8.0348    0.0000 C   0  0  0  0  0  0  0  0  0  0  0  0
   13.3181   -9.2666    0.0000 O   0  0  0  0  0  0  0  0  0  0  0  0
   13.3050   -7.6166    0.0000 O   0  0  0  0  0  0  0  0  0  0  0  0
    6.1605   -7.6736    0.0000 C   0  0  0  0  0  0  0  0  0  0  0  0
    5.4493   -8.0918    0.0000 O   0  0  0  0  0  0  0  0  0  0  0  0
    5.4559   -8.9168    0.0000 C   0  0  0  0  0  0  0  0  0  0  0  0
    6.1539   -6.8486    0.0000 O   0  0  0  0  0  0  0  0  0  0  0  0
    5.4362   -6.4418    0.0000 C   0  0  1  0  0  0  0  0  0  0  0  0
    4.7250   -6.8600    0.0000 C   0  0  2  0  0  0  0  0  0  0  0  0
    4.7316   -7.6850    0.0000 O   0  0  0  0  0  0  0  0  0  0  0  0
    5.4296   -5.6169    0.0000 O   0  0  0  0  0  0  0  0  0  0  0  0
    4.7118   -5.2101    0.0000 C   0  0  0  0  0  0  0  0  0  0  0  0
    4.0007   -5.6283    0.0000 C   0  0  1  0  0  0  0  0  0  0  0  0
    4.0073   -6.4532    0.0000 C   0  0  2  0  0  0  0  0  0  0  0  0
    4.0270   -8.9282    0.0000 C   0  0  0  0  0  0  0  0  0  0  0  0
    4.7447   -9.3349    0.0000 C   0  0  0  0  0  0  0  0  0  0  0  0
    3.3158   -9.3463    0.0000 C   0  0  0  0  0  0  0  0  0  0  0  0
    3.3224  -10.1713    0.0000 C   0  0  0  0  0  0  0  0  0  0  0  0
    2.5981   -8.9396    0.0000 C   0  0  0  0  0  0  0  0  0  0  0  0
    1.8870   -9.3577    0.0000 C   0  0  0  0  0  0  0  0  0  0  0  0
    1.8935  -10.1827    0.0000 C   0  0  0  0  0  0  0  0  0  0  0  0
    2.6113  -10.5895    0.0000 C   0  0  0  0  0  0  0  0  0  0  0  0
    0.4547   -9.3635    0.0000 C   0  0  0  0  0  0  0  0  0  0  0  0
    1.1692   -8.9510    0.0000 O   0  0  0  0  0  0  0  0  0  0  0  0
    1.1824  -10.6009    0.0000 O   0  0  0  0  0  0  0  0  0  0  0  0
   10.4472   -7.6394    0.0000 C   0  0  0  0  0  0  0  0  0  0  0  0
    9.7360   -8.0576    0.0000 C   0  0  0  0  0  0  0  0  0  0  0  0
    9.0183   -7.6508    0.0000 O   0  0  0  0  0  0  0  0  0  0  0  0
    4.7645  -11.8099    0.0000 O   0  0  0  0  0  0  0  0  0  0  0  0
    3.2961   -6.8714    0.0000 O   0  0  0  0  0  0  0  0  0  0  0  0
    3.2829   -5.2215    0.0000 O   0  0  0  0  0  0  0  0  0  0  0  0
    4.7513  -10.1599    0.0000 C   0  0  0  0  0  0  0  0  0  0  0  0
    6.2000  -12.6234    0.0000 O   0  0  0  0  0  0  0  0  0  0  0  0
    7.6223  -11.7871    0.0000 O   0  0  0  0  0  0  0  0  0  0  0  0
    9.0314   -9.3007    0.0000 O   0  0  0  0  0  0  0  0  0  0  0  0
  1  2  1  0  0  0  0
  2  3  1  0  0  0  0
  3  4  1  0  0  0  0
  4  5  1  0  0  0  0
  5  6  1  0  0  0  0
  6  1  1  0  0  0  0
  4  7  1  1  0  0  0
  8  7  1  1  0  0  0
  8  9  1  0  0  0  0
  9 10  1  6  0  0  0
  8 11  1  0  0  0  0
 11 12  1  0  0  0  0
 12 13  1  0  0  0  0
 13 14  1  0  0  0  0
 14  9  1  0  0  0  0
 12 47  1  1  0  0  0
 15 16  1  0  0  0  0
 15 17  2  0  0  0  0
 17 18  1  0  0  0  0
 18 19  2  0  0  0  0
 19 20  1  0  0  0  0
 20 16  2  0  0  0  0
 19 21  1  0  0  0  0
 45 15  1  0  0  0  0
 46 45  1  0  0  0  0
 20 22  1  0  0  0  0
 14 23  1  1  0  0  0
 24 25  2  0  0  0  0
 25 10  1  0  0  0  0
 23 26  1  0  0  0  0
 27 26  1  1  0  0  0
 27 28  1  0  0  0  0
 28 29  1  6  0  0  0
 27 30  1  0  0  0  0
 30 31  1  0  0  0  0
 31 32  1  0  0  0  0
 32 33  1  0  0  0  0
 33 28  1  0  0  0  0
 34 35  2  0  0  0  0
 35 25  1  0  0  0  0
 34 36  1  0  0  0  0
 36 37  1  0  0  0  0
 36 38  2  0  0  0  0
 38 39  1  0  0  0  0
 39 40  2  0  0  0  0
 40 41  1  0  0  0  0
 41 37  2  0  0  0  0
 42 43  1  0  0  0  0
 43 39  1  0  0  0  0
 40 44  1  0  0  0  0
 47 46  1  0  0  0  0
  1 48  1  1  0  0  0
 33 49  1  1  0  0  0
 32 50  1  1  0  0  0
  6 51  1  6  0  0  0
  2 52  1  6  0  0  0
  3 53  1  6  0  0  0
 11 54  1  6  0  0  0
M  END
>  <cdx:fragmentId>
5

$$$$
