93629.cdx
  Mrv1902 05222410212D          

 43 48  0  0  0  0            999 V2000
    4.9343   -7.1362    0.0000 C   0  0  0  0  0  0  0  0  0  0  0  0
    4.9343   -7.9612    0.0000 C   0  0  0  0  0  0  0  0  0  0  0  0
    5.6488   -8.3737    0.0000 C   0  0  0  0  0  0  0  0  0  0  0  0
    6.3632   -7.9612    0.0000 C   0  0  1  0  0  0  0  0  0  0  0  0
    6.3632   -7.1362    0.0000 C   0  0  2  0  0  0  0  0  0  0  0  0
    5.6488   -6.7237    0.0000 C   0  0  2  0  0  0  0  0  0  0  0  0
    7.0777   -8.3737    0.0000 C   0  0  2  0  0  0  0  0  0  0  0  0
    7.7922   -7.9612    0.0000 C   0  0  1  0  0  0  0  0  0  0  0  0
    7.7922   -7.1362    0.0000 C   0  0  1  0  0  0  0  0  0  0  0  0
    7.0777   -6.7237    0.0000 C   0  0  2  0  0  0  0  0  0  0  0  0
    8.5067   -6.7237    0.0000 O   0  0  0  0  0  0  0  0  0  0  0  0
    8.5067   -5.8988    0.0000 C   0  0  2  0  0  0  0  0  0  0  0  0
    7.7922   -5.4863    0.0000 C   0  0  0  0  0  0  0  0  0  0  0  0
    7.0777   -5.8988    0.0000 C   0  0  0  0  0  0  0  0  0  0  0  0
    9.2603   -6.2343    0.0000 C   0  0  0  0  0  0  0  0  0  0  0  0
    9.8124   -5.6212    0.0000 O   0  0  0  0  0  0  0  0  0  0  0  0
    9.3999   -4.9067    0.0000 C   0  0  0  0  0  0  0  0  0  0  0  0
    8.5929   -5.0783    0.0000 C   0  0  0  0  0  0  0  0  0  0  0  0
    5.6488   -9.1987    0.0000 C   0  0  0  0  0  0  0  0  0  0  0  0
    9.7354   -4.1531    0.0000 O   0  0  0  0  0  0  0  0  0  0  0  0
    5.6488   -5.8988    0.0000 O   0  0  0  0  0  0  0  0  0  0  0  0
    6.3632   -6.3113    0.0000 H   0  0  0  0  0  0  0  0  0  0  0  0
    8.5067   -8.3737    0.0000 O   0  0  0  0  0  0  0  0  0  0  0  0
    6.3632   -8.7862    0.0000 C   0  0  0  0  0  0  0  0  0  0  0  0
    7.0777   -9.1987    0.0000 O   0  0  0  0  0  0  0  0  0  0  0  0
    7.0777   -7.5488    0.0000 C   0  0  0  0  0  0  0  0  0  0  0  0
    7.7922   -6.3113    0.0000 C   0  0  0  0  0  0  0  0  0  0  0  0
    9.5132  -10.6242    0.0000 N   0  0  0  0  0  0  0  0  0  0  0  0
    9.9328   -9.9139    0.0000 C   0  0  0  0  0  0  0  0  0  0  0  0
    9.5274   -9.1954    0.0000 C   0  0  0  0  0  0  0  0  0  0  0  0
    8.7024   -9.1872    0.0000 C   0  0  0  0  0  0  0  0  0  0  0  0
    8.2829   -9.8975    0.0000 C   0  0  0  0  0  0  0  0  0  0  0  0
    8.6882  -10.6160    0.0000 C   0  0  0  0  0  0  0  0  0  0  0  0
    7.4579   -9.8893    0.0000 C   0  0  0  0  0  0  0  0  0  0  0  0
    7.0383  -10.5996    0.0000 O   0  0  0  0  0  0  0  0  0  0  0  0
    2.8139   -5.8993    0.0000 C   0  0  0  0  0  0  0  0  0  0  0  0
    2.8139   -6.7243    0.0000 C   0  0  0  0  0  0  0  0  0  0  0  0
    3.5284   -7.1368    0.0000 C   0  0  0  0  0  0  0  0  0  0  0  0
    4.2428   -6.7243    0.0000 C   0  0  0  0  0  0  0  0  0  0  0  0
    4.2428   -5.8993    0.0000 C   0  0  0  0  0  0  0  0  0  0  0  0
    3.5284   -5.4868    0.0000 C   0  0  0  0  0  0  0  0  0  0  0  0
    4.9573   -5.4868    0.0000 C   0  0  0  0  0  0  0  0  0  0  0  0
    4.9573   -4.6618    0.0000 O   0  0  0  0  0  0  0  0  0  0  0  0
  1  2  1  0  0  0  0
  2  3  2  0  0  0  0
  3  4  1  0  0  0  0
  4  5  1  0  0  0  0
  5  6  1  0  0  0  0
  6  1  1  0  0  0  0
  4  7  1  0  0  0  0
  7  8  1  0  0  0  0
  8  9  1  0  0  0  0
  9 10  1  0  0  0  0
 10  5  1  0  0  0  0
  9 11  1  0  0  0  0
 11 12  1  0  0  0  0
 12 13  1  0  0  0  0
 13 14  1  0  0  0  0
 14 10  1  0  0  0  0
 12 15  1  6  0  0  0
 15 16  1  0  0  0  0
 16 17  1  0  0  0  0
 17 18  1  0  0  0  0
 12 18  1  1  0  0  0
  3 19  1  0  0  0  0
 17 20  2  0  0  0  0
  6 21  1  1  0  0  0
  5 22  1  1  0  0  0
  8 23  1  1  0  0  0
  4 24  1  6  0  0  0
  7 25  1  6  0  0  0
 10 26  1  6  0  0  0
  9 27  1  6  0  0  0
 28 29  2  0  0  0  0
 29 30  1  0  0  0  0
 30 31  2  0  0  0  0
 31 32  1  0  0  0  0
 32 33  2  0  0  0  0
 33 28  1  0  0  0  0
 32 34  1  0  0  0  0
 34 35  2  0  0  0  0
 36 37  2  0  0  0  0
 37 38  1  0  0  0  0
 38 39  2  0  0  0  0
 39 40  1  0  0  0  0
 40 41  2  0  0  0  0
 41 36  1  0  0  0  0
 40 42  1  0  0  0  0
 42 43  2  0  0  0  0
 34 25  1  0  0  0  0
 42 21  1  0  0  0  0
M  END
>  <cdx:fragmentId>
5

$$$$
