93626.cdx
  Mrv1902 05222410252D          

 43 47  0  0  0  0            999 V2000
    7.4643   -9.9138    0.0000 C   0  0  0  0  0  0  0  0  0  0  0  0
    7.4643   -9.0887    0.0000 C   0  0  0  0  0  0  0  0  0  0  0  0
    8.1788   -8.6762    0.0000 C   0  0  0  0  0  0  0  0  0  0  0  0
    8.8932   -9.0887    0.0000 C   0  0  0  0  0  0  0  0  0  0  0  0
    8.8932   -9.9138    0.0000 C   0  0  0  0  0  0  0  0  0  0  0  0
    8.1788  -10.3262    0.0000 C   0  0  0  0  0  0  0  0  0  0  0  0
    9.6077   -8.6762    0.0000 O   0  0  0  0  0  0  0  0  0  0  0  0
   10.3222   -9.0887    0.0000 C   0  0  0  0  0  0  0  0  0  0  0  0
   10.3222   -9.9138    0.0000 C   0  0  0  0  0  0  0  0  0  0  0  0
    9.6077  -10.3262    0.0000 C   0  0  0  0  0  0  0  0  0  0  0  0
   11.0367   -8.6762    0.0000 C   0  0  0  0  0  0  0  0  0  0  0  0
   11.7511   -9.0887    0.0000 C   0  0  0  0  0  0  0  0  0  0  0  0
   11.0367   -7.8513    0.0000 C   0  0  0  0  0  0  0  0  0  0  0  0
   11.7511   -7.4387    0.0000 C   0  0  0  0  0  0  0  0  0  0  0  0
   12.4656   -7.8513    0.0000 C   0  0  0  0  0  0  0  0  0  0  0  0
   12.4656   -8.6762    0.0000 C   0  0  0  0  0  0  0  0  0  0  0  0
    6.7498   -8.6762    0.0000 O   0  0  0  0  0  0  0  0  0  0  0  0
    6.7498  -10.3262    0.0000 O   0  0  0  0  0  0  0  0  0  0  0  0
    8.1788  -11.1513    0.0000 O   0  0  0  0  0  0  0  0  0  0  0  0
    9.6077  -11.1513    0.0000 O   0  0  0  0  0  0  0  0  0  0  0  0
   13.1801   -7.4387    0.0000 O   0  0  0  0  0  0  0  0  0  0  0  0
    5.5136   -7.9786    0.0000 O   0  0  0  0  0  0  0  0  0  0  0  0
    4.6886   -7.9859    0.0000 C   0  0  1  0  0  0  0  0  0  0  0  0
    4.2825   -8.7040    0.0000 C   0  0  2  0  0  0  0  0  0  0  0  0
    4.7013   -9.4148    0.0000 C   0  0  1  0  0  0  0  0  0  0  0  0
    5.5263   -9.4075    0.0000 C   0  0  2  0  0  0  0  0  0  0  0  0
    5.9324   -8.6894    0.0000 C   0  0  2  0  0  0  0  0  0  0  0  0
    4.2698   -7.2751    0.0000 C   0  0  0  0  0  0  0  0  0  0  0  0
    4.2952  -10.1329    0.0000 O   0  0  0  0  0  0  0  0  0  0  0  0
    3.4575   -8.7114    0.0000 O   0  0  0  0  0  0  0  0  0  0  0  0
    5.9451  -10.1182    0.0000 O   0  0  0  0  0  0  0  0  0  0  0  0
    3.4448   -7.2825    0.0000 O   0  0  0  0  0  0  0  0  0  0  0  0
    3.0260   -6.5717    0.0000 C   0  0  2  0  0  0  0  0  0  0  0  0
    3.4321   -5.8536    0.0000 O   0  0  0  0  0  0  0  0  0  0  0  0
    3.0133   -5.1428    0.0000 C   0  0  1  0  0  0  0  0  0  0  0  0
    2.1883   -5.1502    0.0000 C   0  0  2  0  0  0  0  0  0  0  0  0
    1.7822   -5.8683    0.0000 C   0  0  1  0  0  0  0  0  0  0  0  0
    2.2010   -6.5790    0.0000 C   0  0  1  0  0  0  0  0  0  0  0  0
    3.4194   -4.4247    0.0000 C   0  0  0  0  0  0  0  0  0  0  0  0
    0.9572   -5.8756    0.0000 O   0  0  0  0  0  0  0  0  0  0  0  0
    1.7695   -4.4394    0.0000 O   0  0  0  0  0  0  0  0  0  0  0  0
    1.7949   -7.2972    0.0000 O   0  0  0  0  0  0  0  0  0  0  0  0
    3.0006   -3.7139    0.0000 O   0  0  0  0  0  0  0  0  0  0  0  0
  1  2  2  0  0  0  0
  2  3  1  0  0  0  0
  3  4  2  0  0  0  0
  4  5  1  0  0  0  0
  5  6  2  0  0  0  0
  6  1  1  0  0  0  0
  4  7  1  0  0  0  0
  7  8  1  0  0  0  0
  8  9  2  0  0  0  0
  9 10  1  0  0  0  0
 10  5  1  0  0  0  0
  8 11  1  0  0  0  0
 11 12  2  0  0  0  0
 11 13  1  0  0  0  0
 13 14  2  0  0  0  0
 14 15  1  0  0  0  0
 15 16  2  0  0  0  0
 16 12  1  0  0  0  0
  2 17  1  0  0  0  0
  1 18  1  0  0  0  0
  6 19  1  0  0  0  0
 10 20  2  0  0  0  0
 15 21  1  0  0  0  0
 22 23  1  0  0  0  0
 23 24  1  0  0  0  0
 24 25  1  0  0  0  0
 25 26  1  0  0  0  0
 26 27  1  0  0  0  0
 27 22  1  0  0  0  0
 23 28  1  1  0  0  0
 25 29  1  1  0  0  0
 24 30  1  6  0  0  0
 26 31  1  6  0  0  0
 28 32  1  0  0  0  0
 33 32  1  1  0  0  0
 33 34  1  0  0  0  0
 34 35  1  0  0  0  0
 35 36  1  0  0  0  0
 36 37  1  0  0  0  0
 37 38  1  0  0  0  0
 38 33  1  0  0  0  0
 35 39  1  1  0  0  0
 37 40  1  1  0  0  0
 36 41  1  6  0  0  0
 38 42  1  6  0  0  0
 39 43  1  0  0  0  0
 27 17  1  1  0  0  0
M  END
>  <cdx:fragmentId>
72

$$$$
