93621.cdx
  Mrv1902 05222410232D          

 36 39  0  0  0  0            999 V2000
    8.3993   -9.5287    0.0000 C   0  0  0  0  0  0  0  0  0  0  0  0
    8.3993  -10.3537    0.0000 C   0  0  0  0  0  0  0  0  0  0  0  0
    9.1138  -10.7663    0.0000 C   0  0  0  0  0  0  0  0  0  0  0  0
    9.8282  -10.3537    0.0000 C   0  0  0  0  0  0  0  0  0  0  0  0
    9.8282   -9.5287    0.0000 C   0  0  0  0  0  0  0  0  0  0  0  0
    9.1138   -9.1162    0.0000 C   0  0  0  0  0  0  0  0  0  0  0  0
   10.5427  -10.7663    0.0000 O   0  0  0  0  0  0  0  0  0  0  0  0
   11.2572  -10.3537    0.0000 C   0  0  0  0  0  0  0  0  0  0  0  0
   11.2572   -9.5287    0.0000 C   0  0  0  0  0  0  0  0  0  0  0  0
   10.5427   -9.1162    0.0000 C   0  0  0  0  0  0  0  0  0  0  0  0
    7.6848   -9.1162    0.0000 O   0  0  0  0  0  0  0  0  0  0  0  0
    7.6848   -8.2912    0.0000 C   0  0  0  0  0  0  0  0  0  0  0  0
    7.6848  -10.7663    0.0000 O   0  0  0  0  0  0  0  0  0  0  0  0
   11.9717  -10.7663    0.0000 O   0  0  0  0  0  0  0  0  0  0  0  0
    6.2669   -9.0965    0.0000 C   0  0  2  0  0  0  0  0  0  0  0  0
    5.5485   -9.5021    0.0000 C   0  0  2  0  0  0  0  0  0  0  0  0
    5.5406  -10.3271    0.0000 C   0  0  1  0  0  0  0  0  0  0  0  0
    6.2511  -10.7464    0.0000 C   0  0  2  0  0  0  0  0  0  0  0  0
    6.9695  -10.3407    0.0000 C   0  0  1  0  0  0  0  0  0  0  0  0
    6.9774   -9.5158    0.0000 O   0  0  0  0  0  0  0  0  0  0  0  0
    6.2747   -8.2715    0.0000 C   0  0  0  0  0  0  0  0  0  0  0  0
    4.8223  -10.7328    0.0000 O   0  0  0  0  0  0  0  0  0  0  0  0
    4.8380   -9.0828    0.0000 O   0  0  0  0  0  0  0  0  0  0  0  0
    6.2433  -11.5713    0.0000 O   0  0  0  0  0  0  0  0  0  0  0  0
    6.2539   -6.5968    0.0000 O   0  0  0  0  0  0  0  0  0  0  0  0
    5.5446   -7.0180    0.0000 C   0  0  0  0  0  0  0  0  0  0  0  0
    4.0854   -4.5607    0.0000 O   0  0  0  0  0  0  0  0  0  0  0  0
    2.6667   -5.4032    0.0000 O   0  0  0  0  0  0  0  0  0  0  0  0
    2.6869   -7.0530    0.0000 O   0  0  0  0  0  0  0  0  0  0  0  0
    3.3963   -6.6318    0.0000 C   0  0  0  0  0  0  0  0  0  0  0  0
    4.1157   -7.0355    0.0000 C   0  0  0  0  0  0  0  0  0  0  0  0
    4.8251   -6.6143    0.0000 C   0  0  0  0  0  0  0  0  0  0  0  0
    4.8150   -5.7894    0.0000 C   0  0  0  0  0  0  0  0  0  0  0  0
    4.0955   -5.3857    0.0000 C   0  0  0  0  0  0  0  0  0  0  0  0
    3.3862   -5.8069    0.0000 C   0  0  0  0  0  0  0  0  0  0  0  0
    5.5642   -7.8522    0.0000 O   0  0  0  0  0  0  0  0  0  0  0  0
  1  2  2  0  0  0  0
  2  3  1  0  0  0  0
  3  4  2  0  0  0  0
  4  5  1  0  0  0  0
  5  6  2  0  0  0  0
  6  1  1  0  0  0  0
  4  7  1  0  0  0  0
  7  8  1  0  0  0  0
  8  9  1  0  0  0  0
  9 10  2  0  0  0  0
 10  5  1  0  0  0  0
  1 11  1  0  0  0  0
 11 12  1  0  0  0  0
  2 13  1  0  0  0  0
  8 14  2  0  0  0  0
 15 16  1  0  0  0  0
 16 17  1  0  0  0  0
 17 18  1  0  0  0  0
 18 19  1  0  0  0  0
 19 20  1  0  0  0  0
 20 15  1  0  0  0  0
 15 21  1  1  0  0  0
 17 22  1  1  0  0  0
 16 23  1  6  0  0  0
 18 24  1  6  0  0  0
 26 36  1  0  0  0  0
 21 36  1  0  0  0  0
 19 13  1  1  0  0  0
 26 25  2  0  0  0  0
 32 26  1  0  0  0  0
 34 27  1  0  0  0  0
 35 28  1  0  0  0  0
 30 29  1  0  0  0  0
 30 35  1  0  0  0  0
 31 30  2  0  0  0  0
 32 31  1  0  0  0  0
 33 32  2  0  0  0  0
 34 33  1  0  0  0  0
 35 34  2  0  0  0  0
M  END
>  <cdx:fragmentId>
5

$$$$
