93627.cdx
  Mrv1902 05222410252D          

 55 60  0  0  0  0            999 V2000
    4.8243   -8.8413    0.0000 C   0  0  1  0  0  0  0  0  0  0  0  0
    4.8243   -9.6662    0.0000 C   0  0  2  0  0  0  0  0  0  0  0  0
    5.5388  -10.0787    0.0000 C   0  0  1  0  0  0  0  0  0  0  0  0
    6.2532   -9.6662    0.0000 O   0  0  0  0  0  0  0  0  0  0  0  0
    6.2532   -8.8413    0.0000 C   0  0  0  0  0  0  0  0  0  0  0  0
    5.5388   -8.4288    0.0000 C   0  0  0  0  0  0  0  0  0  0  0  0
    4.0397   -8.5863    0.0000 C   0  0  0  0  0  0  0  0  0  0  0  0
    3.5548   -9.2538    0.0000 C   0  0  0  0  0  0  0  0  0  0  0  0
    4.0397   -9.9212    0.0000 C   0  0  0  0  0  0  0  0  0  0  0  0
    3.7847  -10.7058    0.0000 C   0  0  0  0  0  0  0  0  0  0  0  0
    2.9879  -10.9193    0.0000 O   0  0  0  0  0  0  0  0  0  0  0  0
    5.5388   -7.6037    0.0000 C   0  0  0  0  0  0  0  0  0  0  0  0
    4.8243   -7.1913    0.0000 O   0  0  0  0  0  0  0  0  0  0  0  0
    6.2532   -7.1913    0.0000 O   0  0  0  0  0  0  0  0  0  0  0  0
    4.7381   -8.0208    0.0000 H   0  0  0  0  0  0  0  0  0  0  0  0
    4.7381  -10.4867    0.0000 H   0  0  0  0  0  0  0  0  0  0  0  0
    5.5388  -10.9038    0.0000 O   0  0  0  0  0  0  0  0  0  0  0  0
    6.9777  -12.5623    0.0000 C   0  0  2  0  0  0  0  0  0  0  0  0
    7.6916  -12.1489    0.0000 C   0  0  2  0  0  0  0  0  0  0  0  0
    7.6906  -11.3239    0.0000 C   0  0  1  0  0  0  0  0  0  0  0  0
    6.9756  -10.9123    0.0000 C   0  0  2  0  0  0  0  0  0  0  0  0
    6.2616  -11.3257    0.0000 C   0  0  1  0  0  0  0  0  0  0  0  0
    6.2627  -12.1507    0.0000 O   0  0  0  0  0  0  0  0  0  0  0  0
    6.9787  -13.3873    0.0000 C   0  0  0  0  0  0  0  0  0  0  0  0
    8.4045  -10.9105    0.0000 O   0  0  0  0  0  0  0  0  0  0  0  0
    8.4066  -12.5605    0.0000 O   0  0  0  0  0  0  0  0  0  0  0  0
    6.9745  -10.0873    0.0000 O   0  0  0  0  0  0  0  0  0  0  0  0
    7.6937  -13.7989    0.0000 O   0  0  0  0  0  0  0  0  0  0  0  0
    8.1033   -5.1196    0.0000 C   0  0  1  0  0  0  0  0  0  0  0  0
    8.1033   -5.9446    0.0000 C   0  0  2  0  0  0  0  0  0  0  0  0
    8.8178   -6.3571    0.0000 C   0  0  1  0  0  0  0  0  0  0  0  0
    9.5323   -5.9446    0.0000 O   0  0  0  0  0  0  0  0  0  0  0  0
    9.5323   -5.1196    0.0000 C   0  0  0  0  0  0  0  0  0  0  0  0
    8.8178   -4.7071    0.0000 C   0  0  0  0  0  0  0  0  0  0  0  0
    7.3187   -4.8647    0.0000 C   0  0  0  0  0  0  0  0  0  0  0  0
    6.8338   -5.5321    0.0000 C   0  0  0  0  0  0  0  0  0  0  0  0
    7.3187   -6.1996    0.0000 C   0  0  0  0  0  0  0  0  0  0  0  0
    7.0638   -6.9842    0.0000 C   0  0  0  0  0  0  0  0  0  0  0  0
    8.8178   -3.8821    0.0000 C   0  0  0  0  0  0  0  0  0  0  0  0
    8.1033   -3.4696    0.0000 O   0  0  0  0  0  0  0  0  0  0  0  0
    9.5323   -3.4696    0.0000 O   0  0  0  0  0  0  0  0  0  0  0  0
    8.0171   -4.2992    0.0000 H   0  0  0  0  0  0  0  0  0  0  0  0
    8.0171   -6.7651    0.0000 H   0  0  0  0  0  0  0  0  0  0  0  0
    8.8178   -7.1821    0.0000 O   0  0  0  0  0  0  0  0  0  0  0  0
   10.2567   -8.8407    0.0000 C   0  0  2  0  0  0  0  0  0  0  0  0
   10.9707   -8.4273    0.0000 C   0  0  2  0  0  0  0  0  0  0  0  0
   10.9696   -7.6023    0.0000 C   0  0  1  0  0  0  0  0  0  0  0  0
   10.2546   -7.1907    0.0000 C   0  0  2  0  0  0  0  0  0  0  0  0
    9.5407   -7.6041    0.0000 C   0  0  1  0  0  0  0  0  0  0  0  0
    9.5417   -8.4291    0.0000 O   0  0  0  0  0  0  0  0  0  0  0  0
   10.2578   -9.6657    0.0000 C   0  0  0  0  0  0  0  0  0  0  0  0
   11.6836   -7.1889    0.0000 O   0  0  0  0  0  0  0  0  0  0  0  0
   11.6857   -8.8389    0.0000 O   0  0  0  0  0  0  0  0  0  0  0  0
   10.2536   -6.3657    0.0000 O   0  0  0  0  0  0  0  0  0  0  0  0
   10.9728  -10.0773    0.0000 O   0  0  0  0  0  0  0  0  0  0  0  0
  1  2  1  0  0  0  0
  2  3  1  0  0  0  0
  3  4  1  0  0  0  0
  4  5  1  0  0  0  0
  5  6  2  0  0  0  0
  6  1  1  0  0  0  0
  1  7  1  0  0  0  0
  7  8  1  0  0  0  0
  8  9  2  0  0  0  0
  9  2  1  0  0  0  0
  9 10  1  0  0  0  0
 10 11  1  0  0  0  0
  6 12  1  0  0  0  0
 12 13  2  0  0  0  0
 12 14  1  0  0  0  0
  1 15  1  1  0  0  0
  2 16  1  1  0  0  0
  3 17  1  1  0  0  0
 18 19  1  0  0  0  0
 19 20  1  0  0  0  0
 20 21  1  0  0  0  0
 21 22  1  0  0  0  0
 22 23  1  0  0  0  0
 23 18  1  0  0  0  0
 18 24  1  1  0  0  0
 20 25  1  1  0  0  0
 19 26  1  6  0  0  0
 21 27  1  6  0  0  0
 24 28  1  0  0  0  0
 22 17  1  1  0  0  0
 29 30  1  0  0  0  0
 30 31  1  0  0  0  0
 31 32  1  0  0  0  0
 32 33  1  0  0  0  0
 33 34  2  0  0  0  0
 34 29  1  0  0  0  0
 29 35  1  0  0  0  0
 35 36  1  0  0  0  0
 36 37  2  0  0  0  0
 37 30  1  0  0  0  0
 37 38  1  0  0  0  0
 34 39  1  0  0  0  0
 39 40  2  0  0  0  0
 39 41  1  0  0  0  0
 29 42  1  1  0  0  0
 30 43  1  1  0  0  0
 31 44  1  1  0  0  0
 45 46  1  0  0  0  0
 46 47  1  0  0  0  0
 47 48  1  0  0  0  0
 48 49  1  0  0  0  0
 49 50  1  0  0  0  0
 50 45  1  0  0  0  0
 45 51  1  1  0  0  0
 47 52  1  1  0  0  0
 46 53  1  6  0  0  0
 48 54  1  6  0  0  0
 51 55  1  0  0  0  0
 49 44  1  1  0  0  0
 38 14  1  0  0  0  0
M  END
>  <cdx:fragmentId>
5

$$$$
