46936306.cdx
  Mrv1902 05222410212D          

 65 69  0  0  0  0            999 V2000
    4.7493   -9.8853    0.0000 C   0  0  0  0  0  0  0  0  0  0  0  0
    4.9628  -10.6822    0.0000 C   0  0  0  0  0  0  0  0  0  0  0  0
    5.7866  -10.7254    0.0000 C   0  0  0  0  0  0  0  0  0  0  0  0
    6.0823   -9.9552    0.0000 C   0  0  0  0  0  0  0  0  0  0  0  0
    5.4412   -9.4360    0.0000 N   0  5  0  0  0  0  0  0  0  0  0  0
    6.8792   -9.7417    0.0000 C   0  0  0  0  0  0  0  0  0  0  0  0
    7.0927   -8.9448    0.0000 C   0  0  0  0  0  0  0  0  0  0  0  0
    7.8896   -8.7312    0.0000 C   0  0  2  0  0  0  0  0  0  0  0  0
    7.9328   -7.9074    0.0000 C   0  0  1  0  0  0  0  0  0  0  0  0
    7.1626   -7.6117    0.0000 C   0  0  0  0  0  0  0  0  0  0  0  0
    6.6434   -8.2529    0.0000 N   0  0  0  0  0  0  0  0  0  0  0  0
    6.9491   -6.8148    0.0000 C   0  0  0  0  0  0  0  0  0  0  0  0
    6.1522   -6.6013    0.0000 C   0  0  0  0  0  0  0  0  0  0  0  0
    5.9386   -5.8044    0.0000 C   0  0  0  0  0  0  0  0  0  0  0  0
    5.1148   -5.7612    0.0000 C   0  0  0  0  0  0  0  0  0  0  0  0
    4.8191   -6.5314    0.0000 C   0  0  0  0  0  0  0  0  0  0  0  0
    5.4603   -7.0506    0.0000 N   0  5  0  0  0  0  0  0  0  0  0  0
    4.0222   -6.7450    0.0000 C   0  0  0  0  0  0  0  0  0  0  0  0
    3.8087   -7.5419    0.0000 C   0  0  0  0  0  0  0  0  0  0  0  0
    3.0385   -7.8375    0.0000 C   0  0  0  0  0  0  0  0  0  0  0  0
    3.0817   -8.6614    0.0000 C   0  0  0  0  0  0  0  0  0  0  0  0
    3.8786   -8.8749    0.0000 C   0  0  0  0  0  0  0  0  0  0  0  0
    4.3279   -8.1830    0.0000 N   0  0  0  0  0  0  0  0  0  0  0  0
    4.1742   -9.6451    0.0000 C   0  0  0  0  0  0  0  0  0  0  0  0
    2.4405   -9.1806    0.0000 C   0  0  0  0  0  0  0  0  0  0  0  0
    1.6703   -8.8849    0.0000 C   0  0  0  0  0  0  0  0  0  0  0  0
    2.3466   -7.3882    0.0000 C   0  0  0  0  0  0  0  0  0  0  0  0
    4.6654   -5.0693    0.0000 C   0  0  0  0  0  0  0  0  0  0  0  0
    6.4578   -5.1633    0.0000 C   0  0  0  0  0  0  0  0  0  0  0  0
    5.0400   -4.3343    0.0000 C   0  0  0  0  0  0  0  0  0  0  0  0
    4.4436  -11.3234    0.0000 C   0  0  0  0  0  0  0  0  0  0  0  0
    7.4626  -10.3250    0.0000 C   0  0  0  0  0  0  0  0  0  0  0  0
    6.8792  -10.9084    0.0000 C   0  0  0  0  0  0  0  0  0  0  0  0
    7.1306  -11.6941    0.0000 O   0  0  0  0  0  0  0  0  0  0  0  0
    8.2876  -10.3250    0.0000 C   0  0  0  0  0  0  0  0  0  0  0  0
    8.7001  -11.0395    0.0000 O   0  0  0  0  0  0  0  0  0  0  0  0
    8.7001   -9.6106    0.0000 O   0  0  0  0  0  0  0  0  0  0  0  0
    9.5251  -11.0395    0.0000 C   0  0  0  0  0  0  0  0  0  0  0  0
    8.7146   -8.7312    0.0000 C   0  0  0  0  0  0  0  0  0  0  0  0
    9.1271   -8.0168    0.0000 C   0  0  0  0  0  0  0  0  0  0  0  0
    9.9521   -8.0168    0.0000 C   0  0  0  0  0  0  0  0  0  0  0  0
   10.3646   -8.7312    0.0000 O   0  0  0  0  0  0  0  0  0  0  0  0
   10.3646   -7.3023    0.0000 O   0  0  0  0  0  0  0  0  0  0  0  0
   11.1896   -7.3023    0.0000 C   0  0  0  0  0  0  0  0  0  0  0  0
    8.6247   -7.4580    0.0000 C   0  0  0  0  0  0  0  0  0  0  0  0
   11.6021   -6.5878    0.0000 C   0  0  0  0  0  0  0  0  0  0  0  0
   12.4271   -6.5878    0.0000 C   0  0  0  0  0  0  0  0  0  0  0  0
   12.8396   -5.8734    0.0000 C   0  0  0  0  0  0  0  0  0  0  0  0
   12.8396   -7.3023    0.0000 C   0  0  0  0  0  0  0  0  0  0  0  0
   13.6646   -5.8734    0.0000 C   0  0  0  0  0  0  0  0  0  0  0  0
   14.0771   -5.1589    0.0000 C   0  0  0  0  0  0  0  0  0  0  0  0
   14.9021   -5.1589    0.0000 C   0  0  1  0  0  0  0  0  0  0  0  0
   15.3146   -4.4444    0.0000 C   0  0  0  0  0  0  0  0  0  0  0  0
   16.1396   -4.4444    0.0000 C   0  0  0  0  0  0  0  0  0  0  0  0
   15.3146   -5.8734    0.0000 C   0  0  0  0  0  0  0  0  0  0  0  0
   16.5521   -3.7299    0.0000 C   0  0  0  0  0  0  0  0  0  0  0  0
   17.3771   -3.7299    0.0000 C   0  0  2  0  0  0  0  0  0  0  0  0
   17.7896   -4.4444    0.0000 C   0  0  0  0  0  0  0  0  0  0  0  0
   17.7896   -3.0155    0.0000 C   0  0  0  0  0  0  0  0  0  0  0  0
   18.6146   -3.0155    0.0000 C   0  0  0  0  0  0  0  0  0  0  0  0
   19.0271   -2.3010    0.0000 C   0  0  0  0  0  0  0  0  0  0  0  0
   19.8521   -2.3010    0.0000 C   0  0  0  0  0  0  0  0  0  0  0  0
   20.2646   -3.0155    0.0000 C   0  0  0  0  0  0  0  0  0  0  0  0
   20.2646   -1.5865    0.0000 C   0  0  0  0  0  0  0  0  0  0  0  0
    5.3382   -8.2188    0.0000 Mg  0  2  0  0  0  0  0  0  0  0  0  0
  1  2  2  0  0  0  0
  2  3  1  0  0  0  0
  3  4  2  0  0  0  0
  4  5  1  0  0  0  0
  5  1  1  0  0  0  0
  4  6  1  0  0  0  0
  6  7  2  0  0  0  0
  7  8  1  0  0  0  0
  8  9  1  0  0  0  0
  9 10  1  0  0  0  0
 10 11  2  0  0  0  0
 11  7  1  0  0  0  0
 10 12  1  0  0  0  0
 12 13  2  0  0  0  0
 13 14  1  0  0  0  0
 14 15  2  0  0  0  0
 15 16  1  0  0  0  0
 16 17  1  0  0  0  0
 17 13  1  0  0  0  0
 16 18  2  0  0  0  0
 18 19  1  0  0  0  0
 19 20  1  0  0  0  0
 20 21  2  0  0  0  0
 21 22  1  0  0  0  0
 22 23  1  0  0  0  0
 23 19  2  0  0  0  0
 22 24  2  0  0  0  0
 24  1  1  0  0  0  0
 21 25  1  0  0  0  0
 25 26  1  0  0  0  0
 20 27  1  0  0  0  0
 15 28  1  0  0  0  0
 14 29  1  0  0  0  0
 28 30  2  0  0  0  0
  2 31  1  0  0  0  0
  6 32  1  0  0  0  0
 32 33  1  0  0  0  0
  3 33  1  0  0  0  0
 33 34  2  0  0  0  0
 32 35  1  0  0  0  0
 35 36  1  0  0  0  0
 35 37  2  0  0  0  0
 36 38  1  0  0  0  0
  8 39  1  6  0  0  0
 39 40  1  0  0  0  0
 40 41  1  0  0  0  0
 41 42  2  0  0  0  0
 41 43  1  0  0  0  0
 43 44  1  0  0  0  0
  9 45  1  1  0  0  0
 44 46  1  0  0  0  0
 46 47  2  0  0  0  0
 47 48  1  0  0  0  0
 47 49  1  0  0  0  0
 48 50  1  0  0  0  0
 50 51  1  0  0  0  0
 51 52  1  0  0  0  0
 52 53  1  0  0  0  0
 53 54  1  0  0  0  0
 52 55  1  1  0  0  0
 54 56  1  0  0  0  0
 56 57  1  0  0  0  0
 57 58  1  1  0  0  0
 57 59  1  0  0  0  0
 59 60  1  0  0  0  0
 60 61  1  0  0  0  0
 61 62  1  0  0  0  0
 62 63  1  0  0  0  0
 62 64  1  0  0  0  0
M  CHG  3   5  -1  17  -1  65   2
M  END
>  <cdx:fragmentId>
180

$$$$
