93634.cdx
  Mrv1902 05222410232D          

 42 46  0  0  0  0            999 V2000
    4.4668   -8.3187    0.0000 C   0  0  0  0  0  0  0  0  0  0  0  0
    4.4668   -9.1438    0.0000 C   0  0  0  0  0  0  0  0  0  0  0  0
    5.1813   -9.5563    0.0000 C   0  0  0  0  0  0  0  0  0  0  0  0
    5.8957   -9.1438    0.0000 C   0  0  1  0  0  0  0  0  0  0  0  0
    5.8957   -8.3187    0.0000 C   0  0  2  0  0  0  0  0  0  0  0  0
    5.1813   -7.9063    0.0000 C   0  0  0  0  0  0  0  0  0  0  0  0
    6.6102   -9.5563    0.0000 C   0  0  2  0  0  0  0  0  0  0  0  0
    7.3247   -9.1438    0.0000 C   0  0  1  0  0  0  0  0  0  0  0  0
    7.3247   -8.3187    0.0000 C   0  0  2  0  0  0  0  0  0  0  0  0
    6.6102   -7.9063    0.0000 C   0  0  2  0  0  0  0  0  0  0  0  0
    8.0392   -7.9063    0.0000 C   0  0  0  0  0  0  0  0  0  0  0  0
    7.3247   -6.6688    0.0000 C   0  0  0  0  0  0  0  0  0  0  0  0
    6.6102   -7.0812    0.0000 C   0  0  0  0  0  0  0  0  0  0  0  0
    7.3247   -5.8438    0.0000 C   0  0  0  0  0  0  0  0  0  0  0  0
    6.6102   -5.4313    0.0000 C   0  0  0  0  0  0  0  0  0  0  0  0
    7.9378   -5.2917    0.0000 C   0  0  0  0  0  0  0  0  0  0  0  0
    7.6022   -4.5380    0.0000 C   0  0  0  0  0  0  0  0  0  0  0  0
    6.7817   -4.6243    0.0000 O   0  0  0  0  0  0  0  0  0  0  0  0
    8.0147   -3.8236    0.0000 O   0  0  0  0  0  0  0  0  0  0  0  0
    5.1813  -10.3812    0.0000 C   0  0  0  0  0  0  0  0  0  0  0  0
    7.3247   -7.4937    0.0000 C   0  0  0  0  0  0  0  0  0  0  0  0
    5.8957   -7.4937    0.0000 H   0  0  0  0  0  0  0  0  0  0  0  0
    8.0392   -8.7313    0.0000 O   0  0  0  0  0  0  0  0  0  0  0  0
    8.0392   -9.5563    0.0000 O   0  0  0  0  0  0  0  0  0  0  0  0
    6.6102  -10.3812    0.0000 O   0  0  0  0  0  0  0  0  0  0  0  0
    5.8957   -9.9688    0.0000 C   0  0  0  0  0  0  0  0  0  0  0  0
    8.0330  -12.8084    0.0000 N   0  0  0  0  0  0  0  0  0  0  0  0
    8.7463  -12.3938    0.0000 C   0  0  0  0  0  0  0  0  0  0  0  0
    8.7438  -11.5688    0.0000 C   0  0  0  0  0  0  0  0  0  0  0  0
    8.0281  -11.1585    0.0000 C   0  0  0  0  0  0  0  0  0  0  0  0
    7.3149  -11.5731    0.0000 C   0  0  0  0  0  0  0  0  0  0  0  0
    7.3173  -12.3981    0.0000 C   0  0  0  0  0  0  0  0  0  0  0  0
    6.5992  -11.1627    0.0000 C   0  0  0  0  0  0  0  0  0  0  0  0
    5.8859  -11.5773    0.0000 O   0  0  0  0  0  0  0  0  0  0  0  0
   10.8756   -9.5022    0.0000 N   0  0  0  0  0  0  0  0  0  0  0  0
   10.8685   -8.6773    0.0000 C   0  0  0  0  0  0  0  0  0  0  0  0
   10.1506   -8.2709    0.0000 C   0  0  0  0  0  0  0  0  0  0  0  0
    9.4397   -8.6895    0.0000 C   0  0  0  0  0  0  0  0  0  0  0  0
    9.4467   -9.5145    0.0000 C   0  0  0  0  0  0  0  0  0  0  0  0
   10.1647   -9.9208    0.0000 C   0  0  0  0  0  0  0  0  0  0  0  0
    8.7358   -9.9331    0.0000 C   0  0  0  0  0  0  0  0  0  0  0  0
    8.7429  -10.7581    0.0000 O   0  0  0  0  0  0  0  0  0  0  0  0
  1  2  1  0  0  0  0
  2  3  2  0  0  0  0
  3  4  1  0  0  0  0
  4  5  1  0  0  0  0
  5  6  1  0  0  0  0
  6  1  1  0  0  0  0
  4  7  1  0  0  0  0
  7  8  1  0  0  0  0
  8  9  1  0  0  0  0
  9 10  1  0  0  0  0
 10  5  1  0  0  0  0
  9 11  1  6  0  0  0
 12 13  2  0  0  0  0
 13 10  1  0  0  0  0
 12 14  1  0  0  0  0
 14 15  1  0  0  0  0
 14 16  2  0  0  0  0
 16 17  1  0  0  0  0
 17 18  1  0  0  0  0
 18 15  1  0  0  0  0
 17 19  2  0  0  0  0
  3 20  1  0  0  0  0
 10 21  1  6  0  0  0
  5 22  1  1  0  0  0
  9 23  1  1  0  0  0
  8 24  1  1  0  0  0
  7 25  1  6  0  0  0
  4 26  1  6  0  0  0
 27 28  2  0  0  0  0
 28 29  1  0  0  0  0
 29 30  2  0  0  0  0
 30 31  1  0  0  0  0
 31 32  2  0  0  0  0
 32 27  1  0  0  0  0
 31 33  1  0  0  0  0
 33 34  2  0  0  0  0
 35 36  2  0  0  0  0
 36 37  1  0  0  0  0
 37 38  2  0  0  0  0
 38 39  1  0  0  0  0
 39 40  2  0  0  0  0
 40 35  1  0  0  0  0
 39 41  1  0  0  0  0
 41 42  2  0  0  0  0
 33 25  1  0  0  0  0
 41 24  1  0  0  0  0
M  END
>  <cdx:fragmentId>
5

$$$$
