93638.cdx
  Mrv1902 05222410232D          

 37 39  0  0  0  0            999 V2000
    6.9556   -9.1987    0.0000 C   0  0  0  0  0  0  0  0  0  0  0  0
    6.9556  -10.0238    0.0000 C   0  0  0  0  0  0  0  0  0  0  0  0
    7.6700  -10.4363    0.0000 C   0  0  0  0  0  0  0  0  0  0  0  0
    8.3845  -10.0238    0.0000 C   0  0  0  0  0  0  0  0  0  0  0  0
    8.3845   -9.1987    0.0000 C   0  0  0  0  0  0  0  0  0  0  0  0
    7.6700   -8.7862    0.0000 C   0  0  0  0  0  0  0  0  0  0  0  0
    6.2411  -10.4363    0.0000 O   0  0  0  0  0  0  0  0  0  0  0  0
    5.5266  -10.0238    0.0000 C   0  0  0  0  0  0  0  0  0  0  0  0
    7.6700  -11.2613    0.0000 O   0  0  0  0  0  0  0  0  0  0  0  0
    9.0990  -10.4363    0.0000 O   0  0  0  0  0  0  0  0  0  0  0  0
    9.8134  -10.0238    0.0000 C   0  0  0  0  0  0  0  0  0  0  0  0
    7.6700   -7.9612    0.0000 C   0  0  0  0  0  0  0  0  0  0  0  0
    8.3845   -7.5488    0.0000 C   0  0  0  0  0  0  0  0  0  0  0  0
    8.3845   -6.7237    0.0000 C   0  0  0  0  0  0  0  0  0  0  0  0
    9.0990   -6.3113    0.0000 O   0  0  0  0  0  0  0  0  0  0  0  0
    6.9556  -11.6738    0.0000 C   0  0  2  0  0  0  0  0  0  0  0  0
    6.2411  -11.2613    0.0000 O   0  0  0  0  0  0  0  0  0  0  0  0
    5.5266  -11.6738    0.0000 C   0  0  1  0  0  0  0  0  0  0  0  0
    5.5266  -12.4987    0.0000 C   0  0  2  0  0  0  0  0  0  0  0  0
    6.2411  -12.9112    0.0000 C   0  0  1  0  0  0  0  0  0  0  0  0
    6.9556  -12.4987    0.0000 C   0  0  1  0  0  0  0  0  0  0  0  0
    4.8121  -11.2613    0.0000 C   0  0  0  0  0  0  0  0  0  0  0  0
    6.2411  -13.7362    0.0000 O   0  0  0  0  0  0  0  0  0  0  0  0
    4.8121  -12.9112    0.0000 O   0  0  0  0  0  0  0  0  0  0  0  0
    7.6700  -12.9112    0.0000 O   0  0  0  0  0  0  0  0  0  0  0  0
    4.0977  -11.6738    0.0000 O   0  0  0  0  0  0  0  0  0  0  0  0
    6.9446   -2.6031    0.0000 C   0  0  0  0  0  0  0  0  0  0  0  0
    6.2309   -3.0170    0.0000 C   0  0  0  0  0  0  0  0  0  0  0  0
    6.2325   -3.8420    0.0000 C   0  0  0  0  0  0  0  0  0  0  0  0
    6.9478   -4.2531    0.0000 C   0  0  0  0  0  0  0  0  0  0  0  0
    7.6614   -3.8392    0.0000 C   0  0  0  0  0  0  0  0  0  0  0  0
    7.6599   -3.0142    0.0000 C   0  0  0  0  0  0  0  0  0  0  0  0
    5.5157   -2.6058    0.0000 O   0  0  0  0  0  0  0  0  0  0  0  0
    8.3767   -4.2504    0.0000 C   0  0  0  0  0  0  0  0  0  0  0  0
    8.3783   -5.0754    0.0000 C   0  0  0  0  0  0  0  0  0  0  0  0
    9.0935   -5.4865    0.0000 C   0  0  0  0  0  0  0  0  0  0  0  0
    9.8072   -5.0726    0.0000 O   0  0  0  0  0  0  0  0  0  0  0  0
  1  2  2  0  0  0  0
  2  3  1  0  0  0  0
  3  4  2  0  0  0  0
  4  5  1  0  0  0  0
  5  6  2  0  0  0  0
  6  1  1  0  0  0  0
  2  7  1  0  0  0  0
  7  8  1  0  0  0  0
  3  9  1  0  0  0  0
  4 10  1  0  0  0  0
 10 11  1  0  0  0  0
  6 12  1  0  0  0  0
 12 13  2  0  0  0  0
 13 14  1  0  0  0  0
 14 15  1  0  0  0  0
 16  9  1  1  0  0  0
 16 17  1  0  0  0  0
 17 18  1  0  0  0  0
 18 19  1  0  0  0  0
 19 20  1  0  0  0  0
 20 21  1  0  0  0  0
 21 16  1  0  0  0  0
 18 22  1  1  0  0  0
 20 23  1  1  0  0  0
 19 24  1  6  0  0  0
 21 25  1  6  0  0  0
 22 26  1  0  0  0  0
 27 28  2  0  0  0  0
 28 29  1  0  0  0  0
 29 30  2  0  0  0  0
 30 31  1  0  0  0  0
 31 32  2  0  0  0  0
 32 27  1  0  0  0  0
 28 33  1  0  0  0  0
 31 34  1  0  0  0  0
 34 35  2  0  0  0  0
 35 36  1  0  0  0  0
 36 37  2  0  0  0  0
 36 15  1  0  0  0  0
M  END
>  <cdx:fragmentId>
5

$$$$
