93635.cdx
  Mrv1902 05222410232D          

 82 90  0  0  0  0            999 V2000
    2.5418   -4.3037    0.0000 C   0  0  0  0  0  0  0  0  0  0  0  0
    2.5418   -5.1287    0.0000 C   0  0  1  0  0  0  0  0  0  0  0  0
    3.2563   -5.5413    0.0000 C   0  0  1  0  0  0  0  0  0  0  0  0
    3.9707   -5.1287    0.0000 C   0  0  0  0  0  0  0  0  0  0  0  0
    3.9707   -4.3037    0.0000 C   0  0  2  0  0  0  0  0  0  0  0  0
    3.2563   -3.8912    0.0000 C   0  0  0  0  0  0  0  0  0  0  0  0
    4.6852   -5.5413    0.0000 C   0  0  0  0  0  0  0  0  0  0  0  0
    5.3997   -5.1287    0.0000 C   0  0  0  0  0  0  0  0  0  0  0  0
    5.3997   -4.3037    0.0000 C   0  0  2  0  0  0  0  0  0  0  0  0
    4.6852   -3.8912    0.0000 C   0  0  0  0  0  0  0  0  0  0  0  0
    6.1142   -3.8912    0.0000 C   0  0  1  0  0  0  0  0  0  0  0  0
    6.1142   -3.0662    0.0000 C   0  0  0  0  0  0  0  0  0  0  0  0
    5.3997   -2.6538    0.0000 C   0  0  0  0  0  0  0  0  0  0  0  0
    4.6852   -3.0662    0.0000 C   0  0  0  0  0  0  0  0  0  0  0  0
    6.8286   -4.3037    0.0000 C   0  0  0  0  0  0  0  0  0  0  0  0
    7.5431   -3.8912    0.0000 C   0  0  0  0  0  0  0  0  0  0  0  0
    7.5431   -3.0662    0.0000 C   0  0  2  0  0  0  0  0  0  0  0  0
    6.8286   -2.6538    0.0000 C   0  0  0  0  0  0  0  0  0  0  0  0
    8.2576   -2.6538    0.0000 C   0  0  0  0  0  0  0  0  0  0  0  0
    8.2576   -1.8288    0.0000 C   0  0  0  0  0  0  0  0  0  0  0  0
    7.5431   -1.4163    0.0000 C   0  0  1  0  0  0  0  0  0  0  0  0
    6.8286   -1.8288    0.0000 C   0  0  0  0  0  0  0  0  0  0  0  0
    1.8273   -5.5413    0.0000 O   0  0  0  0  0  0  0  0  0  0  0  0
    3.9707   -3.4788    0.0000 C   0  0  0  0  0  0  0  0  0  0  0  0
    5.3997   -3.4788    0.0000 C   0  0  0  0  0  0  0  0  0  0  0  0
    8.2576   -3.4788    0.0000 C   0  0  0  0  0  0  0  0  0  0  0  0
    7.1306   -0.7018    0.0000 C   0  0  0  0  0  0  0  0  0  0  0  0
    2.8438   -6.2557    0.0000 C   0  0  0  0  0  0  0  0  0  0  0  0
    3.6688   -6.2557    0.0000 C   0  0  0  0  0  0  0  0  0  0  0  0
    4.4938   -6.2557    0.0000 O   0  0  0  0  0  0  0  0  0  0  0  0
    3.2563   -6.9702    0.0000 O   0  0  0  0  0  0  0  0  0  0  0  0
    7.9556   -0.7018    0.0000 C   0  0  0  0  0  0  0  0  0  0  0  0
    6.1142   -4.7162    0.0000 C   0  0  0  0  0  0  0  0  0  0  0  0
    8.9720   -3.0662    0.0000 O   0  0  0  0  0  0  0  0  0  0  0  0
    8.2576   -4.3037    0.0000 O   0  0  0  0  0  0  0  0  0  0  0  0
    8.6771   -6.4368    0.0000 C   0  0  2  0  0  0  0  0  0  0  0  0
    9.5021   -6.4342    0.0000 C   0  0  2  0  0  0  0  0  0  0  0  0
    9.9123   -5.7185    0.0000 C   0  0  1  0  0  0  0  0  0  0  0  0
    9.4976   -5.0053    0.0000 C   0  0  2  0  0  0  0  0  0  0  0  0
    8.6726   -5.0079    0.0000 C   0  0  1  0  0  0  0  0  0  0  0  0
    8.2623   -5.7236    0.0000 O   0  0  0  0  0  0  0  0  0  0  0  0
    8.2668   -7.1526    0.0000 C   0  0  0  0  0  0  0  0  0  0  0  0
   10.7373   -5.7159    0.0000 O   0  0  0  0  0  0  0  0  0  0  0  0
    9.9168   -7.1474    0.0000 O   0  0  0  0  0  0  0  0  0  0  0  0
    9.9078   -4.2895    0.0000 O   0  0  0  0  0  0  0  0  0  0  0  0
    8.6815   -7.8657    0.0000 O   0  0  0  0  0  0  0  0  0  0  0  0
   11.1512   -7.8456    0.0000 C   0  0  2  0  0  0  0  0  0  0  0  0
   11.9762   -7.8430    0.0000 C   0  0  2  0  0  0  0  0  0  0  0  0
   12.3865   -7.1272    0.0000 C   0  0  1  0  0  0  0  0  0  0  0  0
   11.9717   -6.4140    0.0000 C   0  0  2  0  0  0  0  0  0  0  0  0
   11.1467   -6.4166    0.0000 C   0  0  1  0  0  0  0  0  0  0  0  0
   10.7365   -7.1324    0.0000 O   0  0  0  0  0  0  0  0  0  0  0  0
   10.7410   -8.5613    0.0000 C   0  0  0  0  0  0  0  0  0  0  0  0
   13.2115   -7.1246    0.0000 O   0  0  0  0  0  0  0  0  0  0  0  0
   12.3910   -8.5561    0.0000 O   0  0  0  0  0  0  0  0  0  0  0  0
   12.3820   -5.6983    0.0000 O   0  0  0  0  0  0  0  0  0  0  0  0
   11.1557   -9.2745    0.0000 O   0  0  0  0  0  0  0  0  0  0  0  0
    3.2610  -10.5920    0.0000 O   0  0  0  0  0  0  0  0  0  0  0  0
    5.7389   -7.7366    0.0000 O   0  0  0  0  0  0  0  0  0  0  0  0
    3.2625   -9.1631    0.0000 O   0  0  0  0  0  0  0  0  0  0  0  0
    4.0889   -7.7350    0.0000 O   0  0  0  0  0  0  0  0  0  0  0  0
    4.0860  -10.5929    0.0000 C   0  0  0  0  0  0  0  0  0  0  0  0
    5.3243   -9.8796    0.0000 O   0  0  0  0  0  0  0  0  0  0  0  0
    5.7375   -9.1656    0.0000 C   0  0  2  0  0  0  0  0  0  0  0  0
    5.3257   -8.4507    0.0000 C   0  0  1  0  0  0  0  0  0  0  0  0
    4.5007   -8.4499    0.0000 C   0  0  2  0  0  0  0  0  0  0  0  0
    4.0875   -9.1639    0.0000 C   0  0  1  0  0  0  0  0  0  0  0  0
    4.4993   -9.8788    0.0000 C   0  0  1  0  0  0  0  0  0  0  0  0
    7.7896  -12.7485    0.0000 O   0  0  0  0  0  0  0  0  0  0  0  0
    6.5560   -9.1748    0.0000 O   0  0  0  0  0  0  0  0  0  0  0  0
    6.5529  -12.0327    0.0000 O   0  0  0  0  0  0  0  0  0  0  0  0
    5.7295  -10.6029    0.0000 O   0  0  0  0  0  0  0  0  0  0  0  0
    8.2029  -12.0345    0.0000 C   0  0  0  0  0  0  0  0  0  0  0  0
    8.2045  -10.6056    0.0000 O   0  0  0  0  0  0  0  0  0  0  0  0
    7.7927   -9.8907    0.0000 C   0  0  2  0  0  0  0  0  0  0  0  0
    6.9677   -9.8898    0.0000 C   0  0  1  0  0  0  0  0  0  0  0  0
    6.5545  -10.6038    0.0000 C   0  0  2  0  0  0  0  0  0  0  0  0
    6.9662  -11.3187    0.0000 C   0  0  1  0  0  0  0  0  0  0  0  0
    7.7912  -11.3196    0.0000 C   0  0  1  0  0  0  0  0  0  0  0  0
    2.8478  -11.3061    0.0000 C   0  0  0  0  0  0  0  0  0  0  0  0
    2.0228  -11.3053    0.0000 C   0  0  0  0  0  0  0  0  0  0  0  0
    3.2596  -12.0210    0.0000 O   0  0  0  0  0  0  0  0  0  0  0  0
  1  2  1  0  0  0  0
  2  3  1  0  0  0  0
  3  4  1  0  0  0  0
  4  5  1  0  0  0  0
  5  6  1  0  0  0  0
  6  1  1  0  0  0  0
  4  7  1  0  0  0  0
  7  8  1  0  0  0  0
  8  9  1  0  0  0  0
  9 10  1  0  0  0  0
 10  5  1  0  0  0  0
  9 11  1  0  0  0  0
 11 12  1  0  0  0  0
 12 13  2  0  0  0  0
 13 14  1  0  0  0  0
 14 10  1  0  0  0  0
 11 15  1  0  0  0  0
 15 16  1  0  0  0  0
 16 17  1  0  0  0  0
 17 18  1  0  0  0  0
 18 12  1  0  0  0  0
 17 19  1  0  0  0  0
 19 20  1  0  0  0  0
 20 21  1  0  0  0  0
 21 22  1  0  0  0  0
 22 18  1  0  0  0  0
  2 23  1  1  0  0  0
  5 24  1  1  0  0  0
  9 25  1  1  0  0  0
 17 26  1  1  0  0  0
 21 27  1  1  0  0  0
  3 28  1  1  0  0  0
  3 29  1  0  0  0  0
 21 32  1  6  0  0  0
 11 33  1  6  0  0  0
 26 34  2  0  0  0  0
 26 35  1  0  0  0  0
 36 37  1  0  0  0  0
 37 38  1  0  0  0  0
 38 39  1  0  0  0  0
 39 40  1  0  0  0  0
 40 41  1  0  0  0  0
 41 36  1  0  0  0  0
 36 42  1  1  0  0  0
 38 43  1  1  0  0  0
 37 44  1  6  0  0  0
 39 45  1  6  0  0  0
 42 46  1  0  0  0  0
 47 48  1  0  0  0  0
 48 49  1  0  0  0  0
 49 50  1  0  0  0  0
 50 51  1  0  0  0  0
 51 52  1  0  0  0  0
 52 47  1  0  0  0  0
 47 53  1  1  0  0  0
 49 54  1  1  0  0  0
 48 55  1  6  0  0  0
 50 56  1  6  0  0  0
 53 57  1  0  0  0  0
 51 43  1  1  0  0  0
 40 35  1  1  0  0  0
 64 70  1  6  0  0  0
 62 58  1  0  0  0  0
 65 59  1  1  0  0  0
 67 60  1  1  0  0  0
 66 61  1  6  0  0  0
 68 62  1  6  0  0  0
 63 68  1  0  0  0  0
 64 63  1  0  0  0  0
 65 64  1  0  0  0  0
 66 65  1  0  0  0  0
 67 66  1  0  0  0  0
 68 67  1  0  0  0  0
 73 69  1  0  0  0  0
 76 70  1  1  0  0  0
 78 71  1  1  0  0  0
 77 72  1  6  0  0  0
 79 73  1  6  0  0  0
 74 79  1  0  0  0  0
 75 74  1  0  0  0  0
 76 75  1  0  0  0  0
 77 76  1  0  0  0  0
 78 77  1  0  0  0  0
 79 78  1  0  0  0  0
 75 46  1  6  0  0  0
 58 80  1  0  0  0  0
 80 81  1  0  0  0  0
 80 82  2  0  0  0  0
 29 30  2  0  0  0  0
 29 31  1  0  0  0  0
M  STY  1   1 SUP
M  SAL   1  3  29  30  31
M  SBL   1  1  33
M  SMT   1 COOH
M  SAP   1  1  29   3  1
M  END
>  <cdx:fragmentId>
5

$$$$
