93637.cdx
  Mrv1902 05222410242D          

 34 37  0  0  0  0            999 V2000
    9.7029   -6.0711    0.0000 C   0  0  0  0  0  0  0  0  0  0  0  0
    5.0181   -8.1088    0.0000 C   0  0  0  0  0  0  0  0  0  0  0  0
    5.0181   -7.2838    0.0000 C   0  0  0  0  0  0  0  0  0  0  0  0
    5.7325   -6.8713    0.0000 C   0  0  0  0  0  0  0  0  0  0  0  0
    5.7325   -8.5213    0.0000 C   0  0  1  0  0  0  0  0  0  0  0  0
    5.3200   -9.2358    0.0000 C   0  0  0  0  0  0  0  0  0  0  0  0
    6.2688   -9.4501    0.0000 C   0  0  0  0  0  0  0  0  0  0  0  0
    6.4470   -8.1088    0.0000 C   0  0  2  0  0  0  0  0  0  0  0  0
    6.4470   -8.9338    0.0000 H   0  0  0  0  0  0  0  0  0  0  0  0
    7.1615   -8.5213    0.0000 C   0  0  0  0  0  0  0  0  0  0  0  0
    7.8759   -8.1088    0.0000 C   0  0  0  0  0  0  0  0  0  0  0  0
    7.8759   -7.2838    0.0000 C   0  0  2  0  0  0  0  0  0  0  0  0
    7.1615   -6.8713    0.0000 C   0  0  1  0  0  0  0  0  0  0  0  0
    7.1615   -7.6963    0.0000 H   0  0  0  0  0  0  0  0  0  0  0  0
    6.4470   -7.2838    0.0000 C   0  0  1  0  0  0  0  0  0  0  0  0
    6.4470   -6.4588    0.0000 C   0  0  0  0  0  0  0  0  0  0  0  0
    8.6439   -6.9824    0.0000 C   0  0  0  0  0  0  0  0  0  0  0  0
    8.8871   -6.1940    0.0000 C   0  0  2  0  0  0  0  0  0  0  0  0
    8.4224   -5.5124    0.0000 C   0  0  2  0  0  0  0  0  0  0  0  0
    7.6386   -6.2396    0.0000 C   0  0  0  0  0  0  0  0  0  0  0  0
    7.5997   -5.4507    0.0000 C   0  0  0  0  0  0  0  0  0  0  0  0
    7.0385   -6.0555    0.0000 C   0  0  0  0  0  0  0  0  0  0  0  0
    5.8563  -10.1646    0.0000 O   0  0  0  0  0  0  0  0  0  0  0  0
    7.0938   -9.4501    0.0000 O   0  0  0  0  0  0  0  0  0  0  0  0
    4.4950   -9.2358    0.0000 O   0  0  0  0  0  0  0  0  0  0  0  0
    4.0825   -9.9502    0.0000 C   0  0  0  0  0  0  0  0  0  0  0  0
    4.4950  -10.6647    0.0000 O   0  0  0  0  0  0  0  0  0  0  0  0
    3.2575   -9.9502    0.0000 C   0  0  0  0  0  0  0  0  0  0  0  0
    2.8450  -10.6647    0.0000 C   0  0  0  0  0  0  0  0  0  0  0  0
    2.8450   -9.2358    0.0000 C   0  0  0  0  0  0  0  0  0  0  0  0
   10.2173   -6.7161    0.0000 O   0  0  0  0  0  0  0  0  0  0  0  0
   11.0330   -6.5931    0.0000 C   0  0  0  0  0  0  0  0  0  0  0  0
   11.3344   -5.8252    0.0000 O   0  0  0  0  0  0  0  0  0  0  0  0
   11.5474   -7.2381    0.0000 C   0  0  0  0  0  0  0  0  0  0  0  0
  2  3  1  0  0  0  0
  3  4  1  0  0  0  0
  2  5  1  0  0  0  0
  5  6  1  1  0  0  0
  5  7  1  6  0  0  0
  5  8  1  0  0  0  0
  8  9  1  6  0  0  0
  8 10  1  0  0  0  0
 10 11  1  0  0  0  0
 11 12  1  0  0  0  0
 12 13  1  0  0  0  0
 13 14  1  6  0  0  0
 13 15  1  0  0  0  0
  4 15  1  0  0  0  0
  8 15  1  0  0  0  0
 15 16  1  1  0  0  0
 12 17  1  0  0  0  0
 17 18  1  0  0  0  0
 18  1  1  6  0  0  0
 18 19  1  0  0  0  0
 19 20  1  1  0  0  0
 12 20  1  1  0  0  0
 19 21  1  0  0  0  0
 21 22  1  0  0  0  0
 13 22  1  0  0  0  0
  7 23  2  0  0  0  0
  7 24  1  0  0  0  0
 26 27  2  0  0  0  0
 26 28  1  0  0  0  0
 28 29  1  0  0  0  0
 28 30  1  0  0  0  0
 25 26  1  0  0  0  0
  6 25  1  0  0  0  0
 32 33  2  0  0  0  0
 32 34  1  0  0  0  0
 31 32  1  0  0  0  0
  1 31  1  0  0  0  0
M  END
>  <cdx:groupId>
111

>  <cdx:fragmentId>
11

$$$$
