93632.cdx
  Mrv1902 05222410252D          

 47 51  0  0  0  0            999 V2000
    4.4118   -7.3975    0.0000 C   0  0  0  0  0  0  0  0  0  0  0  0
    4.4118   -8.2225    0.0000 C   0  0  0  0  0  0  0  0  0  0  0  0
    5.1263   -8.6350    0.0000 C   0  0  0  0  0  0  0  0  0  0  0  0
    5.8407   -8.2225    0.0000 C   0  0  1  0  0  0  0  0  0  0  0  0
    5.8407   -7.3975    0.0000 C   0  0  2  0  0  0  0  0  0  0  0  0
    5.1263   -6.9850    0.0000 C   0  0  0  0  0  0  0  0  0  0  0  0
    6.5552   -8.6350    0.0000 C   0  0  2  0  0  0  0  0  0  0  0  0
    7.2697   -8.2225    0.0000 C   0  0  1  0  0  0  0  0  0  0  0  0
    7.2697   -7.3975    0.0000 C   0  0  1  0  0  0  0  0  0  0  0  0
    6.5552   -6.9850    0.0000 C   0  0  2  0  0  0  0  0  0  0  0  0
    5.1263   -9.4600    0.0000 C   0  0  0  0  0  0  0  0  0  0  0  0
    6.5552   -6.1600    0.0000 C   0  0  0  0  0  0  0  0  0  0  0  0
    7.2697   -5.7475    0.0000 C   0  0  0  0  0  0  0  0  0  0  0  0
    7.2697   -4.9225    0.0000 C   0  0  0  0  0  0  0  0  0  0  0  0
    6.5552   -4.5100    0.0000 C   0  0  0  0  0  0  0  0  0  0  0  0
    7.8828   -4.3705    0.0000 C   0  0  0  0  0  0  0  0  0  0  0  0
    7.5472   -3.6168    0.0000 C   0  0  0  0  0  0  0  0  0  0  0  0
    6.7267   -3.7030    0.0000 O   0  0  0  0  0  0  0  0  0  0  0  0
    8.6898   -4.5420    0.0000 O   0  0  0  0  0  0  0  0  0  0  0  0
    7.9597   -2.9023    0.0000 O   0  0  0  0  0  0  0  0  0  0  0  0
    5.5245   -5.5413    0.0000 O   0  0  0  0  0  0  0  0  0  0  0  0
    5.5245   -4.7162    0.0000 C   0  0  0  0  0  0  0  0  0  0  0  0
    4.8100   -4.3037    0.0000 O   0  0  0  0  0  0  0  0  0  0  0  0
    6.2390   -4.3037    0.0000 C   0  0  0  0  0  0  0  0  0  0  0  0
    5.8407   -6.5725    0.0000 H   0  0  0  0  0  0  0  0  0  0  0  0
    8.0947   -7.3975    0.0000 O   0  0  0  0  0  0  0  0  0  0  0  0
    7.9842   -8.6350    0.0000 O   0  0  0  0  0  0  0  0  0  0  0  0
    7.2697   -6.5725    0.0000 C   0  0  0  0  0  0  0  0  0  0  0  0
    7.6822   -6.6830    0.0000 C   0  0  0  0  0  0  0  0  0  0  0  0
    5.8407   -9.0475    0.0000 C   0  0  0  0  0  0  0  0  0  0  0  0
    6.5552   -9.4600    0.0000 O   0  0  0  0  0  0  0  0  0  0  0  0
    7.9565  -11.9116    0.0000 N   0  0  0  0  0  0  0  0  0  0  0  0
    8.6727  -11.5020    0.0000 C   0  0  0  0  0  0  0  0  0  0  0  0
    8.6760  -10.6770    0.0000 C   0  0  0  0  0  0  0  0  0  0  0  0
    7.9633  -10.2616    0.0000 C   0  0  0  0  0  0  0  0  0  0  0  0
    7.2471  -10.6712    0.0000 C   0  0  0  0  0  0  0  0  0  0  0  0
    7.2437  -11.4962    0.0000 C   0  0  0  0  0  0  0  0  0  0  0  0
    6.5343  -10.2558    0.0000 C   0  0  0  0  0  0  0  0  0  0  0  0
    5.8182  -10.6653    0.0000 O   0  0  0  0  0  0  0  0  0  0  0  0
   10.8063   -8.5422    0.0000 C   0  0  0  0  0  0  0  0  0  0  0  0
   10.7927   -7.7173    0.0000 C   0  0  0  0  0  0  0  0  0  0  0  0
   10.0715   -7.3167    0.0000 C   0  0  0  0  0  0  0  0  0  0  0  0
    9.3639   -7.7409    0.0000 C   0  0  0  0  0  0  0  0  0  0  0  0
    9.3775   -8.5658    0.0000 C   0  0  0  0  0  0  0  0  0  0  0  0
   10.0987   -8.9664    0.0000 N   0  0  0  0  0  0  0  0  0  0  0  0
    8.6700   -8.9900    0.0000 C   0  0  0  0  0  0  0  0  0  0  0  0
    8.6836   -9.8149    0.0000 O   0  0  0  0  0  0  0  0  0  0  0  0
  1  2  1  0  0  0  0
  2  3  2  0  0  0  0
  3  4  1  0  0  0  0
  4  5  1  0  0  0  0
  5  6  1  0  0  0  0
  6  1  1  0  0  0  0
  4  7  1  0  0  0  0
  7  8  1  0  0  0  0
  8  9  1  0  0  0  0
  9 10  1  0  0  0  0
 10  5  1  0  0  0  0
  3 11  1  0  0  0  0
 10 12  1  0  0  0  0
 12 13  1  0  0  0  0
 13 14  1  0  0  0  0
 14 15  1  0  0  0  0
 14 16  2  0  0  0  0
 16 17  1  0  0  0  0
 17 18  1  0  0  0  0
 18 15  1  0  0  0  0
 16 19  1  0  0  0  0
 17 20  2  0  0  0  0
 12 21  1  0  0  0  0
 21 22  1  0  0  0  0
 22 23  2  0  0  0  0
 22 24  1  0  0  0  0
  5 25  1  1  0  0  0
  9 26  1  1  0  0  0
  8 27  1  1  0  0  0
 10 28  1  6  0  0  0
  9 29  1  6  0  0  0
  4 30  1  6  0  0  0
  7 31  1  6  0  0  0
 32 33  2  0  0  0  0
 33 34  1  0  0  0  0
 34 35  2  0  0  0  0
 35 36  1  0  0  0  0
 36 37  2  0  0  0  0
 37 32  1  0  0  0  0
 36 38  1  0  0  0  0
 38 39  2  0  0  0  0
 40 41  2  0  0  0  0
 41 42  1  0  0  0  0
 42 43  2  0  0  0  0
 43 44  1  0  0  0  0
 44 45  2  0  0  0  0
 45 40  1  0  0  0  0
 44 46  1  0  0  0  0
 46 47  2  0  0  0  0
 38 31  1  0  0  0  0
 46 27  1  0  0  0  0
M  END
>  <cdx:fragmentId>
5

$$$$
