93639.cdx
  Mrv1902 05222410222D          

 20 23  0  0  0  0            999 V2000
    3.9941   -3.6827    0.0000 C   0  0  0  0  0  0  0  0  0  0  0  0
    4.7085   -4.0952    0.0000 C   0  0  0  0  0  0  0  0  0  0  0  0
    5.4230   -3.6827    0.0000 C   0  0  0  0  0  0  0  0  0  0  0  0
    5.4230   -2.8577    0.0000 C   0  0  0  0  0  0  0  0  0  0  0  0
    6.1375   -2.4452    0.0000 C   0  0  0  0  0  0  0  0  0  0  0  0
    6.1375   -1.6202    0.0000 C   0  0  0  0  0  0  0  0  0  0  0  0
    5.4230   -1.2077    0.0000 C   0  0  0  0  0  0  0  0  0  0  0  0
    4.7085   -1.6202    0.0000 C   0  0  0  0  0  0  0  0  0  0  0  0
    4.7085   -2.4452    0.0000 C   0  0  0  0  0  0  0  0  0  0  0  0
    3.9941   -2.8577    0.0000 C   0  0  0  0  0  0  0  0  0  0  0  0
    3.3490   -2.3433    0.0000 C   0  0  0  0  0  0  0  0  0  0  0  0
    2.5447   -2.5269    0.0000 C   0  0  0  0  0  0  0  0  0  0  0  0
    2.1868   -3.2702    0.0000 C   0  0  0  0  0  0  0  0  0  0  0  0
    2.5447   -4.0135    0.0000 O   0  0  0  0  0  0  0  0  0  0  0  0
    3.3490   -4.1971    0.0000 C   0  0  0  0  0  0  0  0  0  0  0  0
    3.2085   -2.9550    0.0000 O   0  0  0  0  0  0  0  0  0  0  0  0
    1.3618   -3.2702    0.0000 C   0  0  0  0  0  0  0  0  0  0  0  0
    3.9941   -2.0327    0.0000 C   0  0  0  0  0  0  0  0  0  0  0  0
    6.9625   -2.4452    0.0000 C   0  0  0  0  0  0  0  0  0  0  0  0
    6.5500   -3.1597    0.0000 C   0  0  0  0  0  0  0  0  0  0  0  0
  1  2  1  0  0  0  0
  2  3  1  0  0  0  0
  3  4  1  0  0  0  0
  4  5  1  0  0  0  0
  5  6  1  0  0  0  0
  6  7  1  0  0  0  0
  7  8  1  0  0  0  0
  8  9  1  0  0  0  0
  9 10  1  0  0  0  0
 10 11  1  0  0  0  0
 11 12  1  0  0  0  0
 12 13  1  0  0  0  0
 13 14  1  0  0  0  0
 14 15  1  0  0  0  0
  1 15  1  0  0  0  0
  1 16  1  0  0  0  0
 16 13  1  0  0  0  0
  1 10  1  0  0  0  0
  4  9  1  0  0  0  0
 13 17  1  0  0  0  0
  9 18  1  0  0  0  0
  5 19  1  0  0  0  0
  5 20  1  0  0  0  0
M  END
>  <cdx:groupId>
203

>  <cdx:fragmentId>
143

$$$$
