93641.cdx
  Mrv1902 05222410262D          

 37 40  0  0  0  0            999 V2000
    4.5218   -8.9238    0.0000 C   0  0  0  0  0  0  0  0  0  0  0  0
    4.5218   -9.7487    0.0000 C   0  0  0  0  0  0  0  0  0  0  0  0
    5.2363  -10.1612    0.0000 C   0  0  0  0  0  0  0  0  0  0  0  0
    5.9507   -9.7487    0.0000 C   0  0  0  0  0  0  0  0  0  0  0  0
    5.9507   -8.9238    0.0000 C   0  0  0  0  0  0  0  0  0  0  0  0
    5.2363   -8.5113    0.0000 C   0  0  0  0  0  0  0  0  0  0  0  0
    6.6652  -10.1612    0.0000 C   0  0  0  0  0  0  0  0  0  0  0  0
    7.3797   -9.7487    0.0000 C   0  0  0  0  0  0  0  0  0  0  0  0
    7.3797   -8.9238    0.0000 C   0  0  0  0  0  0  0  0  0  0  0  0
    6.6652   -8.5113    0.0000 O   0  0  0  0  0  0  0  0  0  0  0  0
    8.0942  -10.1612    0.0000 O   0  0  0  0  0  0  0  0  0  0  0  0
    8.8086   -9.7487    0.0000 C   0  0  0  0  0  0  0  0  0  0  0  0
    8.8086   -8.9238    0.0000 C   0  0  0  0  0  0  0  0  0  0  0  0
    8.0942   -8.5113    0.0000 C   0  0  0  0  0  0  0  0  0  0  0  0
    9.5231   -8.5113    0.0000 C   0  0  0  0  0  0  0  0  0  0  0  0
    9.5231   -7.6863    0.0000 C   0  0  0  0  0  0  0  0  0  0  0  0
    8.8086   -7.2738    0.0000 C   0  0  0  0  0  0  0  0  0  0  0  0
    8.0942   -7.6863    0.0000 C   0  0  0  0  0  0  0  0  0  0  0  0
    3.8073   -8.5113    0.0000 O   0  0  0  0  0  0  0  0  0  0  0  0
    5.2363  -10.9863    0.0000 O   0  0  0  0  0  0  0  0  0  0  0  0
    6.6652  -10.9863    0.0000 O   0  0  0  0  0  0  0  0  0  0  0  0
   10.2376   -7.2738    0.0000 O   0  0  0  0  0  0  0  0  0  0  0  0
    8.8086   -6.4487    0.0000 O   0  0  0  0  0  0  0  0  0  0  0  0
    8.0942   -6.0362    0.0000 C   0  0  2  0  0  0  0  0  0  0  0  0
    8.0942   -5.2113    0.0000 O   0  0  0  0  0  0  0  0  0  0  0  0
    7.3797   -4.7988    0.0000 C   0  0  1  0  0  0  0  0  0  0  0  0
    6.6652   -5.2113    0.0000 C   0  0  2  0  0  0  0  0  0  0  0  0
    6.6652   -6.0362    0.0000 C   0  0  1  0  0  0  0  0  0  0  0  0
    7.3797   -6.4487    0.0000 C   0  0  1  0  0  0  0  0  0  0  0  0
    7.3797   -3.9738    0.0000 C   0  0  0  0  0  0  0  0  0  0  0  0
    5.9507   -6.4487    0.0000 O   0  0  0  0  0  0  0  0  0  0  0  0
    7.3797   -7.2738    0.0000 O   0  0  0  0  0  0  0  0  0  0  0  0
    5.9507   -4.7988    0.0000 O   0  0  0  0  0  0  0  0  0  0  0  0
    6.6652   -3.5612    0.0000 O   0  0  0  0  0  0  0  0  0  0  0  0
    8.0942   -3.5612    0.0000 O   0  0  0  0  0  0  0  0  0  0  0  0
    8.8086   -3.9738    0.0000 C   0  0  0  0  0  0  0  0  0  0  0  0
    9.5231   -3.5612    0.0000 C   0  0  0  0  0  0  0  0  0  0  0  0
  1  2  2  0  0  0  0
  2  3  1  0  0  0  0
  3  4  2  0  0  0  0
  4  5  1  0  0  0  0
  5  6  2  0  0  0  0
  6  1  1  0  0  0  0
  4  7  1  0  0  0  0
  7  8  1  0  0  0  0
  8  9  2  0  0  0  0
  9 10  1  0  0  0  0
 10  5  1  0  0  0  0
  8 11  1  0  0  0  0
 11 12  1  0  0  0  0
 13 14  2  0  0  0  0
 14  9  1  0  0  0  0
 13 15  1  0  0  0  0
 15 16  2  0  0  0  0
 16 17  1  0  0  0  0
 17 18  2  0  0  0  0
 18 14  1  0  0  0  0
  1 19  1  0  0  0  0
  3 20  1  0  0  0  0
  7 21  2  0  0  0  0
 16 22  1  0  0  0  0
 17 23  1  0  0  0  0
 24 23  1  1  0  0  0
 24 25  1  0  0  0  0
 25 26  1  0  0  0  0
 26 27  1  0  0  0  0
 27 28  1  0  0  0  0
 28 29  1  0  0  0  0
 29 24  1  0  0  0  0
 26 30  1  1  0  0  0
 28 31  1  1  0  0  0
 29 32  1  6  0  0  0
 27 33  1  6  0  0  0
 30 34  2  0  0  0  0
 30 35  1  0  0  0  0
 35 36  1  0  0  0  0
 36 37  1  0  0  0  0
M  END
>  <cdx:fragmentId>
5

$$$$
