93647.cdx
  Mrv1902 05222410282D          

 40 41  0  0  0  0            999 V2000
    4.2364   -9.3345    0.0000 O   0  0  0  0  0  0  0  0  0  0  0  0
    4.9509   -9.7470    0.0000 C   0  0  1  0  0  0  0  0  0  0  0  0
    4.9509  -10.5720    0.0000 C   0  0  1  0  0  0  0  0  0  0  0  0
    4.2364  -10.9845    0.0000 C   0  0  2  0  0  0  0  0  0  0  0  0
    3.5219  -10.5720    0.0000 C   0  0  1  0  0  0  0  0  0  0  0  0
    3.5219   -9.7470    0.0000 C   0  0  1  0  0  0  0  0  0  0  0  0
    5.6653  -10.9845    0.0000 O   0  0  0  0  0  0  0  0  0  0  0  0
    4.2364  -11.8095    0.0000 O   0  0  0  0  0  0  0  0  0  0  0  0
    2.8075  -10.9845    0.0000 O   0  0  0  0  0  0  0  0  0  0  0  0
    2.8075   -9.3345    0.0000 C   0  0  0  0  0  0  0  0  0  0  0  0
    2.0930   -9.7470    0.0000 O   0  0  0  0  0  0  0  0  0  0  0  0
    5.6653   -9.3345    0.0000 O   0  0  0  0  0  0  0  0  0  0  0  0
    4.8772   -7.5350    0.0000 C   0  0  1  0  0  0  0  0  0  0  0  0
    4.8772   -8.3600    0.0000 O   0  0  0  0  0  0  0  0  0  0  0  0
    5.6619   -8.6149    0.0000 C   0  0  2  0  0  0  0  0  0  0  0  0
    6.1468   -7.9475    0.0000 C   0  0  2  0  0  0  0  0  0  0  0  0
    5.6619   -7.2801    0.0000 C   0  0  2  0  0  0  0  0  0  0  0  0
    6.9718   -7.7275    0.0000 O   0  0  0  0  0  0  0  0  0  0  0  0
    4.2098   -7.0501    0.0000 C   0  0  0  0  0  0  0  0  0  0  0  0
    5.9168   -6.4954    0.0000 O   0  0  0  0  0  0  0  0  0  0  0  0
    6.4471   -8.8680    0.0000 C   0  0  0  0  0  0  0  0  0  0  0  0
    7.1616   -8.4555    0.0000 O   0  0  0  0  0  0  0  0  0  0  0  0
    4.2135   -6.2846    0.0000 O   0  0  0  0  0  0  0  0  0  0  0  0
    7.8760   -8.8680    0.0000 C   0  0  0  0  0  0  0  0  0  0  0  0
    8.5905   -8.4555    0.0000 C   0  0  0  0  0  0  0  0  0  0  0  0
    7.8760   -9.6930    0.0000 O   0  0  0  0  0  0  0  0  0  0  0  0
    9.3050   -8.8680    0.0000 C   0  0  0  0  0  0  0  0  0  0  0  0
   10.0195   -8.4555    0.0000 C   0  0  0  0  0  0  0  0  0  0  0  0
   10.7339   -8.8680    0.0000 C   0  0  0  0  0  0  0  0  0  0  0  0
   11.4484   -8.4555    0.0000 C   0  0  0  0  0  0  0  0  0  0  0  0
   12.1629   -8.8680    0.0000 C   0  0  0  0  0  0  0  0  0  0  0  0
   12.8773   -8.4555    0.0000 C   0  0  0  0  0  0  0  0  0  0  0  0
   13.5918   -8.8680    0.0000 C   0  0  0  0  0  0  0  0  0  0  0  0
   14.3063   -8.4555    0.0000 C   0  0  0  0  0  0  0  0  0  0  0  0
   15.0207   -8.8680    0.0000 C   0  0  0  0  0  0  0  0  0  0  0  0
   15.7352   -8.4555    0.0000 C   0  0  0  0  0  0  0  0  0  0  0  0
   16.4497   -8.8680    0.0000 C   0  0  0  0  0  0  0  0  0  0  0  0
   17.1642   -8.4555    0.0000 C   0  0  0  0  0  0  0  0  0  0  0  0
   17.8786   -8.8680    0.0000 C   0  0  0  0  0  0  0  0  0  0  0  0
   18.5931   -8.4555    0.0000 C   0  0  0  0  0  0  0  0  0  0  0  0
  1  2  1  0  0  0  0
  2  3  1  0  0  0  0
  3  4  1  0  0  0  0
  4  5  1  0  0  0  0
  5  6  1  0  0  0  0
  1  6  1  0  0  0  0
  3  7  1  6  0  0  0
  4  8  1  1  0  0  0
  5  9  1  6  0  0  0
 10 11  1  0  0  0  0
  6 10  1  1  0  0  0
  2 12  1  6  0  0  0
 13 14  1  0  0  0  0
 14 15  1  0  0  0  0
 15 16  1  0  0  0  0
 16 17  1  0  0  0  0
 17 13  1  0  0  0  0
 15 12  1  6  0  0  0
 16 18  1  6  0  0  0
 13 19  1  6  0  0  0
 17 20  1  1  0  0  0
 15 21  1  0  0  0  0
 21 22  1  0  0  0  0
 19 23  1  0  0  0  0
 22 24  1  0  0  0  0
 24 25  1  0  0  0  0
 24 26  2  0  0  0  0
 25 27  1  0  0  0  0
 27 28  1  0  0  0  0
 28 29  1  0  0  0  0
 29 30  1  0  0  0  0
 30 31  1  0  0  0  0
 31 32  1  0  0  0  0
 32 33  1  0  0  0  0
 33 34  1  0  0  0  0
 34 35  1  0  0  0  0
 35 36  1  0  0  0  0
 36 37  1  0  0  0  0
 37 38  1  0  0  0  0
 38 39  1  0  0  0  0
 39 40  1  0  0  0  0
M  END
>  <cdx:fragmentId>
82

$$$$
