93646.cdx
  Mrv1902 05222410282D          

 14 15  0  0  0  0            999 V2000
    9.0041   -7.5907    0.0000 O   0  0  0  0  0  0  0  0  0  0  0  0
    4.7661   -6.7657    0.0000 O   0  0  0  0  0  0  0  0  0  0  0  0
    5.8211   -5.3136    0.0000 C   0  0  0  0  0  0  0  0  0  0  0  0
    6.0761   -7.4331    0.0000 C   0  0  0  0  0  0  0  0  0  0  0  0
    5.5911   -6.7657    0.0000 C   0  0  2  0  0  0  0  0  0  0  0  0
    6.0761   -6.0983    0.0000 C   0  0  2  0  0  0  0  0  0  0  0  0
    7.5752   -7.5907    0.0000 C   0  0  0  0  0  0  0  0  0  0  0  0
    6.8607   -7.1782    0.0000 C   0  0  2  0  0  0  0  0  0  0  0  0
    6.8607   -6.3532    0.0000 C   0  0  2  0  0  0  0  0  0  0  0  0
    7.5752   -5.9407    0.0000 C   0  0  0  0  0  0  0  0  0  0  0  0
    8.2896   -6.3532    0.0000 O   0  0  0  0  0  0  0  0  0  0  0  0
    8.2896   -7.1782    0.0000 C   0  0  0  0  0  0  0  0  0  0  0  0
    6.8607   -5.5282    0.0000 H   0  0  0  0  0  0  0  0  0  0  0  0
    6.8607   -8.0032    0.0000 H   0  0  0  0  0  0  0  0  0  0  0  0
 12  1  2  0  0  0  0
  5  2  1  1  0  0  0
  6  3  1  1  0  0  0
  4  8  1  0  0  0  0
  5  4  1  0  0  0  0
  6  5  1  0  0  0  0
  9  6  1  0  0  0  0
  7 12  1  0  0  0  0
  8  7  1  0  0  0  0
  9  8  1  0  0  0  0
 10  9  1  0  0  0  0
 11 10  1  0  0  0  0
 12 11  1  0  0  0  0
  9 13  1  6  0  0  0
  8 14  1  6  0  0  0
M  END
>  <cdx:fragmentId>
5

$$$$
