93649.cdx
  Mrv1902 05222410192D          

 35 39  0  0  0  0            999 V2000
    9.4001   -5.8247    0.0000 O   0  0  0  0  0  0  0  0  0  0  0  0
    9.3901   -7.4747    0.0000 O   0  0  0  0  0  0  0  0  0  0  0  0
    7.9562   -8.2910    0.0000 O   0  0  0  0  0  0  0  0  0  0  0  0
    7.2492   -7.0492    0.0000 C   0  0  0  0  0  0  0  0  0  0  0  0
    7.9612   -7.4660    0.0000 C   0  0  0  0  0  0  0  0  0  0  0  0
    8.6781   -7.0578    0.0000 C   0  0  0  0  0  0  0  0  0  0  0  0
    8.6831   -6.2329    0.0000 C   0  0  0  0  0  0  0  0  0  0  0  0
    7.9711   -5.8160    0.0000 C   0  0  0  0  0  0  0  0  0  0  0  0
    6.5472   -4.9824    0.0000 O   0  0  0  0  0  0  0  0  0  0  0  0
    7.2542   -6.2242    0.0000 C   0  0  0  0  0  0  0  0  0  0  0  0
    6.5422   -5.8074    0.0000 C   0  0  0  0  0  0  0  0  0  0  0  0
    5.0927   -8.2696    0.0000 O   0  0  0  0  0  0  0  0  0  0  0  0
    6.5344   -7.4671    0.0000 O   0  0  0  0  0  0  0  0  0  0  0  0
    8.6452   -9.5631    0.0000 O   0  0  0  0  0  0  0  0  0  0  0  0
    4.3329  -11.1455    0.0000 O   0  0  0  0  0  0  0  0  0  0  0  0
    6.4437  -13.2414    0.0000 O   0  0  0  0  0  0  0  0  0  0  0  0
    7.8854  -12.4390    0.0000 O   0  0  0  0  0  0  0  0  0  0  0  0
    7.2294   -8.7157    0.0000 C   0  0  0  0  0  0  0  0  0  0  0  0
    6.5215   -8.2920    0.0000 C   0  0  0  0  0  0  0  0  0  0  0  0
    5.8006   -8.6933    0.0000 C   0  0  0  0  0  0  0  0  0  0  0  0
    7.9113  -10.7892    0.0000 O   0  0  0  0  0  0  0  0  0  0  0  0
    7.9243   -9.9643    0.0000 C   0  0  0  0  0  0  0  0  0  0  0  0
    7.2164   -9.5406    0.0000 C   0  0  0  0  0  0  0  0  0  0  0  0
    6.4955   -9.9418    0.0000 C   0  0  0  0  0  0  0  0  0  0  0  0
    5.7876   -9.5182    0.0000 C   0  0  0  0  0  0  0  0  0  0  0  0
    5.0668   -9.9194    0.0000 O   0  0  0  0  0  0  0  0  0  0  0  0
    5.0538  -10.7443    0.0000 C   0  0  0  0  0  0  0  0  0  0  0  0
    7.1905  -11.1904    0.0000 C   0  0  0  0  0  0  0  0  0  0  0  0
    6.4826  -10.7667    0.0000 C   0  0  0  0  0  0  0  0  0  0  0  0
    5.7617  -11.1680    0.0000 C   0  0  0  0  0  0  0  0  0  0  0  0
    5.7487  -11.9929    0.0000 C   0  0  0  0  0  0  0  0  0  0  0  0
    6.4566  -12.4165    0.0000 C   0  0  0  0  0  0  0  0  0  0  0  0
    7.1775  -12.0153    0.0000 C   0  0  0  0  0  0  0  0  0  0  0  0
    5.8253   -6.2156    0.0000 O   0  0  0  0  0  0  0  0  0  0  0  0
    5.1133   -5.7987    0.0000 C   0  0  0  0  0  0  0  0  0  0  0  0
  7  1  1  0  0  0  0
  6  2  1  0  0  0  0
  5  3  1  0  0  0  0
  4 10  1  0  0  0  0
  5  4  2  0  0  0  0
  6  5  1  0  0  0  0
  7  6  2  0  0  0  0
  8  7  1  0  0  0  0
 10  8  2  0  0  0  0
 11  9  2  0  0  0  0
 11 10  1  0  0  0  0
 20 12  1  0  0  0  0
 19 13  1  0  0  0  0
 22 14  2  0  0  0  0
 27 15  2  0  0  0  0
 32 16  1  0  0  0  0
 33 17  1  0  0  0  0
 18 23  1  0  0  0  0
 19 18  2  0  0  0  0
 20 19  1  0  0  0  0
 25 20  2  0  0  0  0
 21 28  1  0  0  0  0
 22 21  1  0  0  0  0
 23 22  1  0  0  0  0
 24 23  2  0  0  0  0
 24 29  1  0  0  0  0
 25 24  1  0  0  0  0
 26 25  1  0  0  0  0
 27 26  1  0  0  0  0
 30 27  1  0  0  0  0
 28 33  1  0  0  0  0
 29 28  2  0  0  0  0
 30 29  1  0  0  0  0
 31 30  2  0  0  0  0
 32 31  1  0  0  0  0
 33 32  2  0  0  0  0
 11 34  1  0  0  0  0
  4 13  1  0  0  0  0
 34 35  1  0  0  0  0
M  END
>  <cdx:fragmentId>
5

$$$$
