93645.cdx
  Mrv1902 05222410272D          

 33 38  0  0  0  0            999 V2000
    3.1881   -6.2563    0.0000 C   0  0  0  0  0  0  0  0  0  0  0  0
    3.1881   -7.0812    0.0000 C   0  0  0  0  0  0  0  0  0  0  0  0
    3.9025   -7.4937    0.0000 C   0  0  0  0  0  0  0  0  0  0  0  0
    4.6170   -7.0812    0.0000 C   0  0  0  0  0  0  0  0  0  0  0  0
    4.6170   -6.2563    0.0000 C   0  0  0  0  0  0  0  0  0  0  0  0
    3.9025   -5.8438    0.0000 C   0  0  0  0  0  0  0  0  0  0  0  0
    5.3315   -7.4937    0.0000 N   0  0  0  0  0  0  0  0  0  0  0  0
    6.0459   -7.0812    0.0000 C   0  0  2  0  0  0  0  0  0  0  0  0
    6.0459   -6.2563    0.0000 C   0  0  1  0  0  0  0  0  0  0  0  0
    6.7604   -7.4937    0.0000 C   0  0  1  0  0  0  0  0  0  0  0  0
    7.4749   -7.0812    0.0000 C   0  0  1  0  0  0  0  0  0  0  0  0
    7.4749   -6.2563    0.0000 C   0  0  0  0  0  0  0  0  0  0  0  0
    6.7604   -5.8438    0.0000 C   0  0  2  0  0  0  0  0  0  0  0  0
    5.3315   -8.3187    0.0000 C   0  0  0  0  0  0  0  0  0  0  0  0
    6.0459   -8.7313    0.0000 C   0  0  0  0  0  0  0  0  0  0  0  0
    6.7604   -8.3187    0.0000 C   0  0  2  0  0  0  0  0  0  0  0  0
    5.3315   -5.8438    0.0000 C   0  0  0  0  0  0  0  0  0  0  0  0
    5.3315   -5.0187    0.0000 C   0  0  0  0  0  0  0  0  0  0  0  0
    6.7604   -5.0187    0.0000 N   0  3  0  0  0  0  0  0  0  0  0  0
    4.6170   -8.7313    0.0000 O   0  0  0  0  0  0  0  0  0  0  0  0
    7.1729   -9.0332    0.0000 O   0  0  0  0  0  0  0  0  0  0  0  0
    7.7917   -9.0195    0.0000 C   0  0  0  0  0  0  0  0  0  0  0  0
    8.2042   -8.3050    0.0000 C   0  0  0  0  0  0  0  0  0  0  0  0
    8.1894   -7.4937    0.0000 C   0  0  0  0  0  0  0  0  0  0  0  0
    6.7604   -4.1937    0.0000 C   0  0  0  0  0  0  0  0  0  0  0  0
    8.1904   -5.0325    0.0000 C   0  0  0  0  0  0  0  0  0  0  0  0
    5.3315   -6.6688    0.0000 H   0  0  0  0  0  0  0  0  0  0  0  0
    6.0459   -5.4313    0.0000 H   0  0  0  0  0  0  0  0  0  0  0  0
    6.3479   -6.7793    0.0000 H   0  0  0  0  0  0  0  0  0  0  0  0
    6.8915   -6.4979    0.0000 H   0  0  0  0  0  0  0  0  0  0  0  0
    6.3479   -9.0332    0.0000 H   0  0  0  0  0  0  0  0  0  0  0  0
    6.0459   -3.7813    0.0000 Cl  0  0  0  0  0  0  0  0  0  0  0  0
    9.3200   -6.5546    0.0000 Cl  0  5  0  0  0  0  0  0  0  0  0  0
  1  2  2  0  0  0  0
  2  3  1  0  0  0  0
  3  4  2  0  0  0  0
  4  5  1  0  0  0  0
  5  6  2  0  0  0  0
  6  1  1  0  0  0  0
  4  7  1  0  0  0  0
  7  8  1  0  0  0  0
  8  9  1  0  0  0  0
  8 10  1  0  0  0  0
 10 11  1  0  0  0  0
 11 12  1  0  0  0  0
 12 13  1  0  0  0  0
 13  9  1  0  0  0  0
  7 14  1  0  0  0  0
 14 15  1  0  0  0  0
 15 16  1  0  0  0  0
 16 10  1  0  0  0  0
  5  9  1  0  0  0  0
  9 17  1  1  0  0  0
 17 18  1  0  0  0  0
 13 19  1  0  0  0  0
 18 19  1  0  0  0  0
 14 20  2  0  0  0  0
 16 21  1  0  0  0  0
 21 22  1  0  0  0  0
 22 23  1  0  0  0  0
 11 24  1  0  0  0  0
 24 23  2  0  0  0  0
 19 25  1  0  0  0  0
 19 26  1  0  0  0  0
 26 24  1  0  0  0  0
  8 27  1  1  0  0  0
 13 28  1  6  0  0  0
 10 29  1  6  0  0  0
 11 30  1  6  0  0  0
 16 31  1  6  0  0  0
 25 32  1  0  0  0  0
M  CHG  2  19   1  33  -1
M  END
>  <cdx:fragmentId>
109

$$$$
