93644.cdx
  Mrv1902 05222410272D          

 54 57  0  0  0  0            999 V2000
    4.1643   -7.3297    0.0000 C   0  0  1  0  0  0  0  0  0  0  0  0
    4.1643   -6.5047    0.0000 C   0  0  0  0  0  0  0  0  0  0  0  0
    4.8788   -6.0922    0.0000 C   0  0  0  0  0  0  0  0  0  0  0  0
    4.8788   -7.7422    0.0000 C   0  0  0  0  0  0  0  0  0  0  0  0
    5.5933   -7.3297    0.0000 C   0  0  2  0  0  0  0  0  0  0  0  0
    6.3077   -7.7422    0.0000 C   0  0  0  0  0  0  0  0  0  0  0  0
    7.0222   -7.3297    0.0000 C   0  0  0  0  0  0  0  0  0  0  0  0
    7.0222   -6.5047    0.0000 C   0  0  0  0  0  0  0  0  0  0  0  0
    7.7367   -6.0922    0.0000 C   0  0  2  0  0  0  0  0  0  0  0  0
    8.5213   -6.3471    0.0000 C   0  0  0  0  0  0  0  0  0  0  0  0
    9.0062   -5.6797    0.0000 C   0  0  0  0  0  0  0  0  0  0  0  0
    8.5213   -5.0122    0.0000 C   0  0  2  0  0  0  0  0  0  0  0  0
    8.7762   -4.2276    0.0000 C   0  0  1  0  0  0  0  0  0  0  0  0
    9.5832   -4.0561    0.0000 C   0  0  0  0  0  0  0  0  0  0  0  0
    9.8382   -3.2715    0.0000 C   0  0  0  0  0  0  0  0  0  0  0  0
   10.3480   -1.7022    0.0000 C   0  0  0  0  0  0  0  0  0  0  0  0
    8.2242   -3.6145    0.0000 C   0  0  0  0  0  0  0  0  0  0  0  0
    7.7367   -5.2672    0.0000 C   0  0  2  0  0  0  0  0  0  0  0  0
    7.7367   -4.4422    0.0000 C   0  0  0  0  0  0  0  0  0  0  0  0
    7.0222   -4.8547    0.0000 C   0  0  0  0  0  0  0  0  0  0  0  0
    6.3077   -5.2672    0.0000 C   0  0  0  0  0  0  0  0  0  0  0  0
    6.3077   -6.0922    0.0000 C   0  0  2  0  0  0  0  0  0  0  0  0
    5.5933   -6.5047    0.0000 C   0  0  1  0  0  0  0  0  0  0  0  0
    5.5933   -5.6797    0.0000 C   0  0  0  0  0  0  0  0  0  0  0  0
    3.4499   -7.7422    0.0000 O   0  0  0  0  0  0  0  0  0  0  0  0
    6.3077   -6.9172    0.0000 H   0  0  0  0  0  0  0  0  0  0  0  0
   11.7070   -2.1438    0.0000 C   0  0  0  0  0  0  0  0  0  0  0  0
   10.9001   -2.3153    0.0000 C   0  0  0  0  0  0  0  0  0  0  0  0
   12.0041   -3.5415    0.0000 C   0  0  0  0  0  0  0  0  0  0  0  0
   11.1972   -3.7130    0.0000 C   0  0  0  0  0  0  0  0  0  0  0  0
   10.6451   -3.0999    0.0000 C   0  0  2  0  0  0  0  0  0  0  0  0
    5.5933   -8.1547    0.0000 H   0  0  0  0  0  0  0  0  0  0  0  0
    9.3182   -4.7987    0.0000 H   0  0  0  0  0  0  0  0  0  0  0  0
    7.7367   -6.9172    0.0000 H   0  0  0  0  0  0  0  0  0  0  0  0
    3.4499   -8.5672    0.0000 C   0  0  0  0  0  0  0  0  0  0  0  0
    2.7354   -8.9797    0.0000 O   0  0  0  0  0  0  0  0  0  0  0  0
    4.1643   -8.9797    0.0000 C   0  0  0  0  0  0  0  0  0  0  0  0
    4.1643   -9.8047    0.0000 C   0  0  0  0  0  0  0  0  0  0  0  0
    4.8788  -10.2172    0.0000 C   0  0  0  0  0  0  0  0  0  0  0  0
    4.8788  -11.0422    0.0000 C   0  0  0  0  0  0  0  0  0  0  0  0
    5.5933  -11.4547    0.0000 C   0  0  0  0  0  0  0  0  0  0  0  0
    5.5933  -12.2797    0.0000 C   0  0  0  0  0  0  0  0  0  0  0  0
    6.3077  -12.6922    0.0000 C   0  0  0  0  0  0  0  0  0  0  0  0
    6.3077  -13.5172    0.0000 C   0  0  0  0  0  0  0  0  0  0  0  0
    7.0222  -13.9297    0.0000 C   0  0  0  0  0  0  0  0  0  0  0  0
    7.0222  -14.7547    0.0000 C   0  0  0  0  0  0  0  0  0  0  0  0
    7.7367  -15.1672    0.0000 C   0  0  0  0  0  0  0  0  0  0  0  0
    7.7367  -15.9922    0.0000 C   0  0  0  0  0  0  0  0  0  0  0  0
    8.4512  -16.4047    0.0000 C   0  0  0  0  0  0  0  0  0  0  0  0
    8.4512  -17.2297    0.0000 C   0  0  0  0  0  0  0  0  0  0  0  0
    9.1656  -17.6422    0.0000 C   0  0  0  0  0  0  0  0  0  0  0  0
    9.1656  -18.4672    0.0000 C   0  0  0  0  0  0  0  0  0  0  0  0
    9.8801  -18.8797    0.0000 C   0  0  0  0  0  0  0  0  0  0  0  0
    9.8801  -19.7047    0.0000 C   0  0  0  0  0  0  0  0  0  0  0  0
 28 16  2  0  0  0  0
 28 27  1  0  0  0  0
 31 28  1  0  0  0  0
 30 29  1  0  0  0  0
 31 30  1  6  0  0  0
  1  2  1  0  0  0  0
  2  3  1  0  0  0  0
  1  4  1  0  0  0  0
  4  5  1  0  0  0  0
  5  6  1  0  0  0  0
  6  7  1  0  0  0  0
  7  8  2  0  0  0  0
  8  9  1  0  0  0  0
  9 10  1  0  0  0  0
 10 11  1  0  0  0  0
 11 12  1  0  0  0  0
 12 13  1  0  0  0  0
 13 14  1  0  0  0  0
 14 15  2  0  0  0  0
 31 15  1  0  0  0  0
 13 17  1  6  0  0  0
 12 18  1  0  0  0  0
  9 18  1  0  0  0  0
 18 19  1  1  0  0  0
 18 20  1  0  0  0  0
 20 21  1  0  0  0  0
 21 22  1  0  0  0  0
  8 22  1  0  0  0  0
 22 23  1  0  0  0  0
  3 23  1  0  0  0  0
  5 23  1  0  0  0  0
 23 24  1  1  0  0  0
  1 25  1  1  0  0  0
 22 26  1  6  0  0  0
  5 32  1  6  0  0  0
 12 33  1  6  0  0  0
  9 34  1  6  0  0  0
 25 35  1  0  0  0  0
 35 36  2  0  0  0  0
 35 37  1  0  0  0  0
 37 38  1  0  0  0  0
 38 39  1  0  0  0  0
 39 40  1  0  0  0  0
 40 41  1  0  0  0  0
 41 42  1  0  0  0  0
 42 43  1  0  0  0  0
 43 44  1  0  0  0  0
 44 45  1  0  0  0  0
 45 46  1  0  0  0  0
 46 47  1  0  0  0  0
 47 48  1  0  0  0  0
 48 49  1  0  0  0  0
 49 50  1  0  0  0  0
 50 51  1  0  0  0  0
 51 52  1  0  0  0  0
 52 53  1  0  0  0  0
 53 54  1  0  0  0  0
M  END
>  <cdx:fragmentId>
5

$$$$
