93640.cdx
  Mrv1902 05222410272D          

 58 63  0  0  0  0            999 V2000
    4.2835   -7.2714    0.0000 O   0  0  0  0  0  0  0  0  0  0  0  0
    5.7138   -6.4487    0.0000 O   0  0  0  0  0  0  0  0  0  0  0  0
    2.8586   -4.7941    0.0000 C   0  0  0  0  0  0  0  0  0  0  0  0
    2.1434   -5.2054    0.0000 O   0  0  0  0  0  0  0  0  0  0  0  0
    2.8559   -6.4441    0.0000 O   0  0  0  0  0  0  0  0  0  0  0  0
    5.7165   -4.7988    0.0000 O   0  0  0  0  0  0  0  0  0  0  0  0
    6.4309   -6.0362    0.0000 C   0  0  0  0  0  0  0  0  0  0  0  0
    6.4309   -5.2113    0.0000 C   0  0  0  0  0  0  0  0  0  0  0  0
    7.1454   -6.4487    0.0000 C   0  0  0  0  0  0  0  0  0  0  0  0
    7.8599   -6.0362    0.0000 C   0  0  0  0  0  0  0  0  0  0  0  0
    7.8599   -5.2113    0.0000 C   0  0  0  0  0  0  0  0  0  0  0  0
    7.1454   -4.7988    0.0000 C   0  0  0  0  0  0  0  0  0  0  0  0
    8.5744   -6.4487    0.0000 C   0  0  0  0  0  0  0  0  0  0  0  0
    9.2888   -6.0362    0.0000 C   0  0  0  0  0  0  0  0  0  0  0  0
    9.2888   -5.2113    0.0000 C   0  0  0  0  0  0  0  0  0  0  0  0
    8.5744   -4.7988    0.0000 O   0  0  0  0  0  0  0  0  0  0  0  0
    5.0000   -6.0351    0.0000 C   0  0  1  0  0  0  0  0  0  0  0  0
    5.0013   -5.2101    0.0000 C   0  0  1  0  0  0  0  0  0  0  0  0
    9.9543   -9.7484    0.0000 O   0  0  0  0  0  0  0  0  0  0  0  0
   10.7178   -5.2113    0.0000 C   0  0  0  0  0  0  0  0  0  0  0  0
   10.0033   -4.7988    0.0000 C   0  0  0  0  0  0  0  0  0  0  0  0
   11.4322   -4.7988    0.0000 C   0  0  0  0  0  0  0  0  0  0  0  0
   11.4322   -3.9738    0.0000 C   0  0  0  0  0  0  0  0  0  0  0  0
   10.7178   -3.5612    0.0000 C   0  0  0  0  0  0  0  0  0  0  0  0
   10.0033   -3.9738    0.0000 C   0  0  0  0  0  0  0  0  0  0  0  0
    7.1454   -7.2738    0.0000 O   0  0  0  0  0  0  0  0  0  0  0  0
    8.5744   -7.2738    0.0000 O   0  0  0  0  0  0  0  0  0  0  0  0
   12.1467   -3.5612    0.0000 O   0  0  0  0  0  0  0  0  0  0  0  0
    4.2875   -4.7964    0.0000 O   0  0  0  0  0  0  0  0  0  0  0  0
    3.5724   -5.2078    0.0000 C   0  0  1  0  0  0  0  0  0  0  0  0
    3.5710   -6.0328    0.0000 C   0  0  2  0  0  0  0  0  0  0  0  0
    4.2848   -6.4464    0.0000 C   0  0  2  0  0  0  0  0  0  0  0  0
    9.2337  -10.1502    0.0000 C   0  0  2  0  0  0  0  0  0  0  0  0
    8.5255   -9.7272    0.0000 O   0  0  0  0  0  0  0  0  0  0  0  0
    7.8049  -10.1290    0.0000 C   0  0  1  0  0  0  0  0  0  0  0  0
    7.7927  -10.9539    0.0000 C   0  0  2  0  0  0  0  0  0  0  0  0
    8.5010  -11.3770    0.0000 C   0  0  1  0  0  0  0  0  0  0  0  0
    9.2215  -10.9751    0.0000 C   0  0  1  0  0  0  0  0  0  0  0  0
    7.0967   -9.7059    0.0000 C   0  0  0  0  0  0  0  0  0  0  0  0
    8.4887  -12.2019    0.0000 O   0  0  0  0  0  0  0  0  0  0  0  0
    9.9297  -11.3982    0.0000 O   0  0  0  0  0  0  0  0  0  0  0  0
    7.0722  -11.3557    0.0000 O   0  0  0  0  0  0  0  0  0  0  0  0
    6.3762  -10.1078    0.0000 O   0  0  0  0  0  0  0  0  0  0  0  0
    5.6679   -9.6847    0.0000 C   0  0  0  0  0  0  0  0  0  0  0  0
    4.9474  -10.0865    0.0000 C   0  0  0  0  0  0  0  0  0  0  0  0
    5.6802   -8.8598    0.0000 O   0  0  0  0  0  0  0  0  0  0  0  0
    4.9351  -10.9114    0.0000 C   0  0  0  0  0  0  0  0  0  0  0  0
    4.2391   -9.6634    0.0000 C   0  0  0  0  0  0  0  0  0  0  0  0
    8.5377   -8.9022    0.0000 C   0  0  0  0  0  0  0  0  0  0  0  0
   11.3953   -8.9447    0.0000 O   0  0  0  0  0  0  0  0  0  0  0  0
   11.4198   -7.2949    0.0000 O   0  0  0  0  0  0  0  0  0  0  0  0
    9.2705   -7.6755    0.0000 O   0  0  0  0  0  0  0  0  0  0  0  0
    9.2583   -8.5004    0.0000 C   0  0  2  0  0  0  0  0  0  0  0  0
    9.9665   -8.9235    0.0000 C   0  0  1  0  0  0  0  0  0  0  0  0
   10.6870   -8.5216    0.0000 C   0  0  2  0  0  0  0  0  0  0  0  0
   10.6993   -7.6967    0.0000 C   0  0  2  0  0  0  0  0  0  0  0  0
    9.9910   -7.2737    0.0000 C   0  0  2  0  0  0  0  0  0  0  0  0
   10.0033   -6.4487    0.0000 O   0  0  0  0  0  0  0  0  0  0  0  0
 32  1  1  1  0  0  0
 17  2  1  6  0  0  0
 30  3  1  1  0  0  0
  4  3  1  0  0  0  0
 31  5  1  6  0  0  0
 18  6  1  1  0  0  0
 17 32  1  0  0  0  0
  7  8  2  0  0  0  0
  8  6  1  0  0  0  0
 18 17  1  0  0  0  0
  7  9  1  0  0  0  0
  9 10  2  0  0  0  0
 10 11  1  0  0  0  0
 11 12  2  0  0  0  0
 12  8  1  0  0  0  0
 10 13  1  0  0  0  0
 13 14  1  0  0  0  0
 14 15  2  0  0  0  0
 15 16  1  0  0  0  0
 16 11  1  0  0  0  0
 29 18  1  0  0  0  0
 30 29  1  0  0  0  0
 31 30  1  0  0  0  0
 32 31  1  0  0  0  0
 14 58  1  0  0  0  0
 20 21  2  0  0  0  0
 21 15  1  0  0  0  0
 20 22  1  0  0  0  0
 22 23  2  0  0  0  0
 23 24  1  0  0  0  0
 24 25  2  0  0  0  0
 25 21  1  0  0  0  0
  9 26  1  0  0  0  0
 13 27  2  0  0  0  0
 23 28  1  0  0  0  0
 33 19  1  1  0  0  0
 33 34  1  0  0  0  0
 34 35  1  0  0  0  0
 35 36  1  0  0  0  0
 36 37  1  0  0  0  0
 37 38  1  0  0  0  0
 38 33  1  0  0  0  0
 35 39  1  1  0  0  0
 37 40  1  1  0  0  0
 38 41  1  6  0  0  0
 36 42  1  6  0  0  0
 39 43  1  0  0  0  0
 43 44  1  0  0  0  0
 44 45  1  0  0  0  0
 44 46  2  0  0  0  0
 45 47  1  0  0  0  0
 54 19  1  1  0  0  0
 45 48  1  0  0  0  0
 53 49  1  6  0  0  0
 55 50  1  6  0  0  0
 56 51  1  6  0  0  0
 52 57  1  0  0  0  0
 53 52  1  0  0  0  0
 54 53  1  0  0  0  0
 55 54  1  0  0  0  0
 56 55  1  0  0  0  0
 57 56  1  0  0  0  0
 57 58  1  1  0  0  0
M  END
>  <cdx:fragmentId>
5

$$$$
