93650.cdx
  Mrv1902 05222410272D          

 53 60  0  0  0  0            999 V2000
    7.8024  -11.9119    0.0000 H   0  0  0  0  0  0  0  0  0  0  0  0
    9.8083  -10.8396    0.0000 H   0  0  0  0  0  0  0  0  0  0  0  0
   11.6213   -8.4462    0.0000 H   0  0  0  0  0  0  0  0  0  0  0  0
   11.7651   -7.0245    0.0000 H   0  0  0  0  0  0  0  0  0  0  0  0
    9.1828   -8.0667    0.0000 H   0  0  0  0  0  0  0  0  0  0  0  0
    8.9140   -8.3661    0.0000 H   0  0  0  0  0  0  0  0  0  0  0  0
    9.9288   -4.6844    0.0000 C   0  0  0  0  0  0  0  0  0  0  0  0
   12.0351   -7.3554    0.0000 C   0  0  0  0  0  0  0  0  0  0  0  0
    7.7960   -9.4369    0.0000 C   0  0  0  0  0  0  0  0  0  0  0  0
    7.0896  -12.3271    0.0000 O   0  0  0  0  0  0  0  0  0  0  0  0
    5.6574  -11.5077    0.0000 O   0  0  0  0  0  0  0  0  0  0  0  0
   10.2483  -10.4163    0.0000 O   0  0  0  0  0  0  0  0  0  0  0  0
   10.9952  -10.5373    0.0000 O   0  0  0  0  0  0  0  0  0  0  0  0
   11.9598   -9.1986    0.0000 O   0  0  0  0  0  0  0  0  0  0  0  0
   11.9973   -8.1064    0.0000 O   0  0  0  0  0  0  0  0  0  0  0  0
    8.6772   -9.0389    0.0000 C   0  0  0  0  0  0  0  0  0  0  0  0
    8.5088   -9.8466    0.0000 C   0  0  2  0  0  0  0  0  0  0  0  0
    7.2866  -10.2348    0.0000 O   0  0  0  0  0  0  0  0  0  0  0  0
    7.0863  -11.5022    0.0000 C   0  0  1  0  0  0  0  0  0  0  0  0
    6.3703  -11.0924    0.0000 C   0  0  2  0  0  0  0  0  0  0  0  0
    6.3671  -10.2675    0.0000 C   0  0  0  0  0  0  0  0  0  0  0  0
    7.0799   -9.8522    0.0000 C   0  0  0  0  0  0  0  0  0  0  0  0
    7.7960  -10.2619    0.0000 C   0  0  2  0  0  0  0  0  0  0  0  0
    7.7992  -11.0869    0.0000 C   0  0  2  0  0  0  0  0  0  0  0  0
    8.5153  -11.4966    0.0000 C   0  0  0  0  0  0  0  0  0  0  0  0
    9.2281  -11.0813    0.0000 C   0  0  0  0  0  0  0  0  0  0  0  0
    9.2249  -10.2563    0.0000 C   0  0  1  0  0  0  0  0  0  0  0  0
    9.8358   -9.7019    0.0000 C   0  0  1  0  0  0  0  0  0  0  0  0
   10.6567   -9.7849    0.0000 C   0  0  2  0  0  0  0  0  0  0  0  0
   11.1390   -9.1156    0.0000 C   0  0  1  0  0  0  0  0  0  0  0  0
   10.8005   -8.3632    0.0000 C   0  0  2  0  0  0  0  0  0  0  0  0
   11.2828   -7.6939    0.0000 C   0  0  2  0  0  0  0  0  0  0  0  0
   10.9443   -6.9415    0.0000 C   0  0  2  0  0  0  0  0  0  0  0  0
   11.4266   -6.2722    0.0000 C   0  0  0  0  0  0  0  0  0  0  0  0
   11.0881   -5.5198    0.0000 C   0  0  0  0  0  0  0  0  0  0  0  0
   10.2673   -5.4368    0.0000 C   0  0  1  0  0  0  0  0  0  0  0  0
    9.7850   -6.1061    0.0000 C   0  0  0  0  0  0  0  0  0  0  0  0
   10.1235   -6.8585    0.0000 N   0  0  0  0  0  0  0  0  0  0  0  0
    9.6412   -7.5278    0.0000 C   0  0  0  0  0  0  0  0  0  0  0  0
    9.9797   -8.2802    0.0000 C   0  0  1  0  0  0  0  0  0  0  0  0
    9.4973   -8.9495    0.0000 C   0  0  2  0  0  0  0  0  0  0  0  0
    4.9413  -11.0980    0.0000 C   0  0  0  0  0  0  0  0  0  0  0  0
    4.2285  -11.5133    0.0000 C   0  0  0  0  0  0  0  0  0  0  0  0
    4.9381  -10.2730    0.0000 O   0  0  0  0  0  0  0  0  0  0  0  0
    3.5108  -11.1064    0.0000 C   0  0  0  0  0  0  0  0  0  0  0  0
    2.7996  -11.5133    0.0000 C   0  0  0  0  0  0  0  0  0  0  0  0
    2.7996  -12.3383    0.0000 C   0  0  0  0  0  0  0  0  0  0  0  0
    3.5108  -12.7452    0.0000 C   0  0  0  0  0  0  0  0  0  0  0  0
    4.2285  -12.3383    0.0000 C   0  0  0  0  0  0  0  0  0  0  0  0
    2.0859  -12.7522    0.0000 O   0  0  0  0  0  0  0  0  0  0  0  0
    2.0859  -11.0994    0.0000 O   0  0  0  0  0  0  0  0  0  0  0  0
    1.3707  -12.3411    0.0000 C   0  0  0  0  0  0  0  0  0  0  0  0
    1.3707  -11.5105    0.0000 C   0  0  0  0  0  0  0  0  0  0  0  0
 24  1  1  1  0  0  0
 27  2  1  1  0  0  0
 31  3  1  6  0  0  0
 33  4  1  6  0  0  0
 40  5  1  1  0  0  0
 41  6  1  6  0  0  0
 36  7  1  1  0  0  0
 32  8  1  6  0  0  0
 23  9  1  1  0  0  0
 19 10  1  6  0  0  0
 20 11  1  1  0  0  0
 28 12  1  6  0  0  0
 29 13  1  6  0  0  0
 30 14  1  1  0  0  0
 32 15  1  1  0  0  0
 38 33  1  0  0  0  0
 40 31  1  0  0  0  0
 24 19  1  0  0  0  0
 27 17  1  0  0  0  0
 23 17  1  0  0  0  0
 41 28  1  0  0  0  0
 41 16  1  0  0  0  0
 17 16  1  1  0  0  0
 17 18  1  0  0  0  0
 19 18  1  0  0  0  0
 20 19  1  0  0  0  0
 21 20  1  0  0  0  0
 22 21  1  0  0  0  0
 23 22  1  0  0  0  0
 24 23  1  0  0  0  0
 25 24  1  0  0  0  0
 26 25  1  0  0  0  0
 27 26  1  0  0  0  0
 28 27  1  0  0  0  0
 29 28  1  0  0  0  0
 30 29  1  0  0  0  0
 31 30  1  0  0  0  0
 32 31  1  0  0  0  0
 33 32  1  0  0  0  0
 34 33  1  0  0  0  0
 35 34  1  0  0  0  0
 36 35  1  0  0  0  0
 37 36  1  0  0  0  0
 38 37  1  0  0  0  0
 39 38  1  0  0  0  0
 40 39  1  0  0  0  0
 41 40  1  0  0  0  0
 11 42  1  0  0  0  0
 42 43  1  0  0  0  0
 42 44  2  0  0  0  0
 43 45  2  0  0  0  0
 45 46  1  0  0  0  0
 46 47  2  0  0  0  0
 47 48  1  0  0  0  0
 48 49  2  0  0  0  0
 49 43  1  0  0  0  0
 47 50  1  0  0  0  0
 46 51  1  0  0  0  0
 50 52  1  0  0  0  0
 51 53  1  0  0  0  0
M  END
>  <cdx:groupId>
13730

>  <cdx:fragmentId>
13604

$$$$
