936592.cdx
  Mrv1902 05222410272D          

 21 20  0  0  0  0            999 V2000
    8.6564   -8.9974    0.0000 C   0  0  0  0  0  0  0  0  0  0  0  0
    7.9419   -9.4099    0.0000 C   0  0  0  0  0  0  0  0  0  0  0  0
    7.2274   -8.9974    0.0000 C   0  0  0  0  0  0  0  0  0  0  0  0
    6.5130   -9.4099    0.0000 C   0  0  0  0  0  0  0  0  0  0  0  0
    5.7985   -8.9974    0.0000 C   0  0  0  0  0  0  0  0  0  0  0  0
    5.0840   -9.4099    0.0000 C   0  0  0  0  0  0  0  0  0  0  0  0
    4.3696   -8.9974    0.0000 C   0  0  0  0  0  0  0  0  0  0  0  0
    3.6551   -9.4099    0.0000 C   0  0  0  0  0  0  0  0  0  0  0  0
    1.5117   -5.6974    0.0000 C   0  0  0  0  0  0  0  0  0  0  0  0
    8.6564   -8.1724    0.0000 O   0  0  0  0  0  0  0  0  0  0  0  0
    9.3709   -9.4099    0.0000 N   0  0  0  0  0  0  0  0  0  0  0  0
   10.0853   -8.9974    0.0000 C   0  0  0  0  0  0  0  0  0  0  0  0
   10.7998   -9.4099    0.0000 C   0  0  0  0  0  0  0  0  0  0  0  0
   11.5143   -8.9974    0.0000 C   0  0  0  0  0  0  0  0  0  0  0  0
   10.7998  -10.2349    0.0000 C   0  0  0  0  0  0  0  0  0  0  0  0
   11.5143   -9.8224    0.0000 O   0  0  0  0  0  0  0  0  0  0  0  0
    1.5117   -6.5224    0.0000 C   0  0  0  0  0  0  0  0  0  0  0  0
    2.2261   -6.9349    0.0000 C   0  0  0  0  0  0  0  0  0  0  0  0
    2.2261   -7.7599    0.0000 C   0  0  0  0  0  0  0  0  0  0  0  0
    2.9406   -8.1724    0.0000 C   0  0  0  0  0  0  0  0  0  0  0  0
    2.9406   -8.9974    0.0000 C   0  0  0  0  0  0  0  0  0  0  0  0
 17  9  1  0  0  0  0
 18 17  1  0  0  0  0
 19 18  1  0  0  0  0
 20 19  1  0  0  0  0
 21 20  1  0  0  0  0
  1  2  1  0  0  0  0
  2  3  2  0  0  0  0
  3  4  1  0  0  0  0
  4  5  2  0  0  0  0
  5  6  1  0  0  0  0
  6  7  1  0  0  0  0
  7  8  1  0  0  0  0
  8 21  2  0  0  0  0
  1 10  2  0  0  0  0
  1 11  1  0  0  0  0
 12 13  1  0  0  0  0
 13 14  1  0  0  0  0
 13 15  1  0  0  0  0
 13 16  1  0  0  0  0
 11 12  1  0  0  0  0
M  END
>  <cdx:groupId>
101958

>  <cdx:fragmentId>
101899

$$$$
