936600.cdx
  Mrv1902 05222410182D          

 40 43  0  0  0  0            999 V2000
   10.5513   -9.2253    0.0000 C   0  0  0  0  0  0  0  0  0  0  0  0
    9.7443   -9.3968    0.0000 C   0  0  1  0  0  0  0  0  0  0  0  0
   10.8062   -8.4407    0.0000 O   0  0  0  0  0  0  0  0  0  0  0  0
   11.1033   -9.8384    0.0000 O   0  0  0  0  0  0  0  0  0  0  0  0
    8.0882   -7.5575    0.0000 C   0  0  0  0  0  0  0  0  0  0  0  0
    5.8469  -11.2614    0.0000 C   0  0  0  0  0  0  0  0  0  0  0  0
    5.1324  -11.6739    0.0000 C   0  0  0  0  0  0  0  0  0  0  0  0
    5.1324  -12.4989    0.0000 C   0  0  2  0  0  0  0  0  0  0  0  0
    5.8469  -12.9114    0.0000 C   0  0  0  0  0  0  0  0  0  0  0  0
    6.5614  -12.4989    0.0000 C   0  0  2  0  0  0  0  0  0  0  0  0
    7.2758  -12.9114    0.0000 C   0  0  0  0  0  0  0  0  0  0  0  0
    7.9903  -12.4989    0.0000 C   0  0  0  0  0  0  0  0  0  0  0  0
    7.9903  -11.6739    0.0000 C   0  0  0  0  0  0  0  0  0  0  0  0
    8.7048  -11.2614    0.0000 C   0  0  2  0  0  0  0  0  0  0  0  0
    9.4894  -11.5163    0.0000 C   0  0  0  0  0  0  0  0  0  0  0  0
    9.9743  -10.8489    0.0000 C   0  0  2  0  0  0  0  0  0  0  0  0
    9.4894  -10.1814    0.0000 C   0  0  1  0  0  0  0  0  0  0  0  0
    8.7048  -10.4364    0.0000 C   0  0  1  0  0  0  0  0  0  0  0  0
    7.9903  -10.0239    0.0000 C   0  0  0  0  0  0  0  0  0  0  0  0
    7.2758  -10.4364    0.0000 C   0  0  0  0  0  0  0  0  0  0  0  0
    7.2758  -11.2614    0.0000 C   0  0  0  0  0  0  0  0  0  0  0  0
    6.5614  -11.6739    0.0000 C   0  0  1  0  0  0  0  0  0  0  0  0
    8.7048  -12.0864    0.0000 C   0  0  0  0  0  0  0  0  0  0  0  0
    8.7048   -9.6114    0.0000 C   0  0  0  0  0  0  0  0  0  0  0  0
    6.5614  -10.8489    0.0000 C   0  0  0  0  0  0  0  0  0  0  0  0
    6.2594  -13.6258    0.0000 C   0  0  0  0  0  0  0  0  0  0  0  0
    5.4344  -13.6258    0.0000 C   0  0  0  0  0  0  0  0  0  0  0  0
   10.7993  -10.8489    0.0000 O   0  0  0  0  0  0  0  0  0  0  0  0
    4.4179  -12.9114    0.0000 O   0  0  0  0  0  0  0  0  0  0  0  0
    3.7035  -12.4989    0.0000 C   0  0  0  0  0  0  0  0  0  0  0  0
    3.7035  -11.6739    0.0000 O   0  0  0  0  0  0  0  0  0  0  0  0
    2.9890  -12.9114    0.0000 C   0  0  0  0  0  0  0  0  0  0  0  0
    6.5614  -13.3239    0.0000 H   0  0  0  0  0  0  0  0  0  0  0  0
    8.5981   -5.9883    0.0000 C   0  0  0  0  0  0  0  0  0  0  0  0
    9.9571   -6.4299    0.0000 C   0  0  0  0  0  0  0  0  0  0  0  0
    9.1501   -6.6014    0.0000 C   0  0  0  0  0  0  0  0  0  0  0  0
    8.8952   -7.3860    0.0000 C   0  0  0  0  0  0  0  0  0  0  0  0
    9.4472   -7.9991    0.0000 C   0  0  0  0  0  0  0  0  0  0  0  0
    9.1923   -8.7837    0.0000 C   0  0  0  0  0  0  0  0  0  0  0  0
   10.2740   -9.9265    0.0000 H   0  0  0  0  0  0  0  0  0  0  0  0
 37  5  1  0  0  0  0
 36 34  1  0  0  0  0
 36 35  2  0  0  0  0
 37 36  1  0  0  0  0
 38 37  1  0  0  0  0
 39 38  1  0  0  0  0
  1  2  1  0  0  0  0
  2 39  1  1  0  0  0
  1  3  2  0  0  0  0
  1  4  1  0  0  0  0
  6  7  1  0  0  0  0
  7  8  1  0  0  0  0
  8  9  1  0  0  0  0
  9 10  1  0  0  0  0
 10 11  1  0  0  0  0
 11 12  1  0  0  0  0
 12 13  1  0  0  0  0
 13 14  1  0  0  0  0
 14 15  1  0  0  0  0
 15 16  1  0  0  0  0
 17 16  1  0  0  0  0
 17 18  1  0  0  0  0
 14 18  1  0  0  0  0
 18 19  1  0  0  0  0
 19 20  1  0  0  0  0
 20 21  1  0  0  0  0
 13 21  2  0  0  0  0
 21 22  1  0  0  0  0
 10 22  1  0  0  0  0
  6 22  1  0  0  0  0
 14 23  1  6  0  0  0
 18 24  1  1  0  0  0
 22 25  1  1  0  0  0
  9 26  1  0  0  0  0
  9 27  1  0  0  0  0
 16 28  1  6  0  0  0
 30 31  2  0  0  0  0
 30 32  1  0  0  0  0
 29 30  1  0  0  0  0
  8 29  1  6  0  0  0
  2 17  1  0  0  0  0
 10 33  1  6  0  0  0
 17 40  1  6  0  0  0
M  END
>  <cdx:fragmentId>
1506

$$$$
