93668.cdx
  Mrv1902 05222410272D          

 57 62  0  0  0  0            999 V2000
    2.7893   -8.5663    0.0000 C   0  0  2  0  0  0  0  0  0  0  0  0
    2.7893   -9.3913    0.0000 C   0  0  2  0  0  0  0  0  0  0  0  0
    3.5038   -9.8038    0.0000 C   0  0  1  0  0  0  0  0  0  0  0  0
    4.2182   -9.3913    0.0000 C   0  0  2  0  0  0  0  0  0  0  0  0
    4.2182   -8.5663    0.0000 C   0  0  1  0  0  0  0  0  0  0  0  0
    3.5038   -8.1538    0.0000 O   0  0  0  0  0  0  0  0  0  0  0  0
    2.0748   -8.1538    0.0000 C   0  0  0  0  0  0  0  0  0  0  0  0
    1.3604   -8.5663    0.0000 O   0  0  0  0  0  0  0  0  0  0  0  0
    2.0748   -9.8037    0.0000 O   0  0  0  0  0  0  0  0  0  0  0  0
    4.9327   -9.8038    0.0000 O   0  0  0  0  0  0  0  0  0  0  0  0
    5.6472   -9.3913    0.0000 O   0  0  0  0  0  0  0  0  0  0  0  0
    5.6472   -8.5663    0.0000 C   0  0  0  0  0  0  0  0  0  0  0  0
    4.9327   -8.1538    0.0000 C   0  0  0  0  0  0  0  0  0  0  0  0
    6.3617   -8.1538    0.0000 C   0  0  0  0  0  0  0  0  0  0  0  0
    6.3617   -7.3287    0.0000 C   0  0  0  0  0  0  0  0  0  0  0  0
    5.6472   -6.9162    0.0000 C   0  0  0  0  0  0  0  0  0  0  0  0
    4.9327   -7.3287    0.0000 C   0  0  0  0  0  0  0  0  0  0  0  0
    7.0761   -8.5663    0.0000 C   0  0  0  0  0  0  0  0  0  0  0  0
    7.7906   -8.1538    0.0000 C   0  0  0  0  0  0  0  0  0  0  0  0
    7.7906   -7.3287    0.0000 C   0  0  0  0  0  0  0  0  0  0  0  0
    7.0761   -6.9162    0.0000 O   0  0  0  0  0  0  0  0  0  0  0  0
    9.2195   -7.3287    0.0000 C   0  0  0  0  0  0  0  0  0  0  0  0
    8.5051   -6.9162    0.0000 C   0  0  0  0  0  0  0  0  0  0  0  0
    9.9340   -6.9162    0.0000 C   0  0  0  0  0  0  0  0  0  0  0  0
    9.9340   -6.0912    0.0000 C   0  0  0  0  0  0  0  0  0  0  0  0
    9.2195   -5.6788    0.0000 C   0  0  0  0  0  0  0  0  0  0  0  0
    8.5051   -6.0912    0.0000 C   0  0  0  0  0  0  0  0  0  0  0  0
   10.6485   -5.6788    0.0000 O   0  0  0  0  0  0  0  0  0  0  0  0
    7.0761   -9.3913    0.0000 O   0  0  0  0  0  0  0  0  0  0  0  0
    4.2182   -6.9162    0.0000 O   0  0  0  0  0  0  0  0  0  0  0  0
    3.5038   -7.3287    0.0000 C   0  0  0  0  0  0  0  0  0  0  0  0
    3.5038  -10.6288    0.0000 O   0  0  0  0  0  0  0  0  0  0  0  0
   12.0799   -7.3105    0.0000 C   0  0  2  0  0  0  0  0  0  0  0  0
   12.7933   -6.8962    0.0000 C   0  0  2  0  0  0  0  0  0  0  0  0
   12.7911   -6.0712    0.0000 C   0  0  1  0  0  0  0  0  0  0  0  0
   12.0756   -5.6605    0.0000 C   0  0  2  0  0  0  0  0  0  0  0  0
   11.3622   -6.0749    0.0000 C   0  0  1  0  0  0  0  0  0  0  0  0
   11.3644   -6.8999    0.0000 O   0  0  0  0  0  0  0  0  0  0  0  0
   12.0821   -8.1355    0.0000 C   0  0  0  0  0  0  0  0  0  0  0  0
   13.5045   -5.6568    0.0000 O   0  0  0  0  0  0  0  0  0  0  0  0
   13.5088   -7.3068    0.0000 O   0  0  0  0  0  0  0  0  0  0  0  0
   12.0734   -4.8355    0.0000 O   0  0  0  0  0  0  0  0  0  0  0  0
   12.7976   -8.5462    0.0000 O   0  0  0  0  0  0  0  0  0  0  0  0
    7.8536  -11.9219    0.0000 O   0  0  0  0  0  0  0  0  0  0  0  0
    7.8716  -13.3508    0.0000 C   0  0  0  0  0  0  0  0  0  0  0  0
    7.4502  -12.6415    0.0000 C   0  0  0  0  0  0  0  0  0  0  0  0
    6.5893   -9.7943    0.0000 O   0  0  0  0  0  0  0  0  0  0  0  0
    6.6252  -12.6519    0.0000 O   0  0  0  0  0  0  0  0  0  0  0  0
    7.4322  -11.2127    0.0000 O   0  0  0  0  0  0  0  0  0  0  0  0
    4.9754  -12.6727    0.0000 C   0  0  0  0  0  0  0  0  0  0  0  0
    6.6073  -11.2231    0.0000 C   0  0  1  0  0  0  0  0  0  0  0  0
    6.1858  -10.5139    0.0000 C   0  0  2  0  0  0  0  0  0  0  0  0
    5.3609  -10.5242    0.0000 C   0  0  1  0  0  0  0  0  0  0  0  0
    4.9574  -11.2438    0.0000 O   0  0  0  0  0  0  0  0  0  0  0  0
    5.3788  -11.9531    0.0000 C   0  0  2  0  0  0  0  0  0  0  0  0
    6.2038  -11.9427    0.0000 C   0  0  2  0  0  0  0  0  0  0  0  0
    4.2182   -7.7413    0.0000 H   0  0  0  0  0  0  0  0  0  0  0  0
  1  2  1  0  0  0  0
  2  3  1  0  0  0  0
  3  4  1  0  0  0  0
  4  5  1  0  0  0  0
  5  6  1  0  0  0  0
  6  1  1  0  0  0  0
  1  7  1  1  0  0  0
  7  8  1  0  0  0  0
  2  9  1  6  0  0  0
  4 10  1  6  0  0  0
 11 12  1  0  0  0  0
 12 13  2  0  0  0  0
 13  5  1  0  0  0  0
 12 14  1  0  0  0  0
 14 15  2  0  0  0  0
 15 16  1  0  0  0  0
 16 17  2  0  0  0  0
 17 13  1  0  0  0  0
 14 18  1  0  0  0  0
 18 19  1  0  0  0  0
 19 20  2  0  0  0  0
 20 21  1  0  0  0  0
 21 15  1  0  0  0  0
 22 23  2  0  0  0  0
 23 20  1  0  0  0  0
 22 24  1  0  0  0  0
 24 25  2  0  0  0  0
 25 26  1  0  0  0  0
 26 27  2  0  0  0  0
 27 23  1  0  0  0  0
 25 28  1  0  0  0  0
 18 29  2  0  0  0  0
 17 30  1  0  0  0  0
 30 31  1  0  0  0  0
  3 32  1  1  0  0  0
 33 34  1  0  0  0  0
 34 35  1  0  0  0  0
 35 36  1  0  0  0  0
 36 37  1  0  0  0  0
 37 38  1  0  0  0  0
 38 33  1  0  0  0  0
 33 39  1  1  0  0  0
 35 40  1  1  0  0  0
 34 41  1  6  0  0  0
 36 42  1  6  0  0  0
 39 43  1  0  0  0  0
 37 28  1  1  0  0  0
 46 44  2  0  0  0  0
 46 45  1  0  0  0  0
 48 46  1  0  0  0  0
 52 47  1  6  0  0  0
 56 48  1  1  0  0  0
 51 49  1  6  0  0  0
 55 50  1  6  0  0  0
 51 56  1  0  0  0  0
 52 51  1  0  0  0  0
 53 52  1  0  0  0  0
 54 53  1  0  0  0  0
 55 54  1  0  0  0  0
 56 55  1  0  0  0  0
 53 10  1  1  0  0  0
  5 57  1  6  0  0  0
M  END
>  <cdx:fragmentId>
5

$$$$
