93665.cdx
  Mrv1902 05222410192D          

 26 27  0  0  0  0            999 V2000
    6.8700   -9.8723    0.0000 C   0  0  1  0  0  0  0  0  0  0  0  0
    7.5897  -10.2756    0.0000 C   0  0  1  0  0  0  0  0  0  0  0  0
    8.2988   -9.8540    0.0000 O   0  0  0  0  0  0  0  0  0  0  0  0
    8.2882   -9.0290    0.0000 C   0  0  0  0  0  0  0  0  0  0  0  0
    7.5685   -8.6257    0.0000 C   0  0  0  0  0  0  0  0  0  0  0  0
    6.8594   -9.0473    0.0000 C   0  0  0  0  0  0  0  0  0  0  0  0
    6.0716   -8.8025    0.0000 C   0  0  0  0  0  0  0  0  0  0  0  0
    5.5953   -9.4761    0.0000 C   0  0  1  0  0  0  0  0  0  0  0  0
    6.0887  -10.1372    0.0000 C   0  0  2  0  0  0  0  0  0  0  0  0
    5.5129  -10.7280    0.0000 C   0  0  0  0  0  0  0  0  0  0  0  0
    4.6879  -10.7280    0.0000 Cl  0  0  0  0  0  0  0  0  0  0  0  0
    7.6003  -11.1005    0.0000 O   0  0  0  0  0  0  0  0  0  0  0  0
    8.3305  -12.3288    0.0000 O   0  0  0  0  0  0  0  0  0  0  0  0
    9.0291  -11.0822    0.0000 C   0  0  0  0  0  0  0  0  0  0  0  0
    8.3200  -11.5038    0.0000 C   0  0  0  0  0  0  0  0  0  0  0  0
    7.5580   -7.8008    0.0000 C   0  0  0  0  0  0  0  0  0  0  0  0
    8.2671   -7.3792    0.0000 O   0  0  0  0  0  0  0  0  0  0  0  0
    8.2565   -6.5542    0.0000 C   0  0  0  0  0  0  0  0  0  0  0  0
    8.9656   -6.1326    0.0000 C   0  0  0  0  0  0  0  0  0  0  0  0
    7.5368   -6.1509    0.0000 O   0  0  0  0  0  0  0  0  0  0  0  0
    8.9551   -5.3077    0.0000 C   0  0  0  0  0  0  0  0  0  0  0  0
    9.6642   -4.8860    0.0000 C   0  0  0  0  0  0  0  0  0  0  0  0
    8.2354   -4.9044    0.0000 C   0  0  0  0  0  0  0  0  0  0  0  0
    4.7703   -9.4866    0.0000 O   0  0  0  0  0  0  0  0  0  0  0  0
    6.8700  -10.6973    0.0000 H   0  0  0  0  0  0  0  0  0  0  0  0
    6.3124  -10.9313    0.0000 O   0  0  0  0  0  0  0  0  0  0  0  0
  1  2  1  0  0  0  0
  2  3  1  0  0  0  0
  3  4  1  0  0  0  0
  4  5  2  0  0  0  0
  5  6  1  0  0  0  0
  6  1  1  0  0  0  0
  6  7  2  0  0  0  0
  7  8  1  0  0  0  0
  8  9  1  0  0  0  0
  9  1  1  0  0  0  0
  9 10  1  1  0  0  0
 10 11  1  0  0  0  0
  2 12  1  1  0  0  0
 15 13  2  0  0  0  0
 12 15  1  0  0  0  0
 15 14  1  0  0  0  0
  5 16  1  0  0  0  0
 16 17  1  0  0  0  0
 17 18  1  0  0  0  0
 18 19  1  0  0  0  0
 18 20  2  0  0  0  0
 19 21  1  0  0  0  0
 21 22  1  0  0  0  0
 21 23  1  0  0  0  0
  8 24  1  1  0  0  0
  1 25  1  1  0  0  0
  9 26  1  6  0  0  0
M  END
>  <cdx:fragmentId>
5

$$$$
