93667.cdx
  Mrv1902 05222410202D          

 37 40  0  0  0  0            999 V2000
    4.2606   -8.5525    0.0000 C   0  0  1  0  0  0  0  0  0  0  0  0
    4.2606   -9.3775    0.0000 C   0  0  1  0  0  0  0  0  0  0  0  0
    4.9750   -9.7900    0.0000 C   0  0  1  0  0  0  0  0  0  0  0  0
    5.6895   -9.3775    0.0000 C   0  0  1  0  0  0  0  0  0  0  0  0
    5.6895   -8.5525    0.0000 C   0  0  2  0  0  0  0  0  0  0  0  0
    4.9750   -8.1400    0.0000 C   0  0  0  0  0  0  0  0  0  0  0  0
    6.4040   -9.7900    0.0000 C   0  0  0  0  0  0  0  0  0  0  0  0
    7.1184   -9.3775    0.0000 C   0  0  0  0  0  0  0  0  0  0  0  0
    7.1184   -8.5525    0.0000 C   0  0  2  0  0  0  0  0  0  0  0  0
    6.4040   -8.1400    0.0000 C   0  0  2  0  0  0  0  0  0  0  0  0
    7.8329   -8.1400    0.0000 C   0  0  1  0  0  0  0  0  0  0  0  0
    7.8329   -7.3150    0.0000 C   0  0  0  0  0  0  0  0  0  0  0  0
    7.1184   -6.9025    0.0000 C   0  0  0  0  0  0  0  0  0  0  0  0
    6.4040   -7.3150    0.0000 C   0  0  0  0  0  0  0  0  0  0  0  0
    8.5474   -8.5525    0.0000 C   0  0  0  0  0  0  0  0  0  0  0  0
    9.2619   -8.1400    0.0000 C   0  0  0  0  0  0  0  0  0  0  0  0
    9.2619   -7.3150    0.0000 C   0  0  2  0  0  0  0  0  0  0  0  0
    8.5474   -6.9025    0.0000 C   0  0  0  0  0  0  0  0  0  0  0  0
    9.9763   -6.9025    0.0000 C   0  0  0  0  0  0  0  0  0  0  0  0
    9.9763   -6.0775    0.0000 C   0  0  0  0  0  0  0  0  0  0  0  0
    9.2619   -5.6650    0.0000 C   0  0  1  0  0  0  0  0  0  0  0  0
    9.2619   -4.8400    0.0000 C   0  0  0  0  0  0  0  0  0  0  0  0
    8.5474   -4.4275    0.0000 O   0  0  0  0  0  0  0  0  0  0  0  0
    9.9763   -4.4275    0.0000 C   0  0  0  0  0  0  0  0  0  0  0  0
    3.5461   -9.7900    0.0000 O   0  0  0  0  0  0  0  0  0  0  0  0
    4.5625  -10.5045    0.0000 C   0  0  0  0  0  0  0  0  0  0  0  0
    5.6895   -7.7275    0.0000 C   0  0  0  0  0  0  0  0  0  0  0  0
    7.1184   -7.7275    0.0000 C   0  0  0  0  0  0  0  0  0  0  0  0
    9.9763   -7.7275    0.0000 C   0  0  0  0  0  0  0  0  0  0  0  0
    3.5461   -8.1400    0.0000 O   0  0  0  0  0  0  0  0  0  0  0  0
    5.3875  -10.5045    0.0000 C   0  0  0  0  0  0  0  0  0  0  0  0
    5.6895  -10.2025    0.0000 H   0  0  0  0  0  0  0  0  0  0  0  0
    6.4040   -8.9650    0.0000 H   0  0  0  0  0  0  0  0  0  0  0  0
    7.8329   -8.9650    0.0000 C   0  0  0  0  0  0  0  0  0  0  0  0
    8.5474   -6.0775    0.0000 C   0  0  0  0  0  0  0  0  0  0  0  0
   10.6908   -7.3150    0.0000 O   0  0  0  0  0  0  0  0  0  0  0  0
    9.9763   -8.5525    0.0000 O   0  0  0  0  0  0  0  0  0  0  0  0
  1  2  1  0  0  0  0
  2  3  1  0  0  0  0
  3  4  1  0  0  0  0
  4  5  1  0  0  0  0
  5  6  1  0  0  0  0
  6  1  1  0  0  0  0
  4  7  1  0  0  0  0
  7  8  1  0  0  0  0
  8  9  1  0  0  0  0
  9 10  1  0  0  0  0
 10  5  1  0  0  0  0
  9 11  1  0  0  0  0
 11 12  1  0  0  0  0
 12 13  1  0  0  0  0
 13 14  2  0  0  0  0
 14 10  1  0  0  0  0
 11 15  1  0  0  0  0
 15 16  1  0  0  0  0
 16 17  1  0  0  0  0
 17 18  1  0  0  0  0
 18 12  2  0  0  0  0
 17 19  1  0  0  0  0
 19 20  1  0  0  0  0
 20 21  1  0  0  0  0
 21 22  1  0  0  0  0
 22 23  2  0  0  0  0
 22 24  1  0  0  0  0
  2 25  1  1  0  0  0
  3 26  1  1  0  0  0
  5 27  1  1  0  0  0
  9 28  1  1  0  0  0
 17 29  1  1  0  0  0
  1 30  1  6  0  0  0
  3 31  1  6  0  0  0
  4 32  1  6  0  0  0
 10 33  1  6  0  0  0
 11 34  1  6  0  0  0
 21 35  1  6  0  0  0
 29 36  2  0  0  0  0
 29 37  1  0  0  0  0
M  END
>  <cdx:fragmentId>
5

$$$$
