93666.cdx
  Mrv1902 05222410202D          

 26 28  0  0  0  0            999 V2000
    7.8493   -7.2050    0.0000 C   0  0  1  0  0  0  0  0  0  0  0  0
    7.8493   -8.0300    0.0000 C   0  0  2  0  0  0  0  0  0  0  0  0
    8.5638   -8.4425    0.0000 C   0  0  1  0  0  0  0  0  0  0  0  0
    9.2782   -8.0300    0.0000 O   0  0  0  0  0  0  0  0  0  0  0  0
    9.2782   -7.2050    0.0000 C   0  0  2  0  0  0  0  0  0  0  0  0
    8.5638   -6.7925    0.0000 C   0  0  0  0  0  0  0  0  0  0  0  0
    7.0647   -6.9501    0.0000 C   0  0  0  0  0  0  0  0  0  0  0  0
    6.5798   -7.6175    0.0000 C   0  0  1  0  0  0  0  0  0  0  0  0
    7.0647   -8.2849    0.0000 C   0  0  1  0  0  0  0  0  0  0  0  0
    8.5638   -5.9675    0.0000 C   0  0  0  0  0  0  0  0  0  0  0  0
    6.8097   -9.0696    0.0000 C   0  0  0  0  0  0  0  0  0  0  0  0
    5.9850   -9.0904    0.0000 O   0  0  0  0  0  0  0  0  0  0  0  0
    5.5907   -9.8151    0.0000 C   0  0  0  0  0  0  0  0  0  0  0  0
    6.0212  -10.5189    0.0000 O   0  0  0  0  0  0  0  0  0  0  0  0
    4.8022  -11.2645    0.0000 C   0  0  0  0  0  0  0  0  0  0  0  0
    3.5470  -10.5816    0.0000 C   0  0  0  0  0  0  0  0  0  0  0  0
    4.3717  -10.5607    0.0000 C   0  0  0  0  0  0  0  0  0  0  0  0
    4.7660   -9.8360    0.0000 C   0  0  0  0  0  0  0  0  0  0  0  0
    4.3259   -7.6044    0.0000 C   0  0  0  0  0  0  0  0  0  0  0  0
    5.0517   -6.3735    0.0000 O   0  0  0  0  0  0  0  0  0  0  0  0
    5.0441   -7.1985    0.0000 C   0  0  0  0  0  0  0  0  0  0  0  0
    5.7548   -7.6175    0.0000 O   0  0  0  0  0  0  0  0  0  0  0  0
    7.8493   -6.3800    0.0000 O   0  0  0  0  0  0  0  0  0  0  0  0
    7.8493   -8.8550    0.0000 H   0  0  0  0  0  0  0  0  0  0  0  0
    8.5638   -9.2675    0.0000 O   0  0  0  0  0  0  0  0  0  0  0  0
    7.5350   -7.6175    0.0000 O   0  0  0  0  0  0  0  0  0  0  0  0
  1  2  1  0  0  0  0
  2  3  1  0  0  0  0
  3  4  1  0  0  0  0
  4  5  1  0  0  0  0
  5  6  1  0  0  0  0
  6  1  1  0  0  0  0
  1  7  1  0  0  0  0
  7  8  1  0  0  0  0
  8  9  1  0  0  0  0
  9  2  1  0  0  0  0
  6 10  2  0  0  0  0
  9 11  1  1  0  0  0
 11 12  1  0  0  0  0
 12 13  1  0  0  0  0
 17 15  1  0  0  0  0
 13 18  1  0  0  0  0
 13 14  2  0  0  0  0
 17 16  1  0  0  0  0
 18 17  1  0  0  0  0
 21 19  1  0  0  0  0
  8 22  1  1  0  0  0
 21 20  2  0  0  0  0
 22 21  1  0  0  0  0
  1 23  1  1  0  0  0
  2 24  1  1  0  0  0
  3 25  1  1  0  0  0
  5 26  1  6  0  0  0
  9 26  1  6  0  0  0
M  END
>  <cdx:fragmentId>
5

$$$$
