93664.cdx
  Mrv1902 05222410192D          

 48 53  0  0  0  0            999 V2000
    3.8343   -8.3325    0.0000 C   0  0  0  0  0  0  0  0  0  0  0  0
    3.8343   -9.1575    0.0000 C   0  0  1  0  0  0  0  0  0  0  0  0
    4.5488   -9.5700    0.0000 C   0  0  1  0  0  0  0  0  0  0  0  0
    5.2632   -9.1575    0.0000 C   0  0  1  0  0  0  0  0  0  0  0  0
    5.2632   -8.3325    0.0000 C   0  0  2  0  0  0  0  0  0  0  0  0
    4.5488   -7.9200    0.0000 C   0  0  0  0  0  0  0  0  0  0  0  0
    5.9777   -9.5700    0.0000 C   0  0  0  0  0  0  0  0  0  0  0  0
    6.6922   -9.1575    0.0000 C   0  0  0  0  0  0  0  0  0  0  0  0
    6.6922   -8.3325    0.0000 C   0  0  2  0  0  0  0  0  0  0  0  0
    5.9777   -7.9200    0.0000 C   0  0  2  0  0  0  0  0  0  0  0  0
    7.4067   -7.9200    0.0000 C   0  0  1  0  0  0  0  0  0  0  0  0
    7.4067   -7.0950    0.0000 C   0  0  0  0  0  0  0  0  0  0  0  0
    6.6922   -6.6825    0.0000 C   0  0  0  0  0  0  0  0  0  0  0  0
    5.9777   -7.0950    0.0000 C   0  0  0  0  0  0  0  0  0  0  0  0
    8.1211   -8.3325    0.0000 C   0  0  0  0  0  0  0  0  0  0  0  0
    8.8356   -7.9200    0.0000 C   0  0  0  0  0  0  0  0  0  0  0  0
    8.8356   -7.0950    0.0000 C   0  0  2  0  0  0  0  0  0  0  0  0
    8.1211   -6.6825    0.0000 C   0  0  1  0  0  0  0  0  0  0  0  0
    9.5501   -6.6825    0.0000 C   0  0  0  0  0  0  0  0  0  0  0  0
    9.5501   -5.8575    0.0000 C   0  0  0  0  0  0  0  0  0  0  0  0
    8.8356   -5.4450    0.0000 C   0  0  1  0  0  0  0  0  0  0  0  0
    8.1211   -5.8575    0.0000 C   0  0  0  0  0  0  0  0  0  0  0  0
    3.1198   -9.5700    0.0000 O   0  0  0  0  0  0  0  0  0  0  0  0
    4.1363  -10.2845    0.0000 C   0  0  0  0  0  0  0  0  0  0  0  0
    5.2632   -7.5075    0.0000 C   0  0  0  0  0  0  0  0  0  0  0  0
    6.6922   -7.5075    0.0000 C   0  0  0  0  0  0  0  0  0  0  0  0
    8.4231   -4.7305    0.0000 C   0  0  0  0  0  0  0  0  0  0  0  0
    9.5501   -7.5075    0.0000 C   0  0  0  0  0  0  0  0  0  0  0  0
    4.9613  -10.2845    0.0000 C   0  0  0  0  0  0  0  0  0  0  0  0
    7.4067   -8.7450    0.0000 C   0  0  0  0  0  0  0  0  0  0  0  0
    9.2481   -4.7305    0.0000 C   0  0  0  0  0  0  0  0  0  0  0  0
   10.2645   -7.0950    0.0000 O   0  0  0  0  0  0  0  0  0  0  0  0
    9.5501   -8.3325    0.0000 O   0  0  0  0  0  0  0  0  0  0  0  0
    4.5488  -10.9989    0.0000 O   0  0  0  0  0  0  0  0  0  0  0  0
    9.1376   -9.0470    0.0000 C   0  0  2  0  0  0  0  0  0  0  0  0
    8.3126   -9.0470    0.0000 O   0  0  0  0  0  0  0  0  0  0  0  0
    7.9001   -9.7614    0.0000 C   0  0  1  0  0  0  0  0  0  0  0  0
    8.3126  -10.4759    0.0000 C   0  0  2  0  0  0  0  0  0  0  0  0
    9.1376  -10.4759    0.0000 C   0  0  1  0  0  0  0  0  0  0  0  0
    9.5501   -9.7614    0.0000 C   0  0  1  0  0  0  0  0  0  0  0  0
    7.0751   -9.7614    0.0000 C   0  0  0  0  0  0  0  0  0  0  0  0
    9.5501  -11.1904    0.0000 O   0  0  0  0  0  0  0  0  0  0  0  0
    7.9001  -11.1904    0.0000 O   0  0  0  0  0  0  0  0  0  0  0  0
   10.3751   -9.7614    0.0000 O   0  0  0  0  0  0  0  0  0  0  0  0
    6.6626  -10.4759    0.0000 O   0  0  0  0  0  0  0  0  0  0  0  0
    7.4067   -6.2700    0.0000 H   0  0  0  0  0  0  0  0  0  0  0  0
    5.9777   -8.7450    0.0000 H   0  0  0  0  0  0  0  0  0  0  0  0
    5.2632   -9.9825    0.0000 H   0  0  0  0  0  0  0  0  0  0  0  0
  1  2  1  0  0  0  0
  2  3  1  0  0  0  0
  3  4  1  0  0  0  0
  4  5  1  0  0  0  0
  5  6  1  0  0  0  0
  6  1  1  0  0  0  0
  4  7  1  0  0  0  0
  7  8  1  0  0  0  0
  8  9  1  0  0  0  0
  9 10  1  0  0  0  0
 10  5  1  0  0  0  0
  9 11  1  0  0  0  0
 11 12  1  0  0  0  0
 12 13  2  0  0  0  0
 13 14  1  0  0  0  0
 14 10  1  0  0  0  0
 11 15  1  0  0  0  0
 15 16  1  0  0  0  0
 16 17  1  0  0  0  0
 17 18  1  0  0  0  0
 18 12  1  0  0  0  0
 17 19  1  0  0  0  0
 19 20  1  0  0  0  0
 20 21  1  0  0  0  0
 21 22  1  0  0  0  0
 22 18  1  0  0  0  0
  2 23  1  1  0  0  0
  3 24  1  1  0  0  0
  5 25  1  1  0  0  0
  9 26  1  1  0  0  0
 21 27  1  1  0  0  0
 17 28  1  1  0  0  0
  3 29  1  6  0  0  0
 11 30  1  6  0  0  0
 21 31  1  6  0  0  0
 28 32  2  0  0  0  0
 28 33  1  0  0  0  0
 29 34  1  0  0  0  0
 35 33  1  1  0  0  0
 35 36  1  0  0  0  0
 36 37  1  0  0  0  0
 37 38  1  0  0  0  0
 38 39  1  0  0  0  0
 39 40  1  0  0  0  0
 40 35  1  0  0  0  0
 37 41  1  1  0  0  0
 39 42  1  1  0  0  0
 38 43  1  6  0  0  0
 40 44  1  6  0  0  0
 41 45  1  0  0  0  0
 18 46  1  1  0  0  0
 10 47  1  6  0  0  0
  4 48  1  6  0  0  0
M  END
>  <cdx:fragmentId>
5

$$$$
