93679.cdx
  Mrv1902 05222410272D          

 56 60  0  0  0  0            999 V2000
    3.7518   -5.2800    0.0000 C   0  0  0  0  0  0  0  0  0  0  0  0
    3.7518   -6.1050    0.0000 C   0  0  0  0  0  0  0  0  0  0  0  0
    4.4663   -6.5175    0.0000 C   0  0  0  0  0  0  0  0  0  0  0  0
    5.1807   -6.1050    0.0000 C   0  0  0  0  0  0  0  0  0  0  0  0
    5.1807   -5.2800    0.0000 C   0  0  0  0  0  0  0  0  0  0  0  0
    4.4663   -4.8675    0.0000 C   0  0  0  0  0  0  0  0  0  0  0  0
    5.8952   -6.5175    0.0000 C   0  0  0  0  0  0  0  0  0  0  0  0
    6.6097   -6.1050    0.0000 C   0  0  0  0  0  0  0  0  0  0  0  0
    6.6097   -5.2800    0.0000 C   0  0  0  0  0  0  0  0  0  0  0  0
    5.8952   -4.8675    0.0000 O   0  0  0  0  0  0  0  0  0  0  0  0
    7.3242   -6.5175    0.0000 O   0  0  0  0  0  0  0  0  0  0  0  0
    8.0386   -5.2800    0.0000 C   0  0  0  0  0  0  0  0  0  0  0  0
    7.3242   -4.8675    0.0000 C   0  0  0  0  0  0  0  0  0  0  0  0
    8.7531   -4.8675    0.0000 C   0  0  0  0  0  0  0  0  0  0  0  0
    8.7531   -4.0425    0.0000 C   0  0  0  0  0  0  0  0  0  0  0  0
    8.0386   -3.6300    0.0000 C   0  0  0  0  0  0  0  0  0  0  0  0
    7.3242   -4.0425    0.0000 C   0  0  0  0  0  0  0  0  0  0  0  0
    3.0373   -4.8675    0.0000 O   0  0  0  0  0  0  0  0  0  0  0  0
    2.3229   -5.2800    0.0000 C   0  0  0  0  0  0  0  0  0  0  0  0
    4.4663   -7.3425    0.0000 O   0  0  0  0  0  0  0  0  0  0  0  0
    5.8952   -7.3425    0.0000 O   0  0  0  0  0  0  0  0  0  0  0  0
    8.0386   -2.8050    0.0000 O   0  0  0  0  0  0  0  0  0  0  0  0
    9.4676   -3.6300    0.0000 O   0  0  0  0  0  0  0  0  0  0  0  0
    7.3242   -2.3925    0.0000 C   0  0  0  0  0  0  0  0  0  0  0  0
   10.9059   -5.2556    0.0000 C   0  0  2  0  0  0  0  0  0  0  0  0
   11.6174   -4.8381    0.0000 C   0  0  2  0  0  0  0  0  0  0  0  0
   11.6116   -4.0131    0.0000 C   0  0  1  0  0  0  0  0  0  0  0  0
   10.8942   -3.6057    0.0000 C   0  0  2  0  0  0  0  0  0  0  0  0
   10.1827   -4.0232    0.0000 C   0  0  1  0  0  0  0  0  0  0  0  0
   10.1885   -4.8482    0.0000 O   0  0  0  0  0  0  0  0  0  0  0  0
   10.9118   -6.0806    0.0000 C   0  0  0  0  0  0  0  0  0  0  0  0
   12.3231   -3.5955    0.0000 O   0  0  0  0  0  0  0  0  0  0  0  0
   12.3348   -5.2455    0.0000 O   0  0  0  0  0  0  0  0  0  0  0  0
   10.8883   -2.7807    0.0000 O   0  0  0  0  0  0  0  0  0  0  0  0
   11.6291   -6.4880    0.0000 O   0  0  0  0  0  0  0  0  0  0  0  0
    6.6226   -8.5929    0.0000 C   0  0  2  0  0  0  0  0  0  0  0  0
    7.3397   -9.0009    0.0000 C   0  0  2  0  0  0  0  0  0  0  0  0
    8.0515   -8.5838    0.0000 C   0  0  1  0  0  0  0  0  0  0  0  0
    8.0462   -7.7588    0.0000 C   0  0  2  0  0  0  0  0  0  0  0  0
    7.3291   -7.3509    0.0000 C   0  0  1  0  0  0  0  0  0  0  0  0
    6.6173   -7.7680    0.0000 O   0  0  0  0  0  0  0  0  0  0  0  0
    5.9108   -9.0100    0.0000 C   0  0  0  0  0  0  0  0  0  0  0  0
    8.7686   -8.9917    0.0000 O   0  0  0  0  0  0  0  0  0  0  0  0
    7.3450   -9.8258    0.0000 O   0  0  0  0  0  0  0  0  0  0  0  0
    8.7581   -7.3417    0.0000 O   0  0  0  0  0  0  0  0  0  0  0  0
    5.9161   -9.8350    0.0000 O   0  0  0  0  0  0  0  0  0  0  0  0
    5.2043  -10.2521    0.0000 C   0  0  0  0  0  0  0  0  0  0  0  0
    5.2095  -11.0770    0.0000 C   0  0  0  0  0  0  0  0  0  0  0  0
    4.4872   -9.8441    0.0000 O   0  0  0  0  0  0  0  0  0  0  0  0
    4.4977  -11.4941    0.0000 C   0  0  0  0  0  0  0  0  0  0  0  0
    4.5030  -12.3191    0.0000 C   0  0  0  0  0  0  0  0  0  0  0  0
    3.7022  -11.7127    0.0000 O   0  0  0  0  0  0  0  0  0  0  0  0
    4.2791  -10.6986    0.0000 C   0  0  0  0  0  0  0  0  0  0  0  0
    3.7912  -12.7362    0.0000 C   0  0  0  0  0  0  0  0  0  0  0  0
    3.7965  -13.5611    0.0000 O   0  0  0  0  0  0  0  0  0  0  0  0
    3.0741  -12.3282    0.0000 O   0  0  0  0  0  0  0  0  0  0  0  0
  1  2  2  0  0  0  0
  2  3  1  0  0  0  0
  3  4  2  0  0  0  0
  4  5  1  0  0  0  0
  5  6  2  0  0  0  0
  6  1  1  0  0  0  0
  4  7  1  0  0  0  0
  7  8  1  0  0  0  0
  8  9  2  0  0  0  0
  9 10  1  0  0  0  0
 10  5  1  0  0  0  0
  8 11  1  0  0  0  0
 12 13  2  0  0  0  0
 13  9  1  0  0  0  0
 12 14  1  0  0  0  0
 14 15  2  0  0  0  0
 15 16  1  0  0  0  0
 16 17  2  0  0  0  0
 17 13  1  0  0  0  0
  1 18  1  0  0  0  0
 18 19  1  0  0  0  0
  3 20  1  0  0  0  0
  7 21  2  0  0  0  0
 16 22  1  0  0  0  0
 15 23  1  0  0  0  0
 22 24  1  0  0  0  0
 25 26  1  0  0  0  0
 26 27  1  0  0  0  0
 27 28  1  0  0  0  0
 28 29  1  0  0  0  0
 29 30  1  0  0  0  0
 30 25  1  0  0  0  0
 25 31  1  1  0  0  0
 27 32  1  1  0  0  0
 26 33  1  6  0  0  0
 28 34  1  6  0  0  0
 31 35  1  0  0  0  0
 29 23  1  1  0  0  0
 36 37  1  0  0  0  0
 37 38  1  0  0  0  0
 38 39  1  0  0  0  0
 39 40  1  0  0  0  0
 40 41  1  0  0  0  0
 41 36  1  0  0  0  0
 36 42  1  1  0  0  0
 38 43  1  1  0  0  0
 37 44  1  6  0  0  0
 39 45  1  6  0  0  0
 42 46  1  0  0  0  0
 46 47  1  0  0  0  0
 47 48  1  0  0  0  0
 47 49  2  0  0  0  0
 48 50  1  0  0  0  0
 50 51  1  0  0  0  0
 50 52  1  0  0  0  0
 50 53  1  0  0  0  0
 51 54  1  0  0  0  0
 54 55  1  0  0  0  0
 54 56  2  0  0  0  0
 40 11  1  1  0  0  0
M  END
>  <cdx:fragmentId>
5

$$$$
