93677.cdx
  Mrv1902 05222410182D          

 29 31  0  0  0  0            999 V2000
    1.8490   -8.1781    0.0000 O   0  0  0  0  0  0  0  0  0  0  0  0
    5.4538  -11.8592    0.0000 C   0  0  0  0  0  0  0  0  0  0  0  0
    6.8538   -8.5468    0.0000 O   0  0  0  0  0  0  0  0  0  0  0  0
   11.8512   -8.0905    0.0000 O   0  0  0  0  0  0  0  0  0  0  0  0
    3.2779   -8.1656    0.0000 C   0  0  0  0  0  0  0  0  0  0  0  0
    2.5671   -8.5844    0.0000 C   0  0  0  0  0  0  0  0  0  0  0  0
    2.5743   -9.4093    0.0000 C   0  0  0  0  0  0  0  0  0  0  0  0
    3.2924   -9.8156    0.0000 C   0  0  0  0  0  0  0  0  0  0  0  0
    3.9960   -8.5719    0.0000 C   0  0  0  0  0  0  0  0  0  0  0  0
    4.0032   -9.3968    0.0000 C   0  0  0  0  0  0  0  0  0  0  0  0
    5.4321   -9.3843    0.0000 O   0  0  0  0  0  0  0  0  0  0  0  0
    4.7213   -9.8030    0.0000 C   0  0  0  0  0  0  0  0  0  0  0  0
    4.7285  -10.6280    0.0000 O   0  0  0  0  0  0  0  0  0  0  0  0
    5.4465  -11.0342    0.0000 O   0  0  0  0  0  0  0  0  0  0  0  0
    6.8610   -9.3718    0.0000 C   0  0  0  0  0  0  0  0  0  0  0  0
    6.1501   -9.7905    0.0000 C   0  0  0  0  0  0  0  0  0  0  0  0
    6.1574  -10.6155    0.0000 C   0  0  0  0  0  0  0  0  0  0  0  0
    6.8754  -11.0217    0.0000 C   0  0  0  0  0  0  0  0  0  0  0  0
    8.2899   -9.3593    0.0000 O   0  0  0  0  0  0  0  0  0  0  0  0
    7.5790   -9.7780    0.0000 C   0  0  0  0  0  0  0  0  0  0  0  0
    7.5863  -10.6030    0.0000 C   0  0  0  0  0  0  0  0  0  0  0  0
    9.0079   -9.7655    0.0000 C   0  0  0  0  0  0  0  0  0  0  0  0
    9.0152  -10.5905    0.0000 O   0  0  0  0  0  0  0  0  0  0  0  0
    9.7115   -8.5218    0.0000 C   0  0  0  0  0  0  0  0  0  0  0  0
    9.7188   -9.3468    0.0000 C   0  0  0  0  0  0  0  0  0  0  0  0
   10.4368   -9.7530    0.0000 C   0  0  0  0  0  0  0  0  0  0  0  0
   11.1476   -9.3342    0.0000 C   0  0  0  0  0  0  0  0  0  0  0  0
   11.1404   -8.5093    0.0000 C   0  0  0  0  0  0  0  0  0  0  0  0
   10.4224   -8.1030    0.0000 C   0  0  0  0  0  0  0  0  0  0  0  0
  6  1  1  0  0  0  0
 14  2  1  0  0  0  0
 15  3  1  0  0  0  0
 28  4  1  0  0  0  0
  5  9  1  0  0  0  0
  6  5  2  0  0  0  0
  7  6  1  0  0  0  0
  8  7  2  0  0  0  0
 10  8  1  0  0  0  0
 10  9  2  0  0  0  0
 12 10  1  0  0  0  0
 11 16  1  0  0  0  0
 12 11  1  0  0  0  0
 13 12  2  0  0  0  0
 17 14  1  0  0  0  0
 15 20  2  0  0  0  0
 16 15  1  0  0  0  0
 17 16  2  0  0  0  0
 18 17  1  0  0  0  0
 21 18  2  0  0  0  0
 19 22  1  0  0  0  0
 20 19  1  0  0  0  0
 21 20  1  0  0  0  0
 22 25  1  0  0  0  0
 23 22  2  0  0  0  0
 24 29  1  0  0  0  0
 25 24  2  0  0  0  0
 26 25  1  0  0  0  0
 27 26  2  0  0  0  0
 28 27  1  0  0  0  0
 29 28  2  0  0  0  0
M  END
>  <cdx:fragmentId>
5

$$$$
