93676.cdx
  Mrv1902 05222410182D          

 41 46  0  0  0  0            999 V2000
    4.5218   -8.0850    0.0000 C   0  0  0  0  0  0  0  0  0  0  0  0
    4.5218   -8.9100    0.0000 C   0  0  1  0  0  0  0  0  0  0  0  0
    5.2363   -9.3225    0.0000 C   0  0  2  0  0  0  0  0  0  0  0  0
    5.9507   -8.9100    0.0000 C   0  0  1  0  0  0  0  0  0  0  0  0
    5.9507   -8.0850    0.0000 C   0  0  2  0  0  0  0  0  0  0  0  0
    5.2363   -7.6725    0.0000 C   0  0  0  0  0  0  0  0  0  0  0  0
    6.6652   -9.3225    0.0000 C   0  0  0  0  0  0  0  0  0  0  0  0
    7.3797   -8.9100    0.0000 C   0  0  0  0  0  0  0  0  0  0  0  0
    7.3797   -8.0850    0.0000 C   0  0  2  0  0  0  0  0  0  0  0  0
    6.6652   -7.6725    0.0000 C   0  0  2  0  0  0  0  0  0  0  0  0
    8.0942   -7.6725    0.0000 C   0  0  1  0  0  0  0  0  0  0  0  0
    8.0942   -6.8475    0.0000 C   0  0  0  0  0  0  0  0  0  0  0  0
    7.3797   -6.4350    0.0000 C   0  0  0  0  0  0  0  0  0  0  0  0
    6.6652   -6.8475    0.0000 C   0  0  0  0  0  0  0  0  0  0  0  0
    8.8086   -8.0850    0.0000 C   0  0  0  0  0  0  0  0  0  0  0  0
    9.5231   -7.6725    0.0000 C   0  0  0  0  0  0  0  0  0  0  0  0
    9.5231   -6.8475    0.0000 C   0  0  2  0  0  0  0  0  0  0  0  0
    8.8086   -6.4350    0.0000 C   0  0  1  0  0  0  0  0  0  0  0  0
   10.2376   -6.4350    0.0000 C   0  0  0  0  0  0  0  0  0  0  0  0
   10.2376   -5.6100    0.0000 C   0  0  0  0  0  0  0  0  0  0  0  0
    9.5231   -5.1975    0.0000 C   0  0  2  0  0  0  0  0  0  0  0  0
    8.8086   -5.6100    0.0000 C   0  0  2  0  0  0  0  0  0  0  0  0
   10.2376   -7.2600    0.0000 C   0  0  0  0  0  0  0  0  0  0  0  0
   10.9520   -6.8475    0.0000 O   0  0  0  0  0  0  0  0  0  0  0  0
   10.2376   -8.0850    0.0000 O   0  0  0  0  0  0  0  0  0  0  0  0
    3.8073   -9.3225    0.0000 O   0  0  0  0  0  0  0  0  0  0  0  0
    4.8238  -10.0370    0.0000 C   0  0  0  0  0  0  0  0  0  0  0  0
    5.9507   -7.2600    0.0000 C   0  0  0  0  0  0  0  0  0  0  0  0
    7.3797   -7.2600    0.0000 C   0  0  0  0  0  0  0  0  0  0  0  0
    8.8086   -7.2600    0.0000 H   0  0  0  0  0  0  0  0  0  0  0  0
    8.0942   -5.1975    0.0000 C   0  0  0  0  0  0  0  0  0  0  0  0
    8.8086   -4.7850    0.0000 O   0  0  0  0  0  0  0  0  0  0  0  0
    9.5231   -4.3725    0.0000 C   0  0  0  0  0  0  0  0  0  0  0  0
    8.0942   -8.4975    0.0000 C   0  0  0  0  0  0  0  0  0  0  0  0
    6.6652   -8.4975    0.0000 H   0  0  0  0  0  0  0  0  0  0  0  0
    5.9507   -9.7350    0.0000 H   0  0  0  0  0  0  0  0  0  0  0  0
    5.6488  -10.0370    0.0000 C   0  0  0  0  0  0  0  0  0  0  0  0
    4.0269  -10.2505    0.0000 O   0  0  0  0  0  0  0  0  0  0  0  0
    3.3948  -10.0370    0.0000 C   0  0  0  0  0  0  0  0  0  0  0  0
    2.6804   -9.6245    0.0000 C   0  0  0  0  0  0  0  0  0  0  0  0
    3.0549  -10.7887    0.0000 C   0  0  0  0  0  0  0  0  0  0  0  0
  1  2  1  0  0  0  0
  2  3  1  0  0  0  0
  3  4  1  0  0  0  0
  4  5  1  0  0  0  0
  5  6  1  0  0  0  0
  6  1  1  0  0  0  0
  4  7  1  0  0  0  0
  7  8  1  0  0  0  0
  8  9  1  0  0  0  0
  9 10  1  0  0  0  0
 10  5  1  0  0  0  0
  9 11  1  0  0  0  0
 11 12  1  0  0  0  0
 12 13  2  0  0  0  0
 13 14  1  0  0  0  0
 14 10  1  0  0  0  0
 11 15  1  0  0  0  0
 15 16  1  0  0  0  0
 16 17  1  0  0  0  0
 17 18  1  0  0  0  0
 18 12  1  0  0  0  0
 17 19  1  0  0  0  0
 19 20  1  0  0  0  0
 20 21  1  0  0  0  0
 21 22  1  0  0  0  0
 22 18  1  0  0  0  0
 17 23  1  1  0  0  0
 23 24  1  0  0  0  0
 23 25  2  0  0  0  0
  2 26  1  1  0  0  0
  3 27  1  6  0  0  0
  5 28  1  1  0  0  0
  9 29  1  1  0  0  0
 18 30  1  1  0  0  0
 22 31  1  1  0  0  0
 22 32  1  6  0  0  0
 21 33  1  6  0  0  0
 11 34  1  6  0  0  0
 10 35  1  6  0  0  0
  4 36  1  6  0  0  0
  3 37  1  1  0  0  0
 27 38  1  0  0  0  0
 26 39  1  0  0  0  0
 38 39  1  0  0  0  0
 39 40  1  0  0  0  0
 39 41  1  0  0  0  0
M  END
>  <cdx:fragmentId>
5

$$$$
