93673.cdx
  Mrv1902 05222410202D          

 28 31  0  0  0  0            999 V2000
    5.9909   -7.0125    0.0000 C   0  0  0  0  0  0  0  0  0  0  0  0
    5.9909   -6.1875    0.0000 C   0  0  0  0  0  0  0  0  0  0  0  0
    6.7054   -7.4250    0.0000 C   0  0  2  0  0  0  0  0  0  0  0  0
    7.4199   -7.0125    0.0000 N   0  3  0  0  0  0  0  0  0  0  0  0
    7.4199   -6.1875    0.0000 C   0  0  0  0  0  0  0  0  0  0  0  0
    6.7054   -5.7750    0.0000 C   0  0  0  0  0  0  0  0  0  0  0  0
    6.7054   -8.2500    0.0000 C   0  0  0  0  0  0  0  0  0  0  0  0
    7.4199   -8.6625    0.0000 C   0  0  1  0  0  0  0  0  0  0  0  0
    8.1344   -8.2500    0.0000 C   0  0  2  0  0  0  0  0  0  0  0  0
    8.1344   -7.4250    0.0000 C   0  0  0  0  0  0  0  0  0  0  0  0
    8.8488   -8.6625    0.0000 C   0  0  0  0  0  0  0  0  0  0  0  0
    9.5633   -8.2500    0.0000 C   0  0  0  0  0  0  0  0  0  0  0  0
    7.4199   -9.4875    0.0000 C   0  0  0  0  0  0  0  0  0  0  0  0
    8.1344   -9.9000    0.0000 C   0  0  0  0  0  0  0  0  0  0  0  0
    8.8488   -9.4875    0.0000 O   0  0  0  0  0  0  0  0  0  0  0  0
    5.9909   -9.4875    0.0000 O   0  0  0  0  0  0  0  0  0  0  0  0
    6.7054   -9.9000    0.0000 C   0  0  0  0  0  0  0  0  0  0  0  0
    6.7054  -10.7250    0.0000 O   0  0  0  0  0  0  0  0  0  0  0  0
    9.5633   -9.9000    0.0000 C   0  0  0  0  0  0  0  0  0  0  0  0
    6.7054   -6.6000    0.0000 H   0  0  0  0  0  0  0  0  0  0  0  0
    7.4199   -7.8375    0.0000 H   0  0  0  0  0  0  0  0  0  0  0  0
    5.2063   -5.9326    0.0000 C   0  0  0  0  0  0  0  0  0  0  0  0
    4.7214   -6.6000    0.0000 C   0  0  0  0  0  0  0  0  0  0  0  0
    5.2063   -7.2674    0.0000 N   0  0  0  0  0  0  0  0  0  0  0  0
    4.8708   -5.1789    0.0000 C   0  0  0  0  0  0  0  0  0  0  0  0
    4.0503   -5.0926    0.0000 C   0  0  0  0  0  0  0  0  0  0  0  0
    3.5654   -5.7601    0.0000 C   0  0  0  0  0  0  0  0  0  0  0  0
    3.9009   -6.5138    0.0000 C   0  0  0  0  0  0  0  0  0  0  0  0
  1  2  2  0  0  0  0
  1  3  1  0  0  0  0
  3  4  1  0  0  0  0
  4  5  1  0  0  0  0
  5  6  1  0  0  0  0
  6  2  1  0  0  0  0
  3  7  1  0  0  0  0
  7  8  1  0  0  0  0
  8  9  1  0  0  0  0
  9 10  1  0  0  0  0
 10  4  1  0  0  0  0
  9 11  1  6  0  0  0
 11 12  1  0  0  0  0
  8 13  1  0  0  0  0
 13 14  2  0  0  0  0
 14 15  1  0  0  0  0
 16 17  2  0  0  0  0
 17 13  1  0  0  0  0
 17 18  1  0  0  0  0
 15 19  1  0  0  0  0
  3 20  1  1  0  0  0
  8 21  1  6  0  0  0
  2 22  1  0  0  0  0
 22 23  2  0  0  0  0
 23 24  1  0  0  0  0
 24  1  1  0  0  0  0
 22 25  1  0  0  0  0
 25 26  2  0  0  0  0
 26 27  1  0  0  0  0
 27 28  2  0  0  0  0
 28 23  1  0  0  0  0
M  CHG  1   4   1
M  END
>  <cdx:fragmentId>
5

$$$$
