9367.cdx
  Mrv1902 05222410262D          

 32 38  0  0  0  0            999 V2000
    2.0864   -6.3525    0.0000 C   0  0  0  0  0  0  0  0  0  0  0  0
    2.0864   -7.1775    0.0000 C   0  0  0  0  0  0  0  0  0  0  0  0
    2.8009   -7.5900    0.0000 C   0  0  0  0  0  0  0  0  0  0  0  0
    3.5153   -7.1775    0.0000 C   0  0  0  0  0  0  0  0  0  0  0  0
    3.5153   -6.3525    0.0000 C   0  0  0  0  0  0  0  0  0  0  0  0
    2.8009   -5.9400    0.0000 C   0  0  0  0  0  0  0  0  0  0  0  0
    4.2298   -7.5900    0.0000 C   0  0  0  0  0  0  0  0  0  0  0  0
    4.9443   -7.1775    0.0000 C   0  0  0  0  0  0  0  0  0  0  0  0
    4.9443   -6.3525    0.0000 C   0  0  0  0  0  0  0  0  0  0  0  0
    4.2298   -5.9400    0.0000 C   0  0  0  0  0  0  0  0  0  0  0  0
    5.6588   -7.5900    0.0000 C   0  0  0  0  0  0  0  0  0  0  0  0
    6.3732   -7.1775    0.0000 C   0  0  0  0  0  0  0  0  0  0  0  0
    6.3732   -6.3525    0.0000 C   0  0  0  0  0  0  0  0  0  0  0  0
    5.6588   -5.9400    0.0000 C   0  0  0  0  0  0  0  0  0  0  0  0
    7.8022   -7.1775    0.0000 C   0  0  0  0  0  0  0  0  0  0  0  0
    7.8022   -6.3525    0.0000 C   0  0  0  0  0  0  0  0  0  0  0  0
    8.5166   -7.5900    0.0000 C   0  0  0  0  0  0  0  0  0  0  0  0
    9.2311   -7.1775    0.0000 C   0  0  0  0  0  0  0  0  0  0  0  0
    9.2311   -6.3525    0.0000 C   0  0  0  0  0  0  0  0  0  0  0  0
    8.5166   -5.9400    0.0000 C   0  0  0  0  0  0  0  0  0  0  0  0
    9.9456   -7.5900    0.0000 C   0  0  0  0  0  0  0  0  0  0  0  0
   10.6601   -7.1775    0.0000 C   0  0  0  0  0  0  0  0  0  0  0  0
   10.6601   -6.3525    0.0000 C   0  0  0  0  0  0  0  0  0  0  0  0
    9.9456   -5.9400    0.0000 C   0  0  0  0  0  0  0  0  0  0  0  0
   11.3745   -7.5900    0.0000 C   0  0  0  0  0  0  0  0  0  0  0  0
   12.0890   -7.1775    0.0000 C   0  0  0  0  0  0  0  0  0  0  0  0
   12.0890   -6.3525    0.0000 C   0  0  0  0  0  0  0  0  0  0  0  0
   11.3745   -5.9400    0.0000 C   0  0  0  0  0  0  0  0  0  0  0  0
    4.3815   -4.8544    0.0000 C   0  0  0  0  0  0  0  0  0  0  0  0
    9.6702   -4.8544    0.0000 C   0  0  0  0  0  0  0  0  0  0  0  0
    4.4640   -8.6344    0.0000 C   0  0  0  0  0  0  0  0  0  0  0  0
    9.7527   -8.6344    0.0000 C   0  0  0  0  0  0  0  0  0  0  0  0
  1  2  1  0  0  0  0
  2  3  2  0  0  0  0
  3  4  1  0  0  0  0
  4  5  1  0  0  0  0
  5  6  1  0  0  0  0
  6  1  2  0  0  0  0
  4  7  2  0  0  0  0
  7  8  1  0  0  0  0
  8  9  2  0  0  0  0
  9 10  1  0  0  0  0
 10  5  2  0  0  0  0
  8 11  1  0  0  0  0
 11 12  2  0  0  0  0
 12 13  1  0  0  0  0
 13 14  2  0  0  0  0
 14  9  1  0  0  0  0
 15 16  1  0  0  0  0
 15 17  2  0  0  0  0
 17 18  1  0  0  0  0
 18 19  2  0  0  0  0
 19 20  1  0  0  0  0
 20 16  2  0  0  0  0
 18 21  1  0  0  0  0
 21 22  2  0  0  0  0
 22 23  1  0  0  0  0
 23 24  2  0  0  0  0
 24 19  1  0  0  0  0
 22 25  1  0  0  0  0
 25 26  2  0  0  0  0
 26 27  1  0  0  0  0
 27 28  2  0  0  0  0
 28 23  1  0  0  0  0
 10 29  1  0  0  0  0
 24 30  1  0  0  0  0
  7 31  1  0  0  0  0
 21 32  1  0  0  0  0
 29 30  1  0  0  0  0
 31 32  1  0  0  0  0
M  END
>  <cdx:fragmentId>
98

$$$$
