93684.cdx
  Mrv1902 05222410282D          

 22 23  0  0  0  0            999 V2000
    4.5218   -6.3525    0.0000 C   0  0  0  0  0  0  0  0  0  0  0  0
    4.5218   -7.1775    0.0000 C   0  0  0  0  0  0  0  0  0  0  0  0
    5.2363   -7.5900    0.0000 C   0  0  0  0  0  0  0  0  0  0  0  0
    5.9507   -7.1775    0.0000 C   0  0  0  0  0  0  0  0  0  0  0  0
    5.9507   -6.3525    0.0000 C   0  0  0  0  0  0  0  0  0  0  0  0
    5.2363   -5.9400    0.0000 C   0  0  0  0  0  0  0  0  0  0  0  0
    3.8073   -5.9400    0.0000 O   0  0  0  0  0  0  0  0  0  0  0  0
    3.8073   -7.5900    0.0000 O   0  0  0  0  0  0  0  0  0  0  0  0
    6.6652   -7.5900    0.0000 C   0  0  0  0  0  0  0  0  0  0  0  0
    7.3797   -7.1775    0.0000 O   0  0  0  0  0  0  0  0  0  0  0  0
    6.6652   -8.4150    0.0000 O   0  0  0  0  0  0  0  0  0  0  0  0
    8.7911   -8.8212    0.0000 C   0  0  2  0  0  0  0  0  0  0  0  0
    9.5060   -8.4093    0.0000 C   0  0  2  0  0  0  0  0  0  0  0  0
    9.5067   -7.5843    0.0000 C   0  0  1  0  0  0  0  0  0  0  0  0
    8.7926   -7.1712    0.0000 C   0  0  2  0  0  0  0  0  0  0  0  0
    8.0778   -7.5830    0.0000 C   0  0  1  0  0  0  0  0  0  0  0  0
    8.0770   -8.4080    0.0000 O   0  0  0  0  0  0  0  0  0  0  0  0
    8.7904   -9.6462    0.0000 C   0  0  0  0  0  0  0  0  0  0  0  0
   10.2216   -7.1725    0.0000 O   0  0  0  0  0  0  0  0  0  0  0  0
   10.2201   -8.8225    0.0000 O   0  0  0  0  0  0  0  0  0  0  0  0
    8.7934   -6.3462    0.0000 O   0  0  0  0  0  0  0  0  0  0  0  0
    9.5045  -10.0593    0.0000 O   0  0  0  0  0  0  0  0  0  0  0  0
  1  2  2  0  0  0  0
  2  3  1  0  0  0  0
  3  4  2  0  0  0  0
  4  5  1  0  0  0  0
  5  6  2  0  0  0  0
  6  1  1  0  0  0  0
  1  7  1  0  0  0  0
  2  8  1  0  0  0  0
  4  9  1  0  0  0  0
  9 10  1  0  0  0  0
  9 11  2  0  0  0  0
 12 13  1  0  0  0  0
 13 14  1  0  0  0  0
 14 15  1  0  0  0  0
 15 16  1  0  0  0  0
 16 17  1  0  0  0  0
 17 12  1  0  0  0  0
 12 18  1  1  0  0  0
 14 19  1  1  0  0  0
 13 20  1  6  0  0  0
 15 21  1  6  0  0  0
 18 22  1  0  0  0  0
 16 10  1  1  0  0  0
M  END
>  <cdx:fragmentId>
5

$$$$
