93682.cdx
  Mrv1902 05222410262D          

 16 17  0  0  0  0            999 V2000
    9.1499   -9.4988    0.0000 O   0  0  0  0  0  0  0  0  0  0  0  0
    9.1499   -7.8488    0.0000 O   0  0  0  0  0  0  0  0  0  0  0  0
    7.7210   -7.0238    0.0000 O   0  0  0  0  0  0  0  0  0  0  0  0
    6.5451   -6.9426    0.0000 O   0  0  0  0  0  0  0  0  0  0  0  0
    5.0428   -7.2855    0.0000 O   0  0  0  0  0  0  0  0  0  0  0  0
    7.7210   -7.8488    0.0000 C   0  0  0  0  0  0  0  0  0  0  0  0
    8.4354   -8.2613    0.0000 C   0  0  0  0  0  0  0  0  0  0  0  0
    8.4354   -9.0863    0.0000 C   0  0  0  0  0  0  0  0  0  0  0  0
    7.7210   -9.4988    0.0000 C   0  0  0  0  0  0  0  0  0  0  0  0
    6.3615   -7.7469    0.0000 C   0  0  0  0  0  0  0  0  0  0  0  0
    5.5572   -7.9305    0.0000 C   0  0  0  0  0  0  0  0  0  0  0  0
    5.1992   -8.6738    0.0000 C   0  0  0  0  0  0  0  0  0  0  0  0
    5.5572   -9.4171    0.0000 C   0  0  0  0  0  0  0  0  0  0  0  0
    6.3615   -9.6007    0.0000 C   0  0  0  0  0  0  0  0  0  0  0  0
    7.0065   -9.0863    0.0000 C   0  0  0  0  0  0  0  0  0  0  0  0
    7.0065   -8.2613    0.0000 C   0  0  0  0  0  0  0  0  0  0  0  0
  8  1  1  0  0  0  0
  7  2  1  0  0  0  0
  6  3  1  0  0  0  0
 10  4  1  0  0  0  0
 11  5  2  0  0  0  0
  9 15  1  0  0  0  0
  6 16  1  0  0  0  0
  7  6  2  0  0  0  0
  8  7  1  0  0  0  0
  9  8  2  0  0  0  0
 16 10  2  0  0  0  0
 11 10  1  0  0  0  0
 12 11  1  0  0  0  0
 13 12  2  0  0  0  0
 14 13  1  0  0  0  0
 15 14  2  0  0  0  0
 16 15  1  0  0  0  0
M  END
>  <cdx:fragmentId>
5

$$$$
