93685.cdx
  Mrv1902 05222410282D          

 65 71  0  0  0  0            999 V2000
    8.0309   -8.1673    0.0000 O   0  0  0  0  0  0  0  0  0  0  0  0
    8.2467   -8.9636    0.0000 O   0  0  0  0  0  0  0  0  0  0  0  0
    8.9623   -9.3741    0.0000 C   0  0  0  0  0  0  0  0  0  0  0  0
    9.7586   -9.1583    0.0000 C   0  0  0  0  0  0  0  0  0  0  0  0
   10.1691   -8.4427    0.0000 C   0  0  0  0  0  0  0  0  0  0  0  0
    9.9534   -7.6464    0.0000 C   0  0  0  0  0  0  0  0  0  0  0  0
    9.2378   -7.2359    0.0000 C   0  0  0  0  0  0  0  0  0  0  0  0
    8.4415   -7.4517    0.0000 C   0  0  0  0  0  0  0  0  0  0  0  0
   10.6667   -7.2359    0.0000 C   0  0  0  0  0  0  0  0  0  0  0  0
   10.6667   -6.4109    0.0000 C   0  0  0  0  0  0  0  0  0  0  0  0
    9.9534   -6.0004    0.0000 C   0  0  0  0  0  0  0  0  0  0  0  0
    9.2378   -6.4109    0.0000 C   0  0  0  0  0  0  0  0  0  0  0  0
   10.1691   -9.8717    0.0000 C   0  0  0  0  0  0  0  0  0  0  0  0
   10.9941   -9.8717    0.0000 C   0  0  0  0  0  0  0  0  0  0  0  0
   11.4046   -9.1583    0.0000 C   0  0  0  0  0  0  0  0  0  0  0  0
   10.9941   -8.4427    0.0000 C   0  0  0  0  0  0  0  0  0  0  0  0
    7.9374   -6.7985    0.0000 O   0  0  0  0  0  0  0  0  0  0  0  0
    9.9539   -5.1754    0.0000 O   0  0  0  0  0  0  0  0  0  0  0  0
   11.3809   -5.9979    0.0000 O   0  0  0  0  0  0  0  0  0  0  0  0
   11.4917   -7.2359    0.0000 O   0  0  0  0  0  0  0  0  0  0  0  0
   11.4066   -7.7283    0.0000 O   0  0  0  0  0  0  0  0  0  0  0  0
   12.2296   -9.1589    0.0000 O   0  0  0  0  0  0  0  0  0  0  0  0
   11.4071  -10.5859    0.0000 O   0  0  0  0  0  0  0  0  0  0  0  0
   10.9951  -11.3006    0.0000 C   0  0  0  0  0  0  0  0  0  0  0  0
   10.1701  -11.3006    0.0000 C   0  0  0  0  0  0  0  0  0  0  0  0
    9.7576  -12.0151    0.0000 C   0  0  0  0  0  0  0  0  0  0  0  0
    9.7576  -10.5861    0.0000 O   0  0  0  0  0  0  0  0  0  0  0  0
   10.1701  -12.7296    0.0000 C   0  0  0  0  0  0  0  0  0  0  0  0
    8.9326  -12.0151    0.0000 O   0  0  0  0  0  0  0  0  0  0  0  0
   10.9951  -12.7296    0.0000 C   0  0  0  0  0  0  0  0  0  0  0  0
   11.4076  -12.0151    0.0000 C   0  0  0  0  0  0  0  0  0  0  0  0
    9.7576  -13.4440    0.0000 O   0  0  0  0  0  0  0  0  0  0  0  0
    8.8569  -10.1923    0.0000 O   0  0  0  0  0  0  0  0  0  0  0  0
    7.5334   -9.3780    0.0000 C   0  0  0  0  0  0  0  0  0  0  0  0
    6.9328   -8.8124    0.0000 C   0  0  2  0  0  0  0  0  0  0  0  0
    7.1213   -8.0092    0.0000 C   0  0  2  0  0  0  0  0  0  0  0  0
    6.5200   -7.4443    0.0000 C   0  0  1  0  0  0  0  0  0  0  0  0
    5.7316   -7.6769    0.0000 C   0  0  2  0  0  0  0  0  0  0  0  0
    5.5397   -8.4793    0.0000 C   0  0  1  0  0  0  0  0  0  0  0  0
    6.1377   -9.0433    0.0000 O   0  0  0  0  0  0  0  0  0  0  0  0
    4.7492   -8.7151    0.0000 O   0  0  0  0  0  0  0  0  0  0  0  0
    6.7111   -6.6418    0.0000 O   0  0  0  0  0  0  0  0  0  0  0  0
    5.1332   -7.1089    0.0000 O   0  0  0  0  0  0  0  0  0  0  0  0
    6.3556   -3.7988    0.0000 C   0  0  0  0  0  0  0  0  0  0  0  0
    6.0346   -4.5588    0.0000 C   0  0  0  0  0  0  0  0  0  0  0  0
    6.5322   -5.2168    0.0000 C   0  0  0  0  0  0  0  0  0  0  0  0
    7.3509   -5.1148    0.0000 C   0  0  0  0  0  0  0  0  0  0  0  0
    7.6719   -4.3549    0.0000 C   0  0  0  0  0  0  0  0  0  0  0  0
    7.1742   -3.6969    0.0000 C   0  0  0  0  0  0  0  0  0  0  0  0
    5.8579   -3.1408    0.0000 O   0  0  0  0  0  0  0  0  0  0  0  0
    7.4953   -2.9369    0.0000 O   0  0  0  0  0  0  0  0  0  0  0  0
    8.4906   -4.2529    0.0000 O   0  0  0  0  0  0  0  0  0  0  0  0
    6.2112   -5.9768    0.0000 C   0  0  0  0  0  0  0  0  0  0  0  0
    5.3925   -6.0788    0.0000 O   0  0  0  0  0  0  0  0  0  0  0  0
    2.3081   -6.7052    0.0000 C   0  0  0  0  0  0  0  0  0  0  0  0
    2.9585   -7.2128    0.0000 C   0  0  0  0  0  0  0  0  0  0  0  0
    3.7232   -6.9034    0.0000 C   0  0  0  0  0  0  0  0  0  0  0  0
    3.8376   -6.0864    0.0000 C   0  0  0  0  0  0  0  0  0  0  0  0
    3.1873   -5.5788    0.0000 C   0  0  0  0  0  0  0  0  0  0  0  0
    2.4225   -5.8882    0.0000 C   0  0  0  0  0  0  0  0  0  0  0  0
    1.5433   -7.0147    0.0000 O   0  0  0  0  0  0  0  0  0  0  0  0
    1.7721   -5.3806    0.0000 O   0  0  0  0  0  0  0  0  0  0  0  0
    3.3017   -4.7618    0.0000 O   0  0  0  0  0  0  0  0  0  0  0  0
    4.3736   -7.4110    0.0000 C   0  0  0  0  0  0  0  0  0  0  0  0
    4.2592   -8.2280    0.0000 O   0  0  0  0  0  0  0  0  0  0  0  0
  2  3  1  0  0  0  0
  3  4  1  0  0  0  0
  4  5  2  0  0  0  0
  5  6  1  0  0  0  0
  6  7  2  0  0  0  0
  7  8  1  0  0  0  0
  8  1  1  0  0  0  0
  6  9  1  0  0  0  0
  9 10  2  0  0  0  0
 10 11  1  0  0  0  0
 11 12  2  0  0  0  0
 12  7  1  0  0  0  0
  4 13  1  0  0  0  0
 13 14  2  0  0  0  0
 14 15  1  0  0  0  0
 15 16  2  0  0  0  0
 16  5  1  0  0  0  0
  8 17  2  0  0  0  0
 11 18  1  0  0  0  0
 10 19  1  0  0  0  0
  9 20  1  0  0  0  0
 16 21  1  0  0  0  0
 15 22  1  0  0  0  0
 14 23  1  0  0  0  0
 23 24  1  0  0  0  0
 24 25  2  0  0  0  0
 25 26  1  0  0  0  0
 25 27  1  0  0  0  0
 26 28  2  0  0  0  0
 26 29  1  0  0  0  0
 28 30  1  0  0  0  0
 24 31  1  0  0  0  0
 31 30  2  0  0  0  0
 28 32  1  0  0  0  0
  3 33  2  0  0  0  0
  2 34  1  0  0  0  0
 35 34  1  1  0  0  0
 35 36  1  0  0  0  0
 36 37  1  0  0  0  0
 37 38  1  0  0  0  0
 38 39  1  0  0  0  0
 39 40  1  0  0  0  0
 40 35  1  0  0  0  0
 36  1  1  6  0  0  0
 39 41  1  1  0  0  0
 37 42  1  1  0  0  0
 38 43  1  6  0  0  0
 44 45  2  0  0  0  0
 45 46  1  0  0  0  0
 46 47  2  0  0  0  0
 47 48  1  0  0  0  0
 48 49  2  0  0  0  0
 49 44  1  0  0  0  0
 44 50  1  0  0  0  0
 49 51  1  0  0  0  0
 48 52  1  0  0  0  0
 46 53  1  0  0  0  0
 53 54  2  0  0  0  0
 55 56  2  0  0  0  0
 56 57  1  0  0  0  0
 57 58  2  0  0  0  0
 58 59  1  0  0  0  0
 59 60  2  0  0  0  0
 60 55  1  0  0  0  0
 55 61  1  0  0  0  0
 60 62  1  0  0  0  0
 59 63  1  0  0  0  0
 57 64  1  0  0  0  0
 64 65  2  0  0  0  0
 64 43  1  0  0  0  0
 53 42  1  0  0  0  0
M  END
>  <cdx:fragmentId>
5

$$$$
