93688.cdx
  Mrv1902 05222410182D          

 67 74  0  0  0  0            999 V2000
    6.8739   -7.9385    0.0000 C   0  0  0  0  0  0  0  0  0  0  0  0
    6.8739   -8.7635    0.0000 C   0  0  1  0  0  0  0  0  0  0  0  0
    7.5884   -9.1760    0.0000 C   0  0  0  0  0  0  0  0  0  0  0  0
    8.3029   -8.7635    0.0000 C   0  0  1  0  0  0  0  0  0  0  0  0
    8.3029   -7.9385    0.0000 C   0  0  2  0  0  0  0  0  0  0  0  0
    7.5884   -7.5260    0.0000 C   0  0  0  0  0  0  0  0  0  0  0  0
    9.0173   -9.1760    0.0000 C   0  0  0  0  0  0  0  0  0  0  0  0
    9.7318   -8.7635    0.0000 C   0  0  0  0  0  0  0  0  0  0  0  0
    9.7318   -7.9385    0.0000 C   0  0  2  0  0  0  0  0  0  0  0  0
    9.0173   -7.5260    0.0000 C   0  0  2  0  0  0  0  0  0  0  0  0
   10.4463   -7.5260    0.0000 C   0  0  1  0  0  0  0  0  0  0  0  0
   10.4463   -6.7010    0.0000 C   0  0  0  0  0  0  0  0  0  0  0  0
    9.7318   -6.2885    0.0000 C   0  0  0  0  0  0  0  0  0  0  0  0
    9.0173   -6.7010    0.0000 C   0  0  0  0  0  0  0  0  0  0  0  0
   11.1608   -7.9385    0.0000 C   0  0  0  0  0  0  0  0  0  0  0  0
   11.8752   -7.5260    0.0000 C   0  0  0  0  0  0  0  0  0  0  0  0
   11.8752   -6.7010    0.0000 C   0  0  2  0  0  0  0  0  0  0  0  0
   11.1608   -6.2885    0.0000 C   0  0  1  0  0  0  0  0  0  0  0  0
   12.5897   -6.2885    0.0000 C   0  0  0  0  0  0  0  0  0  0  0  0
   12.5897   -5.4635    0.0000 C   0  0  0  0  0  0  0  0  0  0  0  0
   11.8752   -5.0510    0.0000 C   0  0  0  0  0  0  0  0  0  0  0  0
   11.1608   -5.4635    0.0000 C   0  0  0  0  0  0  0  0  0  0  0  0
    8.3029   -7.1135    0.0000 C   0  0  0  0  0  0  0  0  0  0  0  0
    9.7318   -7.1135    0.0000 C   0  0  0  0  0  0  0  0  0  0  0  0
   11.4627   -4.3365    0.0000 C   0  0  0  0  0  0  0  0  0  0  0  0
   12.5897   -7.1135    0.0000 C   0  0  0  0  0  0  0  0  0  0  0  0
    7.1759   -9.8904    0.0000 C   0  0  0  0  0  0  0  0  0  0  0  0
    6.1595   -9.1760    0.0000 O   0  0  0  0  0  0  0  0  0  0  0  0
    8.0009   -9.8904    0.0000 C   0  0  0  0  0  0  0  0  0  0  0  0
   10.4463   -8.3510    0.0000 C   0  0  0  0  0  0  0  0  0  0  0  0
   12.2877   -4.3365    0.0000 C   0  0  0  0  0  0  0  0  0  0  0  0
   13.3042   -6.7010    0.0000 O   0  0  0  0  0  0  0  0  0  0  0  0
   12.5897   -7.9385    0.0000 O   0  0  0  0  0  0  0  0  0  0  0  0
    5.4442   -8.7648    0.0000 C   0  0  2  0  0  0  0  0  0  0  0  0
    5.4427   -7.9398    0.0000 O   0  0  0  0  0  0  0  0  0  0  0  0
    4.7274   -7.5286    0.0000 C   0  0  0  0  0  0  0  0  0  0  0  0
    4.0137   -7.9425    0.0000 C   0  0  1  0  0  0  0  0  0  0  0  0
    4.0153   -8.7675    0.0000 C   0  0  1  0  0  0  0  0  0  0  0  0
    4.7305   -9.1786    0.0000 C   0  0  1  0  0  0  0  0  0  0  0  0
    3.2985   -7.5313    0.0000 O   0  0  0  0  0  0  0  0  0  0  0  0
    3.3016   -9.1813    0.0000 O   0  0  0  0  0  0  0  0  0  0  0  0
    4.7321  -10.0036    0.0000 O   0  0  0  0  0  0  0  0  0  0  0  0
    3.2960   -6.7063    0.0000 C   0  0  2  0  0  0  0  0  0  0  0  0
    4.0092   -6.2916    0.0000 O   0  0  0  0  0  0  0  0  0  0  0  0
    4.0067   -5.4666    0.0000 C   0  0  1  0  0  0  0  0  0  0  0  0
    3.2910   -5.0563    0.0000 C   0  0  2  0  0  0  0  0  0  0  0  0
    2.5778   -5.4710    0.0000 C   0  0  1  0  0  0  0  0  0  0  0  0
    2.5803   -6.2960    0.0000 C   0  0  1  0  0  0  0  0  0  0  0  0
    4.7199   -5.0520    0.0000 C   0  0  0  0  0  0  0  0  0  0  0  0
    1.8620   -5.0607    0.0000 O   0  0  0  0  0  0  0  0  0  0  0  0
    3.2885   -4.2313    0.0000 O   0  0  0  0  0  0  0  0  0  0  0  0
    1.8671   -6.7107    0.0000 O   0  0  0  0  0  0  0  0  0  0  0  0
    4.7199   -4.2270    0.0000 O   0  0  0  0  0  0  0  0  0  0  0  0
    4.0276  -10.4118    0.0000 C   0  0  2  0  0  0  0  0  0  0  0  0
    3.3109  -10.0032    0.0000 O   0  0  0  0  0  0  0  0  0  0  0  0
    2.5987  -10.4195    0.0000 C   0  0  2  0  0  0  0  0  0  0  0  0
    2.6031  -11.2445    0.0000 C   0  0  1  0  0  0  0  0  0  0  0  0
    3.3198  -11.6531    0.0000 C   0  0  2  0  0  0  0  0  0  0  0  0
    4.0321  -11.2368    0.0000 C   0  0  1  0  0  0  0  0  0  0  0  0
    1.8909  -11.6608    0.0000 O   0  0  0  0  0  0  0  0  0  0  0  0
    1.8820  -10.0108    0.0000 C   0  0  0  0  0  0  0  0  0  0  0  0
    3.3243  -12.4781    0.0000 O   0  0  0  0  0  0  0  0  0  0  0  0
    4.7487  -11.6455    0.0000 O   0  0  0  0  0  0  0  0  0  0  0  0
    8.3029   -9.5885    0.0000 H   0  0  0  0  0  0  0  0  0  0  0  0
    9.0173   -8.3510    0.0000 H   0  0  0  0  0  0  0  0  0  0  0  0
   11.1608   -7.1135    0.0000 H   0  0  0  0  0  0  0  0  0  0  0  0
   11.1608   -8.7635    0.0000 O   0  0  0  0  0  0  0  0  0  0  0  0
  1  2  1  0  0  0  0
  2  3  1  0  0  0  0
  3  4  1  0  0  0  0
  4  5  1  0  0  0  0
  5  6  1  0  0  0  0
  6  1  1  0  0  0  0
  4  7  1  0  0  0  0
  7  8  1  0  0  0  0
  8  9  1  0  0  0  0
  9 10  1  0  0  0  0
 10  5  1  0  0  0  0
  9 11  1  0  0  0  0
 11 12  1  0  0  0  0
 12 13  2  0  0  0  0
 13 14  1  0  0  0  0
 14 10  1  0  0  0  0
 11 15  1  0  0  0  0
 15 16  1  0  0  0  0
 16 17  1  0  0  0  0
 17 18  1  0  0  0  0
 18 12  1  0  0  0  0
 17 19  1  0  0  0  0
 19 20  1  0  0  0  0
 20 21  1  0  0  0  0
 21 22  1  0  0  0  0
 22 18  1  0  0  0  0
  5 23  1  1  0  0  0
  9 24  1  1  0  0  0
 21 25  1  0  0  0  0
 17 26  1  1  0  0  0
  3 27  1  0  0  0  0
  2 28  1  1  0  0  0
  3 29  1  0  0  0  0
 11 30  1  6  0  0  0
 21 31  1  0  0  0  0
 26 32  2  0  0  0  0
 26 33  1  0  0  0  0
 34 28  1  1  0  0  0
 34 35  1  0  0  0  0
 35 36  1  0  0  0  0
 36 37  1  0  0  0  0
 37 38  1  0  0  0  0
 38 39  1  0  0  0  0
 39 34  1  0  0  0  0
 37 40  1  1  0  0  0
 38 41  1  1  0  0  0
 39 42  1  6  0  0  0
 43 40  1  1  0  0  0
 43 44  1  0  0  0  0
 44 45  1  0  0  0  0
 45 46  1  0  0  0  0
 46 47  1  0  0  0  0
 47 48  1  0  0  0  0
 48 43  1  0  0  0  0
 45 49  1  1  0  0  0
 47 50  1  1  0  0  0
 46 51  1  6  0  0  0
 48 52  1  6  0  0  0
 49 53  1  0  0  0  0
 54 55  1  0  0  0  0
 55 56  1  0  0  0  0
 56 57  1  0  0  0  0
 57 58  1  0  0  0  0
 58 59  1  0  0  0  0
 59 54  1  0  0  0  0
 57 60  1  1  0  0  0
 56 61  1  6  0  0  0
 58 62  1  6  0  0  0
 59 63  1  6  0  0  0
 54 42  1  1  0  0  0
  4 64  1  6  0  0  0
 10 65  1  6  0  0  0
 18 66  1  1  0  0  0
 30 67  1  0  0  0  0
M  END
>  <cdx:fragmentId>
5

$$$$
