93697.cdx
  Mrv1902 05222410272D          

 23 24  0  0  0  0            999 V2000
    6.4598  -10.1773    0.0000 C   0  0  0  0  0  0  0  0  0  0  0  0
    6.4601   -9.3523    0.0000 C   0  0  0  0  0  0  0  0  0  0  0  0
    7.1741  -10.5901    0.0000 O   0  0  0  0  0  0  0  0  0  0  0  0
    5.7452  -10.5896    0.0000 O   0  0  0  0  0  0  0  0  0  0  0  0
    7.1747   -8.9401    0.0000 C   0  0  0  0  0  0  0  0  0  0  0  0
    7.1750   -8.1151    0.0000 C   0  0  0  0  0  0  0  0  0  0  0  0
    7.8896   -7.7028    0.0000 C   0  0  0  0  0  0  0  0  0  0  0  0
    8.6040   -8.1156    0.0000 C   0  0  0  0  0  0  0  0  0  0  0  0
    8.6037   -8.9406    0.0000 C   0  0  0  0  0  0  0  0  0  0  0  0
    7.8891   -9.3528    0.0000 C   0  0  0  0  0  0  0  0  0  0  0  0
    9.3186   -7.7033    0.0000 O   0  0  0  0  0  0  0  0  0  0  0  0
    6.4604   -8.5273    0.0000 O   0  0  0  0  0  0  0  0  0  0  0  0
    7.1740   -6.4508    0.0000 C   0  0  2  0  0  0  0  0  0  0  0  0
    6.4592   -6.0388    0.0000 C   0  0  2  0  0  0  0  0  0  0  0  0
    5.7450   -6.4517    0.0000 C   0  0  1  0  0  0  0  0  0  0  0  0
    5.7455   -7.2767    0.0000 C   0  0  2  0  0  0  0  0  0  0  0  0
    6.4603   -7.6888    0.0000 C   0  0  1  0  0  0  0  0  0  0  0  0
    7.1745   -7.2758    0.0000 O   0  0  0  0  0  0  0  0  0  0  0  0
    7.8882   -6.0379    0.0000 C   0  0  0  0  0  0  0  0  0  0  0  0
    5.0303   -6.0397    0.0000 O   0  0  0  0  0  0  0  0  0  0  0  0
    6.4587   -5.2138    0.0000 O   0  0  0  0  0  0  0  0  0  0  0  0
    5.0313   -7.6897    0.0000 O   0  0  0  0  0  0  0  0  0  0  0  0
    7.8877   -5.2129    0.0000 O   0  0  0  0  0  0  0  0  0  0  0  0
  1  2  1  0  0  0  0
  1  3  2  0  0  0  0
  1  4  1  0  0  0  0
  5  6  1  0  0  0  0
  6  7  1  0  0  0  0
  7  8  1  0  0  0  0
  8  9  1  0  0  0  0
  9 10  1  0  0  0  0
  5 10  1  0  0  0  0
  8 11  1  0  0  0  0
  5 12  1  0  0  0  0
  2  5  1  0  0  0  0
 13 14  1  0  0  0  0
 14 15  1  0  0  0  0
 15 16  1  0  0  0  0
 16 17  1  0  0  0  0
 17 18  1  0  0  0  0
 18 13  1  0  0  0  0
 13 19  1  1  0  0  0
 15 20  1  1  0  0  0
 14 21  1  6  0  0  0
 16 22  1  6  0  0  0
 19 23  1  0  0  0  0
 17 12  1  1  0  0  0
M  END
>  <cdx:fragmentId>
13

$$$$
