93690.cdx
  Mrv1902 05222410282D          

 21 22  0  0  0  0            999 V2000
    4.7556   -7.9612    0.0000 C   0  0  0  0  0  0  0  0  0  0  0  0
    4.7556   -8.7862    0.0000 C   0  0  0  0  0  0  0  0  0  0  0  0
    5.4700   -9.1987    0.0000 N   0  0  0  0  0  0  0  0  0  0  0  0
    6.1845   -8.7862    0.0000 C   0  0  0  0  0  0  0  0  0  0  0  0
    6.1845   -7.9612    0.0000 O   0  0  0  0  0  0  0  0  0  0  0  0
    5.4700   -7.5488    0.0000 O   0  0  0  0  0  0  0  0  0  0  0  0
    6.8990   -9.1987    0.0000 C   0  0  0  0  0  0  0  0  0  0  0  0
    7.6134   -8.7862    0.0000 C   0  0  0  0  0  0  0  0  0  0  0  0
    7.6134   -7.9612    0.0000 C   0  0  0  0  0  0  0  0  0  0  0  0
    6.8990   -7.5488    0.0000 C   0  0  0  0  0  0  0  0  0  0  0  0
    3.9709   -7.7063    0.0000 C   0  0  0  0  0  0  0  0  0  0  0  0
    3.4860   -8.3737    0.0000 C   0  0  0  0  0  0  0  0  0  0  0  0
    3.9709   -9.0412    0.0000 C   0  0  0  0  0  0  0  0  0  0  0  0
    8.2265   -7.4092    0.0000 C   0  0  0  0  0  0  0  0  0  0  0  0
    7.8910   -6.6555    0.0000 C   0  0  0  0  0  0  0  0  0  0  0  0
    7.0705   -6.7418    0.0000 O   0  0  0  0  0  0  0  0  0  0  0  0
    9.0470   -7.4955    0.0000 O   0  0  0  0  0  0  0  0  0  0  0  0
    9.5319   -6.8280    0.0000 C   0  0  0  0  0  0  0  0  0  0  0  0
    9.1964   -6.0743    0.0000 O   0  0  0  0  0  0  0  0  0  0  0  0
   10.3524   -6.9143    0.0000 C   0  0  0  0  0  0  0  0  0  0  0  0
    3.7160   -9.8258    0.0000 O   0  0  0  0  0  0  0  0  0  0  0  0
  1  2  1  0  0  0  0
  2  3  1  0  0  0  0
  3  4  1  0  0  0  0
  4  5  2  0  0  0  0
  6  1  2  0  0  0  0
  4  7  1  0  0  0  0
  7  8  2  0  0  0  0
  8  9  1  0  0  0  0
  9 10  2  0  0  0  0
  1 11  1  0  0  0  0
 11 12  1  0  0  0  0
 12 13  1  0  0  0  0
 13  2  2  0  0  0  0
  9 14  1  0  0  0  0
 14 15  1  0  0  0  0
 15 16  1  0  0  0  0
 16 10  1  0  0  0  0
 14 17  1  0  0  0  0
 17 18  1  0  0  0  0
 18 19  2  0  0  0  0
 18 20  1  0  0  0  0
 13 21  1  0  0  0  0
M  END
>  <cdx:fragmentId>
5

$$$$
