93693.cdx
  Mrv1902 05222410272D          

 48 52  0  0  0  0            999 V2000
    5.6768   -3.2450    0.0000 C   0  0  0  0  0  0  0  0  0  0  0  0
    5.6768   -4.0700    0.0000 C   0  0  1  0  0  0  0  0  0  0  0  0
    6.3913   -4.4825    0.0000 O   0  0  0  0  0  0  0  0  0  0  0  0
    4.9623   -2.8325    0.0000 O   0  0  0  0  0  0  0  0  0  0  0  0
    4.9623   -4.4825    0.0000 C   0  0  2  0  0  0  0  0  0  0  0  0
    4.9623   -5.3075    0.0000 C   0  0  1  0  0  0  0  0  0  0  0  0
    5.6768   -5.7200    0.0000 C   0  0  2  0  0  0  0  0  0  0  0  0
    6.3913   -5.3075    0.0000 C   0  0  2  0  0  0  0  0  0  0  0  0
    5.6768   -6.5450    0.0000 O   0  0  0  0  0  0  0  0  0  0  0  0
    6.3913   -6.9575    0.0000 O   0  0  0  0  0  0  0  0  0  0  0  0
    7.1057   -6.5450    0.0000 C   0  0  1  0  0  0  0  0  0  0  0  0
    7.1057   -5.7200    0.0000 O   0  0  0  0  0  0  0  0  0  0  0  0
    6.3913   -7.7825    0.0000 C   0  0  0  0  0  0  0  0  0  0  0  0
    7.1057   -8.1950    0.0000 C   0  0  0  0  0  0  0  0  0  0  0  0
    7.8202   -7.7825    0.0000 C   0  0  2  0  0  0  0  0  0  0  0  0
    7.8202   -6.9575    0.0000 C   0  0  1  0  0  0  0  0  0  0  0  0
    8.6048   -8.0374    0.0000 C   0  0  1  0  0  0  0  0  0  0  0  0
    9.0898   -7.3700    0.0000 C   0  0  0  0  0  0  0  0  0  0  0  0
    8.6048   -6.7026    0.0000 C   0  0  0  0  0  0  0  0  0  0  0  0
    4.2479   -5.7200    0.0000 O   0  0  0  0  0  0  0  0  0  0  0  0
    7.9065   -8.6030    0.0000 O   0  0  0  0  0  0  0  0  0  0  0  0
    7.1920   -9.0155    0.0000 C   0  0  2  0  0  0  0  0  0  0  0  0
    6.4775   -8.6030    0.0000 O   0  0  0  0  0  0  0  0  0  0  0  0
    5.7630   -9.0155    0.0000 C   0  0  1  0  0  0  0  0  0  0  0  0
    5.7630   -9.8405    0.0000 C   0  0  2  0  0  0  0  0  0  0  0  0
    6.4775  -10.2530    0.0000 C   0  0  1  0  0  0  0  0  0  0  0  0
    7.1920   -9.8405    0.0000 C   0  0  1  0  0  0  0  0  0  0  0  0
    5.0486  -10.2530    0.0000 O   0  0  0  0  0  0  0  0  0  0  0  0
    7.9065  -10.2530    0.0000 O   0  0  0  0  0  0  0  0  0  0  0  0
    4.2479   -4.0700    0.0000 O   0  0  0  0  0  0  0  0  0  0  0  0
    7.9065   -6.1370    0.0000 H   0  0  0  0  0  0  0  0  0  0  0  0
    8.8598   -8.8221    0.0000 O   0  0  0  0  0  0  0  0  0  0  0  0
    5.0486   -8.6030    0.0000 C   0  0  0  0  0  0  0  0  0  0  0  0
    6.4775  -11.0780    0.0000 O   0  0  0  0  0  0  0  0  0  0  0  0
    7.9065  -11.0780    0.0000 C   0  0  2  0  0  0  0  0  0  0  0  0
    7.1920  -11.4905    0.0000 O   0  0  0  0  0  0  0  0  0  0  0  0
    7.1920  -12.3155    0.0000 C   0  0  1  0  0  0  0  0  0  0  0  0
    7.9065  -12.7280    0.0000 C   0  0  2  0  0  0  0  0  0  0  0  0
    8.6209  -12.3155    0.0000 C   0  0  1  0  0  0  0  0  0  0  0  0
    8.6209  -11.4905    0.0000 C   0  0  1  0  0  0  0  0  0  0  0  0
    9.3354  -11.0780    0.0000 O   0  0  0  0  0  0  0  0  0  0  0  0
    7.9065  -13.5530    0.0000 O   0  0  0  0  0  0  0  0  0  0  0  0
    6.4775  -12.7280    0.0000 C   0  0  0  0  0  0  0  0  0  0  0  0
    9.3354  -12.7280    0.0000 O   0  0  0  0  0  0  0  0  0  0  0  0
    6.4775  -13.5530    0.0000 O   0  0  0  0  0  0  0  0  0  0  0  0
    4.3341   -9.0155    0.0000 O   0  0  0  0  0  0  0  0  0  0  0  0
    8.8598   -5.9179    0.0000 C   0  0  0  0  0  0  0  0  0  0  0  0
    9.6567   -5.7044    0.0000 O   0  0  0  0  0  0  0  0  0  0  0  0
  2  1  1  1  0  0  0
  2  3  1  0  0  0  0
  4  1  1  0  0  0  0
  2  5  1  0  0  0  0
  5  6  1  0  0  0  0
  6  7  1  0  0  0  0
  7  8  1  0  0  0  0
  8  3  1  0  0  0  0
  7  9  1  6  0  0  0
 10 11  1  0  0  0  0
 11 12  1  1  0  0  0
  8 12  1  1  0  0  0
 10 13  1  0  0  0  0
 13 14  2  0  0  0  0
 14 15  1  0  0  0  0
 15 16  1  0  0  0  0
 16 11  1  0  0  0  0
 15 17  1  0  0  0  0
 17 18  1  0  0  0  0
 18 19  2  0  0  0  0
 19 16  1  0  0  0  0
  6 20  1  1  0  0  0
 15 21  1  1  0  0  0
 22 21  1  1  0  0  0
 22 23  1  0  0  0  0
 23 24  1  0  0  0  0
 24 25  1  0  0  0  0
 25 26  1  0  0  0  0
 26 27  1  0  0  0  0
 27 22  1  0  0  0  0
 25 28  1  6  0  0  0
 27 29  1  6  0  0  0
  5 30  1  6  0  0  0
 16 31  1  1  0  0  0
 17 32  1  1  0  0  0
 24 33  1  1  0  0  0
 26 34  1  1  0  0  0
 35 29  1  1  0  0  0
 35 36  1  0  0  0  0
 36 37  1  0  0  0  0
 37 38  1  0  0  0  0
 38 39  1  0  0  0  0
 39 40  1  0  0  0  0
 40 35  1  0  0  0  0
 40 41  1  6  0  0  0
 38 42  1  6  0  0  0
 37 43  1  1  0  0  0
 39 44  1  1  0  0  0
 43 45  1  0  0  0  0
 33 46  1  0  0  0  0
 19 47  1  0  0  0  0
 47 48  1  0  0  0  0
M  END
>  <cdx:fragmentId>
5

$$$$
