93696.cdx
  Mrv1902 05222410262D          

 21 22  0  0  0  0            999 V2000
    3.1331   -8.3600    0.0000 C   0  0  0  0  0  0  0  0  0  0  0  0
    3.1331   -9.1850    0.0000 C   0  0  0  0  0  0  0  0  0  0  0  0
    3.8475   -9.5975    0.0000 C   0  0  0  0  0  0  0  0  0  0  0  0
    4.5620   -9.1850    0.0000 C   0  0  0  0  0  0  0  0  0  0  0  0
    4.5620   -8.3600    0.0000 C   0  0  0  0  0  0  0  0  0  0  0  0
    3.8475   -7.9475    0.0000 C   0  0  0  0  0  0  0  0  0  0  0  0
    2.4186   -9.5975    0.0000 O   0  0  0  0  0  0  0  0  0  0  0  0
    5.2765   -7.9475    0.0000 C   0  0  0  0  0  0  0  0  0  0  0  0
    5.9909   -8.3600    0.0000 C   0  0  0  0  0  0  0  0  0  0  0  0
    6.7054   -7.9475    0.0000 O   0  0  0  0  0  0  0  0  0  0  0  0
    5.9909   -9.1850    0.0000 O   0  0  0  0  0  0  0  0  0  0  0  0
    7.4199   -8.3600    0.0000 C   0  0  0  0  0  0  0  0  0  0  0  0
    8.1344   -7.9475    0.0000 C   0  0  0  0  0  0  0  0  0  0  0  0
    8.8488   -8.3600    0.0000 C   0  0  0  0  0  0  0  0  0  0  0  0
    8.8488   -9.1850    0.0000 C   0  0  0  0  0  0  0  0  0  0  0  0
    9.5633   -9.5975    0.0000 C   0  0  0  0  0  0  0  0  0  0  0  0
   10.2778   -9.1850    0.0000 C   0  0  0  0  0  0  0  0  0  0  0  0
   10.2778   -8.3600    0.0000 C   0  0  0  0  0  0  0  0  0  0  0  0
    9.5633   -7.9475    0.0000 C   0  0  0  0  0  0  0  0  0  0  0  0
    8.1344   -8.7725    0.0000 O   0  0  0  0  0  0  0  0  0  0  0  0
   10.9922   -9.5975    0.0000 O   0  0  0  0  0  0  0  0  0  0  0  0
  1  2  2  0  0  0  0
  2  3  1  0  0  0  0
  3  4  2  0  0  0  0
  4  5  1  0  0  0  0
  5  6  2  0  0  0  0
  6  1  1  0  0  0  0
  2  7  1  0  0  0  0
  5  8  1  0  0  0  0
  8  9  1  0  0  0  0
  9 10  1  0  0  0  0
  9 11  2  0  0  0  0
 10 12  1  0  0  0  0
 12 13  1  0  0  0  0
 13 14  1  0  0  0  0
 14 15  1  0  0  0  0
 15 16  1  0  0  0  0
 16 17  1  0  0  0  0
 17 18  1  0  0  0  0
 18 19  1  0  0  0  0
 19 14  1  0  0  0  0
 14 20  1  0  0  0  0
 17 21  1  0  0  0  0
M  END
>  <cdx:fragmentId>
5

$$$$
