93691.cdx
  Mrv1902 05222410282D          

 32 33  0  0  0  0            999 V2000
    3.4366  -10.4225    0.0000 O   0  0  0  0  0  0  0  0  0  0  0  0
    5.5800  -12.4850    0.0000 O   0  0  0  0  0  0  0  0  0  0  0  0
    4.1511  -10.0100    0.0000 C   0  0  0  0  0  0  0  0  0  0  0  0
    4.1511  -11.6600    0.0000 O   0  0  0  0  0  0  0  0  0  0  0  0
    7.0090  -11.6600    0.0000 O   0  0  0  0  0  0  0  0  0  0  0  0
    5.5800  -10.0100    0.0000 O   0  0  0  0  0  0  0  0  0  0  0  0
    4.8656  -10.4225    0.0000 C   0  0  1  0  0  0  0  0  0  0  0  0
    4.8656  -11.2475    0.0000 C   0  0  2  0  0  0  0  0  0  0  0  0
    5.5800  -11.6600    0.0000 C   0  0  1  0  0  0  0  0  0  0  0  0
    6.2945  -11.2475    0.0000 C   0  0  2  0  0  0  0  0  0  0  0  0
    6.2945  -10.4225    0.0000 C   0  0  2  0  0  0  0  0  0  0  0  0
    8.4379   -6.7100    0.0000 C   0  0  0  0  0  0  0  0  0  0  0  0
    9.1524   -6.2975    0.0000 C   0  0  0  0  0  0  0  0  0  0  0  0
    9.1524   -2.9975    0.0000 O   0  0  0  0  0  0  0  0  0  0  0  0
    8.4379   -5.0600    0.0000 C   0  0  0  0  0  0  0  0  0  0  0  0
    9.1524   -5.4725    0.0000 C   0  0  0  0  0  0  0  0  0  0  0  0
    9.8668   -5.0600    0.0000 C   0  0  0  0  0  0  0  0  0  0  0  0
    9.8668   -4.2350    0.0000 C   0  0  0  0  0  0  0  0  0  0  0  0
    9.1524   -3.8225    0.0000 C   0  0  0  0  0  0  0  0  0  0  0  0
    8.4379   -4.2350    0.0000 C   0  0  0  0  0  0  0  0  0  0  0  0
    8.4379   -7.5350    0.0000 C   0  0  0  0  0  0  0  0  0  0  0  0
    9.1524   -7.9475    0.0000 O   0  0  0  0  0  0  0  0  0  0  0  0
    7.7234   -7.9475    0.0000 O   0  0  0  0  0  0  0  0  0  0  0  0
    7.7234   -8.7725    0.0000 C   0  0  0  0  0  0  0  0  0  0  0  0
    7.0090   -9.1850    0.0000 C   0  0  1  0  0  0  0  0  0  0  0  0
    7.0090  -10.0100    0.0000 O   0  0  0  0  0  0  0  0  0  0  0  0
    6.2945   -8.7725    0.0000 C   0  0  0  0  0  0  0  0  0  0  0  0
    6.2945   -7.9475    0.0000 O   0  0  0  0  0  0  0  0  0  0  0  0
    5.5800   -7.5350    0.0000 C   0  0  0  0  0  0  0  0  0  0  0  0
    5.5800   -6.7100    0.0000 C   0  0  0  0  0  0  0  0  0  0  0  0
    4.8656   -7.9475    0.0000 O   0  0  0  0  0  0  0  0  0  0  0  0
   10.5813   -3.8225    0.0000 O   0  0  0  0  0  0  0  0  0  0  0  0
  3  1  1  0  0  0  0
  9  2  1  1  0  0  0
  7  3  1  1  0  0  0
  8  4  1  6  0  0  0
 10  5  1  6  0  0  0
  6 11  1  0  0  0  0
  7  6  1  0  0  0  0
  8  7  1  0  0  0  0
  9  8  1  0  0  0  0
 10  9  1  0  0  0  0
 11 10  1  0  0  0  0
 11 26  1  1  0  0  0
 13 12  2  0  0  0  0
 16 13  1  0  0  0  0
 19 14  1  0  0  0  0
 15 20  1  0  0  0  0
 16 15  2  0  0  0  0
 17 16  1  0  0  0  0
 18 17  2  0  0  0  0
 19 18  1  0  0  0  0
 20 19  2  0  0  0  0
 12 21  1  0  0  0  0
 21 22  2  0  0  0  0
 21 23  1  0  0  0  0
 23 24  1  0  0  0  0
 24 25  1  0  0  0  0
 25 26  1  1  0  0  0
 25 27  1  0  0  0  0
 27 28  1  0  0  0  0
 28 29  1  0  0  0  0
 29 30  1  0  0  0  0
 29 31  2  0  0  0  0
 18 32  1  0  0  0  0
M  END
>  <cdx:fragmentId>
5

$$$$
