93692.cdx
  Mrv1902 05222410272D          

 30 31  0  0  0  0            999 V2000
    7.6917   -9.4224    0.0000 O   0  0  0  0  0  0  0  0  0  0  0  0
    6.2571  -10.2376    0.0000 O   0  0  0  0  0  0  0  0  0  0  0  0
    6.2628   -9.4126    0.0000 C   0  0  0  0  0  0  0  0  0  0  0  0
    6.9801   -9.0050    0.0000 C   0  0  1  0  0  0  0  0  0  0  0  0
    6.9857   -8.1800    0.0000 C   0  0  0  0  0  0  0  0  0  0  0  0
    6.9970   -6.5301    0.0000 O   0  0  0  0  0  0  0  0  0  0  0  0
    7.7030   -7.7724    0.0000 O   0  0  0  0  0  0  0  0  0  0  0  0
    7.7086   -6.9474    0.0000 C   0  0  0  0  0  0  0  0  0  0  0  0
    8.4259   -6.5398    0.0000 C   0  0  0  0  0  0  0  0  0  0  0  0
    8.4316   -5.7149    0.0000 C   0  0  0  0  0  0  0  0  0  0  0  0
   10.5947   -2.8421    0.0000 C   0  0  0  0  0  0  0  0  0  0  0  0
    9.8774   -3.2497    0.0000 O   0  0  0  0  0  0  0  0  0  0  0  0
   11.3007   -4.0845    0.0000 O   0  0  0  0  0  0  0  0  0  0  0  0
    9.1545   -4.4823    0.0000 C   0  0  0  0  0  0  0  0  0  0  0  0
    9.1489   -5.3073    0.0000 C   0  0  0  0  0  0  0  0  0  0  0  0
    9.8605   -5.7247    0.0000 C   0  0  0  0  0  0  0  0  0  0  0  0
   10.5778   -5.3171    0.0000 C   0  0  0  0  0  0  0  0  0  0  0  0
    5.5398  -10.6451    0.0000 C   0  0  2  0  0  0  0  0  0  0  0  0
    4.8282  -10.2277    0.0000 O   0  0  0  0  0  0  0  0  0  0  0  0
    4.1109  -10.6353    0.0000 C   0  0  1  0  0  0  0  0  0  0  0  0
    4.1052  -11.4602    0.0000 C   0  0  2  0  0  0  0  0  0  0  0  0
    4.8168  -11.8777    0.0000 C   0  0  1  0  0  0  0  0  0  0  0  0
    5.5341  -11.4701    0.0000 C   0  0  1  0  0  0  0  0  0  0  0  0
    3.3993  -10.2178    0.0000 C   0  0  0  0  0  0  0  0  0  0  0  0
    2.6820  -10.6254    0.0000 O   0  0  0  0  0  0  0  0  0  0  0  0
   10.5834   -4.4921    0.0000 C   0  0  0  0  0  0  0  0  0  0  0  0
    9.8718   -4.0747    0.0000 C   0  0  0  0  0  0  0  0  0  0  0  0
    3.3879  -11.8678    0.0000 O   0  0  0  0  0  0  0  0  0  0  0  0
    6.2457  -11.8875    0.0000 O   0  0  0  0  0  0  0  0  0  0  0  0
    4.8111  -12.7027    0.0000 O   0  0  0  0  0  0  0  0  0  0  0  0
  4  1  1  1  0  0  0
  3  2  1  0  0  0  0
  4  3  1  0  0  0  0
  5  4  1  0  0  0  0
  7  5  1  0  0  0  0
  8  6  2  0  0  0  0
  8  7  1  0  0  0  0
  9  8  1  0  0  0  0
 10  9  2  0  0  0  0
 15 10  1  0  0  0  0
 12 11  1  0  0  0  0
 27 12  1  0  0  0  0
 26 13  1  0  0  0  0
 14 27  1  0  0  0  0
 15 14  2  0  0  0  0
 16 15  1  0  0  0  0
 17 16  2  0  0  0  0
 26 17  1  0  0  0  0
 27 26  2  0  0  0  0
 18  2  1  1  0  0  0
 18 19  1  0  0  0  0
 19 20  1  0  0  0  0
 20 21  1  0  0  0  0
 21 22  1  0  0  0  0
 22 23  1  0  0  0  0
 23 18  1  0  0  0  0
 20 24  1  1  0  0  0
 24 25  1  0  0  0  0
 21 28  1  6  0  0  0
 23 29  1  6  0  0  0
 22 30  1  1  0  0  0
M  END
>  <cdx:fragmentId>
5

$$$$
