93708.cdx
  Mrv1902 05222410272D          

  9  8  0  0  0  0            999 V2000
    4.5075   -7.8513    0.0000 C   0  0  0  0  0  0  0  0  0  0  0  0
    5.2220   -7.4387    0.0000 C   0  0  0  0  0  0  0  0  0  0  0  0
    5.9365   -7.8513    0.0000 O   0  0  0  0  0  0  0  0  0  0  0  0
    6.6509   -7.4387    0.0000 C   0  0  0  0  0  0  0  0  0  0  0  0
    7.3654   -7.8513    0.0000 O   0  0  0  0  0  0  0  0  0  0  0  0
    8.0799   -7.4387    0.0000 C   0  0  0  0  0  0  0  0  0  0  0  0
    8.7944   -7.8513    0.0000 C   0  0  0  0  0  0  0  0  0  0  0  0
    6.6509   -6.6137    0.0000 C   0  0  0  0  0  0  0  0  0  0  0  0
    7.3654   -6.2012    0.0000 C   0  0  0  0  0  0  0  0  0  0  0  0
  1  2  1  0  0  0  0
  2  3  1  0  0  0  0
  3  4  1  0  0  0  0
  4  5  1  0  0  0  0
  5  6  1  0  0  0  0
  6  7  1  0  0  0  0
  4  8  1  0  0  0  0
  8  9  1  0  0  0  0
M  END
>  <cdx:fragmentId>
3

$$$$
