93706.cdx
  Mrv1902 05222410202D          

 54 60  0  0  0  0            999 V2000
    5.2387  -10.1918    0.0000 C   0  0  2  0  0  0  0  0  0  0  0  0
    5.2387  -11.0168    0.0000 C   0  0  1  0  0  0  0  0  0  0  0  0
    5.9531  -11.4293    0.0000 C   0  0  0  0  0  0  0  0  0  0  0  0
    6.6676  -11.0168    0.0000 C   0  0  0  0  0  0  0  0  0  0  0  0
    7.3821  -11.4293    0.0000 C   0  0  0  0  0  0  0  0  0  0  0  0
    8.0965  -11.0168    0.0000 C   0  0  0  0  0  0  0  0  0  0  0  0
    8.0965  -10.1918    0.0000 C   0  0  0  0  0  0  0  0  0  0  0  0
    7.3821   -9.7793    0.0000 C   0  0  0  0  0  0  0  0  0  0  0  0
    6.6676  -10.1918    0.0000 C   0  0  0  0  0  0  0  0  0  0  0  0
    5.9531   -9.7793    0.0000 O   0  0  0  0  0  0  0  0  0  0  0  0
    4.5242  -11.4293    0.0000 O   0  0  0  0  0  0  0  0  0  0  0  0
    7.3821  -12.2543    0.0000 O   0  0  0  0  0  0  0  0  0  0  0  0
    8.8110   -9.7793    0.0000 O   0  0  0  0  0  0  0  0  0  0  0  0
    8.0965   -7.2218    0.0000 C   0  0  2  0  0  0  0  0  0  0  0  0
    8.0965   -8.0468    0.0000 C   0  0  1  0  0  0  0  0  0  0  0  0
    7.3821   -8.4593    0.0000 C   0  0  2  0  0  0  0  0  0  0  0  0
    6.6676   -8.0468    0.0000 C   0  0  0  0  0  0  0  0  0  0  0  0
    5.9531   -8.4593    0.0000 C   0  0  0  0  0  0  0  0  0  0  0  0
    5.2387   -8.0468    0.0000 C   0  0  0  0  0  0  0  0  0  0  0  0
    5.2387   -7.2218    0.0000 C   0  0  0  0  0  0  0  0  0  0  0  0
    5.9531   -6.8093    0.0000 C   0  0  0  0  0  0  0  0  0  0  0  0
    6.6676   -7.2218    0.0000 C   0  0  0  0  0  0  0  0  0  0  0  0
    7.3821   -6.8093    0.0000 O   0  0  0  0  0  0  0  0  0  0  0  0
    4.5242   -6.8093    0.0000 O   0  0  0  0  0  0  0  0  0  0  0  0
    5.9531   -9.2843    0.0000 O   0  0  0  0  0  0  0  0  0  0  0  0
    8.8110   -8.4593    0.0000 O   0  0  0  0  0  0  0  0  0  0  0  0
    8.8110   -6.8093    0.0000 C   0  0  0  0  0  0  0  0  0  0  0  0
    9.5255   -7.2218    0.0000 C   0  0  0  0  0  0  0  0  0  0  0  0
   10.2400   -6.8093    0.0000 C   0  0  0  0  0  0  0  0  0  0  0  0
   10.2400   -5.9843    0.0000 C   0  0  0  0  0  0  0  0  0  0  0  0
    9.5255   -5.5718    0.0000 C   0  0  0  0  0  0  0  0  0  0  0  0
    8.8110   -5.9843    0.0000 C   0  0  0  0  0  0  0  0  0  0  0  0
   10.9544   -5.5718    0.0000 O   0  0  0  0  0  0  0  0  0  0  0  0
   10.9544   -7.2218    0.0000 O   0  0  0  0  0  0  0  0  0  0  0  0
    4.5242   -9.7793    0.0000 C   0  0  0  0  0  0  0  0  0  0  0  0
    3.8097  -10.1918    0.0000 C   0  0  0  0  0  0  0  0  0  0  0  0
    3.0952   -9.7793    0.0000 C   0  0  0  0  0  0  0  0  0  0  0  0
    3.0952   -8.9543    0.0000 C   0  0  0  0  0  0  0  0  0  0  0  0
    3.8097   -8.5418    0.0000 C   0  0  0  0  0  0  0  0  0  0  0  0
    4.5242   -8.9543    0.0000 C   0  0  0  0  0  0  0  0  0  0  0  0
    2.3808   -8.5418    0.0000 O   0  0  0  0  0  0  0  0  0  0  0  0
    2.3808  -10.1918    0.0000 O   0  0  0  0  0  0  0  0  0  0  0  0
    8.0965   -8.8718    0.0000 H   0  0  0  0  0  0  0  0  0  0  0  0
    3.6997  -11.4578    0.0000 C   0  0  0  0  0  0  0  0  0  0  0  0
    3.3121  -12.1861    0.0000 C   0  0  0  0  0  0  0  0  0  0  0  0
    3.2627  -10.7580    0.0000 O   0  0  0  0  0  0  0  0  0  0  0  0
    2.4876  -12.2146    0.0000 C   0  0  0  0  0  0  0  0  0  0  0  0
    2.1000  -12.9429    0.0000 C   0  0  0  0  0  0  0  0  0  0  0  0
    2.5370  -13.6427    0.0000 C   0  0  0  0  0  0  0  0  0  0  0  0
    3.3615  -13.6142    0.0000 C   0  0  0  0  0  0  0  0  0  0  0  0
    3.7490  -12.8859    0.0000 C   0  0  0  0  0  0  0  0  0  0  0  0
    1.2755  -12.9714    0.0000 O   0  0  0  0  0  0  0  0  0  0  0  0
    2.1494  -14.3710    0.0000 O   0  0  0  0  0  0  0  0  0  0  0  0
    3.7984  -14.3140    0.0000 O   0  0  0  0  0  0  0  0  0  0  0  0
  1  2  1  0  0  0  0
  2  3  1  0  0  0  0
  3  4  1  0  0  0  0
  4  5  1  0  0  0  0
  5  6  2  0  0  0  0
  6  7  1  0  0  0  0
  7  8  2  0  0  0  0
  8  9  1  0  0  0  0
  4  9  2  0  0  0  0
  9 10  1  0  0  0  0
  1 10  1  0  0  0  0
  2 11  1  1  0  0  0
  5 12  1  0  0  0  0
  7 13  1  0  0  0  0
 14 15  1  0  0  0  0
 15 16  1  0  0  0  0
 16 17  1  0  0  0  0
 17 18  1  0  0  0  0
 18 19  2  0  0  0  0
 19 20  1  0  0  0  0
 20 21  2  0  0  0  0
 21 22  1  0  0  0  0
 17 22  2  0  0  0  0
 22 23  1  0  0  0  0
 14 23  1  0  0  0  0
 20 24  1  0  0  0  0
 18 25  1  0  0  0  0
 15 26  1  6  0  0  0
 27 28  1  0  0  0  0
 28 29  2  0  0  0  0
 29 30  1  0  0  0  0
 30 31  2  0  0  0  0
 31 32  1  0  0  0  0
 27 32  2  0  0  0  0
 30 33  1  0  0  0  0
 29 34  1  0  0  0  0
 14 27  1  6  0  0  0
  8 16  1  0  0  0  0
 35 36  1  0  0  0  0
 36 37  2  0  0  0  0
 37 38  1  0  0  0  0
 38 39  2  0  0  0  0
 39 40  1  0  0  0  0
 35 40  2  0  0  0  0
 38 41  1  0  0  0  0
 37 42  1  0  0  0  0
  1 35  1  1  0  0  0
 16 43  1  6  0  0  0
 11 44  1  0  0  0  0
 44 45  1  0  0  0  0
 44 46  2  0  0  0  0
 45 47  2  0  0  0  0
 47 48  1  0  0  0  0
 48 49  2  0  0  0  0
 49 50  1  0  0  0  0
 50 51  2  0  0  0  0
 51 45  1  0  0  0  0
 48 52  1  0  0  0  0
 49 53  1  0  0  0  0
 50 54  1  0  0  0  0
M  END
>  <cdx:fragmentId>
3664

$$$$
