93702.cdx
  Mrv1902 05222410182D          

 50 54  0  0  0  0            999 V2000
    8.3921   -6.4570    0.0000 O   0  0  0  0  0  0  0  0  0  0  0  0
    9.8254   -8.0869    0.0000 C   0  0  2  0  0  0  0  0  0  0  0  0
   10.5343   -7.6650    0.0000 C   0  0  2  0  0  0  0  0  0  0  0  0
   10.5235   -6.8401    0.0000 C   0  0  1  0  0  0  0  0  0  0  0  0
    9.8036   -6.4370    0.0000 C   0  0  2  0  0  0  0  0  0  0  0  0
    9.0947   -6.8589    0.0000 C   0  0  1  0  0  0  0  0  0  0  0  0
    9.1055   -7.6838    0.0000 O   0  0  0  0  0  0  0  0  0  0  0  0
   10.5561   -9.3149    0.0000 O   0  0  0  0  0  0  0  0  0  0  0  0
   11.2325   -6.4182    0.0000 O   0  0  0  0  0  0  0  0  0  0  0  0
    9.7928   -5.6121    0.0000 O   0  0  0  0  0  0  0  0  0  0  0  0
   11.2542   -8.0681    0.0000 O   0  0  0  0  0  0  0  0  0  0  0  0
    9.8362   -8.9118    0.0000 C   0  0  0  0  0  0  0  0  0  0  0  0
    7.6771   -6.8685    0.0000 C   0  0  0  0  0  0  0  0  0  0  0  0
    6.9637   -6.4541    0.0000 C   0  0  0  0  0  0  0  0  0  0  0  0
    6.2481   -6.8685    0.0000 C   0  0  0  0  0  0  0  0  0  0  0  0
    6.2481   -7.6935    0.0000 C   0  0  0  0  0  0  0  0  0  0  0  0
    6.9637   -8.1080    0.0000 C   0  0  0  0  0  0  0  0  0  0  0  0
    7.6771   -7.6935    0.0000 C   0  0  0  0  0  0  0  0  0  0  0  0
    5.5334   -8.1055    0.0000 C   0  0  0  0  0  0  0  0  0  0  0  0
    4.8192   -7.6925    0.0000 C   0  0  0  0  0  0  0  0  0  0  0  0
    4.1044   -8.1046    0.0000 C   0  0  0  0  0  0  0  0  0  0  0  0
    3.3905   -7.6911    0.0000 C   0  0  0  0  0  0  0  0  0  0  0  0
    2.6755   -8.1046    0.0000 C   0  0  0  0  0  0  0  0  0  0  0  0
    2.6755   -8.9296    0.0000 C   0  0  0  0  0  0  0  0  0  0  0  0
    3.3905   -9.3430    0.0000 C   0  0  0  0  0  0  0  0  0  0  0  0
    4.1044   -8.9296    0.0000 C   0  0  0  0  0  0  0  0  0  0  0  0
    3.3908  -10.1680    0.0000 O   0  0  0  0  0  0  0  0  0  0  0  0
    1.9609   -7.6923    0.0000 O   0  0  0  0  0  0  0  0  0  0  0  0
    9.0729   -5.2090    0.0000 C   0  0  0  0  0  0  0  0  0  0  0  0
    8.3639   -5.6309    0.0000 O   0  0  0  0  0  0  0  0  0  0  0  0
    9.0620   -4.3841    0.0000 C   0  0  0  0  0  0  0  0  0  0  0  0
   10.5670  -10.1398    0.0000 C   0  0  0  0  0  0  0  0  0  0  0  0
   11.2868  -10.5428    0.0000 O   0  0  0  0  0  0  0  0  0  0  0  0
    9.8580  -10.5617    0.0000 C   0  0  0  0  0  0  0  0  0  0  0  0
    9.1329  -10.1681    0.0000 C   0  0  0  0  0  0  0  0  0  0  0  0
    8.4295  -10.5993    0.0000 C   0  0  0  0  0  0  0  0  0  0  0  0
    8.4295  -11.4240    0.0000 C   0  0  0  0  0  0  0  0  0  0  0  0
    9.1329  -11.8176    0.0000 C   0  0  0  0  0  0  0  0  0  0  0  0
    9.8580  -11.3864    0.0000 C   0  0  0  0  0  0  0  0  0  0  0  0
    7.7097  -10.1963    0.0000 O   0  0  0  0  0  0  0  0  0  0  0  0
    7.7179  -11.8413    0.0000 O   0  0  0  0  0  0  0  0  0  0  0  0
    9.1438  -12.6425    0.0000 O   0  0  0  0  0  0  0  0  0  0  0  0
    8.3422   -3.9811    0.0000 C   0  0  0  0  0  0  0  0  0  0  0  0
    8.3313   -3.1561    0.0000 C   0  0  0  0  0  0  0  0  0  0  0  0
    9.0484   -2.7482    0.0000 C   0  0  0  0  0  0  0  0  0  0  0  0
    9.0484   -1.9232    0.0000 C   0  0  0  0  0  0  0  0  0  0  0  0
    8.3313   -1.5062    0.0000 C   0  0  0  0  0  0  0  0  0  0  0  0
    7.6142   -1.9232    0.0000 C   0  0  0  0  0  0  0  0  0  0  0  0
    7.6142   -2.7482    0.0000 C   0  0  0  0  0  0  0  0  0  0  0  0
    8.3313   -0.6812    0.0000 O   0  0  0  0  0  0  0  0  0  0  0  0
  2  3  1  0  0  0  0
  3  4  1  0  0  0  0
  4  5  1  0  0  0  0
  5  6  1  0  0  0  0
  6  7  1  0  0  0  0
  7  2  1  0  0  0  0
  2 12  1  1  0  0  0
  4  9  1  1  0  0  0
  5 10  1  6  0  0  0
  3 11  1  6  0  0  0
  6  1  1  1  0  0  0
 12  8  1  0  0  0  0
  1 13  1  0  0  0  0
 13 14  2  0  0  0  0
 14 15  1  0  0  0  0
 15 16  2  0  0  0  0
 16 17  1  0  0  0  0
 17 18  2  0  0  0  0
 18 13  1  0  0  0  0
 16 19  1  0  0  0  0
 19 20  2  0  0  0  0
 20 21  1  0  0  0  0
 21 22  2  0  0  0  0
 22 23  1  0  0  0  0
 23 24  2  0  0  0  0
 24 25  1  0  0  0  0
 25 26  2  0  0  0  0
 26 21  1  0  0  0  0
 25 27  1  0  0  0  0
 23 28  1  0  0  0  0
 10 29  1  0  0  0  0
 29 30  2  0  0  0  0
 29 31  1  0  0  0  0
  8 32  1  0  0  0  0
 32 33  2  0  0  0  0
 32 34  1  0  0  0  0
 34 35  2  0  0  0  0
 35 36  1  0  0  0  0
 36 37  2  0  0  0  0
 37 38  1  0  0  0  0
 38 39  2  0  0  0  0
 39 34  1  0  0  0  0
 36 40  1  0  0  0  0
 37 41  1  0  0  0  0
 38 42  1  0  0  0  0
 31 43  2  0  0  0  0
 43 44  1  0  0  0  0
 44 45  2  0  0  0  0
 45 46  1  0  0  0  0
 46 47  2  0  0  0  0
 47 48  1  0  0  0  0
 48 49  2  0  0  0  0
 49 44  1  0  0  0  0
 47 50  1  0  0  0  0
M  END
>  <cdx:fragmentId>
5

$$$$
