93709.cdx
  Mrv1902 05222410262D          

 14 14  0  0  0  0            999 V2000
    5.6081   -6.2287    0.0000 C   0  0  0  0  0  0  0  0  0  0  0  0
    5.6081   -7.0537    0.0000 C   0  0  0  0  0  0  0  0  0  0  0  0
    6.3225   -7.4663    0.0000 C   0  0  0  0  0  0  0  0  0  0  0  0
    7.0370   -7.0537    0.0000 C   0  0  0  0  0  0  0  0  0  0  0  0
    7.0370   -6.2287    0.0000 C   0  0  0  0  0  0  0  0  0  0  0  0
    6.3225   -5.8163    0.0000 C   0  0  0  0  0  0  0  0  0  0  0  0
    6.3225   -4.9913    0.0000 C   0  0  0  0  0  0  0  0  0  0  0  0
    4.8936   -5.8163    0.0000 O   0  0  0  0  0  0  0  0  0  0  0  0
    7.7515   -5.8163    0.0000 O   0  0  0  0  0  0  0  0  0  0  0  0
    6.3225   -8.2912    0.0000 O   0  0  0  0  0  0  0  0  0  0  0  0
    7.7515   -7.4663    0.0000 C   0  0  0  0  0  0  0  0  0  0  0  0
    8.4659   -7.0537    0.0000 C   0  0  0  0  0  0  0  0  0  0  0  0
    7.7515   -8.2912    0.0000 O   0  0  0  0  0  0  0  0  0  0  0  0
    9.1804   -7.4663    0.0000 C   0  0  0  0  0  0  0  0  0  0  0  0
  1  2  2  0  0  0  0
  2  3  1  0  0  0  0
  3  4  2  0  0  0  0
  4  5  1  0  0  0  0
  5  6  2  0  0  0  0
  6  1  1  0  0  0  0
  6  7  1  0  0  0  0
  1  8  1  0  0  0  0
  5  9  1  0  0  0  0
  3 10  1  0  0  0  0
  4 11  1  0  0  0  0
 11 12  1  0  0  0  0
 11 13  2  0  0  0  0
 12 14  1  0  0  0  0
M  END
>  <cdx:fragmentId>
5

$$$$
