93707.cdx
  Mrv1902 05222410202D          

 55 61  0  0  0  0            999 V2000
    3.3393   -4.1525    0.0000 C   0  0  0  0  0  0  0  0  0  0  0  0
    3.3393   -4.9775    0.0000 C   0  0  0  0  0  0  0  0  0  0  0  0
    4.0538   -5.3900    0.0000 C   0  0  0  0  0  0  0  0  0  0  0  0
    4.7682   -4.9775    0.0000 C   0  0  0  0  0  0  0  0  0  0  0  0
    4.7682   -4.1525    0.0000 C   0  0  0  0  0  0  0  0  0  0  0  0
    4.0538   -3.7400    0.0000 C   0  0  0  0  0  0  0  0  0  0  0  0
    5.4827   -5.3900    0.0000 C   0  0  2  0  0  0  0  0  0  0  0  0
    6.1972   -4.9775    0.0000 C   0  0  1  0  0  0  0  0  0  0  0  0
    6.1972   -4.1525    0.0000 C   0  0  2  0  0  0  0  0  0  0  0  0
    5.4827   -3.7400    0.0000 O   0  0  0  0  0  0  0  0  0  0  0  0
    2.6248   -3.7400    0.0000 O   0  0  0  0  0  0  0  0  0  0  0  0
    4.0538   -6.2150    0.0000 O   0  0  0  0  0  0  0  0  0  0  0  0
    6.9117   -3.7400    0.0000 C   0  0  0  0  0  0  0  0  0  0  0  0
    7.6261   -4.1525    0.0000 C   0  0  0  0  0  0  0  0  0  0  0  0
    8.3406   -3.7400    0.0000 C   0  0  0  0  0  0  0  0  0  0  0  0
    8.3406   -2.9150    0.0000 C   0  0  0  0  0  0  0  0  0  0  0  0
    7.6261   -2.5025    0.0000 C   0  0  0  0  0  0  0  0  0  0  0  0
    6.9117   -2.9150    0.0000 C   0  0  0  0  0  0  0  0  0  0  0  0
    9.0551   -2.5025    0.0000 O   0  0  0  0  0  0  0  0  0  0  0  0
    9.0551   -4.1525    0.0000 O   0  0  0  0  0  0  0  0  0  0  0  0
    6.9117   -5.3900    0.0000 O   0  0  0  0  0  0  0  0  0  0  0  0
   10.4999   -7.9868    0.0000 O   0  0  0  0  0  0  0  0  0  0  0  0
   10.4797   -6.3369    0.0000 O   0  0  0  0  0  0  0  0  0  0  0  0
    9.8412  -12.5327    0.0000 O   0  0  0  0  0  0  0  0  0  0  0  0
   11.2599  -11.6902    0.0000 O   0  0  0  0  0  0  0  0  0  0  0  0
   11.2397  -10.0403    0.0000 O   0  0  0  0  0  0  0  0  0  0  0  0
    9.1116  -11.3040    0.0000 C   0  0  0  0  0  0  0  0  0  0  0  0
    9.8311  -11.7077    0.0000 C   0  0  0  0  0  0  0  0  0  0  0  0
   10.5404  -11.2865    0.0000 C   0  0  0  0  0  0  0  0  0  0  0  0
   10.5303  -10.4616    0.0000 C   0  0  0  0  0  0  0  0  0  0  0  0
    9.8108  -10.0579    0.0000 C   0  0  0  0  0  0  0  0  0  0  0  0
    7.6726  -10.4966    0.0000 O   0  0  0  0  0  0  0  0  0  0  0  0
    9.1015  -10.4791    0.0000 C   0  0  0  0  0  0  0  0  0  0  0  0
    8.3820  -10.0754    0.0000 C   0  0  0  0  0  0  0  0  0  0  0  0
    9.0711   -8.0043    0.0000 C   0  0  0  0  0  0  0  0  0  0  0  0
    9.7805   -7.5831    0.0000 C   0  0  0  0  0  0  0  0  0  0  0  0
    9.7703   -6.7581    0.0000 C   0  0  0  0  0  0  0  0  0  0  0  0
    9.0509   -6.3544    0.0000 C   0  0  0  0  0  0  0  0  0  0  0  0
    8.3415   -6.7757    0.0000 C   0  0  0  0  0  0  0  0  0  0  0  0
    8.3719   -9.2505    0.0000 O   0  0  0  0  0  0  0  0  0  0  0  0
    8.3516   -7.6006    0.0000 C   0  0  0  0  0  0  0  0  0  0  0  0
    6.9430   -9.2680    0.0000 C   0  0  0  0  0  0  0  0  0  0  0  0
    7.6524   -8.8467    0.0000 C   0  0  2  0  0  0  0  0  0  0  0  0
    7.6423   -8.0218    0.0000 C   0  0  2  0  0  0  0  0  0  0  0  0
    6.9228   -7.6181    0.0000 O   0  0  0  0  0  0  0  0  0  0  0  0
    5.5268  -10.1060    0.0000 O   0  0  0  0  0  0  0  0  0  0  0  0
    4.0690   -7.6553    0.0000 O   0  0  0  0  0  0  0  0  0  0  0  0
    4.7897   -8.0568    0.0000 C   0  0  0  0  0  0  0  0  0  0  0  0
    4.7998   -8.8818    0.0000 C   0  0  0  0  0  0  0  0  0  0  0  0
    5.5167   -9.2811    0.0000 C   0  0  0  0  0  0  0  0  0  0  0  0
    6.2236   -8.8643    0.0000 C   0  0  0  0  0  0  0  0  0  0  0  0
    6.2135   -8.0394    0.0000 C   0  0  0  0  0  0  0  0  0  0  0  0
    5.4965   -7.6313    0.0000 C   0  0  0  0  0  0  0  0  0  0  0  0
    7.6261   -1.6775    0.0000 O   0  0  0  0  0  0  0  0  0  0  0  0
    9.0407   -5.5295    0.0000 O   0  0  0  0  0  0  0  0  0  0  0  0
  1  2  2  0  0  0  0
  2  3  1  0  0  0  0
  3  4  2  0  0  0  0
  4  5  1  0  0  0  0
  5  6  2  0  0  0  0
  6  1  1  0  0  0  0
  4  7  1  0  0  0  0
  7  8  1  0  0  0  0
  8  9  1  0  0  0  0
  9 10  1  0  0  0  0
 10  5  1  0  0  0  0
  1 11  1  0  0  0  0
  3 12  1  0  0  0  0
  9 13  1  6  0  0  0
 13 14  2  0  0  0  0
 14 15  1  0  0  0  0
 15 16  2  0  0  0  0
 16 17  1  0  0  0  0
 17 18  2  0  0  0  0
 18 13  1  0  0  0  0
 16 19  1  0  0  0  0
 15 20  1  0  0  0  0
  8 21  1  1  0  0  0
 36 22  1  0  0  0  0
  7 53  1  6  0  0  0
 37 23  1  0  0  0  0
 28 24  1  0  0  0  0
 29 25  1  0  0  0  0
 30 26  1  0  0  0  0
 27 33  1  0  0  0  0
 28 27  2  0  0  0  0
 29 28  1  0  0  0  0
 30 29  2  0  0  0  0
 31 30  1  0  0  0  0
 33 31  2  0  0  0  0
 34 32  2  0  0  0  0
 34 33  1  0  0  0  0
 40 34  1  0  0  0  0
 35 41  1  0  0  0  0
 36 35  2  0  0  0  0
 37 36  1  0  0  0  0
 38 37  2  0  0  0  0
 39 38  1  0  0  0  0
 41 39  2  0  0  0  0
 43 40  1  6  0  0  0
 44 41  1  6  0  0  0
 42 51  1  0  0  0  0
 43 42  1  0  0  0  0
 44 43  1  0  0  0  0
 45 44  1  0  0  0  0
 52 45  1  0  0  0  0
 50 46  1  0  0  0  0
 48 47  1  0  0  0  0
 48 53  1  0  0  0  0
 49 48  2  0  0  0  0
 50 49  1  0  0  0  0
 51 50  2  0  0  0  0
 52 51  1  0  0  0  0
 53 52  2  0  0  0  0
 17 54  1  0  0  0  0
 38 55  1  0  0  0  0
M  END
>  <cdx:fragmentId>
5

$$$$
