93714.cdx
  Mrv1902 05222410182D          

 21 22  0  0  0  0            999 V2000
    8.8855   -7.9207    0.0000 O   0  0  0  0  0  0  0  0  0  0  0  0
    8.1712   -9.1583    0.0000 O   0  0  0  0  0  0  0  0  0  0  0  0
    8.1711   -8.3333    0.0000 C   0  0  0  0  0  0  0  0  0  0  0  0
    5.3132   -8.3337    0.0000 O   0  0  0  0  0  0  0  0  0  0  0  0
    5.3130   -6.6837    0.0000 O   0  0  0  0  0  0  0  0  0  0  0  0
    6.0275   -7.0961    0.0000 C   0  0  0  0  0  0  0  0  0  0  0  0
    6.0276   -7.9211    0.0000 C   0  0  0  0  0  0  0  0  0  0  0  0
    6.7422   -8.3335    0.0000 C   0  0  0  0  0  0  0  0  0  0  0  0
    7.4566   -7.9209    0.0000 C   0  0  0  0  0  0  0  0  0  0  0  0
    7.4565   -7.0959    0.0000 C   0  0  0  0  0  0  0  0  0  0  0  0
    6.7419   -6.6835    0.0000 C   0  0  0  0  0  0  0  0  0  0  0  0
    6.7418   -5.8585    0.0000 O   0  0  0  0  0  0  0  0  0  0  0  0
    7.4563   -5.4460    0.0000 C   0  0  2  0  0  0  0  0  0  0  0  0
    8.1708   -5.8585    0.0000 O   0  0  0  0  0  0  0  0  0  0  0  0
    8.8852   -5.4460    0.0000 C   0  0  0  0  0  0  0  0  0  0  0  0
    8.8852   -4.6210    0.0000 C   0  0  1  0  0  0  0  0  0  0  0  0
    8.1708   -4.2085    0.0000 C   0  0  1  0  0  0  0  0  0  0  0  0
    7.4563   -4.6210    0.0000 C   0  0  1  0  0  0  0  0  0  0  0  0
    9.5997   -4.2085    0.0000 O   0  0  0  0  0  0  0  0  0  0  0  0
    8.1708   -3.3835    0.0000 O   0  0  0  0  0  0  0  0  0  0  0  0
    6.7418   -4.2085    0.0000 O   0  0  0  0  0  0  0  0  0  0  0  0
  3  1  1  0  0  0  0
  3  2  2  0  0  0  0
  9  3  1  0  0  0  0
  7  4  1  0  0  0  0
  6  5  1  0  0  0  0
  6 11  1  0  0  0  0
  7  6  2  0  0  0  0
  8  7  1  0  0  0  0
  9  8  2  0  0  0  0
 10  9  1  0  0  0  0
 11 10  2  0  0  0  0
 11 12  1  0  0  0  0
 13 12  1  1  0  0  0
 13 14  1  0  0  0  0
 14 15  1  0  0  0  0
 15 16  1  0  0  0  0
 16 17  1  0  0  0  0
 17 18  1  0  0  0  0
 18 13  1  0  0  0  0
 16 19  1  1  0  0  0
 17 20  1  1  0  0  0
 18 21  1  6  0  0  0
M  END
>  <cdx:fragmentId>
5

$$$$
