93711.cdx
  Mrv1902 05222410192D          

 51 58  0  0  0  0            999 V2000
    6.3847   -6.2012    0.0000 C   0  0  0  0  0  0  0  0  0  0  0  0
    6.3847   -7.0263    0.0000 C   0  0  1  0  0  0  0  0  0  0  0  0
    7.0992   -7.4387    0.0000 C   0  0  0  0  0  0  0  0  0  0  0  0
    7.8137   -7.0263    0.0000 C   0  0  0  0  0  0  0  0  0  0  0  0
    7.8137   -6.2012    0.0000 C   0  0  2  0  0  0  0  0  0  0  0  0
    7.0992   -5.7888    0.0000 C   0  0  0  0  0  0  0  0  0  0  0  0
    8.5281   -7.4387    0.0000 C   0  0  0  0  0  0  0  0  0  0  0  0
    9.2426   -7.0263    0.0000 C   0  0  0  0  0  0  0  0  0  0  0  0
    9.2426   -6.2012    0.0000 C   0  0  0  0  0  0  0  0  0  0  0  0
    8.5281   -5.7888    0.0000 C   0  0  0  0  0  0  0  0  0  0  0  0
    9.9571   -5.7888    0.0000 C   0  0  0  0  0  0  0  0  0  0  0  0
    9.9571   -4.9637    0.0000 C   0  0  2  0  0  0  0  0  0  0  0  0
    9.2426   -4.5512    0.0000 C   0  0  0  0  0  0  0  0  0  0  0  0
    8.5281   -4.9637    0.0000 C   0  0  0  0  0  0  0  0  0  0  0  0
   11.3860   -5.7888    0.0000 C   0  0  0  0  0  0  0  0  0  0  0  0
   11.3860   -4.9637    0.0000 C   0  0  0  0  0  0  0  0  0  0  0  0
   10.6715   -4.5512    0.0000 C   0  0  0  0  0  0  0  0  0  0  0  0
   12.1005   -4.5512    0.0000 O   0  0  0  0  0  0  0  0  0  0  0  0
   12.1005   -3.7262    0.0000 C   0  0  1  0  0  0  0  0  0  0  0  0
   10.6715   -3.7262    0.0000 C   0  0  1  0  0  0  0  0  0  0  0  0
   12.8150   -4.1387    0.0000 C   0  0  0  0  0  0  0  0  0  0  0  0
   13.5294   -3.7262    0.0000 C   0  0  0  0  0  0  0  0  0  0  0  0
   13.5294   -2.9013    0.0000 C   0  0  2  0  0  0  0  0  0  0  0  0
   12.8150   -2.4888    0.0000 C   0  0  0  0  0  0  0  0  0  0  0  0
   12.1005   -2.9013    0.0000 O   0  0  0  0  0  0  0  0  0  0  0  0
    5.6702   -7.4387    0.0000 O   0  0  0  0  0  0  0  0  0  0  0  0
    7.8137   -5.3763    0.0000 C   0  0  0  0  0  0  0  0  0  0  0  0
    9.9571   -4.1387    0.0000 C   0  0  0  0  0  0  0  0  0  0  0  0
   10.0882   -3.1429    0.0000 C   0  0  0  0  0  0  0  0  0  0  0  0
   14.2439   -2.4888    0.0000 C   0  0  0  0  0  0  0  0  0  0  0  0
    3.5110   -7.8375    0.0000 C   0  0  2  0  0  0  0  0  0  0  0  0
    3.5110   -8.6625    0.0000 C   0  0  2  0  0  0  0  0  0  0  0  0
    4.2254   -9.0750    0.0000 C   0  0  1  0  0  0  0  0  0  0  0  0
    4.9399   -8.6625    0.0000 C   0  0  2  0  0  0  0  0  0  0  0  0
    4.9399   -7.8375    0.0000 C   0  0  1  0  0  0  0  0  0  0  0  0
    4.2254   -7.4250    0.0000 O   0  0  0  0  0  0  0  0  0  0  0  0
    2.7965   -7.4250    0.0000 C   0  0  0  0  0  0  0  0  0  0  0  0
    4.2254   -9.9000    0.0000 O   0  0  0  0  0  0  0  0  0  0  0  0
    2.7965   -9.0750    0.0000 O   0  0  0  0  0  0  0  0  0  0  0  0
    5.6544   -9.0750    0.0000 O   0  0  0  0  0  0  0  0  0  0  0  0
    2.0820   -7.8375    0.0000 O   0  0  0  0  0  0  0  0  0  0  0  0
    2.3643   -9.7771    0.0000 C   0  0  2  0  0  0  0  0  0  0  0  0
    1.5394   -9.7657    0.0000 O   0  0  0  0  0  0  0  0  0  0  0  0
    1.1171  -10.4745    0.0000 C   0  0  2  0  0  0  0  0  0  0  0  0
    1.5198  -11.1946    0.0000 C   0  0  1  0  0  0  0  0  0  0  0  0
    2.3447  -11.2059    0.0000 C   0  0  2  0  0  0  0  0  0  0  0  0
    2.7670  -10.4972    0.0000 C   0  0  1  0  0  0  0  0  0  0  0  0
    3.5919  -10.5085    0.0000 O   0  0  0  0  0  0  0  0  0  0  0  0
    2.7473  -11.9260    0.0000 O   0  0  0  0  0  0  0  0  0  0  0  0
    0.2922  -10.4631    0.0000 C   0  0  0  0  0  0  0  0  0  0  0  0
    1.0975  -11.9033    0.0000 O   0  0  0  0  0  0  0  0  0  0  0  0
  1  2  1  0  0  0  0
  2  3  1  0  0  0  0
  3  4  1  0  0  0  0
  4  5  1  0  0  0  0
  5  6  1  0  0  0  0
  6  1  1  0  0  0  0
  4  7  2  0  0  0  0
  7  8  1  0  0  0  0
  8  9  1  0  0  0  0
  9 10  1  0  0  0  0
 10  5  1  0  0  0  0
  9 11  1  0  0  0  0
 11 12  1  0  0  0  0
 12 13  1  0  0  0  0
 13 14  1  0  0  0  0
 14 10  1  0  0  0  0
 15 16  1  0  0  0  0
 16 17  1  0  0  0  0
 17 12  1  0  0  0  0
 16 18  1  0  0  0  0
 18 19  1  0  0  0  0
 20 17  1  0  0  0  0
 19 21  1  1  0  0  0
 21 22  1  0  0  0  0
 22 23  1  0  0  0  0
 23 24  1  0  0  0  0
 24 25  1  0  0  0  0
 19 25  1  6  0  0  0
 20 19  1  0  0  0  0
 11 15  1  0  0  0  0
  2 26  1  1  0  0  0
  5 27  1  1  0  0  0
 12 28  1  1  0  0  0
 20 29  1  6  0  0  0
 23 30  1  6  0  0  0
 31 32  1  0  0  0  0
 32 33  1  0  0  0  0
 33 34  1  0  0  0  0
 34 35  1  0  0  0  0
 35 36  1  0  0  0  0
 36 31  1  0  0  0  0
 31 37  1  1  0  0  0
 33 38  1  1  0  0  0
 32 39  1  6  0  0  0
 34 40  1  6  0  0  0
 37 41  1  0  0  0  0
 35 26  1  1  0  0  0
 42 43  1  0  0  0  0
 43 44  1  0  0  0  0
 44 45  1  0  0  0  0
 45 46  1  0  0  0  0
 46 47  1  0  0  0  0
 47 42  1  0  0  0  0
 47 48  1  6  0  0  0
 46 49  1  6  0  0  0
 44 50  1  6  0  0  0
 45 51  1  1  0  0  0
 42 39  1  1  0  0  0
M  END
>  <cdx:fragmentId>
5

$$$$
