93716.cdx
  Mrv1902 05222410182D          

 20 22  0  0  0  0            999 V2000
    7.2582   -5.1087    0.0000 C   0  0  0  0  0  0  0  0  0  0  0  0
    6.6698   -4.5305    0.0000 C   0  0  0  0  0  0  0  0  0  0  0  0
    5.9590   -4.9492    0.0000 C   0  0  0  0  0  0  0  0  0  0  0  0
    5.2409   -4.5429    0.0000 C   0  0  0  0  0  0  0  0  0  0  0  0
    5.2338   -3.7179    0.0000 C   0  0  0  0  0  0  0  0  0  0  0  0
    5.9446   -3.2992    0.0000 C   0  0  0  0  0  0  0  0  0  0  0  0
    6.6627   -3.7055    0.0000 C   0  0  0  0  0  0  0  0  0  0  0  0
    7.2409   -3.1171    0.0000 O   0  0  0  0  0  0  0  0  0  0  0  0
    8.0659   -3.1099    0.0000 C   0  0  0  0  0  0  0  0  0  0  0  0
    8.6543   -3.6882    0.0000 C   0  0  0  0  0  0  0  0  0  0  0  0
    8.6615   -4.5132    0.0000 C   0  0  0  0  0  0  0  0  0  0  0  0
    8.0832   -5.1016    0.0000 C   0  0  0  0  0  0  0  0  0  0  0  0
    8.5019   -5.8125    0.0000 C   0  0  0  0  0  0  0  0  0  0  0  0
    8.0956   -6.5305    0.0000 C   0  0  0  0  0  0  0  0  0  0  0  0
    7.2706   -6.5376    0.0000 C   0  0  0  0  0  0  0  0  0  0  0  0
    6.8520   -5.8268    0.0000 C   0  0  0  0  0  0  0  0  0  0  0  0
    9.4138   -3.3659    0.0000 O   0  0  0  0  0  0  0  0  0  0  0  0
    6.8644   -7.2557    0.0000 O   0  0  0  0  0  0  0  0  0  0  0  0
    8.5143   -7.2413    0.0000 O   0  0  0  0  0  0  0  0  0  0  0  0
    4.5158   -3.3116    0.0000 O   0  0  0  0  0  0  0  0  0  0  0  0
  1  2  1  0  0  0  0
  2  3  1  0  0  0  0
  3  4  2  0  0  0  0
  4  5  1  0  0  0  0
  5  6  2  0  0  0  0
  6  7  1  0  0  0  0
  7  8  1  0  0  0  0
  8  9  1  0  0  0  0
  9 10  1  0  0  0  0
 10 11  1  0  0  0  0
 11 12  1  0  0  0  0
 12 13  2  0  0  0  0
 13 14  1  0  0  0  0
 14 15  2  0  0  0  0
 15 16  1  0  0  0  0
  1 16  2  0  0  0  0
  1 12  1  0  0  0  0
  2  7  2  0  0  0  0
 10 17  2  0  0  0  0
 15 18  1  0  0  0  0
 14 19  1  0  0  0  0
  5 20  1  0  0  0  0
M  END
>  <cdx:fragmentId>
82

$$$$
