93715.cdx
  Mrv1902 05222410192D          

 43 50  0  0  0  0            999 V2000
    2.8993   -4.2213    0.0000 C   0  0  0  0  0  0  0  0  0  0  0  0
    2.8993   -5.0462    0.0000 C   0  0  0  0  0  0  0  0  0  0  0  0
    3.6138   -5.4588    0.0000 C   0  0  0  0  0  0  0  0  0  0  0  0
    4.3282   -5.0462    0.0000 C   0  0  0  0  0  0  0  0  0  0  0  0
    4.3282   -4.2213    0.0000 C   0  0  0  0  0  0  0  0  0  0  0  0
    3.6138   -3.8087    0.0000 C   0  0  0  0  0  0  0  0  0  0  0  0
    5.0427   -5.4588    0.0000 C   0  0  2  0  0  0  0  0  0  0  0  0
    5.7572   -5.0462    0.0000 C   0  0  2  0  0  0  0  0  0  0  0  0
    5.7572   -4.2213    0.0000 C   0  0  0  0  0  0  0  0  0  0  0  0
    5.0427   -3.8087    0.0000 O   0  0  0  0  0  0  0  0  0  0  0  0
    5.2142   -6.2657    0.0000 C   0  0  0  0  0  0  0  0  0  0  0  0
    6.0347   -6.3520    0.0000 C   0  0  0  0  0  0  0  0  0  0  0  0
    6.3703   -5.5983    0.0000 C   0  0  0  0  0  0  0  0  0  0  0  0
    4.7293   -6.9332    0.0000 C   0  0  0  0  0  0  0  0  0  0  0  0
    5.0649   -7.6868    0.0000 C   0  0  0  0  0  0  0  0  0  0  0  0
    5.8854   -7.7731    0.0000 C   0  0  0  0  0  0  0  0  0  0  0  0
    6.3703   -7.1056    0.0000 C   0  0  0  0  0  0  0  0  0  0  0  0
    2.1848   -3.8087    0.0000 O   0  0  0  0  0  0  0  0  0  0  0  0
    6.5109   -4.7107    0.0000 O   0  0  0  0  0  0  0  0  0  0  0  0
    4.5800   -8.3543    0.0000 O   0  0  0  0  0  0  0  0  0  0  0  0
    6.2209   -8.5267    0.0000 O   0  0  0  0  0  0  0  0  0  0  0  0
    7.1500   -4.2625    0.0000 C   0  0  0  0  0  0  0  0  0  0  0  0
    7.8911   -4.2859    0.0000 C   0  0  1  0  0  0  0  0  0  0  0  0
    7.8854   -5.1108    0.0000 C   0  0  0  0  0  0  0  0  0  0  0  0
    8.4647   -5.6982    0.0000 C   0  0  0  0  0  0  0  0  0  0  0  0
    9.2896   -5.7040    0.0000 C   0  0  0  0  0  0  0  0  0  0  0  0
    9.8771   -5.1247    0.0000 C   0  0  0  0  0  0  0  0  0  0  0  0
    9.8828   -4.2997    0.0000 C   0  0  0  0  0  0  0  0  0  0  0  0
    9.3035   -3.7123    0.0000 O   0  0  0  0  0  0  0  0  0  0  0  0
    8.4785   -3.7066    0.0000 C   0  0  0  0  0  0  0  0  0  0  0  0
    8.0472   -6.4098    0.0000 C   0  0  0  0  0  0  0  0  0  0  0  0
    8.4647   -7.1272    0.0000 C   0  0  0  0  0  0  0  0  0  0  0  0
    9.2896   -7.1272    0.0000 C   0  0  0  0  0  0  0  0  0  0  0  0
    9.7071   -6.4098    0.0000 C   0  0  0  0  0  0  0  0  0  0  0  0
   10.5886   -5.5422    0.0000 C   0  0  0  0  0  0  0  0  0  0  0  0
   11.3060   -5.1247    0.0000 C   0  0  0  0  0  0  0  0  0  0  0  0
   11.3060   -4.2997    0.0000 C   0  0  0  0  0  0  0  0  0  0  0  0
   10.5886   -3.8823    0.0000 C   0  0  0  0  0  0  0  0  0  0  0  0
    8.0534   -7.8423    0.0000 O   0  0  0  0  0  0  0  0  0  0  0  0
    9.7009   -7.8423    0.0000 O   0  0  0  0  0  0  0  0  0  0  0  0
   12.0211   -3.8885    0.0000 O   0  0  0  0  0  0  0  0  0  0  0  0
    7.3078   -4.8692    0.0000 O   0  0  0  0  0  0  0  0  0  0  0  0
    6.4900   -3.8775    0.0000 O   0  0  0  0  0  0  0  0  0  0  0  0
  1  2  2  0  0  0  0
  2  3  1  0  0  0  0
  3  4  2  0  0  0  0
  4  5  1  0  0  0  0
  5  6  2  0  0  0  0
  6  1  1  0  0  0  0
  4  7  1  0  0  0  0
  7  8  1  0  0  0  0
  8  9  1  0  0  0  0
  9 10  1  0  0  0  0
 10  5  1  0  0  0  0
  7 11  1  0  0  0  0
 11 12  2  0  0  0  0
 12 13  1  0  0  0  0
 13  8  1  0  0  0  0
 11 14  1  0  0  0  0
 14 15  2  0  0  0  0
 15 16  1  0  0  0  0
 16 17  2  0  0  0  0
 17 12  1  0  0  0  0
  1 18  1  0  0  0  0
  8 19  1  1  0  0  0
 15 20  1  0  0  0  0
 16 21  1  0  0  0  0
 19 22  1  0  0  0  0
 22 23  1  0  0  0  0
 23 24  1  0  0  0  0
 24 25  1  0  0  0  0
 25 26  2  0  0  0  0
 26 27  1  0  0  0  0
 27 28  2  0  0  0  0
 28 29  1  0  0  0  0
 29 30  1  0  0  0  0
 30 23  1  0  0  0  0
 25 31  1  0  0  0  0
 31 32  2  0  0  0  0
 32 33  1  0  0  0  0
 33 34  2  0  0  0  0
 34 26  1  0  0  0  0
 27 35  1  0  0  0  0
 35 36  2  0  0  0  0
 36 37  1  0  0  0  0
 37 38  2  0  0  0  0
 38 28  1  0  0  0  0
 32 39  1  0  0  0  0
 33 40  1  0  0  0  0
 37 41  1  0  0  0  0
 23 42  1  1  0  0  0
 22 43  1  0  0  0  0
  7 43  1  1  0  0  0
M  END
>  <cdx:fragmentId>
5

$$$$
