93710.cdx
  Mrv1902 05222410192D          

 51 58  0  0  0  0            999 V2000
    5.4156   -6.7650    0.0000 C   0  0  0  0  0  0  0  0  0  0  0  0
    5.4156   -7.5900    0.0000 C   0  0  1  0  0  0  0  0  0  0  0  0
    6.1300   -8.0025    0.0000 C   0  0  0  0  0  0  0  0  0  0  0  0
    6.8445   -7.5900    0.0000 C   0  0  0  0  0  0  0  0  0  0  0  0
    6.8445   -6.7650    0.0000 C   0  0  2  0  0  0  0  0  0  0  0  0
    6.1300   -6.3525    0.0000 C   0  0  0  0  0  0  0  0  0  0  0  0
    7.5590   -8.0025    0.0000 C   0  0  0  0  0  0  0  0  0  0  0  0
    8.2734   -7.5900    0.0000 C   0  0  0  0  0  0  0  0  0  0  0  0
    8.2734   -6.7650    0.0000 C   0  0  0  0  0  0  0  0  0  0  0  0
    7.5590   -6.3525    0.0000 C   0  0  0  0  0  0  0  0  0  0  0  0
    8.9879   -6.3525    0.0000 C   0  0  0  0  0  0  0  0  0  0  0  0
    8.9879   -5.5275    0.0000 C   0  0  2  0  0  0  0  0  0  0  0  0
    8.2734   -5.1150    0.0000 C   0  0  0  0  0  0  0  0  0  0  0  0
    7.5590   -5.5275    0.0000 C   0  0  0  0  0  0  0  0  0  0  0  0
   10.4169   -6.3525    0.0000 C   0  0  0  0  0  0  0  0  0  0  0  0
   10.4169   -5.5275    0.0000 C   0  0  0  0  0  0  0  0  0  0  0  0
    9.7024   -5.1150    0.0000 C   0  0  0  0  0  0  0  0  0  0  0  0
   11.1313   -5.1150    0.0000 O   0  0  0  0  0  0  0  0  0  0  0  0
   11.1313   -4.2900    0.0000 C   0  0  1  0  0  0  0  0  0  0  0  0
    9.7024   -4.2900    0.0000 C   0  0  1  0  0  0  0  0  0  0  0  0
   11.8458   -4.7025    0.0000 C   0  0  0  0  0  0  0  0  0  0  0  0
   12.5603   -4.2900    0.0000 C   0  0  0  0  0  0  0  0  0  0  0  0
   12.5603   -3.4650    0.0000 C   0  0  2  0  0  0  0  0  0  0  0  0
   11.8458   -3.0525    0.0000 C   0  0  0  0  0  0  0  0  0  0  0  0
   11.1313   -3.4650    0.0000 O   0  0  0  0  0  0  0  0  0  0  0  0
    4.7011   -8.0025    0.0000 O   0  0  0  0  0  0  0  0  0  0  0  0
    6.8445   -5.9400    0.0000 C   0  0  0  0  0  0  0  0  0  0  0  0
    8.9879   -4.7025    0.0000 C   0  0  0  0  0  0  0  0  0  0  0  0
    9.1190   -3.7066    0.0000 C   0  0  0  0  0  0  0  0  0  0  0  0
   13.2747   -3.0525    0.0000 C   0  0  0  0  0  0  0  0  0  0  0  0
    2.5418   -8.4013    0.0000 C   0  0  2  0  0  0  0  0  0  0  0  0
    2.5418   -9.2263    0.0000 C   0  0  2  0  0  0  0  0  0  0  0  0
    3.2563   -9.6387    0.0000 C   0  0  1  0  0  0  0  0  0  0  0  0
    3.9707   -9.2263    0.0000 C   0  0  2  0  0  0  0  0  0  0  0  0
    3.9707   -8.4013    0.0000 C   0  0  1  0  0  0  0  0  0  0  0  0
    3.2563   -7.9888    0.0000 O   0  0  0  0  0  0  0  0  0  0  0  0
    1.8273   -7.9888    0.0000 C   0  0  0  0  0  0  0  0  0  0  0  0
    3.2563  -10.4637    0.0000 O   0  0  0  0  0  0  0  0  0  0  0  0
    1.8273   -9.6387    0.0000 O   0  0  0  0  0  0  0  0  0  0  0  0
    4.6852   -9.6387    0.0000 O   0  0  0  0  0  0  0  0  0  0  0  0
    1.1129   -8.4013    0.0000 O   0  0  0  0  0  0  0  0  0  0  0  0
    4.6852  -10.4637    0.0000 C   0  0  2  0  0  0  0  0  0  0  0  0
    3.9707  -10.8762    0.0000 O   0  0  0  0  0  0  0  0  0  0  0  0
    3.9707  -11.7012    0.0000 C   0  0  2  0  0  0  0  0  0  0  0  0
    4.6852  -12.1138    0.0000 C   0  0  1  0  0  0  0  0  0  0  0  0
    5.3997  -11.7012    0.0000 C   0  0  2  0  0  0  0  0  0  0  0  0
    5.3997  -10.8762    0.0000 C   0  0  1  0  0  0  0  0  0  0  0  0
    6.1142  -10.4637    0.0000 O   0  0  0  0  0  0  0  0  0  0  0  0
    6.1142  -12.1138    0.0000 O   0  0  0  0  0  0  0  0  0  0  0  0
    3.2563  -12.1138    0.0000 C   0  0  0  0  0  0  0  0  0  0  0  0
    4.6852  -12.9388    0.0000 O   0  0  0  0  0  0  0  0  0  0  0  0
  1  2  1  0  0  0  0
  2  3  1  0  0  0  0
  3  4  1  0  0  0  0
  4  5  1  0  0  0  0
  5  6  1  0  0  0  0
  6  1  1  0  0  0  0
  4  7  2  0  0  0  0
  7  8  1  0  0  0  0
  8  9  1  0  0  0  0
  9 10  1  0  0  0  0
 10  5  1  0  0  0  0
  9 11  1  0  0  0  0
 11 12  1  0  0  0  0
 12 13  1  0  0  0  0
 13 14  1  0  0  0  0
 14 10  1  0  0  0  0
 15 16  1  0  0  0  0
 16 17  1  0  0  0  0
 17 12  1  0  0  0  0
 16 18  1  0  0  0  0
 18 19  1  0  0  0  0
 20 17  1  0  0  0  0
 19 21  1  1  0  0  0
 21 22  1  0  0  0  0
 22 23  1  0  0  0  0
 23 24  1  0  0  0  0
 24 25  1  0  0  0  0
 19 25  1  6  0  0  0
 20 19  1  0  0  0  0
 11 15  1  0  0  0  0
  2 26  1  1  0  0  0
  5 27  1  1  0  0  0
 12 28  1  1  0  0  0
 20 29  1  6  0  0  0
 23 30  1  6  0  0  0
 31 32  1  0  0  0  0
 32 33  1  0  0  0  0
 33 34  1  0  0  0  0
 34 35  1  0  0  0  0
 35 36  1  0  0  0  0
 36 31  1  0  0  0  0
 31 37  1  1  0  0  0
 33 38  1  1  0  0  0
 32 39  1  6  0  0  0
 34 40  1  6  0  0  0
 37 41  1  0  0  0  0
 42 40  1  1  0  0  0
 42 43  1  0  0  0  0
 43 44  1  0  0  0  0
 44 45  1  0  0  0  0
 45 46  1  0  0  0  0
 46 47  1  0  0  0  0
 47 42  1  0  0  0  0
 47 48  1  6  0  0  0
 46 49  1  6  0  0  0
 44 50  1  6  0  0  0
 45 51  1  1  0  0  0
 35 26  1  1  0  0  0
M  END
>  <cdx:fragmentId>
5

$$$$
