93726.cdx
  Mrv1902 05222410282D          

 18 19  0  0  0  0            999 V2000
    5.1818  -10.3950    0.0000 C   0  0  0  0  0  0  0  0  0  0  0  0
    5.1818  -11.2200    0.0000 C   0  0  0  0  0  0  0  0  0  0  0  0
    5.8963  -11.6325    0.0000 C   0  0  0  0  0  0  0  0  0  0  0  0
    6.6107  -11.2200    0.0000 C   0  0  0  0  0  0  0  0  0  0  0  0
    6.6107  -10.3950    0.0000 C   0  0  0  0  0  0  0  0  0  0  0  0
    5.8963   -9.9825    0.0000 C   0  0  0  0  0  0  0  0  0  0  0  0
    4.4673  -11.6325    0.0000 O   0  0  0  0  0  0  0  0  0  0  0  0
    5.8963   -9.1575    0.0000 C   0  0  0  0  0  0  0  0  0  0  0  0
    6.6107   -8.7450    0.0000 C   0  0  0  0  0  0  0  0  0  0  0  0
    6.6107   -7.9200    0.0000 N   0  0  0  0  0  0  0  0  0  0  0  0
    7.3252   -7.5075    0.0000 C   0  0  0  0  0  0  0  0  0  0  0  0
    7.3252   -6.6825    0.0000 C   0  0  0  0  0  0  0  0  0  0  0  0
    8.0397   -6.2700    0.0000 C   0  0  0  0  0  0  0  0  0  0  0  0
    8.7542   -6.6825    0.0000 C   0  0  0  0  0  0  0  0  0  0  0  0
    9.4686   -6.2700    0.0000 C   0  0  0  0  0  0  0  0  0  0  0  0
    9.4686   -5.4450    0.0000 C   0  0  0  0  0  0  0  0  0  0  0  0
    8.7542   -5.0325    0.0000 C   0  0  0  0  0  0  0  0  0  0  0  0
    8.0397   -5.4450    0.0000 C   0  0  0  0  0  0  0  0  0  0  0  0
  1  2  2  0  0  0  0
  2  3  1  0  0  0  0
  3  4  2  0  0  0  0
  4  5  1  0  0  0  0
  5  6  2  0  0  0  0
  6  1  1  0  0  0  0
  2  7  1  0  0  0  0
  6  8  1  0  0  0  0
  8  9  1  0  0  0  0
  9 10  1  0  0  0  0
 10 11  1  0  0  0  0
 11 12  1  0  0  0  0
 12 13  1  0  0  0  0
 13 14  2  0  0  0  0
 14 15  1  0  0  0  0
 15 16  2  0  0  0  0
 16 17  1  0  0  0  0
 17 18  2  0  0  0  0
 18 13  1  0  0  0  0
M  END
>  <cdx:fragmentId>
5

$$$$
