93724.cdx
  Mrv1902 05222410272D          

 34 37  0  0  0  0            999 V2000
   10.4998   -6.3377    0.0000 C   0  0  0  0  0  0  0  0  0  0  0  0
   10.9123   -7.0522    0.0000 C   0  0  0  0  0  0  0  0  0  0  0  0
   10.3602   -7.6653    0.0000 C   0  0  0  0  0  0  0  0  0  0  0  0
    9.6065   -7.3297    0.0000 C   0  0  1  0  0  0  0  0  0  0  0  0
    8.8921   -7.7422    0.0000 C   0  0  0  0  0  0  0  0  0  0  0  0
    8.1776   -7.3297    0.0000 C   0  0  0  0  0  0  0  0  0  0  0  0
    7.4631   -7.7422    0.0000 C   0  0  0  0  0  0  0  0  0  0  0  0
    6.7487   -7.3297    0.0000 C   0  0  0  0  0  0  0  0  0  0  0  0
    6.7487   -6.5047    0.0000 C   0  0  0  0  0  0  0  0  0  0  0  0
    7.4631   -6.0922    0.0000 C   0  0  0  0  0  0  0  0  0  0  0  0
    8.1776   -6.5047    0.0000 C   0  0  0  0  0  0  0  0  0  0  0  0
    6.0342   -6.0922    0.0000 O   0  0  0  0  0  0  0  0  0  0  0  0
    5.3197   -6.5047    0.0000 C   0  0  1  0  0  0  0  0  0  0  0  0
    5.3197   -7.3297    0.0000 C   0  0  2  0  0  0  0  0  0  0  0  0
    6.0342   -7.7422    0.0000 O   0  0  0  0  0  0  0  0  0  0  0  0
    4.6052   -7.7422    0.0000 C   0  0  1  0  0  0  0  0  0  0  0  0
    4.6052   -8.5672    0.0000 O   0  0  0  0  0  0  0  0  0  0  0  0
    3.8908   -7.3297    0.0000 C   0  0  2  0  0  0  0  0  0  0  0  0
    3.1763   -7.7422    0.0000 O   0  0  0  0  0  0  0  0  0  0  0  0
    3.8908   -6.5047    0.0000 C   0  0  2  0  0  0  0  0  0  0  0  0
    4.6052   -6.0922    0.0000 O   0  0  0  0  0  0  0  0  0  0  0  0
    3.1763   -6.0922    0.0000 C   0  0  0  0  0  0  0  0  0  0  0  0
    2.4618   -6.5047    0.0000 O   0  0  0  0  0  0  0  0  0  0  0  0
   10.5317   -8.4723    0.0000 C   0  0  0  0  0  0  0  0  0  0  0  0
   11.3164   -8.7272    0.0000 C   0  0  0  0  0  0  0  0  0  0  0  0
   11.4879   -9.5342    0.0000 C   0  0  0  0  0  0  0  0  0  0  0  0
   10.8748  -10.0862    0.0000 C   0  0  0  0  0  0  0  0  0  0  0  0
   10.0902   -9.8313    0.0000 C   0  0  0  0  0  0  0  0  0  0  0  0
    9.9187   -9.0243    0.0000 C   0  0  0  0  0  0  0  0  0  0  0  0
   11.0463  -10.8932    0.0000 O   0  0  0  0  0  0  0  0  0  0  0  0
   10.4332  -11.4452    0.0000 C   0  0  0  0  0  0  0  0  0  0  0  0
   11.9295   -8.1752    0.0000 O   0  0  0  0  0  0  0  0  0  0  0  0
   10.8353   -5.5840    0.0000 O   0  0  0  0  0  0  0  0  0  0  0  0
    9.6928   -6.5092    0.0000 O   0  0  0  0  0  0  0  0  0  0  0  0
  1  2  1  0  0  0  0
  2  3  2  0  0  0  0
  3  4  1  0  0  0  0
  5  6  1  0  0  0  0
  6  7  1  0  0  0  0
  7  8  2  0  0  0  0
  8  9  1  0  0  0  0
  9 10  2  0  0  0  0
 10 11  1  0  0  0  0
  6 11  2  0  0  0  0
 13 14  1  0  0  0  0
 14 15  1  6  0  0  0
 14 16  1  0  0  0  0
 16 17  1  1  0  0  0
 16 18  1  0  0  0  0
 18 19  1  6  0  0  0
 18 20  1  0  0  0  0
 20 21  1  0  0  0  0
 20 22  1  1  0  0  0
 22 23  1  0  0  0  0
 13 21  1  0  0  0  0
 13 12  1  1  0  0  0
  9 12  1  0  0  0  0
  4  5  1  1  0  0  0
 24 25  1  0  0  0  0
 25 26  2  0  0  0  0
 26 27  1  0  0  0  0
 27 28  2  0  0  0  0
 28 29  1  0  0  0  0
 24 29  2  0  0  0  0
 30 31  1  0  0  0  0
 27 30  1  0  0  0  0
 25 32  1  0  0  0  0
  3 24  1  0  0  0  0
  1 33  2  0  0  0  0
  1 34  1  0  0  0  0
  4 34  1  0  0  0  0
M  END
>  <cdx:groupId>
107

>  <cdx:fragmentId>
29

$$$$
