93728.cdx
  Mrv1902 05222410182D          

 68 76  0  0  0  0            999 V2000
   12.9636   -8.2500    0.0000 C   0  0  0  0  0  0  0  0  0  0  0  0
   12.9636   -9.0750    0.0000 C   0  0  1  0  0  0  0  0  0  0  0  0
   13.6780   -9.4875    0.0000 C   0  0  0  0  0  0  0  0  0  0  0  0
   14.3925   -9.0750    0.0000 C   0  0  0  0  0  0  0  0  0  0  0  0
   14.3925   -8.2500    0.0000 C   0  0  2  0  0  0  0  0  0  0  0  0
   13.6780   -7.8375    0.0000 C   0  0  0  0  0  0  0  0  0  0  0  0
   15.1070   -9.4875    0.0000 C   0  0  0  0  0  0  0  0  0  0  0  0
   15.8214   -9.0750    0.0000 C   0  0  0  0  0  0  0  0  0  0  0  0
   15.8214   -8.2500    0.0000 C   0  0  2  0  0  0  0  0  0  0  0  0
   15.1070   -7.8375    0.0000 C   0  0  2  0  0  0  0  0  0  0  0  0
   16.5359   -7.8375    0.0000 C   0  0  2  0  0  0  0  0  0  0  0  0
   16.5359   -7.0125    0.0000 C   0  0  1  0  0  0  0  0  0  0  0  0
   15.8214   -6.6000    0.0000 C   0  0  0  0  0  0  0  0  0  0  0  0
   15.1070   -7.0125    0.0000 C   0  0  0  0  0  0  0  0  0  0  0  0
   12.2491   -9.4875    0.0000 O   0  0  0  0  0  0  0  0  0  0  0  0
   14.3925   -7.4250    0.0000 C   0  0  0  0  0  0  0  0  0  0  0  0
   16.5359   -8.6625    0.0000 O   0  0  0  0  0  0  0  0  0  0  0  0
   10.8157   -7.8231    0.0000 C   0  0  2  0  0  0  0  0  0  0  0  0
   10.1013   -8.2356    0.0000 C   0  0  2  0  0  0  0  0  0  0  0  0
   10.1012   -9.0606    0.0000 C   0  0  1  0  0  0  0  0  0  0  0  0
   10.8157   -9.4731    0.0000 C   0  0  2  0  0  0  0  0  0  0  0  0
   11.5302   -9.0606    0.0000 C   0  0  1  0  0  0  0  0  0  0  0  0
   11.5302   -8.2356    0.0000 O   0  0  0  0  0  0  0  0  0  0  0  0
   10.8158   -6.9981    0.0000 C   0  0  0  0  0  0  0  0  0  0  0  0
    9.3867   -9.4730    0.0000 O   0  0  0  0  0  0  0  0  0  0  0  0
    9.3868   -7.8230    0.0000 O   0  0  0  0  0  0  0  0  0  0  0  0
   10.8157  -10.2981    0.0000 O   0  0  0  0  0  0  0  0  0  0  0  0
   10.1013   -6.5856    0.0000 O   0  0  0  0  0  0  0  0  0  0  0  0
    7.9500   -7.8263    0.0000 C   0  0  0  0  0  0  0  0  0  0  0  0
    7.2355   -8.2388    0.0000 C   0  0  2  0  0  0  0  0  0  0  0  0
    7.2355   -9.0638    0.0000 C   0  0  1  0  0  0  0  0  0  0  0  0
    7.9499   -9.4763    0.0000 C   0  0  2  0  0  0  0  0  0  0  0  0
    8.6644   -9.0638    0.0000 C   0  0  1  0  0  0  0  0  0  0  0  0
    8.6644   -8.2388    0.0000 O   0  0  0  0  0  0  0  0  0  0  0  0
    6.5210   -9.4763    0.0000 O   0  0  0  0  0  0  0  0  0  0  0  0
    6.5210   -7.8263    0.0000 O   0  0  0  0  0  0  0  0  0  0  0  0
    7.9499  -10.3013    0.0000 O   0  0  0  0  0  0  0  0  0  0  0  0
    9.1725  -11.7451    0.0000 C   0  0  1  0  0  0  0  0  0  0  0  0
    9.5870  -12.4584    0.0000 C   0  0  1  0  0  0  0  0  0  0  0  0
   10.4120  -12.4560    0.0000 C   0  0  2  0  0  0  0  0  0  0  0  0
   10.8225  -11.7404    0.0000 C   0  0  2  0  0  0  0  0  0  0  0  0
   10.4079  -11.0271    0.0000 C   0  0  1  0  0  0  0  0  0  0  0  0
    9.5829  -11.0294    0.0000 O   0  0  0  0  0  0  0  0  0  0  0  0
    9.1765  -13.1740    0.0000 O   0  0  0  0  0  0  0  0  0  0  0  0
    8.3475  -11.7474    0.0000 C   0  0  0  0  0  0  0  0  0  0  0  0
   10.8265  -13.1693    0.0000 O   0  0  0  0  0  0  0  0  0  0  0  0
   11.6475  -11.7380    0.0000 O   0  0  0  0  0  0  0  0  0  0  0  0
   16.5359   -6.1875    0.0000 C   0  0  0  0  0  0  0  0  0  0  0  0
   17.3205   -8.0924    0.0000 C   0  0  0  0  0  0  0  0  0  0  0  0
   17.8055   -7.4250    0.0000 C   0  0  1  0  0  0  0  0  0  0  0  0
   17.3205   -6.7576    0.0000 C   0  0  2  0  0  0  0  0  0  0  0  0
   18.5901   -7.1701    0.0000 O   0  0  0  0  0  0  0  0  0  0  0  0
   18.5901   -6.3451    0.0000 C   0  0  1  0  0  0  0  0  0  0  0  0
   17.8055   -6.0901    0.0000 C   0  0  1  0  0  0  0  0  0  0  0  0
   19.3438   -6.6806    0.0000 C   0  0  0  0  0  0  0  0  0  0  0  0
   20.0112   -6.1957    0.0000 C   0  0  0  0  0  0  0  0  0  0  0  0
   19.9250   -5.3752    0.0000 C   0  0  2  0  0  0  0  0  0  0  0  0
   19.1713   -5.0397    0.0000 C   0  0  0  0  0  0  0  0  0  0  0  0
   18.5038   -5.5246    0.0000 O   0  0  0  0  0  0  0  0  0  0  0  0
   16.9080   -6.0431    0.0000 O   0  0  0  0  0  0  0  0  0  0  0  0
   17.5505   -5.3055    0.0000 C   0  0  0  0  0  0  0  0  0  0  0  0
   20.5924   -4.8903    0.0000 C   0  0  0  0  0  0  0  0  0  0  0  0
   18.2180   -8.1395    0.0000 H   0  0  0  0  0  0  0  0  0  0  0  0
   15.1070   -8.6625    0.0000 H   0  0  0  0  0  0  0  0  0  0  0  0
   15.8214   -7.4250    0.0000 H   0  0  0  0  0  0  0  0  0  0  0  0
   12.0579  -11.0224    0.0000 C   0  0  0  0  0  0  0  0  0  0  0  0
   11.6434  -10.3091    0.0000 O   0  0  0  0  0  0  0  0  0  0  0  0
   12.8829  -11.0200    0.0000 C   0  0  0  0  0  0  0  0  0  0  0  0
  1  2  1  0  0  0  0
  2  3  1  0  0  0  0
  3  4  1  0  0  0  0
  4  5  1  0  0  0  0
  5  6  1  0  0  0  0
  6  1  1  0  0  0  0
  4  7  2  0  0  0  0
  7  8  1  0  0  0  0
  8  9  1  0  0  0  0
  9 10  1  0  0  0  0
 10  5  1  0  0  0  0
  9 11  1  0  0  0  0
 11 12  1  0  0  0  0
 12 13  1  0  0  0  0
 13 14  1  0  0  0  0
 14 10  1  0  0  0  0
  2 15  1  1  0  0  0
  5 16  1  1  0  0  0
 11 17  1  6  0  0  0
 18 19  1  0  0  0  0
 19 20  1  0  0  0  0
 20 21  1  0  0  0  0
 21 22  1  0  0  0  0
 22 23  1  0  0  0  0
 23 18  1  0  0  0  0
 18 24  1  1  0  0  0
 20 25  1  1  0  0  0
 19 26  1  6  0  0  0
 21 27  1  6  0  0  0
 24 28  1  0  0  0  0
 29 30  1  0  0  0  0
 30 31  1  0  0  0  0
 31 32  1  0  0  0  0
 32 33  1  0  0  0  0
 33 34  1  0  0  0  0
 34 29  1  0  0  0  0
 31 35  1  1  0  0  0
 30 36  1  6  0  0  0
 32 37  1  6  0  0  0
 38 39  1  0  0  0  0
 39 40  1  0  0  0  0
 40 41  1  0  0  0  0
 41 42  1  0  0  0  0
 42 43  1  0  0  0  0
 43 38  1  0  0  0  0
 39 44  1  1  0  0  0
 38 45  1  6  0  0  0
 40 46  1  6  0  0  0
 41 47  1  6  0  0  0
 33 25  1  1  0  0  0
 42 27  1  1  0  0  0
 22 15  1  1  0  0  0
 12 48  1  1  0  0  0
 11 49  1  0  0  0  0
 49 50  1  0  0  0  0
 50 51  1  0  0  0  0
 51 12  1  0  0  0  0
 50 52  1  0  0  0  0
 53 52  1  6  0  0  0
 53 54  1  0  0  0  0
 54 51  1  0  0  0  0
 53 55  1  0  0  0  0
 55 56  1  0  0  0  0
 56 57  1  0  0  0  0
 57 58  1  0  0  0  0
 58 59  1  0  0  0  0
 59 53  1  0  0  0  0
 51 60  1  6  0  0  0
 54 61  1  6  0  0  0
 57 62  1  6  0  0  0
 50 63  1  6  0  0  0
 10 64  1  6  0  0  0
  9 65  1  1  0  0  0
 47 66  1  0  0  0  0
 66 67  2  0  0  0  0
 66 68  1  0  0  0  0
M  END
>  <cdx:fragmentId>
109

$$$$
