93721.cdx
  Mrv1902 05222410262D          

 58 65  0  0  0  0            999 V2000
    8.4980   -5.6140    0.0000 O   0  0  0  0  0  0  0  0  0  0  0  0
    8.6326  -11.0482    0.0000 C   0  0  0  0  0  0  0  0  0  0  0  0
    9.0004  -10.3097    0.0000 C   0  0  0  0  0  0  0  0  0  0  0  0
    9.6737  -10.7863    0.0000 C   0  0  0  0  0  0  0  0  0  0  0  0
   10.4232  -10.4415    0.0000 C   0  0  0  0  0  0  0  0  0  0  0  0
   10.4993   -9.6200    0.0000 C   0  0  0  0  0  0  0  0  0  0  0  0
    9.8260   -9.1434    0.0000 C   0  0  0  0  0  0  0  0  0  0  0  0
    9.0765   -9.4882    0.0000 C   0  0  0  0  0  0  0  0  0  0  0  0
    8.8507   -8.6947    0.0000 C   0  0  0  0  0  0  0  0  0  0  0  0
    8.3535   -8.0363    0.0000 O   0  0  0  0  0  0  0  0  0  0  0  0
    7.6521   -7.6020    0.0000 C   0  0  1  0  0  0  0  0  0  0  0  0
    8.1889   -6.9755    0.0000 C   0  0  1  0  0  0  0  0  0  0  0  0
    7.9147   -6.1974    0.0000 C   0  0  2  0  0  0  0  0  0  0  0  0
    7.1037   -6.0458    0.0000 C   0  0  2  0  0  0  0  0  0  0  0  0
    6.5670   -6.6723    0.0000 O   0  0  0  0  0  0  0  0  0  0  0  0
    6.8411   -7.4504    0.0000 C   0  0  2  0  0  0  0  0  0  0  0  0
    5.7200   -7.6450    0.0000 C   0  0  0  0  0  0  0  0  0  0  0  0
    4.8950   -8.2225    0.0000 O   0  0  0  0  0  0  0  0  0  0  0  0
    4.3450   -8.9375    0.0000 C   0  0  0  0  0  0  0  0  0  0  0  0
    4.2758   -9.8457    0.0000 C   0  0  0  0  0  0  0  0  0  0  0  0
    3.5263   -9.5009    0.0000 C   0  0  0  0  0  0  0  0  0  0  0  0
    2.8530   -9.9775    0.0000 C   0  0  0  0  0  0  0  0  0  0  0  0
    2.9291  -10.7990    0.0000 C   0  0  0  0  0  0  0  0  0  0  0  0
    3.6786  -11.1438    0.0000 C   0  0  0  0  0  0  0  0  0  0  0  0
    4.3519  -10.6672    0.0000 C   0  0  0  0  0  0  0  0  0  0  0  0
    3.6305   -8.5250    0.0000 O   0  0  0  0  0  0  0  0  0  0  0  0
    9.5652   -8.2822    0.0000 O   0  0  0  0  0  0  0  0  0  0  0  0
    3.7547  -11.9653    0.0000 O   0  0  0  0  0  0  0  0  0  0  0  0
    2.2557  -11.2757    0.0000 O   0  0  0  0  0  0  0  0  0  0  0  0
    2.1035   -9.6327    0.0000 O   0  0  0  0  0  0  0  0  0  0  0  0
    6.8295   -5.2677    0.0000 O   0  0  0  0  0  0  0  0  0  0  0  0
    9.0139   -6.9755    0.0000 O   0  0  0  0  0  0  0  0  0  0  0  0
   11.2488   -9.2752    0.0000 O   0  0  0  0  0  0  0  0  0  0  0  0
   11.0966  -10.9182    0.0000 O   0  0  0  0  0  0  0  0  0  0  0  0
    9.5976  -11.6078    0.0000 O   0  0  0  0  0  0  0  0  0  0  0  0
    7.6521   -8.4270    0.0000 H   0  0  0  0  0  0  0  0  0  0  0  0
    6.1267   -7.0379    0.0000 H   0  0  0  0  0  0  0  0  0  0  0  0
    8.6319  -10.1924    0.0000 C   0  0  0  0  0  0  0  0  0  0  0  0
    7.9215   -9.7729    0.0000 C   0  0  0  0  0  0  0  0  0  0  0  0
    7.2030  -10.1785    0.0000 C   0  0  0  0  0  0  0  0  0  0  0  0
    7.1950  -11.0034    0.0000 C   0  0  0  0  0  0  0  0  0  0  0  0
    7.9054  -11.4229    0.0000 C   0  0  0  0  0  0  0  0  0  0  0  0
    6.4926   -9.7590    0.0000 O   0  0  0  0  0  0  0  0  0  0  0  0
    5.7741  -10.1646    0.0000 C   0  0  0  0  0  0  0  0  0  0  0  0
    5.7661  -10.9895    0.0000 C   0  0  0  0  0  0  0  0  0  0  0  0
    6.4765  -11.4090    0.0000 C   0  0  0  0  0  0  0  0  0  0  0  0
    6.4685  -12.2339    0.0000 C   0  0  0  0  0  0  0  0  0  0  0  0
    7.1789  -12.6533    0.0000 O   0  0  0  0  0  0  0  0  0  0  0  0
    7.8974  -12.2478    0.0000 C   0  0  0  0  0  0  0  0  0  0  0  0
    5.0477  -11.3951    0.0000 C   0  0  0  0  0  0  0  0  0  0  0  0
    5.0396  -12.2200    0.0000 C   0  0  0  0  0  0  0  0  0  0  0  0
    5.7501  -12.6394    0.0000 C   0  0  0  0  0  0  0  0  0  0  0  0
    5.0637   -9.7451    0.0000 O   0  0  0  0  0  0  0  0  0  0  0  0
    8.6078  -12.6673    0.0000 O   0  0  0  0  0  0  0  0  0  0  0  0
    4.3212  -12.6255    0.0000 O   0  0  0  0  0  0  0  0  0  0  0  0
    5.7420  -13.4644    0.0000 O   0  0  0  0  0  0  0  0  0  0  0  0
    7.9295   -8.9480    0.0000 O   0  0  0  0  0  0  0  0  0  0  0  0
    9.3482   -9.7830    0.0000 O   0  0  0  0  0  0  0  0  0  0  0  0
  2  3  1  0  0  0  0
  3  4  2  0  0  0  0
  4  5  1  0  0  0  0
  5  6  2  0  0  0  0
  6  7  1  0  0  0  0
  7  8  2  0  0  0  0
  8  9  1  0  0  0  0
  9 10  1  0  0  0  0
 10 11  1  0  0  0  0
 11 12  1  0  0  0  0
 12 13  1  0  0  0  0
 13 14  1  0  0  0  0
 14 15  1  0  0  0  0
 15 16  1  0  0  0  0
 16 17  1  0  0  0  0
 17 18  1  0  0  0  0
 18 19  1  0  0  0  0
 19 20  1  0  0  0  0
 20 21  2  0  0  0  0
 21 22  1  0  0  0  0
 22 23  2  0  0  0  0
 23 24  1  0  0  0  0
 24 25  2  0  0  0  0
 20 25  1  0  0  0  0
 11 16  1  0  0  0  0
  3  8  1  0  0  0  0
 19 26  2  0  0  0  0
  9 27  2  0  0  0  0
 24 28  1  0  0  0  0
 23 29  1  0  0  0  0
 22 30  1  0  0  0  0
 14 31  1  6  0  0  0
 12 32  1  1  0  0  0
  6 33  1  0  0  0  0
  5 34  1  0  0  0  0
  4 35  1  0  0  0  0
 13  1  1  6  0  0  0
 11 36  1  1  0  0  0
 16 37  1  6  0  0  0
 38 39  1  0  0  0  0
 39 40  2  0  0  0  0
 40 41  1  0  0  0  0
 41 42  2  0  0  0  0
 40 43  1  0  0  0  0
 43 44  1  0  0  0  0
 44 45  1  0  0  0  0
 45 46  2  0  0  0  0
 46 41  1  0  0  0  0
 46 47  1  0  0  0  0
 47 48  1  0  0  0  0
 48 49  1  0  0  0  0
 49 42  1  0  0  0  0
 45 50  1  0  0  0  0
 50 51  2  0  0  0  0
 51 52  1  0  0  0  0
 52 47  2  0  0  0  0
  2 38  2  0  0  0  0
  2 42  1  0  0  0  0
 25 50  1  0  0  0  0
 44 53  2  0  0  0  0
 49 54  2  0  0  0  0
 51 55  1  0  0  0  0
 52 56  1  0  0  0  0
 39 57  1  0  0  0  0
 38 58  1  0  0  0  0
M  END
>  <cdx:fragmentId>
222

$$$$
