93727.cdx
  Mrv1902 05222410282D          

 15 17  0  0  0  0            999 V2000
    6.8432   -7.8315    0.0000 C   0  0  0  0  0  0  0  0  0  0  0  0
    6.8432   -8.6565    0.0000 C   0  0  0  0  0  0  0  0  0  0  0  0
    6.1287   -9.0690    0.0000 C   0  0  0  0  0  0  0  0  0  0  0  0
    5.4142   -8.6565    0.0000 C   0  0  0  0  0  0  0  0  0  0  0  0
    5.4142   -7.8315    0.0000 C   0  0  0  0  0  0  0  0  0  0  0  0
    6.1287   -7.4190    0.0000 C   0  0  0  0  0  0  0  0  0  0  0  0
    7.5576   -8.2440    0.0000 C   0  0  0  0  0  0  0  0  0  0  0  0
    8.1707   -7.6920    0.0000 C   0  0  0  0  0  0  0  0  0  0  0  0
    7.8352   -6.9383    0.0000 C   0  0  0  0  0  0  0  0  0  0  0  0
    7.0147   -7.0246    0.0000 C   0  0  0  0  0  0  0  0  0  0  0  0
    6.8432  -10.3065    0.0000 C   0  0  0  0  0  0  0  0  0  0  0  0
    6.1287   -9.8940    0.0000 C   0  0  0  0  0  0  0  0  0  0  0  0
    5.4142  -10.3065    0.0000 C   0  0  0  0  0  0  0  0  0  0  0  0
    8.9777   -7.8635    0.0000 C   0  0  0  0  0  0  0  0  0  0  0  0
    6.1287   -6.5940    0.0000 C   0  0  0  0  0  0  0  0  0  0  0  0
  1  2  1  0  0  0  0
  2  3  1  0  0  0  0
  3  4  1  0  0  0  0
  4  5  1  0  0  0  0
  5  6  1  0  0  0  0
  1  6  1  0  0  0  0
  8  9  1  0  0  0  0
  9 10  1  0  0  0  0
  8  7  1  0  0  0  0
  7  1  1  0  0  0  0
 10  1  1  0  0  0  0
  7  2  1  0  0  0  0
 11 12  1  0  0  0  0
 12 13  1  0  0  0  0
  3 12  1  0  0  0  0
  8 14  2  0  0  0  0
  6 15  1  0  0  0  0
M  END
>  <cdx:groupId>
49

>  <cdx:fragmentId>
5

$$$$
