93733.cdx
  Mrv1902 05222410282D          

 65 73  0  0  0  0            999 V2000
   15.8013   -9.4569    0.0000 C   0  0  1  0  0  0  0  0  0  0  0  0
   16.5127   -9.0393    0.0000 C   0  0  2  0  0  0  0  0  0  0  0  0
   17.2992   -9.2885    0.0000 C   0  0  0  0  0  0  0  0  0  0  0  0
   17.7793   -8.6176    0.0000 C   0  0  2  0  0  0  0  0  0  0  0  0
   18.5620   -8.3570    0.0000 O   0  0  0  0  0  0  0  0  0  0  0  0
   18.5561   -7.5320    0.0000 C   0  0  2  0  0  0  0  0  0  0  0  0
   17.7696   -7.2828    0.0000 C   0  0  2  0  0  0  0  0  0  0  0  0
   17.2895   -7.9537    0.0000 C   0  0  2  0  0  0  0  0  0  0  0  0
   16.5068   -8.2143    0.0000 C   0  0  1  0  0  0  0  0  0  0  0  0
   15.7894   -7.8069    0.0000 C   0  0  0  0  0  0  0  0  0  0  0  0
   15.0779   -8.2246    0.0000 C   0  0  0  0  0  0  0  0  0  0  0  0
   15.0838   -9.0496    0.0000 C   0  0  2  0  0  0  0  0  0  0  0  0
   14.3724   -9.4672    0.0000 C   0  0  1  0  0  0  0  0  0  0  0  0
   13.6549   -9.0599    0.0000 C   0  0  1  0  0  0  0  0  0  0  0  0
   12.9435   -9.4775    0.0000 C   0  0  0  0  0  0  0  0  0  0  0  0
   12.9494  -10.3025    0.0000 C   0  0  1  0  0  0  0  0  0  0  0  0
   13.6668  -10.7098    0.0000 C   0  0  0  0  0  0  0  0  0  0  0  0
   14.3783  -10.2922    0.0000 C   0  0  0  0  0  0  0  0  0  0  0  0
   15.0958  -10.6995    0.0000 C   0  0  0  0  0  0  0  0  0  0  0  0
   15.8072  -10.2819    0.0000 C   0  0  0  0  0  0  0  0  0  0  0  0
   18.4639   -6.7122    0.0000 O   0  0  0  0  0  0  0  0  0  0  0  0
   19.3122   -7.8621    0.0000 C   0  0  0  0  0  0  0  0  0  0  0  0
   19.9761   -7.3724    0.0000 C   0  0  0  0  0  0  0  0  0  0  0  0
   19.8839   -6.5526    0.0000 C   0  0  2  0  0  0  0  0  0  0  0  0
   19.1278   -6.2225    0.0000 C   0  0  0  0  0  0  0  0  0  0  0  0
   12.2379  -10.7202    0.0000 O   0  0  0  0  0  0  0  0  0  0  0  0
   14.3664   -8.6422    0.0000 C   0  0  0  0  0  0  0  0  0  0  0  0
   16.5068   -7.3893    0.0000 C   0  0  0  0  0  0  0  0  0  0  0  0
   17.5090   -6.5000    0.0000 C   0  0  0  0  0  0  0  0  0  0  0  0
   20.5478   -6.0628    0.0000 C   0  0  0  0  0  0  0  0  0  0  0  0
   15.7953   -8.6319    0.0000 H   0  0  0  0  0  0  0  0  0  0  0  0
   16.5187   -9.8642    0.0000 H   0  0  0  0  0  0  0  0  0  0  0  0
   18.2690   -9.2815    0.0000 H   0  0  0  0  0  0  0  0  0  0  0  0
   16.9225   -7.2148    0.0000 H   0  0  0  0  0  0  0  0  0  0  0  0
   15.0898   -9.8745    0.0000 H   0  0  0  0  0  0  0  0  0  0  0  0
   13.6490   -8.2349    0.0000 O   0  0  0  0  0  0  0  0  0  0  0  0
   13.2313   -7.5234    0.0000 C   0  0  2  0  0  0  0  0  0  0  0  0
   13.6361   -6.8045    0.0000 O   0  0  0  0  0  0  0  0  0  0  0  0
   13.2158   -6.0946    0.0000 C   0  0  1  0  0  0  0  0  0  0  0  0
   12.3986   -6.0901    0.0000 C   0  0  1  0  0  0  0  0  0  0  0  0
   11.9862   -6.8045    0.0000 C   0  0  1  0  0  0  0  0  0  0  0  0
   12.3986   -7.5100    0.0000 C   0  0  1  0  0  0  0  0  0  0  0  0
   13.6264   -5.3790    0.0000 C   0  0  0  0  0  0  0  0  0  0  0  0
   11.9881   -5.3745    0.0000 O   0  0  0  0  0  0  0  0  0  0  0  0
   11.1612   -6.8068    0.0000 O   0  0  0  0  0  0  0  0  0  0  0  0
   10.5226  -10.6770    0.0000 O   0  0  0  0  0  0  0  0  0  0  0  0
   11.9651   -9.8731    0.0000 O   0  0  0  0  0  0  0  0  0  0  0  0
    9.1312   -8.1713    0.0000 C   0  0  0  0  0  0  0  0  0  0  0  0
    9.0995   -9.8281    0.0000 O   0  0  0  0  0  0  0  0  0  0  0  0
   10.5591   -8.1966    0.0000 O   0  0  0  0  0  0  0  0  0  0  0  0
    9.8379   -8.5971    0.0000 C   0  0  2  0  0  0  0  0  0  0  0  0
    9.8207   -9.4276    0.0000 C   0  0  1  0  0  0  0  0  0  0  0  0
   10.5347   -9.8521    0.0000 C   0  0  2  0  0  0  0  0  0  0  0  0
   11.2560   -9.4516    0.0000 C   0  0  2  0  0  0  0  0  0  0  0  0
   11.2632   -8.6266    0.0000 C   0  0  2  0  0  0  0  0  0  0  0  0
   11.9823   -8.2223    0.0000 O   0  0  0  0  0  0  0  0  0  0  0  0
   10.7467   -6.0934    0.0000 C   0  0  2  0  0  0  0  0  0  0  0  0
   11.1553   -5.3767    0.0000 O   0  0  0  0  0  0  0  0  0  0  0  0
   10.7467   -4.6645    0.0000 C   0  0  0  0  0  0  0  0  0  0  0  0
    9.9217   -4.6645    0.0000 C   0  0  2  0  0  0  0  0  0  0  0  0
    9.5131   -5.3767    0.0000 C   0  0  1  0  0  0  0  0  0  0  0  0
    9.9217   -6.0934    0.0000 C   0  0  1  0  0  0  0  0  0  0  0  0
    9.5073   -6.8068    0.0000 O   0  0  0  0  0  0  0  0  0  0  0  0
    8.6881   -5.3756    0.0000 O   0  0  0  0  0  0  0  0  0  0  0  0
    9.5082   -3.9506    0.0000 O   0  0  0  0  0  0  0  0  0  0  0  0
  1  2  1  0  0  0  0
  2  3  1  0  0  0  0
  3  4  1  0  0  0  0
  4  5  1  0  0  0  0
  6  5  1  6  0  0  0
  6  7  1  0  0  0  0
  7  8  1  0  0  0  0
  8  9  1  0  0  0  0
  9 10  1  0  0  0  0
 10 11  1  0  0  0  0
 11 12  1  0  0  0  0
 12 13  1  0  0  0  0
 13 14  1  0  0  0  0
 14 15  1  0  0  0  0
 15 16  1  0  0  0  0
 16 17  1  0  0  0  0
 17 18  1  0  0  0  0
 18 19  2  0  0  0  0
 19 20  1  0  0  0  0
  1 20  1  0  0  0  0
  1 12  1  0  0  0  0
 13 18  1  0  0  0  0
  2  9  1  0  0  0  0
  4  8  1  0  0  0  0
 22 23  1  0  0  0  0
 23 24  1  0  0  0  0
 24 25  1  0  0  0  0
 21 25  1  0  0  0  0
  6 21  1  0  0  0  0
  6 22  1  0  0  0  0
 16 26  1  1  0  0  0
 13 27  1  1  0  0  0
  9 28  1  1  0  0  0
  7 29  1  6  0  0  0
 24 30  1  6  0  0  0
  1 31  1  1  0  0  0
  2 32  1  6  0  0  0
  4 33  1  6  0  0  0
  8 34  1  6  0  0  0
 12 35  1  6  0  0  0
 14 36  1  1  0  0  0
 37 36  1  1  0  0  0
 37 38  1  0  0  0  0
 38 39  1  0  0  0  0
 39 40  1  0  0  0  0
 40 41  1  0  0  0  0
 41 42  1  0  0  0  0
 42 37  1  0  0  0  0
 39 43  1  1  0  0  0
 40 44  1  1  0  0  0
 41 45  1  1  0  0  0
 53 46  1  6  0  0  0
 42 56  1  6  0  0  0
 54 47  1  6  0  0  0
 51 48  1  6  0  0  0
 52 49  1  1  0  0  0
 50 55  1  0  0  0  0
 51 50  1  0  0  0  0
 52 51  1  0  0  0  0
 53 52  1  0  0  0  0
 54 53  1  0  0  0  0
 55 54  1  0  0  0  0
 55 56  1  1  0  0  0
 57 45  1  1  0  0  0
 57 58  1  0  0  0  0
 58 59  1  0  0  0  0
 59 60  1  0  0  0  0
 60 61  1  0  0  0  0
 61 62  1  0  0  0  0
 62 57  1  0  0  0  0
 62 63  1  6  0  0  0
 61 64  1  1  0  0  0
 60 65  1  6  0  0  0
M  END
>  <cdx:fragmentId>
1190

$$$$
