937309.cdx
  Mrv1902 05222410202D          

 31 34  0  0  0  0            999 V2000
    5.3683  -10.0425    0.0000 O   0  0  0  0  0  0  0  0  0  0  0  0
    3.9211   -7.5781    0.0000 O   0  0  0  0  0  0  0  0  0  0  0  0
   10.3420   -6.2931    0.0000 O   0  0  0  0  0  0  0  0  0  0  0  0
    8.2017   -6.7214    0.0000 C   0  0  0  0  0  0  0  0  0  0  0  0
    8.9131   -6.3037    0.0000 C   0  0  0  0  0  0  0  0  0  0  0  0
    9.6306   -6.7109    0.0000 C   0  0  0  0  0  0  0  0  0  0  0  0
    9.6367   -7.5358    0.0000 C   0  0  0  0  0  0  0  0  0  0  0  0
    8.9253   -7.9536    0.0000 C   0  0  0  0  0  0  0  0  0  0  0  0
    8.2078   -7.5464    0.0000 C   0  0  0  0  0  0  0  0  0  0  0  0
    9.6550  -10.0108    0.0000 O   0  0  0  0  0  0  0  0  0  0  0  0
    9.6672  -11.6607    0.0000 O   0  0  0  0  0  0  0  0  0  0  0  0
    8.2444  -12.4963    0.0000 O   0  0  0  0  0  0  0  0  0  0  0  0
    6.8094  -11.6819    0.0000 C   0  0  0  0  0  0  0  0  0  0  0  0
    7.5208  -11.2641    0.0000 C   0  0  1  0  0  0  0  0  0  0  0  0
    8.2383  -11.6713    0.0000 C   0  0  1  0  0  0  0  0  0  0  0  0
    8.9497  -11.2535    0.0000 C   0  0  2  0  0  0  0  0  0  0  0  0
    8.9436  -10.4285    0.0000 C   0  0  2  0  0  0  0  0  0  0  0  0
    8.2261  -10.0213    0.0000 C   0  0  1  0  0  0  0  0  0  0  0  0
    7.5147  -10.4391    0.0000 O   0  0  0  0  0  0  0  0  0  0  0  0
    8.2200   -9.1964    0.0000 O   0  0  0  0  0  0  0  0  0  0  0  0
    6.7972  -10.0319    0.0000 O   0  0  0  0  0  0  0  0  0  0  0  0
    6.7789   -7.5570    0.0000 O   0  0  0  0  0  0  0  0  0  0  0  0
    6.0675   -7.9748    0.0000 C   0  0  0  0  0  0  0  0  0  0  0  0
    5.3500   -7.5676    0.0000 C   0  0  0  0  0  0  0  0  0  0  0  0
    4.6386   -7.9853    0.0000 C   0  0  0  0  0  0  0  0  0  0  0  0
    4.6447   -8.8103    0.0000 C   0  0  0  0  0  0  0  0  0  0  0  0
    5.3622   -9.2175    0.0000 C   0  0  0  0  0  0  0  0  0  0  0  0
    6.0736   -8.7997    0.0000 C   0  0  0  0  0  0  0  0  0  0  0  0
    6.7911   -9.2069    0.0000 C   0  0  0  0  0  0  0  0  0  0  0  0
    7.5025   -8.7892    0.0000 C   0  0  2  0  0  0  0  0  0  0  0  0
    7.4964   -7.9642    0.0000 C   0  0  1  0  0  0  0  0  0  0  0  0
 27  1  1  0  0  0  0
 25  2  1  0  0  0  0
 31  9  1  6  0  0  0
  6  3  1  0  0  0  0
  9  4  2  0  0  0  0
  5  4  1  0  0  0  0
  6  5  2  0  0  0  0
  7  6  1  0  0  0  0
  8  7  2  0  0  0  0
  9  8  1  0  0  0  0
 30 20  1  6  0  0  0
 18 20  1  1  0  0  0
 17 10  1  6  0  0  0
 16 11  1  6  0  0  0
 15 12  1  1  0  0  0
 14 13  1  6  0  0  0
 19 14  1  0  0  0  0
 15 14  1  0  0  0  0
 16 15  1  0  0  0  0
 17 16  1  0  0  0  0
 18 17  1  0  0  0  0
 19 18  1  0  0  0  0
 29 21  2  0  0  0  0
 31 22  1  0  0  0  0
 23 22  1  0  0  0  0
 28 23  2  0  0  0  0
 24 23  1  0  0  0  0
 25 24  2  0  0  0  0
 26 25  1  0  0  0  0
 27 26  2  0  0  0  0
 28 27  1  0  0  0  0
 29 28  1  0  0  0  0
 30 29  1  0  0  0  0
 31 30  1  0  0  0  0
M  END
>  <cdx:fragmentId>
7056

$$$$
