93737.cdx
  Mrv1902 05222410262D          

 19 18  0  0  0  0            999 V2000
    2.1700   -7.9337    0.0000 C   0  0  0  0  0  0  0  0  0  0  0  0
    2.8845   -7.5213    0.0000 C   0  0  0  0  0  0  0  0  0  0  0  0
    3.5990   -7.9337    0.0000 C   0  0  0  0  0  0  0  0  0  0  0  0
    4.3134   -7.5213    0.0000 C   0  0  0  0  0  0  0  0  0  0  0  0
    5.0279   -7.9337    0.0000 C   0  0  0  0  0  0  0  0  0  0  0  0
    5.7424   -7.5213    0.0000 C   0  0  0  0  0  0  0  0  0  0  0  0
    6.4569   -7.9337    0.0000 C   0  0  0  0  0  0  0  0  0  0  0  0
    7.1713   -7.5213    0.0000 C   0  0  0  0  0  0  0  0  0  0  0  0
    7.8858   -7.9337    0.0000 C   0  0  0  0  0  0  0  0  0  0  0  0
    8.6003   -7.5213    0.0000 C   0  0  0  0  0  0  0  0  0  0  0  0
    9.3147   -7.9337    0.0000 C   0  0  0  0  0  0  0  0  0  0  0  0
   10.0292   -7.5213    0.0000 C   0  0  0  0  0  0  0  0  0  0  0  0
   10.7437   -7.9337    0.0000 C   0  0  0  0  0  0  0  0  0  0  0  0
   11.4581   -7.5213    0.0000 C   0  0  0  0  0  0  0  0  0  0  0  0
   12.1726   -7.9337    0.0000 C   0  0  0  0  0  0  0  0  0  0  0  0
    2.8845   -6.6962    0.0000 C   0  0  0  0  0  0  0  0  0  0  0  0
    5.7424   -6.6962    0.0000 C   0  0  0  0  0  0  0  0  0  0  0  0
    8.6003   -6.6962    0.0000 C   0  0  0  0  0  0  0  0  0  0  0  0
   11.4581   -6.6962    0.0000 C   0  0  0  0  0  0  0  0  0  0  0  0
  1  2  2  0  0  0  0
  2  3  1  0  0  0  0
  3  4  2  0  0  0  0
  4  5  1  0  0  0  0
  5  6  1  0  0  0  0
  6  7  1  0  0  0  0
  7  8  1  0  0  0  0
  8  9  1  0  0  0  0
  9 10  1  0  0  0  0
 10 11  1  0  0  0  0
 11 12  1  0  0  0  0
 12 13  1  0  0  0  0
 13 14  1  0  0  0  0
 14 15  1  0  0  0  0
  2 16  1  0  0  0  0
  6 17  1  0  0  0  0
 10 18  1  0  0  0  0
 14 19  1  0  0  0  0
M  END
>  <cdx:fragmentId>
3

$$$$
