93738.cdx
  Mrv1902 05222410192D          

 34 37  0  0  0  0            999 V2000
    6.2956   -6.2150    0.0000 C   0  0  0  0  0  0  0  0  0  0  0  0
    6.2956   -7.0400    0.0000 C   0  0  0  0  0  0  0  0  0  0  0  0
    7.0100   -7.4525    0.0000 C   0  0  0  0  0  0  0  0  0  0  0  0
    7.7245   -7.0400    0.0000 C   0  0  0  0  0  0  0  0  0  0  0  0
    7.7245   -6.2150    0.0000 C   0  0  0  0  0  0  0  0  0  0  0  0
    7.0100   -5.8025    0.0000 C   0  0  0  0  0  0  0  0  0  0  0  0
    8.4390   -7.4525    0.0000 C   0  0  0  0  0  0  0  0  0  0  0  0
    9.1534   -7.0400    0.0000 C   0  0  1  0  0  0  0  0  0  0  0  0
    9.1534   -6.2150    0.0000 C   0  0  2  0  0  0  0  0  0  0  0  0
    8.4390   -5.8025    0.0000 O   0  0  0  0  0  0  0  0  0  0  0  0
    9.8679   -7.4525    0.0000 O   0  0  0  0  0  0  0  0  0  0  0  0
   10.5824   -6.2150    0.0000 C   0  0  0  0  0  0  0  0  0  0  0  0
    9.8679   -5.8025    0.0000 C   0  0  0  0  0  0  0  0  0  0  0  0
   11.2969   -5.8025    0.0000 C   0  0  0  0  0  0  0  0  0  0  0  0
   11.2969   -4.9775    0.0000 C   0  0  0  0  0  0  0  0  0  0  0  0
   10.5824   -4.5650    0.0000 C   0  0  0  0  0  0  0  0  0  0  0  0
    9.8679   -4.9775    0.0000 C   0  0  0  0  0  0  0  0  0  0  0  0
    5.5811   -5.8025    0.0000 O   0  0  0  0  0  0  0  0  0  0  0  0
    7.0100   -8.2775    0.0000 O   0  0  0  0  0  0  0  0  0  0  0  0
    8.4390   -8.2775    0.0000 O   0  0  0  0  0  0  0  0  0  0  0  0
    9.8679   -8.2775    0.0000 C   0  0  0  0  0  0  0  0  0  0  0  0
   10.5824   -8.6900    0.0000 C   0  0  0  0  0  0  0  0  0  0  0  0
    9.1534   -8.6900    0.0000 O   0  0  0  0  0  0  0  0  0  0  0  0
    6.2584   -9.5016    0.0000 O   0  0  0  0  0  0  0  0  0  0  0  0
    6.2630   -8.6766    0.0000 C   0  0  0  0  0  0  0  0  0  0  0  0
    5.5508   -8.2601    0.0000 C   0  0  0  0  0  0  0  0  0  0  0  0
    4.8341   -8.6686    0.0000 C   0  0  0  0  0  0  0  0  0  0  0  0
    1.9854   -7.0027    0.0000 O   0  0  0  0  0  0  0  0  0  0  0  0
    3.4052   -8.6606    0.0000 C   0  0  0  0  0  0  0  0  0  0  0  0
    4.1219   -8.2521    0.0000 C   0  0  0  0  0  0  0  0  0  0  0  0
    4.1265   -7.4271    0.0000 C   0  0  0  0  0  0  0  0  0  0  0  0
    3.4144   -7.0107    0.0000 C   0  0  0  0  0  0  0  0  0  0  0  0
    2.6976   -7.4192    0.0000 C   0  0  0  0  0  0  0  0  0  0  0  0
    2.6930   -8.2442    0.0000 C   0  0  0  0  0  0  0  0  0  0  0  0
  1  2  2  0  0  0  0
  2  3  1  0  0  0  0
  3  4  2  0  0  0  0
  4  5  1  0  0  0  0
  5  6  2  0  0  0  0
  6  1  1  0  0  0  0
  4  7  1  0  0  0  0
  7  8  1  0  0  0  0
  8  9  1  0  0  0  0
  9 10  1  0  0  0  0
 10  5  1  0  0  0  0
  8 11  1  1  0  0  0
 12 13  2  0  0  0  0
  9 13  1  6  0  0  0
 12 14  1  0  0  0  0
 14 15  2  0  0  0  0
 15 16  1  0  0  0  0
 16 17  2  0  0  0  0
 17 13  1  0  0  0  0
  1 18  1  0  0  0  0
  3 19  1  0  0  0  0
  7 20  2  0  0  0  0
 11 21  1  0  0  0  0
 21 22  1  0  0  0  0
 21 23  2  0  0  0  0
 25 24  2  0  0  0  0
 26 25  1  0  0  0  0
 27 26  1  0  0  0  0
 30 27  1  0  0  0  0
 33 28  1  0  0  0  0
 29 34  1  0  0  0  0
 30 29  2  0  0  0  0
 31 30  1  0  0  0  0
 32 31  2  0  0  0  0
 33 32  1  0  0  0  0
 34 33  2  0  0  0  0
 19 25  1  0  0  0  0
M  END
>  <cdx:fragmentId>
5

$$$$
