93739.cdx
  Mrv1902 05222410192D          

 15 16  0  0  0  0            999 V2000
    6.1668   -7.9331    0.0000 C   0  0  0  0  0  0  0  0  0  0  0  0
    6.4174   -8.7192    0.0000 C   0  0  0  0  0  0  0  0  0  0  0  0
    7.2423   -8.7238    0.0000 C   0  0  2  0  0  0  0  0  0  0  0  0
    7.5017   -7.9406    0.0000 C   0  0  2  0  0  0  0  0  0  0  0  0
    6.8370   -7.4520    0.0000 C   0  0  1  0  0  0  0  0  0  0  0  0
    8.1718   -7.4594    0.0000 C   0  0  0  0  0  0  0  0  0  0  0  0
    7.9213   -6.6734    0.0000 C   0  0  0  0  0  0  0  0  0  0  0  0
    7.0963   -6.6688    0.0000 O   0  0  0  0  0  0  0  0  0  0  0  0
    5.9287   -9.3839    0.0000 C   0  0  0  0  0  0  0  0  0  0  0  0
    8.4099   -6.0087    0.0000 O   0  0  0  0  0  0  0  0  0  0  0  0
    7.7235   -9.3939    0.0000 H   0  0  0  0  0  0  0  0  0  0  0  0
    8.0673   -8.7284    0.0000 C   0  0  0  0  0  0  0  0  0  0  0  0
    6.2600  -10.1394    0.0000 O   0  0  0  0  0  0  0  0  0  0  0  0
    8.4798   -9.4429    0.0000 O   0  0  0  0  0  0  0  0  0  0  0  0
    8.2162   -8.3531    0.0000 H   0  0  0  0  0  0  0  0  0  0  0  0
  1  2  2  0  0  0  0
  2  3  1  0  0  0  0
  3  4  1  0  0  0  0
  4  5  1  0  0  0  0
  5  1  1  0  0  0  0
  4  6  1  6  0  0  0
  6  7  1  0  0  0  0
  7  8  1  0  0  0  0
  5  8  1  6  0  0  0
  2  9  1  0  0  0  0
  7 10  2  0  0  0  0
  3 11  1  1  0  0  0
  3 12  1  6  0  0  0
  9 13  1  0  0  0  0
 12 14  1  0  0  0  0
  4 15  1  1  0  0  0
M  END
>  <cdx:fragmentId>
58

$$$$
