93736.cdx
  Mrv1902 05222410262D          

 13 13  0  0  0  0            999 V2000
    5.8693   -6.7925    0.0000 C   0  0  0  0  0  0  0  0  0  0  0  0
    5.8693   -7.6175    0.0000 C   0  0  0  0  0  0  0  0  0  0  0  0
    6.5838   -8.0300    0.0000 C   0  0  0  0  0  0  0  0  0  0  0  0
    7.2982   -7.6175    0.0000 C   0  0  0  0  0  0  0  0  0  0  0  0
    7.2982   -6.7925    0.0000 C   0  0  0  0  0  0  0  0  0  0  0  0
    6.5838   -6.3800    0.0000 C   0  0  0  0  0  0  0  0  0  0  0  0
    6.5838   -8.8550    0.0000 O   0  0  0  0  0  0  0  0  0  0  0  0
    6.5838   -5.5550    0.0000 C   0  0  0  0  0  0  0  0  0  0  0  0
    5.8693   -5.1425    0.0000 O   0  0  0  0  0  0  0  0  0  0  0  0
    7.2982   -5.1425    0.0000 C   0  0  0  0  0  0  0  0  0  0  0  0
    8.0127   -5.5550    0.0000 O   0  0  0  0  0  0  0  0  0  0  0  0
    7.2982   -4.3175    0.0000 C   0  0  0  0  0  0  0  0  0  0  0  0
    8.0127   -3.9050    0.0000 O   0  0  0  0  0  0  0  0  0  0  0  0
  1  2  2  0  0  0  0
  2  3  1  0  0  0  0
  3  4  2  0  0  0  0
  4  5  1  0  0  0  0
  5  6  2  0  0  0  0
  6  1  1  0  0  0  0
  3  7  1  0  0  0  0
  6  8  1  0  0  0  0
  8  9  1  0  0  0  0
  8 10  1  0  0  0  0
 10 11  1  0  0  0  0
 10 12  1  0  0  0  0
 12 13  1  0  0  0  0
M  END
>  <cdx:fragmentId>
5

$$$$
