93749.cdx
  Mrv1902 05222410212D          

 43 48  0  0  0  0            999 V2000
    2.4731   -4.6612    0.0000 C   0  0  0  0  0  0  0  0  0  0  0  0
    2.4731   -5.4863    0.0000 C   0  0  0  0  0  0  0  0  0  0  0  0
    3.1875   -5.8988    0.0000 C   0  0  0  0  0  0  0  0  0  0  0  0
    3.9020   -5.4863    0.0000 C   0  0  0  0  0  0  0  0  0  0  0  0
    3.9020   -4.6612    0.0000 C   0  0  0  0  0  0  0  0  0  0  0  0
    3.1875   -4.2488    0.0000 C   0  0  0  0  0  0  0  0  0  0  0  0
    4.6165   -5.8988    0.0000 N   0  0  0  0  0  0  0  0  0  0  0  0
    5.3309   -5.4863    0.0000 C   0  0  0  0  0  0  0  0  0  0  0  0
    5.3309   -4.6612    0.0000 C   0  0  0  0  0  0  0  0  0  0  0  0
    6.0454   -5.8988    0.0000 C   0  0  0  0  0  0  0  0  0  0  0  0
    6.7599   -5.4863    0.0000 N   0  0  0  0  0  0  0  0  0  0  0  0
    6.7599   -4.6612    0.0000 C   0  0  0  0  0  0  0  0  0  0  0  0
    6.0454   -4.2488    0.0000 C   0  0  0  0  0  0  0  0  0  0  0  0
    6.0454   -6.7237    0.0000 C   0  0  0  0  0  0  0  0  0  0  0  0
    6.7599   -7.1362    0.0000 C   0  0  0  0  0  0  0  0  0  0  0  0
    7.4744   -6.7237    0.0000 C   0  0  0  0  0  0  0  0  0  0  0  0
    7.4744   -5.8988    0.0000 C   0  0  0  0  0  0  0  0  0  0  0  0
    6.7599   -7.9612    0.0000 C   0  0  0  0  0  0  0  0  0  0  0  0
    7.4744   -8.3737    0.0000 C   0  0  0  0  0  0  0  0  0  0  0  0
    8.1888   -7.9612    0.0000 C   0  0  0  0  0  0  0  0  0  0  0  0
    8.1888   -7.1362    0.0000 C   0  0  0  0  0  0  0  0  0  0  0  0
    7.4744   -9.1987    0.0000 O   0  0  0  0  0  0  0  0  0  0  0  0
    8.9033   -8.3737    0.0000 O   0  0  0  0  0  0  0  0  0  0  0  0
    6.0454   -8.3737    0.0000 C   0  0  0  0  0  0  0  0  0  0  0  0
    6.0454   -9.1987    0.0000 O   0  0  0  0  0  0  0  0  0  0  0  0
    5.3309   -7.9612    0.0000 O   0  0  0  0  0  0  0  0  0  0  0  0
    4.6165   -8.3737    0.0000 C   0  0  0  0  0  0  0  0  0  0  0  0
    1.7586   -5.8988    0.0000 O   0  0  0  0  0  0  0  0  0  0  0  0
    1.0441   -5.4863    0.0000 C   0  0  0  0  0  0  0  0  0  0  0  0
    9.6178   -7.9612    0.0000 C   0  0  0  0  0  0  0  0  0  0  0  0
   10.3322   -8.3737    0.0000 C   0  0  0  0  0  0  0  0  0  0  0  0
    9.6178   -7.1362    0.0000 O   0  0  0  0  0  0  0  0  0  0  0  0
   10.3322   -9.1987    0.0000 C   0  0  0  0  0  0  0  0  0  0  0  0
   11.0467   -9.6112    0.0000 C   0  0  0  0  0  0  0  0  0  0  0  0
   11.7612   -9.1987    0.0000 C   0  0  0  0  0  0  0  0  0  0  0  0
   11.7612   -8.3737    0.0000 C   0  0  0  0  0  0  0  0  0  0  0  0
   11.0467   -7.9612    0.0000 C   0  0  0  0  0  0  0  0  0  0  0  0
   12.4756   -7.9612    0.0000 O   0  0  0  0  0  0  0  0  0  0  0  0
   13.1901   -8.3737    0.0000 C   0  0  0  0  0  0  0  0  0  0  0  0
   12.4756   -9.6112    0.0000 O   0  0  0  0  0  0  0  0  0  0  0  0
   12.4756  -10.4362    0.0000 C   0  0  0  0  0  0  0  0  0  0  0  0
   11.0467  -10.4363    0.0000 O   0  0  0  0  0  0  0  0  0  0  0  0
   10.3322  -10.8488    0.0000 C   0  0  0  0  0  0  0  0  0  0  0  0
  1  2  2  0  0  0  0
  2  3  1  0  0  0  0
  3  4  2  0  0  0  0
  4  5  1  0  0  0  0
  5  6  2  0  0  0  0
  6  1  1  0  0  0  0
  4  7  1  0  0  0  0
  7  8  1  0  0  0  0
  8  9  2  0  0  0  0
  8 10  1  0  0  0  0
 10 11  1  0  0  0  0
 11 12  1  0  0  0  0
 12 13  1  0  0  0  0
 13  9  1  0  0  0  0
 10 14  1  0  0  0  0
 14 15  1  0  0  0  0
 15 16  1  0  0  0  0
 16 17  1  0  0  0  0
 17 11  1  0  0  0  0
 15 18  1  0  0  0  0
 18 19  1  0  0  0  0
 19 20  1  0  0  0  0
 20 21  1  0  0  0  0
 21 16  1  0  0  0  0
 19 22  1  0  0  0  0
 23 20  1  0  0  0  0
 18 24  1  0  0  0  0
 24 25  2  0  0  0  0
 24 26  1  0  0  0  0
 26 27  1  0  0  0  0
  5  9  1  0  0  0  0
  2 28  1  0  0  0  0
 28 29  1  0  0  0  0
 23 30  1  0  0  0  0
 30 31  1  0  0  0  0
 30 32  2  0  0  0  0
 31 33  2  0  0  0  0
 33 34  1  0  0  0  0
 34 35  2  0  0  0  0
 35 36  1  0  0  0  0
 36 37  2  0  0  0  0
 37 31  1  0  0  0  0
 36 38  1  0  0  0  0
 38 39  1  0  0  0  0
 35 40  1  0  0  0  0
 40 41  1  0  0  0  0
 34 42  1  0  0  0  0
 42 43  1  0  0  0  0
M  END
>  <cdx:fragmentId>
5

$$$$
