93746.cdx
  Mrv1902 05222410252D          

 26 26  0  0  0  0            999 V2000
    3.6642   -9.6234    0.0000 C   0  0  0  0  0  0  0  0  0  0  0  0
    2.9541  -10.0432    0.0000 C   0  0  0  0  0  0  0  0  0  0  0  0
    3.9875   -8.8652    0.0000 C   0  0  0  0  0  0  0  0  0  0  0  0
    3.8003   -8.0622    0.0000 C   0  0  2  0  0  0  0  0  0  0  0  0
    3.1830   -7.5151    0.0000 C   0  0  0  0  0  0  0  0  0  0  0  0
    2.3620   -7.4287    0.0000 C   0  0  0  0  0  0  0  0  0  0  0  0
    1.6518   -7.8485    0.0000 C   0  0  0  0  0  0  0  0  0  0  0  0
    1.3337   -8.6100    0.0000 O   0  0  0  0  0  0  0  0  0  0  0  0
    1.5143   -9.4153    0.0000 C   0  0  0  0  0  0  0  0  0  0  0  0
    2.1093   -9.9868    0.0000 C   0  0  0  0  0  0  0  0  0  0  0  0
    1.0295   -7.3068    0.0000 O   0  0  0  0  0  0  0  0  0  0  0  0
    4.5090   -7.6399    0.0000 O   0  0  0  0  0  0  0  0  0  0  0  0
    5.2291   -8.0426    0.0000 C   0  0  0  0  0  0  0  0  0  0  0  0
    5.9379   -7.6203    0.0000 C   0  0  0  0  0  0  0  0  0  0  0  0
    5.2405   -8.8675    0.0000 O   0  0  0  0  0  0  0  0  0  0  0  0
    6.6579   -8.0229    0.0000 C   0  0  0  0  0  0  0  0  0  0  0  0
    7.3667   -7.6006    0.0000 C   0  0  0  0  0  0  0  0  0  0  0  0
    8.0867   -8.0033    0.0000 C   0  0  0  0  0  0  0  0  0  0  0  0
    8.7955   -7.5810    0.0000 C   0  0  0  0  0  0  0  0  0  0  0  0
    9.5155   -7.9836    0.0000 C   0  0  0  0  0  0  0  0  0  0  0  0
   10.2243   -7.5613    0.0000 C   0  0  0  0  0  0  0  0  0  0  0  0
   10.9443   -7.9640    0.0000 C   0  0  0  0  0  0  0  0  0  0  0  0
   11.6531   -7.5417    0.0000 C   0  0  0  0  0  0  0  0  0  0  0  0
   12.3732   -7.9443    0.0000 C   0  0  0  0  0  0  0  0  0  0  0  0
   13.0819   -7.5221    0.0000 C   0  0  0  0  0  0  0  0  0  0  0  0
   13.8020   -7.9247    0.0000 C   0  0  0  0  0  0  0  0  0  0  0  0
  1  2  1  0  0  0  0
  1  3  1  0  0  0  0
  3  4  1  0  0  0  0
  4  5  1  0  0  0  0
  5  6  1  0  0  0  0
  6  7  1  0  0  0  0
  7  8  1  0  0  0  0
  8  9  1  0  0  0  0
  9 10  1  0  0  0  0
  2 10  2  0  0  0  0
  7 11  2  0  0  0  0
  4 12  1  6  0  0  0
 12 13  1  0  0  0  0
 13 14  1  0  0  0  0
 13 15  2  0  0  0  0
 14 16  1  0  0  0  0
 16 17  1  0  0  0  0
 17 18  1  0  0  0  0
 18 19  1  0  0  0  0
 19 20  1  0  0  0  0
 20 21  1  0  0  0  0
 21 22  1  0  0  0  0
 22 23  1  0  0  0  0
 23 24  1  0  0  0  0
 24 25  1  0  0  0  0
 25 26  1  0  0  0  0
M  END
>  <cdx:groupId>
741

>  <cdx:fragmentId>
742

$$$$
