93748.cdx
  Mrv1902 05222410202D          

 58 61  0  0  0  0            999 V2000
    8.9218   -6.9300    0.0000 C   0  0  0  0  0  0  0  0  0  0  0  0
    8.9218   -7.7550    0.0000 O   0  0  0  0  0  0  0  0  0  0  0  0
    9.6363   -8.1675    0.0000 O   0  0  0  0  0  0  0  0  0  0  0  0
   10.3507   -7.7550    0.0000 C   0  0  0  0  0  0  0  0  0  0  0  0
   10.3507   -6.9300    0.0000 C   0  0  1  0  0  0  0  0  0  0  0  0
    9.6363   -6.5175    0.0000 N   0  0  0  0  0  0  0  0  0  0  0  0
    9.6363   -8.9925    0.0000 N   0  0  0  0  0  0  0  0  0  0  0  0
   10.3507   -9.4050    0.0000 C   0  0  0  0  0  0  0  0  0  0  0  0
   11.0652   -8.9925    0.0000 C   0  0  1  0  0  0  0  0  0  0  0  0
   11.0652   -8.1675    0.0000 N   0  0  0  0  0  0  0  0  0  0  0  0
    8.2073   -8.1675    0.0000 O   0  0  0  0  0  0  0  0  0  0  0  0
    8.2073   -8.9925    0.0000 C   0  0  0  0  0  0  0  0  0  0  0  0
    8.9218   -9.4050    0.0000 C   0  0  2  0  0  0  0  0  0  0  0  0
    7.4929   -7.7550    0.0000 O   0  0  0  0  0  0  0  0  0  0  0  0
    6.7784   -8.1675    0.0000 C   0  0  0  0  0  0  0  0  0  0  0  0
    6.7784   -8.9925    0.0000 C   0  0  0  0  0  0  0  0  0  0  0  0
    7.4929   -9.4050    0.0000 N   0  0  0  0  0  0  0  0  0  0  0  0
    5.8169   -8.1675    0.0000 O   0  0  0  0  0  0  0  0  0  0  0  0
    5.8169   -8.9925    0.0000 C   0  0  0  0  0  0  0  0  0  0  0  0
    5.1025   -7.7550    0.0000 O   0  0  0  0  0  0  0  0  0  0  0  0
    4.3880   -8.1675    0.0000 C   0  0  0  0  0  0  0  0  0  0  0  0
    4.3880   -8.9925    0.0000 C   0  0  0  0  0  0  0  0  0  0  0  0
    5.1025   -9.4050    0.0000 N   0  0  0  0  0  0  0  0  0  0  0  0
    5.1025   -6.9300    0.0000 N   0  0  0  0  0  0  0  0  0  0  0  0
    4.3880   -6.5175    0.0000 C   0  0  0  0  0  0  0  0  0  0  0  0
    3.6735   -6.9300    0.0000 C   0  0  0  0  0  0  0  0  0  0  0  0
    3.6735   -7.7550    0.0000 N   0  0  0  0  0  0  0  0  0  0  0  0
    7.4929  -10.2300    0.0000 C   0  0  0  0  0  0  0  0  0  0  0  0
    8.2073  -10.6425    0.0000 C   0  0  0  0  0  0  0  0  0  0  0  0
    8.9218  -10.2300    0.0000 C   0  0  0  0  0  0  0  0  0  0  0  0
   11.8498   -9.2474    0.0000 C   0  0  0  0  0  0  0  0  0  0  0  0
   12.3348   -8.5800    0.0000 C   0  0  0  0  0  0  0  0  0  0  0  0
   11.8498   -7.9126    0.0000 C   0  0  0  0  0  0  0  0  0  0  0  0
   10.9638   -6.3780    0.0000 C   0  0  0  0  0  0  0  0  0  0  0  0
   10.6283   -5.6243    0.0000 C   0  0  0  0  0  0  0  0  0  0  0  0
    9.8078   -5.7105    0.0000 C   0  0  0  0  0  0  0  0  0  0  0  0
   10.3507  -10.2300    0.0000 O   0  0  0  0  0  0  0  0  0  0  0  0
    8.2073   -6.5175    0.0000 C   0  0  1  0  0  0  0  0  0  0  0  0
    7.4929   -6.9300    0.0000 N   0  0  0  0  0  0  0  0  0  0  0  0
    6.7784   -6.5175    0.0000 C   0  0  0  0  0  0  0  0  0  0  0  0
    9.6363   -5.6925    0.0000 C   0  0  0  0  0  0  0  0  0  0  0  0
    8.9218   -4.4550    0.0000 C   0  0  0  0  0  0  0  0  0  0  0  0
    8.9218   -5.2800    0.0000 C   0  0  0  0  0  0  0  0  0  0  0  0
    8.2073   -5.6925    0.0000 C   0  0  0  0  0  0  0  0  0  0  0  0
    6.7784   -5.6925    0.0000 O   0  0  0  0  0  0  0  0  0  0  0  0
    4.3880   -5.6925    0.0000 O   0  0  0  0  0  0  0  0  0  0  0  0
    5.8169   -6.5175    0.0000 C   0  0  2  0  0  0  0  0  0  0  0  0
    5.8169   -5.3350    0.0000 C   0  0  0  0  0  0  0  0  0  0  0  0
    5.1025   -4.9225    0.0000 C   0  0  0  0  0  0  0  0  0  0  0  0
    5.1025   -4.0975    0.0000 C   0  0  0  0  0  0  0  0  0  0  0  0
    4.3880   -3.6850    0.0000 C   0  0  0  0  0  0  0  0  0  0  0  0
    3.6735   -4.0975    0.0000 C   0  0  0  0  0  0  0  0  0  0  0  0
    3.6735   -4.9225    0.0000 C   0  0  0  0  0  0  0  0  0  0  0  0
    4.3880   -5.3350    0.0000 C   0  0  0  0  0  0  0  0  0  0  0  0
    2.9591   -3.6850    0.0000 O   0  0  0  0  0  0  0  0  0  0  0  0
    8.2073  -11.4675    0.0000 C   0  0  0  0  0  0  0  0  0  0  0  0
   11.0652   -7.3425    0.0000 H   0  0  0  0  0  0  0  0  0  0  0  0
   11.0652   -9.8175    0.0000 H   0  0  0  0  0  0  0  0  0  0  0  0
  1  2  2  0  0  0  0
  3  4  2  0  0  0  0
  4  5  1  0  0  0  0
  5  6  1  0  0  0  0
  6  1  1  0  0  0  0
  7  8  1  0  0  0  0
  8  9  1  0  0  0  0
  9 10  1  0  0  0  0
 10  4  1  0  0  0  0
 11 12  2  0  0  0  0
 12 13  1  0  0  0  0
 13  7  1  0  0  0  0
 14 15  1  0  0  0  0
 15 16  1  0  0  0  0
 16 17  1  0  0  0  0
 17 12  1  0  0  0  0
 18 19  2  0  0  0  0
 20 21  2  0  0  0  0
 21 22  1  0  0  0  0
 22 23  1  0  0  0  0
 23 19  1  0  0  0  0
 24 25  1  0  0  0  0
 25 26  1  0  0  0  0
 26 27  1  0  0  0  0
 27 21  1  0  0  0  0
 28 29  1  0  0  0  0
 29 30  1  0  0  0  0
 13 30  1  1  0  0  0
  9 31  1  0  0  0  0
 31 32  1  0  0  0  0
 32 33  1  0  0  0  0
 33 10  1  0  0  0  0
  5 34  1  0  0  0  0
 34 35  1  0  0  0  0
 35 36  1  0  0  0  0
 36  6  1  0  0  0  0
 19 16  1  0  0  0  0
  8 37  2  0  0  0  0
  1 38  1  0  0  0  0
 38 39  1  0  0  0  0
 39 40  1  0  0  0  0
 43 41  1  0  0  0  0
 38 44  1  1  0  0  0
 43 42  1  0  0  0  0
 44 43  1  0  0  0  0
 40 45  2  0  0  0  0
 25 46  2  0  0  0  0
 24 47  1  0  0  0  0
 47 40  1  0  0  0  0
 47 48  1  1  0  0  0
 48 49  1  0  0  0  0
 49 50  2  0  0  0  0
 50 51  1  0  0  0  0
 51 52  2  0  0  0  0
 52 53  1  0  0  0  0
 53 54  2  0  0  0  0
 54 49  1  0  0  0  0
 52 55  1  0  0  0  0
 29 56  1  0  0  0  0
  5 57  1  6  0  0  0
  9 58  1  6  0  0  0
M  END
>  <cdx:fragmentId>
5

$$$$
