93741.cdx
  Mrv1902 05222410232D          

 70 78  0  0  0  0            999 V2000
   15.1223   -9.0424    0.0000 H   0  0  0  0  0  0  0  0  0  0  0  0
   16.5524   -9.0443    0.0000 H   0  0  0  0  0  0  0  0  0  0  0  0
   18.2350   -8.5230    0.0000 H   0  0  0  0  0  0  0  0  0  0  0  0
   16.9259   -6.4260    0.0000 H   0  0  0  0  0  0  0  0  0  0  0  0
   17.5704   -5.6887    0.0000 C   0  0  0  0  0  0  0  0  0  0  0  0
   20.6128   -5.2775    0.0000 C   0  0  0  0  0  0  0  0  0  0  0  0
   16.5535   -6.5693    0.0000 C   0  0  0  0  0  0  0  0  0  0  0  0
   15.8374   -7.8059    0.0000 H   0  0  0  0  0  0  0  0  0  0  0  0
   14.4095   -7.8040    0.0000 C   0  0  0  0  0  0  0  0  0  0  0  0
   12.2634   -9.8636    0.0000 O   0  0  0  0  0  0  0  0  0  0  0  0
   13.6956   -7.3905    0.0000 O   0  0  0  0  0  0  0  0  0  0  0  0
   19.3618   -7.0662    0.0000 C   0  0  0  0  0  0  0  0  0  0  0  0
   20.0298   -6.5821    0.0000 C   0  0  0  0  0  0  0  0  0  0  0  0
   19.9447   -5.7615    0.0000 C   0  0  2  0  0  0  0  0  0  0  0  0
   19.1915   -5.4250    0.0000 C   0  0  0  0  0  0  0  0  0  0  0  0
   18.5234   -5.9090    0.0000 O   0  0  0  0  0  0  0  0  0  0  0  0
   18.6074   -7.5546    0.0000 O   0  0  0  0  0  0  0  0  0  0  0  0
   18.6085   -6.7296    0.0000 C   0  0  1  0  0  0  0  0  0  0  0  0
   17.8243   -6.4736    0.0000 C   0  0  2  0  0  0  0  0  0  0  0  0
   17.3367   -8.4753    0.0000 C   0  0  0  0  0  0  0  0  0  0  0  0
   17.8225   -7.8085    0.0000 C   0  0  1  0  0  0  0  0  0  0  0  0
   17.3384   -7.1404    0.0000 C   0  0  1  0  0  0  0  0  0  0  0  0
   16.5524   -8.2193    0.0000 C   0  0  2  0  0  0  0  0  0  0  0  0
   16.5535   -7.3943    0.0000 C   0  0  1  0  0  0  0  0  0  0  0  0
   15.8396   -6.9809    0.0000 C   0  0  0  0  0  0  0  0  0  0  0  0
   15.1245   -7.3924    0.0000 C   0  0  0  0  0  0  0  0  0  0  0  0
   15.1213   -9.8674    0.0000 C   0  0  0  0  0  0  0  0  0  0  0  0
   15.8363   -9.4559    0.0000 C   0  0  0  0  0  0  0  0  0  0  0  0
   15.8374   -8.6309    0.0000 C   0  0  2  0  0  0  0  0  0  0  0  0
   15.1234   -8.2174    0.0000 C   0  0  1  0  0  0  0  0  0  0  0  0
   12.9795   -8.6271    0.0000 C   0  0  0  0  0  0  0  0  0  0  0  0
   12.9784   -9.4521    0.0000 C   0  0  1  0  0  0  0  0  0  0  0  0
   13.6923   -9.8655    0.0000 C   0  0  0  0  0  0  0  0  0  0  0  0
   14.4073   -9.4540    0.0000 C   0  0  0  0  0  0  0  0  0  0  0  0
   14.4084   -8.6290    0.0000 C   0  0  1  0  0  0  0  0  0  0  0  0
   13.6945   -8.2155    0.0000 C   0  0  2  0  0  0  0  0  0  0  0  0
   13.2710   -5.2430    0.0000 C   0  0  0  0  0  0  0  0  0  0  0  0
   12.4460   -5.2436    0.0000 C   0  0  1  0  0  0  0  0  0  0  0  0
   12.0340   -5.9584    0.0000 C   0  0  1  0  0  0  0  0  0  0  0  0
   12.4471   -6.6725    0.0000 C   0  0  2  0  0  0  0  0  0  0  0  0
   13.2721   -6.6719    0.0000 C   0  0  1  0  0  0  0  0  0  0  0  0
   13.6840   -5.9571    0.0000 O   0  0  0  0  0  0  0  0  0  0  0  0
   12.0329   -4.5294    0.0000 O   0  0  0  0  0  0  0  0  0  0  0  0
   11.2090   -5.9590    0.0000 O   0  0  0  0  0  0  0  0  0  0  0  0
   12.0352   -7.3873    0.0000 O   0  0  0  0  0  0  0  0  0  0  0  0
   11.2102   -7.3880    0.0000 C   0  0  2  0  0  0  0  0  0  0  0  0
   10.7971   -6.6738    0.0000 O   0  0  0  0  0  0  0  0  0  0  0  0
    9.9721   -6.6745    0.0000 C   0  0  2  0  0  0  0  0  0  0  0  0
    9.5602   -7.3892    0.0000 C   0  0  1  0  0  0  0  0  0  0  0  0
    9.9732   -8.1034    0.0000 C   0  0  2  0  0  0  0  0  0  0  0  0
   10.7982   -8.1028    0.0000 C   0  0  1  0  0  0  0  0  0  0  0  0
    8.7352   -7.3899    0.0000 O   0  0  0  0  0  0  0  0  0  0  0  0
    9.5590   -5.9603    0.0000 C   0  0  0  0  0  0  0  0  0  0  0  0
   11.2113   -8.8169    0.0000 O   0  0  0  0  0  0  0  0  0  0  0  0
    9.5613   -8.8182    0.0000 O   0  0  0  0  0  0  0  0  0  0  0  0
   12.4449   -3.8147    0.0000 S   0  0  0  0  0  0  0  0  0  0  0  0
   13.1597   -4.2266    0.0000 O   0  0  0  0  0  0  0  0  0  0  0  0
   11.7301   -3.4027    0.0000 O   0  0  0  0  0  0  0  0  0  0  0  0
   12.8568   -3.0999    0.0000 O   0  0  0  0  0  0  0  0  0  0  0  0
   12.2634  -10.6886    0.0000 C   0  0  2  0  0  0  0  0  0  0  0  0
   11.5489  -11.1011    0.0000 O   0  0  0  0  0  0  0  0  0  0  0  0
   11.5489  -11.9261    0.0000 C   0  0  1  0  0  0  0  0  0  0  0  0
   12.2634  -12.3386    0.0000 C   0  0  2  0  0  0  0  0  0  0  0  0
   12.9778  -11.9261    0.0000 C   0  0  1  0  0  0  0  0  0  0  0  0
   12.9778  -11.1011    0.0000 C   0  0  1  0  0  0  0  0  0  0  0  0
   10.8344  -12.3386    0.0000 C   0  0  0  0  0  0  0  0  0  0  0  0
   13.6923  -12.3386    0.0000 O   0  0  0  0  0  0  0  0  0  0  0  0
   12.2634  -13.1636    0.0000 O   0  0  0  0  0  0  0  0  0  0  0  0
   13.6923  -10.6886    0.0000 O   0  0  0  0  0  0  0  0  0  0  0  0
   10.8344  -13.1636    0.0000 O   0  0  0  0  0  0  0  0  0  0  0  0
 30  1  1  6  0  0  0
 23  2  1  6  0  0  0
 21  3  1  6  0  0  0
 22  4  1  6  0  0  0
 19  5  1  6  0  0  0
 14  6  1  6  0  0  0
 24  7  1  1  0  0  0
 29  8  1  1  0  0  0
 35  9  1  1  0  0  0
 32 10  1  1  0  0  0
 36 11  1  1  0  0  0
 12 18  1  0  0  0  0
 13 12  1  0  0  0  0
 14 13  1  0  0  0  0
 15 14  1  0  0  0  0
 16 15  1  0  0  0  0
 18 16  1  0  0  0  0
 17 21  1  0  0  0  0
 18 17  1  6  0  0  0
 19 18  1  0  0  0  0
 22 19  1  0  0  0  0
 20 23  1  0  0  0  0
 21 20  1  0  0  0  0
 22 21  1  0  0  0  0
 24 22  1  0  0  0  0
 23 29  1  0  0  0  0
 24 23  1  0  0  0  0
 25 24  1  0  0  0  0
 26 25  1  0  0  0  0
 30 26  1  0  0  0  0
 27 34  2  0  0  0  0
 28 27  1  0  0  0  0
 29 28  1  0  0  0  0
 30 29  1  0  0  0  0
 35 30  1  0  0  0  0
 31 36  1  0  0  0  0
 32 31  1  0  0  0  0
 33 32  1  0  0  0  0
 34 33  1  0  0  0  0
 35 34  1  0  0  0  0
 36 35  1  0  0  0  0
 37 38  1  0  0  0  0
 38 39  1  0  0  0  0
 39 40  1  0  0  0  0
 40 41  1  0  0  0  0
 41 42  1  0  0  0  0
 42 37  1  0  0  0  0
 38 43  1  1  0  0  0
 39 44  1  1  0  0  0
 40 45  1  6  0  0  0
 46 45  1  1  0  0  0
 46 47  1  0  0  0  0
 47 48  1  0  0  0  0
 48 49  1  0  0  0  0
 49 50  1  0  0  0  0
 50 51  1  0  0  0  0
 51 46  1  0  0  0  0
 49 52  1  1  0  0  0
 48 53  1  6  0  0  0
 51 54  1  6  0  0  0
 50 55  1  6  0  0  0
 43 56  1  0  0  0  0
 56 57  2  0  0  0  0
 56 58  2  0  0  0  0
 56 59  1  0  0  0  0
 41 11  1  1  0  0  0
 60 10  1  1  0  0  0
 60 61  1  0  0  0  0
 61 62  1  0  0  0  0
 62 63  1  0  0  0  0
 63 64  1  0  0  0  0
 64 65  1  0  0  0  0
 65 60  1  0  0  0  0
 62 66  1  1  0  0  0
 64 67  1  1  0  0  0
 63 68  1  6  0  0  0
 65 69  1  6  0  0  0
 66 70  1  0  0  0  0
M  END
>  <cdx:fragmentId>
510

$$$$
