937463.cdx
  Mrv1902 05222410262D          

 23 25  0  0  0  0            999 V2000
    9.5354   -7.5486    0.0000 C   0  0  0  0  0  0  0  0  0  0  0  0
   10.2757   -7.9126    0.0000 C   0  0  0  0  0  0  0  0  0  0  0  0
   10.3306   -8.7358    0.0000 C   0  0  0  0  0  0  0  0  0  0  0  0
    9.4805   -6.7254    0.0000 O   0  0  0  0  0  0  0  0  0  0  0  0
    8.8500   -8.0077    0.0000 O   0  0  0  0  0  0  0  0  0  0  0  0
   10.9612   -7.4535    0.0000 C   0  0  0  0  0  0  0  0  0  0  0  0
    7.4224   -7.1849    0.0000 C   0  0  0  0  0  0  0  0  0  0  0  0
    8.1369   -7.5974    0.0000 C   0  0  0  0  0  0  0  0  0  0  0  0
    4.5889   -9.6176    0.0000 C   0  0  0  0  0  0  0  0  0  0  0  0
    4.5889  -10.4426    0.0000 C   0  0  0  0  0  0  0  0  0  0  0  0
    5.3034  -10.8551    0.0000 C   0  0  0  0  0  0  0  0  0  0  0  0
    6.0179  -10.4426    0.0000 C   0  0  0  0  0  0  0  0  0  0  0  0
    6.7324  -10.8551    0.0000 C   0  0  0  0  0  0  0  0  0  0  0  0
    7.4468  -10.4426    0.0000 C   0  0  0  0  0  0  0  0  0  0  0  0
    7.4468   -9.6176    0.0000 C   0  0  0  0  0  0  0  0  0  0  0  0
    6.7324   -9.2051    0.0000 C   0  0  0  0  0  0  0  0  0  0  0  0
    6.0179   -9.6176    0.0000 C   0  0  0  0  0  0  0  0  0  0  0  0
    5.3034   -9.2051    0.0000 O   0  0  0  0  0  0  0  0  0  0  0  0
    8.0599   -9.0656    0.0000 O   0  0  0  0  0  0  0  0  0  0  0  0
    6.9039   -8.3981    0.0000 C   0  0  0  0  0  0  0  0  0  0  0  0
    7.7244   -8.3119    0.0000 C   0  0  1  0  0  0  0  0  0  0  0  0
    3.8745   -9.2051    0.0000 O   0  0  0  0  0  0  0  0  0  0  0  0
    8.5494   -6.8830    0.0000 C   0  0  0  0  0  0  0  0  0  0  0  0
  1  2  1  0  0  0  0
  2  3  1  0  0  0  0
  1  4  2  0  0  0  0
  1  5  1  0  0  0  0
  2  6  1  0  0  0  0
  7  8  1  0  0  0  0
  9 10  1  0  0  0  0
 10 11  2  0  0  0  0
 11 12  1  0  0  0  0
 12 13  1  0  0  0  0
 13 14  2  0  0  0  0
 14 15  1  0  0  0  0
 15 16  2  0  0  0  0
 16 17  1  0  0  0  0
 12 17  2  0  0  0  0
 17 18  1  0  0  0  0
  9 18  1  0  0  0  0
 20 21  1  0  0  0  0
 19 21  1  0  0  0  0
 19 15  1  0  0  0  0
 20 16  1  0  0  0  0
  9 22  2  0  0  0  0
 21  8  1  1  0  0  0
  8 23  1  0  0  0  0
  8  5  1  0  0  0  0
M  END
>  <cdx:fragmentId>
23

$$$$
