93745.cdx
  Mrv1902 05222410262D          

 71 79  0  0  0  0            999 V2000
   15.0948  -10.0324    0.0000 H   0  0  0  0  0  0  0  0  0  0  0  0
   16.5249  -10.0343    0.0000 H   0  0  0  0  0  0  0  0  0  0  0  0
   18.2075   -9.5130    0.0000 H   0  0  0  0  0  0  0  0  0  0  0  0
   16.8984   -7.4160    0.0000 H   0  0  0  0  0  0  0  0  0  0  0  0
   17.5429   -6.6787    0.0000 C   0  0  0  0  0  0  0  0  0  0  0  0
   20.5853   -6.2675    0.0000 C   0  0  0  0  0  0  0  0  0  0  0  0
   16.5260   -7.5593    0.0000 C   0  0  0  0  0  0  0  0  0  0  0  0
   15.8099   -8.7959    0.0000 H   0  0  0  0  0  0  0  0  0  0  0  0
   14.3820   -8.7940    0.0000 C   0  0  0  0  0  0  0  0  0  0  0  0
   12.2359  -10.8536    0.0000 O   0  0  0  0  0  0  0  0  0  0  0  0
   13.6681   -8.3805    0.0000 O   0  0  0  0  0  0  0  0  0  0  0  0
   19.3343   -8.0562    0.0000 C   0  0  0  0  0  0  0  0  0  0  0  0
   20.0023   -7.5721    0.0000 C   0  0  0  0  0  0  0  0  0  0  0  0
   19.9172   -6.7515    0.0000 C   0  0  2  0  0  0  0  0  0  0  0  0
   19.1640   -6.4150    0.0000 C   0  0  0  0  0  0  0  0  0  0  0  0
   18.4959   -6.8990    0.0000 O   0  0  0  0  0  0  0  0  0  0  0  0
   18.5799   -8.5446    0.0000 O   0  0  0  0  0  0  0  0  0  0  0  0
   18.5810   -7.7196    0.0000 C   0  0  1  0  0  0  0  0  0  0  0  0
   17.7968   -7.4636    0.0000 C   0  0  2  0  0  0  0  0  0  0  0  0
   17.3092   -9.4653    0.0000 C   0  0  0  0  0  0  0  0  0  0  0  0
   17.7950   -8.7985    0.0000 C   0  0  1  0  0  0  0  0  0  0  0  0
   17.3109   -8.1304    0.0000 C   0  0  1  0  0  0  0  0  0  0  0  0
   16.5249   -9.2093    0.0000 C   0  0  2  0  0  0  0  0  0  0  0  0
   16.5260   -8.3843    0.0000 C   0  0  1  0  0  0  0  0  0  0  0  0
   15.8121   -7.9709    0.0000 C   0  0  0  0  0  0  0  0  0  0  0  0
   15.0970   -8.3824    0.0000 C   0  0  0  0  0  0  0  0  0  0  0  0
   15.0938  -10.8574    0.0000 C   0  0  0  0  0  0  0  0  0  0  0  0
   15.8088  -10.4459    0.0000 C   0  0  0  0  0  0  0  0  0  0  0  0
   15.8099   -9.6209    0.0000 C   0  0  2  0  0  0  0  0  0  0  0  0
   15.0959   -9.2074    0.0000 C   0  0  1  0  0  0  0  0  0  0  0  0
   12.9520   -9.6171    0.0000 C   0  0  0  0  0  0  0  0  0  0  0  0
   12.9509  -10.4421    0.0000 C   0  0  1  0  0  0  0  0  0  0  0  0
   13.6648  -10.8555    0.0000 C   0  0  0  0  0  0  0  0  0  0  0  0
   14.3798  -10.4440    0.0000 C   0  0  0  0  0  0  0  0  0  0  0  0
   14.3809   -9.6190    0.0000 C   0  0  1  0  0  0  0  0  0  0  0  0
   13.6670   -9.2055    0.0000 C   0  0  2  0  0  0  0  0  0  0  0  0
   13.2435   -6.2330    0.0000 C   0  0  2  0  0  0  0  0  0  0  0  0
   12.4185   -6.2336    0.0000 C   0  0  1  0  0  0  0  0  0  0  0  0
   12.0065   -6.9484    0.0000 C   0  0  1  0  0  0  0  0  0  0  0  0
   12.4196   -7.6625    0.0000 C   0  0  2  0  0  0  0  0  0  0  0  0
   13.2446   -7.6619    0.0000 C   0  0  1  0  0  0  0  0  0  0  0  0
   13.6565   -6.9471    0.0000 O   0  0  0  0  0  0  0  0  0  0  0  0
   13.6554   -5.5182    0.0000 C   0  0  0  0  0  0  0  0  0  0  0  0
   12.0054   -5.5194    0.0000 O   0  0  0  0  0  0  0  0  0  0  0  0
   11.1815   -6.9490    0.0000 O   0  0  0  0  0  0  0  0  0  0  0  0
   12.0077   -8.3773    0.0000 O   0  0  0  0  0  0  0  0  0  0  0  0
   11.1827   -8.3780    0.0000 C   0  0  2  0  0  0  0  0  0  0  0  0
   10.7696   -7.6638    0.0000 O   0  0  0  0  0  0  0  0  0  0  0  0
    9.9446   -7.6645    0.0000 C   0  0  2  0  0  0  0  0  0  0  0  0
    9.5327   -8.3792    0.0000 C   0  0  1  0  0  0  0  0  0  0  0  0
    9.9457   -9.0934    0.0000 C   0  0  2  0  0  0  0  0  0  0  0  0
   10.7707   -9.0928    0.0000 C   0  0  1  0  0  0  0  0  0  0  0  0
    8.7077   -8.3799    0.0000 O   0  0  0  0  0  0  0  0  0  0  0  0
    9.5315   -6.9503    0.0000 C   0  0  0  0  0  0  0  0  0  0  0  0
   11.1838   -9.8069    0.0000 O   0  0  0  0  0  0  0  0  0  0  0  0
    9.5338   -9.8082    0.0000 O   0  0  0  0  0  0  0  0  0  0  0  0
   12.4174   -4.8047    0.0000 S   0  0  0  0  0  0  0  0  0  0  0  0
   13.1322   -5.2166    0.0000 O   0  0  0  0  0  0  0  0  0  0  0  0
   11.7026   -4.3927    0.0000 O   0  0  0  0  0  0  0  0  0  0  0  0
   12.8293   -4.0899    0.0000 O   0  0  0  0  0  0  0  0  0  0  0  0
   12.2359  -11.6786    0.0000 C   0  0  2  0  0  0  0  0  0  0  0  0
   11.5214  -12.0911    0.0000 O   0  0  0  0  0  0  0  0  0  0  0  0
   11.5214  -12.9161    0.0000 C   0  0  1  0  0  0  0  0  0  0  0  0
   12.2359  -13.3286    0.0000 C   0  0  2  0  0  0  0  0  0  0  0  0
   12.9503  -12.9161    0.0000 C   0  0  1  0  0  0  0  0  0  0  0  0
   12.9503  -12.0911    0.0000 C   0  0  1  0  0  0  0  0  0  0  0  0
   10.8069  -13.3286    0.0000 C   0  0  0  0  0  0  0  0  0  0  0  0
   13.6648  -13.3286    0.0000 O   0  0  0  0  0  0  0  0  0  0  0  0
   12.2359  -14.1536    0.0000 O   0  0  0  0  0  0  0  0  0  0  0  0
   13.6648  -11.6786    0.0000 O   0  0  0  0  0  0  0  0  0  0  0  0
   10.8069  -14.1536    0.0000 O   0  0  0  0  0  0  0  0  0  0  0  0
 30  1  1  6  0  0  0
 23  2  1  6  0  0  0
 21  3  1  6  0  0  0
 22  4  1  6  0  0  0
 19  5  1  6  0  0  0
 14  6  1  6  0  0  0
 24  7  1  1  0  0  0
 29  8  1  1  0  0  0
 35  9  1  1  0  0  0
 32 10  1  1  0  0  0
 36 11  1  1  0  0  0
 12 18  1  0  0  0  0
 13 12  1  0  0  0  0
 14 13  1  0  0  0  0
 15 14  1  0  0  0  0
 16 15  1  0  0  0  0
 18 16  1  0  0  0  0
 17 21  1  0  0  0  0
 18 17  1  6  0  0  0
 19 18  1  0  0  0  0
 22 19  1  0  0  0  0
 20 23  1  0  0  0  0
 21 20  1  0  0  0  0
 22 21  1  0  0  0  0
 24 22  1  0  0  0  0
 23 29  1  0  0  0  0
 24 23  1  0  0  0  0
 25 24  1  0  0  0  0
 26 25  1  0  0  0  0
 30 26  1  0  0  0  0
 27 34  2  0  0  0  0
 28 27  1  0  0  0  0
 29 28  1  0  0  0  0
 30 29  1  0  0  0  0
 35 30  1  0  0  0  0
 31 36  1  0  0  0  0
 32 31  1  0  0  0  0
 33 32  1  0  0  0  0
 34 33  1  0  0  0  0
 35 34  1  0  0  0  0
 36 35  1  0  0  0  0
 37 38  1  0  0  0  0
 38 39  1  0  0  0  0
 39 40  1  0  0  0  0
 40 41  1  0  0  0  0
 41 42  1  0  0  0  0
 42 37  1  0  0  0  0
 37 43  1  1  0  0  0
 38 44  1  1  0  0  0
 39 45  1  1  0  0  0
 40 46  1  6  0  0  0
 47 46  1  1  0  0  0
 47 48  1  0  0  0  0
 48 49  1  0  0  0  0
 49 50  1  0  0  0  0
 50 51  1  0  0  0  0
 51 52  1  0  0  0  0
 52 47  1  0  0  0  0
 50 53  1  1  0  0  0
 49 54  1  6  0  0  0
 52 55  1  6  0  0  0
 51 56  1  6  0  0  0
 44 57  1  0  0  0  0
 57 58  2  0  0  0  0
 57 59  2  0  0  0  0
 57 60  1  0  0  0  0
 41 11  1  1  0  0  0
 61 10  1  1  0  0  0
 61 62  1  0  0  0  0
 62 63  1  0  0  0  0
 63 64  1  0  0  0  0
 64 65  1  0  0  0  0
 65 66  1  0  0  0  0
 66 61  1  0  0  0  0
 63 67  1  1  0  0  0
 65 68  1  1  0  0  0
 64 69  1  6  0  0  0
 66 70  1  6  0  0  0
 67 71  1  0  0  0  0
M  END
>  <cdx:fragmentId>
5

$$$$
