93740.cdx
  Mrv1902 05222410232D          

 60 67  0  0  0  0            999 V2000
   15.0948   -9.6749    0.0000 H   0  0  0  0  0  0  0  0  0  0  0  0
   16.5249   -9.6768    0.0000 H   0  0  0  0  0  0  0  0  0  0  0  0
   18.2075   -9.1555    0.0000 H   0  0  0  0  0  0  0  0  0  0  0  0
   16.8984   -7.0585    0.0000 H   0  0  0  0  0  0  0  0  0  0  0  0
   17.5429   -6.3212    0.0000 C   0  0  0  0  0  0  0  0  0  0  0  0
   20.5853   -5.9100    0.0000 C   0  0  0  0  0  0  0  0  0  0  0  0
   16.5260   -7.2018    0.0000 C   0  0  0  0  0  0  0  0  0  0  0  0
   15.8099   -8.4384    0.0000 H   0  0  0  0  0  0  0  0  0  0  0  0
   14.3820   -8.4365    0.0000 C   0  0  0  0  0  0  0  0  0  0  0  0
   12.2359  -10.4961    0.0000 O   0  0  0  0  0  0  0  0  0  0  0  0
   13.6681   -8.0230    0.0000 O   0  0  0  0  0  0  0  0  0  0  0  0
   19.3343   -7.6987    0.0000 C   0  0  0  0  0  0  0  0  0  0  0  0
   20.0023   -7.2146    0.0000 C   0  0  0  0  0  0  0  0  0  0  0  0
   19.9172   -6.3940    0.0000 C   0  0  2  0  0  0  0  0  0  0  0  0
   19.1640   -6.0575    0.0000 C   0  0  0  0  0  0  0  0  0  0  0  0
   18.4959   -6.5415    0.0000 O   0  0  0  0  0  0  0  0  0  0  0  0
   18.5799   -8.1871    0.0000 O   0  0  0  0  0  0  0  0  0  0  0  0
   18.5810   -7.3621    0.0000 C   0  0  1  0  0  0  0  0  0  0  0  0
   17.7968   -7.1061    0.0000 C   0  0  2  0  0  0  0  0  0  0  0  0
   17.3092   -9.1078    0.0000 C   0  0  0  0  0  0  0  0  0  0  0  0
   17.7950   -8.4410    0.0000 C   0  0  1  0  0  0  0  0  0  0  0  0
   17.3109   -7.7729    0.0000 C   0  0  1  0  0  0  0  0  0  0  0  0
   16.5249   -8.8518    0.0000 C   0  0  2  0  0  0  0  0  0  0  0  0
   16.5260   -8.0268    0.0000 C   0  0  1  0  0  0  0  0  0  0  0  0
   15.8121   -7.6134    0.0000 C   0  0  0  0  0  0  0  0  0  0  0  0
   15.0970   -8.0249    0.0000 C   0  0  0  0  0  0  0  0  0  0  0  0
   15.0938  -10.4999    0.0000 C   0  0  0  0  0  0  0  0  0  0  0  0
   15.8088  -10.0884    0.0000 C   0  0  0  0  0  0  0  0  0  0  0  0
   15.8099   -9.2634    0.0000 C   0  0  2  0  0  0  0  0  0  0  0  0
   15.0959   -8.8499    0.0000 C   0  0  1  0  0  0  0  0  0  0  0  0
   12.9520   -9.2596    0.0000 C   0  0  0  0  0  0  0  0  0  0  0  0
   12.9509  -10.0846    0.0000 C   0  0  1  0  0  0  0  0  0  0  0  0
   13.6648  -10.4980    0.0000 C   0  0  0  0  0  0  0  0  0  0  0  0
   14.3798  -10.0865    0.0000 C   0  0  0  0  0  0  0  0  0  0  0  0
   14.3809   -9.2615    0.0000 C   0  0  1  0  0  0  0  0  0  0  0  0
   13.6670   -8.8480    0.0000 C   0  0  2  0  0  0  0  0  0  0  0  0
   13.2435   -5.8755    0.0000 C   0  0  2  0  0  0  0  0  0  0  0  0
   12.4185   -5.8761    0.0000 C   0  0  1  0  0  0  0  0  0  0  0  0
   12.0065   -6.5909    0.0000 C   0  0  1  0  0  0  0  0  0  0  0  0
   12.4196   -7.3050    0.0000 C   0  0  2  0  0  0  0  0  0  0  0  0
   13.2446   -7.3044    0.0000 C   0  0  1  0  0  0  0  0  0  0  0  0
   13.6565   -6.5896    0.0000 O   0  0  0  0  0  0  0  0  0  0  0  0
   13.6554   -5.1607    0.0000 C   0  0  0  0  0  0  0  0  0  0  0  0
   12.0054   -5.1619    0.0000 O   0  0  0  0  0  0  0  0  0  0  0  0
   11.1815   -6.5915    0.0000 O   0  0  0  0  0  0  0  0  0  0  0  0
   12.0077   -8.0198    0.0000 O   0  0  0  0  0  0  0  0  0  0  0  0
   11.1827   -8.0205    0.0000 C   0  0  2  0  0  0  0  0  0  0  0  0
   10.7696   -7.3063    0.0000 O   0  0  0  0  0  0  0  0  0  0  0  0
    9.9446   -7.3070    0.0000 C   0  0  2  0  0  0  0  0  0  0  0  0
    9.5327   -8.0217    0.0000 C   0  0  1  0  0  0  0  0  0  0  0  0
    9.9457   -8.7359    0.0000 C   0  0  2  0  0  0  0  0  0  0  0  0
   10.7707   -8.7353    0.0000 C   0  0  1  0  0  0  0  0  0  0  0  0
    8.7077   -8.0224    0.0000 O   0  0  0  0  0  0  0  0  0  0  0  0
    9.5315   -6.5928    0.0000 C   0  0  0  0  0  0  0  0  0  0  0  0
   11.1838   -9.4494    0.0000 O   0  0  0  0  0  0  0  0  0  0  0  0
    9.5338   -9.4507    0.0000 O   0  0  0  0  0  0  0  0  0  0  0  0
   12.4174   -4.4472    0.0000 S   0  0  0  0  0  0  0  0  0  0  0  0
   13.1322   -4.8591    0.0000 O   0  0  0  0  0  0  0  0  0  0  0  0
   11.7026   -4.0352    0.0000 O   0  0  0  0  0  0  0  0  0  0  0  0
   12.8293   -3.7324    0.0000 O   0  0  0  0  0  0  0  0  0  0  0  0
 30  1  1  6  0  0  0
 23  2  1  6  0  0  0
 21  3  1  6  0  0  0
 22  4  1  6  0  0  0
 19  5  1  6  0  0  0
 14  6  1  6  0  0  0
 24  7  1  1  0  0  0
 29  8  1  1  0  0  0
 35  9  1  1  0  0  0
 32 10  1  1  0  0  0
 36 11  1  1  0  0  0
 12 18  1  0  0  0  0
 13 12  1  0  0  0  0
 14 13  1  0  0  0  0
 15 14  1  0  0  0  0
 16 15  1  0  0  0  0
 18 16  1  0  0  0  0
 17 21  1  0  0  0  0
 18 17  1  6  0  0  0
 19 18  1  0  0  0  0
 22 19  1  0  0  0  0
 20 23  1  0  0  0  0
 21 20  1  0  0  0  0
 22 21  1  0  0  0  0
 24 22  1  0  0  0  0
 23 29  1  0  0  0  0
 24 23  1  0  0  0  0
 25 24  1  0  0  0  0
 26 25  1  0  0  0  0
 30 26  1  0  0  0  0
 27 34  2  0  0  0  0
 28 27  1  0  0  0  0
 29 28  1  0  0  0  0
 30 29  1  0  0  0  0
 35 30  1  0  0  0  0
 31 36  1  0  0  0  0
 32 31  1  0  0  0  0
 33 32  1  0  0  0  0
 34 33  1  0  0  0  0
 35 34  1  0  0  0  0
 36 35  1  0  0  0  0
 37 38  1  0  0  0  0
 38 39  1  0  0  0  0
 39 40  1  0  0  0  0
 40 41  1  0  0  0  0
 41 42  1  0  0  0  0
 42 37  1  0  0  0  0
 37 43  1  1  0  0  0
 38 44  1  1  0  0  0
 39 45  1  1  0  0  0
 40 46  1  6  0  0  0
 47 46  1  1  0  0  0
 47 48  1  0  0  0  0
 48 49  1  0  0  0  0
 49 50  1  0  0  0  0
 50 51  1  0  0  0  0
 51 52  1  0  0  0  0
 52 47  1  0  0  0  0
 50 53  1  1  0  0  0
 49 54  1  6  0  0  0
 52 55  1  6  0  0  0
 51 56  1  6  0  0  0
 44 57  1  0  0  0  0
 57 58  2  0  0  0  0
 57 59  2  0  0  0  0
 57 60  1  0  0  0  0
 41 11  1  1  0  0  0
M  END
>  <cdx:fragmentId>
5

$$$$
