93756.cdx
  Mrv1902 05222410242D          

 68 75  0  0  0  0            999 V2000
    6.8456   -4.8812    0.0000 C   0  0  0  0  0  0  0  0  0  0  0  0
    6.8456   -5.7062    0.0000 C   0  0  1  0  0  0  0  0  0  0  0  0
    7.5600   -6.1188    0.0000 C   0  0  1  0  0  0  0  0  0  0  0  0
    8.2745   -5.7062    0.0000 C   0  0  0  0  0  0  0  0  0  0  0  0
    8.2745   -4.8812    0.0000 C   0  0  2  0  0  0  0  0  0  0  0  0
    7.5600   -4.4688    0.0000 C   0  0  0  0  0  0  0  0  0  0  0  0
    8.9890   -6.1188    0.0000 C   0  0  0  0  0  0  0  0  0  0  0  0
    9.7034   -5.7062    0.0000 C   0  0  0  0  0  0  0  0  0  0  0  0
    9.7034   -4.8812    0.0000 C   0  0  2  0  0  0  0  0  0  0  0  0
    8.9890   -4.4688    0.0000 C   0  0  0  0  0  0  0  0  0  0  0  0
   10.4179   -4.4688    0.0000 C   0  0  1  0  0  0  0  0  0  0  0  0
   10.4179   -3.6437    0.0000 C   0  0  0  0  0  0  0  0  0  0  0  0
    9.7034   -3.2313    0.0000 C   0  0  0  0  0  0  0  0  0  0  0  0
    8.9890   -3.6437    0.0000 C   0  0  0  0  0  0  0  0  0  0  0  0
   11.1324   -4.8812    0.0000 C   0  0  0  0  0  0  0  0  0  0  0  0
   11.8469   -4.4688    0.0000 C   0  0  0  0  0  0  0  0  0  0  0  0
   11.8469   -3.6437    0.0000 C   0  0  2  0  0  0  0  0  0  0  0  0
   11.1324   -3.2313    0.0000 C   0  0  1  0  0  0  0  0  0  0  0  0
   12.5613   -3.2313    0.0000 C   0  0  1  0  0  0  0  0  0  0  0  0
   12.5613   -2.4063    0.0000 C   0  0  0  0  0  0  0  0  0  0  0  0
   11.8469   -1.9938    0.0000 C   0  0  1  0  0  0  0  0  0  0  0  0
   11.1324   -2.4063    0.0000 C   0  0  0  0  0  0  0  0  0  0  0  0
   13.2758   -3.6437    0.0000 O   0  0  0  0  0  0  0  0  0  0  0  0
   11.1324   -5.7062    0.0000 O   0  0  0  0  0  0  0  0  0  0  0  0
    6.1311   -6.1188    0.0000 O   0  0  0  0  0  0  0  0  0  0  0  0
    7.1475   -6.8332    0.0000 C   0  0  0  0  0  0  0  0  0  0  0  0
    8.2745   -4.0563    0.0000 C   0  0  0  0  0  0  0  0  0  0  0  0
    9.7034   -4.0563    0.0000 C   0  0  0  0  0  0  0  0  0  0  0  0
   10.4179   -2.8188    0.0000 H   0  0  0  0  0  0  0  0  0  0  0  0
   12.5613   -4.0563    0.0000 C   0  0  0  0  0  0  0  0  0  0  0  0
   11.4344   -1.2793    0.0000 C   0  0  0  0  0  0  0  0  0  0  0  0
    7.9725   -6.8332    0.0000 C   0  0  0  0  0  0  0  0  0  0  0  0
   10.4179   -5.2938    0.0000 C   0  0  0  0  0  0  0  0  0  0  0  0
   12.2594   -1.2793    0.0000 C   0  0  0  0  0  0  0  0  0  0  0  0
    7.5600   -7.5477    0.0000 O   0  0  0  0  0  0  0  0  0  0  0  0
    5.4166   -6.5313    0.0000 C   0  0  2  0  0  0  0  0  0  0  0  0
    4.7021   -6.1188    0.0000 O   0  0  0  0  0  0  0  0  0  0  0  0
    3.9877   -6.5313    0.0000 C   0  0  1  0  0  0  0  0  0  0  0  0
    3.9877   -7.3563    0.0000 C   0  0  2  0  0  0  0  0  0  0  0  0
    4.7021   -7.7687    0.0000 C   0  0  1  0  0  0  0  0  0  0  0  0
    5.4166   -7.3563    0.0000 C   0  0  1  0  0  0  0  0  0  0  0  0
    3.2732   -6.1188    0.0000 C   0  0  0  0  0  0  0  0  0  0  0  0
    4.7021   -8.5937    0.0000 O   0  0  0  0  0  0  0  0  0  0  0  0
    3.2732   -7.7687    0.0000 O   0  0  0  0  0  0  0  0  0  0  0  0
    6.5986   -9.4187    0.0000 O   0  0  0  0  0  0  0  0  0  0  0  0
    2.5587   -6.5313    0.0000 O   0  0  0  0  0  0  0  0  0  0  0  0
    3.2732   -5.2938    0.0000 O   0  0  0  0  0  0  0  0  0  0  0  0
    5.8810   -9.8258    0.0000 C   0  0  2  0  0  0  0  0  0  0  0  0
    5.1697   -9.4078    0.0000 O   0  0  0  0  0  0  0  0  0  0  0  0
    4.4521   -9.8148    0.0000 C   0  0  1  0  0  0  0  0  0  0  0  0
    4.4458  -10.6398    0.0000 C   0  0  1  0  0  0  0  0  0  0  0  0
    5.1570  -11.0578    0.0000 C   0  0  1  0  0  0  0  0  0  0  0  0
    5.8747  -10.6507    0.0000 C   0  0  1  0  0  0  0  0  0  0  0  0
    3.7408   -9.3969    0.0000 C   0  0  0  0  0  0  0  0  0  0  0  0
    3.7281  -11.0468    0.0000 O   0  0  0  0  0  0  0  0  0  0  0  0
    5.1507  -11.8827    0.0000 O   0  0  0  0  0  0  0  0  0  0  0  0
    6.5859  -11.0687    0.0000 O   0  0  0  0  0  0  0  0  0  0  0  0
    3.7471   -8.5719    0.0000 O   0  0  0  0  0  0  0  0  0  0  0  0
    6.5859  -11.8937    0.0000 C   0  0  2  0  0  0  0  0  0  0  0  0
    5.8715  -12.3062    0.0000 O   0  0  0  0  0  0  0  0  0  0  0  0
    5.8715  -13.1312    0.0000 C   0  0  2  0  0  0  0  0  0  0  0  0
    6.5859  -13.5437    0.0000 C   0  0  1  0  0  0  0  0  0  0  0  0
    7.3004  -13.1312    0.0000 C   0  0  2  0  0  0  0  0  0  0  0  0
    7.3004  -12.3062    0.0000 C   0  0  1  0  0  0  0  0  0  0  0  0
    6.5859  -14.3687    0.0000 O   0  0  0  0  0  0  0  0  0  0  0  0
    5.1570  -13.5437    0.0000 C   0  0  0  0  0  0  0  0  0  0  0  0
    8.0149  -11.8937    0.0000 O   0  0  0  0  0  0  0  0  0  0  0  0
    8.0149  -13.5437    0.0000 O   0  0  0  0  0  0  0  0  0  0  0  0
  1  2  1  0  0  0  0
  2  3  1  0  0  0  0
  3  4  1  0  0  0  0
  4  5  1  0  0  0  0
  5  6  1  0  0  0  0
  6  1  1  0  0  0  0
  4  7  1  0  0  0  0
  7  8  1  0  0  0  0
  8  9  1  0  0  0  0
  9 10  1  0  0  0  0
 10  5  1  0  0  0  0
  9 11  1  0  0  0  0
 11 12  1  0  0  0  0
 12 13  2  0  0  0  0
 13 14  1  0  0  0  0
 14 10  1  0  0  0  0
 11 15  1  0  0  0  0
 15 16  1  0  0  0  0
 16 17  1  0  0  0  0
 17 18  1  0  0  0  0
 18 12  1  0  0  0  0
 17 19  1  0  0  0  0
 19 20  1  0  0  0  0
 20 21  1  0  0  0  0
 21 22  1  0  0  0  0
 22 18  1  0  0  0  0
 19 23  1  1  0  0  0
 15 24  2  0  0  0  0
  2 25  1  1  0  0  0
  3 26  1  1  0  0  0
  5 27  1  1  0  0  0
  9 28  1  1  0  0  0
 18 29  1  1  0  0  0
 17 30  1  1  0  0  0
 21 31  1  1  0  0  0
  3 32  1  6  0  0  0
 11 33  1  6  0  0  0
 21 34  1  6  0  0  0
 26 35  1  0  0  0  0
 36 25  1  1  0  0  0
 36 37  1  0  0  0  0
 37 38  1  0  0  0  0
 38 39  1  0  0  0  0
 39 40  1  0  0  0  0
 40 41  1  0  0  0  0
 41 36  1  0  0  0  0
 38 42  1  1  0  0  0
 40 43  1  1  0  0  0
 39 44  1  6  0  0  0
 41 45  1  6  0  0  0
 42 46  1  0  0  0  0
 42 47  2  0  0  0  0
 48 45  1  1  0  0  0
 48 49  1  0  0  0  0
 49 50  1  0  0  0  0
 50 51  1  0  0  0  0
 51 52  1  0  0  0  0
 52 53  1  0  0  0  0
 53 48  1  0  0  0  0
 50 54  1  1  0  0  0
 51 55  1  1  0  0  0
 52 56  1  1  0  0  0
 53 57  1  6  0  0  0
 54 58  1  0  0  0  0
 59 57  1  1  0  0  0
 59 60  1  0  0  0  0
 60 61  1  0  0  0  0
 61 62  1  0  0  0  0
 62 63  1  0  0  0  0
 63 64  1  0  0  0  0
 64 59  1  0  0  0  0
 62 65  1  1  0  0  0
 61 66  1  6  0  0  0
 64 67  1  6  0  0  0
 63 68  1  6  0  0  0
M  END
>  <cdx:fragmentId>
5

$$$$
