93754.cdx
  Mrv1902 05222410232D          

 39 42  0  0  0  0            999 V2000
    4.9893   -6.6550    0.0000 C   0  0  1  0  0  0  0  0  0  0  0  0
    4.9893   -7.4800    0.0000 C   0  0  2  0  0  0  0  0  0  0  0  0
    5.7038   -7.8925    0.0000 C   0  0  0  0  0  0  0  0  0  0  0  0
    6.4182   -7.4800    0.0000 O   0  0  0  0  0  0  0  0  0  0  0  0
    6.4182   -6.6550    0.0000 C   0  0  1  0  0  0  0  0  0  0  0  0
    5.7038   -6.2425    0.0000 C   0  0  2  0  0  0  0  0  0  0  0  0
    4.3443   -6.1406    0.0000 C   0  0  0  0  0  0  0  0  0  0  0  0
    3.5400   -6.3242    0.0000 C   0  0  0  0  0  0  0  0  0  0  0  0
    3.1820   -7.0675    0.0000 C   0  0  0  0  0  0  0  0  0  0  0  0
    3.5400   -7.8108    0.0000 C   0  0  0  0  0  0  0  0  0  0  0  0
    4.3443   -7.9944    0.0000 C   0  0  0  0  0  0  0  0  0  0  0  0
    2.3570   -7.0675    0.0000 C   0  0  0  0  0  0  0  0  0  0  0  0
    5.7038   -8.7175    0.0000 O   0  0  0  0  0  0  0  0  0  0  0  0
    7.1327   -6.2425    0.0000 C   0  0  0  0  0  0  0  0  0  0  0  0
    7.8472   -6.6550    0.0000 C   0  0  0  0  0  0  0  0  0  0  0  0
    8.5617   -6.2425    0.0000 C   0  0  0  0  0  0  0  0  0  0  0  0
    9.2761   -6.6550    0.0000 C   0  0  0  0  0  0  0  0  0  0  0  0
    9.9906   -6.2425    0.0000 C   0  0  0  0  0  0  0  0  0  0  0  0
    9.2761   -7.4800    0.0000 C   0  0  0  0  0  0  0  0  0  0  0  0
   10.7051   -6.6550    0.0000 O   0  0  0  0  0  0  0  0  0  0  0  0
    9.9906   -5.4175    0.0000 O   0  0  0  0  0  0  0  0  0  0  0  0
    4.9893   -5.8300    0.0000 O   0  0  0  0  0  0  0  0  0  0  0  0
    6.1163   -6.9570    0.0000 C   0  0  0  0  0  0  0  0  0  0  0  0
    5.8143   -7.4800    0.0000 C   0  0  0  0  0  0  0  0  0  0  0  0
    6.4182   -5.8300    0.0000 C   0  0  0  0  0  0  0  0  0  0  0  0
    4.2748   -5.4175    0.0000 C   0  0  0  0  0  0  0  0  0  0  0  0
    4.2748   -4.5925    0.0000 O   0  0  0  0  0  0  0  0  0  0  0  0
    3.5604   -5.8300    0.0000 C   0  0  0  0  0  0  0  0  0  0  0  0
   10.7051   -7.4800    0.0000 C   0  0  2  0  0  0  0  0  0  0  0  0
    9.9906   -7.8925    0.0000 O   0  0  0  0  0  0  0  0  0  0  0  0
    9.9906   -8.7175    0.0000 C   0  0  1  0  0  0  0  0  0  0  0  0
   10.7051   -9.1300    0.0000 C   0  0  2  0  0  0  0  0  0  0  0  0
   11.4195   -8.7175    0.0000 C   0  0  1  0  0  0  0  0  0  0  0  0
   11.4195   -7.8925    0.0000 C   0  0  1  0  0  0  0  0  0  0  0  0
    9.2761   -9.1300    0.0000 C   0  0  0  0  0  0  0  0  0  0  0  0
   12.1340   -9.1300    0.0000 O   0  0  0  0  0  0  0  0  0  0  0  0
    9.2761   -9.9550    0.0000 O   0  0  0  0  0  0  0  0  0  0  0  0
   12.1340   -7.4800    0.0000 O   0  0  0  0  0  0  0  0  0  0  0  0
   10.7051   -9.9550    0.0000 O   0  0  0  0  0  0  0  0  0  0  0  0
  1  2  1  0  0  0  0
  2  3  1  0  0  0  0
  3  4  1  0  0  0  0
  4  5  1  0  0  0  0
  5  6  1  0  0  0  0
  6  1  1  0  0  0  0
  1  7  1  0  0  0  0
  7  8  1  0  0  0  0
  8  9  1  0  0  0  0
  9 10  2  0  0  0  0
 10 11  1  0  0  0  0
 11  2  1  0  0  0  0
  9 12  1  0  0  0  0
  3 13  2  0  0  0  0
  5 14  1  0  0  0  0
 14 15  2  0  0  0  0
 15 16  1  0  0  0  0
 16 17  2  0  0  0  0
 17 18  1  0  0  0  0
 17 19  1  0  0  0  0
 18 20  1  0  0  0  0
 18 21  2  0  0  0  0
  1 22  1  1  0  0  0
  6 23  1  1  0  0  0
  2 24  1  1  0  0  0
 24 23  1  0  0  0  0
  5 25  1  6  0  0  0
 22 26  1  0  0  0  0
 26 27  2  0  0  0  0
 26 28  1  0  0  0  0
 29 20  1  1  0  0  0
 29 30  1  0  0  0  0
 30 31  1  0  0  0  0
 31 32  1  0  0  0  0
 32 33  1  0  0  0  0
 33 34  1  0  0  0  0
 34 29  1  0  0  0  0
 31 35  1  1  0  0  0
 33 36  1  1  0  0  0
 35 37  1  0  0  0  0
 34 38  1  6  0  0  0
 32 39  1  6  0  0  0
M  END
>  <cdx:fragmentId>
5

$$$$
