93751.cdx
  Mrv1902 05222410252D          

 54 60  0  0  0  0            999 V2000
   12.2204  -10.6718    0.0000 C   0  0  0  0  0  0  0  0  0  0  0  0
   11.5060  -11.0843    0.0000 C   0  0  0  0  0  0  0  0  0  0  0  0
   11.5060  -11.9093    0.0000 C   0  0  1  0  0  0  0  0  0  0  0  0
   12.2204  -12.3218    0.0000 C   0  0  2  0  0  0  0  0  0  0  0  0
   12.9349  -11.9093    0.0000 C   0  0  0  0  0  0  0  0  0  0  0  0
   13.6494  -12.3218    0.0000 C   0  0  0  0  0  0  0  0  0  0  0  0
   14.3638  -11.9093    0.0000 C   0  0  0  0  0  0  0  0  0  0  0  0
   14.3638  -11.0843    0.0000 C   0  0  1  0  0  0  0  0  0  0  0  0
   15.0783  -10.6718    0.0000 C   0  0  2  0  0  0  0  0  0  0  0  0
   15.0783   -9.8468    0.0000 C   0  0  0  0  0  0  0  0  0  0  0  0
   14.3638   -9.4343    0.0000 C   0  0  0  0  0  0  0  0  0  0  0  0
   13.6494   -9.8468    0.0000 C   0  0  0  0  0  0  0  0  0  0  0  0
   13.6494  -10.6718    0.0000 C   0  0  0  0  0  0  0  0  0  0  0  0
   12.9349  -11.0843    0.0000 C   0  0  1  0  0  0  0  0  0  0  0  0
   15.0783  -11.4968    0.0000 C   0  0  0  0  0  0  0  0  0  0  0  0
   12.9349  -10.2593    0.0000 C   0  0  0  0  0  0  0  0  0  0  0  0
   14.3638  -10.2593    0.0000 C   0  0  0  0  0  0  0  0  0  0  0  0
   12.6329  -13.0363    0.0000 C   0  0  0  0  0  0  0  0  0  0  0  0
   11.8079  -13.0363    0.0000 C   0  0  0  0  0  0  0  0  0  0  0  0
   10.7915  -12.3218    0.0000 O   0  0  0  0  0  0  0  0  0  0  0  0
   10.0786  -11.0834    0.0000 O   0  0  0  0  0  0  0  0  0  0  0  0
   10.0775  -11.9084    0.0000 C   0  0  2  0  0  0  0  0  0  0  0  0
    9.3626  -12.3200    0.0000 C   0  0  1  0  0  0  0  0  0  0  0  0
    8.6486  -11.9066    0.0000 C   0  0  2  0  0  0  0  0  0  0  0  0
    8.6496  -11.0816    0.0000 C   0  0  1  0  0  0  0  0  0  0  0  0
    9.3646  -10.6700    0.0000 C   0  0  1  0  0  0  0  0  0  0  0  0
    9.3615  -13.1450    0.0000 O   0  0  0  0  0  0  0  0  0  0  0  0
    9.3657   -9.8450    0.0000 C   0  0  0  0  0  0  0  0  0  0  0  0
    8.6517   -9.4316    0.0000 O   0  0  0  0  0  0  0  0  0  0  0  0
    7.9357  -10.6682    0.0000 O   0  0  0  0  0  0  0  0  0  0  0  0
    7.9336  -12.3182    0.0000 O   0  0  0  0  0  0  0  0  0  0  0  0
   15.7928  -11.0843    0.0000 C   0  0  0  0  0  0  0  0  0  0  0  0
   16.5073  -10.6718    0.0000 C   0  0  0  0  0  0  0  0  0  0  0  0
   16.5073   -9.8468    0.0000 C   0  0  2  0  0  0  0  0  0  0  0  0
   15.7928   -9.4343    0.0000 C   0  0  0  0  0  0  0  0  0  0  0  0
   17.2217   -9.4343    0.0000 C   0  0  0  0  0  0  0  0  0  0  0  0
   17.2217   -8.6093    0.0000 C   0  0  0  0  0  0  0  0  0  0  0  0
   16.5073   -8.1968    0.0000 C   0  0  1  0  0  0  0  0  0  0  0  0
   15.7928   -8.6093    0.0000 C   0  0  0  0  0  0  0  0  0  0  0  0
   16.9198   -7.4823    0.0000 C   0  0  0  0  0  0  0  0  0  0  0  0
   16.0948   -7.4823    0.0000 C   0  0  0  0  0  0  0  0  0  0  0  0
   17.2217  -10.2593    0.0000 C   0  0  0  0  0  0  0  0  0  0  0  0
   17.2217  -11.0843    0.0000 O   0  0  0  0  0  0  0  0  0  0  0  0
   17.9362   -9.8468    0.0000 O   0  0  0  0  0  0  0  0  0  0  0  0
   10.0806   -9.4334    0.0000 O   0  0  0  0  0  0  0  0  0  0  0  0
    7.9051  -13.2136    0.0000 O   0  0  0  0  0  0  0  0  0  0  0  0
    8.6235  -13.6193    0.0000 C   0  0  2  0  0  0  0  0  0  0  0  0
    8.6314  -14.4443    0.0000 C   0  0  1  0  0  0  0  0  0  0  0  0
    7.9209  -14.8636    0.0000 C   0  0  2  0  0  0  0  0  0  0  0  0
    7.2025  -14.4579    0.0000 C   0  0  1  0  0  0  0  0  0  0  0  0
    7.1946  -13.6329    0.0000 C   0  0  0  0  0  0  0  0  0  0  0  0
    6.4920  -14.8772    0.0000 O   0  0  0  0  0  0  0  0  0  0  0  0
    9.3497  -14.8499    0.0000 O   0  0  0  0  0  0  0  0  0  0  0  0
    7.9287  -15.6885    0.0000 O   0  0  0  0  0  0  0  0  0  0  0  0
  1  2  1  0  0  0  0
  2  3  1  0  0  0  0
  3  4  1  0  0  0  0
  4  5  1  0  0  0  0
  5  6  1  0  0  0  0
  6  7  1  0  0  0  0
  7  8  1  0  0  0  0
  8  9  1  0  0  0  0
  9 10  1  0  0  0  0
 10 11  2  0  0  0  0
 11 12  1  0  0  0  0
 12 13  1  0  0  0  0
  8 13  1  0  0  0  0
 13 14  1  0  0  0  0
  5 14  1  0  0  0  0
  1 14  1  0  0  0  0
  9 15  1  6  0  0  0
 14 16  1  1  0  0  0
  8 17  1  1  0  0  0
  4 18  1  6  0  0  0
  4 19  1  1  0  0  0
 21 22  1  0  0  0  0
 22 23  1  0  0  0  0
 23 24  1  0  0  0  0
 24 25  1  0  0  0  0
 25 26  1  0  0  0  0
 21 26  1  0  0  0  0
 23 27  1  6  0  0  0
 28 29  1  0  0  0  0
 26 28  1  1  0  0  0
 25 30  1  6  0  0  0
 24 31  1  1  0  0  0
 22 20  1  1  0  0  0
  3 20  1  1  0  0  0
  9 32  1  0  0  0  0
 32 33  1  0  0  0  0
 33 34  1  0  0  0  0
 34 35  1  0  0  0  0
 35 10  1  0  0  0  0
 34 36  1  0  0  0  0
 36 37  1  0  0  0  0
 37 38  1  0  0  0  0
 38 39  1  0  0  0  0
 39 35  1  0  0  0  0
 38 40  1  1  0  0  0
 38 41  1  6  0  0  0
 34 42  1  1  0  0  0
 42 43  1  0  0  0  0
 42 44  2  0  0  0  0
 28 45  2  0  0  0  0
 46 47  1  0  0  0  0
 47 48  1  0  0  0  0
 48 49  1  0  0  0  0
 49 50  1  0  0  0  0
 50 51  1  0  0  0  0
 46 51  1  0  0  0  0
 50 52  1  6  0  0  0
 48 53  1  6  0  0  0
 49 54  1  1  0  0  0
 47 27  1  1  0  0  0
M  END
>  <cdx:fragmentId>
31943

$$$$
