93765.cdx
  Mrv1902 05222410222D          

 18 19  0  0  0  0            999 V2000
    9.2592   -7.2495    0.0000 C   0  0  0  0  0  0  0  0  0  0  0  0
    9.2733   -6.4246    0.0000 C   0  0  0  0  0  0  0  0  0  0  0  0
    8.5660   -5.9999    0.0000 C   0  0  0  0  0  0  0  0  0  0  0  0
    7.8445   -6.4002    0.0000 C   0  0  1  0  0  0  0  0  0  0  0  0
    7.8304   -7.2250    0.0000 C   0  0  2  0  0  0  0  0  0  0  0  0
    8.5378   -7.6497    0.0000 C   0  0  0  0  0  0  0  0  0  0  0  0
    7.1372   -5.9755    0.0000 C   0  0  0  0  0  0  0  0  0  0  0  0
    6.4158   -6.3758    0.0000 C   0  0  1  0  0  0  0  0  0  0  0  0
    6.4017   -7.2006    0.0000 C   0  0  0  0  0  0  0  0  0  0  0  0
    7.1090   -7.6253    0.0000 C   0  0  0  0  0  0  0  0  0  0  0  0
    8.5801   -5.1751    0.0000 C   0  0  0  0  0  0  0  0  0  0  0  0
    5.7085   -5.9511    0.0000 C   0  0  0  0  0  0  0  0  0  0  0  0
    5.7226   -5.1262    0.0000 C   0  0  0  0  0  0  0  0  0  0  0  0
    4.9871   -6.3513    0.0000 C   0  0  0  0  0  0  0  0  0  0  0  0
    4.9730   -7.1762    0.0000 O   0  0  0  0  0  0  0  0  0  0  0  0
    4.2798   -5.9267    0.0000 O   0  0  0  0  0  0  0  0  0  0  0  0
    7.8163   -8.0499    0.0000 C   0  0  0  0  0  0  0  0  0  0  0  0
    7.8586   -5.5753    0.0000 H   0  0  0  0  0  0  0  0  0  0  0  0
  1  2  1  0  0  0  0
  2  3  1  0  0  0  0
  3  4  1  0  0  0  0
  4  5  1  0  0  0  0
  5  6  1  0  0  0  0
  6  1  1  0  0  0  0
  4  7  1  0  0  0  0
  7  8  1  0  0  0  0
  8  9  1  0  0  0  0
  9 10  1  0  0  0  0
 10  5  1  0  0  0  0
  3 11  2  0  0  0  0
  8 12  1  1  0  0  0
 12 13  2  0  0  0  0
 12 14  1  0  0  0  0
 14 15  2  0  0  0  0
 14 16  1  0  0  0  0
  5 17  1  1  0  0  0
  4 18  1  6  0  0  0
M  END
>  <cdx:fragmentId>
5

$$$$
