93769.cdx
  Mrv1902 05222410232D          

 21 22  0  0  0  0            999 V2000
    3.7518   -6.3937    0.0000 C   0  0  0  0  0  0  0  0  0  0  0  0
    3.7518   -7.2188    0.0000 C   0  0  0  0  0  0  0  0  0  0  0  0
    4.4663   -7.6313    0.0000 C   0  0  1  0  0  0  0  0  0  0  0  0
    5.1807   -7.2188    0.0000 C   0  0  1  0  0  0  0  0  0  0  0  0
    5.1807   -6.3937    0.0000 C   0  0  2  0  0  0  0  0  0  0  0  0
    4.4663   -5.9813    0.0000 C   0  0  0  0  0  0  0  0  0  0  0  0
    5.8952   -7.6313    0.0000 C   0  0  2  0  0  0  0  0  0  0  0  0
    6.6097   -7.2188    0.0000 C   0  0  1  0  0  0  0  0  0  0  0  0
    6.6097   -6.3937    0.0000 C   0  0  0  0  0  0  0  0  0  0  0  0
    5.8952   -5.9813    0.0000 C   0  0  0  0  0  0  0  0  0  0  0  0
    7.3242   -7.6313    0.0000 C   0  0  0  0  0  0  0  0  0  0  0  0
    8.0386   -7.2188    0.0000 C   0  0  0  0  0  0  0  0  0  0  0  0
    8.0386   -6.3937    0.0000 O   0  0  0  0  0  0  0  0  0  0  0  0
    8.7531   -7.6313    0.0000 O   0  0  0  0  0  0  0  0  0  0  0  0
    9.4676   -7.2188    0.0000 C   0  0  0  0  0  0  0  0  0  0  0  0
    7.3242   -8.4563    0.0000 C   0  0  0  0  0  0  0  0  0  0  0  0
    4.0538   -8.3457    0.0000 C   0  0  0  0  0  0  0  0  0  0  0  0
    5.1807   -5.5687    0.0000 C   0  0  0  0  0  0  0  0  0  0  0  0
    4.8788   -8.3457    0.0000 O   0  0  0  0  0  0  0  0  0  0  0  0
    5.1807   -8.0437    0.0000 H   0  0  0  0  0  0  0  0  0  0  0  0
    5.8952   -8.4563    0.0000 O   0  0  0  0  0  0  0  0  0  0  0  0
  1  2  1  0  0  0  0
  2  3  1  0  0  0  0
  3  4  1  0  0  0  0
  4  5  1  0  0  0  0
  5  6  1  0  0  0  0
  6  1  1  0  0  0  0
  4  7  1  0  0  0  0
  7  8  1  0  0  0  0
  8  9  1  0  0  0  0
  9 10  1  0  0  0  0
 10  5  1  0  0  0  0
  8 11  1  1  0  0  0
 11 12  1  0  0  0  0
 12 13  2  0  0  0  0
 12 14  1  0  0  0  0
 14 15  1  0  0  0  0
 11 16  2  0  0  0  0
  3 17  1  1  0  0  0
  5 18  1  1  0  0  0
  3 19  1  6  0  0  0
  4 20  1  6  0  0  0
  7 21  1  6  0  0  0
M  END
>  <cdx:fragmentId>
5

$$$$
