93766.cdx
  Mrv1902 05222410222D          

 19 19  0  0  0  0            999 V2000
    6.2772   -6.4075    0.0000 C   0  0  2  0  0  0  0  0  0  0  0  0
    6.2772   -7.2325    0.0000 C   0  0  0  0  0  0  0  0  0  0  0  0
    6.9222   -7.7469    0.0000 C   0  0  0  0  0  0  0  0  0  0  0  0
    7.7265   -7.5633    0.0000 C   0  0  1  0  0  0  0  0  0  0  0  0
    8.0845   -6.8200    0.0000 C   0  0  0  0  0  0  0  0  0  0  0  0
    7.7265   -6.0767    0.0000 C   0  0  0  0  0  0  0  0  0  0  0  0
    6.9222   -5.8931    0.0000 C   0  0  2  0  0  0  0  0  0  0  0  0
    6.7386   -5.0888    0.0000 C   0  0  0  0  0  0  0  0  0  0  0  0
    5.5339   -6.0495    0.0000 C   0  0  0  0  0  0  0  0  0  0  0  0
    8.2409   -8.2083    0.0000 C   0  0  0  0  0  0  0  0  0  0  0  0
    4.8523   -6.5143    0.0000 C   0  0  0  0  0  0  0  0  0  0  0  0
    4.1090   -6.1563    0.0000 C   0  0  0  0  0  0  0  0  0  0  0  0
    3.4273   -6.6211    0.0000 C   0  0  0  0  0  0  0  0  0  0  0  0
    4.0473   -5.3336    0.0000 O   0  0  0  0  0  0  0  0  0  0  0  0
    5.5339   -7.5905    0.0000 O   0  0  0  0  0  0  0  0  0  0  0  0
    7.9395   -8.9763    0.0000 C   0  0  0  0  0  0  0  0  0  0  0  0
    9.0567   -8.0854    0.0000 C   0  0  0  0  0  0  0  0  0  0  0  0
    9.5711   -8.7304    0.0000 O   0  0  0  0  0  0  0  0  0  0  0  0
    9.3581   -7.3174    0.0000 O   0  0  0  0  0  0  0  0  0  0  0  0
  1  2  1  0  0  0  0
  2  3  1  0  0  0  0
  3  4  1  0  0  0  0
  4  5  1  0  0  0  0
  5  6  1  0  0  0  0
  6  7  1  0  0  0  0
  7  1  1  0  0  0  0
  7  8  1  1  0  0  0
  1  9  1  1  0  0  0
  4 10  1  1  0  0  0
  9 11  1  0  0  0  0
 11 12  1  0  0  0  0
 12 13  1  0  0  0  0
 12 14  2  0  0  0  0
  2 15  2  0  0  0  0
 10 16  2  0  0  0  0
 10 17  1  0  0  0  0
 17 18  1  0  0  0  0
 17 19  2  0  0  0  0
M  END
>  <cdx:fragmentId>
5

$$$$
