93768.cdx
  Mrv1902 05222410232D          

 18 19  0  0  0  0            999 V2000
    6.9425   -9.3860    0.0000 C   0  0  0  0  0  0  0  0  0  0  0  0
    6.2281   -8.9735    0.0000 C   0  0  1  0  0  0  0  0  0  0  0  0
    6.2281   -8.1485    0.0000 C   0  0  0  0  0  0  0  0  0  0  0  0
    6.9425   -7.7360    0.0000 C   0  0  0  0  0  0  0  0  0  0  0  0
    7.6570   -8.1485    0.0000 C   0  0  1  0  0  0  0  0  0  0  0  0
    8.3715   -7.7360    0.0000 C   0  0  2  0  0  0  0  0  0  0  0  0
    9.0859   -8.1485    0.0000 C   0  0  0  0  0  0  0  0  0  0  0  0
    9.0859   -8.9735    0.0000 C   0  0  0  0  0  0  0  0  0  0  0  0
    8.3715   -9.3860    0.0000 C   0  0  0  0  0  0  0  0  0  0  0  0
    7.6570   -8.9735    0.0000 C   0  0  2  0  0  0  0  0  0  0  0  0
    4.7991   -8.9735    0.0000 C   0  0  0  0  0  0  0  0  0  0  0  0
    8.3715  -10.2110    0.0000 C   0  0  0  0  0  0  0  0  0  0  0  0
    7.6570   -7.3235    0.0000 C   0  0  0  0  0  0  0  0  0  0  0  0
    8.3715   -6.9110    0.0000 O   0  0  0  0  0  0  0  0  0  0  0  0
    4.7991  -10.6235    0.0000 O   0  0  0  0  0  0  0  0  0  0  0  0
    5.5136   -9.3860    0.0000 C   0  0  0  0  0  0  0  0  0  0  0  0
    5.5136  -10.2110    0.0000 C   0  0  0  0  0  0  0  0  0  0  0  0
    7.6570   -9.7985    0.0000 H   0  0  0  0  0  0  0  0  0  0  0  0
 16 11  2  0  0  0  0
 17 15  1  0  0  0  0
 17 16  1  0  0  0  0
  1  2  1  0  0  0  0
  2  3  1  0  0  0  0
  3  4  1  0  0  0  0
  4  5  1  0  0  0  0
  5  6  1  0  0  0  0
  6  7  1  0  0  0  0
  7  8  1  0  0  0  0
  8  9  2  0  0  0  0
  9 10  1  0  0  0  0
  1 10  1  0  0  0  0
  5 10  1  0  0  0  0
  2 16  1  6  0  0  0
  9 12  1  0  0  0  0
  5 13  1  6  0  0  0
  6 14  1  1  0  0  0
 10 18  1  1  0  0  0
M  END
>  <cdx:fragmentId>
5

$$$$
