93762.cdx
  Mrv1902 05222410212D          

 59 66  0  0  0  0            999 V2000
   15.8288   -9.0994    0.0000 C   0  0  1  0  0  0  0  0  0  0  0  0
   16.5402   -8.6818    0.0000 C   0  0  2  0  0  0  0  0  0  0  0  0
   17.3267   -8.9310    0.0000 C   0  0  0  0  0  0  0  0  0  0  0  0
   17.8068   -8.2601    0.0000 C   0  0  2  0  0  0  0  0  0  0  0  0
   18.5895   -7.9995    0.0000 O   0  0  0  0  0  0  0  0  0  0  0  0
   18.5836   -7.1745    0.0000 C   0  0  2  0  0  0  0  0  0  0  0  0
   17.7971   -6.9253    0.0000 C   0  0  2  0  0  0  0  0  0  0  0  0
   17.3170   -7.5962    0.0000 C   0  0  2  0  0  0  0  0  0  0  0  0
   16.5343   -7.8568    0.0000 C   0  0  1  0  0  0  0  0  0  0  0  0
   15.8169   -7.4494    0.0000 C   0  0  0  0  0  0  0  0  0  0  0  0
   15.1054   -7.8671    0.0000 C   0  0  0  0  0  0  0  0  0  0  0  0
   15.1113   -8.6921    0.0000 C   0  0  2  0  0  0  0  0  0  0  0  0
   14.3999   -9.1097    0.0000 C   0  0  1  0  0  0  0  0  0  0  0  0
   13.6824   -8.7024    0.0000 C   0  0  0  0  0  0  0  0  0  0  0  0
   12.9710   -9.1200    0.0000 C   0  0  0  0  0  0  0  0  0  0  0  0
   12.9769   -9.9450    0.0000 C   0  0  1  0  0  0  0  0  0  0  0  0
   13.6943  -10.3523    0.0000 C   0  0  0  0  0  0  0  0  0  0  0  0
   14.4058   -9.9347    0.0000 C   0  0  0  0  0  0  0  0  0  0  0  0
   15.1233  -10.3420    0.0000 C   0  0  0  0  0  0  0  0  0  0  0  0
   15.8347   -9.9244    0.0000 C   0  0  0  0  0  0  0  0  0  0  0  0
   18.4914   -6.3547    0.0000 O   0  0  0  0  0  0  0  0  0  0  0  0
   19.3397   -7.5046    0.0000 C   0  0  0  0  0  0  0  0  0  0  0  0
   20.0036   -7.0149    0.0000 C   0  0  0  0  0  0  0  0  0  0  0  0
   19.9114   -6.1951    0.0000 C   0  0  2  0  0  0  0  0  0  0  0  0
   19.1553   -5.8650    0.0000 C   0  0  0  0  0  0  0  0  0  0  0  0
   12.2654  -10.3627    0.0000 O   0  0  0  0  0  0  0  0  0  0  0  0
   14.3939   -8.2847    0.0000 C   0  0  0  0  0  0  0  0  0  0  0  0
   16.5343   -7.0318    0.0000 C   0  0  0  0  0  0  0  0  0  0  0  0
   17.5365   -6.1425    0.0000 C   0  0  0  0  0  0  0  0  0  0  0  0
   20.5753   -5.7053    0.0000 C   0  0  0  0  0  0  0  0  0  0  0  0
   15.8228   -8.2744    0.0000 H   0  0  0  0  0  0  0  0  0  0  0  0
   18.2965   -8.9240    0.0000 H   0  0  0  0  0  0  0  0  0  0  0  0
   16.9500   -6.8573    0.0000 H   0  0  0  0  0  0  0  0  0  0  0  0
   15.1173   -9.5170    0.0000 H   0  0  0  0  0  0  0  0  0  0  0  0
   11.5480   -9.9553    0.0000 C   0  0  2  0  0  0  0  0  0  0  0  0
   11.5391   -9.1304    0.0000 O   0  0  0  0  0  0  0  0  0  0  0  0
   10.8202   -8.7257    0.0000 C   0  0  1  0  0  0  0  0  0  0  0  0
   10.1102   -9.1304    0.0000 C   0  0  2  0  0  0  0  0  0  0  0  0
   10.1102   -9.9553    0.0000 C   0  0  1  0  0  0  0  0  0  0  0  0
   10.8202  -10.3600    0.0000 C   0  0  1  0  0  0  0  0  0  0  0  0
   10.8179   -7.9007    0.0000 C   0  0  0  0  0  0  0  0  0  0  0  0
    9.3969  -10.3698    0.0000 O   0  0  0  0  0  0  0  0  0  0  0  0
   10.8158  -11.1850    0.0000 O   0  0  0  0  0  0  0  0  0  0  0  0
    9.3969   -8.7159    0.0000 O   0  0  0  0  0  0  0  0  0  0  0  0
   10.1035   -7.4882    0.0000 O   0  0  0  0  0  0  0  0  0  0  0  0
   11.2130  -11.9081    0.0000 C   0  0  2  0  0  0  0  0  0  0  0  0
   10.7836  -12.6125    0.0000 O   0  0  0  0  0  0  0  0  0  0  0  0
   11.1789  -13.3366    0.0000 C   0  0  2  0  0  0  0  0  0  0  0  0
   12.0095  -13.3465    0.0000 C   0  0  1  0  0  0  0  0  0  0  0  0
   12.4333  -12.6387    0.0000 C   0  0  2  0  0  0  0  0  0  0  0  0
   12.0323  -11.9112    0.0000 C   0  0  1  0  0  0  0  0  0  0  0  0
   12.4121  -14.0667    0.0000 O   0  0  0  0  0  0  0  0  0  0  0  0
   10.7537  -14.0436    0.0000 C   0  0  0  0  0  0  0  0  0  0  0  0
   13.2582  -12.6535    0.0000 O   0  0  0  0  0  0  0  0  0  0  0  0
   12.4533  -11.2017    0.0000 O   0  0  0  0  0  0  0  0  0  0  0  0
   16.5462   -9.5067    0.0000 O   0  0  0  0  0  0  0  0  0  0  0  0
   13.2681  -11.3312    0.0000 C   0  0  0  0  0  0  0  0  0  0  0  0
   13.7876  -10.6903    0.0000 C   0  0  0  0  0  0  0  0  0  0  0  0
   13.5633  -12.1016    0.0000 O   0  0  0  0  0  0  0  0  0  0  0  0
  1  2  1  0  0  0  0
  2  3  1  0  0  0  0
  3  4  1  0  0  0  0
  4  5  1  0  0  0  0
  6  5  1  6  0  0  0
  6  7  1  0  0  0  0
  7  8  1  0  0  0  0
  8  9  1  0  0  0  0
  9 10  1  0  0  0  0
 10 11  1  0  0  0  0
 11 12  1  0  0  0  0
 12 13  1  0  0  0  0
 13 14  1  0  0  0  0
 14 15  1  0  0  0  0
 15 16  1  0  0  0  0
 16 17  1  0  0  0  0
 17 18  1  0  0  0  0
 18 19  2  0  0  0  0
 19 20  1  0  0  0  0
  1 20  1  0  0  0  0
  1 12  1  0  0  0  0
 13 18  1  0  0  0  0
  2  9  1  0  0  0  0
  4  8  1  0  0  0  0
 22 23  1  0  0  0  0
 23 24  1  0  0  0  0
 24 25  1  0  0  0  0
 21 25  1  0  0  0  0
  6 21  1  0  0  0  0
  6 22  1  0  0  0  0
 16 26  1  1  0  0  0
 13 27  1  1  0  0  0
  9 28  1  1  0  0  0
  7 29  1  6  0  0  0
 24 30  1  6  0  0  0
  1 31  1  1  0  0  0
  4 32  1  6  0  0  0
  8 33  1  6  0  0  0
 12 34  1  6  0  0  0
 35 26  1  1  0  0  0
 35 36  1  0  0  0  0
 36 37  1  0  0  0  0
 37 38  1  0  0  0  0
 38 39  1  0  0  0  0
 39 40  1  0  0  0  0
 40 35  1  0  0  0  0
 37 41  1  1  0  0  0
 39 42  1  1  0  0  0
 40 43  1  6  0  0  0
 38 44  1  6  0  0  0
 41 45  1  0  0  0  0
 46 43  1  1  0  0  0
 46 47  1  0  0  0  0
 47 48  1  0  0  0  0
 48 49  1  0  0  0  0
 49 50  1  0  0  0  0
 50 51  1  0  0  0  0
 51 46  1  0  0  0  0
 49 52  1  1  0  0  0
 48 53  1  6  0  0  0
 50 54  1  6  0  0  0
 51 55  1  6  0  0  0
  2 56  1  6  0  0  0
 55 57  1  0  0  0  0
 57 58  1  0  0  0  0
 57 59  2  0  0  0  0
M  END
>  <cdx:fragmentId>
5

$$$$
