93778.cdx
  Mrv1902 05222410252D          

 32 36  0  0  0  0            999 V2000
    4.2331   -8.9788    0.0000 C   0  0  0  0  0  0  0  0  0  0  0  0
    4.2331   -9.8038    0.0000 C   0  0  0  0  0  0  0  0  0  0  0  0
    4.9475  -10.2163    0.0000 C   0  0  0  0  0  0  0  0  0  0  0  0
    5.6620   -9.8038    0.0000 C   0  0  1  0  0  0  0  0  0  0  0  0
    5.6620   -8.9788    0.0000 C   0  0  2  0  0  0  0  0  0  0  0  0
    4.9475   -8.5663    0.0000 C   0  0  0  0  0  0  0  0  0  0  0  0
    6.3765  -10.2163    0.0000 C   0  0  0  0  0  0  0  0  0  0  0  0
    7.0909   -9.8038    0.0000 C   0  0  2  0  0  0  0  0  0  0  0  0
    7.0909   -8.9788    0.0000 C   0  0  0  0  0  0  0  0  0  0  0  0
    6.3765   -8.5663    0.0000 C   0  0  0  0  0  0  0  0  0  0  0  0
    7.8054   -8.5663    0.0000 C   0  0  1  0  0  0  0  0  0  0  0  0
    7.8054   -7.7413    0.0000 C   0  0  2  0  0  0  0  0  0  0  0  0
    7.0909   -7.3287    0.0000 C   0  0  1  0  0  0  0  0  0  0  0  0
    6.3765   -7.7413    0.0000 C   0  0  0  0  0  0  0  0  0  0  0  0
    8.5900   -8.8212    0.0000 C   0  0  0  0  0  0  0  0  0  0  0  0
    9.0750   -8.1538    0.0000 C   0  0  0  0  0  0  0  0  0  0  0  0
    8.5900   -7.4863    0.0000 C   0  0  2  0  0  0  0  0  0  0  0  0
    3.5186  -10.2163    0.0000 O   0  0  0  0  0  0  0  0  0  0  0  0
    5.6620   -7.3287    0.0000 O   0  0  0  0  0  0  0  0  0  0  0  0
    8.8450   -9.6058    0.0000 O   0  0  0  0  0  0  0  0  0  0  0  0
    7.0909   -6.5038    0.0000 O   0  0  0  0  0  0  0  0  0  0  0  0
    8.8450   -6.7017    0.0000 C   0  0  2  0  0  0  0  0  0  0  0  0
    8.2929   -6.0886    0.0000 C   0  0  0  0  0  0  0  0  0  0  0  0
    4.5350  -10.9307    0.0000 C   0  0  0  0  0  0  0  0  0  0  0  0
    5.6620   -8.1538    0.0000 C   0  0  0  0  0  0  0  0  0  0  0  0
    7.8054   -6.9162    0.0000 C   0  0  0  0  0  0  0  0  0  0  0  0
    5.3600  -10.9307    0.0000 C   0  0  0  0  0  0  0  0  0  0  0  0
    5.6620  -10.6288    0.0000 H   0  0  0  0  0  0  0  0  0  0  0  0
    7.8054  -10.2163    0.0000 O   0  0  0  0  0  0  0  0  0  0  0  0
    7.8054   -9.3913    0.0000 C   0  0  0  0  0  0  0  0  0  0  0  0
    9.6519   -6.5302    0.0000 C   0  0  0  0  0  0  0  0  0  0  0  0
    9.4049   -7.3573    0.0000 H   0  0  0  0  0  0  0  0  0  0  0  0
  1  2  1  0  0  0  0
  2  3  1  0  0  0  0
  3  4  1  0  0  0  0
  4  5  1  0  0  0  0
  5  6  1  0  0  0  0
  6  1  1  0  0  0  0
  4  7  1  0  0  0  0
  7  8  1  0  0  0  0
  8  9  1  0  0  0  0
  9 10  2  0  0  0  0
 10  5  1  0  0  0  0
  9 11  1  0  0  0  0
 11 12  1  0  0  0  0
 12 13  1  0  0  0  0
 13 14  1  0  0  0  0
 14 10  1  0  0  0  0
 11 15  1  0  0  0  0
 15 16  1  0  0  0  0
 16 17  1  0  0  0  0
 17 12  1  0  0  0  0
  2 18  2  0  0  0  0
 14 19  2  0  0  0  0
 15 20  2  0  0  0  0
 13 21  1  1  0  0  0
 17 22  1  0  0  0  0
 22 23  1  0  0  0  0
 23 21  1  0  0  0  0
  3 24  1  0  0  0  0
  5 25  1  1  0  0  0
 12 26  1  1  0  0  0
  3 27  1  0  0  0  0
  4 28  1  6  0  0  0
  8 29  1  6  0  0  0
 11 30  1  6  0  0  0
 22 31  1  6  0  0  0
 17 32  1  6  0  0  0
M  END
>  <cdx:fragmentId>
5

$$$$
