93776.cdx
  Mrv1902 05222410212D          

 33 36  0  0  0  0            999 V2000
    9.0800   -6.8798    0.0000 C   0  0  1  0  0  0  0  0  0  0  0  0
    8.5280   -6.2668    0.0000 C   0  0  0  0  0  0  0  0  0  0  0  0
   10.1420   -5.9237    0.0000 O   0  0  0  0  0  0  0  0  0  0  0  0
    5.1826   -8.7444    0.0000 C   0  0  0  0  0  0  0  0  0  0  0  0
    4.4681   -9.1569    0.0000 C   0  0  0  0  0  0  0  0  0  0  0  0
    4.4681   -9.9819    0.0000 C   0  0  0  0  0  0  0  0  0  0  0  0
    5.1826  -10.3944    0.0000 C   0  0  0  0  0  0  0  0  0  0  0  0
    5.8971   -9.9819    0.0000 C   0  0  2  0  0  0  0  0  0  0  0  0
    6.6115  -10.3944    0.0000 C   0  0  0  0  0  0  0  0  0  0  0  0
    7.3260   -9.9819    0.0000 C   0  0  0  0  0  0  0  0  0  0  0  0
    7.3260   -9.1569    0.0000 C   0  0  0  0  0  0  0  0  0  0  0  0
    8.0405   -8.7444    0.0000 C   0  0  2  0  0  0  0  0  0  0  0  0
    8.8251   -8.9993    0.0000 C   0  0  0  0  0  0  0  0  0  0  0  0
    9.3100   -8.3319    0.0000 C   0  0  0  0  0  0  0  0  0  0  0  0
    8.8251   -7.6645    0.0000 C   0  0  1  0  0  0  0  0  0  0  0  0
    8.0405   -7.9194    0.0000 C   0  0  1  0  0  0  0  0  0  0  0  0
    7.3260   -7.5069    0.0000 C   0  0  0  0  0  0  0  0  0  0  0  0
    6.6115   -7.9194    0.0000 C   0  0  0  0  0  0  0  0  0  0  0  0
    6.6115   -8.7444    0.0000 C   0  0  0  0  0  0  0  0  0  0  0  0
    5.8971   -9.1569    0.0000 C   0  0  1  0  0  0  0  0  0  0  0  0
    9.0800   -9.7840    0.0000 O   0  0  0  0  0  0  0  0  0  0  0  0
    5.8971   -7.5069    0.0000 O   0  0  0  0  0  0  0  0  0  0  0  0
    8.0405  -10.3944    0.0000 O   0  0  0  0  0  0  0  0  0  0  0  0
    3.7537  -10.3944    0.0000 O   0  0  0  0  0  0  0  0  0  0  0  0
    8.0405   -9.5694    0.0000 C   0  0  0  0  0  0  0  0  0  0  0  0
    8.0405   -7.0944    0.0000 C   0  0  0  0  0  0  0  0  0  0  0  0
    5.8971   -8.3319    0.0000 C   0  0  0  0  0  0  0  0  0  0  0  0
    5.5951  -11.1089    0.0000 C   0  0  0  0  0  0  0  0  0  0  0  0
    4.7701  -11.1089    0.0000 C   0  0  0  0  0  0  0  0  0  0  0  0
    5.8971  -10.8069    0.0000 H   0  0  0  0  0  0  0  0  0  0  0  0
   10.4390   -7.3214    0.0000 O   0  0  0  0  0  0  0  0  0  0  0  0
    9.8870   -6.7083    0.0000 C   0  0  0  0  0  0  0  0  0  0  0  0
    9.6399   -7.5354    0.0000 H   0  0  0  0  0  0  0  0  0  0  0  0
 32  3  1  0  0  0  0
 32 31  2  0  0  0  0
 32  1  1  0  0  0  0
  1  2  1  6  0  0  0
  4  5  1  0  0  0  0
  5  6  1  0  0  0  0
  6  7  1  0  0  0  0
  7  8  1  0  0  0  0
  8  9  1  0  0  0  0
  9 10  1  0  0  0  0
 10 11  1  0  0  0  0
 11 12  1  0  0  0  0
 12 13  1  0  0  0  0
 13 14  1  0  0  0  0
 15 14  1  0  0  0  0
 15 16  1  0  0  0  0
 12 16  1  0  0  0  0
 16 17  1  0  0  0  0
 17 18  1  0  0  0  0
 18 19  1  0  0  0  0
 11 19  2  0  0  0  0
 19 20  1  0  0  0  0
  8 20  1  0  0  0  0
  4 20  1  0  0  0  0
 13 21  2  0  0  0  0
 18 22  2  0  0  0  0
 10 23  2  0  0  0  0
  6 24  2  0  0  0  0
 12 25  1  6  0  0  0
 16 26  1  1  0  0  0
 20 27  1  1  0  0  0
  7 28  1  0  0  0  0
  7 29  1  0  0  0  0
  1 15  1  0  0  0  0
  8 30  1  6  0  0  0
 15 33  1  6  0  0  0
M  END
>  <cdx:fragmentId>
15

$$$$
