93775.cdx
  Mrv1902 05222410212D          

 41 44  0  0  0  0            999 V2000
   11.2941   -3.4826    0.0000 C   0  0  0  0  0  0  0  0  0  0  0  0
   10.4871   -3.6541    0.0000 C   0  0  0  0  0  0  0  0  0  0  0  0
   10.2322   -4.4388    0.0000 C   0  0  0  0  0  0  0  0  0  0  0  0
    9.4252   -4.6103    0.0000 C   0  0  0  0  0  0  0  0  0  0  0  0
    9.1703   -5.3949    0.0000 C   0  0  0  0  0  0  0  0  0  0  0  0
    8.3633   -5.5664    0.0000 C   0  0  1  0  0  0  0  0  0  0  0  0
    7.8112   -4.9534    0.0000 C   0  0  0  0  0  0  0  0  0  0  0  0
   11.5490   -2.6980    0.0000 O   0  0  0  0  0  0  0  0  0  0  0  0
   11.8461   -4.0957    0.0000 O   0  0  0  0  0  0  0  0  0  0  0  0
    8.8732   -3.9972    0.0000 O   0  0  0  0  0  0  0  0  0  0  0  0
    9.9351   -3.0411    0.0000 C   0  0  0  0  0  0  0  0  0  0  0  0
    4.4658   -7.4310    0.0000 C   0  0  0  0  0  0  0  0  0  0  0  0
    3.7514   -7.8435    0.0000 C   0  0  0  0  0  0  0  0  0  0  0  0
    3.7514   -8.6685    0.0000 C   0  0  1  0  0  0  0  0  0  0  0  0
    4.4658   -9.0810    0.0000 C   0  0  0  0  0  0  0  0  0  0  0  0
    5.1803   -8.6685    0.0000 C   0  0  2  0  0  0  0  0  0  0  0  0
    5.8948   -9.0810    0.0000 C   0  0  0  0  0  0  0  0  0  0  0  0
    6.6092   -8.6685    0.0000 C   0  0  0  0  0  0  0  0  0  0  0  0
    6.6092   -7.8435    0.0000 C   0  0  0  0  0  0  0  0  0  0  0  0
    7.3237   -7.4310    0.0000 C   0  0  2  0  0  0  0  0  0  0  0  0
    8.1083   -7.6859    0.0000 C   0  0  0  0  0  0  0  0  0  0  0  0
    8.5933   -7.0185    0.0000 C   0  0  0  0  0  0  0  0  0  0  0  0
    8.1083   -6.3511    0.0000 C   0  0  1  0  0  0  0  0  0  0  0  0
    7.3237   -6.6060    0.0000 C   0  0  1  0  0  0  0  0  0  0  0  0
    6.6092   -6.1935    0.0000 C   0  0  1  0  0  0  0  0  0  0  0  0
    5.8948   -6.6060    0.0000 C   0  0  0  0  0  0  0  0  0  0  0  0
    5.8948   -7.4310    0.0000 C   0  0  0  0  0  0  0  0  0  0  0  0
    5.1803   -7.8435    0.0000 C   0  0  1  0  0  0  0  0  0  0  0  0
    8.3633   -8.4706    0.0000 O   0  0  0  0  0  0  0  0  0  0  0  0
    5.1803   -6.1935    0.0000 O   0  0  0  0  0  0  0  0  0  0  0  0
    7.3237   -9.0810    0.0000 O   0  0  0  0  0  0  0  0  0  0  0  0
    7.3237   -8.2560    0.0000 C   0  0  0  0  0  0  0  0  0  0  0  0
    7.3237   -5.7810    0.0000 C   0  0  0  0  0  0  0  0  0  0  0  0
    5.1803   -7.0185    0.0000 C   0  0  0  0  0  0  0  0  0  0  0  0
    4.8783   -9.7955    0.0000 C   0  0  0  0  0  0  0  0  0  0  0  0
    4.0533   -9.7955    0.0000 C   0  0  0  0  0  0  0  0  0  0  0  0
    6.6092   -5.3685    0.0000 O   0  0  0  0  0  0  0  0  0  0  0  0
    3.0369   -9.0810    0.0000 O   0  0  0  0  0  0  0  0  0  0  0  0
    5.1803   -9.4935    0.0000 H   0  0  0  0  0  0  0  0  0  0  0  0
    8.8930   -6.0961    0.0000 H   0  0  0  0  0  0  0  0  0  0  0  0
   12.3459   -2.4845    0.0000 C   0  0  0  0  0  0  0  0  0  0  0  0
  1  2  1  0  0  0  0
  2  3  1  0  0  0  0
  3  4  1  0  0  0  0
  4  5  1  0  0  0  0
  5  6  1  0  0  0  0
  6  7  1  6  0  0  0
  1  8  1  0  0  0  0
  1  9  2  0  0  0  0
  4 10  2  0  0  0  0
  2 11  1  0  0  0  0
 12 13  1  0  0  0  0
 13 14  1  0  0  0  0
 14 15  1  0  0  0  0
 15 16  1  0  0  0  0
 16 17  1  0  0  0  0
 17 18  1  0  0  0  0
 18 19  1  0  0  0  0
 19 20  1  0  0  0  0
 20 21  1  0  0  0  0
 21 22  1  0  0  0  0
 23 22  1  0  0  0  0
 23 24  1  0  0  0  0
 20 24  1  0  0  0  0
 24 25  1  0  0  0  0
 25 26  1  0  0  0  0
 26 27  1  0  0  0  0
 19 27  2  0  0  0  0
 27 28  1  0  0  0  0
 16 28  1  0  0  0  0
 12 28  1  0  0  0  0
 21 29  2  0  0  0  0
 26 30  2  0  0  0  0
 18 31  2  0  0  0  0
 20 32  1  6  0  0  0
 24 33  1  1  0  0  0
 28 34  1  1  0  0  0
 15 35  1  0  0  0  0
 15 36  1  0  0  0  0
 25 37  1  1  0  0  0
 14 38  1  1  0  0  0
  6 23  1  0  0  0  0
 16 39  1  6  0  0  0
 23 40  1  6  0  0  0
  8 41  1  0  0  0  0
M  END
>  <cdx:fragmentId>
27

$$$$
