937790.cdx
  Mrv1902 05222410232D          

 42 45  0  0  0  0            999 V2000
    3.4493   -9.3362    0.0000 C   0  0  0  0  0  0  0  0  0  0  0  0
    3.4493  -10.1612    0.0000 C   0  0  0  0  0  0  0  0  0  0  0  0
    4.1638  -10.5737    0.0000 C   0  0  0  0  0  0  0  0  0  0  0  0
    4.8782  -10.1612    0.0000 C   0  0  1  0  0  0  0  0  0  0  0  0
    4.8782   -9.3362    0.0000 C   0  0  2  0  0  0  0  0  0  0  0  0
    4.1638   -8.9238    0.0000 C   0  0  0  0  0  0  0  0  0  0  0  0
    5.5927  -10.5737    0.0000 C   0  0  0  0  0  0  0  0  0  0  0  0
    6.3072  -10.1612    0.0000 C   0  0  0  0  0  0  0  0  0  0  0  0
    6.3072   -9.3362    0.0000 C   0  0  0  0  0  0  0  0  0  0  0  0
    5.5927   -8.9238    0.0000 C   0  0  0  0  0  0  0  0  0  0  0  0
    7.0217   -8.9238    0.0000 C   0  0  1  0  0  0  0  0  0  0  0  0
    7.0217   -8.0987    0.0000 C   0  0  2  0  0  0  0  0  0  0  0  0
    6.3072   -7.6863    0.0000 C   0  0  1  0  0  0  0  0  0  0  0  0
    5.5927   -8.0987    0.0000 C   0  0  0  0  0  0  0  0  0  0  0  0
    7.8063   -9.1787    0.0000 C   0  0  0  0  0  0  0  0  0  0  0  0
    8.2912   -8.5113    0.0000 C   0  0  0  0  0  0  0  0  0  0  0  0
    7.8063   -7.8438    0.0000 C   0  0  0  0  0  0  0  0  0  0  0  0
    2.7348  -10.5737    0.0000 O   0  0  0  0  0  0  0  0  0  0  0  0
    7.0217  -10.5737    0.0000 O   0  0  0  0  0  0  0  0  0  0  0  0
    4.8782   -7.6863    0.0000 O   0  0  0  0  0  0  0  0  0  0  0  0
    6.3072   -6.8613    0.0000 O   0  0  0  0  0  0  0  0  0  0  0  0
    8.0612   -9.9633    0.0000 O   0  0  0  0  0  0  0  0  0  0  0  0
    8.0612   -7.0592    0.0000 C   0  0  0  0  0  0  0  0  0  0  0  0
    7.5092   -6.4461    0.0000 C   0  0  0  0  0  0  0  0  0  0  0  0
   11.5440   -5.5885    0.0000 O   0  0  0  0  0  0  0  0  0  0  0  0
   11.2470   -4.1907    0.0000 O   0  0  0  0  0  0  0  0  0  0  0  0
    9.6330   -4.5338    0.0000 C   0  0  0  0  0  0  0  0  0  0  0  0
   10.9920   -4.9754    0.0000 C   0  0  0  0  0  0  0  0  0  0  0  0
   10.1850   -5.1469    0.0000 C   0  0  0  0  0  0  0  0  0  0  0  0
    8.5711   -5.4899    0.0000 O   0  0  0  0  0  0  0  0  0  0  0  0
    3.7513  -11.2882    0.0000 C   0  0  0  0  0  0  0  0  0  0  0  0
    4.8782   -8.5113    0.0000 C   0  0  0  0  0  0  0  0  0  0  0  0
    7.0217   -7.2738    0.0000 C   0  0  0  0  0  0  0  0  0  0  0  0
    4.5763  -11.2882    0.0000 C   0  0  0  0  0  0  0  0  0  0  0  0
    4.8782  -10.9863    0.0000 H   0  0  0  0  0  0  0  0  0  0  0  0
    7.0217   -9.7487    0.0000 C   0  0  0  0  0  0  0  0  0  0  0  0
    9.9301   -5.9315    0.0000 C   0  0  0  0  0  0  0  0  0  0  0  0
    9.1231   -6.1030    0.0000 C   0  0  0  0  0  0  0  0  0  0  0  0
    8.8682   -6.8877    0.0000 C   0  0  0  0  0  0  0  0  0  0  0  0
    5.5927   -6.4487    0.0000 C   0  0  0  0  0  0  0  0  0  0  0  0
    5.5927   -5.6238    0.0000 O   0  0  0  0  0  0  0  0  0  0  0  0
    4.8782   -6.8613    0.0000 C   0  0  0  0  0  0  0  0  0  0  0  0
  1  2  1  0  0  0  0
  2  3  1  0  0  0  0
  3  4  1  0  0  0  0
  4  5  1  0  0  0  0
  5  6  1  0  0  0  0
  6  1  1  0  0  0  0
  4  7  1  0  0  0  0
  7  8  1  0  0  0  0
  8  9  1  0  0  0  0
  9 10  2  0  0  0  0
 10  5  1  0  0  0  0
  9 11  1  0  0  0  0
 11 12  1  0  0  0  0
 12 13  1  0  0  0  0
 13 14  1  0  0  0  0
 14 10  1  0  0  0  0
 11 15  1  0  0  0  0
 15 16  1  0  0  0  0
 16 17  1  0  0  0  0
 17 12  1  0  0  0  0
  2 18  2  0  0  0  0
  8 19  2  0  0  0  0
 14 20  2  0  0  0  0
 13 21  1  1  0  0  0
 15 22  2  0  0  0  0
 17 23  2  0  0  0  0
 23 24  1  0  0  0  0
 28 25  2  0  0  0  0
 23 39  1  0  0  0  0
 28 26  1  0  0  0  0
 29 27  1  0  0  0  0
 29 28  1  0  0  0  0
 37 29  1  0  0  0  0
 38 30  2  0  0  0  0
 38 37  1  0  0  0  0
  3 31  1  0  0  0  0
  5 32  1  1  0  0  0
 12 33  1  1  0  0  0
  3 34  1  0  0  0  0
  4 35  1  6  0  0  0
 11 36  1  6  0  0  0
 39 38  1  0  0  0  0
 21 40  1  0  0  0  0
 40 41  2  0  0  0  0
 40 42  1  0  0  0  0
M  END
>  <cdx:fragmentId>
5

$$$$
