93779.cdx
  Mrv1902 05222410252D          

 43 46  0  0  0  0            999 V2000
    3.9168   -9.5287    0.0000 C   0  0  0  0  0  0  0  0  0  0  0  0
    3.9168  -10.3537    0.0000 C   0  0  1  0  0  0  0  0  0  0  0  0
    4.6313  -10.7663    0.0000 C   0  0  0  0  0  0  0  0  0  0  0  0
    5.3457  -10.3537    0.0000 C   0  0  1  0  0  0  0  0  0  0  0  0
    5.3457   -9.5287    0.0000 C   0  0  2  0  0  0  0  0  0  0  0  0
    4.6313   -9.1162    0.0000 C   0  0  0  0  0  0  0  0  0  0  0  0
    6.0602  -10.7663    0.0000 C   0  0  0  0  0  0  0  0  0  0  0  0
    6.7747  -10.3537    0.0000 C   0  0  0  0  0  0  0  0  0  0  0  0
    6.7747   -9.5287    0.0000 C   0  0  0  0  0  0  0  0  0  0  0  0
    6.0602   -9.1162    0.0000 C   0  0  0  0  0  0  0  0  0  0  0  0
    7.4892   -9.1162    0.0000 C   0  0  1  0  0  0  0  0  0  0  0  0
    7.4892   -8.2912    0.0000 C   0  0  2  0  0  0  0  0  0  0  0  0
    6.7747   -7.8788    0.0000 C   0  0  1  0  0  0  0  0  0  0  0  0
    6.0602   -8.2912    0.0000 C   0  0  0  0  0  0  0  0  0  0  0  0
    8.2738   -9.3712    0.0000 C   0  0  0  0  0  0  0  0  0  0  0  0
    8.7587   -8.7037    0.0000 C   0  0  0  0  0  0  0  0  0  0  0  0
    8.2738   -8.0363    0.0000 C   0  0  2  0  0  0  0  0  0  0  0  0
    3.2023  -10.7663    0.0000 O   0  0  0  0  0  0  0  0  0  0  0  0
    7.4892  -10.7663    0.0000 O   0  0  0  0  0  0  0  0  0  0  0  0
    5.3457   -7.8788    0.0000 O   0  0  0  0  0  0  0  0  0  0  0  0
    6.7747   -7.0537    0.0000 O   0  0  0  0  0  0  0  0  0  0  0  0
    8.5287  -10.1558    0.0000 O   0  0  0  0  0  0  0  0  0  0  0  0
    8.5287   -7.2517    0.0000 C   0  0  2  0  0  0  0  0  0  0  0  0
    7.9767   -6.6386    0.0000 C   0  0  0  0  0  0  0  0  0  0  0  0
   12.0115   -5.7810    0.0000 O   0  0  0  0  0  0  0  0  0  0  0  0
   11.7145   -4.3832    0.0000 O   0  0  0  0  0  0  0  0  0  0  0  0
   10.1005   -4.7263    0.0000 C   0  0  0  0  0  0  0  0  0  0  0  0
   11.4595   -5.1679    0.0000 C   0  0  0  0  0  0  0  0  0  0  0  0
   10.6525   -5.3394    0.0000 C   0  0  0  0  0  0  0  0  0  0  0  0
    9.0386   -5.6824    0.0000 O   0  0  0  0  0  0  0  0  0  0  0  0
    4.2188  -11.4807    0.0000 C   0  0  0  0  0  0  0  0  0  0  0  0
    5.3457   -8.7037    0.0000 C   0  0  0  0  0  0  0  0  0  0  0  0
    7.4892   -7.4663    0.0000 C   0  0  0  0  0  0  0  0  0  0  0  0
    5.0438  -11.4807    0.0000 C   0  0  0  0  0  0  0  0  0  0  0  0
    5.3457  -11.1788    0.0000 H   0  0  0  0  0  0  0  0  0  0  0  0
    7.4892   -9.9413    0.0000 C   0  0  0  0  0  0  0  0  0  0  0  0
    9.0886   -7.9073    0.0000 H   0  0  0  0  0  0  0  0  0  0  0  0
    2.4879  -10.3537    0.0000 C   0  0  0  0  0  0  0  0  0  0  0  0
    1.7734  -10.7663    0.0000 C   0  0  0  0  0  0  0  0  0  0  0  0
    2.4879   -9.5287    0.0000 O   0  0  0  0  0  0  0  0  0  0  0  0
   10.3976   -6.1240    0.0000 C   0  0  0  0  0  0  0  0  0  0  0  0
    9.5906   -6.2955    0.0000 C   0  0  0  0  0  0  0  0  0  0  0  0
    9.3357   -7.0802    0.0000 C   0  0  0  0  0  0  0  0  0  0  0  0
  1  2  1  0  0  0  0
  2  3  1  0  0  0  0
  3  4  1  0  0  0  0
  4  5  1  0  0  0  0
  5  6  1  0  0  0  0
  6  1  1  0  0  0  0
  4  7  1  0  0  0  0
  7  8  1  0  0  0  0
  8  9  1  0  0  0  0
  9 10  2  0  0  0  0
 10  5  1  0  0  0  0
  9 11  1  0  0  0  0
 11 12  1  0  0  0  0
 12 13  1  0  0  0  0
 13 14  1  0  0  0  0
 14 10  1  0  0  0  0
 11 15  1  0  0  0  0
 15 16  1  0  0  0  0
 16 17  1  0  0  0  0
 17 12  1  0  0  0  0
  2 18  1  1  0  0  0
  8 19  2  0  0  0  0
 14 20  2  0  0  0  0
 13 21  1  1  0  0  0
 15 22  2  0  0  0  0
 17 23  1  0  0  0  0
 23 24  1  6  0  0  0
 28 25  2  0  0  0  0
 23 43  1  0  0  0  0
 28 26  1  0  0  0  0
 29 27  1  0  0  0  0
 29 28  1  0  0  0  0
 41 29  1  0  0  0  0
 42 30  2  0  0  0  0
 42 41  1  0  0  0  0
  3 31  1  0  0  0  0
  5 32  1  1  0  0  0
 12 33  1  1  0  0  0
  3 34  1  0  0  0  0
  4 35  1  6  0  0  0
 11 36  1  6  0  0  0
 17 37  1  6  0  0  0
 18 38  1  0  0  0  0
 38 39  1  0  0  0  0
 38 40  2  0  0  0  0
 43 42  1  0  0  0  0
M  END
>  <cdx:fragmentId>
5

$$$$
