93774.cdx
  Mrv1902 05222410202D          

 41 44  0  0  0  0            999 V2000
   11.0933   -7.0026    0.0000 C   0  0  0  0  0  0  0  0  0  0  0  0
   10.2864   -7.1741    0.0000 C   0  0  0  0  0  0  0  0  0  0  0  0
   10.0314   -7.9588    0.0000 C   0  0  0  0  0  0  0  0  0  0  0  0
    9.2244   -8.1303    0.0000 C   0  0  0  0  0  0  0  0  0  0  0  0
    8.9695   -8.9149    0.0000 C   0  0  0  0  0  0  0  0  0  0  0  0
    8.1625   -9.0864    0.0000 C   0  0  1  0  0  0  0  0  0  0  0  0
    7.6105   -8.4734    0.0000 C   0  0  0  0  0  0  0  0  0  0  0  0
   11.3483   -6.2180    0.0000 O   0  0  0  0  0  0  0  0  0  0  0  0
   11.6454   -7.6157    0.0000 O   0  0  0  0  0  0  0  0  0  0  0  0
    4.2651  -10.9510    0.0000 C   0  0  0  0  0  0  0  0  0  0  0  0
    3.5506  -11.3635    0.0000 C   0  0  0  0  0  0  0  0  0  0  0  0
    3.5506  -12.1885    0.0000 C   0  0  1  0  0  0  0  0  0  0  0  0
    4.2651  -12.6010    0.0000 C   0  0  0  0  0  0  0  0  0  0  0  0
    4.9796  -12.1885    0.0000 C   0  0  2  0  0  0  0  0  0  0  0  0
    5.6940  -12.6010    0.0000 C   0  0  0  0  0  0  0  0  0  0  0  0
    6.4085  -12.1885    0.0000 C   0  0  1  0  0  0  0  0  0  0  0  0
    6.4085  -11.3635    0.0000 C   0  0  0  0  0  0  0  0  0  0  0  0
    7.1230  -10.9510    0.0000 C   0  0  2  0  0  0  0  0  0  0  0  0
    7.9076  -11.2059    0.0000 C   0  0  0  0  0  0  0  0  0  0  0  0
    8.3925  -10.5385    0.0000 C   0  0  0  0  0  0  0  0  0  0  0  0
    7.9076   -9.8711    0.0000 C   0  0  1  0  0  0  0  0  0  0  0  0
    7.1230  -10.1260    0.0000 C   0  0  1  0  0  0  0  0  0  0  0  0
    6.4085   -9.7135    0.0000 C   0  0  1  0  0  0  0  0  0  0  0  0
    5.6940  -10.1260    0.0000 C   0  0  0  0  0  0  0  0  0  0  0  0
    5.6940  -10.9510    0.0000 C   0  0  0  0  0  0  0  0  0  0  0  0
    4.9796  -11.3635    0.0000 C   0  0  1  0  0  0  0  0  0  0  0  0
    8.1625  -11.9906    0.0000 O   0  0  0  0  0  0  0  0  0  0  0  0
    4.9796   -9.7135    0.0000 O   0  0  0  0  0  0  0  0  0  0  0  0
    7.1230  -11.7760    0.0000 C   0  0  0  0  0  0  0  0  0  0  0  0
    7.1230   -9.3010    0.0000 C   0  0  0  0  0  0  0  0  0  0  0  0
    4.9796  -10.5385    0.0000 C   0  0  0  0  0  0  0  0  0  0  0  0
    4.6776  -13.3155    0.0000 C   0  0  0  0  0  0  0  0  0  0  0  0
    3.8526  -13.3155    0.0000 C   0  0  0  0  0  0  0  0  0  0  0  0
    6.4085   -8.8885    0.0000 O   0  0  0  0  0  0  0  0  0  0  0  0
    7.1230  -12.6010    0.0000 O   0  0  0  0  0  0  0  0  0  0  0  0
    2.8361  -12.6010    0.0000 O   0  0  0  0  0  0  0  0  0  0  0  0
    8.6724   -7.5172    0.0000 O   0  0  0  0  0  0  0  0  0  0  0  0
    9.7343   -6.5611    0.0000 C   0  0  0  0  0  0  0  0  0  0  0  0
    4.9796  -13.0135    0.0000 H   0  0  0  0  0  0  0  0  0  0  0  0
    8.6922   -9.6161    0.0000 H   0  0  0  0  0  0  0  0  0  0  0  0
   12.1452   -6.0045    0.0000 C   0  0  0  0  0  0  0  0  0  0  0  0
  1  2  1  0  0  0  0
  2  3  1  0  0  0  0
  3  4  1  0  0  0  0
  4  5  1  0  0  0  0
  5  6  1  0  0  0  0
  6  7  1  6  0  0  0
  1  8  1  0  0  0  0
  1  9  2  0  0  0  0
 10 11  1  0  0  0  0
 11 12  1  0  0  0  0
 12 13  1  0  0  0  0
 13 14  1  0  0  0  0
 14 15  1  0  0  0  0
 15 16  1  0  0  0  0
 16 17  1  0  0  0  0
 17 18  1  0  0  0  0
 18 19  1  0  0  0  0
 19 20  1  0  0  0  0
 21 20  1  0  0  0  0
 21 22  1  0  0  0  0
 18 22  1  0  0  0  0
 22 23  1  0  0  0  0
 23 24  1  0  0  0  0
 24 25  1  0  0  0  0
 17 25  2  0  0  0  0
 25 26  1  0  0  0  0
 14 26  1  0  0  0  0
 10 26  1  0  0  0  0
 19 27  2  0  0  0  0
 24 28  2  0  0  0  0
 18 29  1  6  0  0  0
 22 30  1  1  0  0  0
 26 31  1  1  0  0  0
 13 32  1  0  0  0  0
 13 33  1  0  0  0  0
 23 34  1  1  0  0  0
 16 35  1  1  0  0  0
 12 36  1  1  0  0  0
  6 21  1  0  0  0  0
  4 37  2  0  0  0  0
  2 38  1  0  0  0  0
 14 39  1  6  0  0  0
 21 40  1  6  0  0  0
  8 41  1  0  0  0  0
M  END
>  <cdx:fragmentId>
125157

$$$$
