93780.cdx
  Mrv1902 05222410242D          

 41 44  0  0  0  0            999 V2000
    9.9893   -5.9237    0.0000 C   0  0  0  0  0  0  0  0  0  0  0  0
    9.7343   -6.7083    0.0000 C   0  0  0  0  0  0  0  0  0  0  0  0
    8.9273   -6.8798    0.0000 C   0  0  0  0  0  0  0  0  0  0  0  0
    8.6724   -7.6645    0.0000 C   0  0  0  0  0  0  0  0  0  0  0  0
    7.8654   -7.8360    0.0000 C   0  0  0  0  0  0  0  0  0  0  0  0
    7.3134   -7.2229    0.0000 C   0  0  0  0  0  0  0  0  0  0  0  0
    3.9680   -9.7006    0.0000 C   0  0  0  0  0  0  0  0  0  0  0  0
    3.2535  -10.1131    0.0000 C   0  0  0  0  0  0  0  0  0  0  0  0
    3.2535  -10.9381    0.0000 C   0  0  1  0  0  0  0  0  0  0  0  0
    3.9680  -11.3506    0.0000 C   0  0  0  0  0  0  0  0  0  0  0  0
    4.6825  -10.9381    0.0000 C   0  0  2  0  0  0  0  0  0  0  0  0
    5.3969  -11.3506    0.0000 C   0  0  0  0  0  0  0  0  0  0  0  0
    6.1114  -10.9381    0.0000 C   0  0  1  0  0  0  0  0  0  0  0  0
    6.1114  -10.1131    0.0000 C   0  0  0  0  0  0  0  0  0  0  0  0
    6.8259   -9.7006    0.0000 C   0  0  2  0  0  0  0  0  0  0  0  0
    7.6105   -9.9555    0.0000 C   0  0  0  0  0  0  0  0  0  0  0  0
    8.0954   -9.2881    0.0000 C   0  0  0  0  0  0  0  0  0  0  0  0
    7.6105   -8.6206    0.0000 C   0  0  1  0  0  0  0  0  0  0  0  0
    6.8259   -8.8756    0.0000 C   0  0  1  0  0  0  0  0  0  0  0  0
    6.1114   -8.4631    0.0000 C   0  0  2  0  0  0  0  0  0  0  0  0
    5.3969   -8.8756    0.0000 C   0  0  0  0  0  0  0  0  0  0  0  0
    5.3969   -9.7006    0.0000 C   0  0  0  0  0  0  0  0  0  0  0  0
    4.6825  -10.1131    0.0000 C   0  0  1  0  0  0  0  0  0  0  0  0
    7.8654  -10.7401    0.0000 O   0  0  0  0  0  0  0  0  0  0  0  0
    4.6825   -8.4631    0.0000 O   0  0  0  0  0  0  0  0  0  0  0  0
    6.8259  -10.5256    0.0000 C   0  0  0  0  0  0  0  0  0  0  0  0
    6.8259   -8.0506    0.0000 C   0  0  0  0  0  0  0  0  0  0  0  0
    4.6825   -9.2881    0.0000 C   0  0  0  0  0  0  0  0  0  0  0  0
    4.3805  -12.0650    0.0000 C   0  0  0  0  0  0  0  0  0  0  0  0
    3.5555  -12.0650    0.0000 C   0  0  0  0  0  0  0  0  0  0  0  0
    6.1114   -7.6381    0.0000 O   0  0  0  0  0  0  0  0  0  0  0  0
    6.8259  -11.3506    0.0000 O   0  0  0  0  0  0  0  0  0  0  0  0
    2.5391  -11.3506    0.0000 O   0  0  0  0  0  0  0  0  0  0  0  0
    8.3753   -6.2668    0.0000 O   0  0  0  0  0  0  0  0  0  0  0  0
    9.4372   -5.3106    0.0000 C   0  0  0  0  0  0  0  0  0  0  0  0
   11.8581   -4.7960    0.0000 C   0  0  0  0  0  0  0  0  0  0  0  0
    4.6825  -11.7631    0.0000 H   0  0  0  0  0  0  0  0  0  0  0  0
   11.0512   -4.9676    0.0000 O   0  0  0  0  0  0  0  0  0  0  0  0
   11.3483   -6.3653    0.0000 O   0  0  0  0  0  0  0  0  0  0  0  0
   10.7962   -5.7522    0.0000 C   0  0  0  0  0  0  0  0  0  0  0  0
    8.3951   -8.3657    0.0000 H   0  0  0  0  0  0  0  0  0  0  0  0
 38 36  1  0  0  0  0
 40 38  1  0  0  0  0
 40 39  2  0  0  0  0
 40  1  1  0  0  0  0
  1  2  1  0  0  0  0
  2  3  1  0  0  0  0
  3  4  1  0  0  0  0
  4  5  2  0  0  0  0
  5  6  1  0  0  0  0
  7  8  1  0  0  0  0
  8  9  1  0  0  0  0
  9 10  1  0  0  0  0
 10 11  1  0  0  0  0
 11 12  1  0  0  0  0
 12 13  1  0  0  0  0
 13 14  1  0  0  0  0
 14 15  1  0  0  0  0
 15 16  1  0  0  0  0
 16 17  1  0  0  0  0
 17 18  1  0  0  0  0
 18 19  1  0  0  0  0
 15 19  1  0  0  0  0
 19 20  1  0  0  0  0
 20 21  1  0  0  0  0
 21 22  1  0  0  0  0
 14 22  2  0  0  0  0
 22 23  1  0  0  0  0
 11 23  1  0  0  0  0
  7 23  1  0  0  0  0
 16 24  2  0  0  0  0
 21 25  2  0  0  0  0
 15 26  1  6  0  0  0
 19 27  1  1  0  0  0
 23 28  1  1  0  0  0
 10 29  1  0  0  0  0
 10 30  1  0  0  0  0
 20 31  1  6  0  0  0
 13 32  1  1  0  0  0
  9 33  1  1  0  0  0
 18  5  1  0  0  0  0
  3 34  2  0  0  0  0
  1 35  1  0  0  0  0
 11 37  1  6  0  0  0
 18 41  1  6  0  0  0
M  END
>  <cdx:fragmentId>
23

$$$$
