93787.cdx
  Mrv1902 05222410252D          

 38 42  0  0  0  0            999 V2000
    3.1468   -9.8725    0.0000 C   0  0  0  0  0  0  0  0  0  0  0  0
    3.1468  -10.6975    0.0000 C   0  0  1  0  0  0  0  0  0  0  0  0
    3.8613  -11.1100    0.0000 C   0  0  0  0  0  0  0  0  0  0  0  0
    4.5757  -10.6975    0.0000 C   0  0  1  0  0  0  0  0  0  0  0  0
    4.5757   -9.8725    0.0000 C   0  0  2  0  0  0  0  0  0  0  0  0
    3.8613   -9.4600    0.0000 C   0  0  2  0  0  0  0  0  0  0  0  0
    5.2902  -11.1100    0.0000 C   0  0  0  0  0  0  0  0  0  0  0  0
    6.0047  -10.6975    0.0000 C   0  0  0  0  0  0  0  0  0  0  0  0
    6.0047   -9.8725    0.0000 C   0  0  0  0  0  0  0  0  0  0  0  0
    5.2902   -9.4600    0.0000 C   0  0  0  0  0  0  0  0  0  0  0  0
    6.7192   -9.4600    0.0000 C   0  0  1  0  0  0  0  0  0  0  0  0
    6.7192   -8.6350    0.0000 C   0  0  1  0  0  0  0  0  0  0  0  0
    5.2800   -8.6350    0.0000 C   0  0  0  0  0  0  0  0  0  0  0  0
    7.5038   -9.7149    0.0000 C   0  0  0  0  0  0  0  0  0  0  0  0
    7.9887   -9.0475    0.0000 C   0  0  0  0  0  0  0  0  0  0  0  0
    7.5038   -8.3801    0.0000 C   0  0  2  0  0  0  0  0  0  0  0  0
    7.7587   -7.5954    0.0000 C   0  0  1  0  0  0  0  0  0  0  0  0
    7.7587   -6.7704    0.0000 O   0  0  0  0  0  0  0  0  0  0  0  0
    8.5433   -7.8504    0.0000 C   0  0  0  0  0  0  0  0  0  0  0  0
    9.0283   -7.1829    0.0000 C   0  0  0  0  0  0  0  0  0  0  0  0
    8.5433   -6.5155    0.0000 C   0  0  0  0  0  0  0  0  0  0  0  0
    8.7983   -5.7309    0.0000 O   0  0  0  0  0  0  0  0  0  0  0  0
    7.7587  -10.4996    0.0000 O   0  0  0  0  0  0  0  0  0  0  0  0
    6.7192  -11.1100    0.0000 O   0  0  0  0  0  0  0  0  0  0  0  0
    5.6925   -7.9205    0.0000 O   0  0  0  0  0  0  0  0  0  0  0  0
    3.8613   -8.6350    0.0000 O   0  0  0  0  0  0  0  0  0  0  0  0
    6.1358   -8.0516    0.0000 C   0  0  0  0  0  0  0  0  0  0  0  0
    2.4323  -11.1100    0.0000 O   0  0  0  0  0  0  0  0  0  0  0  0
    3.4488  -11.8245    0.0000 C   0  0  0  0  0  0  0  0  0  0  0  0
    4.5757   -9.0475    0.0000 C   0  0  0  0  0  0  0  0  0  0  0  0
    6.9327   -7.8381    0.0000 C   0  0  0  0  0  0  0  0  0  0  0  0
    4.2738  -11.8245    0.0000 C   0  0  0  0  0  0  0  0  0  0  0  0
    4.5757  -11.5225    0.0000 H   0  0  0  0  0  0  0  0  0  0  0  0
    6.7192  -10.2850    0.0000 C   0  0  0  0  0  0  0  0  0  0  0  0
    6.9618   -7.3819    0.0000 C   0  0  0  0  0  0  0  0  0  0  0  0
    8.3007   -8.1665    0.0000 H   0  0  0  0  0  0  0  0  0  0  0  0
    6.3493   -7.2547    0.0000 O   0  0  0  0  0  0  0  0  0  0  0  0
    5.3389   -8.2652    0.0000 O   0  0  0  0  0  0  0  0  0  0  0  0
  1  2  1  0  0  0  0
  2  3  1  0  0  0  0
  3  4  1  0  0  0  0
  4  5  1  0  0  0  0
  5  6  1  0  0  0  0
  6  1  1  0  0  0  0
  4  7  1  0  0  0  0
  7  8  1  0  0  0  0
  8  9  1  0  0  0  0
  9 10  2  0  0  0  0
 10  5  1  0  0  0  0
  9 11  1  0  0  0  0
 11 12  1  0  0  0  0
 13 10  1  0  0  0  0
 11 14  1  0  0  0  0
 14 15  1  0  0  0  0
 15 16  1  0  0  0  0
 16 12  1  0  0  0  0
 16 17  1  0  0  0  0
 17 18  1  0  0  0  0
 17 19  1  0  0  0  0
 19 20  1  0  0  0  0
 20 21  1  0  0  0  0
 21 18  1  0  0  0  0
 21 22  2  0  0  0  0
 14 23  2  0  0  0  0
  8 24  2  0  0  0  0
 13 25  2  0  0  0  0
  6 26  1  1  0  0  0
 26 13  1  0  0  0  0
 12 27  1  0  0  0  0
  2 28  1  1  0  0  0
  3 29  1  0  0  0  0
  5 30  1  1  0  0  0
 12 31  1  1  0  0  0
  3 32  1  0  0  0  0
  4 33  1  6  0  0  0
 11 34  1  6  0  0  0
 17 35  1  6  0  0  0
 16 36  1  6  0  0  0
 27 37  2  0  0  0  0
 27 38  1  0  0  0  0
M  END
>  <cdx:fragmentId>
5

$$$$
