93788.cdx
  Mrv1902 05222410212D          

 39 42  0  0  0  0            999 V2000
    3.9168   -8.6350    0.0000 C   0  0  0  0  0  0  0  0  0  0  0  0
    3.9168   -9.4600    0.0000 C   0  0  0  0  0  0  0  0  0  0  0  0
    4.6313   -9.8725    0.0000 C   0  0  0  0  0  0  0  0  0  0  0  0
    5.3457   -9.4600    0.0000 C   0  0  1  0  0  0  0  0  0  0  0  0
    5.3457   -8.6350    0.0000 C   0  0  2  0  0  0  0  0  0  0  0  0
    4.6313   -8.2225    0.0000 C   0  0  0  0  0  0  0  0  0  0  0  0
    6.0602   -9.8725    0.0000 C   0  0  0  0  0  0  0  0  0  0  0  0
    6.7747   -9.4600    0.0000 C   0  0  0  0  0  0  0  0  0  0  0  0
    6.7747   -8.6350    0.0000 C   0  0  0  0  0  0  0  0  0  0  0  0
    6.0602   -8.2225    0.0000 C   0  0  0  0  0  0  0  0  0  0  0  0
    7.4892   -8.2225    0.0000 C   0  0  1  0  0  0  0  0  0  0  0  0
    7.4892   -7.3975    0.0000 C   0  0  2  0  0  0  0  0  0  0  0  0
    6.7747   -6.9850    0.0000 C   0  0  0  0  0  0  0  0  0  0  0  0
    6.0602   -7.3975    0.0000 C   0  0  0  0  0  0  0  0  0  0  0  0
    8.2738   -8.4774    0.0000 C   0  0  0  0  0  0  0  0  0  0  0  0
    8.7587   -7.8100    0.0000 C   0  0  0  0  0  0  0  0  0  0  0  0
    8.2738   -7.1426    0.0000 C   0  0  2  0  0  0  0  0  0  0  0  0
    3.2023   -9.8725    0.0000 O   0  0  0  0  0  0  0  0  0  0  0  0
    5.3457   -6.9850    0.0000 O   0  0  0  0  0  0  0  0  0  0  0  0
    7.4892   -9.8725    0.0000 O   0  0  0  0  0  0  0  0  0  0  0  0
    8.5287   -9.2621    0.0000 O   0  0  0  0  0  0  0  0  0  0  0  0
    8.5287   -6.3579    0.0000 C   0  0  0  0  0  0  0  0  0  0  0  0
    7.9767   -5.7448    0.0000 C   0  0  0  0  0  0  0  0  0  0  0  0
    9.0386   -4.7887    0.0000 O   0  0  0  0  0  0  0  0  0  0  0  0
   12.0115   -4.8872    0.0000 O   0  0  0  0  0  0  0  0  0  0  0  0
   11.7145   -3.4895    0.0000 O   0  0  0  0  0  0  0  0  0  0  0  0
   10.1005   -3.8325    0.0000 C   0  0  0  0  0  0  0  0  0  0  0  0
   11.4595   -4.2741    0.0000 C   0  0  0  0  0  0  0  0  0  0  0  0
    4.2188  -10.5870    0.0000 C   0  0  0  0  0  0  0  0  0  0  0  0
    5.3457   -7.8100    0.0000 C   0  0  0  0  0  0  0  0  0  0  0  0
    7.5754   -6.5770    0.0000 C   0  0  0  0  0  0  0  0  0  0  0  0
    5.0438  -10.5870    0.0000 C   0  0  0  0  0  0  0  0  0  0  0  0
    5.3457  -10.2850    0.0000 H   0  0  0  0  0  0  0  0  0  0  0  0
    7.5754   -9.0430    0.0000 C   0  0  0  0  0  0  0  0  0  0  0  0
    9.0886   -7.0135    0.0000 H   0  0  0  0  0  0  0  0  0  0  0  0
   10.6525   -4.4456    0.0000 C   0  0  0  0  0  0  0  0  0  0  0  0
   10.3976   -5.2303    0.0000 C   0  0  0  0  0  0  0  0  0  0  0  0
    9.5906   -5.4018    0.0000 C   0  0  0  0  0  0  0  0  0  0  0  0
    9.3357   -6.1864    0.0000 C   0  0  0  0  0  0  0  0  0  0  0  0
  1  2  1  0  0  0  0
  2  3  1  0  0  0  0
  3  4  1  0  0  0  0
  4  5  1  0  0  0  0
  5  6  1  0  0  0  0
  6  1  1  0  0  0  0
  4  7  1  0  0  0  0
  7  8  1  0  0  0  0
  8  9  1  0  0  0  0
  9 10  2  0  0  0  0
 10  5  1  0  0  0  0
  9 11  1  0  0  0  0
 11 12  1  0  0  0  0
 12 13  1  0  0  0  0
 13 14  1  0  0  0  0
 14 10  1  0  0  0  0
 11 15  1  0  0  0  0
 15 16  1  0  0  0  0
 16 17  1  0  0  0  0
 17 12  1  0  0  0  0
  2 18  2  0  0  0  0
 14 19  2  0  0  0  0
  8 20  2  0  0  0  0
 15 21  2  0  0  0  0
 17 22  1  0  0  0  0
 22 23  1  0  0  0  0
 38 24  2  0  0  0  0
 22 39  2  0  0  0  0
 28 25  2  0  0  0  0
 28 26  1  0  0  0  0
 36 27  1  0  0  0  0
 36 28  1  0  0  0  0
 37 36  1  0  0  0  0
  3 29  1  0  0  0  0
  5 30  1  1  0  0  0
 12 31  1  1  0  0  0
  3 32  1  0  0  0  0
  4 33  1  6  0  0  0
 11 34  1  6  0  0  0
 17 35  1  6  0  0  0
 38 37  1  0  0  0  0
 39 38  1  0  0  0  0
M  END
>  <cdx:fragmentId>
5

$$$$
