93782.cdx
  Mrv1902 05222410232D          

 37 40  0  0  0  0            999 V2000
   10.2146   -5.5929    0.0000 C   0  0  0  0  0  0  0  0  0  0  0  0
    9.9596   -6.3775    0.0000 C   0  0  0  0  0  0  0  0  0  0  0  0
    9.1526   -6.5490    0.0000 C   0  0  0  0  0  0  0  0  0  0  0  0
    8.8977   -7.3337    0.0000 C   0  0  0  0  0  0  0  0  0  0  0  0
    8.0907   -7.5052    0.0000 C   0  0  1  0  0  0  0  0  0  0  0  0
    7.5387   -6.8921    0.0000 C   0  0  0  0  0  0  0  0  0  0  0  0
   11.2765   -4.6368    0.0000 O   0  0  0  0  0  0  0  0  0  0  0  0
    9.6625   -4.9798    0.0000 C   0  0  0  0  0  0  0  0  0  0  0  0
    4.1933   -9.3698    0.0000 C   0  0  0  0  0  0  0  0  0  0  0  0
    3.4788   -9.7823    0.0000 C   0  0  0  0  0  0  0  0  0  0  0  0
    3.4788  -10.6073    0.0000 C   0  0  0  0  0  0  0  0  0  0  0  0
    4.1933  -11.0198    0.0000 C   0  0  0  0  0  0  0  0  0  0  0  0
    4.9078  -10.6073    0.0000 C   0  0  2  0  0  0  0  0  0  0  0  0
    5.6222  -11.0198    0.0000 C   0  0  0  0  0  0  0  0  0  0  0  0
    6.3367  -10.6073    0.0000 C   0  0  0  0  0  0  0  0  0  0  0  0
    6.3367   -9.7823    0.0000 C   0  0  0  0  0  0  0  0  0  0  0  0
    7.0512   -9.3698    0.0000 C   0  0  2  0  0  0  0  0  0  0  0  0
    7.8358   -9.6247    0.0000 C   0  0  2  0  0  0  0  0  0  0  0  0
    8.3207   -8.9573    0.0000 C   0  0  0  0  0  0  0  0  0  0  0  0
    7.8358   -8.2898    0.0000 C   0  0  1  0  0  0  0  0  0  0  0  0
    7.0512   -8.5448    0.0000 C   0  0  1  0  0  0  0  0  0  0  0  0
    6.3367   -8.1323    0.0000 C   0  0  0  0  0  0  0  0  0  0  0  0
    5.6222   -8.5448    0.0000 C   0  0  0  0  0  0  0  0  0  0  0  0
    5.6222   -9.3698    0.0000 C   0  0  0  0  0  0  0  0  0  0  0  0
    4.9078   -9.7823    0.0000 C   0  0  1  0  0  0  0  0  0  0  0  0
    4.9078   -8.1323    0.0000 O   0  0  0  0  0  0  0  0  0  0  0  0
    2.7643  -11.0198    0.0000 O   0  0  0  0  0  0  0  0  0  0  0  0
    7.0512  -10.1948    0.0000 C   0  0  0  0  0  0  0  0  0  0  0  0
    7.0512   -7.7198    0.0000 C   0  0  0  0  0  0  0  0  0  0  0  0
    4.9078   -8.9573    0.0000 C   0  0  0  0  0  0  0  0  0  0  0  0
    4.6058  -11.7342    0.0000 C   0  0  0  0  0  0  0  0  0  0  0  0
    3.7808  -11.7342    0.0000 C   0  0  0  0  0  0  0  0  0  0  0  0
    8.0907  -10.4093    0.0000 O   0  0  0  0  0  0  0  0  0  0  0  0
    4.9078  -11.4323    0.0000 H   0  0  0  0  0  0  0  0  0  0  0  0
   11.5736   -6.0345    0.0000 O   0  0  0  0  0  0  0  0  0  0  0  0
   11.0215   -5.4214    0.0000 C   0  0  0  0  0  0  0  0  0  0  0  0
    8.6204   -8.0349    0.0000 H   0  0  0  0  0  0  0  0  0  0  0  0
 36  7  1  0  0  0  0
 36 35  2  0  0  0  0
 36  1  1  0  0  0  0
  1  2  2  0  0  0  0
  2  3  1  0  0  0  0
  3  4  1  0  0  0  0
  4  5  1  0  0  0  0
  5  6  1  6  0  0  0
  1  8  1  0  0  0  0
  9 10  1  0  0  0  0
 10 11  1  0  0  0  0
 11 12  1  0  0  0  0
 12 13  1  0  0  0  0
 13 14  1  0  0  0  0
 14 15  1  0  0  0  0
 15 16  1  0  0  0  0
 16 17  1  0  0  0  0
 17 18  1  0  0  0  0
 18 19  1  0  0  0  0
 20 19  1  0  0  0  0
 20 21  1  0  0  0  0
 17 21  1  0  0  0  0
 21 22  1  0  0  0  0
 22 23  1  0  0  0  0
 23 24  1  0  0  0  0
 16 24  2  0  0  0  0
 24 25  1  0  0  0  0
 13 25  1  0  0  0  0
  9 25  1  0  0  0  0
 23 26  2  0  0  0  0
 11 27  2  0  0  0  0
 17 28  1  6  0  0  0
 21 29  1  1  0  0  0
 25 30  1  1  0  0  0
 12 31  1  0  0  0  0
 12 32  1  0  0  0  0
 18 33  1  6  0  0  0
  5 20  1  0  0  0  0
 13 34  1  6  0  0  0
 20 37  1  6  0  0  0
M  END
>  <cdx:fragmentId>
251602

$$$$
