93781.cdx
  Mrv1902 05222410242D          

 11 11  0  0  0  0            999 V2000
    9.9180   -6.6245    0.0000 C   0  0  0  0  0  0  0  0  0  0  0  0
    9.2035   -7.0370    0.0000 C   0  0  0  0  0  0  0  0  0  0  0  0
    8.4891   -6.6245    0.0000 O   0  0  0  0  0  0  0  0  0  0  0  0
    7.7746   -7.0370    0.0000 C   0  0  0  0  0  0  0  0  0  0  0  0
    4.9167   -5.3870    0.0000 O   0  0  0  0  0  0  0  0  0  0  0  0
    6.3456   -5.3870    0.0000 C   0  0  0  0  0  0  0  0  0  0  0  0
    7.0601   -5.7995    0.0000 C   0  0  0  0  0  0  0  0  0  0  0  0
    7.0601   -6.6245    0.0000 C   0  0  0  0  0  0  0  0  0  0  0  0
    6.3456   -7.0370    0.0000 C   0  0  0  0  0  0  0  0  0  0  0  0
    5.6312   -6.6245    0.0000 C   0  0  0  0  0  0  0  0  0  0  0  0
    5.6312   -5.7995    0.0000 C   0  0  0  0  0  0  0  0  0  0  0  0
  8  4  1  0  0  0  0
  4  3  1  0  0  0  0
  3  2  1  0  0  0  0
  2  1  1  0  0  0  0
 11  5  1  0  0  0  0
 11  6  2  0  0  0  0
  7  6  1  0  0  0  0
  8  7  2  0  0  0  0
  9  8  1  0  0  0  0
 10  9  2  0  0  0  0
 11 10  1  0  0  0  0
M  END
>  <cdx:fragmentId>
5

$$$$
