93794.cdx
  Mrv1902 05222410242D          

 40 43  0  0  0  0            999 V2000
    3.5318   -8.2775    0.0000 C   0  0  0  0  0  0  0  0  0  0  0  0
    3.5318   -9.1025    0.0000 C   0  0  0  0  0  0  0  0  0  0  0  0
    4.2463   -9.5150    0.0000 C   0  0  1  0  0  0  0  0  0  0  0  0
    4.9607   -9.1025    0.0000 C   0  0  1  0  0  0  0  0  0  0  0  0
    4.9607   -8.2775    0.0000 C   0  0  2  0  0  0  0  0  0  0  0  0
    4.2463   -7.8650    0.0000 C   0  0  0  0  0  0  0  0  0  0  0  0
    5.6752   -9.5150    0.0000 C   0  0  0  0  0  0  0  0  0  0  0  0
    6.3897   -9.1025    0.0000 C   0  0  0  0  0  0  0  0  0  0  0  0
    6.3897   -8.2775    0.0000 C   0  0  0  0  0  0  0  0  0  0  0  0
    5.6752   -7.8650    0.0000 C   0  0  0  0  0  0  0  0  0  0  0  0
    7.1042   -7.8650    0.0000 C   0  0  1  0  0  0  0  0  0  0  0  0
    7.1042   -7.0400    0.0000 C   0  0  2  0  0  0  0  0  0  0  0  0
    6.3897   -6.6275    0.0000 C   0  0  1  0  0  0  0  0  0  0  0  0
    5.6752   -7.0400    0.0000 C   0  0  0  0  0  0  0  0  0  0  0  0
    7.8888   -8.1199    0.0000 C   0  0  0  0  0  0  0  0  0  0  0  0
    8.3737   -7.4525    0.0000 C   0  0  0  0  0  0  0  0  0  0  0  0
    7.8888   -6.7851    0.0000 C   0  0  2  0  0  0  0  0  0  0  0  0
    2.8173   -9.5150    0.0000 O   0  0  0  0  0  0  0  0  0  0  0  0
    4.9607   -6.6275    0.0000 O   0  0  0  0  0  0  0  0  0  0  0  0
    7.1042   -9.5150    0.0000 O   0  0  0  0  0  0  0  0  0  0  0  0
    8.1437   -8.9046    0.0000 O   0  0  0  0  0  0  0  0  0  0  0  0
    8.1437   -6.0004    0.0000 C   0  0  0  0  0  0  0  0  0  0  0  0
    7.5917   -5.3873    0.0000 C   0  0  0  0  0  0  0  0  0  0  0  0
    8.6536   -4.4312    0.0000 O   0  0  0  0  0  0  0  0  0  0  0  0
   11.6265   -4.5297    0.0000 O   0  0  0  0  0  0  0  0  0  0  0  0
   11.3295   -3.1320    0.0000 O   0  0  0  0  0  0  0  0  0  0  0  0
    9.7155   -3.4750    0.0000 C   0  0  0  0  0  0  0  0  0  0  0  0
   11.0745   -3.9166    0.0000 C   0  0  0  0  0  0  0  0  0  0  0  0
    3.8338  -10.2295    0.0000 C   0  0  0  0  0  0  0  0  0  0  0  0
    4.9607   -7.4525    0.0000 C   0  0  0  0  0  0  0  0  0  0  0  0
    7.1042   -6.2150    0.0000 C   0  0  0  0  0  0  0  0  0  0  0  0
    4.6588  -10.2295    0.0000 C   0  0  0  0  0  0  0  0  0  0  0  0
    4.9607   -9.9275    0.0000 H   0  0  0  0  0  0  0  0  0  0  0  0
    7.1042   -8.6900    0.0000 C   0  0  0  0  0  0  0  0  0  0  0  0
    8.7036   -6.6560    0.0000 H   0  0  0  0  0  0  0  0  0  0  0  0
   10.2675   -4.0881    0.0000 C   0  0  0  0  0  0  0  0  0  0  0  0
   10.0126   -4.8728    0.0000 C   0  0  0  0  0  0  0  0  0  0  0  0
    9.2056   -5.0443    0.0000 C   0  0  0  0  0  0  0  0  0  0  0  0
    8.9507   -5.8289    0.0000 C   0  0  0  0  0  0  0  0  0  0  0  0
    6.3897   -5.8025    0.0000 O   0  0  0  0  0  0  0  0  0  0  0  0
  1  2  1  0  0  0  0
  2  3  1  0  0  0  0
  3  4  1  0  0  0  0
  4  5  1  0  0  0  0
  5  6  1  0  0  0  0
  6  1  1  0  0  0  0
  4  7  1  0  0  0  0
  7  8  1  0  0  0  0
  8  9  1  0  0  0  0
  9 10  2  0  0  0  0
 10  5  1  0  0  0  0
  9 11  1  0  0  0  0
 11 12  1  0  0  0  0
 12 13  1  0  0  0  0
 13 14  1  0  0  0  0
 14 10  1  0  0  0  0
 11 15  1  0  0  0  0
 15 16  1  0  0  0  0
 16 17  1  0  0  0  0
 17 12  1  0  0  0  0
  2 18  2  0  0  0  0
 14 19  2  0  0  0  0
  8 20  2  0  0  0  0
 15 21  2  0  0  0  0
 17 22  1  0  0  0  0
 22 23  1  0  0  0  0
 38 24  2  0  0  0  0
 22 39  2  0  0  0  0
 28 25  2  0  0  0  0
 28 26  1  0  0  0  0
 36 27  1  0  0  0  0
 36 28  1  0  0  0  0
 37 36  1  0  0  0  0
  3 29  1  1  0  0  0
  5 30  1  1  0  0  0
 12 31  1  1  0  0  0
  3 32  1  6  0  0  0
  4 33  1  6  0  0  0
 11 34  1  6  0  0  0
 17 35  1  6  0  0  0
 38 37  1  0  0  0  0
 39 38  1  0  0  0  0
 13 40  1  1  0  0  0
M  END
>  <cdx:fragmentId>
5

$$$$
