93798.cdx
  Mrv1902 05222410222D          

 27 30  0  0  0  0            999 V2000
    7.6730   -9.3190    0.0000 C   0  0  0  0  0  0  0  0  0  0  0  0
    8.3905   -8.9119    0.0000 C   0  0  0  0  0  0  0  0  0  0  0  0
    8.3968   -8.0869    0.0000 C   0  0  0  0  0  0  0  0  0  0  0  0
    7.6854   -7.6690    0.0000 C   0  0  1  0  0  0  0  0  0  0  0  0
    6.9679   -8.0761    0.0000 C   0  0  2  0  0  0  0  0  0  0  0  0
    6.9616   -8.9011    0.0000 C   0  0  0  0  0  0  0  0  0  0  0  0
    7.6916   -6.8440    0.0000 C   0  0  2  0  0  0  0  0  0  0  0  0
    6.9803   -6.4262    0.0000 C   0  0  1  0  0  0  0  0  0  0  0  0
    6.2627   -6.8333    0.0000 C   0  0  0  0  0  0  0  0  0  0  0  0
    6.2565   -7.6583    0.0000 C   0  0  0  0  0  0  0  0  0  0  0  0
    5.5514   -6.4154    0.0000 C   0  0  0  0  0  0  0  0  0  0  0  0
    4.8338   -6.8225    0.0000 C   0  0  0  0  0  0  0  0  0  0  0  0
    4.8276   -7.6475    0.0000 C   0  0  0  0  0  0  0  0  0  0  0  0
    5.5389   -8.0654    0.0000 C   0  0  0  0  0  0  0  0  0  0  0  0
    4.1225   -6.4047    0.0000 C   0  0  0  0  0  0  0  0  0  0  0  0
    4.1287   -5.5797    0.0000 C   0  0  0  0  0  0  0  0  0  0  0  0
    3.4049   -6.8118    0.0000 C   0  0  0  0  0  0  0  0  0  0  0  0
    4.1100   -8.0546    0.0000 O   0  0  0  0  0  0  0  0  0  0  0  0
    5.5327   -8.8903    0.0000 O   0  0  0  0  0  0  0  0  0  0  0  0
    6.6275   -6.9575    0.0000 O   0  0  0  0  0  0  0  0  0  0  0  0
    6.6275   -7.5625    0.0000 C   0  0  0  0  0  0  0  0  0  0  0  0
    6.0441   -8.1459    0.0000 O   0  0  0  0  0  0  0  0  0  0  0  0
    9.2217   -8.0931    0.0000 C   0  0  0  0  0  0  0  0  0  0  0  0
    8.8146   -7.3755    0.0000 C   0  0  0  0  0  0  0  0  0  0  0  0
    8.4092   -6.4369    0.0000 O   0  0  0  0  0  0  0  0  0  0  0  0
    6.9865   -5.6012    0.0000 H   0  0  0  0  0  0  0  0  0  0  0  0
    8.3999   -7.2565    0.0000 H   0  0  0  0  0  0  0  0  0  0  0  0
  1  2  1  0  0  0  0
  2  3  1  0  0  0  0
  3  4  1  0  0  0  0
  4  5  1  0  0  0  0
  5  6  1  1  0  0  0
  6  1  1  0  0  0  0
  4  7  1  0  0  0  0
  7  8  1  0  0  0  0
  8  9  1  0  0  0  0
  9 10  2  0  0  0  0
 10  5  1  0  0  0  0
  9 11  1  0  0  0  0
 11 12  2  0  0  0  0
 12 13  1  0  0  0  0
 13 14  2  0  0  0  0
 14 10  1  0  0  0  0
 12 15  1  0  0  0  0
 15 16  1  0  0  0  0
 15 17  1  0  0  0  0
 13 18  1  0  0  0  0
 14 19  1  0  0  0  0
  8 20  1  0  0  0  0
  5 21  1  0  0  0  0
 21 20  1  0  0  0  0
 21 22  2  0  0  0  0
  3 23  1  0  0  0  0
  3 24  1  0  0  0  0
  7 25  1  6  0  0  0
  8 26  1  1  0  0  0
  4 27  1  6  0  0  0
M  END
>  <cdx:fragmentId>
5

$$$$
