93799.cdx
  Mrv1902 05222410222D          

 27 30  0  0  0  0            999 V2000
    9.7874   -9.5165    0.0000 C   0  0  0  0  0  0  0  0  0  0  0  0
   10.5041   -9.1078    0.0000 C   0  0  0  0  0  0  0  0  0  0  0  0
   10.5085   -8.2828    0.0000 C   0  0  0  0  0  0  0  0  0  0  0  0
    9.7962   -7.8665    0.0000 C   0  0  1  0  0  0  0  0  0  0  0  0
    9.0795   -8.2752    0.0000 C   0  0  2  0  0  0  0  0  0  0  0  0
    9.0752   -9.1002    0.0000 C   0  0  0  0  0  0  0  0  0  0  0  0
    9.8006   -7.0415    0.0000 C   0  0  1  0  0  0  0  0  0  0  0  0
    9.0883   -6.6253    0.0000 C   0  0  2  0  0  0  0  0  0  0  0  0
    8.3716   -7.0340    0.0000 C   0  0  0  0  0  0  0  0  0  0  0  0
    8.3673   -7.8589    0.0000 C   0  0  0  0  0  0  0  0  0  0  0  0
    7.6594   -6.6177    0.0000 C   0  0  0  0  0  0  0  0  0  0  0  0
    6.9427   -7.0264    0.0000 C   0  0  0  0  0  0  0  0  0  0  0  0
    6.9383   -7.8514    0.0000 C   0  0  0  0  0  0  0  0  0  0  0  0
    7.6506   -8.2676    0.0000 C   0  0  0  0  0  0  0  0  0  0  0  0
    6.2305   -6.6101    0.0000 C   0  0  0  0  0  0  0  0  0  0  0  0
    6.2348   -5.7851    0.0000 C   0  0  0  0  0  0  0  0  0  0  0  0
    5.5138   -7.0188    0.0000 C   0  0  0  0  0  0  0  0  0  0  0  0
    6.2217   -8.2601    0.0000 O   0  0  0  0  0  0  0  0  0  0  0  0
    7.6462   -9.0926    0.0000 O   0  0  0  0  0  0  0  0  0  0  0  0
    9.1850   -7.1500    0.0000 O   0  0  0  0  0  0  0  0  0  0  0  0
    8.8275   -7.6725    0.0000 C   0  0  0  0  0  0  0  0  0  0  0  0
    8.4150   -8.3870    0.0000 O   0  0  0  0  0  0  0  0  0  0  0  0
   11.3335   -8.2872    0.0000 C   0  0  0  0  0  0  0  0  0  0  0  0
   11.0918   -7.6994    0.0000 C   0  0  0  0  0  0  0  0  0  0  0  0
    9.0927   -5.8003    0.0000 O   0  0  0  0  0  0  0  0  0  0  0  0
   10.3839   -6.4582    0.0000 H   0  0  0  0  0  0  0  0  0  0  0  0
   10.5107   -7.4540    0.0000 H   0  0  0  0  0  0  0  0  0  0  0  0
  1  2  1  0  0  0  0
  2  3  1  0  0  0  0
  3  4  1  0  0  0  0
  4  5  1  0  0  0  0
  5  6  1  1  0  0  0
  6  1  1  0  0  0  0
  4  7  1  0  0  0  0
  7  8  1  0  0  0  0
  8  9  1  0  0  0  0
  9 10  2  0  0  0  0
 10  5  1  0  0  0  0
  9 11  1  0  0  0  0
 11 12  2  0  0  0  0
 12 13  1  0  0  0  0
 13 14  2  0  0  0  0
 14 10  1  0  0  0  0
 12 15  1  0  0  0  0
 15 16  1  0  0  0  0
 15 17  1  0  0  0  0
 13 18  1  0  0  0  0
 14 19  1  0  0  0  0
  5 21  1  0  0  0  0
 21 20  1  0  0  0  0
 21 22  2  0  0  0  0
  3 23  1  0  0  0  0
  3 24  1  0  0  0  0
  8 25  1  6  0  0  0
 20  7  1  0  0  0  0
  7 26  1  1  0  0  0
  4 27  1  6  0  0  0
M  END
>  <cdx:fragmentId>
5

$$$$
