937900.cdx
  Mrv1902 05222410192D          

 41 44  0  0  0  0            999 V2000
   11.1758   -3.2956    0.0000 C   0  0  0  0  0  0  0  0  0  0  0  0
   10.3689   -3.4671    0.0000 C   0  0  0  0  0  0  0  0  0  0  0  0
   10.1139   -4.2518    0.0000 C   0  0  0  0  0  0  0  0  0  0  0  0
    9.3069   -4.4233    0.0000 C   0  0  0  0  0  0  0  0  0  0  0  0
    9.0520   -5.2079    0.0000 C   0  0  0  0  0  0  0  0  0  0  0  0
    8.2450   -5.3794    0.0000 C   0  0  1  0  0  0  0  0  0  0  0  0
    7.6930   -4.7664    0.0000 C   0  0  0  0  0  0  0  0  0  0  0  0
   11.4308   -2.5110    0.0000 O   0  0  0  0  0  0  0  0  0  0  0  0
   11.7279   -3.9087    0.0000 O   0  0  0  0  0  0  0  0  0  0  0  0
    8.7549   -3.8102    0.0000 O   0  0  0  0  0  0  0  0  0  0  0  0
    9.8168   -2.8541    0.0000 C   0  0  0  0  0  0  0  0  0  0  0  0
    4.3476   -7.2440    0.0000 C   0  0  0  0  0  0  0  0  0  0  0  0
    3.6331   -7.6565    0.0000 C   0  0  0  0  0  0  0  0  0  0  0  0
    3.6331   -8.4815    0.0000 C   0  0  0  0  0  0  0  0  0  0  0  0
    4.3476   -8.8940    0.0000 C   0  0  0  0  0  0  0  0  0  0  0  0
    5.0621   -8.4815    0.0000 C   0  0  2  0  0  0  0  0  0  0  0  0
    5.7765   -8.8940    0.0000 C   0  0  0  0  0  0  0  0  0  0  0  0
    6.4910   -8.4815    0.0000 C   0  0  0  0  0  0  0  0  0  0  0  0
    6.4910   -7.6565    0.0000 C   0  0  0  0  0  0  0  0  0  0  0  0
    7.2055   -7.2440    0.0000 C   0  0  2  0  0  0  0  0  0  0  0  0
    7.9901   -7.4989    0.0000 C   0  0  2  0  0  0  0  0  0  0  0  0
    8.4750   -6.8315    0.0000 C   0  0  0  0  0  0  0  0  0  0  0  0
    7.9901   -6.1641    0.0000 C   0  0  1  0  0  0  0  0  0  0  0  0
    7.2055   -6.4190    0.0000 C   0  0  1  0  0  0  0  0  0  0  0  0
    6.4910   -6.0065    0.0000 C   0  0  1  0  0  0  0  0  0  0  0  0
    5.7765   -6.4190    0.0000 C   0  0  0  0  0  0  0  0  0  0  0  0
    5.7765   -7.2440    0.0000 C   0  0  0  0  0  0  0  0  0  0  0  0
    5.0621   -7.6565    0.0000 C   0  0  1  0  0  0  0  0  0  0  0  0
    8.2450   -8.2836    0.0000 O   0  0  0  0  0  0  0  0  0  0  0  0
    5.0621   -6.0065    0.0000 O   0  0  0  0  0  0  0  0  0  0  0  0
    7.2055   -8.8940    0.0000 O   0  0  0  0  0  0  0  0  0  0  0  0
    7.2055   -8.0690    0.0000 C   0  0  0  0  0  0  0  0  0  0  0  0
    7.2055   -5.5940    0.0000 C   0  0  0  0  0  0  0  0  0  0  0  0
    5.0621   -6.8315    0.0000 C   0  0  0  0  0  0  0  0  0  0  0  0
    4.7601   -9.6085    0.0000 C   0  0  0  0  0  0  0  0  0  0  0  0
    3.9351   -9.6085    0.0000 C   0  0  0  0  0  0  0  0  0  0  0  0
    2.9186   -8.8940    0.0000 O   0  0  0  0  0  0  0  0  0  0  0  0
    8.7870   -5.9505    0.0000 H   0  0  0  0  0  0  0  0  0  0  0  0
    6.4910   -5.1815    0.0000 O   0  0  0  0  0  0  0  0  0  0  0  0
    8.4586   -4.5826    0.0000 O   0  0  0  0  0  0  0  0  0  0  0  0
    5.0621   -9.3065    0.0000 H   0  0  0  0  0  0  0  0  0  0  0  0
  1  2  1  0  0  0  0
  2  3  1  0  0  0  0
  3  4  1  0  0  0  0
  4  5  1  0  0  0  0
  5  6  1  0  0  0  0
  6  7  1  6  0  0  0
  1  8  1  0  0  0  0
  1  9  2  0  0  0  0
  4 10  2  0  0  0  0
  2 11  1  0  0  0  0
 12 13  1  0  0  0  0
 13 14  1  0  0  0  0
 14 15  1  0  0  0  0
 15 16  1  0  0  0  0
 16 17  1  0  0  0  0
 17 18  1  0  0  0  0
 18 19  1  0  0  0  0
 19 20  1  0  0  0  0
 20 21  1  0  0  0  0
 21 22  1  0  0  0  0
 23 22  1  0  0  0  0
 23 24  1  0  0  0  0
 20 24  1  0  0  0  0
 24 25  1  0  0  0  0
 25 26  1  0  0  0  0
 26 27  1  0  0  0  0
 19 27  2  0  0  0  0
 27 28  1  0  0  0  0
 16 28  1  0  0  0  0
 12 28  1  0  0  0  0
 21 29  1  6  0  0  0
 26 30  2  0  0  0  0
 18 31  2  0  0  0  0
 20 32  1  6  0  0  0
 24 33  1  1  0  0  0
 28 34  1  1  0  0  0
 15 35  1  0  0  0  0
 15 36  1  0  0  0  0
 14 37  2  0  0  0  0
  6 23  1  0  0  0  0
 23 38  1  6  0  0  0
 25 39  1  1  0  0  0
  6 40  1  0  0  0  0
 16 41  1  6  0  0  0
M  END
>  <cdx:fragmentId>
201900

$$$$
