93797.cdx
  Mrv1902 05222410232D          

 34 37  0  0  0  0            999 V2000
    6.6531   -7.0537    0.0000 C   0  0  0  0  0  0  0  0  0  0  0  0
    6.6531   -7.8788    0.0000 C   0  0  0  0  0  0  0  0  0  0  0  0
    7.3675   -8.2912    0.0000 C   0  0  0  0  0  0  0  0  0  0  0  0
    8.0820   -7.8788    0.0000 C   0  0  0  0  0  0  0  0  0  0  0  0
    8.0820   -7.0537    0.0000 C   0  0  0  0  0  0  0  0  0  0  0  0
    7.3675   -6.6413    0.0000 C   0  0  0  0  0  0  0  0  0  0  0  0
    8.7965   -8.2912    0.0000 C   0  0  0  0  0  0  0  0  0  0  0  0
    9.5109   -7.8788    0.0000 C   0  0  0  0  0  0  0  0  0  0  0  0
    9.5109   -7.0537    0.0000 C   0  0  0  0  0  0  0  0  0  0  0  0
    8.7965   -6.6413    0.0000 O   0  0  0  0  0  0  0  0  0  0  0  0
   10.9399   -7.0537    0.0000 C   0  0  0  0  0  0  0  0  0  0  0  0
   10.2254   -6.6413    0.0000 C   0  0  0  0  0  0  0  0  0  0  0  0
   11.6544   -6.6413    0.0000 C   0  0  0  0  0  0  0  0  0  0  0  0
   11.6544   -5.8163    0.0000 C   0  0  0  0  0  0  0  0  0  0  0  0
   10.9399   -5.4037    0.0000 C   0  0  0  0  0  0  0  0  0  0  0  0
   10.2254   -5.8163    0.0000 C   0  0  0  0  0  0  0  0  0  0  0  0
   10.9399   -4.5788    0.0000 O   0  0  0  0  0  0  0  0  0  0  0  0
   12.3688   -5.4037    0.0000 O   0  0  0  0  0  0  0  0  0  0  0  0
    8.7965   -9.1162    0.0000 O   0  0  0  0  0  0  0  0  0  0  0  0
    7.3675   -9.1162    0.0000 O   0  0  0  0  0  0  0  0  0  0  0  0
    5.9386   -6.6413    0.0000 O   0  0  0  0  0  0  0  0  0  0  0  0
    5.9386   -5.8163    0.0000 C   0  0  0  0  0  0  0  0  0  0  0  0
    5.9386   -8.2912    0.0000 O   0  0  0  0  0  0  0  0  0  0  0  0
    5.2242   -7.8786    0.0000 C   0  0  2  0  0  0  0  0  0  0  0  0
    5.2244   -7.0536    0.0000 O   0  0  0  0  0  0  0  0  0  0  0  0
    4.5100   -6.6410    0.0000 C   0  0  1  0  0  0  0  0  0  0  0  0
    3.7954   -7.0533    0.0000 C   0  0  2  0  0  0  0  0  0  0  0  0
    3.7953   -7.8783    0.0000 C   0  0  1  0  0  0  0  0  0  0  0  0
    4.5096   -8.2910    0.0000 C   0  0  1  0  0  0  0  0  0  0  0  0
    4.5101   -5.8160    0.0000 C   0  0  0  0  0  0  0  0  0  0  0  0
    3.0807   -8.2907    0.0000 O   0  0  0  0  0  0  0  0  0  0  0  0
    3.0810   -6.6407    0.0000 O   0  0  0  0  0  0  0  0  0  0  0  0
    4.5095   -9.1160    0.0000 O   0  0  0  0  0  0  0  0  0  0  0  0
    3.7957   -5.4033    0.0000 O   0  0  0  0  0  0  0  0  0  0  0  0
  1  2  2  0  0  0  0
  2  3  1  0  0  0  0
  3  4  2  0  0  0  0
  4  5  1  0  0  0  0
  5  6  2  0  0  0  0
  6  1  1  0  0  0  0
  4  7  1  0  0  0  0
  7  8  1  0  0  0  0
  8  9  2  0  0  0  0
  9 10  1  0  0  0  0
 10  5  1  0  0  0  0
 11 12  2  0  0  0  0
 12  9  1  0  0  0  0
 11 13  1  0  0  0  0
 13 14  2  0  0  0  0
 14 15  1  0  0  0  0
 15 16  2  0  0  0  0
 16 12  1  0  0  0  0
 15 17  1  0  0  0  0
 14 18  1  0  0  0  0
  7 19  2  0  0  0  0
  3 20  1  0  0  0  0
  1 21  1  0  0  0  0
 21 22  1  0  0  0  0
  2 23  1  0  0  0  0
 24 23  1  1  0  0  0
 24 25  1  0  0  0  0
 25 26  1  0  0  0  0
 26 27  1  0  0  0  0
 27 28  1  0  0  0  0
 28 29  1  0  0  0  0
 29 24  1  0  0  0  0
 26 30  1  1  0  0  0
 28 31  1  1  0  0  0
 27 32  1  6  0  0  0
 29 33  1  6  0  0  0
 30 34  1  0  0  0  0
M  END
>  <cdx:fragmentId>
5

$$$$
