93790.cdx
  Mrv1902 05222410242D          

 43 46  0  0  0  0            999 V2000
   10.6915   -3.8951    0.0000 C   0  0  0  0  0  0  0  0  0  0  0  0
    9.8846   -4.0666    0.0000 C   0  0  0  0  0  0  0  0  0  0  0  0
    9.6296   -4.8513    0.0000 C   0  0  0  0  0  0  0  0  0  0  0  0
    8.8226   -5.0228    0.0000 C   0  0  0  0  0  0  0  0  0  0  0  0
    8.5677   -5.8074    0.0000 C   0  0  0  0  0  0  0  0  0  0  0  0
    7.7607   -5.9789    0.0000 C   0  0  1  0  0  0  0  0  0  0  0  0
    7.2087   -5.3659    0.0000 C   0  0  0  0  0  0  0  0  0  0  0  0
   10.9465   -3.1105    0.0000 O   0  0  0  0  0  0  0  0  0  0  0  0
   11.2436   -4.5082    0.0000 O   0  0  0  0  0  0  0  0  0  0  0  0
    8.2706   -4.4097    0.0000 O   0  0  0  0  0  0  0  0  0  0  0  0
    9.3325   -3.4536    0.0000 C   0  0  0  0  0  0  0  0  0  0  0  0
    3.8633   -7.8435    0.0000 C   0  0  0  0  0  0  0  0  0  0  0  0
    3.1488   -8.2560    0.0000 C   0  0  0  0  0  0  0  0  0  0  0  0
    3.1488   -9.0810    0.0000 C   0  0  0  0  0  0  0  0  0  0  0  0
    3.8633   -9.4935    0.0000 C   0  0  0  0  0  0  0  0  0  0  0  0
    4.5778   -9.0810    0.0000 C   0  0  2  0  0  0  0  0  0  0  0  0
    5.2922   -9.4935    0.0000 C   0  0  0  0  0  0  0  0  0  0  0  0
    6.0067   -9.0810    0.0000 C   0  0  0  0  0  0  0  0  0  0  0  0
    6.0067   -8.2560    0.0000 C   0  0  0  0  0  0  0  0  0  0  0  0
    6.7212   -7.8435    0.0000 C   0  0  2  0  0  0  0  0  0  0  0  0
    7.5058   -8.0984    0.0000 C   0  0  0  0  0  0  0  0  0  0  0  0
    7.9907   -7.4310    0.0000 C   0  0  0  0  0  0  0  0  0  0  0  0
    7.5058   -6.7636    0.0000 C   0  0  1  0  0  0  0  0  0  0  0  0
    6.7212   -7.0185    0.0000 C   0  0  1  0  0  0  0  0  0  0  0  0
    6.0067   -6.6060    0.0000 C   0  0  1  0  0  0  0  0  0  0  0  0
    5.2922   -7.0185    0.0000 C   0  0  0  0  0  0  0  0  0  0  0  0
    5.2922   -7.8435    0.0000 C   0  0  0  0  0  0  0  0  0  0  0  0
    4.5778   -8.2560    0.0000 C   0  0  1  0  0  0  0  0  0  0  0  0
    7.7607   -8.8831    0.0000 O   0  0  0  0  0  0  0  0  0  0  0  0
    4.5778   -6.6060    0.0000 O   0  0  0  0  0  0  0  0  0  0  0  0
    6.7212   -9.4935    0.0000 O   0  0  0  0  0  0  0  0  0  0  0  0
    2.4343   -9.4935    0.0000 O   0  0  0  0  0  0  0  0  0  0  0  0
    6.7212   -8.6685    0.0000 C   0  0  0  0  0  0  0  0  0  0  0  0
    6.7212   -6.1935    0.0000 C   0  0  0  0  0  0  0  0  0  0  0  0
    4.5778   -7.4310    0.0000 C   0  0  0  0  0  0  0  0  0  0  0  0
    4.2758  -10.2080    0.0000 C   0  0  0  0  0  0  0  0  0  0  0  0
    3.4508  -10.2080    0.0000 C   0  0  0  0  0  0  0  0  0  0  0  0
    6.0067   -5.7810    0.0000 O   0  0  0  0  0  0  0  0  0  0  0  0
    5.2922   -5.3685    0.0000 C   0  0  0  0  0  0  0  0  0  0  0  0
    5.2922   -4.5435    0.0000 O   0  0  0  0  0  0  0  0  0  0  0  0
    4.5778   -5.7810    0.0000 C   0  0  0  0  0  0  0  0  0  0  0  0
    4.5778   -9.9060    0.0000 H   0  0  0  0  0  0  0  0  0  0  0  0
    8.2904   -6.5086    0.0000 H   0  0  0  0  0  0  0  0  0  0  0  0
  1  2  1  0  0  0  0
  2  3  1  0  0  0  0
  3  4  1  0  0  0  0
  4  5  1  0  0  0  0
  5  6  1  0  0  0  0
  6  7  1  6  0  0  0
  1  8  1  0  0  0  0
  1  9  2  0  0  0  0
  4 10  2  0  0  0  0
  2 11  1  0  0  0  0
 12 13  1  0  0  0  0
 13 14  1  0  0  0  0
 14 15  1  0  0  0  0
 15 16  1  0  0  0  0
 16 17  1  0  0  0  0
 17 18  1  0  0  0  0
 18 19  1  0  0  0  0
 19 20  1  0  0  0  0
 20 21  1  0  0  0  0
 21 22  1  0  0  0  0
 23 22  1  0  0  0  0
 23 24  1  0  0  0  0
 20 24  1  0  0  0  0
 24 25  1  0  0  0  0
 25 26  1  0  0  0  0
 26 27  1  0  0  0  0
 19 27  2  0  0  0  0
 27 28  1  0  0  0  0
 16 28  1  0  0  0  0
 12 28  1  0  0  0  0
 21 29  2  0  0  0  0
 26 30  2  0  0  0  0
 18 31  2  0  0  0  0
 14 32  2  0  0  0  0
 20 33  1  6  0  0  0
 24 34  1  1  0  0  0
 28 35  1  1  0  0  0
 15 36  1  0  0  0  0
 15 37  1  0  0  0  0
 39 40  2  0  0  0  0
 39 41  1  0  0  0  0
 38 39  1  0  0  0  0
 25 38  1  1  0  0  0
  6 23  1  0  0  0  0
 16 42  1  6  0  0  0
 23 43  1  6  0  0  0
M  END
>  <cdx:fragmentId>
143780

$$$$
