93806.cdx
  Mrv1902 05222410232D          

 17 17  0  0  0  0            999 V2000
    5.5943   -4.5788    0.0000 C   0  0  0  0  0  0  0  0  0  0  0  0
    5.5943   -5.4037    0.0000 C   0  0  0  0  0  0  0  0  0  0  0  0
    6.3088   -5.8163    0.0000 C   0  0  0  0  0  0  0  0  0  0  0  0
    7.0232   -5.4037    0.0000 C   0  0  0  0  0  0  0  0  0  0  0  0
    7.0232   -4.5788    0.0000 C   0  0  0  0  0  0  0  0  0  0  0  0
    6.3088   -4.1662    0.0000 C   0  0  0  0  0  0  0  0  0  0  0  0
    6.3088   -3.3413    0.0000 O   0  0  0  0  0  0  0  0  0  0  0  0
    5.5943   -2.9288    0.0000 C   0  0  0  0  0  0  0  0  0  0  0  0
    4.8798   -5.8163    0.0000 O   0  0  0  0  0  0  0  0  0  0  0  0
    4.8798   -6.6413    0.0000 C   0  0  0  0  0  0  0  0  0  0  0  0
    6.3088   -6.6413    0.0000 O   0  0  0  0  0  0  0  0  0  0  0  0
    7.0232   -7.0537    0.0000 C   0  0  0  0  0  0  0  0  0  0  0  0
    7.7377   -4.1662    0.0000 C   0  0  2  0  0  0  0  0  0  0  0  0
    8.4522   -4.5788    0.0000 C   0  0  1  0  0  0  0  0  0  0  0  0
    7.7377   -3.3413    0.0000 O   0  0  0  0  0  0  0  0  0  0  0  0
    9.1667   -4.1662    0.0000 C   0  0  0  0  0  0  0  0  0  0  0  0
    8.4522   -5.4037    0.0000 O   0  0  0  0  0  0  0  0  0  0  0  0
  1  2  2  0  0  0  0
  2  3  1  0  0  0  0
  3  4  2  0  0  0  0
  4  5  1  0  0  0  0
  5  6  2  0  0  0  0
  6  1  1  0  0  0  0
  6  7  1  0  0  0  0
  7  8  1  0  0  0  0
  2  9  1  0  0  0  0
  9 10  1  0  0  0  0
  3 11  1  0  0  0  0
 11 12  1  0  0  0  0
  5 13  1  0  0  0  0
 13 14  1  0  0  0  0
 13 15  1  1  0  0  0
 14 16  1  0  0  0  0
 14 17  1  1  0  0  0
M  END
>  <cdx:fragmentId>
5

$$$$
