93800.cdx
  Mrv1902 05222410242D          

 22 24  0  0  0  0            999 V2000
    4.7006   -6.1600    0.0000 C   0  0  0  0  0  0  0  0  0  0  0  0
    4.7006   -6.9850    0.0000 C   0  0  0  0  0  0  0  0  0  0  0  0
    5.4150   -7.3975    0.0000 C   0  0  0  0  0  0  0  0  0  0  0  0
    6.1295   -6.9850    0.0000 C   0  0  0  0  0  0  0  0  0  0  0  0
    6.1295   -6.1600    0.0000 C   0  0  0  0  0  0  0  0  0  0  0  0
    5.4150   -5.7475    0.0000 C   0  0  0  0  0  0  0  0  0  0  0  0
    6.8440   -7.3975    0.0000 C   0  0  0  0  0  0  0  0  0  0  0  0
    7.5584   -6.9850    0.0000 C   0  0  0  0  0  0  0  0  0  0  0  0
    7.5584   -6.1600    0.0000 C   0  0  0  0  0  0  0  0  0  0  0  0
    6.8440   -5.7475    0.0000 O   0  0  0  0  0  0  0  0  0  0  0  0
    8.9874   -6.1600    0.0000 C   0  0  0  0  0  0  0  0  0  0  0  0
    8.2729   -5.7475    0.0000 C   0  0  0  0  0  0  0  0  0  0  0  0
    9.7019   -5.7475    0.0000 C   0  0  0  0  0  0  0  0  0  0  0  0
    9.7019   -4.9225    0.0000 C   0  0  0  0  0  0  0  0  0  0  0  0
    8.9874   -4.5100    0.0000 C   0  0  0  0  0  0  0  0  0  0  0  0
    8.2729   -4.9225    0.0000 C   0  0  0  0  0  0  0  0  0  0  0  0
    3.9861   -5.7475    0.0000 O   0  0  0  0  0  0  0  0  0  0  0  0
    5.4150   -8.2225    0.0000 O   0  0  0  0  0  0  0  0  0  0  0  0
    5.4150   -4.9225    0.0000 O   0  0  0  0  0  0  0  0  0  0  0  0
    4.7006   -4.5100    0.0000 C   0  0  0  0  0  0  0  0  0  0  0  0
    6.8440   -8.2225    0.0000 O   0  0  0  0  0  0  0  0  0  0  0  0
   10.4163   -4.5100    0.0000 O   0  0  0  0  0  0  0  0  0  0  0  0
  1  2  2  0  0  0  0
  2  3  1  0  0  0  0
  3  4  2  0  0  0  0
  4  5  1  0  0  0  0
  5  6  2  0  0  0  0
  6  1  1  0  0  0  0
  4  7  1  0  0  0  0
  7  8  1  0  0  0  0
  8  9  2  0  0  0  0
  9 10  1  0  0  0  0
 10  5  1  0  0  0  0
 11 12  2  0  0  0  0
 12  9  1  0  0  0  0
 11 13  1  0  0  0  0
 13 14  2  0  0  0  0
 14 15  1  0  0  0  0
 15 16  2  0  0  0  0
 16 12  1  0  0  0  0
  1 17  1  0  0  0  0
  3 18  1  0  0  0  0
  6 19  1  0  0  0  0
 19 20  1  0  0  0  0
  7 21  2  0  0  0  0
 14 22  1  0  0  0  0
M  END
>  <cdx:fragmentId>
5

$$$$
