93807.cdx
  Mrv1902 05222410232D          

 17 17  0  0  0  0            999 V2000
    6.0343   -5.5137    0.0000 C   0  0  0  0  0  0  0  0  0  0  0  0
    6.0343   -6.3388    0.0000 C   0  0  0  0  0  0  0  0  0  0  0  0
    6.7488   -6.7512    0.0000 C   0  0  0  0  0  0  0  0  0  0  0  0
    7.4632   -6.3388    0.0000 C   0  0  0  0  0  0  0  0  0  0  0  0
    7.4632   -5.5137    0.0000 C   0  0  0  0  0  0  0  0  0  0  0  0
    6.7488   -5.1013    0.0000 C   0  0  0  0  0  0  0  0  0  0  0  0
    6.7488   -4.2763    0.0000 O   0  0  0  0  0  0  0  0  0  0  0  0
    6.0343   -3.8638    0.0000 C   0  0  0  0  0  0  0  0  0  0  0  0
    5.3198   -6.7512    0.0000 O   0  0  0  0  0  0  0  0  0  0  0  0
    5.3198   -7.5762    0.0000 C   0  0  0  0  0  0  0  0  0  0  0  0
    6.7488   -7.5762    0.0000 O   0  0  0  0  0  0  0  0  0  0  0  0
    7.4632   -7.9888    0.0000 C   0  0  0  0  0  0  0  0  0  0  0  0
    8.1777   -5.1013    0.0000 C   0  0  1  0  0  0  0  0  0  0  0  0
    8.8922   -5.5137    0.0000 C   0  0  1  0  0  0  0  0  0  0  0  0
    8.1777   -4.2763    0.0000 O   0  0  0  0  0  0  0  0  0  0  0  0
    9.6067   -5.1013    0.0000 C   0  0  0  0  0  0  0  0  0  0  0  0
    8.8922   -6.3388    0.0000 O   0  0  0  0  0  0  0  0  0  0  0  0
  1  2  2  0  0  0  0
  2  3  1  0  0  0  0
  3  4  2  0  0  0  0
  4  5  1  0  0  0  0
  5  6  2  0  0  0  0
  6  1  1  0  0  0  0
  6  7  1  0  0  0  0
  7  8  1  0  0  0  0
  2  9  1  0  0  0  0
  9 10  1  0  0  0  0
  3 11  1  0  0  0  0
 11 12  1  0  0  0  0
  5 13  1  0  0  0  0
 13 14  1  0  0  0  0
 13 15  1  6  0  0  0
 14 16  1  0  0  0  0
 14 17  1  1  0  0  0
M  END
>  <cdx:fragmentId>
5

$$$$
