93803.cdx
  Mrv1902 05222410252D          

 17 17  0  0  0  0            999 V2000
    5.8831   -6.3388    0.0000 C   0  0  0  0  0  0  0  0  0  0  0  0
    5.8831   -7.1638    0.0000 C   0  0  0  0  0  0  0  0  0  0  0  0
    6.5975   -7.5762    0.0000 C   0  0  0  0  0  0  0  0  0  0  0  0
    7.3120   -7.1638    0.0000 C   0  0  0  0  0  0  0  0  0  0  0  0
    7.3120   -6.3388    0.0000 C   0  0  0  0  0  0  0  0  0  0  0  0
    6.5975   -5.9262    0.0000 C   0  0  0  0  0  0  0  0  0  0  0  0
    6.5975   -5.1013    0.0000 O   0  0  0  0  0  0  0  0  0  0  0  0
    5.8831   -4.6888    0.0000 C   0  0  0  0  0  0  0  0  0  0  0  0
    5.1686   -7.5762    0.0000 O   0  0  0  0  0  0  0  0  0  0  0  0
    5.1686   -8.4013    0.0000 C   0  0  0  0  0  0  0  0  0  0  0  0
    6.5975   -8.4013    0.0000 O   0  0  0  0  0  0  0  0  0  0  0  0
    7.3120   -8.8138    0.0000 C   0  0  0  0  0  0  0  0  0  0  0  0
    8.0265   -5.9262    0.0000 C   0  0  0  0  0  0  0  0  0  0  0  0
    8.7409   -6.3388    0.0000 C   0  0  0  0  0  0  0  0  0  0  0  0
    9.4554   -5.9262    0.0000 C   0  0  0  0  0  0  0  0  0  0  0  0
    8.0265   -5.1013    0.0000 O   0  0  0  0  0  0  0  0  0  0  0  0
    8.7409   -7.1638    0.0000 O   0  0  0  0  0  0  0  0  0  0  0  0
  1  2  2  0  0  0  0
  2  3  1  0  0  0  0
  3  4  2  0  0  0  0
  4  5  1  0  0  0  0
  5  6  2  0  0  0  0
  6  1  1  0  0  0  0
  6  7  1  0  0  0  0
  7  8  1  0  0  0  0
  2  9  1  0  0  0  0
  9 10  1  0  0  0  0
  3 11  1  0  0  0  0
 11 12  1  0  0  0  0
  5 13  1  0  0  0  0
 13 14  1  0  0  0  0
 14 15  1  0  0  0  0
 13 16  1  0  0  0  0
 14 17  2  0  0  0  0
M  END
>  <cdx:fragmentId>
5

$$$$
