93801.cdx
  Mrv1902 05222410252D          

 26 29  0  0  0  0            999 V2000
    8.6524   -9.3710    0.0000 C   0  0  0  0  0  0  0  0  0  0  0  0
    9.3592   -8.9455    0.0000 C   0  0  0  0  0  0  0  0  0  0  0  0
    9.3442   -8.1207    0.0000 C   0  0  0  0  0  0  0  0  0  0  0  0
    8.6223   -7.7213    0.0000 C   0  0  1  0  0  0  0  0  0  0  0  0
    7.9155   -8.1467    0.0000 C   0  0  2  0  0  0  0  0  0  0  0  0
    7.9305   -8.9716    0.0000 C   0  0  0  0  0  0  0  0  0  0  0  0
    8.6073   -6.8964    0.0000 C   0  0  0  0  0  0  0  0  0  0  0  0
    7.8854   -6.4970    0.0000 C   0  0  1  0  0  0  0  0  0  0  0  0
    7.1786   -6.9225    0.0000 C   0  0  0  0  0  0  0  0  0  0  0  0
    7.1936   -7.7473    0.0000 C   0  0  0  0  0  0  0  0  0  0  0  0
    6.4567   -6.5230    0.0000 C   0  0  0  0  0  0  0  0  0  0  0  0
    5.7499   -6.9485    0.0000 C   0  0  0  0  0  0  0  0  0  0  0  0
    5.7649   -7.7734    0.0000 C   0  0  0  0  0  0  0  0  0  0  0  0
    6.4868   -8.1728    0.0000 C   0  0  0  0  0  0  0  0  0  0  0  0
    5.0280   -6.5491    0.0000 C   0  0  0  0  0  0  0  0  0  0  0  0
    5.0129   -5.7242    0.0000 C   0  0  0  0  0  0  0  0  0  0  0  0
    4.3212   -6.9746    0.0000 C   0  0  0  0  0  0  0  0  0  0  0  0
    5.0581   -8.1988    0.0000 O   0  0  0  0  0  0  0  0  0  0  0  0
    6.5018   -8.9976    0.0000 O   0  0  0  0  0  0  0  0  0  0  0  0
    7.5900   -7.0400    0.0000 O   0  0  0  0  0  0  0  0  0  0  0  0
    7.5625   -7.6175    0.0000 C   0  0  0  0  0  0  0  0  0  0  0  0
    7.1500   -8.3320    0.0000 O   0  0  0  0  0  0  0  0  0  0  0  0
   10.1690   -8.1056    0.0000 C   0  0  0  0  0  0  0  0  0  0  0  0
    9.7436   -7.3988    0.0000 C   0  0  0  0  0  0  0  0  0  0  0  0
    7.8854   -5.6720    0.0000 H   0  0  0  0  0  0  0  0  0  0  0  0
    9.3368   -7.3088    0.0000 H   0  0  0  0  0  0  0  0  0  0  0  0
  1  2  1  0  0  0  0
  2  3  1  0  0  0  0
  3  4  1  0  0  0  0
  4  5  1  0  0  0  0
  5  6  1  1  0  0  0
  6  1  1  0  0  0  0
  4  7  1  0  0  0  0
  7  8  1  0  0  0  0
  8  9  1  0  0  0  0
  9 10  2  0  0  0  0
 10  5  1  0  0  0  0
  9 11  1  0  0  0  0
 11 12  2  0  0  0  0
 12 13  1  0  0  0  0
 13 14  2  0  0  0  0
 14 10  1  0  0  0  0
 12 15  1  0  0  0  0
 15 16  1  0  0  0  0
 15 17  1  0  0  0  0
 13 18  1  0  0  0  0
 14 19  1  0  0  0  0
  8 20  1  0  0  0  0
  5 21  1  0  0  0  0
 21 20  1  0  0  0  0
 21 22  2  0  0  0  0
  3 23  1  0  0  0  0
  3 24  1  0  0  0  0
  8 25  1  1  0  0  0
  4 26  1  6  0  0  0
M  END
>  <cdx:fragmentId>
5

$$$$
