93805.cdx
  Mrv1902 05222410242D          

 19 19  0  0  0  0            999 V2000
    5.0443   -6.4350    0.0000 C   0  0  0  0  0  0  0  0  0  0  0  0
    5.0443   -7.2600    0.0000 C   0  0  0  0  0  0  0  0  0  0  0  0
    5.7588   -7.6725    0.0000 C   0  0  0  0  0  0  0  0  0  0  0  0
    6.4732   -7.2600    0.0000 C   0  0  0  0  0  0  0  0  0  0  0  0
    6.4732   -6.4350    0.0000 C   0  0  0  0  0  0  0  0  0  0  0  0
    5.7588   -6.0225    0.0000 C   0  0  0  0  0  0  0  0  0  0  0  0
    5.7588   -5.1975    0.0000 O   0  0  0  0  0  0  0  0  0  0  0  0
    5.0443   -4.7850    0.0000 C   0  0  0  0  0  0  0  0  0  0  0  0
    4.3298   -7.6725    0.0000 O   0  0  0  0  0  0  0  0  0  0  0  0
    4.3298   -8.4975    0.0000 C   0  0  0  0  0  0  0  0  0  0  0  0
    5.7588   -8.4975    0.0000 O   0  0  0  0  0  0  0  0  0  0  0  0
    6.4732   -8.9100    0.0000 C   0  0  0  0  0  0  0  0  0  0  0  0
    7.1877   -6.0225    0.0000 C   0  0  2  0  0  0  0  0  0  0  0  0
    7.9022   -6.4350    0.0000 C   0  0  0  0  0  0  0  0  0  0  0  0
    7.1877   -5.1975    0.0000 C   0  0  0  0  0  0  0  0  0  0  0  0
    8.6167   -6.0225    0.0000 O   0  0  0  0  0  0  0  0  0  0  0  0
    7.9022   -7.2600    0.0000 O   0  0  0  0  0  0  0  0  0  0  0  0
    8.6167   -7.6725    0.0000 C   0  0  0  0  0  0  0  0  0  0  0  0
    9.3311   -6.4350    0.0000 C   0  0  0  0  0  0  0  0  0  0  0  0
  1  2  2  0  0  0  0
  2  3  1  0  0  0  0
  3  4  2  0  0  0  0
  4  5  1  0  0  0  0
  5  6  2  0  0  0  0
  6  1  1  0  0  0  0
  6  7  1  0  0  0  0
  7  8  1  0  0  0  0
  2  9  1  0  0  0  0
  9 10  1  0  0  0  0
  3 11  1  0  0  0  0
 11 12  1  0  0  0  0
  5 13  1  0  0  0  0
 13 14  1  0  0  0  0
 13 15  1  1  0  0  0
 14 16  1  0  0  0  0
 14 17  1  0  0  0  0
 17 18  1  0  0  0  0
 16 19  1  0  0  0  0
M  END
>  <cdx:fragmentId>
5

$$$$
