938139.cdx
  Mrv1902 05222410232D          

 18 19  0  0  0  0            999 V2000
    7.6910   -9.3903    0.0000 O   0  0  0  0  0  0  0  0  0  0  0  0
    7.6922   -6.0903    0.0000 O   0  0  0  0  0  0  0  0  0  0  0  0
    9.1212   -6.0909    0.0000 C   0  0  0  0  0  0  0  0  0  0  0  0
    9.1209   -6.9159    0.0000 O   0  0  0  0  0  0  0  0  0  0  0  0
    6.9773   -7.3276    0.0000 C   0  0  0  0  0  0  0  0  0  0  0  0
    7.6919   -6.9153    0.0000 C   0  0  0  0  0  0  0  0  0  0  0  0
    8.4063   -7.3281    0.0000 C   0  0  0  0  0  0  0  0  0  0  0  0
    8.4060   -8.1531    0.0000 C   0  0  0  0  0  0  0  0  0  0  0  0
    7.6913   -8.5653    0.0000 C   0  0  0  0  0  0  0  0  0  0  0  0
    6.9770   -8.1526    0.0000 C   0  0  0  0  0  0  0  0  0  0  0  0
    6.9764   -9.8026    0.0000 C   0  0  0  0  0  0  0  0  0  0  0  0
    6.9761  -10.6276    0.0000 C   0  0  0  0  0  0  0  0  0  0  0  0
    6.2615  -11.0398    0.0000 C   0  0  0  0  0  0  0  0  0  0  0  0
    5.5472  -10.6271    0.0000 C   0  0  0  0  0  0  0  0  0  0  0  0
    5.5475   -9.8021    0.0000 C   0  0  0  0  0  0  0  0  0  0  0  0
    6.2621   -9.3898    0.0000 C   0  0  0  0  0  0  0  0  0  0  0  0
    5.5481   -8.1521    0.0000 O   0  0  0  0  0  0  0  0  0  0  0  0
    6.2624   -8.5648    0.0000 C   0  0  0  0  0  0  0  0  0  0  0  0
 18 10  1  0  0  0  0
  9  1  1  0  0  0  0
  6  2  1  0  0  0  0
  7  4  1  0  0  0  0
  4  3  1  0  0  0  0
 10  5  2  0  0  0  0
  6  5  1  0  0  0  0
  7  6  2  0  0  0  0
  8  7  1  0  0  0  0
  9  8  2  0  0  0  0
 10  9  1  0  0  0  0
 18 16  1  0  0  0  0
 16 11  2  0  0  0  0
 12 11  1  0  0  0  0
 13 12  2  0  0  0  0
 14 13  1  0  0  0  0
 15 14  2  0  0  0  0
 16 15  1  0  0  0  0
 18 17  2  0  0  0  0
M  END
>  <cdx:fragmentId>
21

$$$$
