93816.cdx
  Mrv1902 05222410252D          

 22 24  0  0  0  0            999 V2000
    5.9128   -7.3341    0.0000 C   0  0  0  0  0  0  0  0  0  0  0  0
    5.1983   -7.7466    0.0000 C   0  0  0  0  0  0  0  0  0  0  0  0
    5.9128   -6.5091    0.0000 O   0  0  0  0  0  0  0  0  0  0  0  0
    6.6272   -7.7466    0.0000 O   0  0  0  0  0  0  0  0  0  0  0  0
    5.9128   -9.8091    0.0000 C   0  0  0  0  0  0  0  0  0  0  0  0
    5.9128   -8.9841    0.0000 C   0  0  1  0  0  0  0  0  0  0  0  0
    6.6272   -8.5716    0.0000 C   0  0  2  0  0  0  0  0  0  0  0  0
    7.3417   -8.9841    0.0000 C   0  0  0  0  0  0  0  0  0  0  0  0
    8.0562   -8.5716    0.0000 C   0  0  0  0  0  0  0  0  0  0  0  0
    8.7706   -8.9841    0.0000 C   0  0  0  0  0  0  0  0  0  0  0  0
    8.7706   -9.8091    0.0000 C   0  0  0  0  0  0  0  0  0  0  0  0
    8.0562  -10.2216    0.0000 C   0  0  0  0  0  0  0  0  0  0  0  0
    7.3417   -9.8091    0.0000 C   0  0  0  0  0  0  0  0  0  0  0  0
    6.6272  -10.2216    0.0000 O   0  0  0  0  0  0  0  0  0  0  0  0
    9.4851   -8.5716    0.0000 C   0  0  0  0  0  0  0  0  0  0  0  0
    9.4851   -7.7466    0.0000 C   0  0  0  0  0  0  0  0  0  0  0  0
    8.7706   -7.3341    0.0000 C   0  0  0  0  0  0  0  0  0  0  0  0
    8.0562   -7.7466    0.0000 O   0  0  0  0  0  0  0  0  0  0  0  0
    8.7706   -6.5091    0.0000 O   0  0  0  0  0  0  0  0  0  0  0  0
    5.5003  -10.5235    0.0000 C   0  0  0  0  0  0  0  0  0  0  0  0
    5.0878   -9.8091    0.0000 C   0  0  0  0  0  0  0  0  0  0  0  0
    5.1983   -8.5716    0.0000 O   0  0  0  0  0  0  0  0  0  0  0  0
  1  2  1  0  0  0  0
  1  3  2  0  0  0  0
  1  4  1  0  0  0  0
  5  6  1  0  0  0  0
  6  7  1  0  0  0  0
  7  8  1  0  0  0  0
  8  9  1  0  0  0  0
  9 10  2  0  0  0  0
 10 11  1  0  0  0  0
 11 12  2  0  0  0  0
 12 13  1  0  0  0  0
  8 13  2  0  0  0  0
 13 14  1  0  0  0  0
  5 14  1  0  0  0  0
 15 16  2  0  0  0  0
 16 17  1  0  0  0  0
 17 18  1  0  0  0  0
 18  9  1  0  0  0  0
 15 10  1  0  0  0  0
 17 19  2  0  0  0  0
  5 20  1  0  0  0  0
  5 21  1  0  0  0  0
  6 22  1  6  0  0  0
  7  4  1  1  0  0  0
M  END
>  <cdx:groupId>
70

>  <cdx:fragmentId>
13

$$$$
