93819.cdx
  Mrv1902 05222410212D          

 28 30  0  0  0  0            999 V2000
    5.0488   -9.6028    0.0000 C   0  0  0  0  0  0  0  0  0  0  0  0
    4.3343   -9.1903    0.0000 C   0  0  0  0  0  0  0  0  0  0  0  0
    5.0488  -10.4278    0.0000 O   0  0  0  0  0  0  0  0  0  0  0  0
    5.7633   -9.1903    0.0000 O   0  0  0  0  0  0  0  0  0  0  0  0
    6.4777  -10.4278    0.0000 C   0  0  0  0  0  0  0  0  0  0  0  0
    6.4777   -9.6028    0.0000 C   0  0  1  0  0  0  0  0  0  0  0  0
    7.1922   -9.1903    0.0000 C   0  0  1  0  0  0  0  0  0  0  0  0
    7.9067   -9.6028    0.0000 C   0  0  0  0  0  0  0  0  0  0  0  0
    8.6212   -9.1903    0.0000 C   0  0  0  0  0  0  0  0  0  0  0  0
    9.3356   -9.6028    0.0000 C   0  0  0  0  0  0  0  0  0  0  0  0
    9.3356  -10.4278    0.0000 C   0  0  0  0  0  0  0  0  0  0  0  0
    8.6212  -10.8403    0.0000 C   0  0  0  0  0  0  0  0  0  0  0  0
    7.9067  -10.4278    0.0000 C   0  0  0  0  0  0  0  0  0  0  0  0
    7.1922  -10.8403    0.0000 O   0  0  0  0  0  0  0  0  0  0  0  0
   10.0501   -9.1903    0.0000 C   0  0  0  0  0  0  0  0  0  0  0  0
   10.0501   -8.3653    0.0000 C   0  0  0  0  0  0  0  0  0  0  0  0
    9.3356   -7.9528    0.0000 C   0  0  0  0  0  0  0  0  0  0  0  0
    8.6212   -8.3653    0.0000 O   0  0  0  0  0  0  0  0  0  0  0  0
    9.3356   -7.1278    0.0000 O   0  0  0  0  0  0  0  0  0  0  0  0
    7.1922   -8.3653    0.0000 O   0  0  0  0  0  0  0  0  0  0  0  0
    6.4777   -7.9528    0.0000 C   0  0  0  0  0  0  0  0  0  0  0  0
    6.0652  -11.1423    0.0000 C   0  0  0  0  0  0  0  0  0  0  0  0
    5.6527  -10.4278    0.0000 C   0  0  0  0  0  0  0  0  0  0  0  0
    6.4777   -7.1278    0.0000 C   0  0  0  0  0  0  0  0  0  0  0  0
    5.7633   -8.3653    0.0000 O   0  0  0  0  0  0  0  0  0  0  0  0
    5.7633   -6.7153    0.0000 C   0  0  0  0  0  0  0  0  0  0  0  0
    5.7633   -5.8903    0.0000 C   0  0  0  0  0  0  0  0  0  0  0  0
    7.1922   -6.7153    0.0000 C   0  0  0  0  0  0  0  0  0  0  0  0
  1  2  1  0  0  0  0
  1  3  2  0  0  0  0
  1  4  1  0  0  0  0
  5  6  1  0  0  0  0
  6  7  1  0  0  0  0
  7  8  1  0  0  0  0
  8  9  1  0  0  0  0
  9 10  2  0  0  0  0
 10 11  1  0  0  0  0
 11 12  2  0  0  0  0
 12 13  1  0  0  0  0
  8 13  2  0  0  0  0
 13 14  1  0  0  0  0
  5 14  1  0  0  0  0
 15 16  2  0  0  0  0
 16 17  1  0  0  0  0
 17 18  1  0  0  0  0
 18  9  1  0  0  0  0
 15 10  1  0  0  0  0
 17 19  2  0  0  0  0
 20 21  1  0  0  0  0
  7 20  1  6  0  0  0
  5 22  1  0  0  0  0
  5 23  1  0  0  0  0
  6  4  1  6  0  0  0
 21 24  1  0  0  0  0
 21 25  2  0  0  0  0
 24 26  1  0  0  0  0
 26 27  1  0  0  0  0
 24 28  1  0  0  0  0
M  END
>  <cdx:fragmentId>
13

$$$$
