93814.cdx
  Mrv1902 05222410252D          

 37 40  0  0  0  0            999 V2000
    4.6725   -5.7480    0.0000 C   0  0  0  0  0  0  0  0  0  0  0  0
    4.2600   -6.4625    0.0000 C   0  0  0  0  0  0  0  0  0  0  0  0
    4.6725   -7.1770    0.0000 C   0  0  0  0  0  0  0  0  0  0  0  0
    5.4975   -7.1770    0.0000 C   0  0  0  0  0  0  0  0  0  0  0  0
    5.9100   -6.4625    0.0000 C   0  0  0  0  0  0  0  0  0  0  0  0
    5.4975   -5.7480    0.0000 C   0  0  0  0  0  0  0  0  0  0  0  0
    3.4350   -6.4625    0.0000 O   0  0  0  0  0  0  0  0  0  0  0  0
    4.2600   -5.0336    0.0000 O   0  0  0  0  0  0  0  0  0  0  0  0
    3.4350   -5.0336    0.0000 C   0  0  0  0  0  0  0  0  0  0  0  0
    6.7350   -6.4625    0.0000 C   0  0  2  0  0  0  0  0  0  0  0  0
    7.2199   -7.1299    0.0000 C   0  0  2  0  0  0  0  0  0  0  0  0
    8.0046   -6.8750    0.0000 C   0  0  0  0  0  0  0  0  0  0  0  0
    8.0046   -6.0500    0.0000 C   0  0  0  0  0  0  0  0  0  0  0  0
    7.2199   -5.7951    0.0000 O   0  0  0  0  0  0  0  0  0  0  0  0
    8.7190   -7.2875    0.0000 C   0  0  0  0  0  0  0  0  0  0  0  0
    9.4335   -6.8750    0.0000 C   0  0  0  0  0  0  0  0  0  0  0  0
    9.4335   -6.0500    0.0000 C   0  0  0  0  0  0  0  0  0  0  0  0
    8.7190   -5.6375    0.0000 C   0  0  0  0  0  0  0  0  0  0  0  0
    8.7190   -4.8125    0.0000 O   0  0  0  0  0  0  0  0  0  0  0  0
    9.4335   -4.4000    0.0000 C   0  0  0  0  0  0  0  0  0  0  0  0
   10.1480   -7.2875    0.0000 C   0  0  0  0  0  0  0  0  0  0  0  0
   10.8625   -6.8750    0.0000 C   0  0  0  0  0  0  0  0  0  0  0  0
   11.5769   -7.2875    0.0000 C   0  0  0  0  0  0  0  0  0  0  0  0
   12.2914   -6.8750    0.0000 O   0  0  0  0  0  0  0  0  0  0  0  0
    6.9650   -7.9146    0.0000 C   0  0  0  0  0  0  0  0  0  0  0  0
    7.5170   -8.5277    0.0000 O   0  0  0  0  0  0  0  0  0  0  0  0
    7.2621   -9.3123    0.0000 C   0  0  2  0  0  0  0  0  0  0  0  0
    6.4551   -9.4838    0.0000 O   0  0  0  0  0  0  0  0  0  0  0  0
    6.2002  -10.2684    0.0000 C   0  0  1  0  0  0  0  0  0  0  0  0
    6.7522  -10.8815    0.0000 C   0  0  2  0  0  0  0  0  0  0  0  0
    7.5592  -10.7100    0.0000 C   0  0  1  0  0  0  0  0  0  0  0  0
    7.8141   -9.9254    0.0000 C   0  0  1  0  0  0  0  0  0  0  0  0
    5.3932  -10.4400    0.0000 C   0  0  0  0  0  0  0  0  0  0  0  0
    8.1112  -11.3231    0.0000 O   0  0  0  0  0  0  0  0  0  0  0  0
    8.6211   -9.7538    0.0000 O   0  0  0  0  0  0  0  0  0  0  0  0
    6.4973  -11.6661    0.0000 O   0  0  0  0  0  0  0  0  0  0  0  0
    5.1383  -11.2246    0.0000 O   0  0  0  0  0  0  0  0  0  0  0  0
  1  2  2  0  0  0  0
  2  3  1  0  0  0  0
  3  4  2  0  0  0  0
  4  5  1  0  0  0  0
  5  6  2  0  0  0  0
  6  1  1  0  0  0  0
  2  7  1  0  0  0  0
  1  8  1  0  0  0  0
  8  9  1  0  0  0  0
 10  5  1  1  0  0  0
 10 11  1  0  0  0  0
 11 12  1  0  0  0  0
 12 13  2  0  0  0  0
 13 14  1  0  0  0  0
 14 10  1  0  0  0  0
 12 15  1  0  0  0  0
 15 16  2  0  0  0  0
 16 17  1  0  0  0  0
 17 18  2  0  0  0  0
 18 13  1  0  0  0  0
 18 19  1  0  0  0  0
 19 20  1  0  0  0  0
 16 21  1  0  0  0  0
 21 22  1  0  0  0  0
 22 23  1  0  0  0  0
 23 24  1  0  0  0  0
 11 25  1  6  0  0  0
 25 26  1  0  0  0  0
 27 26  1  1  0  0  0
 27 28  1  0  0  0  0
 28 29  1  0  0  0  0
 29 30  1  0  0  0  0
 30 31  1  0  0  0  0
 31 32  1  0  0  0  0
 32 27  1  0  0  0  0
 29 33  1  1  0  0  0
 31 34  1  1  0  0  0
 32 35  1  6  0  0  0
 30 36  1  6  0  0  0
 33 37  1  0  0  0  0
M  END
>  <cdx:fragmentId>
5

$$$$
