93818.cdx
  Mrv1902 05222410212D          

 31 33  0  0  0  0            999 V2000
    7.1922   -7.3341    0.0000 C   0  0  0  0  0  0  0  0  0  0  0  0
    6.4777   -7.7466    0.0000 C   0  0  0  0  0  0  0  0  0  0  0  0
    5.7633   -7.3341    0.0000 C   0  0  0  0  0  0  0  0  0  0  0  0
    5.7633   -6.5091    0.0000 C   0  0  0  0  0  0  0  0  0  0  0  0
    7.1922   -6.5091    0.0000 O   0  0  0  0  0  0  0  0  0  0  0  0
    7.9067   -7.7466    0.0000 O   0  0  0  0  0  0  0  0  0  0  0  0
    5.0488   -7.7466    0.0000 C   0  0  0  0  0  0  0  0  0  0  0  0
    7.1922   -9.8091    0.0000 C   0  0  0  0  0  0  0  0  0  0  0  0
    7.1922   -8.9841    0.0000 C   0  0  2  0  0  0  0  0  0  0  0  0
    7.9067   -8.5716    0.0000 C   0  0  2  0  0  0  0  0  0  0  0  0
    8.6212   -8.9841    0.0000 C   0  0  0  0  0  0  0  0  0  0  0  0
    9.3356   -8.5716    0.0000 C   0  0  0  0  0  0  0  0  0  0  0  0
   10.0501   -8.9841    0.0000 C   0  0  0  0  0  0  0  0  0  0  0  0
   10.0501   -9.8091    0.0000 C   0  0  0  0  0  0  0  0  0  0  0  0
    9.3356  -10.2216    0.0000 C   0  0  0  0  0  0  0  0  0  0  0  0
    8.6212   -9.8091    0.0000 C   0  0  0  0  0  0  0  0  0  0  0  0
    7.9067  -10.2216    0.0000 O   0  0  0  0  0  0  0  0  0  0  0  0
   10.7646   -8.5716    0.0000 C   0  0  0  0  0  0  0  0  0  0  0  0
   10.7646   -7.7466    0.0000 C   0  0  0  0  0  0  0  0  0  0  0  0
   10.0501   -7.3341    0.0000 C   0  0  0  0  0  0  0  0  0  0  0  0
    9.3356   -7.7466    0.0000 O   0  0  0  0  0  0  0  0  0  0  0  0
   10.0501   -6.5091    0.0000 O   0  0  0  0  0  0  0  0  0  0  0  0
    6.4777   -8.5716    0.0000 O   0  0  0  0  0  0  0  0  0  0  0  0
    5.7633   -8.9841    0.0000 C   0  0  0  0  0  0  0  0  0  0  0  0
    5.0488   -8.5716    0.0000 C   0  0  0  0  0  0  0  0  0  0  0  0
    4.3343   -8.9841    0.0000 C   0  0  0  0  0  0  0  0  0  0  0  0
    3.6199   -8.5716    0.0000 C   0  0  0  0  0  0  0  0  0  0  0  0
    5.7633   -9.8091    0.0000 O   0  0  0  0  0  0  0  0  0  0  0  0
    4.3343   -9.8091    0.0000 C   0  0  0  0  0  0  0  0  0  0  0  0
    6.7797  -10.5235    0.0000 C   0  0  0  0  0  0  0  0  0  0  0  0
    6.3672   -9.8091    0.0000 C   0  0  0  0  0  0  0  0  0  0  0  0
  1  2  1  0  0  0  0
  2  3  1  0  0  0  0
  3  4  1  0  0  0  0
  1  5  2  0  0  0  0
  1  6  1  0  0  0  0
  3  7  1  0  0  0  0
  8  9  1  0  0  0  0
  9 10  1  0  0  0  0
 10 11  1  0  0  0  0
 11 12  1  0  0  0  0
 12 13  2  0  0  0  0
 13 14  1  0  0  0  0
 14 15  2  0  0  0  0
 15 16  1  0  0  0  0
 11 16  2  0  0  0  0
 16 17  1  0  0  0  0
  8 17  1  0  0  0  0
 18 19  2  0  0  0  0
 19 20  1  0  0  0  0
 20 21  1  0  0  0  0
 21 12  1  0  0  0  0
 18 13  1  0  0  0  0
 20 22  2  0  0  0  0
 24 25  1  0  0  0  0
 25 26  2  0  0  0  0
 26 27  1  0  0  0  0
 24 28  2  0  0  0  0
 23 24  1  0  0  0  0
 26 29  1  0  0  0  0
  9 23  1  1  0  0  0
  8 30  1  0  0  0  0
  8 31  1  0  0  0  0
 10  6  1  1  0  0  0
M  END
>  <cdx:groupId>
97

>  <cdx:fragmentId>
19

$$$$
