93812.cdx
  Mrv1902 05222410232D          

 19 19  0  0  0  0            999 V2000
    3.7656   -6.3388    0.0000 C   0  0  0  0  0  0  0  0  0  0  0  0
    3.7656   -7.1638    0.0000 C   0  0  0  0  0  0  0  0  0  0  0  0
    4.4800   -7.5762    0.0000 C   0  0  0  0  0  0  0  0  0  0  0  0
    5.1945   -7.1638    0.0000 C   0  0  0  0  0  0  0  0  0  0  0  0
    5.1945   -6.3388    0.0000 C   0  0  0  0  0  0  0  0  0  0  0  0
    4.4800   -5.9262    0.0000 C   0  0  0  0  0  0  0  0  0  0  0  0
    4.4800   -5.1013    0.0000 O   0  0  0  0  0  0  0  0  0  0  0  0
    3.7656   -4.6888    0.0000 C   0  0  0  0  0  0  0  0  0  0  0  0
    3.0511   -7.5762    0.0000 O   0  0  0  0  0  0  0  0  0  0  0  0
    3.0511   -8.4013    0.0000 C   0  0  0  0  0  0  0  0  0  0  0  0
    4.4800   -8.4013    0.0000 O   0  0  0  0  0  0  0  0  0  0  0  0
    5.1945   -8.8138    0.0000 C   0  0  0  0  0  0  0  0  0  0  0  0
    5.9090   -5.9262    0.0000 C   0  0  1  0  0  0  0  0  0  0  0  0
    6.6234   -6.3387    0.0000 C   0  0  1  0  0  0  0  0  0  0  0  0
    5.9090   -5.1012    0.0000 O   0  0  0  0  0  0  0  0  0  0  0  0
    6.6234   -4.6887    0.0000 C   0  0  0  0  0  0  0  0  0  0  0  0
    7.3379   -5.9262    0.0000 C   0  0  0  0  0  0  0  0  0  0  0  0
    6.6234   -7.1637    0.0000 O   0  0  0  0  0  0  0  0  0  0  0  0
    7.3379   -5.1012    0.0000 C   0  0  0  0  0  0  0  0  0  0  0  0
  1  2  2  0  0  0  0
  2  3  1  0  0  0  0
  3  4  2  0  0  0  0
  4  5  1  0  0  0  0
  5  6  2  0  0  0  0
  6  1  1  0  0  0  0
  6  7  1  0  0  0  0
  7  8  1  0  0  0  0
  2  9  1  0  0  0  0
  9 10  1  0  0  0  0
  3 11  1  0  0  0  0
 11 12  1  0  0  0  0
  5 13  1  0  0  0  0
 13 14  1  0  0  0  0
 13 15  1  6  0  0  0
 15 16  1  0  0  0  0
 14 17  1  0  0  0  0
 14 18  1  1  0  0  0
 16 19  1  0  0  0  0
M  END
>  <cdx:fragmentId>
5

$$$$
