93826.cdx
  Mrv1902 05222410212D          

 24 26  0  0  0  0            999 V2000
    8.4820   -6.2758    0.0000 O   0  0  0  0  0  0  0  0  0  0  0  0
    7.7689   -6.6908    0.0000 C   0  0  0  0  0  0  0  0  0  0  0  0
    3.4576   -4.2118    0.0000 O   0  0  0  0  0  0  0  0  0  0  0  0
    7.0284   -6.2770    0.0000 O   0  0  0  0  0  0  0  0  0  0  0  0
    6.7249   -8.2288    0.0000 C   0  0  0  0  0  0  0  0  0  0  0  0
    7.1380   -7.5146    0.0000 C   0  0  0  0  0  0  0  0  0  0  0  0
    4.1712   -5.4498    0.0000 O   0  0  0  0  0  0  0  0  0  0  0  0
    3.4570   -5.0368    0.0000 C   0  0  0  0  0  0  0  0  0  0  0  0
    2.7422   -5.4487    0.0000 C   0  0  0  0  0  0  0  0  0  0  0  0
    2.7416   -6.2737    0.0000 C   0  0  0  0  0  0  0  0  0  0  0  0
    4.1705   -6.2748    0.0000 C   0  0  0  0  0  0  0  0  0  0  0  0
    3.4557   -6.6868    0.0000 C   0  0  0  0  0  0  0  0  0  0  0  0
    3.4551   -7.5118    0.0000 C   0  0  0  0  0  0  0  0  0  0  0  0
    4.1692   -7.9248    0.0000 C   0  0  0  0  0  0  0  0  0  0  0  0
    5.5995   -6.2759    0.0000 C   0  0  0  0  0  0  0  0  0  0  0  0
    4.8847   -6.6879    0.0000 C   0  0  0  0  0  0  0  0  0  0  0  0
    4.8840   -7.5129    0.0000 C   0  0  0  0  0  0  0  0  0  0  0  0
    5.5982   -7.9259    0.0000 O   0  0  0  0  0  0  0  0  0  0  0  0
    6.3130   -7.5140    0.0000 C   0  0  0  0  0  0  0  0  0  0  0  0
    6.3136   -6.6890    0.0000 C   0  0  2  0  0  0  0  0  0  0  0  0
    7.7762   -7.5157    0.0000 C   0  0  0  0  0  0  0  0  0  0  0  0
    8.4906   -7.9282    0.0000 C   0  0  0  0  0  0  0  0  0  0  0  0
    8.4906   -8.7532    0.0000 C   0  0  0  0  0  0  0  0  0  0  0  0
    9.2051   -7.5157    0.0000 C   0  0  0  0  0  0  0  0  0  0  0  0
  2  4  1  0  0  0  0
  2  1  2  0  0  0  0
  8  3  2  0  0  0  0
 20  4  1  1  0  0  0
 19  5  1  0  0  0  0
 19  6  1  0  0  0  0
  7 11  1  0  0  0  0
  8  7  1  0  0  0  0
  9  8  1  0  0  0  0
 10  9  2  0  0  0  0
 12 10  1  0  0  0  0
 11 16  1  0  0  0  0
 12 11  2  0  0  0  0
 13 12  1  0  0  0  0
 14 13  2  0  0  0  0
 17 14  1  0  0  0  0
 15 20  1  0  0  0  0
 16 15  1  0  0  0  0
 17 16  2  0  0  0  0
 18 17  1  0  0  0  0
 19 18  1  0  0  0  0
 20 19  1  0  0  0  0
  2 21  1  0  0  0  0
 21 22  1  0  0  0  0
 22 23  1  0  0  0  0
 22 24  1  0  0  0  0
M  END
>  <cdx:fragmentId>
5

$$$$
