7306.cdx
  Mrv1902 05222410212D          

 24 26  0  0  0  0            999 V2000
    9.1831   -6.2171    0.0000 C   0  0  0  0  0  0  0  0  0  0  0  0
    8.4667   -4.9807    0.0000 C   0  0  0  0  0  0  0  0  0  0  0  0
    8.4680   -5.8057    0.0000 C   0  0  0  0  0  0  0  0  0  0  0  0
    7.7541   -6.2194    0.0000 C   0  0  0  0  0  0  0  0  0  0  0  0
    7.0377   -4.9830    0.0000 O   0  0  0  0  0  0  0  0  0  0  0  0
    7.0390   -5.8080    0.0000 C   0  0  0  0  0  0  0  0  0  0  0  0
    5.6114   -6.6352    0.0000 C   0  0  0  0  0  0  0  0  0  0  0  0
    4.8975   -7.0488    0.0000 C   0  0  0  0  0  0  0  0  0  0  0  0
    6.3252   -6.2216    0.0000 O   0  0  0  0  0  0  0  0  0  0  0  0
    9.9008   -8.2785    0.0000 O   0  0  0  0  0  0  0  0  0  0  0  0
    7.0416   -7.4580    0.0000 C   0  0  0  0  0  0  0  0  0  0  0  0
    6.3265   -7.0466    0.0000 C   0  0  0  0  0  0  0  0  0  0  0  0
    5.6127   -7.4602    0.0000 C   0  0  0  0  0  0  0  0  0  0  0  0
    5.6139   -8.2852    0.0000 O   0  0  0  0  0  0  0  0  0  0  0  0
    7.0429   -8.2830    0.0000 C   0  0  0  0  0  0  0  0  0  0  0  0
    6.3291   -8.6966    0.0000 C   0  0  0  0  0  0  0  0  0  0  0  0
    6.3303   -9.5216    0.0000 C   0  0  0  0  0  0  0  0  0  0  0  0
    7.0455   -9.9330    0.0000 C   0  0  0  0  0  0  0  0  0  0  0  0
    8.4744   -9.9307    0.0000 C   0  0  0  0  0  0  0  0  0  0  0  0
    9.1882   -9.5171    0.0000 C   0  0  0  0  0  0  0  0  0  0  0  0
    9.1869   -8.6921    0.0000 C   0  0  0  0  0  0  0  0  0  0  0  0
    8.4718   -8.2807    0.0000 O   0  0  0  0  0  0  0  0  0  0  0  0
    7.7580   -8.6943    0.0000 C   0  0  0  0  0  0  0  0  0  0  0  0
    7.7593   -9.5193    0.0000 C   0  0  0  0  0  0  0  0  0  0  0  0
  3  1  1  0  0  0  0
  3  2  1  0  0  0  0
  4  3  2  0  0  0  0
  6  4  1  0  0  0  0
  6  5  2  0  0  0  0
  9  6  1  0  0  0  0
 13  7  1  0  0  0  0
 13  8  1  0  0  0  0
 12  9  1  0  0  0  0
 21 10  2  0  0  0  0
 11 15  1  0  0  0  0
 12 11  1  0  0  0  0
 13 12  1  0  0  0  0
 14 13  1  0  0  0  0
 16 14  1  0  0  0  0
 15 23  1  0  0  0  0
 16 15  2  0  0  0  0
 17 16  1  0  0  0  0
 18 17  2  0  0  0  0
 24 18  1  0  0  0  0
 19 24  1  0  0  0  0
 20 19  2  0  0  0  0
 21 20  1  0  0  0  0
 22 21  1  0  0  0  0
 23 22  1  0  0  0  0
 24 23  2  0  0  0  0
M  END
>  <cdx:fragmentId>
326

$$$$
