93835.cdx
  Mrv1902 05222410222D          

 30 32  0  0  0  0            999 V2000
    5.1155   -7.7311    0.0000 C   0  0  0  0  0  0  0  0  0  0  0  0
    5.1155   -8.5561    0.0000 O   0  0  0  0  0  0  0  0  0  0  0  0
    5.8300   -8.9686    0.0000 C   0  0  0  0  0  0  0  0  0  0  0  0
    6.5444   -8.5561    0.0000 C   0  0  0  0  0  0  0  0  0  0  0  0
    6.5444   -7.7311    0.0000 C   0  0  1  0  0  0  0  0  0  0  0  0
    5.8300   -7.3186    0.0000 C   0  0  2  0  0  0  0  0  0  0  0  0
    5.8300   -9.7936    0.0000 C   0  0  0  0  0  0  0  0  0  0  0  0
    6.5444  -10.2061    0.0000 C   0  0  0  0  0  0  0  0  0  0  0  0
    7.2589   -9.7936    0.0000 C   0  0  0  0  0  0  0  0  0  0  0  0
    7.2589   -8.9686    0.0000 C   0  0  0  0  0  0  0  0  0  0  0  0
    7.9734  -10.2061    0.0000 C   0  0  0  0  0  0  0  0  0  0  0  0
    8.6878   -9.7936    0.0000 C   0  0  0  0  0  0  0  0  0  0  0  0
    8.6878   -8.9686    0.0000 C   0  0  0  0  0  0  0  0  0  0  0  0
    7.9734   -8.5561    0.0000 O   0  0  0  0  0  0  0  0  0  0  0  0
    9.4023   -8.5561    0.0000 O   0  0  0  0  0  0  0  0  0  0  0  0
    4.2905   -7.7311    0.0000 C   0  0  0  0  0  0  0  0  0  0  0  0
    4.7030   -7.0166    0.0000 C   0  0  0  0  0  0  0  0  0  0  0  0
    5.8300   -6.4936    0.0000 O   0  0  0  0  0  0  0  0  0  0  0  0
    7.2589   -7.3186    0.0000 O   0  0  0  0  0  0  0  0  0  0  0  0
    5.1492   -6.0838    0.0000 C   0  0  0  0  0  0  0  0  0  0  0  0
    5.1512   -5.2589    0.0000 C   0  0  0  0  0  0  0  0  0  0  0  0
    4.4337   -6.4946    0.0000 O   0  0  0  0  0  0  0  0  0  0  0  0
    5.8666   -4.8481    0.0000 C   0  0  0  0  0  0  0  0  0  0  0  0
    7.2546   -6.4863    0.0000 C   0  0  0  0  0  0  0  0  0  0  0  0
    7.9684   -6.0725    0.0000 C   0  0  2  0  0  0  0  0  0  0  0  0
    6.5394   -6.0750    0.0000 O   0  0  0  0  0  0  0  0  0  0  0  0
    7.9669   -5.2475    0.0000 C   0  0  0  0  0  0  0  0  0  0  0  0
    8.6836   -6.4838    0.0000 C   0  0  0  0  0  0  0  0  0  0  0  0
    4.4377   -4.8446    0.0000 C   0  0  0  0  0  0  0  0  0  0  0  0
    8.6807   -4.8338    0.0000 C   0  0  0  0  0  0  0  0  0  0  0  0
  1  2  1  0  0  0  0
  2  3  1  0  0  0  0
  3  4  2  0  0  0  0
  4  5  1  0  0  0  0
  5  6  1  0  0  0  0
  6  1  1  0  0  0  0
  3  7  1  0  0  0  0
  7  8  2  0  0  0  0
  8  9  1  0  0  0  0
  9 10  2  0  0  0  0
 10  4  1  0  0  0  0
  9 11  1  0  0  0  0
 11 12  2  0  0  0  0
 12 13  1  0  0  0  0
 13 14  1  0  0  0  0
 14 10  1  0  0  0  0
 13 15  2  0  0  0  0
  1 16  1  0  0  0  0
  1 17  1  0  0  0  0
  6 18  1  1  0  0  0
  5 19  1  1  0  0  0
 20 21  1  0  0  0  0
 20 22  2  0  0  0  0
 21 23  1  0  0  0  0
 20 18  1  0  0  0  0
 24 25  1  0  0  0  0
 24 26  2  0  0  0  0
 25 27  1  0  0  0  0
 25 28  1  6  0  0  0
 24 19  1  0  0  0  0
 21 29  1  0  0  0  0
 27 30  1  0  0  0  0
M  END
>  <cdx:fragmentId>
5

$$$$
