93832.cdx
  Mrv1902 05222410212D          

 29 31  0  0  0  0            999 V2000
    4.7556   -6.8062    0.0000 C   0  0  0  0  0  0  0  0  0  0  0  0
    4.7556   -7.6313    0.0000 O   0  0  0  0  0  0  0  0  0  0  0  0
    5.4700   -8.0437    0.0000 C   0  0  0  0  0  0  0  0  0  0  0  0
    6.1845   -7.6313    0.0000 C   0  0  0  0  0  0  0  0  0  0  0  0
    6.1845   -6.8062    0.0000 C   0  0  1  0  0  0  0  0  0  0  0  0
    5.4700   -6.3937    0.0000 C   0  0  1  0  0  0  0  0  0  0  0  0
    5.4700   -8.8688    0.0000 C   0  0  0  0  0  0  0  0  0  0  0  0
    6.1845   -9.2813    0.0000 C   0  0  0  0  0  0  0  0  0  0  0  0
    6.8990   -8.8688    0.0000 C   0  0  0  0  0  0  0  0  0  0  0  0
    6.8990   -8.0437    0.0000 C   0  0  0  0  0  0  0  0  0  0  0  0
    7.6134   -9.2813    0.0000 C   0  0  0  0  0  0  0  0  0  0  0  0
    8.3279   -8.8688    0.0000 C   0  0  0  0  0  0  0  0  0  0  0  0
    8.3279   -8.0437    0.0000 C   0  0  0  0  0  0  0  0  0  0  0  0
    7.6134   -7.6313    0.0000 O   0  0  0  0  0  0  0  0  0  0  0  0
    9.0424   -7.6313    0.0000 O   0  0  0  0  0  0  0  0  0  0  0  0
    3.9306   -6.8062    0.0000 C   0  0  0  0  0  0  0  0  0  0  0  0
    4.3431   -6.0918    0.0000 C   0  0  0  0  0  0  0  0  0  0  0  0
    5.4700   -5.5687    0.0000 O   0  0  0  0  0  0  0  0  0  0  0  0
    6.8990   -6.3937    0.0000 O   0  0  0  0  0  0  0  0  0  0  0  0
    6.9111   -5.5838    0.0000 C   0  0  0  0  0  0  0  0  0  0  0  0
    7.6236   -5.1679    0.0000 C   0  0  0  0  0  0  0  0  0  0  0  0
    6.1947   -5.1746    0.0000 O   0  0  0  0  0  0  0  0  0  0  0  0
    8.3400   -5.5771    0.0000 C   0  0  0  0  0  0  0  0  0  0  0  0
    9.0525   -5.1612    0.0000 C   0  0  0  0  0  0  0  0  0  0  0  0
    4.7556   -5.1563    0.0000 C   0  0  0  0  0  0  0  0  0  0  0  0
    4.7556   -4.3313    0.0000 C   0  0  0  0  0  0  0  0  0  0  0  0
    4.0411   -5.5687    0.0000 O   0  0  0  0  0  0  0  0  0  0  0  0
    8.3439   -6.4021    0.0000 C   0  0  0  0  0  0  0  0  0  0  0  0
    9.0545   -5.9896    0.0000 O   0  0  0  0  0  0  0  0  0  0  0  0
  1  2  1  0  0  0  0
  2  3  1  0  0  0  0
  3  4  2  0  0  0  0
  4  5  1  0  0  0  0
  5  6  1  0  0  0  0
  6  1  1  0  0  0  0
  3  7  1  0  0  0  0
  7  8  2  0  0  0  0
  8  9  1  0  0  0  0
  9 10  2  0  0  0  0
 10  4  1  0  0  0  0
  9 11  1  0  0  0  0
 11 12  2  0  0  0  0
 12 13  1  0  0  0  0
 13 14  1  0  0  0  0
 14 10  1  0  0  0  0
 13 15  2  0  0  0  0
  1 16  1  0  0  0  0
  1 17  1  0  0  0  0
  6 18  1  6  0  0  0
  5 19  1  1  0  0  0
 20 21  1  0  0  0  0
 20 22  2  0  0  0  0
 21 23  1  0  0  0  0
 23 24  1  0  0  0  0
 20 19  1  0  0  0  0
 18 25  1  0  0  0  0
 25 26  1  0  0  0  0
 25 27  2  0  0  0  0
 23 28  1  0  0  0  0
 23 29  1  0  0  0  0
M  END
>  <cdx:fragmentId>
5

$$$$
