93848.cdx
  Mrv1902 05222410282D          

 37 40  0  0  0  0            999 V2000
    2.5275   -5.8580    0.0000 C   0  0  0  0  0  0  0  0  0  0  0  0
    2.1150   -6.5725    0.0000 C   0  0  0  0  0  0  0  0  0  0  0  0
    2.5275   -7.2870    0.0000 C   0  0  0  0  0  0  0  0  0  0  0  0
    3.3525   -7.2870    0.0000 C   0  0  0  0  0  0  0  0  0  0  0  0
    3.7650   -6.5725    0.0000 C   0  0  0  0  0  0  0  0  0  0  0  0
    3.3525   -5.8580    0.0000 C   0  0  0  0  0  0  0  0  0  0  0  0
    1.2900   -6.5725    0.0000 O   0  0  0  0  0  0  0  0  0  0  0  0
    2.1150   -5.1436    0.0000 O   0  0  0  0  0  0  0  0  0  0  0  0
    1.2900   -5.1436    0.0000 C   0  0  0  0  0  0  0  0  0  0  0  0
    4.5900   -6.5725    0.0000 C   0  0  2  0  0  0  0  0  0  0  0  0
    5.0749   -7.2399    0.0000 C   0  0  2  0  0  0  0  0  0  0  0  0
    5.8596   -6.9850    0.0000 C   0  0  0  0  0  0  0  0  0  0  0  0
    5.8596   -6.1600    0.0000 C   0  0  0  0  0  0  0  0  0  0  0  0
    5.0749   -5.9051    0.0000 O   0  0  0  0  0  0  0  0  0  0  0  0
    6.5740   -7.3975    0.0000 C   0  0  0  0  0  0  0  0  0  0  0  0
    7.2885   -6.9850    0.0000 C   0  0  0  0  0  0  0  0  0  0  0  0
    7.2885   -6.1600    0.0000 C   0  0  0  0  0  0  0  0  0  0  0  0
    6.5740   -5.7475    0.0000 C   0  0  0  0  0  0  0  0  0  0  0  0
    6.5740   -4.9225    0.0000 O   0  0  0  0  0  0  0  0  0  0  0  0
    7.2885   -4.5100    0.0000 C   0  0  0  0  0  0  0  0  0  0  0  0
    8.0030   -7.3975    0.0000 C   0  0  0  0  0  0  0  0  0  0  0  0
    8.7175   -6.9850    0.0000 C   0  0  0  0  0  0  0  0  0  0  0  0
    9.4319   -7.3975    0.0000 C   0  0  0  0  0  0  0  0  0  0  0  0
   10.1464   -6.9850    0.0000 O   0  0  0  0  0  0  0  0  0  0  0  0
    4.8200   -8.0246    0.0000 C   0  0  0  0  0  0  0  0  0  0  0  0
    5.3720   -8.6377    0.0000 O   0  0  0  0  0  0  0  0  0  0  0  0
   10.8609   -7.3975    0.0000 C   0  0  2  0  0  0  0  0  0  0  0  0
   10.8609   -8.2225    0.0000 O   0  0  0  0  0  0  0  0  0  0  0  0
   11.5753   -8.6350    0.0000 C   0  0  1  0  0  0  0  0  0  0  0  0
   12.2898   -8.2225    0.0000 C   0  0  2  0  0  0  0  0  0  0  0  0
   12.2898   -7.3975    0.0000 C   0  0  1  0  0  0  0  0  0  0  0  0
   11.5753   -6.9850    0.0000 C   0  0  1  0  0  0  0  0  0  0  0  0
   11.5753   -9.4600    0.0000 C   0  0  0  0  0  0  0  0  0  0  0  0
   13.0043   -6.9850    0.0000 O   0  0  0  0  0  0  0  0  0  0  0  0
   11.5753   -6.1600    0.0000 O   0  0  0  0  0  0  0  0  0  0  0  0
   13.0043   -8.6350    0.0000 O   0  0  0  0  0  0  0  0  0  0  0  0
   12.2898   -9.8725    0.0000 O   0  0  0  0  0  0  0  0  0  0  0  0
  1  2  2  0  0  0  0
  2  3  1  0  0  0  0
  3  4  2  0  0  0  0
  4  5  1  0  0  0  0
  5  6  2  0  0  0  0
  6  1  1  0  0  0  0
  2  7  1  0  0  0  0
  1  8  1  0  0  0  0
  8  9  1  0  0  0  0
 10  5  1  1  0  0  0
 10 11  1  0  0  0  0
 11 12  1  0  0  0  0
 12 13  2  0  0  0  0
 13 14  1  0  0  0  0
 14 10  1  0  0  0  0
 12 15  1  0  0  0  0
 15 16  2  0  0  0  0
 16 17  1  0  0  0  0
 17 18  2  0  0  0  0
 18 13  1  0  0  0  0
 18 19  1  0  0  0  0
 19 20  1  0  0  0  0
 16 21  1  0  0  0  0
 21 22  1  0  0  0  0
 22 23  1  0  0  0  0
 23 24  1  0  0  0  0
 11 25  1  6  0  0  0
 25 26  1  0  0  0  0
 27 24  1  1  0  0  0
 27 28  1  0  0  0  0
 28 29  1  0  0  0  0
 29 30  1  0  0  0  0
 30 31  1  0  0  0  0
 31 32  1  0  0  0  0
 32 27  1  0  0  0  0
 29 33  1  1  0  0  0
 31 34  1  1  0  0  0
 32 35  1  6  0  0  0
 30 36  1  6  0  0  0
 33 37  1  0  0  0  0
M  END
>  <cdx:fragmentId>
5

$$$$
