93845.cdx
  Mrv1902 05222410182D          

 31 33  0  0  0  0            999 V2000
    6.8898   -8.2307    0.0000 C   0  0  0  0  0  0  0  0  0  0  0  0
    7.6009   -8.6491    0.0000 O   0  0  0  0  0  0  0  0  0  0  0  0
    8.3187   -8.2425    0.0000 C   0  0  0  0  0  0  0  0  0  0  0  0
    8.3255   -7.4175    0.0000 C   0  0  0  0  0  0  0  0  0  0  0  0
    7.6145   -6.9991    0.0000 C   0  0  0  0  0  0  0  0  0  0  0  0
    6.8966   -7.4057    0.0000 C   0  0  0  0  0  0  0  0  0  0  0  0
    9.0298   -8.6609    0.0000 C   0  0  0  0  0  0  0  0  0  0  0  0
    9.7476   -8.2543    0.0000 C   0  0  0  0  0  0  0  0  0  0  0  0
    9.7544   -7.4293    0.0000 C   0  0  0  0  0  0  0  0  0  0  0  0
    9.0434   -7.0109    0.0000 C   0  0  0  0  0  0  0  0  0  0  0  0
   10.4723   -7.0227    0.0000 C   0  0  0  0  0  0  0  0  0  0  0  0
   10.4791   -6.1977    0.0000 C   0  0  0  0  0  0  0  0  0  0  0  0
    9.7680   -5.7793    0.0000 C   0  0  0  0  0  0  0  0  0  0  0  0
    9.0502   -6.1859    0.0000 O   0  0  0  0  0  0  0  0  0  0  0  0
    6.1856   -6.9874    0.0000 O   0  0  0  0  0  0  0  0  0  0  0  0
    7.6213   -6.1742    0.0000 O   0  0  0  0  0  0  0  0  0  0  0  0
    6.4715   -8.9418    0.0000 C   0  0  0  0  0  0  0  0  0  0  0  0
    6.0649   -8.2239    0.0000 C   0  0  0  0  0  0  0  0  0  0  0  0
    9.7748   -4.9544    0.0000 O   0  0  0  0  0  0  0  0  0  0  0  0
    5.4746   -7.3520    0.0000 C   0  0  0  0  0  0  0  0  0  0  0  0
    4.7723   -6.9191    0.0000 C   0  0  0  0  0  0  0  0  0  0  0  0
    5.4509   -8.1767    0.0000 O   0  0  0  0  0  0  0  0  0  0  0  0
    4.7961   -6.0945    0.0000 C   0  0  0  0  0  0  0  0  0  0  0  0
    4.0938   -5.6616    0.0000 C   0  0  0  0  0  0  0  0  0  0  0  0
    5.5222   -5.7027    0.0000 C   0  0  0  0  0  0  0  0  0  0  0  0
    6.9266   -5.7586    0.0000 C   0  0  0  0  0  0  0  0  0  0  0  0
    6.9390   -4.9337    0.0000 C   0  0  0  0  0  0  0  0  0  0  0  0
    6.2061   -6.1603    0.0000 O   0  0  0  0  0  0  0  0  0  0  0  0
    7.6595   -4.5319    0.0000 C   0  0  0  0  0  0  0  0  0  0  0  0
    8.3678   -4.9551    0.0000 C   0  0  0  0  0  0  0  0  0  0  0  0
    7.6719   -3.7070    0.0000 C   0  0  0  0  0  0  0  0  0  0  0  0
  1  2  1  0  0  0  0
  2  3  1  0  0  0  0
  3  4  2  0  0  0  0
  4  5  1  0  0  0  0
  5  6  1  0  0  0  0
  6  1  1  0  0  0  0
  3  7  1  0  0  0  0
  7  8  2  0  0  0  0
  8  9  1  0  0  0  0
  9 10  2  0  0  0  0
 10  4  1  0  0  0  0
  9 11  1  0  0  0  0
 11 12  2  0  0  0  0
 12 13  1  0  0  0  0
 13 14  1  0  0  0  0
 14 10  1  0  0  0  0
  6 15  1  0  0  0  0
  5 16  1  0  0  0  0
  1 17  1  0  0  0  0
  1 18  1  0  0  0  0
 13 19  2  0  0  0  0
 20 21  1  0  0  0  0
 20 22  2  0  0  0  0
 21 23  2  0  0  0  0
 23 24  1  0  0  0  0
 23 25  1  0  0  0  0
 20 15  1  0  0  0  0
 26 27  1  0  0  0  0
 26 28  2  0  0  0  0
 27 29  2  0  0  0  0
 29 30  1  0  0  0  0
 26 16  1  0  0  0  0
 29 31  1  0  0  0  0
M  END
>  <cdx:fragmentId>
5

$$$$
