93851.cdx
  Mrv1902 05222410182D          

 49 53  0  0  0  0            999 V2000
    6.6260   -7.6669    0.0000 C   0  0  0  0  0  0  0  0  0  0  0  0
    6.9696   -6.9169    0.0000 C   0  0  0  0  0  0  0  0  0  0  0  0
    6.5973   -6.1806    0.0000 C   0  0  2  0  0  0  0  0  0  0  0  0
    5.7896   -6.0126    0.0000 C   0  0  1  0  0  0  0  0  0  0  0  0
    5.1547   -6.5393    0.0000 C   0  0  1  0  0  0  0  0  0  0  0  0
    5.1706   -7.3641    0.0000 C   0  0  2  0  0  0  0  0  0  0  0  0
    5.8254   -7.8660    0.0000 C   0  0  0  0  0  0  0  0  0  0  0  0
    4.3653   -6.2995    0.0000 C   0  0  0  0  0  0  0  0  0  0  0  0
    3.8933   -6.9762    0.0000 C   0  0  0  0  0  0  0  0  0  0  0  0
    4.3910   -7.6341    0.0000 C   0  0  0  0  0  0  0  0  0  0  0  0
    7.1467   -5.5652    0.0000 C   0  0  1  0  0  0  0  0  0  0  0  0
    6.8884   -4.7816    0.0000 C   0  0  0  0  0  0  0  0  0  0  0  0
    6.0807   -4.6136    0.0000 C   0  0  0  0  0  0  0  0  0  0  0  0
    5.5313   -5.2291    0.0000 C   0  0  1  0  0  0  0  0  0  0  0  0
    3.0685   -6.9921    0.0000 C   0  0  0  0  0  0  0  0  0  0  0  0
    4.1512   -8.4235    0.0000 O   0  0  0  0  0  0  0  0  0  0  0  0
    7.4378   -4.1662    0.0000 O   0  0  0  0  0  0  0  0  0  0  0  0
    7.9544   -5.7332    0.0000 C   0  0  0  0  0  0  0  0  0  0  0  0
    8.5038   -5.1177    0.0000 C   0  0  0  0  0  0  0  0  0  0  0  0
    8.2127   -6.5167    0.0000 C   0  0  0  0  0  0  0  0  0  0  0  0
    5.0940   -8.1856    0.0000 O   0  0  0  0  0  0  0  0  0  0  0  0
    7.4188   -6.2572    0.0000 H   0  0  0  0  0  0  0  0  0  0  0  0
    5.9283   -6.8258    0.0000 O   0  0  0  0  0  0  0  0  0  0  0  0
    4.9455   -5.7412    0.0000 H   0  0  0  0  0  0  0  0  0  0  0  0
    4.7236   -5.0610    0.0000 C   0  0  0  0  0  0  0  0  0  0  0  0
    7.1527   -8.3019    0.0000 C   0  0  0  0  0  0  0  0  0  0  0  0
    7.9660   -8.1633    0.0000 O   0  0  0  0  0  0  0  0  0  0  0  0
    8.4927   -8.7982    0.0000 C   0  0  2  0  0  0  0  0  0  0  0  0
    8.2061   -9.5719    0.0000 O   0  0  0  0  0  0  0  0  0  0  0  0
    8.7328  -10.2069    0.0000 C   0  0  1  0  0  0  0  0  0  0  0  0
    9.5461  -10.0682    0.0000 C   0  0  2  0  0  0  0  0  0  0  0  0
    9.8327   -9.2946    0.0000 C   0  0  1  0  0  0  0  0  0  0  0  0
    9.3059   -8.6596    0.0000 C   0  0  1  0  0  0  0  0  0  0  0  0
    8.4463  -10.9805    0.0000 C   0  0  0  0  0  0  0  0  0  0  0  0
   10.6459   -9.1559    0.0000 O   0  0  0  0  0  0  0  0  0  0  0  0
   10.0728  -10.7032    0.0000 O   0  0  0  0  0  0  0  0  0  0  0  0
    9.5925   -7.8860    0.0000 O   0  0  0  0  0  0  0  0  0  0  0  0
    8.9730  -11.6155    0.0000 O   0  0  0  0  0  0  0  0  0  0  0  0
    8.6864  -12.3891    0.0000 C   0  0  0  0  0  0  0  0  0  0  0  0
    9.2132  -13.0241    0.0000 C   0  0  0  0  0  0  0  0  0  0  0  0
    7.8732  -12.5278    0.0000 O   0  0  0  0  0  0  0  0  0  0  0  0
    8.9266  -13.7977    0.0000 C   0  0  0  0  0  0  0  0  0  0  0  0
    9.4533  -14.4327    0.0000 C   0  0  0  0  0  0  0  0  0  0  0  0
   10.2666  -14.2940    0.0000 C   0  0  0  0  0  0  0  0  0  0  0  0
   10.5531  -13.5204    0.0000 C   0  0  0  0  0  0  0  0  0  0  0  0
   10.0264  -12.8854    0.0000 C   0  0  0  0  0  0  0  0  0  0  0  0
    9.1668  -15.2063    0.0000 O   0  0  0  0  0  0  0  0  0  0  0  0
   10.7933  -14.9290    0.0000 O   0  0  0  0  0  0  0  0  0  0  0  0
   11.3664  -13.3818    0.0000 O   0  0  0  0  0  0  0  0  0  0  0  0
  1  2  2  0  0  0  0
  2  3  1  0  0  0  0
  3  4  1  0  0  0  0
  4  5  1  0  0  0  0
  5  6  1  0  0  0  0
  6  7  1  0  0  0  0
  7  1  1  0  0  0  0
  5  8  1  0  0  0  0
  8  9  2  0  0  0  0
  9 10  1  0  0  0  0
 10  6  1  0  0  0  0
  3 11  1  0  0  0  0
 11 12  1  0  0  0  0
 12 13  1  0  0  0  0
 13 14  1  0  0  0  0
 14  4  1  0  0  0  0
  9 15  1  0  0  0  0
 10 16  2  0  0  0  0
 12 17  2  0  0  0  0
 11 18  1  1  0  0  0
 18 19  1  0  0  0  0
 18 20  1  0  0  0  0
  6 21  1  1  0  0  0
  3 22  1  1  0  0  0
  4 23  1  6  0  0  0
  5 24  1  6  0  0  0
 14 25  1  6  0  0  0
  1 26  1  0  0  0  0
 26 27  1  0  0  0  0
 28 27  1  1  0  0  0
 28 29  1  0  0  0  0
 29 30  1  0  0  0  0
 30 31  1  0  0  0  0
 31 32  1  0  0  0  0
 32 33  1  0  0  0  0
 33 28  1  0  0  0  0
 30 34  1  1  0  0  0
 32 35  1  1  0  0  0
 31 36  1  6  0  0  0
 33 37  1  6  0  0  0
 34 38  1  0  0  0  0
 38 39  1  0  0  0  0
 39 40  1  0  0  0  0
 39 41  2  0  0  0  0
 40 42  2  0  0  0  0
 42 43  1  0  0  0  0
 43 44  2  0  0  0  0
 44 45  1  0  0  0  0
 45 46  2  0  0  0  0
 46 40  1  0  0  0  0
 43 47  1  0  0  0  0
 44 48  1  0  0  0  0
 45 49  1  0  0  0  0
M  END
>  <cdx:fragmentId>
180

$$$$
