93853.cdx
  Mrv1902 05222410182D          

 25 27  0  0  0  0            999 V2000
    4.2468   -8.0713    0.0000 C   0  0  0  0  0  0  0  0  0  0  0  0
    4.2468   -8.8963    0.0000 C   0  0  0  0  0  0  0  0  0  0  0  0
    4.9613   -9.3087    0.0000 C   0  0  1  0  0  0  0  0  0  0  0  0
    5.6757   -8.8963    0.0000 C   0  0  2  0  0  0  0  0  0  0  0  0
    5.6757   -8.0713    0.0000 C   0  0  1  0  0  0  0  0  0  0  0  0
    4.9613   -7.6587    0.0000 C   0  0  0  0  0  0  0  0  0  0  0  0
    6.3902   -9.3087    0.0000 C   0  0  0  0  0  0  0  0  0  0  0  0
    7.1047   -8.8963    0.0000 C   0  0  0  0  0  0  0  0  0  0  0  0
    7.1047   -8.0713    0.0000 C   0  0  0  0  0  0  0  0  0  0  0  0
    6.3902   -7.6587    0.0000 C   0  0  1  0  0  0  0  0  0  0  0  0
    7.8192   -7.6587    0.0000 C   0  0  0  0  0  0  0  0  0  0  0  0
    7.8192   -6.8338    0.0000 C   0  0  2  0  0  0  0  0  0  0  0  0
    7.1047   -6.4213    0.0000 C   0  0  1  0  0  0  0  0  0  0  0  0
    6.3902   -6.8338    0.0000 C   0  0  0  0  0  0  0  0  0  0  0  0
    8.6442   -6.8338    0.0000 C   0  0  2  0  0  0  0  0  0  0  0  0
    9.0567   -6.1193    0.0000 O   0  0  0  0  0  0  0  0  0  0  0  0
    9.0567   -7.5482    0.0000 C   0  0  0  0  0  0  0  0  0  0  0  0
    9.8817   -7.5482    0.0000 O   0  0  0  0  0  0  0  0  0  0  0  0
    4.5488  -10.0232    0.0000 C   0  0  0  0  0  0  0  0  0  0  0  0
    5.6757   -9.7212    0.0000 H   0  0  0  0  0  0  0  0  0  0  0  0
    6.3902   -8.4838    0.0000 H   0  0  0  0  0  0  0  0  0  0  0  0
    7.1047   -5.5962    0.0000 O   0  0  0  0  0  0  0  0  0  0  0  0
    8.0327   -6.0369    0.0000 C   0  0  0  0  0  0  0  0  0  0  0  0
    5.3738  -10.0232    0.0000 C   0  0  0  0  0  0  0  0  0  0  0  0
    5.6757   -7.2462    0.0000 C   0  0  0  0  0  0  0  0  0  0  0  0
  1  2  1  0  0  0  0
  2  3  1  0  0  0  0
  3  4  1  0  0  0  0
  4  5  1  0  0  0  0
  5  6  1  0  0  0  0
  6  1  1  0  0  0  0
  4  7  1  0  0  0  0
  7  8  1  0  0  0  0
  8  9  1  0  0  0  0
  9 10  1  0  0  0  0
 10  5  1  0  0  0  0
  9 11  2  0  0  0  0
 11 12  1  0  0  0  0
 12 13  1  0  0  0  0
 13 14  1  0  0  0  0
 14 10  1  0  0  0  0
 12 15  1  0  0  0  0
 15 16  1  6  0  0  0
 15 17  1  0  0  0  0
 17 18  1  0  0  0  0
  3 19  1  1  0  0  0
  4 20  1  1  0  0  0
 10 21  1  1  0  0  0
 13 22  1  1  0  0  0
 12 23  1  1  0  0  0
  3 24  1  6  0  0  0
  5 25  1  6  0  0  0
M  END
>  <cdx:fragmentId>
5

$$$$
