93852.cdx
  Mrv1902 05222410192D          

 38 41  0  0  0  0            999 V2000
    7.0920   -7.6121    0.0000 C   0  0  0  0  0  0  0  0  0  0  0  0
    7.4356   -6.8620    0.0000 C   0  0  0  0  0  0  0  0  0  0  0  0
    7.0634   -6.1258    0.0000 C   0  0  2  0  0  0  0  0  0  0  0  0
    6.2556   -5.9577    0.0000 C   0  0  1  0  0  0  0  0  0  0  0  0
    5.6207   -6.4844    0.0000 C   0  0  1  0  0  0  0  0  0  0  0  0
    5.6366   -7.3093    0.0000 C   0  0  2  0  0  0  0  0  0  0  0  0
    6.2914   -7.8111    0.0000 C   0  0  0  0  0  0  0  0  0  0  0  0
    4.8313   -6.2447    0.0000 C   0  0  0  0  0  0  0  0  0  0  0  0
    4.3593   -6.9213    0.0000 C   0  0  0  0  0  0  0  0  0  0  0  0
    4.8570   -7.5793    0.0000 C   0  0  0  0  0  0  0  0  0  0  0  0
    7.6127   -5.5103    0.0000 C   0  0  1  0  0  0  0  0  0  0  0  0
    7.3544   -4.7268    0.0000 C   0  0  0  0  0  0  0  0  0  0  0  0
    6.5467   -4.5587    0.0000 C   0  0  0  0  0  0  0  0  0  0  0  0
    5.9973   -5.1742    0.0000 C   0  0  1  0  0  0  0  0  0  0  0  0
    3.5345   -6.9372    0.0000 C   0  0  0  0  0  0  0  0  0  0  0  0
    4.6172   -8.3687    0.0000 O   0  0  0  0  0  0  0  0  0  0  0  0
    7.9038   -4.1113    0.0000 O   0  0  0  0  0  0  0  0  0  0  0  0
    8.4204   -5.6784    0.0000 C   0  0  0  0  0  0  0  0  0  0  0  0
    8.9698   -5.0629    0.0000 C   0  0  0  0  0  0  0  0  0  0  0  0
    8.6788   -6.4619    0.0000 C   0  0  0  0  0  0  0  0  0  0  0  0
    5.5600   -8.1307    0.0000 O   0  0  0  0  0  0  0  0  0  0  0  0
    7.8848   -6.2023    0.0000 H   0  0  0  0  0  0  0  0  0  0  0  0
    6.3943   -6.7710    0.0000 O   0  0  0  0  0  0  0  0  0  0  0  0
    5.4115   -5.6864    0.0000 H   0  0  0  0  0  0  0  0  0  0  0  0
    5.1896   -5.0062    0.0000 C   0  0  0  0  0  0  0  0  0  0  0  0
    7.6187   -8.2471    0.0000 C   0  0  0  0  0  0  0  0  0  0  0  0
    8.4320   -8.1084    0.0000 O   0  0  0  0  0  0  0  0  0  0  0  0
    8.9587   -8.7434    0.0000 C   0  0  2  0  0  0  0  0  0  0  0  0
    8.6721   -9.5170    0.0000 O   0  0  0  0  0  0  0  0  0  0  0  0
    9.1988  -10.1520    0.0000 C   0  0  1  0  0  0  0  0  0  0  0  0
   10.0121  -10.0134    0.0000 C   0  0  2  0  0  0  0  0  0  0  0  0
   10.2987   -9.2397    0.0000 C   0  0  1  0  0  0  0  0  0  0  0  0
    9.7720   -8.6047    0.0000 C   0  0  1  0  0  0  0  0  0  0  0  0
    8.9123  -10.9256    0.0000 C   0  0  0  0  0  0  0  0  0  0  0  0
   11.1119   -9.1011    0.0000 O   0  0  0  0  0  0  0  0  0  0  0  0
   10.5388  -10.6483    0.0000 O   0  0  0  0  0  0  0  0  0  0  0  0
   10.0585   -7.8311    0.0000 O   0  0  0  0  0  0  0  0  0  0  0  0
    9.4390  -11.5606    0.0000 O   0  0  0  0  0  0  0  0  0  0  0  0
  1  2  2  0  0  0  0
  2  3  1  0  0  0  0
  3  4  1  0  0  0  0
  4  5  1  0  0  0  0
  5  6  1  0  0  0  0
  6  7  1  0  0  0  0
  7  1  1  0  0  0  0
  5  8  1  0  0  0  0
  8  9  2  0  0  0  0
  9 10  1  0  0  0  0
 10  6  1  0  0  0  0
  3 11  1  0  0  0  0
 11 12  1  0  0  0  0
 12 13  1  0  0  0  0
 13 14  1  0  0  0  0
 14  4  1  0  0  0  0
  9 15  1  0  0  0  0
 10 16  2  0  0  0  0
 12 17  2  0  0  0  0
 11 18  1  1  0  0  0
 18 19  1  0  0  0  0
 18 20  1  0  0  0  0
  6 21  1  1  0  0  0
  3 22  1  1  0  0  0
  4 23  1  6  0  0  0
  5 24  1  6  0  0  0
 14 25  1  6  0  0  0
  1 26  1  0  0  0  0
 26 27  1  0  0  0  0
 28 27  1  1  0  0  0
 28 29  1  0  0  0  0
 29 30  1  0  0  0  0
 30 31  1  0  0  0  0
 31 32  1  0  0  0  0
 32 33  1  0  0  0  0
 33 28  1  0  0  0  0
 30 34  1  1  0  0  0
 32 35  1  1  0  0  0
 31 36  1  6  0  0  0
 33 37  1  6  0  0  0
 34 38  1  0  0  0  0
M  END
>  <cdx:fragmentId>
5

$$$$
