93850.cdx
  Mrv1902 05222410182D          

 46 51  0  0  0  0            999 V2000
    3.3806   -8.2775    0.0000 C   0  0  0  0  0  0  0  0  0  0  0  0
    3.3806   -9.1025    0.0000 C   0  0  0  0  0  0  0  0  0  0  0  0
    4.0950   -9.5150    0.0000 C   0  0  0  0  0  0  0  0  0  0  0  0
    4.8095   -9.1025    0.0000 C   0  0  0  0  0  0  0  0  0  0  0  0
    4.8095   -8.2775    0.0000 C   0  0  0  0  0  0  0  0  0  0  0  0
    4.0950   -7.8650    0.0000 C   0  0  0  0  0  0  0  0  0  0  0  0
    5.5941   -9.3574    0.0000 C   0  0  1  0  0  0  0  0  0  0  0  0
    6.0790   -8.6900    0.0000 C   0  0  1  0  0  0  0  0  0  0  0  0
    5.5941   -8.0226    0.0000 C   0  0  1  0  0  0  0  0  0  0  0  0
    6.0790  -10.0249    0.0000 C   0  0  0  0  0  0  0  0  0  0  0  0
    6.8637   -9.7699    0.0000 C   0  0  0  0  0  0  0  0  0  0  0  0
    6.8637   -8.9449    0.0000 C   0  0  0  0  0  0  0  0  0  0  0  0
    6.8637   -8.4351    0.0000 C   0  0  0  0  0  0  0  0  0  0  0  0
    6.8637   -7.6101    0.0000 C   0  0  0  0  0  0  0  0  0  0  0  0
    6.0790   -7.3551    0.0000 C   0  0  1  0  0  0  0  0  0  0  0  0
    5.8241  -10.8095    0.0000 O   0  0  0  0  0  0  0  0  0  0  0  0
    2.6661   -7.8650    0.0000 O   0  0  0  0  0  0  0  0  0  0  0  0
    2.6661   -9.5150    0.0000 O   0  0  0  0  0  0  0  0  0  0  0  0
    7.5311   -7.1251    0.0000 C   0  0  0  0  0  0  0  0  0  0  0  0
    8.2848   -7.4607    0.0000 N   0  0  0  0  0  0  0  0  0  0  0  0
    7.4449   -6.3047    0.0000 O   0  0  0  0  0  0  0  0  0  0  0  0
    8.9522   -6.9758    0.0000 C   0  0  0  0  0  0  0  0  0  0  0  0
    9.7059   -7.3113    0.0000 C   0  0  0  0  0  0  0  0  0  0  0  0
   10.3733   -6.8264    0.0000 C   0  0  0  0  0  0  0  0  0  0  0  0
   11.1270   -7.1620    0.0000 C   0  0  0  0  0  0  0  0  0  0  0  0
   11.7944   -6.6770    0.0000 C   0  0  0  0  0  0  0  0  0  0  0  0
   11.7082   -5.8566    0.0000 C   0  0  0  0  0  0  0  0  0  0  0  0
   10.9545   -5.5210    0.0000 C   0  0  0  0  0  0  0  0  0  0  0  0
   10.2871   -6.0059    0.0000 C   0  0  0  0  0  0  0  0  0  0  0  0
   12.3756   -5.3716    0.0000 O   0  0  0  0  0  0  0  0  0  0  0  0
    5.8241   -6.5705    0.0000 C   0  0  0  0  0  0  0  0  0  0  0  0
    6.3761   -5.9574    0.0000 O   0  0  0  0  0  0  0  0  0  0  0  0
    5.0171   -6.3990    0.0000 N   0  0  0  0  0  0  0  0  0  0  0  0
    4.8036   -5.6021    0.0000 C   0  0  0  0  0  0  0  0  0  0  0  0
    4.0067   -5.3886    0.0000 C   0  0  0  0  0  0  0  0  0  0  0  0
    3.7932   -4.5917    0.0000 C   0  0  0  0  0  0  0  0  0  0  0  0
    4.3766   -4.0083    0.0000 C   0  0  0  0  0  0  0  0  0  0  0  0
    4.1630   -3.2114    0.0000 C   0  0  0  0  0  0  0  0  0  0  0  0
    3.3661   -2.9979    0.0000 C   0  0  0  0  0  0  0  0  0  0  0  0
    2.7828   -3.5813    0.0000 C   0  0  0  0  0  0  0  0  0  0  0  0
    2.9963   -4.3781    0.0000 C   0  0  0  0  0  0  0  0  0  0  0  0
    3.1526   -2.2010    0.0000 O   0  0  0  0  0  0  0  0  0  0  0  0
    6.6624   -6.7718    0.0000 H   0  0  0  0  0  0  0  0  0  0  0  0
    5.1092   -7.3551    0.0000 H   0  0  0  0  0  0  0  0  0  0  0  0
    5.1092  -10.0249    0.0000 O   0  0  0  0  0  0  0  0  0  0  0  0
    4.2842  -10.0249    0.0000 C   0  0  0  0  0  0  0  0  0  0  0  0
  1  2  2  0  0  0  0
  2  3  1  0  0  0  0
  3  4  2  0  0  0  0
  4  5  1  0  0  0  0
  5  6  2  0  0  0  0
  6  1  1  0  0  0  0
  4  7  1  0  0  0  0
  7  8  1  0  0  0  0
  8  9  1  0  0  0  0
  9  5  1  0  0  0  0
  7 10  1  1  0  0  0
 10 11  1  0  0  0  0
 11 12  2  0  0  0  0
  8 12  1  1  0  0  0
  8 13  1  0  0  0  0
 13 14  2  0  0  0  0
 14 15  1  0  0  0  0
 15  9  1  0  0  0  0
 10 16  2  0  0  0  0
  1 17  1  0  0  0  0
  2 18  1  0  0  0  0
 14 19  1  0  0  0  0
 19 20  1  0  0  0  0
 19 21  2  0  0  0  0
 20 22  1  0  0  0  0
 22 23  1  0  0  0  0
 23 24  1  0  0  0  0
 24 25  2  0  0  0  0
 25 26  1  0  0  0  0
 26 27  2  0  0  0  0
 27 28  1  0  0  0  0
 28 29  2  0  0  0  0
 29 24  1  0  0  0  0
 27 30  1  0  0  0  0
 15 31  1  0  0  0  0
 31 32  2  0  0  0  0
 31 33  1  0  0  0  0
 33 34  1  0  0  0  0
 34 35  1  0  0  0  0
 35 36  1  0  0  0  0
 36 37  2  0  0  0  0
 37 38  1  0  0  0  0
 38 39  2  0  0  0  0
 39 40  1  0  0  0  0
 40 41  2  0  0  0  0
 41 36  1  0  0  0  0
 39 42  1  0  0  0  0
 15 43  1  1  0  0  0
  9 44  1  1  0  0  0
  7 45  1  6  0  0  0
 45 46  1  0  0  0  0
M  END
>  <cdx:fragmentId>
5

$$$$
