93869.cdx
  Mrv1902 05222410202D          

 24 23  0  0  0  0            999 V2000
   12.0309   -9.5199    0.0000 O   0  0  0  0  0  0  0  0  0  0  0  0
   11.3164   -9.1074    0.0000 C   0  0  0  0  0  0  0  0  0  0  0  0
   10.6020   -9.5199    0.0000 C   0  0  0  0  0  0  0  0  0  0  0  0
   11.3164   -8.2824    0.0000 O   0  0  0  0  0  0  0  0  0  0  0  0
    9.8875   -9.1074    0.0000 C   0  0  0  0  0  0  0  0  0  0  0  0
    9.1730   -9.5199    0.0000 C   0  0  0  0  0  0  0  0  0  0  0  0
    2.0323   -5.3964    0.0000 N   0  0  0  0  0  0  0  0  0  0  0  0
    3.4612   -5.3964    0.0000 N   0  0  0  0  0  0  0  0  0  0  0  0
    2.7468   -5.8089    0.0000 C   0  0  0  0  0  0  0  0  0  0  0  0
    2.7468   -6.6339    0.0000 N   0  0  0  0  0  0  0  0  0  0  0  0
    3.4612   -7.0464    0.0000 C   0  0  0  0  0  0  0  0  0  0  0  0
    3.4612   -7.8714    0.0000 C   0  0  0  0  0  0  0  0  0  0  0  0
    4.1757   -8.2839    0.0000 C   0  0  0  0  0  0  0  0  0  0  0  0
    3.4612  -10.3464    0.0000 O   0  0  0  0  0  0  0  0  0  0  0  0
    2.7468   -9.1089    0.0000 O   0  0  0  0  0  0  0  0  0  0  0  0
    3.4612   -9.5214    0.0000 C   0  0  0  0  0  0  0  0  0  0  0  0
    4.1757   -9.1089    0.0000 C   0  0  1  0  0  0  0  0  0  0  0  0
    5.6047   -8.2839    0.0000 O   0  0  0  0  0  0  0  0  0  0  0  0
    4.8902   -9.5214    0.0000 N   0  0  0  0  0  0  0  0  0  0  0  0
    5.6047   -9.1089    0.0000 C   0  0  0  0  0  0  0  0  0  0  0  0
    6.3191   -9.5214    0.0000 C   0  0  0  0  0  0  0  0  0  0  0  0
    8.4586   -9.1074    0.0000 C   0  0  0  0  0  0  0  0  0  0  0  0
    7.7441   -9.5199    0.0000 C   0  0  0  0  0  0  0  0  0  0  0  0
    7.0296   -9.1074    0.0000 C   0  0  0  0  0  0  0  0  0  0  0  0
  1  2  1  0  0  0  0
  2  3  1  0  0  0  0
  2  4  2  0  0  0  0
  3  5  1  0  0  0  0
  5  6  1  0  0  0  0
  9  7  1  0  0  0  0
  9  8  1  0  0  0  0
 10  9  2  0  0  0  0
 11 10  1  0  0  0  0
 12 11  1  0  0  0  0
 13 12  1  0  0  0  0
 17 13  1  0  0  0  0
 16 14  2  0  0  0  0
 16 15  1  0  0  0  0
 17 16  1  0  0  0  0
 17 19  1  6  0  0  0
 20 18  2  0  0  0  0
 20 19  1  0  0  0  0
 21 20  1  0  0  0  0
  6 22  1  0  0  0  0
 22 23  1  0  0  0  0
 23 24  1  0  0  0  0
 21 24  1  0  0  0  0
M  END
>  <cdx:fragmentId>
83

$$$$
