93864.cdx
  Mrv1902 05222410262D          

 98107  0  0  0  0            999 V2000
   10.8058  -11.4125    0.0000 C   0  0  1  0  0  0  0  0  0  0  0  0
   10.8058  -10.5875    0.0000 C   0  0  0  0  0  0  0  0  0  0  0  0
   11.5203  -10.1750    0.0000 C   0  0  0  0  0  0  0  0  0  0  0  0
   11.5203  -11.8250    0.0000 C   0  0  0  0  0  0  0  0  0  0  0  0
   12.2347  -11.4125    0.0000 C   0  0  2  0  0  0  0  0  0  0  0  0
   12.9492  -11.8250    0.0000 C   0  0  0  0  0  0  0  0  0  0  0  0
   13.6637  -11.4125    0.0000 C   0  0  0  0  0  0  0  0  0  0  0  0
   13.6637  -10.5875    0.0000 C   0  0  1  0  0  0  0  0  0  0  0  0
   14.3782  -10.1750    0.0000 C   0  0  2  0  0  0  0  0  0  0  0  0
   15.1628  -10.4299    0.0000 C   0  0  0  0  0  0  0  0  0  0  0  0
   15.6477   -9.7625    0.0000 C   0  0  2  0  0  0  0  0  0  0  0  0
   16.4446   -9.5490    0.0000 O   0  0  0  0  0  0  0  0  0  0  0  0
   15.1628   -9.0951    0.0000 C   0  0  2  0  0  0  0  0  0  0  0  0
   14.8011   -8.3536    0.0000 H   0  0  0  0  0  0  0  0  0  0  0  0
   15.5753   -8.3806    0.0000 C   0  0  0  0  0  0  0  0  0  0  0  0
   14.3782   -9.3500    0.0000 C   0  0  2  0  0  0  0  0  0  0  0  0
   14.3782   -8.5250    0.0000 C   0  0  0  0  0  0  0  0  0  0  0  0
   13.6637   -8.9375    0.0000 C   0  0  0  0  0  0  0  0  0  0  0  0
   12.9492   -9.3500    0.0000 C   0  0  0  0  0  0  0  0  0  0  0  0
   12.9492  -10.1750    0.0000 C   0  0  2  0  0  0  0  0  0  0  0  0
   12.2347  -10.5875    0.0000 C   0  0  1  0  0  0  0  0  0  0  0  0
   12.2347   -9.7625    0.0000 C   0  0  0  0  0  0  0  0  0  0  0  0
   12.9492  -11.0000    0.0000 H   0  0  0  0  0  0  0  0  0  0  0  0
   13.6637   -9.7625    0.0000 H   0  0  0  0  0  0  0  0  0  0  0  0
   14.3782  -11.0000    0.0000 H   0  0  0  0  0  0  0  0  0  0  0  0
   10.0913  -11.8250    0.0000 O   0  0  0  0  0  0  0  0  0  0  0  0
    8.6621  -10.1608    0.0000 C   0  0  2  0  0  0  0  0  0  0  0  0
    7.9459  -10.5704    0.0000 C   0  0  1  0  0  0  0  0  0  0  0  0
    7.9426  -11.3953    0.0000 C   0  0  1  0  0  0  0  0  0  0  0  0
    8.6553  -11.8108    0.0000 C   0  0  2  0  0  0  0  0  0  0  0  0
    9.3715  -11.4012    0.0000 C   0  0  1  0  0  0  0  0  0  0  0  0
    9.3749  -10.5762    0.0000 O   0  0  0  0  0  0  0  0  0  0  0  0
    7.2264  -11.8049    0.0000 O   0  0  0  0  0  0  0  0  0  0  0  0
    7.2332  -10.1549    0.0000 O   0  0  0  0  0  0  0  0  0  0  0  0
    8.6520  -12.6358    0.0000 O   0  0  0  0  0  0  0  0  0  0  0  0
    8.6655   -9.3358    0.0000 C   0  0  0  0  0  0  0  0  0  0  0  0
    9.3799   -8.9233    0.0000 O   0  0  0  0  0  0  0  0  0  0  0  0
    6.8197   -9.4410    0.0000 C   0  0  2  0  0  0  0  0  0  0  0  0
    7.2341   -8.7277    0.0000 O   0  0  0  0  0  0  0  0  0  0  0  0
    6.8119   -8.0122    0.0000 C   0  0  1  0  0  0  0  0  0  0  0  0
    5.9869   -8.0167    0.0000 C   0  0  2  0  0  0  0  0  0  0  0  0
    5.5725   -8.7367    0.0000 C   0  0  1  0  0  0  0  0  0  0  0  0
    5.9947   -9.4455    0.0000 C   0  0  1  0  0  0  0  0  0  0  0  0
    7.2190   -7.2946    0.0000 C   0  0  0  0  0  0  0  0  0  0  0  0
    4.7475   -8.7429    0.0000 O   0  0  0  0  0  0  0  0  0  0  0  0
    5.5891  -10.1639    0.0000 O   0  0  0  0  0  0  0  0  0  0  0  0
    5.5720   -7.3036    0.0000 O   0  0  0  0  0  0  0  0  0  0  0  0
    6.8012   -6.5833    0.0000 O   0  0  0  0  0  0  0  0  0  0  0  0
    4.3297   -8.0316    0.0000 C   0  0  2  0  0  0  0  0  0  0  0  0
    4.7370   -7.3141    0.0000 O   0  0  0  0  0  0  0  0  0  0  0  0
    4.3188   -6.6030    0.0000 C   0  0  0  0  0  0  0  0  0  0  0  0
    3.4933   -6.6093    0.0000 C   0  0  2  0  0  0  0  0  0  0  0  0
    3.0865   -7.3277    0.0000 C   0  0  1  0  0  0  0  0  0  0  0  0
    3.5047   -8.0388    0.0000 C   0  0  1  0  0  0  0  0  0  0  0  0
    3.0982   -8.7568    0.0000 O   0  0  0  0  0  0  0  0  0  0  0  0
    2.2615   -7.3345    0.0000 O   0  0  0  0  0  0  0  0  0  0  0  0
    3.0750   -5.8982    0.0000 O   0  0  0  0  0  0  0  0  0  0  0  0
    4.7641  -10.1718    0.0000 C   0  0  2  0  0  0  0  0  0  0  0  0
    4.3413   -9.4633    0.0000 O   0  0  0  0  0  0  0  0  0  0  0  0
    3.5164   -9.4633    0.0000 C   0  0  0  0  0  0  0  0  0  0  0  0
    3.1143  -10.1718    0.0000 C   0  0  2  0  0  0  0  0  0  0  0  0
    3.5164  -10.8802    0.0000 C   0  0  1  0  0  0  0  0  0  0  0  0
    4.3413  -10.8802    0.0000 C   0  0  1  0  0  0  0  0  0  0  0  0
    4.7487  -11.5976    0.0000 O   0  0  0  0  0  0  0  0  0  0  0  0
    3.1013  -11.5932    0.0000 O   0  0  0  0  0  0  0  0  0  0  0  0
    2.2893  -10.1718    0.0000 O   0  0  0  0  0  0  0  0  0  0  0  0
    7.9358  -13.0453    0.0000 C   0  0  2  0  0  0  0  0  0  0  0  0
    7.2247  -12.6270    0.0000 O   0  0  0  0  0  0  0  0  0  0  0  0
    6.5069  -13.0453    0.0000 C   0  0  2  0  0  0  0  0  0  0  0  0
    6.5069  -13.8703    0.0000 C   0  0  1  0  0  0  0  0  0  0  0  0
    7.2247  -14.2886    0.0000 C   0  0  2  0  0  0  0  0  0  0  0  0
    7.9358  -13.8703    0.0000 C   0  0  1  0  0  0  0  0  0  0  0  0
    5.7916  -14.2814    0.0000 O   0  0  0  0  0  0  0  0  0  0  0  0
    7.2264  -15.1136    0.0000 O   0  0  0  0  0  0  0  0  0  0  0  0
    8.6520  -14.2799    0.0000 O   0  0  0  0  0  0  0  0  0  0  0  0
    5.7916  -12.6343    0.0000 C   0  0  0  0  0  0  0  0  0  0  0  0
   12.2347  -12.2375    0.0000 H   0  0  0  0  0  0  0  0  0  0  0  0
   15.1628   -7.6661    0.0000 O   0  0  0  0  0  0  0  0  0  0  0  0
   16.4003   -8.3806    0.0000 C   0  0  0  0  0  0  0  0  0  0  0  0
   17.0279  -10.1323    0.0000 C   0  0  0  0  0  0  0  0  0  0  0  0
   17.8248   -9.9188    0.0000 C   0  0  0  0  0  0  0  0  0  0  0  0
   16.8144  -10.9292    0.0000 O   0  0  0  0  0  0  0  0  0  0  0  0
   18.4082  -10.5022    0.0000 C   0  0  0  0  0  0  0  0  0  0  0  0
   19.2051  -10.2886    0.0000 C   0  0  2  0  0  0  0  0  0  0  0  0
   19.7885  -10.8720    0.0000 C   0  0  0  0  0  0  0  0  0  0  0  0
   19.4186   -9.4918    0.0000 C   0  0  0  0  0  0  0  0  0  0  0  0
   20.5853  -10.6585    0.0000 O   0  0  0  0  0  0  0  0  0  0  0  0
   21.1687  -11.2418    0.0000 C   0  0  2  0  0  0  0  0  0  0  0  0
   20.9552  -12.0387    0.0000 O   0  0  0  0  0  0  0  0  0  0  0  0
   21.5385  -12.6221    0.0000 C   0  0  1  0  0  0  0  0  0  0  0  0
   22.3354  -12.4086    0.0000 C   0  0  2  0  0  0  0  0  0  0  0  0
   22.5490  -11.6117    0.0000 C   0  0  1  0  0  0  0  0  0  0  0  0
   21.9656  -11.0283    0.0000 C   0  0  1  0  0  0  0  0  0  0  0  0
   21.3250  -13.4190    0.0000 C   0  0  0  0  0  0  0  0  0  0  0  0
   23.3458  -11.3982    0.0000 O   0  0  0  0  0  0  0  0  0  0  0  0
   22.1791  -10.2314    0.0000 O   0  0  0  0  0  0  0  0  0  0  0  0
   22.9188  -12.9919    0.0000 O   0  0  0  0  0  0  0  0  0  0  0  0
   21.9084  -14.0023    0.0000 O   0  0  0  0  0  0  0  0  0  0  0  0
  1  2  1  0  0  0  0
  2  3  1  0  0  0  0
  1  4  1  0  0  0  0
  4  5  1  0  0  0  0
  5  6  1  0  0  0  0
  6  7  1  0  0  0  0
  7  8  1  0  0  0  0
  8  9  1  0  0  0  0
  9 10  1  0  0  0  0
 10 11  1  0  0  0  0
 11 12  1  1  0  0  0
 11 13  1  0  0  0  0
 13 14  1  6  0  0  0
 13 15  1  0  0  0  0
 13 16  1  0  0  0  0
  9 16  1  0  0  0  0
 16 17  1  1  0  0  0
 16 18  1  0  0  0  0
 18 19  1  0  0  0  0
 19 20  1  0  0  0  0
  8 20  1  0  0  0  0
 20 21  1  0  0  0  0
  3 21  1  0  0  0  0
  5 21  1  0  0  0  0
 21 22  1  1  0  0  0
 20 23  1  6  0  0  0
  8 24  1  1  0  0  0
  9 25  1  6  0  0  0
  1 26  1  1  0  0  0
 27 28  1  0  0  0  0
 28 29  1  0  0  0  0
 29 30  1  0  0  0  0
 30 31  1  0  0  0  0
 31 32  1  0  0  0  0
 32 27  1  0  0  0  0
 29 33  1  1  0  0  0
 28 34  1  1  0  0  0
 30 35  1  6  0  0  0
 31 26  1  1  0  0  0
 27 36  1  1  0  0  0
 36 37  1  0  0  0  0
 38 34  1  1  0  0  0
 38 39  1  0  0  0  0
 39 40  1  0  0  0  0
 40 41  1  0  0  0  0
 41 42  1  0  0  0  0
 42 43  1  0  0  0  0
 43 38  1  0  0  0  0
 40 44  1  1  0  0  0
 42 45  1  1  0  0  0
 43 46  1  6  0  0  0
 41 47  1  6  0  0  0
 44 48  1  0  0  0  0
 49 45  1  1  0  0  0
 49 50  1  0  0  0  0
 50 51  1  0  0  0  0
 51 52  1  0  0  0  0
 52 53  1  0  0  0  0
 53 54  1  0  0  0  0
 54 49  1  0  0  0  0
 54 55  1  6  0  0  0
 53 56  1  1  0  0  0
 52 57  1  6  0  0  0
 58 46  1  1  0  0  0
 58 59  1  0  0  0  0
 59 60  1  0  0  0  0
 60 61  1  0  0  0  0
 61 62  1  0  0  0  0
 62 63  1  0  0  0  0
 63 58  1  0  0  0  0
 63 64  1  6  0  0  0
 62 65  1  1  0  0  0
 61 66  1  6  0  0  0
 67 35  1  1  0  0  0
 67 68  1  0  0  0  0
 68 69  1  0  0  0  0
 69 70  1  0  0  0  0
 70 71  1  0  0  0  0
 71 72  1  0  0  0  0
 72 67  1  0  0  0  0
 70 73  1  1  0  0  0
 71 74  1  6  0  0  0
 72 75  1  6  0  0  0
 69 76  1  6  0  0  0
  5 77  1  6  0  0  0
 15 78  2  0  0  0  0
 15 79  1  0  0  0  0
 12 80  1  0  0  0  0
 80 81  1  0  0  0  0
 80 82  2  0  0  0  0
 81 83  1  0  0  0  0
 83 84  1  0  0  0  0
 84 85  1  0  0  0  0
 84 86  1  1  0  0  0
 85 87  1  0  0  0  0
 88 87  1  1  0  0  0
 88 89  1  0  0  0  0
 89 90  1  0  0  0  0
 90 91  1  0  0  0  0
 91 92  1  0  0  0  0
 92 93  1  0  0  0  0
 93 88  1  0  0  0  0
 90 94  1  1  0  0  0
 92 95  1  1  0  0  0
 93 96  1  6  0  0  0
 91 97  1  6  0  0  0
 94 98  1  0  0  0  0
M  END
>  <cdx:fragmentId>
5

$$$$
