93871.cdx
  Mrv1902 05222410262D          

 36 41  0  0  0  0            999 V2000
    3.5456   -9.1438    0.0000 C   0  0  0  0  0  0  0  0  0  0  0  0
    3.5456   -9.9688    0.0000 C   0  0  1  0  0  0  0  0  0  0  0  0
    4.2600  -10.3812    0.0000 C   0  0  0  0  0  0  0  0  0  0  0  0
    4.9745   -9.9688    0.0000 C   0  0  2  0  0  0  0  0  0  0  0  0
    4.9745   -9.1438    0.0000 C   0  0  2  0  0  0  0  0  0  0  0  0
    4.2600   -8.7313    0.0000 C   0  0  0  0  0  0  0  0  0  0  0  0
    5.6890  -10.3812    0.0000 C   0  0  0  0  0  0  0  0  0  0  0  0
    6.4034   -9.9688    0.0000 C   0  0  0  0  0  0  0  0  0  0  0  0
    6.4034   -9.1438    0.0000 C   0  0  2  0  0  0  0  0  0  0  0  0
    5.6890   -8.7313    0.0000 C   0  0  2  0  0  0  0  0  0  0  0  0
    7.1179   -8.7313    0.0000 C   0  0  2  0  0  0  0  0  0  0  0  0
    7.1179   -7.9063    0.0000 C   0  0  2  0  0  0  0  0  0  0  0  0
    6.4034   -7.4937    0.0000 C   0  0  0  0  0  0  0  0  0  0  0  0
    5.6890   -7.9063    0.0000 C   0  0  0  0  0  0  0  0  0  0  0  0
    7.9025   -8.9862    0.0000 C   0  0  1  0  0  0  0  0  0  0  0  0
    8.3875   -8.3187    0.0000 C   0  0  1  0  0  0  0  0  0  0  0  0
    7.9025   -7.6513    0.0000 C   0  0  2  0  0  0  0  0  0  0  0  0
    8.1575   -6.8667    0.0000 C   0  0  0  0  0  0  0  0  0  0  0  0
    8.9644   -6.6952    0.0000 C   0  0  0  0  0  0  0  0  0  0  0  0
    9.2194   -5.9105    0.0000 C   0  0  0  0  0  0  0  0  0  0  0  0
    8.6673   -5.2974    0.0000 C   0  0  0  0  0  0  0  0  0  0  0  0
    7.8604   -5.4690    0.0000 O   0  0  0  0  0  0  0  0  0  0  0  0
    7.6054   -6.2536    0.0000 C   0  0  0  0  0  0  0  0  0  0  0  0
    8.9223   -4.5128    0.0000 O   0  0  0  0  0  0  0  0  0  0  0  0
    2.8311  -10.3812    0.0000 O   0  0  0  0  0  0  0  0  0  0  0  0
    4.9745   -8.3187    0.0000 C   0  0  0  0  0  0  0  0  0  0  0  0
    4.9745  -10.7937    0.0000 H   0  0  0  0  0  0  0  0  0  0  0  0
    7.3314   -9.5281    0.0000 O   0  0  0  0  0  0  0  0  0  0  0  0
    9.2125   -8.3187    0.0000 O   0  0  0  0  0  0  0  0  0  0  0  0
    7.2041   -7.0858    0.0000 C   0  0  0  0  0  0  0  0  0  0  0  0
    9.6250   -9.0332    0.0000 C   0  0  0  0  0  0  0  0  0  0  0  0
    9.2125   -9.7477    0.0000 O   0  0  0  0  0  0  0  0  0  0  0  0
   10.4500   -9.0332    0.0000 C   0  0  0  0  0  0  0  0  0  0  0  0
   10.8625   -9.7477    0.0000 C   0  0  0  0  0  0  0  0  0  0  0  0
    5.6890   -9.5563    0.0000 H   0  0  0  0  0  0  0  0  0  0  0  0
    6.4034   -8.3187    0.0000 H   0  0  0  0  0  0  0  0  0  0  0  0
  1  2  1  0  0  0  0
  2  3  1  0  0  0  0
  3  4  1  0  0  0  0
  4  5  1  0  0  0  0
  5  6  1  0  0  0  0
  6  1  1  0  0  0  0
  4  7  1  0  0  0  0
  7  8  1  0  0  0  0
  8  9  1  0  0  0  0
  9 10  1  0  0  0  0
 10  5  1  0  0  0  0
  9 11  1  0  0  0  0
 11 12  1  0  0  0  0
 12 13  1  0  0  0  0
 13 14  1  0  0  0  0
 14 10  1  0  0  0  0
 11 15  1  0  0  0  0
 15 16  1  0  0  0  0
 16 17  1  0  0  0  0
 17 12  1  0  0  0  0
 17 18  1  1  0  0  0
 18 19  1  0  0  0  0
 19 20  2  0  0  0  0
 20 21  1  0  0  0  0
 21 22  1  0  0  0  0
 22 23  1  0  0  0  0
 23 18  2  0  0  0  0
 21 24  2  0  0  0  0
  2 25  1  1  0  0  0
  5 26  1  1  0  0  0
  4 27  1  1  0  0  0
 11 28  1  1  0  0  0
 15 28  1  1  0  0  0
 16 29  1  1  0  0  0
 12 30  1  1  0  0  0
 29 31  1  0  0  0  0
 31 32  2  0  0  0  0
 31 33  1  0  0  0  0
 33 34  1  0  0  0  0
 10 35  1  6  0  0  0
  9 36  1  1  0  0  0
M  END
>  <cdx:fragmentId>
5

$$$$
