938903.cdx
  Mrv1902 05222410242D          

 52 56  0  0  0  0            999 V2000
    5.3850  -17.1043    0.0000 C   0  0  0  0  0  0  0  0  0  0  0  0
    4.6705  -17.5168    0.0000 C   0  0  0  0  0  0  0  0  0  0  0  0
    3.9560  -17.1043    0.0000 C   0  0  0  0  0  0  0  0  0  0  0  0
    5.3850  -16.2793    0.0000 O   0  0  0  0  0  0  0  0  0  0  0  0
    6.0994  -17.5168    0.0000 O   0  0  0  0  0  0  0  0  0  0  0  0
    3.2415  -17.5168    0.0000 C   0  0  0  0  0  0  0  0  0  0  0  0
    2.5271  -17.1043    0.0000 C   0  0  0  0  0  0  0  0  0  0  0  0
    1.8126  -17.5168    0.0000 C   0  0  0  0  0  0  0  0  0  0  0  0
    1.8126  -18.3418    0.0000 C   0  0  0  0  0  0  0  0  0  0  0  0
    2.5271  -18.7543    0.0000 C   0  0  0  0  0  0  0  0  0  0  0  0
    3.2415  -18.3418    0.0000 C   0  0  0  0  0  0  0  0  0  0  0  0
    1.0981  -17.1043    0.0000 O   0  0  0  0  0  0  0  0  0  0  0  0
    0.3837  -17.5168    0.0000 C   0  0  0  0  0  0  0  0  0  0  0  0
    1.0981  -18.7543    0.0000 O   0  0  0  0  0  0  0  0  0  0  0  0
    6.8139  -17.1043    0.0000 C   0  0  0  0  0  0  0  0  0  0  0  0
    8.7979  -17.1043    0.0000 O   0  0  0  0  0  0  0  0  0  0  0  0
    8.0133  -16.8493    0.0000 C   0  0  0  0  0  0  0  0  0  0  0  0
    7.5284  -17.5168    0.0000 C   0  0  1  0  0  0  0  0  0  0  0  0
    8.0133  -18.1842    0.0000 C   0  0  2  0  0  0  0  0  0  0  0  0
    8.7979  -17.9293    0.0000 C   0  0  2  0  0  0  0  0  0  0  0  0
    7.7583  -18.9688    0.0000 O   0  0  0  0  0  0  0  0  0  0  0  0
    6.8139  -17.9293    0.0000 O   0  0  0  0  0  0  0  0  0  0  0  0
    9.4653  -18.4142    0.0000 O   0  0  0  0  0  0  0  0  0  0  0  0
   10.8959  -16.7656    0.0000 O   0  0  0  0  0  0  0  0  0  0  0  0
   10.1810  -17.1774    0.0000 C   0  0  2  0  0  0  0  0  0  0  0  0
   10.1802  -18.0024    0.0000 C   0  0  1  0  0  0  0  0  0  0  0  0
   10.8943  -18.4156    0.0000 C   0  0  2  0  0  0  0  0  0  0  0  0
   11.6092  -18.0038    0.0000 C   0  0  1  0  0  0  0  0  0  0  0  0
   11.6100  -17.1788    0.0000 C   0  0  1  0  0  0  0  0  0  0  0  0
   12.3248  -16.7670    0.0000 C   0  0  0  0  0  0  0  0  0  0  0  0
   13.0389  -17.1802    0.0000 O   0  0  0  0  0  0  0  0  0  0  0  0
   12.3232  -18.4170    0.0000 O   0  0  0  0  0  0  0  0  0  0  0  0
   10.8935  -19.2406    0.0000 O   0  0  0  0  0  0  0  0  0  0  0  0
    9.4669  -16.7642    0.0000 O   0  0  0  0  0  0  0  0  0  0  0  0
    9.4677  -15.9392    0.0000 C   0  0  0  0  0  0  0  0  0  0  0  0
   10.1826  -15.5274    0.0000 C   0  0  0  0  0  0  0  0  0  0  0  0
   10.1834  -14.7024    0.0000 C   0  0  0  0  0  0  0  0  0  0  0  0
    9.4693  -14.2892    0.0000 C   0  0  0  0  0  0  0  0  0  0  0  0
    8.7545  -14.7010    0.0000 C   0  0  0  0  0  0  0  0  0  0  0  0
    8.7537  -15.5260    0.0000 C   0  0  0  0  0  0  0  0  0  0  0  0
    9.4701  -13.4642    0.0000 C   0  0  0  0  0  0  0  0  0  0  0  0
   10.1850  -13.0524    0.0000 C   0  0  0  0  0  0  0  0  0  0  0  0
   10.1858  -12.2274    0.0000 C   0  0  0  0  0  0  0  0  0  0  0  0
    9.4717  -11.8142    0.0000 O   0  0  0  0  0  0  0  0  0  0  0  0
   10.9007  -11.8156    0.0000 C   0  0  0  0  0  0  0  0  0  0  0  0
   10.9015  -10.9906    0.0000 C   0  0  0  0  0  0  0  0  0  0  0  0
   11.6163  -10.5788    0.0000 C   0  0  0  0  0  0  0  0  0  0  0  0
   12.3304  -10.9920    0.0000 C   0  0  0  0  0  0  0  0  0  0  0  0
   12.3296  -11.8170    0.0000 C   0  0  0  0  0  0  0  0  0  0  0  0
   11.6148  -12.2288    0.0000 C   0  0  0  0  0  0  0  0  0  0  0  0
   13.0453  -10.5802    0.0000 O   0  0  0  0  0  0  0  0  0  0  0  0
   10.1874  -10.5774    0.0000 O   0  0  0  0  0  0  0  0  0  0  0  0
  1  2  1  0  0  0  0
  2  3  2  0  0  0  0
  1  4  2  0  0  0  0
  1  5  1  0  0  0  0
  6  7  1  0  0  0  0
  7  8  2  0  0  0  0
  8  9  1  0  0  0  0
  9 10  2  0  0  0  0
 10 11  1  0  0  0  0
  6 11  2  0  0  0  0
 12 13  1  0  0  0  0
  8 12  1  0  0  0  0
  9 14  1  0  0  0  0
  3  6  1  0  0  0  0
 16 17  1  0  0  0  0
 17 18  1  0  0  0  0
 18 19  1  0  0  0  0
 19 20  1  0  0  0  0
 16 20  1  0  0  0  0
 19 21  1  6  0  0  0
 18 22  1  6  0  0  0
 24 25  1  0  0  0  0
 25 26  1  0  0  0  0
 26 27  1  0  0  0  0
 27 28  1  0  0  0  0
 28 29  1  0  0  0  0
 24 29  1  0  0  0  0
 30 31  1  0  0  0  0
 29 30  1  6  0  0  0
 28 32  1  1  0  0  0
 27 33  1  6  0  0  0
 35 36  1  0  0  0  0
 36 37  2  0  0  0  0
 37 38  1  0  0  0  0
 38 39  2  0  0  0  0
 39 40  1  0  0  0  0
 35 40  2  0  0  0  0
 34 35  1  0  0  0  0
 41 42  2  0  0  0  0
 42 43  1  0  0  0  0
 43 44  2  0  0  0  0
 45 46  1  0  0  0  0
 46 47  2  0  0  0  0
 47 48  1  0  0  0  0
 48 49  2  0  0  0  0
 49 50  1  0  0  0  0
 45 50  2  0  0  0  0
 48 51  1  0  0  0  0
 46 52  1  0  0  0  0
 43 45  1  0  0  0  0
 38 41  1  0  0  0  0
 25 34  1  6  0  0  0
 26 23  1  1  0  0  0
 20 23  1  1  0  0  0
 18 15  1  1  0  0  0
  5 15  1  0  0  0  0
M  END
>  <cdx:fragmentId>
7882

$$$$
