101938904.cdx
  Mrv1902 05222410262D          

 50 54  0  0  0  0            999 V2000
    5.1772  -17.1043    0.0000 C   0  0  0  0  0  0  0  0  0  0  0  0
    4.4627  -17.5168    0.0000 C   0  0  0  0  0  0  0  0  0  0  0  0
    3.7483  -17.1043    0.0000 C   0  0  0  0  0  0  0  0  0  0  0  0
    5.1772  -16.2793    0.0000 O   0  0  0  0  0  0  0  0  0  0  0  0
    5.8917  -17.5168    0.0000 O   0  0  0  0  0  0  0  0  0  0  0  0
    3.0338  -17.5168    0.0000 C   0  0  0  0  0  0  0  0  0  0  0  0
    2.3193  -17.1043    0.0000 C   0  0  0  0  0  0  0  0  0  0  0  0
    1.6048  -17.5168    0.0000 C   0  0  0  0  0  0  0  0  0  0  0  0
    1.6048  -18.3418    0.0000 C   0  0  0  0  0  0  0  0  0  0  0  0
    2.3193  -18.7543    0.0000 C   0  0  0  0  0  0  0  0  0  0  0  0
    3.0338  -18.3418    0.0000 C   0  0  0  0  0  0  0  0  0  0  0  0
    0.8904  -18.7543    0.0000 O   0  0  0  0  0  0  0  0  0  0  0  0
    6.6061  -17.1043    0.0000 C   0  0  0  0  0  0  0  0  0  0  0  0
    8.5902  -17.1043    0.0000 O   0  0  0  0  0  0  0  0  0  0  0  0
    7.8055  -16.8493    0.0000 C   0  0  0  0  0  0  0  0  0  0  0  0
    7.3206  -17.5168    0.0000 C   0  0  1  0  0  0  0  0  0  0  0  0
    7.8055  -18.1842    0.0000 C   0  0  2  0  0  0  0  0  0  0  0  0
    8.5902  -17.9293    0.0000 C   0  0  2  0  0  0  0  0  0  0  0  0
    7.5506  -18.9688    0.0000 O   0  0  0  0  0  0  0  0  0  0  0  0
    6.6061  -17.9293    0.0000 O   0  0  0  0  0  0  0  0  0  0  0  0
    9.2576  -18.4142    0.0000 O   0  0  0  0  0  0  0  0  0  0  0  0
   10.6744  -16.7537    0.0000 O   0  0  0  0  0  0  0  0  0  0  0  0
    9.9630  -17.1715    0.0000 C   0  0  2  0  0  0  0  0  0  0  0  0
    9.9690  -17.9965    0.0000 C   0  0  1  0  0  0  0  0  0  0  0  0
   10.6865  -18.4037    0.0000 C   0  0  2  0  0  0  0  0  0  0  0  0
   11.3979  -17.9860    0.0000 C   0  0  1  0  0  0  0  0  0  0  0  0
   11.3919  -17.1610    0.0000 C   0  0  1  0  0  0  0  0  0  0  0  0
   12.1033  -16.7432    0.0000 C   0  0  0  0  0  0  0  0  0  0  0  0
   12.8208  -17.1505    0.0000 O   0  0  0  0  0  0  0  0  0  0  0  0
   12.1154  -18.3932    0.0000 O   0  0  0  0  0  0  0  0  0  0  0  0
   10.6926  -19.2287    0.0000 O   0  0  0  0  0  0  0  0  0  0  0  0
    9.2455  -16.7642    0.0000 O   0  0  0  0  0  0  0  0  0  0  0  0
    9.2394  -15.9393    0.0000 C   0  0  0  0  0  0  0  0  0  0  0  0
    9.9508  -15.5215    0.0000 C   0  0  0  0  0  0  0  0  0  0  0  0
    9.9448  -14.6965    0.0000 C   0  0  0  0  0  0  0  0  0  0  0  0
    9.2273  -14.2893    0.0000 C   0  0  0  0  0  0  0  0  0  0  0  0
    8.5159  -14.7070    0.0000 C   0  0  0  0  0  0  0  0  0  0  0  0
    8.5219  -15.5320    0.0000 C   0  0  0  0  0  0  0  0  0  0  0  0
    9.2212  -13.4643    0.0000 C   0  0  0  0  0  0  0  0  0  0  0  0
    9.9326  -13.0466    0.0000 C   0  0  0  0  0  0  0  0  0  0  0  0
    9.9266  -12.2216    0.0000 C   0  0  0  0  0  0  0  0  0  0  0  0
    9.2091  -11.8144    0.0000 O   0  0  0  0  0  0  0  0  0  0  0  0
   10.6380  -11.8039    0.0000 C   0  0  0  0  0  0  0  0  0  0  0  0
   10.6319  -10.9789    0.0000 C   0  0  0  0  0  0  0  0  0  0  0  0
   11.3433  -10.5612    0.0000 C   0  0  0  0  0  0  0  0  0  0  0  0
   12.0608  -10.9684    0.0000 C   0  0  0  0  0  0  0  0  0  0  0  0
   12.0669  -11.7934    0.0000 C   0  0  0  0  0  0  0  0  0  0  0  0
   11.3555  -12.2111    0.0000 C   0  0  0  0  0  0  0  0  0  0  0  0
   12.7723  -10.5507    0.0000 O   0  0  0  0  0  0  0  0  0  0  0  0
    9.9144  -10.5717    0.0000 O   0  0  0  0  0  0  0  0  0  0  0  0
  1  2  1  0  0  0  0
  2  3  2  0  0  0  0
  1  4  2  0  0  0  0
  1  5  1  0  0  0  0
  6  7  1  0  0  0  0
  7  8  2  0  0  0  0
  8  9  1  0  0  0  0
  9 10  2  0  0  0  0
 10 11  1  0  0  0  0
  6 11  2  0  0  0  0
  9 12  1  0  0  0  0
  3  6  1  0  0  0  0
 14 15  1  0  0  0  0
 15 16  1  0  0  0  0
 16 17  1  0  0  0  0
 17 18  1  0  0  0  0
 14 18  1  0  0  0  0
 17 19  1  6  0  0  0
 16 20  1  6  0  0  0
 22 23  1  0  0  0  0
 23 24  1  0  0  0  0
 24 25  1  0  0  0  0
 25 26  1  0  0  0  0
 26 27  1  0  0  0  0
 22 27  1  0  0  0  0
 28 29  1  0  0  0  0
 27 28  1  6  0  0  0
 26 30  1  1  0  0  0
 25 31  1  6  0  0  0
 33 34  1  0  0  0  0
 34 35  2  0  0  0  0
 35 36  1  0  0  0  0
 36 37  2  0  0  0  0
 37 38  1  0  0  0  0
 33 38  2  0  0  0  0
 32 33  1  0  0  0  0
 39 40  2  0  0  0  0
 40 41  1  0  0  0  0
 41 42  2  0  0  0  0
 43 44  1  0  0  0  0
 44 45  2  0  0  0  0
 45 46  1  0  0  0  0
 46 47  2  0  0  0  0
 47 48  1  0  0  0  0
 43 48  2  0  0  0  0
 46 49  1  0  0  0  0
 44 50  1  0  0  0  0
 41 43  1  0  0  0  0
 36 39  1  0  0  0  0
 23 32  1  6  0  0  0
 24 21  1  1  0  0  0
 18 21  1  1  0  0  0
 16 13  1  1  0  0  0
  5 13  1  0  0  0  0
M  END
>  <cdx:fragmentId>
8050

$$$$
