93907.cdx
  Mrv1902 05222410272D          

 35 40  0  0  0  0            999 V2000
    3.8481   -9.5150    0.0000 C   0  0  0  0  0  0  0  0  0  0  0  0
    3.8481  -10.3400    0.0000 C   0  0  0  0  0  0  0  0  0  0  0  0
    4.5625  -10.7525    0.0000 C   0  0  0  0  0  0  0  0  0  0  0  0
    5.2770  -10.3400    0.0000 C   0  0  2  0  0  0  0  0  0  0  0  0
    5.2770   -9.5150    0.0000 C   0  0  2  0  0  0  0  0  0  0  0  0
    4.5625   -9.1025    0.0000 C   0  0  0  0  0  0  0  0  0  0  0  0
    5.9915  -10.7525    0.0000 C   0  0  0  0  0  0  0  0  0  0  0  0
    6.7059  -10.3400    0.0000 C   0  0  0  0  0  0  0  0  0  0  0  0
    6.7059   -9.5150    0.0000 C   0  0  2  0  0  0  0  0  0  0  0  0
    5.9915   -9.1025    0.0000 C   0  0  2  0  0  0  0  0  0  0  0  0
    7.4204   -9.1025    0.0000 C   0  0  2  0  0  0  0  0  0  0  0  0
    7.4204   -8.2775    0.0000 C   0  0  2  0  0  0  0  0  0  0  0  0
    6.7059   -7.8650    0.0000 C   0  0  2  0  0  0  0  0  0  0  0  0
    5.9915   -8.2775    0.0000 C   0  0  0  0  0  0  0  0  0  0  0  0
    8.2050   -9.3574    0.0000 C   0  0  1  0  0  0  0  0  0  0  0  0
    8.6900   -8.6900    0.0000 C   0  0  1  0  0  0  0  0  0  0  0  0
    8.2050   -8.0226    0.0000 C   0  0  2  0  0  0  0  0  0  0  0  0
    8.4600   -7.2379    0.0000 C   0  0  0  0  0  0  0  0  0  0  0  0
    5.2770   -8.6900    0.0000 C   0  0  0  0  0  0  0  0  0  0  0  0
    5.2770  -11.1650    0.0000 H   0  0  0  0  0  0  0  0  0  0  0  0
    7.5066   -7.4570    0.0000 C   0  0  0  0  0  0  0  0  0  0  0  0
    9.5150   -8.6900    0.0000 O   0  0  0  0  0  0  0  0  0  0  0  0
    7.6339   -9.8994    0.0000 O   0  0  0  0  0  0  0  0  0  0  0  0
    9.2669   -7.0664    0.0000 C   0  0  0  0  0  0  0  0  0  0  0  0
    9.5219   -6.2818    0.0000 C   0  0  0  0  0  0  0  0  0  0  0  0
    8.9698   -5.6687    0.0000 C   0  0  0  0  0  0  0  0  0  0  0  0
    8.1629   -5.8402    0.0000 O   0  0  0  0  0  0  0  0  0  0  0  0
    7.9079   -6.6248    0.0000 C   0  0  0  0  0  0  0  0  0  0  0  0
    9.2248   -4.8841    0.0000 O   0  0  0  0  0  0  0  0  0  0  0  0
   10.7525   -9.4045    0.0000 C   0  0  0  0  0  0  0  0  0  0  0  0
    9.5150  -10.1189    0.0000 O   0  0  0  0  0  0  0  0  0  0  0  0
    9.9275   -9.4045    0.0000 C   0  0  0  0  0  0  0  0  0  0  0  0
    6.7059   -7.0400    0.0000 H   0  0  0  0  0  0  0  0  0  0  0  0
    5.9915   -9.9275    0.0000 H   0  0  0  0  0  0  0  0  0  0  0  0
    6.7059   -8.6900    0.0000 H   0  0  0  0  0  0  0  0  0  0  0  0
  1  2  2  0  0  0  0
  2  3  1  0  0  0  0
  3  4  1  0  0  0  0
  4  5  1  0  0  0  0
  5  6  1  0  0  0  0
  6  1  1  0  0  0  0
  4  7  1  0  0  0  0
  7  8  1  0  0  0  0
  8  9  1  0  0  0  0
  9 10  1  0  0  0  0
 10  5  1  0  0  0  0
  9 11  1  0  0  0  0
 11 12  1  0  0  0  0
 12 13  1  0  0  0  0
 13 14  1  0  0  0  0
 14 10  1  0  0  0  0
 11 15  1  0  0  0  0
 15 16  1  0  0  0  0
 16 17  1  0  0  0  0
 17 12  1  0  0  0  0
 17 18  1  1  0  0  0
  5 19  1  1  0  0  0
  4 20  1  1  0  0  0
 12 21  1  1  0  0  0
 16 22  1  1  0  0  0
 11 23  1  1  0  0  0
 15 23  1  1  0  0  0
 18 24  1  0  0  0  0
 24 25  2  0  0  0  0
 25 26  1  0  0  0  0
 26 27  1  0  0  0  0
 27 28  1  0  0  0  0
 28 18  2  0  0  0  0
 26 29  2  0  0  0  0
 32 30  1  0  0  0  0
 22 32  1  0  0  0  0
 32 31  2  0  0  0  0
 13 33  1  1  0  0  0
 10 34  1  6  0  0  0
  9 35  1  1  0  0  0
M  END
>  <cdx:fragmentId>
5

$$$$
