93906.cdx
  Mrv1902 05222410262D          

 36 40  0  0  0  0            999 V2000
    3.6556   -8.8825    0.0000 C   0  0  0  0  0  0  0  0  0  0  0  0
    3.6556   -9.7075    0.0000 C   0  0  1  0  0  0  0  0  0  0  0  0
    4.3700  -10.1200    0.0000 C   0  0  0  0  0  0  0  0  0  0  0  0
    5.0845   -9.7075    0.0000 C   0  0  2  0  0  0  0  0  0  0  0  0
    5.0845   -8.8825    0.0000 C   0  0  2  0  0  0  0  0  0  0  0  0
    4.3700   -8.4700    0.0000 C   0  0  0  0  0  0  0  0  0  0  0  0
    5.7990  -10.1200    0.0000 C   0  0  0  0  0  0  0  0  0  0  0  0
    6.5134   -9.7075    0.0000 C   0  0  0  0  0  0  0  0  0  0  0  0
    6.5134   -8.8825    0.0000 C   0  0  2  0  0  0  0  0  0  0  0  0
    5.7990   -8.4700    0.0000 C   0  0  2  0  0  0  0  0  0  0  0  0
    7.2279   -8.4700    0.0000 C   0  0  2  0  0  0  0  0  0  0  0  0
    7.2279   -7.6450    0.0000 C   0  0  2  0  0  0  0  0  0  0  0  0
    6.5134   -7.2325    0.0000 C   0  0  0  0  0  0  0  0  0  0  0  0
    5.7990   -7.6450    0.0000 C   0  0  0  0  0  0  0  0  0  0  0  0
    8.0125   -8.7249    0.0000 C   0  0  0  0  0  0  0  0  0  0  0  0
    8.4975   -8.0575    0.0000 C   0  0  1  0  0  0  0  0  0  0  0  0
    8.0125   -7.3901    0.0000 C   0  0  2  0  0  0  0  0  0  0  0  0
    8.2675   -6.6054    0.0000 C   0  0  0  0  0  0  0  0  0  0  0  0
    9.0744   -6.4339    0.0000 C   0  0  0  0  0  0  0  0  0  0  0  0
    9.3294   -5.6493    0.0000 C   0  0  0  0  0  0  0  0  0  0  0  0
    8.7773   -5.0362    0.0000 C   0  0  0  0  0  0  0  0  0  0  0  0
    7.9704   -5.2077    0.0000 O   0  0  0  0  0  0  0  0  0  0  0  0
    7.7154   -5.9923    0.0000 C   0  0  0  0  0  0  0  0  0  0  0  0
    9.0323   -4.2516    0.0000 O   0  0  0  0  0  0  0  0  0  0  0  0
    2.9411  -10.1200    0.0000 O   0  0  0  0  0  0  0  0  0  0  0  0
    5.0845   -8.0575    0.0000 C   0  0  0  0  0  0  0  0  0  0  0  0
    5.0845  -10.5325    0.0000 H   0  0  0  0  0  0  0  0  0  0  0  0
    7.3141   -6.8245    0.0000 C   0  0  0  0  0  0  0  0  0  0  0  0
    7.3141   -9.2905    0.0000 O   0  0  0  0  0  0  0  0  0  0  0  0
    9.3225   -8.0575    0.0000 O   0  0  0  0  0  0  0  0  0  0  0  0
    4.3700   -7.6450    0.0000 O   0  0  0  0  0  0  0  0  0  0  0  0
    9.7350   -8.7720    0.0000 C   0  0  0  0  0  0  0  0  0  0  0  0
    9.3225   -9.4864    0.0000 O   0  0  0  0  0  0  0  0  0  0  0  0
   10.5600   -8.7720    0.0000 C   0  0  0  0  0  0  0  0  0  0  0  0
    5.7990   -9.2950    0.0000 H   0  0  0  0  0  0  0  0  0  0  0  0
    6.5134   -8.0575    0.0000 H   0  0  0  0  0  0  0  0  0  0  0  0
  1  2  1  0  0  0  0
  2  3  1  0  0  0  0
  3  4  1  0  0  0  0
  4  5  1  0  0  0  0
  5  6  1  0  0  0  0
  6  1  1  0  0  0  0
  4  7  1  0  0  0  0
  7  8  1  0  0  0  0
  8  9  1  0  0  0  0
  9 10  1  0  0  0  0
 10  5  1  0  0  0  0
  9 11  1  0  0  0  0
 11 12  1  0  0  0  0
 12 13  1  0  0  0  0
 13 14  1  0  0  0  0
 14 10  1  0  0  0  0
 11 15  1  0  0  0  0
 15 16  1  0  0  0  0
 16 17  1  0  0  0  0
 17 12  1  0  0  0  0
 17 18  1  1  0  0  0
 18 19  1  0  0  0  0
 19 20  2  0  0  0  0
 20 21  1  0  0  0  0
 21 22  1  0  0  0  0
 22 23  1  0  0  0  0
 23 18  2  0  0  0  0
 21 24  2  0  0  0  0
  2 25  1  1  0  0  0
  5 26  1  1  0  0  0
  4 27  1  1  0  0  0
 12 28  1  1  0  0  0
 11 29  1  1  0  0  0
 16 30  1  1  0  0  0
 26 31  1  0  0  0  0
 30 32  1  0  0  0  0
 32 33  2  0  0  0  0
 32 34  1  0  0  0  0
 10 35  1  6  0  0  0
  9 36  1  1  0  0  0
M  END
>  <cdx:fragmentId>
5

$$$$
