93909.cdx
  Mrv1902 05222410202D          

  9  8  0  0  0  0            999 V2000
    4.4250   -7.6450    0.0000 C   0  0  0  0  0  0  0  0  0  0  0  0
    5.1395   -7.2325    0.0000 C   0  0  0  0  0  0  0  0  0  0  0  0
    5.8540   -7.6450    0.0000 C   0  0  0  0  0  0  0  0  0  0  0  0
    6.5684   -7.2325    0.0000 S   0  0  0  0  0  0  0  0  0  0  0  0
    5.8540   -8.4700    0.0000 C   0  0  0  0  0  0  0  0  0  0  0  0
    7.2829   -7.6450    0.0000 S   0  0  0  0  0  0  0  0  0  0  0  0
    7.9974   -7.2325    0.0000 C   0  0  0  0  0  0  0  0  0  0  0  0
    8.7119   -7.6450    0.0000 C   0  0  0  0  0  0  0  0  0  0  0  0
    9.4263   -7.2325    0.0000 C   0  0  0  0  0  0  0  0  0  0  0  0
  1  2  1  0  0  0  0
  2  3  1  0  0  0  0
  3  4  1  0  0  0  0
  3  5  1  0  0  0  0
  4  6  1  0  0  0  0
  6  7  1  0  0  0  0
  7  8  2  0  0  0  0
  8  9  1  0  0  0  0
M  END
>  <cdx:fragmentId>
3

$$$$
