93903.cdx
  Mrv1902 05222410272D          

 25 24  0  0  0  0            999 V2000
   12.6084   -7.9249    0.0000 O   0  0  0  0  0  0  0  0  0  0  0  0
   11.8939   -7.5124    0.0000 C   0  0  0  0  0  0  0  0  0  0  0  0
   11.1795   -7.9249    0.0000 C   0  0  0  0  0  0  0  0  0  0  0  0
   11.8939   -6.6874    0.0000 O   0  0  0  0  0  0  0  0  0  0  0  0
   10.4650   -7.5124    0.0000 C   0  0  0  0  0  0  0  0  0  0  0  0
    9.7505   -7.9249    0.0000 C   0  0  0  0  0  0  0  0  0  0  0  0
    6.1761   -7.5124    0.0000 C   0  0  0  0  0  0  0  0  0  0  0  0
    5.4616   -7.9249    0.0000 C   0  0  0  0  0  0  0  0  0  0  0  0
    4.7471   -7.5124    0.0000 N   0  0  0  0  0  0  0  0  0  0  0  0
    5.4616   -8.7499    0.0000 O   0  0  0  0  0  0  0  0  0  0  0  0
    4.0326   -7.9249    0.0000 C   0  0  2  0  0  0  0  0  0  0  0  0
    3.3182   -7.5124    0.0000 C   0  0  0  0  0  0  0  0  0  0  0  0
    2.6037   -7.9249    0.0000 O   0  0  0  0  0  0  0  0  0  0  0  0
    3.3182   -6.6874    0.0000 O   0  0  0  0  0  0  0  0  0  0  0  0
    4.0326   -8.7499    0.0000 C   0  0  0  0  0  0  0  0  0  0  0  0
    3.3182   -9.1624    0.0000 C   0  0  0  0  0  0  0  0  0  0  0  0
    3.3182   -9.9874    0.0000 C   0  0  0  0  0  0  0  0  0  0  0  0
    2.6037  -10.3999    0.0000 N   0  0  0  0  0  0  0  0  0  0  0  0
    2.6037  -11.2249    0.0000 C   0  0  0  0  0  0  0  0  0  0  0  0
    3.3182  -11.6374    0.0000 N   0  0  0  0  0  0  0  0  0  0  0  0
    1.8892  -11.6374    0.0000 N   0  0  0  0  0  0  0  0  0  0  0  0
    9.0361   -7.5124    0.0000 C   0  0  0  0  0  0  0  0  0  0  0  0
    8.3216   -7.9249    0.0000 C   0  0  0  0  0  0  0  0  0  0  0  0
    7.6071   -7.5124    0.0000 C   0  0  0  0  0  0  0  0  0  0  0  0
    6.8926   -7.9249    0.0000 C   0  0  0  0  0  0  0  0  0  0  0  0
  1  2  1  0  0  0  0
  2  3  1  0  0  0  0
  2  4  2  0  0  0  0
  3  5  1  0  0  0  0
  5  6  1  0  0  0  0
  7  8  1  0  0  0  0
  8  9  1  0  0  0  0
  8 10  2  0  0  0  0
 11  9  1  1  0  0  0
 11 12  1  0  0  0  0
 12 13  1  0  0  0  0
 12 14  2  0  0  0  0
 11 15  1  0  0  0  0
 15 16  1  0  0  0  0
 16 17  1  0  0  0  0
 17 18  1  0  0  0  0
 18 19  2  0  0  0  0
 19 20  1  0  0  0  0
 19 21  1  0  0  0  0
  6 22  1  0  0  0  0
 22 23  1  0  0  0  0
 23 24  1  0  0  0  0
 24 25  1  0  0  0  0
  7 25  1  0  0  0  0
M  END
>  <cdx:fragmentId>
98

$$$$
