93911.cdx
  Mrv1902 05222410262D          

 39 41  0  0  0  0            999 V2000
    1.7718   -8.7450    0.0000 C   0  0  0  0  0  0  0  0  0  0  0  0
    1.7718   -9.5700    0.0000 C   0  0  0  0  0  0  0  0  0  0  0  0
    2.4863   -9.9825    0.0000 C   0  0  0  0  0  0  0  0  0  0  0  0
    3.2007   -9.5700    0.0000 C   0  0  0  0  0  0  0  0  0  0  0  0
    3.2007   -8.7450    0.0000 C   0  0  0  0  0  0  0  0  0  0  0  0
    2.4863   -8.3325    0.0000 C   0  0  0  0  0  0  0  0  0  0  0  0
    1.0573   -8.3325    0.0000 O   0  0  0  0  0  0  0  0  0  0  0  0
    1.0573   -9.9825    0.0000 O   0  0  0  0  0  0  0  0  0  0  0  0
    0.3429   -9.5700    0.0000 C   0  0  0  0  0  0  0  0  0  0  0  0
    3.9152   -9.9825    0.0000 C   0  0  2  0  0  0  0  0  0  0  0  0
    4.6297   -9.5700    0.0000 C   0  0  2  0  0  0  0  0  0  0  0  0
    4.6297   -8.7450    0.0000 O   0  0  0  0  0  0  0  0  0  0  0  0
    5.3442   -9.9825    0.0000 C   0  0  0  0  0  0  0  0  0  0  0  0
    6.0586   -8.7450    0.0000 C   0  0  0  0  0  0  0  0  0  0  0  0
    5.3442   -8.3325    0.0000 C   0  0  0  0  0  0  0  0  0  0  0  0
    3.9152  -10.8075    0.0000 O   0  0  0  0  0  0  0  0  0  0  0  0
    5.3442  -10.8075    0.0000 O   0  0  0  0  0  0  0  0  0  0  0  0
    6.7731   -8.3325    0.0000 C   0  0  0  0  0  0  0  0  0  0  0  0
    6.7731   -7.5075    0.0000 C   0  0  0  0  0  0  0  0  0  0  0  0
    6.0586   -7.0950    0.0000 C   0  0  0  0  0  0  0  0  0  0  0  0
    5.3442   -7.5075    0.0000 C   0  0  0  0  0  0  0  0  0  0  0  0
    8.2020   -7.5075    0.0000 C   0  0  0  0  0  0  0  0  0  0  0  0
    7.4876   -7.0950    0.0000 C   0  0  0  0  0  0  0  0  0  0  0  0
    9.6310   -7.5075    0.0000 O   0  0  0  0  0  0  0  0  0  0  0  0
    8.9165   -7.0950    0.0000 C   0  0  0  0  0  0  0  0  0  0  0  0
   11.0599   -8.3325    0.0000 C   0  0  0  0  0  0  0  0  0  0  0  0
   11.0599   -7.5075    0.0000 C   0  0  0  0  0  0  0  0  0  0  0  0
   10.3455   -7.0950    0.0000 C   0  0  0  0  0  0  0  0  0  0  0  0
   11.7744   -8.7450    0.0000 C   0  0  0  0  0  0  0  0  0  0  0  0
   12.4889   -8.3325    0.0000 C   0  0  0  0  0  0  0  0  0  0  0  0
   11.7744   -9.5700    0.0000 C   0  0  0  0  0  0  0  0  0  0  0  0
   12.4889   -9.9825    0.0000 C   0  0  0  0  0  0  0  0  0  0  0  0
   13.2033   -9.5700    0.0000 C   0  0  0  0  0  0  0  0  0  0  0  0
   13.2033   -8.7450    0.0000 C   0  0  0  0  0  0  0  0  0  0  0  0
   12.4889  -10.8075    0.0000 O   0  0  0  0  0  0  0  0  0  0  0  0
   13.2033  -11.2200    0.0000 C   0  0  0  0  0  0  0  0  0  0  0  0
   13.9178   -9.9825    0.0000 O   0  0  0  0  0  0  0  0  0  0  0  0
    4.6297   -7.0950    0.0000 O   0  0  0  0  0  0  0  0  0  0  0  0
   10.3455   -6.2700    0.0000 O   0  0  0  0  0  0  0  0  0  0  0  0
  1  2  2  0  0  0  0
  2  3  1  0  0  0  0
  3  4  2  0  0  0  0
  4  5  1  0  0  0  0
  5  6  2  0  0  0  0
  6  1  1  0  0  0  0
  1  7  1  0  0  0  0
  2  8  1  0  0  0  0
  8  9  1  0  0  0  0
  4 10  1  0  0  0  0
 10 11  1  0  0  0  0
 11 12  1  6  0  0  0
 11 13  1  0  0  0  0
 14 15  2  0  0  0  0
 15 12  1  0  0  0  0
 10 16  1  6  0  0  0
 17 13  1  0  0  0  0
 14 18  1  0  0  0  0
 18 19  2  0  0  0  0
 19 20  1  0  0  0  0
 20 21  2  0  0  0  0
 21 15  1  0  0  0  0
 22 23  1  0  0  0  0
 23 19  1  0  0  0  0
 24 25  1  0  0  0  0
 25 22  1  0  0  0  0
 26 27  2  0  0  0  0
 27 28  1  0  0  0  0
 28 24  1  0  0  0  0
 26 29  1  0  0  0  0
 29 30  2  0  0  0  0
 29 31  1  0  0  0  0
 31 32  2  0  0  0  0
 32 33  1  0  0  0  0
 33 34  2  0  0  0  0
 34 30  1  0  0  0  0
 32 35  1  0  0  0  0
 35 36  1  0  0  0  0
 37 33  1  0  0  0  0
 21 38  1  0  0  0  0
 28 39  2  0  0  0  0
M  END
>  <cdx:fragmentId>
5

$$$$
