93914.cdx
  Mrv1902 05222410282D          

 28 29  0  0  0  0            999 V2000
    4.3568   -8.4013    0.0000 C   0  0  0  0  0  0  0  0  0  0  0  0
    4.3568   -9.2263    0.0000 C   0  0  0  0  0  0  0  0  0  0  0  0
    5.0713   -9.6387    0.0000 C   0  0  0  0  0  0  0  0  0  0  0  0
    5.7857   -9.2263    0.0000 C   0  0  0  0  0  0  0  0  0  0  0  0
    5.7857   -8.4013    0.0000 C   0  0  0  0  0  0  0  0  0  0  0  0
    5.0713   -7.9888    0.0000 C   0  0  0  0  0  0  0  0  0  0  0  0
    3.6423   -7.9888    0.0000 O   0  0  0  0  0  0  0  0  0  0  0  0
    5.0713   -7.1638    0.0000 C   0  0  0  0  0  0  0  0  0  0  0  0
    6.5002   -7.9888    0.0000 O   0  0  0  0  0  0  0  0  0  0  0  0
    5.0713  -10.4637    0.0000 O   0  0  0  0  0  0  0  0  0  0  0  0
    4.3568  -10.8762    0.0000 C   0  0  0  0  0  0  0  0  0  0  0  0
    6.5002   -9.6387    0.0000 C   0  0  0  0  0  0  0  0  0  0  0  0
    7.2147   -9.2263    0.0000 C   0  0  0  0  0  0  0  0  0  0  0  0
    6.5002  -10.4637    0.0000 O   0  0  0  0  0  0  0  0  0  0  0  0
    7.9292   -9.6387    0.0000 C   0  0  0  0  0  0  0  0  0  0  0  0
    8.6436   -9.2263    0.0000 C   0  0  0  0  0  0  0  0  0  0  0  0
    9.3581   -9.6387    0.0000 C   0  0  0  0  0  0  0  0  0  0  0  0
   10.0726   -9.2263    0.0000 C   0  0  0  0  0  0  0  0  0  0  0  0
   10.0726   -8.4013    0.0000 C   0  0  0  0  0  0  0  0  0  0  0  0
    9.3581   -7.9888    0.0000 C   0  0  0  0  0  0  0  0  0  0  0  0
    8.6436   -8.4013    0.0000 C   0  0  0  0  0  0  0  0  0  0  0  0
   10.7870   -7.9888    0.0000 O   0  0  0  0  0  0  0  0  0  0  0  0
    4.3568   -6.7512    0.0000 C   0  0  0  0  0  0  0  0  0  0  0  0
    4.3568   -5.9262    0.0000 C   0  0  0  0  0  0  0  0  0  0  0  0
    3.6423   -5.5137    0.0000 C   0  0  0  0  0  0  0  0  0  0  0  0
    5.0713   -5.5137    0.0000 C   0  0  0  0  0  0  0  0  0  0  0  0
    4.3568   -5.1013    0.0000 O   0  0  0  0  0  0  0  0  0  0  0  0
    3.6423   -7.1638    0.0000 O   0  0  0  0  0  0  0  0  0  0  0  0
  1  2  2  0  0  0  0
  2  3  1  0  0  0  0
  3  4  2  0  0  0  0
  4  5  1  0  0  0  0
  5  6  2  0  0  0  0
  6  1  1  0  0  0  0
  1  7  1  0  0  0  0
  6  8  1  0  0  0  0
  5  9  1  0  0  0  0
  3 10  1  0  0  0  0
 10 11  1  0  0  0  0
  4 12  1  0  0  0  0
 12 13  1  0  0  0  0
 12 14  2  0  0  0  0
 13 15  2  0  0  0  0
 15 16  1  0  0  0  0
 16 17  2  0  0  0  0
 17 18  1  0  0  0  0
 18 19  2  0  0  0  0
 19 20  1  0  0  0  0
 20 21  2  0  0  0  0
 21 16  1  0  0  0  0
 19 22  1  0  0  0  0
  8 23  1  0  0  0  0
 23 24  1  0  0  0  0
 24 25  1  0  0  0  0
 24 26  1  0  0  0  0
 24 27  1  0  0  0  0
 23 28  1  0  0  0  0
M  END
>  <cdx:fragmentId>
5

$$$$
