93912.cdx
  Mrv1902 05222410262D          

 72 73  0  0  0  0            999 V2000
    5.5122   -8.1545    0.0000 C   0  0  0  0  0  0  0  0  0  0  0  0
    6.2303   -7.7483    0.0000 C   0  0  0  0  0  0  0  0  0  0  0  0
    6.9411   -8.1670    0.0000 C   0  0  0  0  0  0  0  0  0  0  0  0
    7.6592   -7.7607    0.0000 C   0  0  0  0  0  0  0  0  0  0  0  0
    8.3700   -8.1795    0.0000 C   0  0  0  0  0  0  0  0  0  0  0  0
    9.0881   -7.7732    0.0000 C   0  0  0  0  0  0  0  0  0  0  0  0
    9.7989   -8.1919    0.0000 C   0  0  0  0  0  0  0  0  0  0  0  0
   10.5169   -7.7857    0.0000 C   0  0  0  0  0  0  0  0  0  0  0  0
   11.2278   -8.2044    0.0000 C   0  0  0  0  0  0  0  0  0  0  0  0
   11.9458   -7.7982    0.0000 C   0  0  0  0  0  0  0  0  0  0  0  0
   12.6567   -8.2169    0.0000 C   0  0  0  0  0  0  0  0  0  0  0  0
   13.3747   -7.8106    0.0000 C   0  0  0  0  0  0  0  0  0  0  0  0
   14.0856   -8.2294    0.0000 C   0  0  0  0  0  0  0  0  0  0  0  0
   14.8036   -7.8231    0.0000 C   0  0  0  0  0  0  0  0  0  0  0  0
   15.5145   -8.2418    0.0000 C   0  0  0  0  0  0  0  0  0  0  0  0
   16.2325   -7.8356    0.0000 C   0  0  0  0  0  0  0  0  0  0  0  0
   16.9433   -8.2543    0.0000 C   0  0  0  0  0  0  0  0  0  0  0  0
   17.6614   -7.8481    0.0000 C   0  0  0  0  0  0  0  0  0  0  0  0
   18.3722   -8.2668    0.0000 C   0  0  0  0  0  0  0  0  0  0  0  0
   19.0903   -7.8605    0.0000 C   0  0  0  0  0  0  0  0  0  0  0  0
    7.6664   -6.9358    0.0000 C   0  0  0  0  0  0  0  0  0  0  0  0
   10.5241   -6.9607    0.0000 C   0  0  0  0  0  0  0  0  0  0  0  0
   14.0784   -9.0543    0.0000 C   0  0  0  0  0  0  0  0  0  0  0  0
   16.9361   -9.0793    0.0000 C   0  0  0  0  0  0  0  0  0  0  0  0
    4.8014   -7.7358    0.0000 C   0  0  0  0  0  0  0  0  0  0  0  0
    4.0834   -8.1420    0.0000 C   0  0  0  0  0  0  0  0  0  0  0  0
    4.0761   -8.9670    0.0000 C   0  0  1  0  0  0  0  0  0  0  0  0
    4.7870   -9.3857    0.0000 C   0  0  0  0  0  0  0  0  0  0  0  0
    5.5050   -8.9795    0.0000 C   0  0  0  0  0  0  0  0  0  0  0  0
    6.2159   -9.3982    0.0000 C   0  0  0  0  0  0  0  0  0  0  0  0
    4.3151   -7.0693    0.0000 C   0  0  0  0  0  0  0  0  0  0  0  0
    5.4679   -7.2495    0.0000 C   0  0  0  0  0  0  0  0  0  0  0  0
    3.3546  -10.1983    0.0000 C   0  0  0  0  0  0  0  0  0  0  0  0
    2.6384  -10.6077    0.0000 O   0  0  0  0  0  0  0  0  0  0  0  0
   12.5845  -10.6506    0.0000 C   0  0  0  0  0  0  0  0  0  0  0  0
   11.8723  -10.2342    0.0000 C   0  0  0  0  0  0  0  0  0  0  0  0
   19.8011   -8.2792    0.0000 C   0  0  0  0  0  0  0  0  0  0  0  0
   20.5192   -7.8730    0.0000 C   0  0  0  0  0  0  0  0  0  0  0  0
   20.5264   -7.0480    0.0000 C   0  0  1  0  0  0  0  0  0  0  0  0
   19.8155   -6.6293    0.0000 C   0  0  0  0  0  0  0  0  0  0  0  0
   19.0975   -7.0356    0.0000 C   0  0  0  0  0  0  0  0  0  0  0  0
   18.3866   -6.6168    0.0000 C   0  0  0  0  0  0  0  0  0  0  0  0
   19.2832   -8.9214    0.0000 C   0  0  0  0  0  0  0  0  0  0  0  0
   20.2874   -8.9457    0.0000 C   0  0  0  0  0  0  0  0  0  0  0  0
   21.2748   -5.8173    0.0000 C   0  0  0  0  0  0  0  0  0  0  0  0
   22.0040   -5.4315    0.0000 O   0  0  0  0  0  0  0  0  0  0  0  0
   12.0327   -5.3743    0.0000 C   0  0  0  0  0  0  0  0  0  0  0  0
   12.7451   -5.7905    0.0000 C   0  0  0  0  0  0  0  0  0  0  0  0
   13.4617   -5.3817    0.0000 C   0  0  0  0  0  0  0  0  0  0  0  0
   14.1740   -5.7979    0.0000 C   0  0  0  0  0  0  0  0  0  0  0  0
   14.8906   -5.3891    0.0000 C   0  0  0  0  0  0  0  0  0  0  0  0
   15.6029   -5.8053    0.0000 C   0  0  0  0  0  0  0  0  0  0  0  0
   16.3195   -5.3964    0.0000 C   0  0  0  0  0  0  0  0  0  0  0  0
   17.0319   -5.8126    0.0000 C   0  0  0  0  0  0  0  0  0  0  0  0
   17.7484   -5.4038    0.0000 C   0  0  0  0  0  0  0  0  0  0  0  0
   18.4608   -5.8200    0.0000 C   0  0  0  0  0  0  0  0  0  0  0  0
   19.1774   -5.4112    0.0000 C   0  0  0  0  0  0  0  0  0  0  0  0
   19.8897   -5.8274    0.0000 C   0  0  0  0  0  0  0  0  0  0  0  0
   20.5761   -5.3788    0.0000 C   0  0  0  0  0  0  0  0  0  0  0  0
   11.1556  -10.6429    0.0000 C   0  0  0  0  0  0  0  0  0  0  0  0
   10.4433  -10.2265    0.0000 C   0  0  0  0  0  0  0  0  0  0  0  0
    9.7267  -10.6352    0.0000 C   0  0  0  0  0  0  0  0  0  0  0  0
    9.0144  -10.2188    0.0000 C   0  0  0  0  0  0  0  0  0  0  0  0
    8.2977  -10.6275    0.0000 C   0  0  0  0  0  0  0  0  0  0  0  0
    7.5855  -10.2111    0.0000 C   0  0  0  0  0  0  0  0  0  0  0  0
    6.8688  -10.6197    0.0000 C   0  0  0  0  0  0  0  0  0  0  0  0
    6.1566  -10.2034    0.0000 C   0  0  0  0  0  0  0  0  0  0  0  0
    5.4399  -10.6120    0.0000 C   0  0  0  0  0  0  0  0  0  0  0  0
    4.7276  -10.1957    0.0000 C   0  0  0  0  0  0  0  0  0  0  0  0
    4.0673  -10.6138    0.0000 C   0  0  0  0  0  0  0  0  0  0  0  0
    3.3581   -9.3733    0.0000 O   0  0  0  0  0  0  0  0  0  0  0  0
   21.2444   -6.6418    0.0000 O   0  0  0  0  0  0  0  0  0  0  0  0
  1  2  1  0  0  0  0
  2  3  2  0  0  0  0
  3  4  1  0  0  0  0
  4  5  2  0  0  0  0
  5  6  1  0  0  0  0
  6  7  2  0  0  0  0
  7  8  1  0  0  0  0
  8  9  2  0  0  0  0
  9 10  1  0  0  0  0
 10 11  2  0  0  0  0
 11 12  1  0  0  0  0
 12 13  2  0  0  0  0
 13 14  1  0  0  0  0
 14 15  2  0  0  0  0
 15 16  1  0  0  0  0
 16 17  2  0  0  0  0
 17 18  1  0  0  0  0
 18 19  2  0  0  0  0
 19 20  1  0  0  0  0
  4 21  1  0  0  0  0
  8 22  1  0  0  0  0
 13 23  1  0  0  0  0
 17 24  1  0  0  0  0
  1 25  1  0  0  0  0
 25 26  1  0  0  0  0
 26 27  1  0  0  0  0
 27 28  1  0  0  0  0
 28 29  1  0  0  0  0
 29  1  2  0  0  0  0
 29 30  1  0  0  0  0
 25 31  1  0  0  0  0
 25 32  1  0  0  0  0
 27 71  1  1  0  0  0
 69 70  1  0  0  0  0
 33 70  1  0  0  0  0
 33 34  2  0  0  0  0
 20 37  1  0  0  0  0
 37 38  1  0  0  0  0
 38 39  1  0  0  0  0
 39 40  1  0  0  0  0
 40 41  1  0  0  0  0
 41 20  2  0  0  0  0
 41 42  1  0  0  0  0
 37 43  1  0  0  0  0
 37 44  1  0  0  0  0
 39 72  1  1  0  0  0
 58 59  1  0  0  0  0
 45 59  1  0  0  0  0
 45 46  2  0  0  0  0
 48 47  1  0  0  0  0
 49 48  1  0  0  0  0
 50 49  1  0  0  0  0
 51 50  1  0  0  0  0
 52 51  1  0  0  0  0
 53 52  1  0  0  0  0
 54 53  1  0  0  0  0
 55 54  1  0  0  0  0
 56 55  1  0  0  0  0
 57 56  1  0  0  0  0
 58 57  1  0  0  0  0
 72 45  1  0  0  0  0
 35 36  1  0  0  0  0
 36 60  1  0  0  0  0
 60 61  1  0  0  0  0
 61 62  1  0  0  0  0
 62 63  1  0  0  0  0
 63 64  1  0  0  0  0
 64 65  1  0  0  0  0
 65 66  1  0  0  0  0
 66 67  1  0  0  0  0
 67 68  1  0  0  0  0
 68 69  1  0  0  0  0
 71 33  1  0  0  0  0
M  END
>  <cdx:fragmentId>
3

$$$$
