93910.cdx
  Mrv1902 05222410262D          

 39 41  0  0  0  0            999 V2000
    1.7357   -9.5316    0.0000 C   0  0  0  0  0  0  0  0  0  0  0  0
    1.7357  -10.3566    0.0000 C   0  0  0  0  0  0  0  0  0  0  0  0
    2.4502  -10.7691    0.0000 C   0  0  0  0  0  0  0  0  0  0  0  0
    3.1647  -10.3566    0.0000 C   0  0  0  0  0  0  0  0  0  0  0  0
    3.1647   -9.5316    0.0000 C   0  0  0  0  0  0  0  0  0  0  0  0
    2.4502   -9.1191    0.0000 C   0  0  0  0  0  0  0  0  0  0  0  0
    1.0212   -9.1191    0.0000 O   0  0  0  0  0  0  0  0  0  0  0  0
    1.0212  -10.7691    0.0000 O   0  0  0  0  0  0  0  0  0  0  0  0
    0.3068  -10.3566    0.0000 C   0  0  0  0  0  0  0  0  0  0  0  0
    3.8791  -10.7691    0.0000 C   0  0  1  0  0  0  0  0  0  0  0  0
    4.5936  -10.3566    0.0000 C   0  0  2  0  0  0  0  0  0  0  0  0
    4.5936   -9.5316    0.0000 O   0  0  0  0  0  0  0  0  0  0  0  0
    5.3081  -10.7691    0.0000 C   0  0  0  0  0  0  0  0  0  0  0  0
    6.0225   -9.5316    0.0000 C   0  0  0  0  0  0  0  0  0  0  0  0
    5.3081   -9.1191    0.0000 C   0  0  0  0  0  0  0  0  0  0  0  0
    3.8791  -11.5941    0.0000 O   0  0  0  0  0  0  0  0  0  0  0  0
    5.3081  -11.5941    0.0000 O   0  0  0  0  0  0  0  0  0  0  0  0
    6.7370   -9.1191    0.0000 C   0  0  0  0  0  0  0  0  0  0  0  0
    6.7370   -8.2941    0.0000 C   0  0  0  0  0  0  0  0  0  0  0  0
    6.0225   -7.8816    0.0000 C   0  0  0  0  0  0  0  0  0  0  0  0
    5.3081   -8.2941    0.0000 C   0  0  0  0  0  0  0  0  0  0  0  0
    8.1659   -8.2941    0.0000 C   0  0  0  0  0  0  0  0  0  0  0  0
    7.4515   -7.8816    0.0000 C   0  0  0  0  0  0  0  0  0  0  0  0
    9.5949   -8.2941    0.0000 O   0  0  0  0  0  0  0  0  0  0  0  0
    8.8804   -7.8816    0.0000 C   0  0  0  0  0  0  0  0  0  0  0  0
   11.0238   -9.1191    0.0000 C   0  0  0  0  0  0  0  0  0  0  0  0
   11.0238   -8.2941    0.0000 C   0  0  0  0  0  0  0  0  0  0  0  0
   10.3094   -7.8816    0.0000 C   0  0  0  0  0  0  0  0  0  0  0  0
   11.7383   -9.5316    0.0000 C   0  0  0  0  0  0  0  0  0  0  0  0
   12.4528   -9.1191    0.0000 C   0  0  0  0  0  0  0  0  0  0  0  0
   11.7383  -10.3566    0.0000 C   0  0  0  0  0  0  0  0  0  0  0  0
   12.4528  -10.7691    0.0000 C   0  0  0  0  0  0  0  0  0  0  0  0
   13.1672  -10.3566    0.0000 C   0  0  0  0  0  0  0  0  0  0  0  0
   13.1672   -9.5316    0.0000 C   0  0  0  0  0  0  0  0  0  0  0  0
   12.4528  -11.5941    0.0000 O   0  0  0  0  0  0  0  0  0  0  0  0
   13.1672  -12.0066    0.0000 C   0  0  0  0  0  0  0  0  0  0  0  0
   13.8817  -10.7691    0.0000 O   0  0  0  0  0  0  0  0  0  0  0  0
    4.5936   -7.8816    0.0000 O   0  0  0  0  0  0  0  0  0  0  0  0
   10.3094   -7.0566    0.0000 O   0  0  0  0  0  0  0  0  0  0  0  0
  1  2  2  0  0  0  0
  2  3  1  0  0  0  0
  3  4  2  0  0  0  0
  4  5  1  0  0  0  0
  5  6  2  0  0  0  0
  6  1  1  0  0  0  0
  1  7  1  0  0  0  0
  2  8  1  0  0  0  0
  8  9  1  0  0  0  0
  4 10  1  0  0  0  0
 10 11  1  0  0  0  0
 11 12  1  6  0  0  0
 11 13  1  0  0  0  0
 14 15  2  0  0  0  0
 15 12  1  0  0  0  0
 10 16  1  1  0  0  0
 17 13  1  0  0  0  0
 14 18  1  0  0  0  0
 18 19  2  0  0  0  0
 19 20  1  0  0  0  0
 20 21  2  0  0  0  0
 21 15  1  0  0  0  0
 22 23  1  0  0  0  0
 23 19  1  0  0  0  0
 24 25  1  0  0  0  0
 25 22  1  0  0  0  0
 26 27  2  0  0  0  0
 27 28  1  0  0  0  0
 28 24  1  0  0  0  0
 26 29  1  0  0  0  0
 29 30  2  0  0  0  0
 29 31  1  0  0  0  0
 31 32  2  0  0  0  0
 32 33  1  0  0  0  0
 33 34  2  0  0  0  0
 34 30  1  0  0  0  0
 32 35  1  0  0  0  0
 35 36  1  0  0  0  0
 37 33  1  0  0  0  0
 21 38  1  0  0  0  0
 28 39  2  0  0  0  0
M  END
>  <cdx:fragmentId>
200

$$$$
