93913.cdx
  Mrv1902 05222410272D          

 55 56  0  0  0  0            999 V2000
    5.7389  -11.2617    0.0000 C   0  0  0  0  0  0  0  0  0  0  0  0
    6.4549  -10.8520    0.0000 C   0  0  0  0  0  0  0  0  0  0  0  0
    7.1678  -11.2673    0.0000 C   0  0  0  0  0  0  0  0  0  0  0  0
    7.8839  -10.8577    0.0000 C   0  0  0  0  0  0  0  0  0  0  0  0
    8.5967  -11.2730    0.0000 C   0  0  0  0  0  0  0  0  0  0  0  0
    9.3128  -10.8633    0.0000 C   0  0  0  0  0  0  0  0  0  0  0  0
   10.0257  -11.2786    0.0000 C   0  0  0  0  0  0  0  0  0  0  0  0
   10.7417  -10.8689    0.0000 C   0  0  0  0  0  0  0  0  0  0  0  0
   11.4546  -11.2842    0.0000 C   0  0  0  0  0  0  0  0  0  0  0  0
   12.1707  -10.8745    0.0000 C   0  0  0  0  0  0  0  0  0  0  0  0
   12.8835  -11.2898    0.0000 C   0  0  0  0  0  0  0  0  0  0  0  0
   13.5996  -10.8801    0.0000 C   0  0  0  0  0  0  0  0  0  0  0  0
   14.3125  -11.2954    0.0000 C   0  0  0  0  0  0  0  0  0  0  0  0
   15.0285  -10.8857    0.0000 C   0  0  0  0  0  0  0  0  0  0  0  0
   15.7414  -11.3010    0.0000 C   0  0  0  0  0  0  0  0  0  0  0  0
   16.4575  -10.8913    0.0000 C   0  0  0  0  0  0  0  0  0  0  0  0
   17.1703  -11.3066    0.0000 C   0  0  0  0  0  0  0  0  0  0  0  0
   17.8864  -10.8969    0.0000 C   0  0  0  0  0  0  0  0  0  0  0  0
   18.5992  -11.3122    0.0000 C   0  0  0  0  0  0  0  0  0  0  0  0
   19.3153  -10.9025    0.0000 C   0  0  0  0  0  0  0  0  0  0  0  0
    7.8871  -10.0327    0.0000 C   0  0  0  0  0  0  0  0  0  0  0  0
   10.7450  -10.0439    0.0000 C   0  0  0  0  0  0  0  0  0  0  0  0
   14.3092  -12.1204    0.0000 C   0  0  0  0  0  0  0  0  0  0  0  0
   17.1671  -12.1316    0.0000 C   0  0  0  0  0  0  0  0  0  0  0  0
    5.0260  -10.8464    0.0000 C   0  0  0  0  0  0  0  0  0  0  0  0
    4.3099  -11.2561    0.0000 C   0  0  0  0  0  0  0  0  0  0  0  0
    4.3067  -12.0811    0.0000 C   0  0  1  0  0  0  0  0  0  0  0  0
    5.0195  -12.4964    0.0000 C   0  0  0  0  0  0  0  0  0  0  0  0
    5.7356  -12.0867    0.0000 C   0  0  0  0  0  0  0  0  0  0  0  0
    6.4485  -12.5020    0.0000 C   0  0  0  0  0  0  0  0  0  0  0  0
    3.5906  -12.4908    0.0000 O   0  0  0  0  0  0  0  0  0  0  0  0
   20.0282  -11.3178    0.0000 C   0  0  0  0  0  0  0  0  0  0  0  0
   20.7443  -10.9081    0.0000 C   0  0  0  0  0  0  0  0  0  0  0  0
   20.7475  -10.0831    0.0000 C   0  0  1  0  0  0  0  0  0  0  0  0
   20.0347   -9.6678    0.0000 C   0  0  0  0  0  0  0  0  0  0  0  0
   19.3186  -10.0775    0.0000 C   0  0  0  0  0  0  0  0  0  0  0  0
   18.6057   -9.6622    0.0000 C   0  0  0  0  0  0  0  0  0  0  0  0
   21.4900   -8.8489    0.0000 C   0  0  0  0  0  0  0  0  0  0  0  0
   22.2174   -8.4595    0.0000 O   0  0  0  0  0  0  0  0  0  0  0  0
   13.6758   -8.2931    0.0000 C   0  0  0  0  0  0  0  0  0  0  0  0
   14.3808   -8.7216    0.0000 C   0  0  0  0  0  0  0  0  0  0  0  0
   15.1044   -8.3253    0.0000 C   0  0  0  0  0  0  0  0  0  0  0  0
   15.8094   -8.7538    0.0000 C   0  0  0  0  0  0  0  0  0  0  0  0
   16.5330   -8.3574    0.0000 C   0  0  0  0  0  0  0  0  0  0  0  0
   17.2380   -8.7859    0.0000 C   0  0  0  0  0  0  0  0  0  0  0  0
   17.9615   -8.3896    0.0000 C   0  0  0  0  0  0  0  0  0  0  0  0
   18.6665   -8.8181    0.0000 C   0  0  0  0  0  0  0  0  0  0  0  0
   19.3901   -8.4218    0.0000 C   0  0  0  0  0  0  0  0  0  0  0  0
   20.0951   -8.8503    0.0000 C   0  0  0  0  0  0  0  0  0  0  0  0
   20.7892   -8.4137    0.0000 C   0  0  0  0  0  0  0  0  0  0  0  0
   21.4636   -9.6734    0.0000 O   0  0  0  0  0  0  0  0  0  0  0  0
    4.6135  -10.1320    0.0000 C   0  0  0  0  0  0  0  0  0  0  0  0
    5.4385  -10.1320    0.0000 C   0  0  0  0  0  0  0  0  0  0  0  0
   19.6157  -12.0323    0.0000 C   0  0  0  0  0  0  0  0  0  0  0  0
   20.4407  -12.0323    0.0000 C   0  0  0  0  0  0  0  0  0  0  0  0
  1  2  1  0  0  0  0
  2  3  2  0  0  0  0
  3  4  1  0  0  0  0
  4  5  2  0  0  0  0
  5  6  1  0  0  0  0
  6  7  2  0  0  0  0
  7  8  1  0  0  0  0
  8  9  2  0  0  0  0
  9 10  1  0  0  0  0
 10 11  2  0  0  0  0
 11 12  1  0  0  0  0
 12 13  2  0  0  0  0
 13 14  1  0  0  0  0
 14 15  2  0  0  0  0
 15 16  1  0  0  0  0
 16 17  2  0  0  0  0
 17 18  1  0  0  0  0
 18 19  2  0  0  0  0
 19 20  1  0  0  0  0
  4 21  1  0  0  0  0
  8 22  1  0  0  0  0
 13 23  1  0  0  0  0
 17 24  1  0  0  0  0
  1 25  1  0  0  0  0
 25 26  1  0  0  0  0
 26 27  1  0  0  0  0
 27 28  1  0  0  0  0
 28 29  1  0  0  0  0
 29  1  2  0  0  0  0
 29 30  1  0  0  0  0
 27 31  1  1  0  0  0
 20 32  1  0  0  0  0
 32 33  1  0  0  0  0
 33 34  1  0  0  0  0
 34 35  1  0  0  0  0
 35 36  1  0  0  0  0
 36 20  2  0  0  0  0
 36 37  1  0  0  0  0
 34 51  1  1  0  0  0
 49 50  1  0  0  0  0
 38 50  1  0  0  0  0
 38 39  2  0  0  0  0
 41 40  1  0  0  0  0
 42 41  1  0  0  0  0
 43 42  1  0  0  0  0
 44 43  1  0  0  0  0
 45 44  1  0  0  0  0
 46 45  1  0  0  0  0
 47 46  1  0  0  0  0
 48 47  1  0  0  0  0
 49 48  1  0  0  0  0
 51 38  1  0  0  0  0
 25 52  1  0  0  0  0
 25 53  1  0  0  0  0
 32 54  1  0  0  0  0
 32 55  1  0  0  0  0
M  END
>  <cdx:fragmentId>
3

$$$$
