93916.cdx
  Mrv1902 05222410272D          

 23 25  0  0  0  0            999 V2000
    4.3568   -8.4013    0.0000 C   0  0  0  0  0  0  0  0  0  0  0  0
    4.3568   -9.2263    0.0000 C   0  0  0  0  0  0  0  0  0  0  0  0
    5.0713   -9.6387    0.0000 C   0  0  0  0  0  0  0  0  0  0  0  0
    5.7857   -9.2263    0.0000 C   0  0  0  0  0  0  0  0  0  0  0  0
    5.7857   -8.4013    0.0000 C   0  0  0  0  0  0  0  0  0  0  0  0
    5.0713   -7.9888    0.0000 C   0  0  0  0  0  0  0  0  0  0  0  0
    3.6423   -7.9888    0.0000 O   0  0  0  0  0  0  0  0  0  0  0  0
    5.0713  -10.4637    0.0000 O   0  0  0  0  0  0  0  0  0  0  0  0
    4.3568  -10.8762    0.0000 C   0  0  0  0  0  0  0  0  0  0  0  0
    6.5002   -9.6387    0.0000 C   0  0  0  0  0  0  0  0  0  0  0  0
    7.2147   -9.2263    0.0000 C   0  0  0  0  0  0  0  0  0  0  0  0
    6.5002  -10.4637    0.0000 O   0  0  0  0  0  0  0  0  0  0  0  0
    7.9292   -9.6387    0.0000 C   0  0  0  0  0  0  0  0  0  0  0  0
    8.6436   -9.2263    0.0000 C   0  0  0  0  0  0  0  0  0  0  0  0
    9.3581   -9.6387    0.0000 C   0  0  0  0  0  0  0  0  0  0  0  0
   10.0726   -9.2263    0.0000 C   0  0  0  0  0  0  0  0  0  0  0  0
   10.0726   -8.4013    0.0000 C   0  0  0  0  0  0  0  0  0  0  0  0
    9.3581   -7.9888    0.0000 C   0  0  0  0  0  0  0  0  0  0  0  0
    8.6436   -8.4013    0.0000 C   0  0  0  0  0  0  0  0  0  0  0  0
   10.7870   -7.9888    0.0000 O   0  0  0  0  0  0  0  0  0  0  0  0
    6.3988   -7.8492    0.0000 O   0  0  0  0  0  0  0  0  0  0  0  0
    6.0633   -7.0955    0.0000 C   0  0  0  0  0  0  0  0  0  0  0  0
    5.2428   -7.1818    0.0000 C   0  0  0  0  0  0  0  0  0  0  0  0
  1  2  2  0  0  0  0
  2  3  1  0  0  0  0
  3  4  2  0  0  0  0
  4  5  1  0  0  0  0
  5  6  2  0  0  0  0
  6  1  1  0  0  0  0
  1  7  1  0  0  0  0
  3  8  1  0  0  0  0
  8  9  1  0  0  0  0
  4 10  1  0  0  0  0
 10 11  1  0  0  0  0
 10 12  2  0  0  0  0
 11 13  2  0  0  0  0
 13 14  1  0  0  0  0
 14 15  2  0  0  0  0
 15 16  1  0  0  0  0
 16 17  2  0  0  0  0
 17 18  1  0  0  0  0
 18 19  2  0  0  0  0
 19 14  1  0  0  0  0
 17 20  1  0  0  0  0
  5 21  1  0  0  0  0
 21 22  1  0  0  0  0
 22 23  2  0  0  0  0
 23  6  1  0  0  0  0
M  END
>  <cdx:fragmentId>
5

$$$$
