93918.cdx
  Mrv1902 05222410182D          

 89 98  0  0  0  0            999 V2000
   10.8058  -11.4125    0.0000 C   0  0  1  0  0  0  0  0  0  0  0  0
   10.8058  -10.5875    0.0000 C   0  0  0  0  0  0  0  0  0  0  0  0
   11.5203  -10.1750    0.0000 C   0  0  0  0  0  0  0  0  0  0  0  0
   11.5203  -11.8250    0.0000 C   0  0  0  0  0  0  0  0  0  0  0  0
   12.2347  -11.4125    0.0000 C   0  0  0  0  0  0  0  0  0  0  0  0
   12.9492  -11.8250    0.0000 C   0  0  0  0  0  0  0  0  0  0  0  0
   13.6637  -11.4125    0.0000 C   0  0  0  0  0  0  0  0  0  0  0  0
   13.6637  -10.5875    0.0000 C   0  0  1  0  0  0  0  0  0  0  0  0
   14.3782  -10.1750    0.0000 C   0  0  2  0  0  0  0  0  0  0  0  0
   15.1628  -10.4299    0.0000 C   0  0  0  0  0  0  0  0  0  0  0  0
   15.6477   -9.7625    0.0000 C   0  0  2  0  0  0  0  0  0  0  0  0
   16.1326  -10.4299    0.0000 H   0  0  0  0  0  0  0  0  0  0  0  0
   16.4323   -9.5076    0.0000 O   0  0  0  0  0  0  0  0  0  0  0  0
   15.1628   -9.0951    0.0000 C   0  0  2  0  0  0  0  0  0  0  0  0
   14.8011   -8.3536    0.0000 H   0  0  0  0  0  0  0  0  0  0  0  0
   15.6477   -8.4276    0.0000 C   0  0  1  0  0  0  0  0  0  0  0  0
   16.4323   -8.6826    0.0000 C   0  0  1  0  0  0  0  0  0  0  0  0
   17.2528   -8.5963    0.0000 C   0  0  0  0  0  0  0  0  0  0  0  0
   17.7377   -9.2638    0.0000 C   0  0  0  0  0  0  0  0  0  0  0  0
   18.5582   -9.1775    0.0000 C   0  0  2  0  0  0  0  0  0  0  0  0
   18.8938   -8.4238    0.0000 C   0  0  0  0  0  0  0  0  0  0  0  0
   19.0431   -9.8450    0.0000 C   0  0  0  0  0  0  0  0  0  0  0  0
   15.3928   -7.6430    0.0000 C   0  0  0  0  0  0  0  0  0  0  0  0
   14.3782   -9.3500    0.0000 C   0  0  2  0  0  0  0  0  0  0  0  0
   14.3782   -8.5250    0.0000 C   0  0  0  0  0  0  0  0  0  0  0  0
   13.6637   -8.9375    0.0000 C   0  0  0  0  0  0  0  0  0  0  0  0
   12.9492   -9.3500    0.0000 C   0  0  0  0  0  0  0  0  0  0  0  0
   12.9492  -10.1750    0.0000 C   0  0  2  0  0  0  0  0  0  0  0  0
   12.2347  -10.5875    0.0000 C   0  0  1  0  0  0  0  0  0  0  0  0
   12.2347   -9.7625    0.0000 C   0  0  0  0  0  0  0  0  0  0  0  0
   12.9492  -11.0000    0.0000 H   0  0  0  0  0  0  0  0  0  0  0  0
   13.6637   -9.7625    0.0000 H   0  0  0  0  0  0  0  0  0  0  0  0
   14.3782  -11.0000    0.0000 O   0  0  0  0  0  0  0  0  0  0  0  0
   10.0913  -11.8250    0.0000 O   0  0  0  0  0  0  0  0  0  0  0  0
   19.8636   -9.7587    0.0000 O   0  0  0  0  0  0  0  0  0  0  0  0
   20.3485  -10.4262    0.0000 C   0  0  2  0  0  0  0  0  0  0  0  0
   20.0130  -11.1798    0.0000 O   0  0  0  0  0  0  0  0  0  0  0  0
   20.4979  -11.8473    0.0000 C   0  0  1  0  0  0  0  0  0  0  0  0
   21.3184  -11.7610    0.0000 C   0  0  2  0  0  0  0  0  0  0  0  0
   21.6539  -11.0074    0.0000 C   0  0  1  0  0  0  0  0  0  0  0  0
   21.1690  -10.3399    0.0000 C   0  0  1  0  0  0  0  0  0  0  0  0
   20.1623  -12.6010    0.0000 C   0  0  0  0  0  0  0  0  0  0  0  0
   22.4744  -10.9211    0.0000 O   0  0  0  0  0  0  0  0  0  0  0  0
   21.5046   -9.5863    0.0000 O   0  0  0  0  0  0  0  0  0  0  0  0
   21.8033  -12.4285    0.0000 O   0  0  0  0  0  0  0  0  0  0  0  0
   20.6473  -13.2684    0.0000 O   0  0  0  0  0  0  0  0  0  0  0  0
   16.6458   -7.8857    0.0000 O   0  0  0  0  0  0  0  0  0  0  0  0
    9.3769  -11.4125    0.0000 C   0  0  2  0  0  0  0  0  0  0  0  0
    9.3769  -10.5875    0.0000 O   0  0  0  0  0  0  0  0  0  0  0  0
    8.6624  -10.1750    0.0000 C   0  0  1  0  0  0  0  0  0  0  0  0
    7.9479  -10.5875    0.0000 C   0  0  1  0  0  0  0  0  0  0  0  0
    7.9479  -11.4125    0.0000 C   0  0  1  0  0  0  0  0  0  0  0  0
    8.6624  -11.8250    0.0000 C   0  0  1  0  0  0  0  0  0  0  0  0
    8.6624   -9.3500    0.0000 C   0  0  0  0  0  0  0  0  0  0  0  0
    7.2334  -10.1750    0.0000 O   0  0  0  0  0  0  0  0  0  0  0  0
    7.2334  -11.8250    0.0000 O   0  0  0  0  0  0  0  0  0  0  0  0
    8.6624  -12.6500    0.0000 O   0  0  0  0  0  0  0  0  0  0  0  0
    9.3769   -8.9375    0.0000 O   0  0  0  0  0  0  0  0  0  0  0  0
    7.2334   -9.3500    0.0000 C   0  0  2  0  0  0  0  0  0  0  0  0
    7.9479   -8.9375    0.0000 O   0  0  0  0  0  0  0  0  0  0  0  0
    7.9479   -8.1125    0.0000 C   0  0  1  0  0  0  0  0  0  0  0  0
    7.2334   -7.7000    0.0000 C   0  0  2  0  0  0  0  0  0  0  0  0
    6.5190   -8.1125    0.0000 C   0  0  1  0  0  0  0  0  0  0  0  0
    6.5190   -8.9375    0.0000 C   0  0  1  0  0  0  0  0  0  0  0  0
    8.6624   -7.7000    0.0000 C   0  0  0  0  0  0  0  0  0  0  0  0
    5.8045   -7.7000    0.0000 O   0  0  0  0  0  0  0  0  0  0  0  0
    7.2334   -6.8750    0.0000 O   0  0  0  0  0  0  0  0  0  0  0  0
    5.8045   -9.3500    0.0000 O   0  0  0  0  0  0  0  0  0  0  0  0
    8.6624   -6.8750    0.0000 O   0  0  0  0  0  0  0  0  0  0  0  0
    5.8045   -6.8750    0.0000 C   0  0  2  0  0  0  0  0  0  0  0  0
    6.5190   -6.4625    0.0000 O   0  0  0  0  0  0  0  0  0  0  0  0
    6.5190   -5.6375    0.0000 C   0  0  0  0  0  0  0  0  0  0  0  0
    5.8045   -5.2250    0.0000 C   0  0  2  0  0  0  0  0  0  0  0  0
    5.0900   -5.6375    0.0000 C   0  0  1  0  0  0  0  0  0  0  0  0
    5.0900   -6.4625    0.0000 C   0  0  1  0  0  0  0  0  0  0  0  0
    4.3756   -6.8750    0.0000 O   0  0  0  0  0  0  0  0  0  0  0  0
    4.3756   -5.2250    0.0000 O   0  0  0  0  0  0  0  0  0  0  0  0
    5.8045   -4.4000    0.0000 O   0  0  0  0  0  0  0  0  0  0  0  0
    4.9795   -9.3500    0.0000 C   0  0  2  0  0  0  0  0  0  0  0  0
    4.5670   -8.6355    0.0000 O   0  0  0  0  0  0  0  0  0  0  0  0
    3.7420   -8.6355    0.0000 C   0  0  1  0  0  0  0  0  0  0  0  0
    3.3295   -9.3500    0.0000 C   0  0  2  0  0  0  0  0  0  0  0  0
    3.7420  -10.0645    0.0000 C   0  0  1  0  0  0  0  0  0  0  0  0
    4.5670  -10.0645    0.0000 C   0  0  1  0  0  0  0  0  0  0  0  0
    3.3295   -7.9211    0.0000 C   0  0  0  0  0  0  0  0  0  0  0  0
    3.3295  -10.7789    0.0000 O   0  0  0  0  0  0  0  0  0  0  0  0
    4.9795  -10.7789    0.0000 O   0  0  0  0  0  0  0  0  0  0  0  0
    2.5045   -9.3500    0.0000 O   0  0  0  0  0  0  0  0  0  0  0  0
    2.5045   -7.9211    0.0000 O   0  0  0  0  0  0  0  0  0  0  0  0
  1  2  1  0  0  0  0
  2  3  1  0  0  0  0
  1  4  1  0  0  0  0
  4  5  1  0  0  0  0
  5  6  2  0  0  0  0
  6  7  1  0  0  0  0
  7  8  1  0  0  0  0
  8  9  1  0  0  0  0
  9 10  1  0  0  0  0
 10 11  1  0  0  0  0
 11 12  1  6  0  0  0
 11 13  1  0  0  0  0
 11 14  1  0  0  0  0
 14 15  1  6  0  0  0
 14 16  1  0  0  0  0
 16 17  1  0  0  0  0
 13 17  1  0  0  0  0
 17 18  1  0  0  0  0
 18 19  1  0  0  0  0
 19 20  1  0  0  0  0
 20 21  1  6  0  0  0
 20 22  1  0  0  0  0
 16 23  1  6  0  0  0
 14 24  1  0  0  0  0
  9 24  1  0  0  0  0
 24 25  1  1  0  0  0
 24 26  1  0  0  0  0
 26 27  1  0  0  0  0
 27 28  1  0  0  0  0
  8 28  1  0  0  0  0
 28 29  1  0  0  0  0
  3 29  1  0  0  0  0
  5 29  1  0  0  0  0
 29 30  1  1  0  0  0
 28 31  1  6  0  0  0
  8 32  1  1  0  0  0
  9 33  1  6  0  0  0
  1 34  1  1  0  0  0
 22 35  1  0  0  0  0
 36 35  1  1  0  0  0
 36 37  1  0  0  0  0
 37 38  1  0  0  0  0
 38 39  1  0  0  0  0
 39 40  1  0  0  0  0
 40 41  1  0  0  0  0
 41 36  1  0  0  0  0
 38 42  1  1  0  0  0
 40 43  1  1  0  0  0
 41 44  1  6  0  0  0
 39 45  1  6  0  0  0
 42 46  1  0  0  0  0
 17 47  1  6  0  0  0
 48 34  1  1  0  0  0
 48 49  1  0  0  0  0
 49 50  1  0  0  0  0
 50 51  1  0  0  0  0
 51 52  1  0  0  0  0
 52 53  1  0  0  0  0
 53 48  1  0  0  0  0
 50 54  1  1  0  0  0
 51 55  1  1  0  0  0
 52 56  1  1  0  0  0
 53 57  1  6  0  0  0
 54 58  1  0  0  0  0
 59 55  1  1  0  0  0
 59 60  1  0  0  0  0
 60 61  1  0  0  0  0
 61 62  1  0  0  0  0
 62 63  1  0  0  0  0
 63 64  1  0  0  0  0
 64 59  1  0  0  0  0
 61 65  1  1  0  0  0
 63 66  1  1  0  0  0
 62 67  1  6  0  0  0
 64 68  1  6  0  0  0
 65 69  1  0  0  0  0
 70 66  1  1  0  0  0
 70 71  1  0  0  0  0
 71 72  1  0  0  0  0
 72 73  1  0  0  0  0
 73 74  1  0  0  0  0
 74 75  1  0  0  0  0
 75 70  1  0  0  0  0
 75 76  1  6  0  0  0
 74 77  1  1  0  0  0
 73 78  1  6  0  0  0
 79 68  1  1  0  0  0
 79 80  1  0  0  0  0
 80 81  1  0  0  0  0
 81 82  1  0  0  0  0
 82 83  1  0  0  0  0
 83 84  1  0  0  0  0
 84 79  1  0  0  0  0
 81 85  1  1  0  0  0
 83 86  1  1  0  0  0
 84 87  1  6  0  0  0
 82 88  1  6  0  0  0
 85 89  1  0  0  0  0
M  END
>  <cdx:fragmentId>
5

$$$$
