93924.cdx
  Mrv1902 05222410182D          

 64 69  0  0  0  0            999 V2000
    9.2855   -9.1862    0.0000 O   0  0  0  0  0  0  0  0  0  0  0  0
    7.8840   -7.5128    0.0000 O   0  0  0  0  0  0  0  0  0  0  0  0
    8.5916   -7.9370    0.0000 C   0  0  2  0  0  0  0  0  0  0  0  0
    8.5779   -8.7619    0.0000 C   0  0  1  0  0  0  0  0  0  0  0  0
    7.8431   -9.9874    0.0000 O   0  0  0  0  0  0  0  0  0  0  0  0
    7.8568   -9.1626    0.0000 C   0  0  1  0  0  0  0  0  0  0  0  0
    7.1492   -8.7383    0.0000 C   0  0  1  0  0  0  0  0  0  0  0  0
    7.1628   -7.9134    0.0000 C   0  0  1  0  0  0  0  0  0  0  0  0
    9.3128   -7.5364    0.0000 O   0  0  0  0  0  0  0  0  0  0  0  0
    9.6992   -9.9000    0.0000 C   0  0  2  0  0  0  0  0  0  0  0  0
    9.3060  -10.6252    0.0000 O   0  0  0  0  0  0  0  0  0  0  0  0
    9.7313  -11.3321    0.0000 C   0  0  1  0  0  0  0  0  0  0  0  0
   10.5499  -11.3136    0.0000 C   0  0  2  0  0  0  0  0  0  0  0  0
   10.9495  -10.5989    0.0000 C   0  0  1  0  0  0  0  0  0  0  0  0
   10.5241   -9.8921    0.0000 C   0  0  1  0  0  0  0  0  0  0  0  0
    9.3335  -12.0548    0.0000 C   0  0  0  0  0  0  0  0  0  0  0  0
   11.7744  -10.5858    0.0000 O   0  0  0  0  0  0  0  0  0  0  0  0
   10.9753  -12.0205    0.0000 O   0  0  0  0  0  0  0  0  0  0  0  0
   10.9267   -9.1720    0.0000 O   0  0  0  0  0  0  0  0  0  0  0  0
    9.7604  -12.7607    0.0000 O   0  0  0  0  0  0  0  0  0  0  0  0
    6.4280   -9.1389    0.0000 O   0  0  0  0  0  0  0  0  0  0  0  0
    5.7205   -8.7147    0.0000 C   0  0  0  0  0  0  0  0  0  0  0  0
    4.9993   -9.1153    0.0000 C   0  0  0  0  0  0  0  0  0  0  0  0
    6.4553   -7.4892    0.0000 C   0  0  0  0  0  0  0  0  0  0  0  0
    6.4553   -6.6642    0.0000 O   0  0  0  0  0  0  0  0  0  0  0  0
    5.7341   -7.8898    0.0000 O   0  0  0  0  0  0  0  0  0  0  0  0
    4.2917   -8.6911    0.0000 C   0  0  0  0  0  0  0  0  0  0  0  0
    3.5705   -9.0917    0.0000 C   0  0  0  0  0  0  0  0  0  0  0  0
    2.8701   -8.6558    0.0000 C   0  0  0  0  0  0  0  0  0  0  0  0
    2.1424   -9.0445    0.0000 C   0  0  0  0  0  0  0  0  0  0  0  0
    2.1424   -9.8691    0.0000 C   0  0  0  0  0  0  0  0  0  0  0  0
    2.8701  -10.3049    0.0000 C   0  0  0  0  0  0  0  0  0  0  0  0
    3.5705   -9.9163    0.0000 C   0  0  0  0  0  0  0  0  0  0  0  0
    1.4348   -8.6203    0.0000 O   0  0  0  0  0  0  0  0  0  0  0  0
    1.4246  -10.2758    0.0000 O   0  0  0  0  0  0  0  0  0  0  0  0
    7.1219  -10.3881    0.0000 C   0  0  2  0  0  0  0  0  0  0  0  0
    6.4215   -9.9522    0.0000 O   0  0  0  0  0  0  0  0  0  0  0  0
    5.6938  -10.3409    0.0000 C   0  0  2  0  0  0  0  0  0  0  0  0
    5.6938  -11.1654    0.0000 C   0  0  1  0  0  0  0  0  0  0  0  0
    6.4215  -11.6013    0.0000 C   0  0  2  0  0  0  0  0  0  0  0  0
    7.1219  -11.2126    0.0000 C   0  0  1  0  0  0  0  0  0  0  0  0
    4.9760  -11.5722    0.0000 O   0  0  0  0  0  0  0  0  0  0  0  0
    6.4078  -12.4262    0.0000 O   0  0  0  0  0  0  0  0  0  0  0  0
    7.8329  -11.6312    0.0000 O   0  0  0  0  0  0  0  0  0  0  0  0
    4.9862   -9.9166    0.0000 C   0  0  0  0  0  0  0  0  0  0  0  0
    7.8259  -12.4562    0.0000 C   0  0  2  0  0  0  0  0  0  0  0  0
    7.1132  -12.8718    0.0000 O   0  0  0  0  0  0  0  0  0  0  0  0
    7.1132  -13.6968    0.0000 C   0  0  0  0  0  0  0  0  0  0  0  0
    7.8259  -14.1061    0.0000 C   0  0  1  0  0  0  0  0  0  0  0  0
    8.5385  -13.6968    0.0000 C   0  0  1  0  0  0  0  0  0  0  0  0
    8.5385  -12.8718    0.0000 C   0  0  1  0  0  0  0  0  0  0  0  0
    9.2539  -12.4608    0.0000 O   0  0  0  0  0  0  0  0  0  0  0  0
    9.2525  -14.1100    0.0000 O   0  0  0  0  0  0  0  0  0  0  0  0
    7.8259  -14.9311    0.0000 O   0  0  0  0  0  0  0  0  0  0  0  0
   10.0203   -7.9606    0.0000 C   0  0  0  0  0  0  0  0  0  0  0  0
   10.7415   -7.5600    0.0000 C   0  0  0  0  0  0  0  0  0  0  0  0
   11.4491   -7.9842    0.0000 C   0  0  0  0  0  0  0  0  0  0  0  0
   11.4287   -8.8090    0.0000 C   0  0  0  0  0  0  0  0  0  0  0  0
   12.1328   -9.2390    0.0000 C   0  0  0  0  0  0  0  0  0  0  0  0
   12.8572   -8.8442    0.0000 C   0  0  0  0  0  0  0  0  0  0  0  0
   12.8572   -8.0195    0.0000 C   0  0  0  0  0  0  0  0  0  0  0  0
   12.1328   -7.5895    0.0000 C   0  0  0  0  0  0  0  0  0  0  0  0
   13.5666   -9.2655    0.0000 O   0  0  0  0  0  0  0  0  0  0  0  0
   13.5893   -7.6027    0.0000 O   0  0  0  0  0  0  0  0  0  0  0  0
  4  1  1  6  0  0  0
  8  2  1  0  0  0  0
  3  2  1  0  0  0  0
  4  3  1  0  0  0  0
  6  4  1  0  0  0  0
  6  5  1  1  0  0  0
  7  6  1  0  0  0  0
  8  7  1  0  0  0  0
  3  9  1  1  0  0  0
 10  1  1  1  0  0  0
 10 11  1  0  0  0  0
 11 12  1  0  0  0  0
 12 13  1  0  0  0  0
 13 14  1  0  0  0  0
 14 15  1  0  0  0  0
 15 10  1  0  0  0  0
 12 16  1  1  0  0  0
 14 17  1  1  0  0  0
 13 18  1  6  0  0  0
 15 19  1  6  0  0  0
 16 20  1  0  0  0  0
  7 21  1  6  0  0  0
 21 22  1  0  0  0  0
 22 23  1  0  0  0  0
  8 24  1  1  0  0  0
 24 25  1  0  0  0  0
 22 26  2  0  0  0  0
 23 27  2  0  0  0  0
 27 28  1  0  0  0  0
 28 29  2  0  0  0  0
 29 30  1  0  0  0  0
 30 31  2  0  0  0  0
 31 32  1  0  0  0  0
 32 33  2  0  0  0  0
 33 28  1  0  0  0  0
 30 34  1  0  0  0  0
 31 35  1  0  0  0  0
 36  5  1  1  0  0  0
 36 37  1  0  0  0  0
 37 38  1  0  0  0  0
 38 39  1  0  0  0  0
 39 40  1  0  0  0  0
 40 41  1  0  0  0  0
 41 36  1  0  0  0  0
 39 42  1  1  0  0  0
 40 43  1  6  0  0  0
 41 44  1  6  0  0  0
 38 45  1  6  0  0  0
 46 44  1  1  0  0  0
 46 47  1  0  0  0  0
 47 48  1  0  0  0  0
 48 49  1  0  0  0  0
 49 50  1  0  0  0  0
 50 51  1  0  0  0  0
 51 46  1  0  0  0  0
 51 52  1  6  0  0  0
 50 53  1  1  0  0  0
 49 54  1  1  0  0  0
  9 55  1  0  0  0  0
 55 56  1  0  0  0  0
 56 57  1  0  0  0  0
 57 58  2  0  0  0  0
 58 59  1  0  0  0  0
 59 60  2  0  0  0  0
 60 61  1  0  0  0  0
 61 62  2  0  0  0  0
 62 57  1  0  0  0  0
 60 63  1  0  0  0  0
 61 64  1  0  0  0  0
M  END
>  <cdx:groupId>
529

>  <cdx:fragmentId>
530

$$$$
