93922.cdx
  Mrv1902 05222410192D          

 22 24  0  0  0  0            999 V2000
    4.0956   -7.2050    0.0000 C   0  0  0  0  0  0  0  0  0  0  0  0
    4.0956   -8.0300    0.0000 C   0  0  0  0  0  0  0  0  0  0  0  0
    4.8100   -8.4425    0.0000 C   0  0  1  0  0  0  0  0  0  0  0  0
    5.5245   -8.0300    0.0000 C   0  0  1  0  0  0  0  0  0  0  0  0
    5.5245   -7.2050    0.0000 C   0  0  2  0  0  0  0  0  0  0  0  0
    4.8100   -6.7925    0.0000 C   0  0  2  0  0  0  0  0  0  0  0  0
    6.2390   -8.4425    0.0000 C   0  0  0  0  0  0  0  0  0  0  0  0
    6.9534   -8.0300    0.0000 C   0  0  0  0  0  0  0  0  0  0  0  0
    6.9534   -7.2050    0.0000 C   0  0  2  0  0  0  0  0  0  0  0  0
    6.2390   -6.7925    0.0000 C   0  0  0  0  0  0  0  0  0  0  0  0
    7.7381   -8.2849    0.0000 C   0  0  0  0  0  0  0  0  0  0  0  0
    8.2230   -7.6175    0.0000 C   0  0  0  0  0  0  0  0  0  0  0  0
    7.7381   -6.9501    0.0000 O   0  0  0  0  0  0  0  0  0  0  0  0
    4.8100   -5.9675    0.0000 O   0  0  0  0  0  0  0  0  0  0  0  0
    5.5245   -6.3800    0.0000 C   0  0  0  0  0  0  0  0  0  0  0  0
    7.0397   -6.3845    0.0000 O   0  0  0  0  0  0  0  0  0  0  0  0
    5.2225   -9.1570    0.0000 C   0  0  0  0  0  0  0  0  0  0  0  0
    4.3975   -9.1570    0.0000 O   0  0  0  0  0  0  0  0  0  0  0  0
    5.5245   -8.8550    0.0000 H   0  0  0  0  0  0  0  0  0  0  0  0
    7.9930   -9.0696    0.0000 C   0  0  0  0  0  0  0  0  0  0  0  0
    9.0480   -7.6175    0.0000 O   0  0  0  0  0  0  0  0  0  0  0  0
    7.7541   -5.9720    0.0000 C   0  0  0  0  0  0  0  0  0  0  0  0
  1  2  1  0  0  0  0
  2  3  1  0  0  0  0
  3  4  1  0  0  0  0
  4  5  1  0  0  0  0
  5  6  1  0  0  0  0
  6  1  1  0  0  0  0
  4  7  1  0  0  0  0
  7  8  1  0  0  0  0
  8  9  1  0  0  0  0
  9 10  1  0  0  0  0
 10  5  1  0  0  0  0
  8 11  2  0  0  0  0
 11 12  1  0  0  0  0
 12 13  1  0  0  0  0
 13  9  1  0  0  0  0
  6 14  1  1  0  0  0
  5 15  1  1  0  0  0
  9 16  1  1  0  0  0
  3 17  1  1  0  0  0
  3 18  1  6  0  0  0
  4 19  1  6  0  0  0
 11 20  1  0  0  0  0
 12 21  2  0  0  0  0
 16 22  1  0  0  0  0
M  END
>  <cdx:fragmentId>
5

$$$$
