939210.cdx
  Mrv1902 05222410252D          

 40 44  0  0  0  0            999 V2000
    4.8271   -8.2352    0.0000 O   0  0  0  0  0  0  0  0  0  0  0  0
    5.6532   -9.3711    0.0000 C   0  0  0  0  0  0  0  0  0  0  0  0
    5.9120  -10.1544    0.0000 O   0  0  0  0  0  0  0  0  0  0  0  0
    6.4610   -9.5386    0.0000 O   0  0  0  0  0  0  0  0  0  0  0  0
    6.9542   -8.4160    0.0000 C   0  0  0  0  0  0  0  0  0  0  0  0
    6.2022   -8.7553    0.0000 C   0  0  1  0  0  0  0  0  0  0  0  0
    5.6471   -8.1449    0.0000 C   0  0  2  0  0  0  0  0  0  0  0  0
    6.0561   -7.4284    0.0000 C   0  0  1  0  0  0  0  0  0  0  0  0
    6.8639   -7.5959    0.0000 O   0  0  0  0  0  0  0  0  0  0  0  0
    5.7168   -6.6764    0.0000 O   0  0  0  0  0  0  0  0  0  0  0  0
    4.2879   -7.5014    0.0000 O   0  0  0  0  0  0  0  0  0  0  0  0
    2.8589   -6.6764    0.0000 O   0  0  0  0  0  0  0  0  0  0  0  0
    2.1445   -5.4389    0.0000 O   0  0  0  0  0  0  0  0  0  0  0  0
    2.8589   -5.0264    0.0000 C   0  0  0  0  0  0  0  0  0  0  0  0
    3.5734   -5.4389    0.0000 C   0  0  2  0  0  0  0  0  0  0  0  0
    3.5734   -6.2639    0.0000 C   0  0  2  0  0  0  0  0  0  0  0  0
    4.2879   -6.6764    0.0000 C   0  0  1  0  0  0  0  0  0  0  0  0
    5.0023   -6.2639    0.0000 C   0  0  2  0  0  0  0  0  0  0  0  0
    5.0023   -5.4389    0.0000 C   0  0  1  0  0  0  0  0  0  0  0  0
    4.2879   -5.0264    0.0000 O   0  0  0  0  0  0  0  0  0  0  0  0
    5.7168   -5.0264    0.0000 O   0  0  0  0  0  0  0  0  0  0  0  0
   12.8615   -7.5014    0.0000 C   0  0  0  0  0  0  0  0  0  0  0  0
   12.1470   -7.9139    0.0000 O   0  0  0  0  0  0  0  0  0  0  0  0
   10.7181   -6.2639    0.0000 C   0  0  0  0  0  0  0  0  0  0  0  0
   11.4326   -6.6764    0.0000 C   0  0  0  0  0  0  0  0  0  0  0  0
   11.4326   -7.5014    0.0000 C   0  0  0  0  0  0  0  0  0  0  0  0
   10.7181   -7.9139    0.0000 C   0  0  0  0  0  0  0  0  0  0  0  0
   10.0036   -7.5014    0.0000 C   0  0  0  0  0  0  0  0  0  0  0  0
   10.0036   -6.6764    0.0000 C   0  0  0  0  0  0  0  0  0  0  0  0
    8.5747   -7.5014    0.0000 O   0  0  0  0  0  0  0  0  0  0  0  0
    8.5747   -5.0264    0.0000 O   0  0  0  0  0  0  0  0  0  0  0  0
    7.8602   -5.4389    0.0000 C   0  0  0  0  0  0  0  0  0  0  0  0
    7.1457   -5.0264    0.0000 C   0  0  0  0  0  0  0  0  0  0  0  0
    6.4313   -5.4389    0.0000 C   0  0  0  0  0  0  0  0  0  0  0  0
    6.4313   -6.2639    0.0000 C   0  0  0  0  0  0  0  0  0  0  0  0
    7.1457   -6.6764    0.0000 C   0  0  0  0  0  0  0  0  0  0  0  0
    7.8602   -6.2639    0.0000 C   0  0  0  0  0  0  0  0  0  0  0  0
    8.5747   -6.6764    0.0000 C   0  0  0  0  0  0  0  0  0  0  0  0
    9.2892   -6.2639    0.0000 C   0  0  0  0  0  0  0  0  0  0  0  0
    9.2892   -5.4389    0.0000 C   0  0  0  0  0  0  0  0  0  0  0  0
 34 21  1  0  0  0  0
 19 21  1  1  0  0  0
 18 10  1  6  0  0  0
  8 10  1  6  0  0  0
  7  1  1  1  0  0  0
  6  2  1  0  0  0  0
  6  4  1  1  0  0  0
  9  5  1  0  0  0  0
  6  5  1  0  0  0  0
  7  6  1  0  0  0  0
  8  7  1  0  0  0  0
  9  8  1  0  0  0  0
 17 11  1  1  0  0  0
 16 12  1  6  0  0  0
 15 14  1  1  0  0  0
 14 13  1  0  0  0  0
 20 15  1  0  0  0  0
 16 15  1  0  0  0  0
 17 16  1  0  0  0  0
 18 17  1  0  0  0  0
 19 18  1  0  0  0  0
 20 19  1  0  0  0  0
 39 29  1  0  0  0  0
 26 23  1  0  0  0  0
 23 22  1  0  0  0  0
 29 24  2  0  0  0  0
 25 24  1  0  0  0  0
 26 25  2  0  0  0  0
 27 26  1  0  0  0  0
 28 27  2  0  0  0  0
 29 28  1  0  0  0  0
 38 30  2  0  0  0  0
 40 31  1  0  0  0  0
 32 31  1  0  0  0  0
 37 32  2  0  0  0  0
 33 32  1  0  0  0  0
 34 33  2  0  0  0  0
 35 34  1  0  0  0  0
 36 35  2  0  0  0  0
 37 36  1  0  0  0  0
 38 37  1  0  0  0  0
 39 38  1  0  0  0  0
 40 39  2  0  0  0  0
  2  3  1  0  0  0  0
M  END
>  <cdx:fragmentId>
8613

$$$$
