93928.cdx
  Mrv1902 05222410282D          

 22 24  0  0  0  0            999 V2000
   10.5401   -6.2425    0.0000 O   0  0  0  0  0  0  0  0  0  0  0  0
    6.9677   -9.9550    0.0000 O   0  0  0  0  0  0  0  0  0  0  0  0
    5.5388   -9.9550    0.0000 O   0  0  0  0  0  0  0  0  0  0  0  0
    4.1098   -7.4800    0.0000 O   0  0  0  0  0  0  0  0  0  0  0  0
    9.8256   -7.4800    0.0000 C   0  0  0  0  0  0  0  0  0  0  0  0
    9.8256   -6.6550    0.0000 C   0  0  0  0  0  0  0  0  0  0  0  0
    9.1111   -6.2425    0.0000 C   0  0  0  0  0  0  0  0  0  0  0  0
    8.3967   -6.6550    0.0000 C   0  0  0  0  0  0  0  0  0  0  0  0
    8.3967   -9.1300    0.0000 O   0  0  0  0  0  0  0  0  0  0  0  0
    9.1111   -7.8925    0.0000 C   0  0  0  0  0  0  0  0  0  0  0  0
    8.3967   -7.4800    0.0000 C   0  0  0  0  0  0  0  0  0  0  0  0
    6.9677   -9.1300    0.0000 C   0  0  0  0  0  0  0  0  0  0  0  0
    7.6822   -8.7175    0.0000 C   0  0  0  0  0  0  0  0  0  0  0  0
    7.6822   -7.8925    0.0000 C   0  0  0  0  0  0  0  0  0  0  0  0
    6.9677   -7.4800    0.0000 O   0  0  0  0  0  0  0  0  0  0  0  0
    5.5388   -9.1300    0.0000 C   0  0  0  0  0  0  0  0  0  0  0  0
    6.2532   -8.7175    0.0000 C   0  0  0  0  0  0  0  0  0  0  0  0
    6.2532   -7.8925    0.0000 C   0  0  0  0  0  0  0  0  0  0  0  0
    5.5388   -7.4800    0.0000 C   0  0  0  0  0  0  0  0  0  0  0  0
    4.8243   -7.8925    0.0000 C   0  0  0  0  0  0  0  0  0  0  0  0
    4.8243   -8.7175    0.0000 C   0  0  0  0  0  0  0  0  0  0  0  0
    9.1111   -5.4175    0.0000 C   0  0  0  0  0  0  0  0  0  0  0  0
  6  1  1  0  0  0  0
 12  2  2  0  0  0  0
 16  3  1  0  0  0  0
 20  4  1  0  0  0  0
  5 10  1  0  0  0  0
  6  5  2  0  0  0  0
  7  6  1  0  0  0  0
  8  7  2  0  0  0  0
 11  8  1  0  0  0  0
  9 13  1  0  0  0  0
 11 10  2  0  0  0  0
 14 11  1  0  0  0  0
 12 17  1  0  0  0  0
 13 12  1  0  0  0  0
 14 13  2  0  0  0  0
 15 14  1  0  0  0  0
 18 15  1  0  0  0  0
 16 21  1  0  0  0  0
 17 16  2  0  0  0  0
 18 17  1  0  0  0  0
 19 18  2  0  0  0  0
 20 19  1  0  0  0  0
 21 20  2  0  0  0  0
  7 22  1  0  0  0  0
M  END
>  <cdx:fragmentId>
5

$$$$
