93929.cdx
  Mrv1902 05222410282D          

 52 57  0  0  0  0            999 V2000
    6.8384   -5.4329    0.0000 C   0  0  0  0  0  0  0  0  0  0  0  0
    6.8384   -6.2579    0.0000 C   0  0  0  0  0  0  0  0  0  0  0  0
    6.1239   -6.6704    0.0000 C   0  0  0  0  0  0  0  0  0  0  0  0
    6.1239   -7.4954    0.0000 O   0  0  0  0  0  0  0  0  0  0  0  0
    5.4095   -6.2579    0.0000 C   0  0  0  0  0  0  0  0  0  0  0  0
    4.6950   -6.6704    0.0000 C   0  0  0  0  0  0  0  0  0  0  0  0
    4.6950   -7.4954    0.0000 O   0  0  0  0  0  0  0  0  0  0  0  0
    3.9805   -6.2579    0.0000 C   0  0  0  0  0  0  0  0  0  0  0  0
    3.9805   -5.4329    0.0000 C   0  0  0  0  0  0  0  0  0  0  0  0
    3.2661   -5.0204    0.0000 O   0  0  0  0  0  0  0  0  0  0  0  0
    4.6950   -5.0204    0.0000 C   0  0  0  0  0  0  0  0  0  0  0  0
    5.4095   -5.4329    0.0000 C   0  0  0  0  0  0  0  0  0  0  0  0
    6.1239   -5.0204    0.0000 O   0  0  0  0  0  0  0  0  0  0  0  0
    7.5529   -5.0204    0.0000 C   0  0  0  0  0  0  0  0  0  0  0  0
    7.5529   -4.1954    0.0000 C   0  0  0  0  0  0  0  0  0  0  0  0
    8.2674   -3.7829    0.0000 C   0  0  0  0  0  0  0  0  0  0  0  0
    8.9818   -4.1954    0.0000 C   0  0  0  0  0  0  0  0  0  0  0  0
    9.6963   -3.7829    0.0000 O   0  0  0  0  0  0  0  0  0  0  0  0
    8.9818   -5.0204    0.0000 C   0  0  0  0  0  0  0  0  0  0  0  0
    8.2674   -5.4329    0.0000 C   0  0  0  0  0  0  0  0  0  0  0  0
    7.5529   -6.6704    0.0000 O   0  0  0  0  0  0  0  0  0  0  0  0
    7.5529   -7.4954    0.0000 C   0  0  1  0  0  0  0  0  0  0  0  0
    8.2674   -7.9079    0.0000 C   0  0  1  0  0  0  0  0  0  0  0  0
    8.2674   -8.7329    0.0000 C   0  0  1  0  0  0  0  0  0  0  0  0
    8.9818   -9.1454    0.0000 O   0  0  0  0  0  0  0  0  0  0  0  0
    7.5529   -9.1454    0.0000 C   0  0  2  0  0  0  0  0  0  0  0  0
    7.5529   -9.9704    0.0000 O   0  0  0  0  0  0  0  0  0  0  0  0
    6.8384   -8.7329    0.0000 C   0  0  2  0  0  0  0  0  0  0  0  0
    6.8384   -7.9079    0.0000 O   0  0  0  0  0  0  0  0  0  0  0  0
    6.1239   -9.1454    0.0000 C   0  0  0  0  0  0  0  0  0  0  0  0
    5.4095   -8.7329    0.0000 O   0  0  0  0  0  0  0  0  0  0  0  0
    8.9818   -7.4954    0.0000 O   0  0  0  0  0  0  0  0  0  0  0  0
    3.2568   -9.1438    0.0000 C   0  0  1  0  0  0  0  0  0  0  0  0
    3.2568   -9.9688    0.0000 C   0  0  1  0  0  0  0  0  0  0  0  0
    3.9713  -10.3812    0.0000 C   0  0  2  0  0  0  0  0  0  0  0  0
    4.6857   -9.9688    0.0000 C   0  0  2  0  0  0  0  0  0  0  0  0
    4.6857   -9.1438    0.0000 C   0  0  1  0  0  0  0  0  0  0  0  0
    3.9713   -8.7313    0.0000 O   0  0  0  0  0  0  0  0  0  0  0  0
    2.5423   -8.7313    0.0000 C   0  0  0  0  0  0  0  0  0  0  0  0
    5.4002  -10.3812    0.0000 O   0  0  0  0  0  0  0  0  0  0  0  0
    3.9713  -11.2062    0.0000 O   0  0  0  0  0  0  0  0  0  0  0  0
    2.5423  -10.3812    0.0000 O   0  0  0  0  0  0  0  0  0  0  0  0
   10.4008   -9.1397    0.0000 C   0  0  1  0  0  0  0  0  0  0  0  0
   11.1150   -8.7268    0.0000 C   0  0  1  0  0  0  0  0  0  0  0  0
   11.1145   -7.9018    0.0000 C   0  0  2  0  0  0  0  0  0  0  0  0
   10.3998   -7.4897    0.0000 C   0  0  2  0  0  0  0  0  0  0  0  0
    9.6855   -7.9027    0.0000 C   0  0  1  0  0  0  0  0  0  0  0  0
    9.6860   -8.7277    0.0000 O   0  0  0  0  0  0  0  0  0  0  0  0
   10.4012   -9.9647    0.0000 C   0  0  0  0  0  0  0  0  0  0  0  0
   10.3993   -6.6647    0.0000 O   0  0  0  0  0  0  0  0  0  0  0  0
   11.8287   -7.4889    0.0000 O   0  0  0  0  0  0  0  0  0  0  0  0
   11.8297   -9.1389    0.0000 O   0  0  0  0  0  0  0  0  0  0  0  0
  1  2  2  0  0  0  0
  2  3  1  0  0  0  0
  3  4  2  0  0  0  0
  3  5  1  0  0  0  0
  5  6  1  0  0  0  0
  6  7  1  0  0  0  0
  6  8  2  0  0  0  0
  8  9  1  0  0  0  0
  9 10  1  0  0  0  0
  9 11  2  0  0  0  0
 11 12  1  0  0  0  0
  5 12  2  0  0  0  0
 12 13  1  0  0  0  0
  1 13  1  0  0  0  0
  1 14  1  0  0  0  0
 14 15  1  0  0  0  0
 15 16  2  0  0  0  0
 16 17  1  0  0  0  0
 17 18  1  0  0  0  0
 17 19  2  0  0  0  0
 19 20  1  0  0  0  0
 14 20  2  0  0  0  0
 22 21  1  1  0  0  0
 22 23  1  0  0  0  0
 23 24  1  0  0  0  0
 24 25  1  1  0  0  0
 24 26  1  0  0  0  0
 26 27  1  6  0  0  0
 26 28  1  0  0  0  0
 28 29  1  0  0  0  0
 28 30  1  1  0  0  0
 30 31  1  0  0  0  0
 22 29  1  0  0  0  0
  2 21  1  0  0  0  0
 23 32  1  6  0  0  0
 33 34  1  0  0  0  0
 34 35  1  0  0  0  0
 35 36  1  0  0  0  0
 36 37  1  0  0  0  0
 37 38  1  0  0  0  0
 38 33  1  0  0  0  0
 33 39  1  6  0  0  0
 36 40  1  6  0  0  0
 35 41  1  6  0  0  0
 34 42  1  1  0  0  0
 43 44  1  0  0  0  0
 44 45  1  0  0  0  0
 45 46  1  0  0  0  0
 46 47  1  0  0  0  0
 47 48  1  0  0  0  0
 48 43  1  0  0  0  0
 43 49  1  6  0  0  0
 46 50  1  6  0  0  0
 45 51  1  6  0  0  0
 44 52  1  1  0  0  0
 37 31  1  1  0  0  0
 47 32  1  1  0  0  0
M  END
>  <cdx:groupId>
163

>  <cdx:fragmentId>
45

$$$$
