93923.cdx
  Mrv1902 05222410192D          

 64 69  0  0  0  0            999 V2000
    8.0116   -8.5875    0.0000 O   0  0  0  0  0  0  0  0  0  0  0  0
    6.6101   -6.9141    0.0000 O   0  0  0  0  0  0  0  0  0  0  0  0
    7.3177   -7.3384    0.0000 C   0  0  2  0  0  0  0  0  0  0  0  0
    7.3041   -8.1633    0.0000 C   0  0  1  0  0  0  0  0  0  0  0  0
    6.5692   -9.3888    0.0000 O   0  0  0  0  0  0  0  0  0  0  0  0
    6.5829   -8.5639    0.0000 C   0  0  1  0  0  0  0  0  0  0  0  0
    5.8753   -8.1397    0.0000 C   0  0  1  0  0  0  0  0  0  0  0  0
    5.8889   -7.3148    0.0000 C   0  0  1  0  0  0  0  0  0  0  0  0
    8.0389   -6.9378    0.0000 O   0  0  0  0  0  0  0  0  0  0  0  0
    8.4253   -9.3013    0.0000 C   0  0  2  0  0  0  0  0  0  0  0  0
    8.0321  -10.0266    0.0000 O   0  0  0  0  0  0  0  0  0  0  0  0
    8.4575  -10.7334    0.0000 C   0  0  1  0  0  0  0  0  0  0  0  0
    9.2761  -10.7150    0.0000 C   0  0  2  0  0  0  0  0  0  0  0  0
    9.6756  -10.0003    0.0000 C   0  0  1  0  0  0  0  0  0  0  0  0
    9.2502   -9.2935    0.0000 C   0  0  1  0  0  0  0  0  0  0  0  0
    8.0596  -11.4561    0.0000 C   0  0  0  0  0  0  0  0  0  0  0  0
   10.5005   -9.9871    0.0000 O   0  0  0  0  0  0  0  0  0  0  0  0
    9.7015  -11.4219    0.0000 O   0  0  0  0  0  0  0  0  0  0  0  0
    9.6528   -8.5734    0.0000 O   0  0  0  0  0  0  0  0  0  0  0  0
    8.4865  -12.1621    0.0000 O   0  0  0  0  0  0  0  0  0  0  0  0
    5.1541   -8.5403    0.0000 O   0  0  0  0  0  0  0  0  0  0  0  0
    4.4466   -8.1161    0.0000 C   0  0  0  0  0  0  0  0  0  0  0  0
    3.7254   -8.5167    0.0000 C   0  0  0  0  0  0  0  0  0  0  0  0
    5.1814   -6.8905    0.0000 C   0  0  0  0  0  0  0  0  0  0  0  0
    5.1814   -6.0655    0.0000 O   0  0  0  0  0  0  0  0  0  0  0  0
    4.4602   -7.2912    0.0000 O   0  0  0  0  0  0  0  0  0  0  0  0
    3.0649   -4.8169    0.0000 O   0  0  0  0  0  0  0  0  0  0  0  0
    1.6094   -5.6058    0.0000 O   0  0  0  0  0  0  0  0  0  0  0  0
    3.7588   -6.8791    0.0000 C   0  0  0  0  0  0  0  0  0  0  0  0
    3.7716   -6.0782    0.0000 C   0  0  0  0  0  0  0  0  0  0  0  0
    3.0443   -5.6416    0.0000 C   0  0  0  0  0  0  0  0  0  0  0  0
    2.3170   -6.0301    0.0000 C   0  0  0  0  0  0  0  0  0  0  0  0
    2.3170   -6.8551    0.0000 C   0  0  0  0  0  0  0  0  0  0  0  0
    3.0315   -7.2676    0.0000 C   0  0  0  0  0  0  0  0  0  0  0  0
    3.0178   -8.0924    0.0000 C   0  0  0  0  0  0  0  0  0  0  0  0
    5.8481   -9.7894    0.0000 C   0  0  2  0  0  0  0  0  0  0  0  0
    5.1476   -9.3536    0.0000 O   0  0  0  0  0  0  0  0  0  0  0  0
    4.4199   -9.7422    0.0000 C   0  0  2  0  0  0  0  0  0  0  0  0
    4.4199  -10.5668    0.0000 C   0  0  1  0  0  0  0  0  0  0  0  0
    5.1476  -11.0027    0.0000 C   0  0  2  0  0  0  0  0  0  0  0  0
    5.8481  -10.6140    0.0000 C   0  0  1  0  0  0  0  0  0  0  0  0
    3.7021  -10.9735    0.0000 O   0  0  0  0  0  0  0  0  0  0  0  0
    5.1340  -11.8276    0.0000 O   0  0  0  0  0  0  0  0  0  0  0  0
    6.5590  -11.0326    0.0000 O   0  0  0  0  0  0  0  0  0  0  0  0
    3.7123   -9.3180    0.0000 C   0  0  0  0  0  0  0  0  0  0  0  0
    6.5520  -11.8575    0.0000 C   0  0  2  0  0  0  0  0  0  0  0  0
    5.8393  -12.2731    0.0000 O   0  0  0  0  0  0  0  0  0  0  0  0
    5.8393  -13.0981    0.0000 C   0  0  0  0  0  0  0  0  0  0  0  0
    6.5520  -13.5075    0.0000 C   0  0  1  0  0  0  0  0  0  0  0  0
    7.2646  -13.0981    0.0000 C   0  0  1  0  0  0  0  0  0  0  0  0
    7.2646  -12.2731    0.0000 C   0  0  1  0  0  0  0  0  0  0  0  0
    7.9800  -11.8622    0.0000 O   0  0  0  0  0  0  0  0  0  0  0  0
    7.9787  -13.5114    0.0000 O   0  0  0  0  0  0  0  0  0  0  0  0
    6.5520  -14.3325    0.0000 O   0  0  0  0  0  0  0  0  0  0  0  0
    8.7464   -7.3620    0.0000 C   0  0  0  0  0  0  0  0  0  0  0  0
    9.4676   -6.9614    0.0000 C   0  0  0  0  0  0  0  0  0  0  0  0
   10.1752   -7.3856    0.0000 C   0  0  0  0  0  0  0  0  0  0  0  0
   10.1548   -8.2104    0.0000 C   0  0  0  0  0  0  0  0  0  0  0  0
   10.8589   -8.6404    0.0000 C   0  0  0  0  0  0  0  0  0  0  0  0
   11.5833   -8.2456    0.0000 C   0  0  0  0  0  0  0  0  0  0  0  0
   11.5833   -7.4209    0.0000 C   0  0  0  0  0  0  0  0  0  0  0  0
   10.8589   -6.9909    0.0000 C   0  0  0  0  0  0  0  0  0  0  0  0
   12.2927   -8.6669    0.0000 O   0  0  0  0  0  0  0  0  0  0  0  0
   12.3154   -7.0041    0.0000 O   0  0  0  0  0  0  0  0  0  0  0  0
  4  1  1  6  0  0  0
  8  2  1  0  0  0  0
  3  2  1  0  0  0  0
  4  3  1  0  0  0  0
  6  4  1  0  0  0  0
  6  5  1  1  0  0  0
  7  6  1  0  0  0  0
  8  7  1  0  0  0  0
  3  9  1  1  0  0  0
 10  1  1  1  0  0  0
 10 11  1  0  0  0  0
 11 12  1  0  0  0  0
 12 13  1  0  0  0  0
 13 14  1  0  0  0  0
 14 15  1  0  0  0  0
 15 10  1  0  0  0  0
 12 16  1  1  0  0  0
 14 17  1  1  0  0  0
 13 18  1  6  0  0  0
 15 19  1  6  0  0  0
 16 20  1  0  0  0  0
  7 21  1  6  0  0  0
 21 22  1  0  0  0  0
 22 23  1  0  0  0  0
  8 24  1  1  0  0  0
 24 25  1  0  0  0  0
 22 26  2  0  0  0  0
 31 27  1  0  0  0  0
 23 35  2  0  0  0  0
 32 28  1  0  0  0  0
 29 34  1  0  0  0  0
 30 29  2  0  0  0  0
 31 30  1  0  0  0  0
 32 31  2  0  0  0  0
 33 32  1  0  0  0  0
 34 33  2  0  0  0  0
 35 34  1  0  0  0  0
 36  5  1  1  0  0  0
 36 37  1  0  0  0  0
 37 38  1  0  0  0  0
 38 39  1  0  0  0  0
 39 40  1  0  0  0  0
 40 41  1  0  0  0  0
 41 36  1  0  0  0  0
 39 42  1  1  0  0  0
 40 43  1  6  0  0  0
 41 44  1  6  0  0  0
 38 45  1  6  0  0  0
 46 44  1  1  0  0  0
 46 47  1  0  0  0  0
 47 48  1  0  0  0  0
 48 49  1  0  0  0  0
 49 50  1  0  0  0  0
 50 51  1  0  0  0  0
 51 46  1  0  0  0  0
 51 52  1  6  0  0  0
 50 53  1  1  0  0  0
 49 54  1  1  0  0  0
  9 55  1  0  0  0  0
 55 56  1  0  0  0  0
 56 57  1  0  0  0  0
 57 58  2  0  0  0  0
 58 59  1  0  0  0  0
 59 60  2  0  0  0  0
 60 61  1  0  0  0  0
 61 62  2  0  0  0  0
 62 57  1  0  0  0  0
 60 63  1  0  0  0  0
 61 64  1  0  0  0  0
M  END
>  <cdx:groupId>
199

>  <cdx:fragmentId>
67

$$$$
