93931.cdx
  Mrv1902 05222410182D          

 43 47  0  0  0  0            999 V2000
    6.8384   -5.4329    0.0000 C   0  0  0  0  0  0  0  0  0  0  0  0
    6.8384   -6.2579    0.0000 C   0  0  0  0  0  0  0  0  0  0  0  0
    6.1239   -6.6704    0.0000 C   0  0  0  0  0  0  0  0  0  0  0  0
    6.1239   -7.4954    0.0000 O   0  0  0  0  0  0  0  0  0  0  0  0
    5.4095   -6.2579    0.0000 C   0  0  0  0  0  0  0  0  0  0  0  0
    4.6950   -6.6704    0.0000 C   0  0  0  0  0  0  0  0  0  0  0  0
    4.6950   -7.4954    0.0000 O   0  0  0  0  0  0  0  0  0  0  0  0
    3.9805   -6.2579    0.0000 C   0  0  0  0  0  0  0  0  0  0  0  0
    3.9805   -5.4329    0.0000 C   0  0  0  0  0  0  0  0  0  0  0  0
    3.2661   -5.0204    0.0000 O   0  0  0  0  0  0  0  0  0  0  0  0
    4.6950   -5.0204    0.0000 C   0  0  0  0  0  0  0  0  0  0  0  0
    5.4095   -5.4329    0.0000 C   0  0  0  0  0  0  0  0  0  0  0  0
    6.1239   -5.0204    0.0000 O   0  0  0  0  0  0  0  0  0  0  0  0
    7.5529   -5.0204    0.0000 C   0  0  0  0  0  0  0  0  0  0  0  0
    7.5529   -4.1954    0.0000 C   0  0  0  0  0  0  0  0  0  0  0  0
    8.2674   -3.7829    0.0000 C   0  0  0  0  0  0  0  0  0  0  0  0
    8.9818   -4.1954    0.0000 C   0  0  0  0  0  0  0  0  0  0  0  0
    9.6963   -3.7829    0.0000 O   0  0  0  0  0  0  0  0  0  0  0  0
    8.9818   -5.0204    0.0000 C   0  0  0  0  0  0  0  0  0  0  0  0
    8.2674   -5.4329    0.0000 C   0  0  0  0  0  0  0  0  0  0  0  0
    7.5529   -6.6704    0.0000 O   0  0  0  0  0  0  0  0  0  0  0  0
    6.8142   -8.7307    0.0000 C   0  0  1  0  0  0  0  0  0  0  0  0
    7.5285   -9.1434    0.0000 C   0  0  1  0  0  0  0  0  0  0  0  0
    8.2431   -8.7311    0.0000 C   0  0  2  0  0  0  0  0  0  0  0  0
    8.2434   -7.9061    0.0000 C   0  0  2  0  0  0  0  0  0  0  0  0
    7.5290   -7.4934    0.0000 C   0  0  1  0  0  0  0  0  0  0  0  0
    6.8144   -7.9057    0.0000 O   0  0  0  0  0  0  0  0  0  0  0  0
    6.0996   -9.1429    0.0000 C   0  0  0  0  0  0  0  0  0  0  0  0
    8.9580   -7.4939    0.0000 O   0  0  0  0  0  0  0  0  0  0  0  0
    8.9574   -9.1439    0.0000 O   0  0  0  0  0  0  0  0  0  0  0  0
    7.5282   -9.9684    0.0000 O   0  0  0  0  0  0  0  0  0  0  0  0
   10.3879   -9.1249    0.0000 C   0  0  2  0  0  0  0  0  0  0  0  0
   11.1017   -8.7114    0.0000 C   0  0  2  0  0  0  0  0  0  0  0  0
   11.1005   -7.8864    0.0000 C   0  0  1  0  0  0  0  0  0  0  0  0
   10.3854   -7.4749    0.0000 C   0  0  2  0  0  0  0  0  0  0  0  0
    9.6715   -7.8885    0.0000 C   0  0  1  0  0  0  0  0  0  0  0  0
    9.6728   -8.7135    0.0000 O   0  0  0  0  0  0  0  0  0  0  0  0
   10.3891   -9.9499    0.0000 C   0  0  0  0  0  0  0  0  0  0  0  0
   11.8143   -7.4728    0.0000 O   0  0  0  0  0  0  0  0  0  0  0  0
   11.8168   -9.1228    0.0000 O   0  0  0  0  0  0  0  0  0  0  0  0
   10.3841   -6.6500    0.0000 O   0  0  0  0  0  0  0  0  0  0  0  0
   11.1042  -10.3614    0.0000 O   0  0  0  0  0  0  0  0  0  0  0  0
   10.4108   -4.1954    0.0000 C   0  0  0  0  0  0  0  0  0  0  0  0
  1  2  2  0  0  0  0
  2  3  1  0  0  0  0
  3  4  2  0  0  0  0
  3  5  1  0  0  0  0
  5  6  1  0  0  0  0
  6  7  1  0  0  0  0
  6  8  2  0  0  0  0
  8  9  1  0  0  0  0
  9 10  1  0  0  0  0
  9 11  2  0  0  0  0
 11 12  1  0  0  0  0
  5 12  2  0  0  0  0
 12 13  1  0  0  0  0
  1 13  1  0  0  0  0
  1 14  1  0  0  0  0
 14 15  1  0  0  0  0
 15 16  2  0  0  0  0
 16 17  1  0  0  0  0
 17 18  1  0  0  0  0
 17 19  2  0  0  0  0
 19 20  1  0  0  0  0
 14 20  2  0  0  0  0
  2 21  1  0  0  0  0
 22 23  1  0  0  0  0
 23 24  1  0  0  0  0
 24 25  1  0  0  0  0
 25 26  1  0  0  0  0
 26 27  1  0  0  0  0
 27 22  1  0  0  0  0
 22 28  1  6  0  0  0
 25 29  1  6  0  0  0
 24 30  1  6  0  0  0
 23 31  1  1  0  0  0
 26 21  1  1  0  0  0
 32 33  1  0  0  0  0
 33 34  1  0  0  0  0
 34 35  1  0  0  0  0
 35 36  1  0  0  0  0
 36 37  1  0  0  0  0
 37 32  1  0  0  0  0
 32 38  1  1  0  0  0
 34 39  1  1  0  0  0
 33 40  1  6  0  0  0
 35 41  1  6  0  0  0
 38 42  1  0  0  0  0
 36 29  1  1  0  0  0
 18 43  1  0  0  0  0
M  END
>  <cdx:fragmentId>
45

$$$$
