93933.cdx
  Mrv1902 05222410182D          

 43 47  0  0  0  0            999 V2000
    8.1172   -6.5604    0.0000 C   0  0  0  0  0  0  0  0  0  0  0  0
    8.1172   -7.3854    0.0000 C   0  0  0  0  0  0  0  0  0  0  0  0
    7.4027   -7.7979    0.0000 C   0  0  0  0  0  0  0  0  0  0  0  0
    7.4027   -8.6229    0.0000 O   0  0  0  0  0  0  0  0  0  0  0  0
    6.6882   -7.3854    0.0000 C   0  0  0  0  0  0  0  0  0  0  0  0
    5.9738   -7.7979    0.0000 C   0  0  0  0  0  0  0  0  0  0  0  0
    5.9738   -8.6229    0.0000 O   0  0  0  0  0  0  0  0  0  0  0  0
    5.2593   -7.3854    0.0000 C   0  0  0  0  0  0  0  0  0  0  0  0
    5.2593   -6.5604    0.0000 C   0  0  0  0  0  0  0  0  0  0  0  0
    4.5448   -6.1479    0.0000 O   0  0  0  0  0  0  0  0  0  0  0  0
    5.9738   -6.1479    0.0000 C   0  0  0  0  0  0  0  0  0  0  0  0
    6.6882   -6.5604    0.0000 C   0  0  0  0  0  0  0  0  0  0  0  0
    7.4027   -6.1479    0.0000 O   0  0  0  0  0  0  0  0  0  0  0  0
    8.8316   -6.1479    0.0000 C   0  0  0  0  0  0  0  0  0  0  0  0
    8.8316   -5.3229    0.0000 C   0  0  0  0  0  0  0  0  0  0  0  0
    9.5461   -4.9104    0.0000 C   0  0  0  0  0  0  0  0  0  0  0  0
   10.2606   -5.3229    0.0000 C   0  0  0  0  0  0  0  0  0  0  0  0
   10.9750   -4.9104    0.0000 O   0  0  0  0  0  0  0  0  0  0  0  0
   10.2606   -6.1479    0.0000 C   0  0  0  0  0  0  0  0  0  0  0  0
    9.5461   -6.5604    0.0000 C   0  0  0  0  0  0  0  0  0  0  0  0
    8.8316   -7.7979    0.0000 O   0  0  0  0  0  0  0  0  0  0  0  0
    8.8316   -8.6229    0.0000 C   0  0  1  0  0  0  0  0  0  0  0  0
    9.5461   -9.0354    0.0000 C   0  0  1  0  0  0  0  0  0  0  0  0
    9.5461   -9.8604    0.0000 C   0  0  1  0  0  0  0  0  0  0  0  0
   10.2606  -10.2729    0.0000 O   0  0  0  0  0  0  0  0  0  0  0  0
    8.8316  -10.2729    0.0000 C   0  0  2  0  0  0  0  0  0  0  0  0
    8.8316  -11.0979    0.0000 O   0  0  0  0  0  0  0  0  0  0  0  0
    8.1172   -9.8604    0.0000 C   0  0  2  0  0  0  0  0  0  0  0  0
    8.1172   -9.0354    0.0000 O   0  0  0  0  0  0  0  0  0  0  0  0
    7.4027  -10.2729    0.0000 C   0  0  0  0  0  0  0  0  0  0  0  0
    6.6882   -9.8604    0.0000 O   0  0  0  0  0  0  0  0  0  0  0  0
   10.2606   -8.6229    0.0000 O   0  0  0  0  0  0  0  0  0  0  0  0
    3.7990   -9.0963    0.0000 C   0  0  0  0  0  0  0  0  0  0  0  0
    3.8153   -9.9211    0.0000 C   0  0  0  0  0  0  0  0  0  0  0  0
    4.5378  -10.3194    0.0000 C   0  0  0  0  0  0  0  0  0  0  0  0
    5.2440   -9.8929    0.0000 C   0  0  0  0  0  0  0  0  0  0  0  0
    5.2277   -9.0680    0.0000 C   0  0  0  0  0  0  0  0  0  0  0  0
    4.5052   -8.6697    0.0000 C   0  0  0  0  0  0  0  0  0  0  0  0
    4.4889   -7.8449    0.0000 O   0  0  0  0  0  0  0  0  0  0  0  0
    3.0765   -8.6980    0.0000 O   0  0  0  0  0  0  0  0  0  0  0  0
    3.1092  -10.3477    0.0000 O   0  0  0  0  0  0  0  0  0  0  0  0
    5.9665  -10.2911    0.0000 C   0  0  0  0  0  0  0  0  0  0  0  0
    5.9828  -11.1160    0.0000 O   0  0  0  0  0  0  0  0  0  0  0  0
  1  2  2  0  0  0  0
  2  3  1  0  0  0  0
  3  4  2  0  0  0  0
  3  5  1  0  0  0  0
  5  6  1  0  0  0  0
  6  7  1  0  0  0  0
  6  8  2  0  0  0  0
  8  9  1  0  0  0  0
  9 10  1  0  0  0  0
  9 11  2  0  0  0  0
 11 12  1  0  0  0  0
  5 12  2  0  0  0  0
 12 13  1  0  0  0  0
  1 13  1  0  0  0  0
  1 14  1  0  0  0  0
 14 15  1  0  0  0  0
 15 16  2  0  0  0  0
 16 17  1  0  0  0  0
 17 18  1  0  0  0  0
 17 19  2  0  0  0  0
 19 20  1  0  0  0  0
 14 20  2  0  0  0  0
 22 21  1  1  0  0  0
 22 23  1  0  0  0  0
 23 24  1  0  0  0  0
 24 25  1  1  0  0  0
 24 26  1  0  0  0  0
 26 27  1  6  0  0  0
 26 28  1  0  0  0  0
 28 29  1  0  0  0  0
 28 30  1  1  0  0  0
 30 31  1  0  0  0  0
 22 29  1  0  0  0  0
  2 21  1  0  0  0  0
 23 32  1  6  0  0  0
 33 34  2  0  0  0  0
 34 35  1  0  0  0  0
 35 36  2  0  0  0  0
 36 37  1  0  0  0  0
 37 38  2  0  0  0  0
 38 33  1  0  0  0  0
 38 39  1  0  0  0  0
 33 40  1  0  0  0  0
 34 41  1  0  0  0  0
 36 42  1  0  0  0  0
 42 43  2  0  0  0  0
 42 31  1  0  0  0  0
M  END
>  <cdx:groupId>
163

>  <cdx:fragmentId>
45

$$$$
