93932.cdx
  Mrv1902 05222410192D          

 53 58  0  0  0  0            999 V2000
    6.4122   -6.1066    0.0000 C   0  0  0  0  0  0  0  0  0  0  0  0
    6.4122   -6.9316    0.0000 C   0  0  0  0  0  0  0  0  0  0  0  0
    5.6977   -7.3441    0.0000 C   0  0  0  0  0  0  0  0  0  0  0  0
    5.6977   -8.1691    0.0000 O   0  0  0  0  0  0  0  0  0  0  0  0
    4.9832   -6.9316    0.0000 C   0  0  0  0  0  0  0  0  0  0  0  0
    4.2688   -7.3441    0.0000 C   0  0  0  0  0  0  0  0  0  0  0  0
    4.2688   -8.1691    0.0000 O   0  0  0  0  0  0  0  0  0  0  0  0
    3.5543   -6.9316    0.0000 C   0  0  0  0  0  0  0  0  0  0  0  0
    3.5543   -6.1066    0.0000 C   0  0  0  0  0  0  0  0  0  0  0  0
    2.8398   -5.6941    0.0000 O   0  0  0  0  0  0  0  0  0  0  0  0
    4.2688   -5.6941    0.0000 C   0  0  0  0  0  0  0  0  0  0  0  0
    4.9832   -6.1066    0.0000 C   0  0  0  0  0  0  0  0  0  0  0  0
    5.6977   -5.6941    0.0000 O   0  0  0  0  0  0  0  0  0  0  0  0
    7.1266   -5.6941    0.0000 C   0  0  0  0  0  0  0  0  0  0  0  0
    7.1266   -4.8691    0.0000 C   0  0  0  0  0  0  0  0  0  0  0  0
    7.8411   -4.4566    0.0000 C   0  0  0  0  0  0  0  0  0  0  0  0
    8.5556   -4.8691    0.0000 C   0  0  0  0  0  0  0  0  0  0  0  0
    9.2700   -4.4566    0.0000 O   0  0  0  0  0  0  0  0  0  0  0  0
    8.5556   -5.6941    0.0000 C   0  0  0  0  0  0  0  0  0  0  0  0
    7.8411   -6.1066    0.0000 C   0  0  0  0  0  0  0  0  0  0  0  0
    7.1266   -7.3441    0.0000 O   0  0  0  0  0  0  0  0  0  0  0  0
    7.1266   -8.1691    0.0000 C   0  0  1  0  0  0  0  0  0  0  0  0
    7.8411   -8.5816    0.0000 C   0  0  1  0  0  0  0  0  0  0  0  0
    7.8411   -9.4066    0.0000 C   0  0  1  0  0  0  0  0  0  0  0  0
    8.5556   -9.8191    0.0000 O   0  0  0  0  0  0  0  0  0  0  0  0
    7.1266   -9.8191    0.0000 C   0  0  2  0  0  0  0  0  0  0  0  0
    7.1266  -10.6441    0.0000 O   0  0  0  0  0  0  0  0  0  0  0  0
    6.4122   -9.4066    0.0000 C   0  0  2  0  0  0  0  0  0  0  0  0
    6.4122   -8.5816    0.0000 O   0  0  0  0  0  0  0  0  0  0  0  0
    5.6977   -9.8191    0.0000 C   0  0  0  0  0  0  0  0  0  0  0  0
    5.6977  -10.6441    0.0000 O   0  0  0  0  0  0  0  0  0  0  0  0
    8.5556   -8.1691    0.0000 O   0  0  0  0  0  0  0  0  0  0  0  0
    8.5482  -10.6545    0.0000 C   0  0  1  0  0  0  0  0  0  0  0  0
    9.2563  -11.0778    0.0000 C   0  0  1  0  0  0  0  0  0  0  0  0
    9.2439  -11.9027    0.0000 C   0  0  1  0  0  0  0  0  0  0  0  0
    9.9521  -12.3259    0.0000 O   0  0  0  0  0  0  0  0  0  0  0  0
    8.5233  -12.3044    0.0000 C   0  0  2  0  0  0  0  0  0  0  0  0
    8.5109  -13.1293    0.0000 O   0  0  0  0  0  0  0  0  0  0  0  0
    7.8151  -11.8811    0.0000 C   0  0  2  0  0  0  0  0  0  0  0  0
    7.8276  -11.0562    0.0000 O   0  0  0  0  0  0  0  0  0  0  0  0
    7.0945  -12.2828    0.0000 C   0  0  0  0  0  0  0  0  0  0  0  0
    7.0945  -13.1078    0.0000 O   0  0  0  0  0  0  0  0  0  0  0  0
    9.9769  -10.6761    0.0000 O   0  0  0  0  0  0  0  0  0  0  0  0
   10.6797   -8.7137    0.0000 C   0  0  1  0  0  0  0  0  0  0  0  0
   11.0281   -7.9658    0.0000 C   0  0  1  0  0  0  0  0  0  0  0  0
   10.5546   -7.2902    0.0000 C   0  0  2  0  0  0  0  0  0  0  0  0
    9.7328   -7.3624    0.0000 C   0  0  2  0  0  0  0  0  0  0  0  0
    9.3844   -8.1103    0.0000 C   0  0  1  0  0  0  0  0  0  0  0  0
    9.8579   -8.7859    0.0000 O   0  0  0  0  0  0  0  0  0  0  0  0
   11.1532   -9.3893    0.0000 C   0  0  0  0  0  0  0  0  0  0  0  0
    9.2593   -6.6868    0.0000 O   0  0  0  0  0  0  0  0  0  0  0  0
   10.9030   -6.5424    0.0000 O   0  0  0  0  0  0  0  0  0  0  0  0
   11.8499   -7.8936    0.0000 O   0  0  0  0  0  0  0  0  0  0  0  0
  1  2  2  0  0  0  0
  2  3  1  0  0  0  0
  3  4  2  0  0  0  0
  3  5  1  0  0  0  0
  5  6  1  0  0  0  0
  6  7  1  0  0  0  0
  6  8  2  0  0  0  0
  8  9  1  0  0  0  0
  9 10  1  0  0  0  0
  9 11  2  0  0  0  0
 11 12  1  0  0  0  0
  5 12  2  0  0  0  0
 12 13  1  0  0  0  0
  1 13  1  0  0  0  0
  1 14  1  0  0  0  0
 14 15  1  0  0  0  0
 15 16  2  0  0  0  0
 16 17  1  0  0  0  0
 17 18  1  0  0  0  0
 17 19  2  0  0  0  0
 19 20  1  0  0  0  0
 14 20  2  0  0  0  0
 22 21  1  1  0  0  0
 22 23  1  0  0  0  0
 23 24  1  0  0  0  0
 24 25  1  1  0  0  0
 24 26  1  0  0  0  0
 26 27  1  6  0  0  0
 26 28  1  0  0  0  0
 28 29  1  0  0  0  0
 28 30  1  1  0  0  0
 30 31  1  0  0  0  0
 22 29  1  0  0  0  0
  2 21  1  0  0  0  0
 23 32  1  6  0  0  0
 33 34  1  0  0  0  0
 34 35  1  0  0  0  0
 35 36  1  1  0  0  0
 35 37  1  0  0  0  0
 37 38  1  6  0  0  0
 37 39  1  0  0  0  0
 39 40  1  0  0  0  0
 39 41  1  1  0  0  0
 41 42  1  0  0  0  0
 33 40  1  0  0  0  0
 34 43  1  6  0  0  0
 44 45  1  0  0  0  0
 45 46  1  0  0  0  0
 46 47  1  0  0  0  0
 47 48  1  0  0  0  0
 48 49  1  0  0  0  0
 49 44  1  0  0  0  0
 44 50  1  6  0  0  0
 47 51  1  6  0  0  0
 46 52  1  6  0  0  0
 45 53  1  1  0  0  0
 48 32  1  1  0  0  0
 33 25  1  1  0  0  0
M  END
>  <cdx:fragmentId>
45

$$$$
