93934.cdx
  Mrv1902 05222410202D          

 34 37  0  0  0  0            999 V2000
   10.2041   -5.6047    0.0000 O   0  0  0  0  0  0  0  0  0  0  0  0
   11.6330   -6.4297    0.0000 O   0  0  0  0  0  0  0  0  0  0  0  0
   12.3475   -7.6672    0.0000 C   0  0  0  0  0  0  0  0  0  0  0  0
   11.6330   -8.0797    0.0000 O   0  0  0  0  0  0  0  0  0  0  0  0
   10.2041   -8.0797    0.0000 C   0  0  0  0  0  0  0  0  0  0  0  0
   10.9185   -7.6672    0.0000 C   0  0  0  0  0  0  0  0  0  0  0  0
   10.9185   -6.8422    0.0000 C   0  0  0  0  0  0  0  0  0  0  0  0
   10.2041   -6.4297    0.0000 C   0  0  0  0  0  0  0  0  0  0  0  0
    9.4896   -6.8422    0.0000 C   0  0  0  0  0  0  0  0  0  0  0  0
    9.4896   -7.6672    0.0000 C   0  0  0  0  0  0  0  0  0  0  0  0
    9.4896   -9.3172    0.0000 O   0  0  0  0  0  0  0  0  0  0  0  0
    6.6317  -10.1422    0.0000 O   0  0  0  0  0  0  0  0  0  0  0  0
    5.2028   -7.6672    0.0000 O   0  0  0  0  0  0  0  0  0  0  0  0
    8.0607  -10.1422    0.0000 O   0  0  0  0  0  0  0  0  0  0  0  0
    8.0607   -7.6672    0.0000 O   0  0  0  0  0  0  0  0  0  0  0  0
    7.3462   -8.0797    0.0000 C   0  0  0  0  0  0  0  0  0  0  0  0
    6.6317   -7.6672    0.0000 C   0  0  0  0  0  0  0  0  0  0  0  0
    5.9173   -8.0797    0.0000 C   0  0  0  0  0  0  0  0  0  0  0  0
    5.9173   -8.9047    0.0000 C   0  0  0  0  0  0  0  0  0  0  0  0
    6.6317   -9.3172    0.0000 C   0  0  0  0  0  0  0  0  0  0  0  0
    7.3462   -8.9047    0.0000 C   0  0  0  0  0  0  0  0  0  0  0  0
    8.0607   -9.3172    0.0000 C   0  0  0  0  0  0  0  0  0  0  0  0
    8.7751   -8.9047    0.0000 C   0  0  0  0  0  0  0  0  0  0  0  0
    8.7751   -8.0797    0.0000 C   0  0  0  0  0  0  0  0  0  0  0  0
    4.4883   -8.0797    0.0000 C   0  0  2  0  0  0  0  0  0  0  0  0
    3.7738   -7.6672    0.0000 O   0  0  0  0  0  0  0  0  0  0  0  0
    3.0594   -8.0797    0.0000 C   0  0  2  0  0  0  0  0  0  0  0  0
    3.0594   -8.9047    0.0000 C   0  0  1  0  0  0  0  0  0  0  0  0
    3.7738   -9.3172    0.0000 C   0  0  2  0  0  0  0  0  0  0  0  0
    4.4883   -8.9047    0.0000 C   0  0  1  0  0  0  0  0  0  0  0  0
    2.3449   -9.3172    0.0000 O   0  0  0  0  0  0  0  0  0  0  0  0
    2.3449   -7.6672    0.0000 C   0  0  0  0  0  0  0  0  0  0  0  0
    3.7738  -10.1422    0.0000 O   0  0  0  0  0  0  0  0  0  0  0  0
    5.2028   -9.3172    0.0000 O   0  0  0  0  0  0  0  0  0  0  0  0
 24 10  1  0  0  0  0
  8  1  1  0  0  0  0
  7  2  1  0  0  0  0
  6  4  1  0  0  0  0
  4  3  1  0  0  0  0
 10  5  2  0  0  0  0
  6  5  1  0  0  0  0
  7  6  2  0  0  0  0
  8  7  1  0  0  0  0
  9  8  2  0  0  0  0
 10  9  1  0  0  0  0
 23 11  1  0  0  0  0
 20 12  1  0  0  0  0
 18 13  1  0  0  0  0
 22 14  2  0  0  0  0
 24 15  1  0  0  0  0
 16 15  1  0  0  0  0
 21 16  2  0  0  0  0
 17 16  1  0  0  0  0
 18 17  2  0  0  0  0
 19 18  1  0  0  0  0
 20 19  2  0  0  0  0
 21 20  1  0  0  0  0
 22 21  1  0  0  0  0
 23 22  1  0  0  0  0
 24 23  2  0  0  0  0
 25 13  1  1  0  0  0
 25 26  1  0  0  0  0
 26 27  1  0  0  0  0
 27 28  1  0  0  0  0
 28 29  1  0  0  0  0
 29 30  1  0  0  0  0
 30 25  1  0  0  0  0
 28 31  1  1  0  0  0
 27 32  1  6  0  0  0
 29 33  1  6  0  0  0
 30 34  1  6  0  0  0
M  END
>  <cdx:groupId>
76

>  <cdx:fragmentId>
5

$$$$
