93939.cdx
  Mrv1902 05222410262D          

 12 13  0  0  0  0            999 V2000
    6.9025  -10.1404    0.0000 H   0  0  0  0  0  0  0  0  0  0  0  0
    6.9025   -7.6745    0.0000 C   0  0  0  0  0  0  0  0  0  0  0  0
    8.9108   -8.9074    0.0000 O   0  0  0  0  0  0  0  0  0  0  0  0
    6.8162   -9.3199    0.0000 C   0  0  2  0  0  0  0  0  0  0  0  0
    6.1018   -9.7324    0.0000 C   0  0  0  0  0  0  0  0  0  0  0  0
    5.3873   -9.3199    0.0000 C   0  0  0  0  0  0  0  0  0  0  0  0
    5.3873   -8.4949    0.0000 C   0  0  0  0  0  0  0  0  0  0  0  0
    6.1018   -8.0824    0.0000 C   0  0  0  0  0  0  0  0  0  0  0  0
    6.8162   -8.4949    0.0000 C   0  0  1  0  0  0  0  0  0  0  0  0
    7.6009   -8.2400    0.0000 C   0  0  0  0  0  0  0  0  0  0  0  0
    8.0858   -8.9074    0.0000 C   0  0  0  0  0  0  0  0  0  0  0  0
    7.6009   -9.5749    0.0000 C   0  0  0  0  0  0  0  0  0  0  0  0
  4  1  1  1  0  0  0
  9  2  1  1  0  0  0
 11  3  2  0  0  0  0
  9  4  1  0  0  0  0
 12  4  1  0  0  0  0
  5  4  1  0  0  0  0
  6  5  1  0  0  0  0
  7  6  1  0  0  0  0
  8  7  1  0  0  0  0
  9  8  1  0  0  0  0
 10  9  1  0  0  0  0
 11 10  1  0  0  0  0
 12 11  1  0  0  0  0
M  END
>  <cdx:fragmentId>
5

$$$$
