93936.cdx
  Mrv1902 05222410192D          

 20 20  0  0  0  0            999 V2000
    9.9014   -7.2193    0.0000 O   0  0  0  0  0  0  0  0  0  0  0  0
    7.7431   -7.6299    0.0000 C   0  0  2  0  0  0  0  0  0  0  0  0
    7.7382   -8.4549    0.0000 C   0  0  2  0  0  0  0  0  0  0  0  0
    8.4503   -8.8716    0.0000 C   0  0  1  0  0  0  0  0  0  0  0  0
    9.1671   -8.4633    0.0000 C   0  0  2  0  0  0  0  0  0  0  0  0
    9.1720   -7.6383    0.0000 C   0  0  1  0  0  0  0  0  0  0  0  0
    8.4600   -7.2216    0.0000 O   0  0  0  0  0  0  0  0  0  0  0  0
    7.0311   -7.2132    0.0000 C   0  0  0  0  0  0  0  0  0  0  0  0
    8.4454   -9.6966    0.0000 O   0  0  0  0  0  0  0  0  0  0  0  0
    7.0213   -8.8632    0.0000 O   0  0  0  0  0  0  0  0  0  0  0  0
    9.8792   -8.8800    0.0000 O   0  0  0  0  0  0  0  0  0  0  0  0
    6.3142   -7.6215    0.0000 O   0  0  0  0  0  0  0  0  0  0  0  0
    5.6054   -7.2050    0.0000 C   0  0  0  0  0  0  0  0  0  0  0  0
    4.8909   -7.6175    0.0000 C   0  0  2  0  0  0  0  0  0  0  0  0
    4.1765   -7.2050    0.0000 C   0  0  0  0  0  0  0  0  0  0  0  0
    3.4620   -7.6175    0.0000 C   0  0  0  0  0  0  0  0  0  0  0  0
    2.7475   -7.2050    0.0000 N   0  0  0  0  0  0  0  0  0  0  0  0
    3.4620   -8.4425    0.0000 O   0  0  0  0  0  0  0  0  0  0  0  0
    5.6054   -6.3800    0.0000 O   0  0  0  0  0  0  0  0  0  0  0  0
    4.8909   -8.4425    0.0000 N   0  0  0  0  0  0  0  0  0  0  0  0
  2  3  1  0  0  0  0
  3  4  1  0  0  0  0
  4  5  1  0  0  0  0
  5  6  1  0  0  0  0
  6  7  1  0  0  0  0
  7  2  1  0  0  0  0
  2  8  1  1  0  0  0
  4  9  1  1  0  0  0
  3 10  1  6  0  0  0
  5 11  1  6  0  0  0
  8 12  1  0  0  0  0
  6  1  1  1  0  0  0
 14 13  1  0  0  0  0
 15 14  1  0  0  0  0
 16 15  1  0  0  0  0
 17 16  1  0  0  0  0
 16 18  2  0  0  0  0
 13 19  2  0  0  0  0
 14 20  1  1  0  0  0
 13 12  1  0  0  0  0
M  END
>  <cdx:fragmentId>
144

$$$$
