93935.cdx
  Mrv1902 05222410202D          

 35 38  0  0  0  0            999 V2000
    8.8153   -5.2885    0.0000 O   0  0  0  0  0  0  0  0  0  0  0  0
   10.2443   -6.1135    0.0000 O   0  0  0  0  0  0  0  0  0  0  0  0
   10.9587   -7.3510    0.0000 C   0  0  0  0  0  0  0  0  0  0  0  0
   10.2443   -7.7635    0.0000 O   0  0  0  0  0  0  0  0  0  0  0  0
    8.8153   -7.7635    0.0000 C   0  0  0  0  0  0  0  0  0  0  0  0
    9.5298   -7.3510    0.0000 C   0  0  0  0  0  0  0  0  0  0  0  0
    9.5298   -6.5260    0.0000 C   0  0  0  0  0  0  0  0  0  0  0  0
    8.8153   -6.1135    0.0000 C   0  0  0  0  0  0  0  0  0  0  0  0
    8.1009   -6.5260    0.0000 C   0  0  0  0  0  0  0  0  0  0  0  0
    8.1009   -7.3510    0.0000 C   0  0  0  0  0  0  0  0  0  0  0  0
    8.1009   -9.0010    0.0000 O   0  0  0  0  0  0  0  0  0  0  0  0
    5.2430   -9.8260    0.0000 O   0  0  0  0  0  0  0  0  0  0  0  0
    3.8140   -7.3510    0.0000 O   0  0  0  0  0  0  0  0  0  0  0  0
    6.6719   -9.8260    0.0000 O   0  0  0  0  0  0  0  0  0  0  0  0
    6.6719   -7.3510    0.0000 O   0  0  0  0  0  0  0  0  0  0  0  0
    5.9574   -7.7635    0.0000 C   0  0  0  0  0  0  0  0  0  0  0  0
    5.2430   -7.3510    0.0000 C   0  0  0  0  0  0  0  0  0  0  0  0
    4.5285   -7.7635    0.0000 C   0  0  0  0  0  0  0  0  0  0  0  0
    4.5285   -8.5885    0.0000 C   0  0  0  0  0  0  0  0  0  0  0  0
    5.2430   -9.0010    0.0000 C   0  0  0  0  0  0  0  0  0  0  0  0
    5.9574   -8.5885    0.0000 C   0  0  0  0  0  0  0  0  0  0  0  0
    6.6719   -9.0010    0.0000 C   0  0  0  0  0  0  0  0  0  0  0  0
    7.3864   -8.5885    0.0000 C   0  0  0  0  0  0  0  0  0  0  0  0
    7.3864   -7.7635    0.0000 C   0  0  0  0  0  0  0  0  0  0  0  0
    7.3660  -11.0715    0.0000 C   0  0  2  0  0  0  0  0  0  0  0  0
    8.0758  -11.4920    0.0000 C   0  0  2  0  0  0  0  0  0  0  0  0
    8.7949  -11.0877    0.0000 C   0  0  1  0  0  0  0  0  0  0  0  0
    8.8042  -10.2627    0.0000 C   0  0  2  0  0  0  0  0  0  0  0  0
    8.0945   -9.8422    0.0000 C   0  0  1  0  0  0  0  0  0  0  0  0
    7.3754  -10.2465    0.0000 O   0  0  0  0  0  0  0  0  0  0  0  0
    6.6469  -11.4758    0.0000 C   0  0  0  0  0  0  0  0  0  0  0  0
    9.5046  -11.5082    0.0000 O   0  0  0  0  0  0  0  0  0  0  0  0
    8.0664  -12.3170    0.0000 O   0  0  0  0  0  0  0  0  0  0  0  0
    9.5233   -9.8584    0.0000 O   0  0  0  0  0  0  0  0  0  0  0  0
    6.6376  -12.3008    0.0000 O   0  0  0  0  0  0  0  0  0  0  0  0
 24 10  1  0  0  0  0
  8  1  1  0  0  0  0
  7  2  1  0  0  0  0
  6  4  1  0  0  0  0
  4  3  1  0  0  0  0
 10  5  2  0  0  0  0
  6  5  1  0  0  0  0
  7  6  2  0  0  0  0
  8  7  1  0  0  0  0
  9  8  2  0  0  0  0
 10  9  1  0  0  0  0
 23 11  1  0  0  0  0
 20 12  1  0  0  0  0
 18 13  1  0  0  0  0
 22 14  2  0  0  0  0
 24 15  1  0  0  0  0
 16 15  1  0  0  0  0
 21 16  2  0  0  0  0
 17 16  1  0  0  0  0
 18 17  2  0  0  0  0
 19 18  1  0  0  0  0
 20 19  2  0  0  0  0
 21 20  1  0  0  0  0
 22 21  1  0  0  0  0
 23 22  1  0  0  0  0
 24 23  2  0  0  0  0
 25 26  1  0  0  0  0
 26 27  1  0  0  0  0
 27 28  1  0  0  0  0
 28 29  1  0  0  0  0
 29 30  1  0  0  0  0
 30 25  1  0  0  0  0
 25 31  1  1  0  0  0
 27 32  1  1  0  0  0
 26 33  1  6  0  0  0
 28 34  1  6  0  0  0
 31 35  1  0  0  0  0
 29 11  1  1  0  0  0
M  END
>  <cdx:groupId>
76

>  <cdx:fragmentId>
5

$$$$
