93949.cdx
  Mrv1902 05222410252D          

 13 13  0  0  0  0            999 V2000
    4.1506   -5.3625    0.0000 C   0  0  2  0  0  0  0  0  0  0  0  0
    4.1506   -6.1875    0.0000 C   0  0  1  0  0  0  0  0  0  0  0  0
    4.8650   -6.6000    0.0000 C   0  0  0  0  0  0  0  0  0  0  0  0
    5.5795   -6.1875    0.0000 C   0  0  0  0  0  0  0  0  0  0  0  0
    5.5795   -5.3625    0.0000 C   0  0  0  0  0  0  0  0  0  0  0  0
    4.8650   -4.9500    0.0000 C   0  0  0  0  0  0  0  0  0  0  0  0
    3.4361   -4.9500    0.0000 O   0  0  0  0  0  0  0  0  0  0  0  0
    3.4361   -6.6000    0.0000 O   0  0  0  0  0  0  0  0  0  0  0  0
    6.2940   -4.9500    0.0000 C   0  0  0  0  0  0  0  0  0  0  0  0
    7.0084   -5.3625    0.0000 C   0  0  0  0  0  0  0  0  0  0  0  0
    7.7229   -4.9500    0.0000 C   0  0  0  0  0  0  0  0  0  0  0  0
    8.4374   -5.3625    0.0000 C   0  0  0  0  0  0  0  0  0  0  0  0
    9.1519   -4.9500    0.0000 C   0  0  0  0  0  0  0  0  0  0  0  0
  1  2  1  0  0  0  0
  2  3  1  0  0  0  0
  3  4  1  0  0  0  0
  4  5  1  0  0  0  0
  5  6  2  0  0  0  0
  6  1  1  0  0  0  0
  1  7  1  1  0  0  0
  2  8  1  1  0  0  0
  5  9  1  0  0  0  0
  9 10  1  0  0  0  0
 10 11  1  0  0  0  0
 11 12  1  0  0  0  0
 12 13  1  0  0  0  0
M  END
>  <cdx:fragmentId>
5

$$$$
