93941.cdx
  Mrv1902 05222410222D          

 13 12  0  0  0  0            999 V2000
    4.9768   -8.1569    0.0000 O   0  0  0  0  0  0  0  0  0  0  0  0
    5.4126   -7.4564    0.0000 C   0  0  0  0  0  0  0  0  0  0  0  0
    6.2372   -7.4836    0.0000 C   0  0  0  0  0  0  0  0  0  0  0  0
    5.0239   -6.7287    0.0000 O   0  0  0  0  0  0  0  0  0  0  0  0
    6.6730   -6.7831    0.0000 C   0  0  2  0  0  0  0  0  0  0  0  0
    7.0855   -6.0686    0.0000 C   0  0  0  0  0  0  0  0  0  0  0  0
    7.3806   -7.2073    0.0000 C   0  0  0  0  0  0  0  0  0  0  0  0
    5.9654   -6.3588    0.0000 O   0  0  0  0  0  0  0  0  0  0  0  0
    8.1017   -6.8066    0.0000 O   0  0  0  0  0  0  0  0  0  0  0  0
    7.3670   -8.0322    0.0000 O   0  0  0  0  0  0  0  0  0  0  0  0
    7.9105   -6.0686    0.0000 C   0  0  0  0  0  0  0  0  0  0  0  0
    8.3230   -5.3541    0.0000 C   0  0  0  0  0  0  0  0  0  0  0  0
    8.3230   -6.7831    0.0000 C   0  0  0  0  0  0  0  0  0  0  0  0
  1  2  1  0  0  0  0
  2  3  1  0  0  0  0
  2  4  2  0  0  0  0
  3  5  1  0  0  0  0
  5  6  1  0  0  0  0
  5  7  1  0  0  0  0
  5  8  1  1  0  0  0
  7  9  2  0  0  0  0
  7 10  1  0  0  0  0
  6 11  1  0  0  0  0
 11 12  1  0  0  0  0
 11 13  1  0  0  0  0
M  END
>  <cdx:fragmentId>
3

$$$$
