93946.cdx
  Mrv1902 05222410212D          

 24 26  0  0  0  0            999 V2000
    4.1987   -7.7275    0.0000 C   0  0  0  0  0  0  0  0  0  0  0  0
    4.1987   -8.5525    0.0000 C   0  0  0  0  0  0  0  0  0  0  0  0
    4.9131   -8.9650    0.0000 C   0  0  0  0  0  0  0  0  0  0  0  0
    5.6276   -8.5525    0.0000 C   0  0  0  0  0  0  0  0  0  0  0  0
    5.6276   -7.7275    0.0000 C   0  0  0  0  0  0  0  0  0  0  0  0
    4.9131   -7.3150    0.0000 C   0  0  0  0  0  0  0  0  0  0  0  0
    6.4122   -8.8074    0.0000 O   0  0  0  0  0  0  0  0  0  0  0  0
    6.8972   -8.1400    0.0000 C   0  0  1  0  0  0  0  0  0  0  0  0
    6.4122   -7.4726    0.0000 O   0  0  0  0  0  0  0  0  0  0  0  0
    3.4842   -7.3150    0.0000 C   0  0  0  0  0  0  0  0  0  0  0  0
    3.4842   -6.4900    0.0000 C   0  0  0  0  0  0  0  0  0  0  0  0
    2.7697   -6.0775    0.0000 C   0  0  0  0  0  0  0  0  0  0  0  0
    2.7697   -5.2525    0.0000 O   0  0  0  0  0  0  0  0  0  0  0  0
    2.0553   -6.4900    0.0000 O   0  0  0  0  0  0  0  0  0  0  0  0
    7.7222   -8.1400    0.0000 C   0  0  1  0  0  0  0  0  0  0  0  0
    8.1347   -7.4255    0.0000 C   0  0  0  0  0  0  0  0  0  0  0  0
    8.1347   -8.8545    0.0000 O   0  0  0  0  0  0  0  0  0  0  0  0
    8.9597   -7.4255    0.0000 C   0  0  0  0  0  0  0  0  0  0  0  0
    9.3722   -6.7111    0.0000 C   0  0  0  0  0  0  0  0  0  0  0  0
    8.9597   -5.9966    0.0000 C   0  0  0  0  0  0  0  0  0  0  0  0
    8.1347   -5.9966    0.0000 C   0  0  0  0  0  0  0  0  0  0  0  0
    7.7222   -6.7111    0.0000 C   0  0  0  0  0  0  0  0  0  0  0  0
   10.1972   -6.7111    0.0000 O   0  0  0  0  0  0  0  0  0  0  0  0
    9.3722   -5.2821    0.0000 O   0  0  0  0  0  0  0  0  0  0  0  0
  1  2  2  0  0  0  0
  2  3  1  0  0  0  0
  3  4  2  0  0  0  0
  4  5  1  0  0  0  0
  5  6  2  0  0  0  0
  6  1  1  0  0  0  0
  4  7  1  0  0  0  0
  8  7  1  1  0  0  0
  8  9  1  1  0  0  0
  9  5  1  0  0  0  0
  1 10  1  0  0  0  0
 10 11  2  0  0  0  0
 11 12  1  0  0  0  0
 12 13  1  0  0  0  0
 12 14  2  0  0  0  0
  8 15  1  0  0  0  0
 15 16  1  1  0  0  0
 15 17  1  1  0  0  0
 16 18  2  0  0  0  0
 18 19  1  0  0  0  0
 19 20  2  0  0  0  0
 20 21  1  0  0  0  0
 21 22  2  0  0  0  0
 22 16  1  0  0  0  0
 19 23  1  0  0  0  0
 20 24  1  0  0  0  0
M  END
>  <cdx:fragmentId>
106

$$$$
