93947.cdx
  Mrv1902 05222410202D          

 36 38  0  0  0  0            999 V2000
   10.7731   -7.3099    0.0000 C   0  0  2  0  0  0  0  0  0  0  0  0
   10.0643   -6.8877    0.0000 C   0  0  2  0  0  0  0  0  0  0  0  0
    9.3443   -7.2903    0.0000 C   0  0  1  0  0  0  0  0  0  0  0  0
    9.3330   -8.1152    0.0000 O   0  0  0  0  0  0  0  0  0  0  0  0
   10.0417   -8.5375    0.0000 C   0  0  1  0  0  0  0  0  0  0  0  0
   10.7618   -8.1348    0.0000 C   0  0  1  0  0  0  0  0  0  0  0  0
   10.0304   -9.3624    0.0000 C   0  0  0  0  0  0  0  0  0  0  0  0
   11.4932   -6.9073    0.0000 O   0  0  0  0  0  0  0  0  0  0  0  0
    8.6355   -6.8681    0.0000 O   0  0  0  0  0  0  0  0  0  0  0  0
   10.0757   -6.0627    0.0000 O   0  0  0  0  0  0  0  0  0  0  0  0
   11.4705   -8.5571    0.0000 O   0  0  0  0  0  0  0  0  0  0  0  0
   10.7392   -9.7847    0.0000 O   0  0  0  0  0  0  0  0  0  0  0  0
    7.9155   -7.2707    0.0000 C   0  0  0  0  0  0  0  0  0  0  0  0
    7.2067   -6.8485    0.0000 C   0  0  0  0  0  0  0  0  0  0  0  0
    7.2180   -6.0235    0.0000 O   0  0  0  0  0  0  0  0  0  0  0  0
    6.4867   -7.2511    0.0000 C   0  0  0  0  0  0  0  0  0  0  0  0
    6.4754   -8.0761    0.0000 C   0  0  0  0  0  0  0  0  0  0  0  0
    7.1841   -8.4983    0.0000 C   0  0  0  0  0  0  0  0  0  0  0  0
    7.9042   -8.0957    0.0000 C   0  0  0  0  0  0  0  0  0  0  0  0
    7.1728   -9.3232    0.0000 C   0  0  0  0  0  0  0  0  0  0  0  0
    6.4527   -9.7259    0.0000 C   0  0  0  0  0  0  0  0  0  0  0  0
    5.7440   -9.3036    0.0000 C   0  0  0  0  0  0  0  0  0  0  0  0
    5.0239   -9.7063    0.0000 O   0  0  0  0  0  0  0  0  0  0  0  0
    5.7553   -8.4787    0.0000 O   0  0  0  0  0  0  0  0  0  0  0  0
    4.3152   -9.2841    0.0000 C   0  0  2  0  0  0  0  0  0  0  0  0
    4.3265   -8.4591    0.0000 C   0  0  0  0  0  0  0  0  0  0  0  0
    3.6177   -8.0369    0.0000 C   0  0  1  0  0  0  0  0  0  0  0  0
    2.8977   -8.4395    0.0000 C   0  0  0  0  0  0  0  0  0  0  0  0
    2.8864   -9.2645    0.0000 C   0  0  2  0  0  0  0  0  0  0  0  0
    3.5951   -9.6867    0.0000 C   0  0  2  0  0  0  0  0  0  0  0  0
    3.5838  -10.5116    0.0000 O   0  0  0  0  0  0  0  0  0  0  0  0
    2.1663   -9.6671    0.0000 O   0  0  0  0  0  0  0  0  0  0  0  0
    3.2052   -7.3224    0.0000 O   0  0  0  0  0  0  0  0  0  0  0  0
    4.0302   -7.3224    0.0000 C   0  0  0  0  0  0  0  0  0  0  0  0
    3.6177   -6.6079    0.0000 O   0  0  0  0  0  0  0  0  0  0  0  0
    4.8552   -7.3224    0.0000 O   0  0  0  0  0  0  0  0  0  0  0  0
  1  2  1  0  0  0  0
  2  3  1  0  0  0  0
  3  4  1  0  0  0  0
  4  5  1  0  0  0  0
  5  6  1  0  0  0  0
  6  1  1  0  0  0  0
  5  7  1  1  0  0  0
  1  8  1  1  0  0  0
  3  9  1  1  0  0  0
  2 10  1  6  0  0  0
  6 11  1  6  0  0  0
  7 12  1  0  0  0  0
  9 13  1  0  0  0  0
 13 14  2  0  0  0  0
 14 15  1  0  0  0  0
 14 16  1  0  0  0  0
 16 17  2  0  0  0  0
 17 18  1  0  0  0  0
 18 19  2  0  0  0  0
 19 13  1  0  0  0  0
 18 20  1  0  0  0  0
 20 21  2  0  0  0  0
 21 22  1  0  0  0  0
 22 23  1  0  0  0  0
 22 24  2  0  0  0  0
 25 23  1  1  0  0  0
 25 26  1  0  0  0  0
 26 27  1  0  0  0  0
 27 28  1  0  0  0  0
 28 29  1  0  0  0  0
 29 30  1  0  0  0  0
 30 25  1  0  0  0  0
 30 31  1  1  0  0  0
 29 32  1  6  0  0  0
 27 33  1  1  0  0  0
 27 34  1  0  0  0  0
 34 35  2  0  0  0  0
 34 36  1  0  0  0  0
M  END
>  <cdx:fragmentId>
5

$$$$
