93954.cdx
  Mrv1902 05222410222D          

 13 15  0  0  0  0            999 V2000
    5.1947   -6.2443    0.0000 C   0  0  0  0  0  0  0  0  0  0  0  0
    5.4502   -7.0287    0.0000 C   0  0  0  0  0  0  0  0  0  0  0  0
    6.2573   -7.1996    0.0000 C   0  0  0  0  0  0  0  0  0  0  0  0
    6.8089   -6.5861    0.0000 N   0  0  0  0  0  0  0  0  0  0  0  0
    6.5533   -5.8017    0.0000 C   0  0  0  0  0  0  0  0  0  0  0  0
    5.7462   -5.6308    0.0000 C   0  0  0  0  0  0  0  0  0  0  0  0
    7.6339   -6.5855    0.0000 C   0  0  0  0  0  0  0  0  0  0  0  0
    7.8882   -5.8007    0.0000 N   0  3  0  0  0  0  0  0  0  0  0  0
    7.2204   -5.3163    0.0000 C   0  0  0  0  0  0  0  0  0  0  0  0
    8.1864   -7.1982    0.0000 C   0  0  0  0  0  0  0  0  0  0  0  0
    8.9932   -7.0261    0.0000 C   0  0  0  0  0  0  0  0  0  0  0  0
    9.2475   -6.2412    0.0000 C   0  0  0  0  0  0  0  0  0  0  0  0
    8.6951   -5.6286    0.0000 C   0  0  0  0  0  0  0  0  0  0  0  0
  1  2  1  0  0  0  0
  2  3  1  0  0  0  0
  3  4  1  0  0  0  0
  4  5  1  0  0  0  0
  5  6  1  0  0  0  0
  6  1  1  0  0  0  0
  4  7  1  0  0  0  0
  7  8  2  0  0  0  0
  8  9  1  0  0  0  0
  9  5  2  0  0  0  0
  7 10  1  0  0  0  0
 10 11  1  0  0  0  0
 11 12  1  0  0  0  0
 12 13  1  0  0  0  0
 13  8  1  0  0  0  0
M  CHG  1   8   1
M  END
>  <cdx:fragmentId>
5

$$$$
