93959.cdx
  Mrv1902 05222410242D          

 19 21  0  0  0  0            999 V2000
    6.2956   -6.9300    0.0000 C   0  0  0  0  0  0  0  0  0  0  0  0
    6.2956   -7.7550    0.0000 C   0  0  0  0  0  0  0  0  0  0  0  0
    7.0100   -8.1675    0.0000 C   0  0  0  0  0  0  0  0  0  0  0  0
    7.7245   -7.7550    0.0000 C   0  0  0  0  0  0  0  0  0  0  0  0
    7.7245   -6.9300    0.0000 C   0  0  0  0  0  0  0  0  0  0  0  0
    7.0100   -6.5175    0.0000 C   0  0  0  0  0  0  0  0  0  0  0  0
    8.4390   -8.1675    0.0000 O   0  0  0  0  0  0  0  0  0  0  0  0
    9.1534   -7.7550    0.0000 C   0  0  0  0  0  0  0  0  0  0  0  0
    9.1534   -6.9300    0.0000 C   0  0  0  0  0  0  0  0  0  0  0  0
    8.4390   -6.5175    0.0000 C   0  0  0  0  0  0  0  0  0  0  0  0
    5.5811   -6.5175    0.0000 O   0  0  0  0  0  0  0  0  0  0  0  0
    9.8679   -8.1675    0.0000 O   0  0  0  0  0  0  0  0  0  0  0  0
    5.6825   -8.3070    0.0000 O   0  0  0  0  0  0  0  0  0  0  0  0
    6.0180   -9.0607    0.0000 C   0  0  2  0  0  0  0  0  0  0  0  0
    6.8385   -8.9745    0.0000 C   0  0  0  0  0  0  0  0  0  0  0  0
    5.6055   -9.7752    0.0000 C   0  0  0  0  0  0  0  0  0  0  0  0
    6.0180  -10.4896    0.0000 C   0  0  0  0  0  0  0  0  0  0  0  0
    4.7805   -9.7752    0.0000 C   0  0  0  0  0  0  0  0  0  0  0  0
    4.8666   -6.9300    0.0000 C   0  0  0  0  0  0  0  0  0  0  0  0
  1  2  2  0  0  0  0
  2  3  1  0  0  0  0
  3  4  2  0  0  0  0
  4  5  1  0  0  0  0
  5  6  2  0  0  0  0
  6  1  1  0  0  0  0
  4  7  1  0  0  0  0
  7  8  1  0  0  0  0
  8  9  1  0  0  0  0
  9 10  2  0  0  0  0
 10  5  1  0  0  0  0
  1 11  1  0  0  0  0
  8 12  2  0  0  0  0
  2 13  1  0  0  0  0
 13 14  1  0  0  0  0
 14 15  1  0  0  0  0
 15  3  1  0  0  0  0
 14 16  1  6  0  0  0
 16 17  1  0  0  0  0
 16 18  2  0  0  0  0
 11 19  1  0  0  0  0
M  END
>  <cdx:fragmentId>
5

$$$$
