93951.cdx
  Mrv1902 05222410212D          

 30 32  0  0  0  0            999 V2000
    5.0786  -11.9647    0.0000 C   0  0  0  0  0  0  0  0  0  0  0  0
    5.8014  -12.3624    0.0000 C   0  0  0  0  0  0  0  0  0  0  0  0
    6.5072  -11.9352    0.0000 C   0  0  0  0  0  0  0  0  0  0  0  0
    6.4902  -11.1104    0.0000 C   0  0  0  0  0  0  0  0  0  0  0  0
    5.7674  -10.7127    0.0000 C   0  0  0  0  0  0  0  0  0  0  0  0
    5.0616  -11.1399    0.0000 C   0  0  0  0  0  0  0  0  0  0  0  0
    5.7504   -9.8879    0.0000 C   0  0  0  0  0  0  0  0  0  0  0  0
    5.0275   -9.4902    0.0000 O   0  0  0  0  0  0  0  0  0  0  0  0
    6.4562   -9.4608    0.0000 N   0  0  0  0  0  0  0  0  0  0  0  0
    6.4392   -8.6359    0.0000 C   0  0  1  0  0  0  0  0  0  0  0  0
    5.7163   -8.2383    0.0000 C   0  0  0  0  0  0  0  0  0  0  0  0
    7.1280   -7.3840    0.0000 O   0  0  0  0  0  0  0  0  0  0  0  0
    6.4052   -6.9863    0.0000 C   0  0  0  0  0  0  0  0  0  0  0  0
    5.6993   -7.4134    0.0000 C   0  0  0  0  0  0  0  0  0  0  0  0
    8.5736   -8.1793    0.0000 C   0  0  2  0  0  0  0  0  0  0  0  0
    6.3881   -6.1615    0.0000 C   0  0  0  0  0  0  0  0  0  0  0  0
    5.6653   -5.7638    0.0000 C   0  0  0  0  0  0  0  0  0  0  0  0
    4.9595   -6.1909    0.0000 C   0  0  0  0  0  0  0  0  0  0  0  0
    4.9765   -7.0157    0.0000 C   0  0  0  0  0  0  0  0  0  0  0  0
    8.5566   -7.3545    0.0000 C   0  0  0  0  0  0  0  0  0  0  0  0
    9.2964   -8.5770    0.0000 C   0  0  0  0  0  0  0  0  0  0  0  0
   10.0023   -8.1499    0.0000 C   0  0  0  0  0  0  0  0  0  0  0  0
    9.9853   -7.3250    0.0000 C   0  0  0  0  0  0  0  0  0  0  0  0
    9.2624   -6.9274    0.0000 O   0  0  0  0  0  0  0  0  0  0  0  0
   10.7251   -8.5475    0.0000 C   0  0  0  0  0  0  0  0  0  0  0  0
   11.4309   -8.1204    0.0000 C   0  0  0  0  0  0  0  0  0  0  0  0
   11.4139   -7.2956    0.0000 C   0  0  0  0  0  0  0  0  0  0  0  0
   10.6911   -6.8979    0.0000 C   0  0  0  0  0  0  0  0  0  0  0  0
    7.8678   -8.6065    0.0000 N   0  0  0  0  0  0  0  0  0  0  0  0
    7.1450   -8.2088    0.0000 C   0  0  0  0  0  0  0  0  0  0  0  0
  1  2  2  0  0  0  0
  2  3  1  0  0  0  0
  3  4  2  0  0  0  0
  4  5  1  0  0  0  0
  5  6  2  0  0  0  0
  6  1  1  0  0  0  0
  5  7  1  0  0  0  0
  7  8  2  0  0  0  0
  7  9  1  0  0  0  0
 10  9  1  1  0  0  0
 10 11  1  0  0  0  0
 30 12  2  0  0  0  0
 10 30  1  0  0  0  0
 13 14  2  0  0  0  0
 14 11  1  0  0  0  0
 13 16  1  0  0  0  0
 16 17  2  0  0  0  0
 17 18  1  0  0  0  0
 18 19  2  0  0  0  0
 19 14  1  0  0  0  0
 15 20  1  0  0  0  0
 15 21  1  0  0  0  0
 21 22  1  0  0  0  0
 22 23  1  0  0  0  0
 24 20  1  0  0  0  0
 22 25  2  0  0  0  0
 25 26  1  0  0  0  0
 26 27  2  0  0  0  0
 27 28  1  0  0  0  0
 28 23  2  0  0  0  0
 15 29  1  6  0  0  0
 30 29  1  0  0  0  0
M  END
>  <cdx:fragmentId>
5

$$$$
