93952.cdx
  Mrv1902 05222410212D          

 26 29  0  0  0  0            999 V2000
    5.6493   -9.5563    0.0000 C   0  0  0  0  0  0  0  0  0  0  0  0
    5.6493  -10.3812    0.0000 C   0  0  0  0  0  0  0  0  0  0  0  0
    6.3638  -10.7937    0.0000 C   0  0  0  0  0  0  0  0  0  0  0  0
    7.0782  -10.3812    0.0000 C   0  0  0  0  0  0  0  0  0  0  0  0
    7.0782   -9.5563    0.0000 C   0  0  0  0  0  0  0  0  0  0  0  0
    6.3638   -9.1438    0.0000 C   0  0  0  0  0  0  0  0  0  0  0  0
    7.7927  -10.7937    0.0000 O   0  0  0  0  0  0  0  0  0  0  0  0
    8.5072  -10.3812    0.0000 C   0  0  0  0  0  0  0  0  0  0  0  0
    8.5072   -9.5563    0.0000 C   0  0  0  0  0  0  0  0  0  0  0  0
    7.7927   -9.1438    0.0000 C   0  0  0  0  0  0  0  0  0  0  0  0
    4.8647   -9.3013    0.0000 C   0  0  0  0  0  0  0  0  0  0  0  0
    4.3798   -9.9688    0.0000 C   0  0  0  0  0  0  0  0  0  0  0  0
    4.8647  -10.6362    0.0000 O   0  0  0  0  0  0  0  0  0  0  0  0
    6.3638   -8.3187    0.0000 O   0  0  0  0  0  0  0  0  0  0  0  0
    9.2217  -10.7937    0.0000 O   0  0  0  0  0  0  0  0  0  0  0  0
    7.0782   -7.9063    0.0000 C   0  0  0  0  0  0  0  0  0  0  0  0
    7.0782   -7.0812    0.0000 C   0  0  0  0  0  0  0  0  0  0  0  0
    7.7927   -6.6688    0.0000 C   0  0  0  0  0  0  0  0  0  0  0  0
    7.7927   -5.8438    0.0000 C   0  0  0  0  0  0  0  0  0  0  0  0
    8.5072   -7.0812    0.0000 C   0  0  0  0  0  0  0  0  0  0  0  0
    8.5072   -5.4313    0.0000 C   0  0  0  0  0  0  0  0  0  0  0  0
    9.3322   -5.4313    0.0000 O   0  0  0  0  0  0  0  0  0  0  0  0
    8.9197   -4.7168    0.0000 C   0  0  0  0  0  0  0  0  0  0  0  0
    8.9197   -3.8918    0.0000 C   0  0  0  0  0  0  0  0  0  0  0  0
    8.2052   -3.4793    0.0000 C   0  0  0  0  0  0  0  0  0  0  0  0
    9.6342   -3.4793    0.0000 C   0  0  0  0  0  0  0  0  0  0  0  0
  1  2  2  0  0  0  0
  2  3  1  0  0  0  0
  3  4  2  0  0  0  0
  4  5  1  0  0  0  0
  5  6  2  0  0  0  0
  6  1  1  0  0  0  0
  4  7  1  0  0  0  0
  7  8  1  0  0  0  0
  8  9  1  0  0  0  0
  9 10  2  0  0  0  0
 10  5  1  0  0  0  0
  1 11  1  0  0  0  0
 11 12  2  0  0  0  0
 12 13  1  0  0  0  0
 13  2  1  0  0  0  0
  6 14  1  0  0  0  0
  8 15  2  0  0  0  0
 14 16  1  0  0  0  0
 16 17  1  0  0  0  0
 17 18  2  0  0  0  0
 18 19  1  0  0  0  0
 18 20  1  0  0  0  0
 19 21  1  0  0  0  0
 21 22  1  0  0  0  0
 22 23  1  0  0  0  0
 23 21  1  0  0  0  0
 23 24  1  0  0  0  0
 24 25  1  0  0  0  0
 24 26  2  0  0  0  0
M  END
>  <cdx:fragmentId>
5

$$$$
