93957.cdx
  Mrv1902 05222410232D          

 38 41  0  0  0  0            999 V2000
   13.4358   -7.6191    0.0000 O   0  0  0  0  0  0  0  0  0  0  0  0
   13.4358   -5.9691    0.0000 O   0  0  0  0  0  0  0  0  0  0  0  0
   11.2924   -6.3816    0.0000 C   0  0  0  0  0  0  0  0  0  0  0  0
   12.0068   -5.9691    0.0000 C   0  0  0  0  0  0  0  0  0  0  0  0
   12.7213   -6.3816    0.0000 C   0  0  0  0  0  0  0  0  0  0  0  0
   12.7213   -7.2066    0.0000 C   0  0  0  0  0  0  0  0  0  0  0  0
   12.0068   -7.6191    0.0000 C   0  0  0  0  0  0  0  0  0  0  0  0
   11.2924   -7.2066    0.0000 C   0  0  0  0  0  0  0  0  0  0  0  0
    8.4345   -9.6816    0.0000 O   0  0  0  0  0  0  0  0  0  0  0  0
    7.0055   -7.2066    0.0000 O   0  0  0  0  0  0  0  0  0  0  0  0
    9.8634   -9.6816    0.0000 O   0  0  0  0  0  0  0  0  0  0  0  0
    9.8634   -7.2066    0.0000 O   0  0  0  0  0  0  0  0  0  0  0  0
    9.1489   -7.6191    0.0000 C   0  0  0  0  0  0  0  0  0  0  0  0
    8.4345   -7.2066    0.0000 C   0  0  0  0  0  0  0  0  0  0  0  0
    7.7200   -7.6191    0.0000 C   0  0  0  0  0  0  0  0  0  0  0  0
    7.7200   -8.4441    0.0000 C   0  0  0  0  0  0  0  0  0  0  0  0
    8.4345   -8.8566    0.0000 C   0  0  0  0  0  0  0  0  0  0  0  0
    9.1489   -8.4441    0.0000 C   0  0  0  0  0  0  0  0  0  0  0  0
    9.8634   -8.8566    0.0000 C   0  0  0  0  0  0  0  0  0  0  0  0
   10.5779   -8.4441    0.0000 C   0  0  0  0  0  0  0  0  0  0  0  0
   10.5779   -7.6191    0.0000 C   0  0  0  0  0  0  0  0  0  0  0  0
    6.2911   -7.6191    0.0000 C   0  0  2  0  0  0  0  0  0  0  0  0
    5.5766   -7.2066    0.0000 O   0  0  0  0  0  0  0  0  0  0  0  0
    4.8621   -7.6191    0.0000 C   0  0  1  0  0  0  0  0  0  0  0  0
    4.8621   -8.4441    0.0000 C   0  0  2  0  0  0  0  0  0  0  0  0
    5.5766   -8.8566    0.0000 C   0  0  1  0  0  0  0  0  0  0  0  0
    6.2911   -8.4441    0.0000 C   0  0  1  0  0  0  0  0  0  0  0  0
    4.1476   -7.2066    0.0000 C   0  0  0  0  0  0  0  0  0  0  0  0
    5.5766   -9.6816    0.0000 O   0  0  0  0  0  0  0  0  0  0  0  0
    4.1476   -8.8566    0.0000 O   0  0  0  0  0  0  0  0  0  0  0  0
    7.0055   -8.8566    0.0000 O   0  0  0  0  0  0  0  0  0  0  0  0
    3.4332   -7.6191    0.0000 O   0  0  0  0  0  0  0  0  0  0  0  0
    2.7187   -7.2066    0.0000 C   0  0  0  0  0  0  0  0  0  0  0  0
    2.0042   -7.6191    0.0000 C   0  0  0  0  0  0  0  0  0  0  0  0
    1.2898   -7.2066    0.0000 C   0  0  0  0  0  0  0  0  0  0  0  0
    0.5753   -7.6191    0.0000 O   0  0  0  0  0  0  0  0  0  0  0  0
    1.2898   -6.3816    0.0000 O   0  0  0  0  0  0  0  0  0  0  0  0
    2.7187   -6.3816    0.0000 O   0  0  0  0  0  0  0  0  0  0  0  0
 21  8  1  0  0  0  0
  6  1  1  0  0  0  0
  5  2  1  0  0  0  0
  8  3  2  0  0  0  0
  4  3  1  0  0  0  0
  5  4  2  0  0  0  0
  6  5  1  0  0  0  0
  7  6  2  0  0  0  0
  8  7  1  0  0  0  0
 17  9  1  0  0  0  0
 15 10  1  0  0  0  0
 19 11  2  0  0  0  0
 21 12  1  0  0  0  0
 13 12  1  0  0  0  0
 18 13  2  0  0  0  0
 14 13  1  0  0  0  0
 15 14  2  0  0  0  0
 16 15  1  0  0  0  0
 17 16  2  0  0  0  0
 18 17  1  0  0  0  0
 19 18  1  0  0  0  0
 20 19  1  0  0  0  0
 21 20  2  0  0  0  0
 22 10  1  1  0  0  0
 22 23  1  0  0  0  0
 23 24  1  0  0  0  0
 24 25  1  0  0  0  0
 25 26  1  0  0  0  0
 26 27  1  0  0  0  0
 27 22  1  0  0  0  0
 24 28  1  1  0  0  0
 26 29  1  1  0  0  0
 25 30  1  6  0  0  0
 27 31  1  6  0  0  0
 28 32  1  0  0  0  0
 32 33  1  0  0  0  0
 33 34  1  0  0  0  0
 34 35  1  0  0  0  0
 35 36  1  0  0  0  0
 35 37  2  0  0  0  0
 33 38  2  0  0  0  0
M  END
>  <cdx:groupId>
67

>  <cdx:fragmentId>
5

$$$$
