93950.cdx
  Mrv1902 05222410212D          

 19 19  0  0  0  0            999 V2000
    6.8384   -9.5120    0.0000 O   0  0  0  0  0  0  0  0  0  0  0  0
    7.9654   -7.5601    0.0000 O   0  0  0  0  0  0  0  0  0  0  0  0
   12.9667  -10.4476    0.0000 C   0  0  0  0  0  0  0  0  0  0  0  0
   12.2522  -10.0351    0.0000 C   0  0  0  0  0  0  0  0  0  0  0  0
   11.5377  -10.4476    0.0000 C   0  0  0  0  0  0  0  0  0  0  0  0
   10.8233  -10.0351    0.0000 C   0  0  0  0  0  0  0  0  0  0  0  0
   10.1088   -9.6226    0.0000 C   0  0  0  0  0  0  0  0  0  0  0  0
    9.3943   -9.2101    0.0000 C   0  0  0  0  0  0  0  0  0  0  0  0
    8.6799   -8.7976    0.0000 C   0  0  0  0  0  0  0  0  0  0  0  0
    7.9654   -8.3851    0.0000 C   0  0  0  0  0  0  0  0  0  0  0  0
    7.2509   -8.7976    0.0000 C   0  0  2  0  0  0  0  0  0  0  0  0
    6.4259   -8.7976    0.0000 C   0  0  2  0  0  0  0  0  0  0  0  0
    5.7114   -8.3851    0.0000 C   0  0  0  0  0  0  0  0  0  0  0  0
    4.9970   -8.7976    0.0000 C   0  0  0  0  0  0  0  0  0  0  0  0
    4.2825   -8.3851    0.0000 C   0  0  0  0  0  0  0  0  0  0  0  0
    3.5680   -8.7976    0.0000 C   0  0  0  0  0  0  0  0  0  0  0  0
    2.8536   -8.3851    0.0000 C   0  0  0  0  0  0  0  0  0  0  0  0
    2.1391   -8.7976    0.0000 C   0  0  0  0  0  0  0  0  0  0  0  0
    1.4246   -8.3851    0.0000 C   0  0  0  0  0  0  0  0  0  0  0  0
 11  1  1  1  0  0  0
 12  1  1  0  0  0  0
 10  2  1  0  0  0  0
  4  3  1  0  0  0  0
  5  4  1  0  0  0  0
  6  5  1  0  0  0  0
  7  6  3  0  0  0  0
  8  7  1  0  0  0  0
  9  8  3  0  0  0  0
 10  9  1  0  0  0  0
 11 10  1  0  0  0  0
 12 11  1  0  0  0  0
 12 13  1  1  0  0  0
 14 13  1  0  0  0  0
 15 14  1  0  0  0  0
 16 15  1  0  0  0  0
 17 16  1  0  0  0  0
 18 17  1  0  0  0  0
 19 18  2  0  0  0  0
M  END
>  <cdx:fragmentId>
5

$$$$
