9395.cdx
  Mrv1902 05222410202D          

 25 28  0  0  0  0            999 V2000
    2.8702   -7.6725    0.0000 C   0  0  0  0  0  0  0  0  0  0  0  0
    2.8702   -8.4975    0.0000 C   0  0  0  0  0  0  0  0  0  0  0  0
    3.5846   -8.9100    0.0000 C   0  0  0  0  0  0  0  0  0  0  0  0
    4.2991   -8.4975    0.0000 C   0  0  0  0  0  0  0  0  0  0  0  0
    4.2991   -7.6725    0.0000 C   0  0  0  0  0  0  0  0  0  0  0  0
    3.5846   -7.2600    0.0000 O   0  0  0  0  0  0  0  0  0  0  0  0
    5.0136   -8.9100    0.0000 C   0  0  0  0  0  0  0  0  0  0  0  0
    5.7280   -8.4975    0.0000 C   0  0  0  0  0  0  0  0  0  0  0  0
    5.7280   -7.6725    0.0000 C   0  0  0  0  0  0  0  0  0  0  0  0
    5.0136   -7.2600    0.0000 C   0  0  0  0  0  0  0  0  0  0  0  0
    6.5127   -8.7524    0.0000 C   0  0  0  0  0  0  0  0  0  0  0  0
    6.9976   -8.0850    0.0000 C   0  0  0  0  0  0  0  0  0  0  0  0
    6.5127   -7.4176    0.0000 O   0  0  0  0  0  0  0  0  0  0  0  0
    7.8226   -8.0850    0.0000 C   0  0  0  0  0  0  0  0  0  0  0  0
    8.2351   -8.7995    0.0000 C   0  0  0  0  0  0  0  0  0  0  0  0
    9.0601   -8.7995    0.0000 C   0  0  0  0  0  0  0  0  0  0  0  0
    9.4726   -8.0850    0.0000 C   0  0  0  0  0  0  0  0  0  0  0  0
    9.0601   -7.3705    0.0000 C   0  0  0  0  0  0  0  0  0  0  0  0
    8.2351   -7.3705    0.0000 C   0  0  0  0  0  0  0  0  0  0  0  0
    2.4577   -6.9580    0.0000 C   0  0  0  0  0  0  0  0  0  0  0  0
    2.0733   -7.8860    0.0000 C   0  0  0  0  0  0  0  0  0  0  0  0
    5.0136   -9.7350    0.0000 O   0  0  0  0  0  0  0  0  0  0  0  0
    7.8226   -9.5139    0.0000 O   0  0  0  0  0  0  0  0  0  0  0  0
   10.2976   -8.0850    0.0000 O   0  0  0  0  0  0  0  0  0  0  0  0
    5.7280  -10.1475    0.0000 C   0  0  0  0  0  0  0  0  0  0  0  0
  1  2  1  0  0  0  0
  2  3  1  0  0  0  0
  3  4  1  0  0  0  0
  4  5  2  0  0  0  0
  5  6  1  0  0  0  0
  6  1  1  0  0  0  0
  4  7  1  0  0  0  0
  7  8  2  0  0  0  0
  8  9  1  0  0  0  0
  9 10  2  0  0  0  0
 10  5  1  0  0  0  0
  8 11  1  0  0  0  0
 11 12  2  0  0  0  0
 12 13  1  0  0  0  0
 13  9  1  0  0  0  0
 12 14  1  0  0  0  0
 14 15  2  0  0  0  0
 15 16  1  0  0  0  0
 16 17  2  0  0  0  0
 17 18  1  0  0  0  0
 18 19  2  0  0  0  0
 19 14  1  0  0  0  0
  1 20  1  0  0  0  0
  1 21  1  0  0  0  0
  7 22  1  0  0  0  0
 15 23  1  0  0  0  0
 17 24  1  0  0  0  0
 22 25  1  0  0  0  0
M  END
>  <cdx:fragmentId>
5

$$$$
