93961.cdx
  Mrv1902 05222410252D          

 15 15  0  0  0  0            999 V2000
    6.0206  -10.2575    0.0000 C   0  0  0  0  0  0  0  0  0  0  0  0
    6.0206  -11.0825    0.0000 C   0  0  0  0  0  0  0  0  0  0  0  0
    6.7350  -11.4950    0.0000 C   0  0  0  0  0  0  0  0  0  0  0  0
    7.4495  -11.0825    0.0000 C   0  0  0  0  0  0  0  0  0  0  0  0
    7.4495  -10.2575    0.0000 C   0  0  0  0  0  0  0  0  0  0  0  0
    6.7350   -9.8450    0.0000 C   0  0  0  0  0  0  0  0  0  0  0  0
    6.7350   -9.0200    0.0000 C   0  0  0  0  0  0  0  0  0  0  0  0
    6.0206   -8.6075    0.0000 O   0  0  0  0  0  0  0  0  0  0  0  0
    7.4495   -8.6075    0.0000 O   0  0  0  0  0  0  0  0  0  0  0  0
    7.4495   -7.7825    0.0000 C   0  0  0  0  0  0  0  0  0  0  0  0
    8.1640   -7.3700    0.0000 C   0  0  0  0  0  0  0  0  0  0  0  0
    8.1640   -6.5450    0.0000 C   0  0  0  0  0  0  0  0  0  0  0  0
    8.8784   -6.1325    0.0000 C   0  0  0  0  0  0  0  0  0  0  0  0
    8.8784   -5.3075    0.0000 C   0  0  0  0  0  0  0  0  0  0  0  0
    9.5929   -4.8950    0.0000 C   0  0  0  0  0  0  0  0  0  0  0  0
  1  2  2  0  0  0  0
  2  3  1  0  0  0  0
  3  4  2  0  0  0  0
  4  5  1  0  0  0  0
  5  6  2  0  0  0  0
  6  1  1  0  0  0  0
  6  7  1  0  0  0  0
  7  8  2  0  0  0  0
  7  9  1  0  0  0  0
  9 10  1  0  0  0  0
 10 11  1  0  0  0  0
 11 12  2  0  0  0  0
 12 13  1  0  0  0  0
 13 14  1  0  0  0  0
 14 15  1  0  0  0  0
M  END
>  <cdx:fragmentId>
5

$$$$
