93967.cdx
  Mrv1902 05222410242D          

 15 16  0  0  0  0            999 V2000
    8.3101   -4.2908    0.0000 C   0  0  0  0  0  0  0  0  0  0  0  0
    9.0246   -3.8783    0.0000 C   0  0  0  0  0  0  0  0  0  0  0  0
    8.3101   -5.1158    0.0000 C   0  0  0  0  0  0  0  0  0  0  0  0
    9.0246   -5.5283    0.0000 C   0  0  0  0  0  0  0  0  0  0  0  0
    9.0246   -6.3533    0.0000 C   0  0  0  0  0  0  0  0  0  0  0  0
    8.3101   -6.7658    0.0000 C   0  0  0  0  0  0  0  0  0  0  0  0
    7.5957   -6.3533    0.0000 C   0  0  0  0  0  0  0  0  0  0  0  0
    6.8812   -6.7658    0.0000 C   0  0  0  0  0  0  0  0  0  0  0  0
    6.1667   -6.3533    0.0000 C   0  0  0  0  0  0  0  0  0  0  0  0
    6.1667   -5.5283    0.0000 C   0  0  0  0  0  0  0  0  0  0  0  0
    6.8812   -5.1158    0.0000 C   0  0  0  0  0  0  0  0  0  0  0  0
    7.5957   -5.5283    0.0000 C   0  0  0  0  0  0  0  0  0  0  0  0
    5.4522   -6.7658    0.0000 O   0  0  0  0  0  0  0  0  0  0  0  0
    4.7378   -6.3533    0.0000 C   0  0  0  0  0  0  0  0  0  0  0  0
    7.5957   -3.8783    0.0000 O   0  0  0  0  0  0  0  0  0  0  0  0
  1  2  1  0  0  0  0
  3  4  1  0  0  0  0
  4  5  2  0  0  0  0
  5  6  1  0  0  0  0
  6  7  2  0  0  0  0
  7  8  1  0  0  0  0
  8  9  2  0  0  0  0
  9 10  1  0  0  0  0
 10 11  2  0  0  0  0
 11 12  1  0  0  0  0
  3 12  2  0  0  0  0
  7 12  1  0  0  0  0
 13 14  1  0  0  0  0
  9 13  1  0  0  0  0
  1  3  1  0  0  0  0
  1 15  2  0  0  0  0
M  END
>  <cdx:fragmentId>
9

$$$$
