93962.cdx
  Mrv1902 05222410262D          

 18 18  0  0  0  0            999 V2000
    7.0518   -6.7100    0.0000 C   0  0  0  0  0  0  0  0  0  0  0  0
    7.0518   -7.5350    0.0000 C   0  0  0  0  0  0  0  0  0  0  0  0
    7.7663   -7.9475    0.0000 C   0  0  0  0  0  0  0  0  0  0  0  0
    8.4807   -7.5350    0.0000 C   0  0  0  0  0  0  0  0  0  0  0  0
    8.4807   -6.7100    0.0000 C   0  0  0  0  0  0  0  0  0  0  0  0
    7.7663   -6.2975    0.0000 O   0  0  0  0  0  0  0  0  0  0  0  0
    6.3373   -6.2975    0.0000 C   0  0  0  0  0  0  0  0  0  0  0  0
    6.3373   -7.9475    0.0000 O   0  0  0  0  0  0  0  0  0  0  0  0
    7.7663   -8.7725    0.0000 O   0  0  0  0  0  0  0  0  0  0  0  0
    9.1952   -7.9475    0.0000 O   0  0  0  0  0  0  0  0  0  0  0  0
    9.1952   -6.2975    0.0000 O   0  0  0  0  0  0  0  0  0  0  0  0
    5.6229   -6.7100    0.0000 O   0  0  0  0  0  0  0  0  0  0  0  0
    4.9084   -6.2975    0.0000 C   0  0  0  0  0  0  0  0  0  0  0  0
    4.1939   -6.7100    0.0000 C   0  0  0  0  0  0  0  0  0  0  0  0
    3.4794   -6.2975    0.0000 C   0  0  0  0  0  0  0  0  0  0  0  0
    2.7650   -6.7100    0.0000 O   0  0  0  0  0  0  0  0  0  0  0  0
    3.4794   -5.4725    0.0000 O   0  0  0  0  0  0  0  0  0  0  0  0
    4.9084   -5.4725    0.0000 O   0  0  0  0  0  0  0  0  0  0  0  0
  1  2  1  0  0  0  0
  2  3  1  0  0  0  0
  3  4  1  0  0  0  0
  4  5  1  0  0  0  0
  5  6  1  0  0  0  0
  6  1  1  0  0  0  0
  1  7  1  0  0  0  0
  2  8  1  0  0  0  0
  3  9  1  0  0  0  0
  4 10  1  0  0  0  0
  5 11  1  0  0  0  0
  7 12  1  0  0  0  0
 12 13  1  0  0  0  0
 13 14  1  0  0  0  0
 14 15  1  0  0  0  0
 15 16  1  0  0  0  0
 15 17  2  0  0  0  0
 13 18  2  0  0  0  0
M  END
>  <cdx:fragmentId>
5

$$$$
