93963.cdx
  Mrv1902 05222410252D          

 44 48  0  0  0  0            999 V2000
   10.7682   -6.3299    0.0000 C   0  0  0  0  0  0  0  0  0  0  0  0
   11.0476   -5.5536    0.0000 C   0  0  0  0  0  0  0  0  0  0  0  0
   10.5150   -4.9236    0.0000 C   0  0  0  0  0  0  0  0  0  0  0  0
    9.7030   -5.0698    0.0000 C   0  0  0  0  0  0  0  0  0  0  0  0
    9.4237   -5.8461    0.0000 C   0  0  0  0  0  0  0  0  0  0  0  0
    9.9563   -6.4762    0.0000 C   0  0  0  0  0  0  0  0  0  0  0  0
   11.8595   -5.4074    0.0000 O   0  0  0  0  0  0  0  0  0  0  0  0
   12.0926   -4.6459    0.0000 C   0  0  0  0  0  0  0  0  0  0  0  0
   10.7943   -4.1473    0.0000 O   0  0  0  0  0  0  0  0  0  0  0  0
    9.6770   -7.2524    0.0000 C   0  0  2  0  0  0  0  0  0  0  0  0
    8.8848   -7.4827    0.0000 C   0  0  2  0  0  0  0  0  0  0  0  0
    8.8590   -8.3073    0.0000 C   0  0  2  0  0  0  0  0  0  0  0  0
    9.6353   -8.5867    0.0000 C   0  0  0  0  0  0  0  0  0  0  0  0
   10.1408   -7.9347    0.0000 O   0  0  0  0  0  0  0  0  0  0  0  0
    8.1085   -7.2034    0.0000 C   0  0  0  0  0  0  0  0  0  0  0  0
    7.6030   -7.8554    0.0000 O   0  0  0  0  0  0  0  0  0  0  0  0
    8.0668   -8.5376    0.0000 C   0  0  2  0  0  0  0  0  0  0  0  0
    7.7875   -9.3139    0.0000 C   0  0  0  0  0  0  0  0  0  0  0  0
    6.9756   -9.4602    0.0000 C   0  0  0  0  0  0  0  0  0  0  0  0
    6.6962  -10.2364    0.0000 C   0  0  0  0  0  0  0  0  0  0  0  0
    7.2289  -10.8665    0.0000 C   0  0  0  0  0  0  0  0  0  0  0  0
    8.0408  -10.7202    0.0000 C   0  0  0  0  0  0  0  0  0  0  0  0
    8.3201   -9.9440    0.0000 C   0  0  0  0  0  0  0  0  0  0  0  0
    8.5734  -11.3503    0.0000 O   0  0  0  0  0  0  0  0  0  0  0  0
    9.3853  -11.2040    0.0000 C   0  0  0  0  0  0  0  0  0  0  0  0
    6.9495  -11.6427    0.0000 O   0  0  0  0  0  0  0  0  0  0  0  0
    5.8843  -10.3827    0.0000 O   0  0  0  0  0  0  0  0  0  0  0  0
    5.3517   -9.7526    0.0000 C   0  0  0  0  0  0  0  0  0  0  0  0
    6.1376  -11.7890    0.0000 C   0  0  1  0  0  0  0  0  0  0  0  0
    5.8583  -12.5653    0.0000 C   0  0  2  0  0  0  0  0  0  0  0  0
    5.6050  -11.1589    0.0000 C   0  0  0  0  0  0  0  0  0  0  0  0
    4.7930  -11.3052    0.0000 O   0  0  0  0  0  0  0  0  0  0  0  0
    6.3909  -13.1953    0.0000 O   0  0  0  0  0  0  0  0  0  0  0  0
    5.0463  -12.7115    0.0000 C   0  0  0  0  0  0  0  0  0  0  0  0
    4.5137  -12.0815    0.0000 C   0  0  0  0  0  0  0  0  0  0  0  0
    3.7018  -12.2277    0.0000 C   0  0  0  0  0  0  0  0  0  0  0  0
    3.4225  -13.0040    0.0000 C   0  0  0  0  0  0  0  0  0  0  0  0
    3.9551  -13.6340    0.0000 C   0  0  0  0  0  0  0  0  0  0  0  0
    4.7670  -13.4878    0.0000 C   0  0  0  0  0  0  0  0  0  0  0  0
    2.6105  -13.1502    0.0000 O   0  0  0  0  0  0  0  0  0  0  0  0
    3.6758  -14.4103    0.0000 O   0  0  0  0  0  0  0  0  0  0  0  0
    2.8638  -14.5565    0.0000 C   0  0  0  0  0  0  0  0  0  0  0  0
    8.9106   -6.6581    0.0000 H   0  0  0  0  0  0  0  0  0  0  0  0
    8.8333   -9.1319    0.0000 H   0  0  0  0  0  0  0  0  0  0  0  0
  1  2  2  0  0  0  0
  2  3  1  0  0  0  0
  3  4  2  0  0  0  0
  4  5  1  0  0  0  0
  5  6  2  0  0  0  0
  6  1  1  0  0  0  0
  2  7  1  0  0  0  0
  7  8  1  0  0  0  0
  3  9  1  0  0  0  0
 10  6  1  1  0  0  0
 10 11  1  0  0  0  0
 11 12  1  0  0  0  0
 12 13  1  0  0  0  0
 13 14  1  0  0  0  0
 14 10  1  0  0  0  0
 11 15  1  0  0  0  0
 15 16  1  0  0  0  0
 16 17  1  0  0  0  0
 17 12  1  0  0  0  0
 17 18  1  1  0  0  0
 18 19  2  0  0  0  0
 19 20  1  0  0  0  0
 20 21  2  0  0  0  0
 21 22  1  0  0  0  0
 22 23  2  0  0  0  0
 23 18  1  0  0  0  0
 22 24  1  0  0  0  0
 24 25  1  0  0  0  0
 21 26  1  0  0  0  0
 20 27  1  0  0  0  0
 27 28  1  0  0  0  0
 26 29  1  0  0  0  0
 29 30  1  0  0  0  0
 29 31  1  1  0  0  0
 31 32  1  0  0  0  0
 30 33  1  6  0  0  0
 30 34  1  0  0  0  0
 34 35  2  0  0  0  0
 35 36  1  0  0  0  0
 36 37  2  0  0  0  0
 37 38  1  0  0  0  0
 38 39  2  0  0  0  0
 39 34  1  0  0  0  0
 37 40  1  0  0  0  0
 38 41  1  0  0  0  0
 41 42  1  0  0  0  0
 11 43  1  1  0  0  0
 12 44  1  1  0  0  0
M  END
>  <cdx:fragmentId>
5

$$$$
