93964.cdx
  Mrv1902 05222410242D          

 70 76  0  0  0  0            999 V2000
    6.0498   -2.7572    0.0000 C   0  0  0  0  0  0  0  0  0  0  0  0
    5.2249   -2.7716    0.0000 C   0  0  0  0  0  0  0  0  0  0  0  0
    4.8249   -3.4931    0.0000 C   0  0  0  0  0  0  0  0  0  0  0  0
    5.2497   -4.2003    0.0000 C   0  0  0  0  0  0  0  0  0  0  0  0
    6.0746   -4.1860    0.0000 C   0  0  0  0  0  0  0  0  0  0  0  0
    6.4746   -3.4644    0.0000 C   0  0  0  0  0  0  0  0  0  0  0  0
    6.4498   -2.0357    0.0000 O   0  0  0  0  0  0  0  0  0  0  0  0
    6.0250   -1.3285    0.0000 C   0  0  0  0  0  0  0  0  0  0  0  0
    4.8001   -2.0644    0.0000 O   0  0  0  0  0  0  0  0  0  0  0  0
    3.9752   -2.0787    0.0000 C   0  0  2  0  0  0  0  0  0  0  0  0
    3.5503   -1.3715    0.0000 O   0  0  0  0  0  0  0  0  0  0  0  0
    2.7255   -1.3858    0.0000 C   0  0  1  0  0  0  0  0  0  0  0  0
    2.3254   -2.1074    0.0000 C   0  0  2  0  0  0  0  0  0  0  0  0
    2.7503   -2.8146    0.0000 C   0  0  1  0  0  0  0  0  0  0  0  0
    3.5752   -2.8002    0.0000 C   0  0  1  0  0  0  0  0  0  0  0  0
    2.3006   -0.6786    0.0000 C   0  0  0  0  0  0  0  0  0  0  0  0
    2.3503   -3.5361    0.0000 O   0  0  0  0  0  0  0  0  0  0  0  0
    4.0000   -3.5074    0.0000 O   0  0  0  0  0  0  0  0  0  0  0  0
    1.5006   -2.1217    0.0000 O   0  0  0  0  0  0  0  0  0  0  0  0
    1.4757   -0.6930    0.0000 O   0  0  0  0  0  0  0  0  0  0  0  0
    6.4995   -4.8931    0.0000 C   0  0  0  0  0  0  0  0  0  0  0  0
    6.1771   -5.6525    0.0000 C   0  0  0  0  0  0  0  0  0  0  0  0
    6.7996   -6.1938    0.0000 C   0  0  0  0  0  0  0  0  0  0  0  0
    7.5120   -5.7779    0.0000 C   0  0  0  0  0  0  0  0  0  0  0  0
    7.3297   -4.9795    0.0000 O   0  0  0  0  0  0  0  0  0  0  0  0
    5.4647   -6.0685    0.0000 C   0  0  0  0  0  0  0  0  0  0  0  0
    5.6470   -6.8669    0.0000 O   0  0  0  0  0  0  0  0  0  0  0  0
    6.4688   -6.9389    0.0000 C   0  0  0  0  0  0  0  0  0  0  0  0
    5.5578   -5.1074    0.0000 H   0  0  0  0  0  0  0  0  0  0  0  0
    7.4144   -6.7441    0.0000 H   0  0  0  0  0  0  0  0  0  0  0  0
    8.3079   -5.5604    0.0000 H   0  0  0  0  0  0  0  0  0  0  0  0
    7.9280   -6.4903    0.0000 H   0  0  0  0  0  0  0  0  0  0  0  0
    6.2592   -7.7368    0.0000 H   0  0  0  0  0  0  0  0  0  0  0  0
    7.0551   -7.5193    0.0000 C   0  0  0  0  0  0  0  0  0  0  0  0
    6.8454   -8.3173    0.0000 C   0  0  0  0  0  0  0  0  0  0  0  0
    7.4317   -8.8978    0.0000 C   0  0  0  0  0  0  0  0  0  0  0  0
    8.2275   -8.6803    0.0000 C   0  0  0  0  0  0  0  0  0  0  0  0
    8.4371   -7.8824    0.0000 C   0  0  0  0  0  0  0  0  0  0  0  0
    7.8509   -7.3019    0.0000 C   0  0  0  0  0  0  0  0  0  0  0  0
    9.2329   -7.6650    0.0000 O   0  0  0  0  0  0  0  0  0  0  0  0
    9.4426   -6.8671    0.0000 C   0  0  0  0  0  0  0  0  0  0  0  0
    7.2220   -9.6957    0.0000 O   0  0  0  0  0  0  0  0  0  0  0  0
    6.4262   -9.9131    0.0000 C   0  0  0  0  0  0  0  0  0  0  0  0
    8.8137   -9.2608    0.0000 O   0  0  0  0  0  0  0  0  0  0  0  0
    8.8137  -10.0858    0.0000 C   0  0  0  0  0  0  0  0  0  0  0  0
    9.5282  -10.4983    0.0000 C   0  0  0  0  0  0  0  0  0  0  0  0
    9.5282  -11.3233    0.0000 C   0  0  0  0  0  0  0  0  0  0  0  0
    8.8137  -11.7358    0.0000 C   0  0  0  0  0  0  0  0  0  0  0  0
    8.8137  -12.5608    0.0000 C   0  0  0  0  0  0  0  0  0  0  0  0
    9.5282  -12.9733    0.0000 C   0  0  0  0  0  0  0  0  0  0  0  0
   10.2426  -12.5608    0.0000 C   0  0  0  0  0  0  0  0  0  0  0  0
   10.2426  -11.7358    0.0000 C   0  0  0  0  0  0  0  0  0  0  0  0
    8.0992  -10.4983    0.0000 C   0  0  0  0  0  0  0  0  0  0  0  0
    8.0992  -11.3233    0.0000 O   0  0  0  0  0  0  0  0  0  0  0  0
   10.9571  -12.9733    0.0000 O   0  0  0  0  0  0  0  0  0  0  0  0
   11.6716  -12.5608    0.0000 C   0  0  0  0  0  0  0  0  0  0  0  0
    8.0992  -12.9733    0.0000 O   0  0  0  0  0  0  0  0  0  0  0  0
    7.3848  -12.5608    0.0000 C   0  0  0  0  0  0  0  0  0  0  0  0
    9.5282  -13.7983    0.0000 O   0  0  0  0  0  0  0  0  0  0  0  0
    8.8137  -14.2108    0.0000 C   0  0  2  0  0  0  0  0  0  0  0  0
    8.0992  -13.7983    0.0000 O   0  0  0  0  0  0  0  0  0  0  0  0
    7.3848  -14.2108    0.0000 C   0  0  1  0  0  0  0  0  0  0  0  0
    7.3848  -15.0358    0.0000 C   0  0  2  0  0  0  0  0  0  0  0  0
    8.0992  -15.4483    0.0000 C   0  0  1  0  0  0  0  0  0  0  0  0
    8.8137  -15.0358    0.0000 C   0  0  1  0  0  0  0  0  0  0  0  0
    6.6703  -13.7983    0.0000 C   0  0  0  0  0  0  0  0  0  0  0  0
    8.0992  -16.2733    0.0000 O   0  0  0  0  0  0  0  0  0  0  0  0
    6.6703  -15.4483    0.0000 O   0  0  0  0  0  0  0  0  0  0  0  0
    9.5282  -15.4483    0.0000 O   0  0  0  0  0  0  0  0  0  0  0  0
    5.9558  -14.2108    0.0000 O   0  0  0  0  0  0  0  0  0  0  0  0
  1  2  2  0  0  0  0
  2  3  1  0  0  0  0
  3  4  2  0  0  0  0
  4  5  1  0  0  0  0
  5  6  2  0  0  0  0
  6  1  1  0  0  0  0
  1  7  1  0  0  0  0
  7  8  1  0  0  0  0
  2  9  1  0  0  0  0
 10  9  1  1  0  0  0
 10 11  1  0  0  0  0
 11 12  1  0  0  0  0
 12 13  1  0  0  0  0
 13 14  1  0  0  0  0
 14 15  1  0  0  0  0
 15 10  1  0  0  0  0
 12 16  1  1  0  0  0
 14 17  1  1  0  0  0
 15 18  1  6  0  0  0
 13 19  1  6  0  0  0
 16 20  1  0  0  0  0
  5 21  1  0  0  0  0
 21 22  1  0  0  0  0
 22 23  1  0  0  0  0
 23 24  1  0  0  0  0
 24 25  1  0  0  0  0
 25 21  1  0  0  0  0
 22 26  1  0  0  0  0
 26 27  1  0  0  0  0
 27 28  1  0  0  0  0
 28 23  1  0  0  0  0
 22 29  1  0  0  0  0
 23 30  1  0  0  0  0
 24 31  1  0  0  0  0
 24 32  1  0  0  0  0
 28 33  1  0  0  0  0
 28 34  1  0  0  0  0
 34 35  2  0  0  0  0
 35 36  1  0  0  0  0
 36 37  2  0  0  0  0
 37 38  1  0  0  0  0
 38 39  2  0  0  0  0
 39 34  1  0  0  0  0
 38 40  1  0  0  0  0
 40 41  1  0  0  0  0
 36 42  1  0  0  0  0
 42 43  1  0  0  0  0
 37 44  1  0  0  0  0
 44 45  1  0  0  0  0
 45 46  1  0  0  0  0
 46 47  1  0  0  0  0
 47 48  2  0  0  0  0
 48 49  1  0  0  0  0
 49 50  2  0  0  0  0
 50 51  1  0  0  0  0
 51 52  2  0  0  0  0
 52 47  1  0  0  0  0
 45 53  1  0  0  0  0
 53 54  1  0  0  0  0
 51 55  1  0  0  0  0
 55 56  1  0  0  0  0
 49 57  1  0  0  0  0
 57 58  1  0  0  0  0
 50 59  1  0  0  0  0
 60 59  1  1  0  0  0
 60 61  1  0  0  0  0
 61 62  1  0  0  0  0
 62 63  1  0  0  0  0
 63 64  1  0  0  0  0
 64 65  1  0  0  0  0
 65 60  1  0  0  0  0
 62 66  1  1  0  0  0
 64 67  1  1  0  0  0
 63 68  1  6  0  0  0
 65 69  1  6  0  0  0
 66 70  1  0  0  0  0
M  END
>  <cdx:fragmentId>
5

$$$$
