93976.cdx
  Mrv1902 05222410262D          

 36 38  0  0  0  0            999 V2000
    3.6860   -5.7067    0.0000 O   0  0  0  0  0  0  0  0  0  0  0  0
    3.6860   -4.8817    0.0000 C   0  0  2  0  0  0  0  0  0  0  0  0
    4.4005   -4.4692    0.0000 O   0  0  0  0  0  0  0  0  0  0  0  0
    4.4005   -3.6442    0.0000 C   0  0  1  0  0  0  0  0  0  0  0  0
    3.6860   -3.2317    0.0000 C   0  0  2  0  0  0  0  0  0  0  0  0
    2.9716   -3.6442    0.0000 C   0  0  1  0  0  0  0  0  0  0  0  0
    2.9716   -4.4692    0.0000 C   0  0  1  0  0  0  0  0  0  0  0  0
    5.1150   -3.2317    0.0000 C   0  0  0  0  0  0  0  0  0  0  0  0
    2.2571   -3.2317    0.0000 O   0  0  0  0  0  0  0  0  0  0  0  0
    3.6860   -2.4067    0.0000 O   0  0  0  0  0  0  0  0  0  0  0  0
    2.2571   -4.8817    0.0000 O   0  0  0  0  0  0  0  0  0  0  0  0
    5.1150   -2.4067    0.0000 O   0  0  0  0  0  0  0  0  0  0  0  0
    8.6876   -6.1162    0.0000 O   0  0  0  0  0  0  0  0  0  0  0  0
    7.9729   -5.7041    0.0000 C   0  0  0  0  0  0  0  0  0  0  0  0
    7.2586   -6.1171    0.0000 C   0  0  0  0  0  0  0  0  0  0  0  0
    9.7031   -3.7509    0.0000 O   0  0  0  0  0  0  0  0  0  0  0  0
   10.1170   -6.9404    0.0000 O   0  0  0  0  0  0  0  0  0  0  0  0
   11.5455   -6.1145    0.0000 O   0  0  0  0  0  0  0  0  0  0  0  0
   10.8303   -4.8775    0.0000 C   0  0  0  0  0  0  0  0  0  0  0  0
   10.8308   -5.7025    0.0000 C   0  0  2  0  0  0  0  0  0  0  0  0
   10.1165   -6.1154    0.0000 C   0  0  2  0  0  0  0  0  0  0  0  0
    9.4018   -5.7033    0.0000 C   0  0  1  0  0  0  0  0  0  0  0  0
    9.4013   -4.8783    0.0000 C   0  0  0  0  0  0  0  0  0  0  0  0
   10.1156   -4.4654    0.0000 C   0  0  1  0  0  0  0  0  0  0  0  0
    6.5439   -5.7050    0.0000 C   0  0  0  0  0  0  0  0  0  0  0  0
    7.9724   -4.8791    0.0000 O   0  0  0  0  0  0  0  0  0  0  0  0
    5.8297   -6.1179    0.0000 C   0  0  0  0  0  0  0  0  0  0  0  0
    5.1150   -5.7058    0.0000 C   0  0  0  0  0  0  0  0  0  0  0  0
    4.4008   -6.1187    0.0000 C   0  0  0  0  0  0  0  0  0  0  0  0
    4.4012   -6.9437    0.0000 C   0  0  0  0  0  0  0  0  0  0  0  0
    5.1160   -7.3558    0.0000 C   0  0  0  0  0  0  0  0  0  0  0  0
    5.8302   -6.9429    0.0000 C   0  0  0  0  0  0  0  0  0  0  0  0
    3.6870   -7.3567    0.0000 O   0  0  0  0  0  0  0  0  0  0  0  0
   10.5281   -3.7509    0.0000 C   0  0  0  0  0  0  0  0  0  0  0  0
   10.1156   -3.0364    0.0000 O   0  0  0  0  0  0  0  0  0  0  0  0
   11.3531   -3.7509    0.0000 O   0  0  0  0  0  0  0  0  0  0  0  0
 22 13  1  6  0  0  0
  2  1  1  1  0  0  0
  2  3  1  0  0  0  0
  3  4  1  0  0  0  0
  4  5  1  0  0  0  0
  5  6  1  0  0  0  0
  6  7  1  0  0  0  0
 24 16  1  1  0  0  0
 21 17  1  1  0  0  0
 20 18  1  1  0  0  0
 24 19  1  0  0  0  0
 20 19  1  0  0  0  0
 21 20  1  0  0  0  0
 22 21  1  0  0  0  0
 23 22  1  0  0  0  0
 24 23  1  0  0  0  0
  7  2  1  0  0  0  0
  4  8  1  1  0  0  0
  6  9  1  1  0  0  0
  5 10  1  6  0  0  0
  7 11  1  6  0  0  0
  8 12  1  0  0  0  0
 14 15  1  0  0  0  0
 15 25  2  0  0  0  0
 14 26  2  0  0  0  0
 27 28  1  0  0  0  0
 28 29  2  0  0  0  0
 29 30  1  0  0  0  0
 30 31  2  0  0  0  0
 31 32  1  0  0  0  0
 27 32  2  0  0  0  0
 30 33  1  0  0  0  0
 29  1  1  0  0  0  0
 25 27  1  0  0  0  0
 13 14  1  0  0  0  0
 24 34  1  0  0  0  0
 34 35  2  0  0  0  0
 34 36  1  0  0  0  0
M  END
>  <cdx:fragmentId>
39

$$$$
