93975.cdx
  Mrv1902 05222410252D          

 21 24  0  0  0  0            999 V2000
    8.1657   -8.8688    0.0000 C   0  0  1  0  0  0  0  0  0  0  0  0
    8.1657   -8.0437    0.0000 C   0  0  1  0  0  0  0  0  0  0  0  0
    8.1657   -7.2188    0.0000 C   0  0  0  0  0  0  0  0  0  0  0  0
    7.4513   -7.6312    0.0000 C   0  0  1  0  0  0  0  0  0  0  0  0
    6.7368   -8.0437    0.0000 C   0  0  1  0  0  0  0  0  0  0  0  0
    6.0223   -8.4562    0.0000 C   0  0  0  0  0  0  0  0  0  0  0  0
    6.7368   -8.8687    0.0000 C   0  0  1  0  0  0  0  0  0  0  0  0
    7.4513   -9.2812    0.0000 C   0  0  2  0  0  0  0  0  0  0  0  0
    8.1657   -9.6937    0.0000 C   0  0  0  0  0  0  0  0  0  0  0  0
    8.8802  -10.1063    0.0000 C   0  0  0  0  0  0  0  0  0  0  0  0
    8.1657  -10.5188    0.0000 C   0  0  0  0  0  0  0  0  0  0  0  0
    5.3078   -8.8687    0.0000 C   0  0  0  0  0  0  0  0  0  0  0  0
    5.3078   -8.0437    0.0000 C   0  0  0  0  0  0  0  0  0  0  0  0
    8.1657   -6.3937    0.0000 C   0  0  0  0  0  0  0  0  0  0  0  0
    8.8802   -6.8062    0.0000 C   0  0  0  0  0  0  0  0  0  0  0  0
    8.9907   -8.0437    0.0000 H   0  0  0  0  0  0  0  0  0  0  0  0
    7.0388   -6.9168    0.0000 H   0  0  0  0  0  0  0  0  0  0  0  0
    6.3243   -7.3293    0.0000 H   0  0  0  0  0  0  0  0  0  0  0  0
    6.3243   -9.5832    0.0000 H   0  0  0  0  0  0  0  0  0  0  0  0
    8.9907   -8.8688    0.0000 H   0  0  0  0  0  0  0  0  0  0  0  0
    7.0388   -9.9957    0.0000 H   0  0  0  0  0  0  0  0  0  0  0  0
  1  2  1  0  0  0  0
  2  3  1  0  0  0  0
  3  4  1  0  0  0  0
  4  5  1  0  0  0  0
  5  6  1  0  0  0  0
  6  7  1  0  0  0  0
  7  8  1  0  0  0  0
  8  9  1  0  0  0  0
  1  9  1  0  0  0  0
  1  8  1  0  0  0  0
  5  7  1  0  0  0  0
  2  4  1  0  0  0  0
  9 10  1  0  0  0  0
  9 11  1  0  0  0  0
  6 12  1  0  0  0  0
  6 13  1  0  0  0  0
  3 14  1  0  0  0  0
  3 15  1  0  0  0  0
  2 16  1  1  0  0  0
  4 17  1  1  0  0  0
  5 18  1  1  0  0  0
  7 19  1  1  0  0  0
  1 20  1  1  0  0  0
  8 21  1  6  0  0  0
M  END
>  <cdx:groupId>
68

>  <cdx:fragmentId>
5

$$$$
