93978.cdx
  Mrv1902 05222410212D          

 28 30  0  0  0  0            999 V2000
    5.8693   -7.3975    0.0000 C   0  0  2  0  0  0  0  0  0  0  0  0
    5.8693   -8.2225    0.0000 C   0  0  2  0  0  0  0  0  0  0  0  0
    6.5838   -8.6350    0.0000 C   0  0  1  0  0  0  0  0  0  0  0  0
    7.2982   -8.2225    0.0000 C   0  0  2  0  0  0  0  0  0  0  0  0
    7.2982   -7.3975    0.0000 C   0  0  1  0  0  0  0  0  0  0  0  0
    6.5838   -6.9850    0.0000 O   0  0  0  0  0  0  0  0  0  0  0  0
    5.1548   -6.9850    0.0000 C   0  0  0  0  0  0  0  0  0  0  0  0
    8.0127   -6.9850    0.0000 O   0  0  0  0  0  0  0  0  0  0  0  0
    6.5838   -9.4600    0.0000 O   0  0  0  0  0  0  0  0  0  0  0  0
    5.1548   -8.6350    0.0000 O   0  0  0  0  0  0  0  0  0  0  0  0
    8.0127   -8.6350    0.0000 O   0  0  0  0  0  0  0  0  0  0  0  0
    4.4404   -7.3975    0.0000 O   0  0  0  0  0  0  0  0  0  0  0  0
    8.0127   -6.1600    0.0000 C   0  0  0  0  0  0  0  0  0  0  0  0
    8.7272   -5.7475    0.0000 C   0  0  0  0  0  0  0  0  0  0  0  0
    8.7272   -4.9225    0.0000 C   0  0  0  0  0  0  0  0  0  0  0  0
    8.0127   -4.5100    0.0000 C   0  0  0  0  0  0  0  0  0  0  0  0
    7.2982   -4.9225    0.0000 C   0  0  0  0  0  0  0  0  0  0  0  0
    7.2982   -5.7475    0.0000 C   0  0  0  0  0  0  0  0  0  0  0  0
    8.0127   -3.6850    0.0000 C   0  0  0  0  0  0  0  0  0  0  0  0
    8.7272   -3.2725    0.0000 O   0  0  0  0  0  0  0  0  0  0  0  0
    5.8693   -9.8725    0.0000 C   0  0  0  0  0  0  0  0  0  0  0  0
    5.8693  -10.6975    0.0000 C   0  0  0  0  0  0  0  0  0  0  0  0
    5.1548  -11.1100    0.0000 C   0  0  0  0  0  0  0  0  0  0  0  0
    5.1548  -11.9350    0.0000 C   0  0  0  0  0  0  0  0  0  0  0  0
    5.8693  -12.3475    0.0000 C   0  0  0  0  0  0  0  0  0  0  0  0
    6.5838  -11.9350    0.0000 C   0  0  0  0  0  0  0  0  0  0  0  0
    6.5838  -11.1100    0.0000 C   0  0  0  0  0  0  0  0  0  0  0  0
    5.8693  -13.1725    0.0000 O   0  0  0  0  0  0  0  0  0  0  0  0
  1  2  1  0  0  0  0
  2  3  1  0  0  0  0
  3  4  1  0  0  0  0
  4  5  1  0  0  0  0
  5  6  1  0  0  0  0
  6  1  1  0  0  0  0
  1  7  1  1  0  0  0
  5  8  1  1  0  0  0
  3  9  1  1  0  0  0
  2 10  1  6  0  0  0
  4 11  1  6  0  0  0
  7 12  1  0  0  0  0
  8 13  1  0  0  0  0
 13 14  2  0  0  0  0
 14 15  1  0  0  0  0
 15 16  2  0  0  0  0
 16 17  1  0  0  0  0
 17 18  2  0  0  0  0
 18 13  1  0  0  0  0
 16 19  1  0  0  0  0
 19 20  1  0  0  0  0
  9 21  1  0  0  0  0
 21 22  1  0  0  0  0
 22 23  2  0  0  0  0
 23 24  1  0  0  0  0
 24 25  2  0  0  0  0
 25 26  1  0  0  0  0
 26 27  2  0  0  0  0
 27 22  1  0  0  0  0
 25 28  1  0  0  0  0
M  END
>  <cdx:fragmentId>
5

$$$$
