93977.cdx
  Mrv1902 05222410252D          

 36 38  0  0  0  0            999 V2000
    4.5670   -7.4117    0.0000 O   0  0  0  0  0  0  0  0  0  0  0  0
    3.8578   -6.9843    0.0000 C   0  0  2  0  0  0  0  0  0  0  0  0
    3.8661   -6.1593    0.0000 O   0  0  0  0  0  0  0  0  0  0  0  0
    3.1557   -5.7397    0.0000 C   0  0  1  0  0  0  0  0  0  0  0  0
    2.4372   -6.1451    0.0000 C   0  0  2  0  0  0  0  0  0  0  0  0
    2.4290   -6.9701    0.0000 C   0  0  1  0  0  0  0  0  0  0  0  0
    3.1393   -7.3897    0.0000 C   0  0  1  0  0  0  0  0  0  0  0  0
    3.1639   -4.9148    0.0000 C   0  0  0  0  0  0  0  0  0  0  0  0
    1.7104   -7.3754    0.0000 O   0  0  0  0  0  0  0  0  0  0  0  0
    1.7268   -5.7255    0.0000 O   0  0  0  0  0  0  0  0  0  0  0  0
    3.1311   -8.2146    0.0000 O   0  0  0  0  0  0  0  0  0  0  0  0
    2.4536   -4.4952    0.0000 O   0  0  0  0  0  0  0  0  0  0  0  0
    9.5676   -6.1712    0.0000 O   0  0  0  0  0  0  0  0  0  0  0  0
    8.8529   -5.7591    0.0000 C   0  0  0  0  0  0  0  0  0  0  0  0
    8.1386   -6.1721    0.0000 C   0  0  0  0  0  0  0  0  0  0  0  0
   10.5831   -3.8059    0.0000 O   0  0  0  0  0  0  0  0  0  0  0  0
   10.9970   -6.9954    0.0000 O   0  0  0  0  0  0  0  0  0  0  0  0
   12.4255   -6.1695    0.0000 O   0  0  0  0  0  0  0  0  0  0  0  0
   11.7103   -4.9325    0.0000 C   0  0  0  0  0  0  0  0  0  0  0  0
   11.7108   -5.7575    0.0000 C   0  0  2  0  0  0  0  0  0  0  0  0
   10.9965   -6.1704    0.0000 C   0  0  2  0  0  0  0  0  0  0  0  0
   10.2818   -5.7583    0.0000 C   0  0  1  0  0  0  0  0  0  0  0  0
   10.2813   -4.9333    0.0000 C   0  0  0  0  0  0  0  0  0  0  0  0
   10.9956   -4.5204    0.0000 C   0  0  1  0  0  0  0  0  0  0  0  0
    7.4239   -5.7600    0.0000 C   0  0  0  0  0  0  0  0  0  0  0  0
    8.8524   -4.9341    0.0000 O   0  0  0  0  0  0  0  0  0  0  0  0
    6.7097   -6.1729    0.0000 C   0  0  0  0  0  0  0  0  0  0  0  0
    5.9950   -5.7608    0.0000 C   0  0  0  0  0  0  0  0  0  0  0  0
    5.2808   -6.1737    0.0000 C   0  0  0  0  0  0  0  0  0  0  0  0
    5.2812   -6.9987    0.0000 C   0  0  0  0  0  0  0  0  0  0  0  0
    5.9960   -7.4108    0.0000 C   0  0  0  0  0  0  0  0  0  0  0  0
    6.7102   -6.9979    0.0000 C   0  0  0  0  0  0  0  0  0  0  0  0
    4.5660   -5.7617    0.0000 O   0  0  0  0  0  0  0  0  0  0  0  0
   11.4081   -3.8059    0.0000 C   0  0  0  0  0  0  0  0  0  0  0  0
   10.9956   -3.0914    0.0000 O   0  0  0  0  0  0  0  0  0  0  0  0
   12.2331   -3.8059    0.0000 O   0  0  0  0  0  0  0  0  0  0  0  0
 22 13  1  6  0  0  0
  2  3  1  0  0  0  0
  3  4  1  0  0  0  0
  4  5  1  0  0  0  0
  5  6  1  0  0  0  0
  6  7  1  0  0  0  0
  7  2  1  0  0  0  0
 24 16  1  1  0  0  0
 21 17  1  1  0  0  0
 20 18  1  1  0  0  0
 24 19  1  0  0  0  0
 20 19  1  0  0  0  0
 21 20  1  0  0  0  0
 22 21  1  0  0  0  0
 23 22  1  0  0  0  0
 24 23  1  0  0  0  0
  4  8  1  1  0  0  0
  6  9  1  1  0  0  0
  5 10  1  6  0  0  0
  7 11  1  6  0  0  0
  8 12  1  0  0  0  0
  2  1  1  1  0  0  0
 14 15  1  0  0  0  0
 15 25  2  0  0  0  0
 14 26  2  0  0  0  0
 27 28  1  0  0  0  0
 28 29  2  0  0  0  0
 29 30  1  0  0  0  0
 30 31  2  0  0  0  0
 31 32  1  0  0  0  0
 27 32  2  0  0  0  0
 30  1  1  0  0  0  0
 29 33  1  0  0  0  0
 25 27  1  0  0  0  0
 13 14  1  0  0  0  0
 24 34  1  0  0  0  0
 34 35  2  0  0  0  0
 34 36  1  0  0  0  0
M  END
>  <cdx:fragmentId>
39

$$$$
