93981.cdx
  Mrv1902 05222410222D          

 38 41  0  0  0  0            999 V2000
    4.6456   -7.2188    0.0000 C   0  0  0  0  0  0  0  0  0  0  0  0
    4.6456   -8.0437    0.0000 C   0  0  0  0  0  0  0  0  0  0  0  0
    5.3600   -8.4563    0.0000 C   0  0  0  0  0  0  0  0  0  0  0  0
    6.0745   -8.0437    0.0000 C   0  0  0  0  0  0  0  0  0  0  0  0
    6.0745   -7.2188    0.0000 C   0  0  0  0  0  0  0  0  0  0  0  0
    5.3600   -6.8062    0.0000 C   0  0  0  0  0  0  0  0  0  0  0  0
    6.7890   -8.4563    0.0000 C   0  0  0  0  0  0  0  0  0  0  0  0
    7.5034   -8.0437    0.0000 C   0  0  0  0  0  0  0  0  0  0  0  0
    7.5034   -7.2188    0.0000 C   0  0  0  0  0  0  0  0  0  0  0  0
    6.7890   -6.8062    0.0000 O   0  0  0  0  0  0  0  0  0  0  0  0
    8.2179   -8.4563    0.0000 O   0  0  0  0  0  0  0  0  0  0  0  0
    8.9324   -7.2188    0.0000 C   0  0  0  0  0  0  0  0  0  0  0  0
    8.2179   -6.8062    0.0000 C   0  0  0  0  0  0  0  0  0  0  0  0
    9.6469   -6.8062    0.0000 C   0  0  0  0  0  0  0  0  0  0  0  0
    9.6469   -5.9813    0.0000 C   0  0  0  0  0  0  0  0  0  0  0  0
    8.9324   -5.5687    0.0000 C   0  0  0  0  0  0  0  0  0  0  0  0
    8.2179   -5.9813    0.0000 C   0  0  0  0  0  0  0  0  0  0  0  0
    3.9311   -6.8062    0.0000 O   0  0  0  0  0  0  0  0  0  0  0  0
    5.3600   -9.2813    0.0000 O   0  0  0  0  0  0  0  0  0  0  0  0
    6.7890   -9.2813    0.0000 O   0  0  0  0  0  0  0  0  0  0  0  0
   10.3613   -5.5687    0.0000 O   0  0  0  0  0  0  0  0  0  0  0  0
    8.9324   -4.7438    0.0000 O   0  0  0  0  0  0  0  0  0  0  0  0
    9.6469   -4.3313    0.0000 C   0  0  0  0  0  0  0  0  0  0  0  0
    8.2179   -9.2813    0.0000 C   0  0  2  0  0  0  0  0  0  0  0  0
    7.5034   -9.6937    0.0000 O   0  0  0  0  0  0  0  0  0  0  0  0
    7.5034  -10.5188    0.0000 C   0  0  1  0  0  0  0  0  0  0  0  0
    8.2179  -10.9313    0.0000 C   0  0  2  0  0  0  0  0  0  0  0  0
    8.9324  -10.5188    0.0000 C   0  0  1  0  0  0  0  0  0  0  0  0
    8.9324   -9.6937    0.0000 C   0  0  1  0  0  0  0  0  0  0  0  0
    6.7890  -10.9313    0.0000 C   0  0  0  0  0  0  0  0  0  0  0  0
    9.6469  -10.9313    0.0000 O   0  0  0  0  0  0  0  0  0  0  0  0
    8.2179  -11.7562    0.0000 O   0  0  0  0  0  0  0  0  0  0  0  0
    9.6469   -9.2813    0.0000 O   0  0  0  0  0  0  0  0  0  0  0  0
    6.0745  -10.5188    0.0000 O   0  0  0  0  0  0  0  0  0  0  0  0
    6.7890  -11.7562    0.0000 O   0  0  0  0  0  0  0  0  0  0  0  0
    9.6469   -8.4563    0.0000 C   0  0  0  0  0  0  0  0  0  0  0  0
   10.3613   -8.0437    0.0000 C   0  0  0  0  0  0  0  0  0  0  0  0
    8.9324   -8.0437    0.0000 O   0  0  0  0  0  0  0  0  0  0  0  0
  1  2  2  0  0  0  0
  2  3  1  0  0  0  0
  3  4  2  0  0  0  0
  4  5  1  0  0  0  0
  5  6  2  0  0  0  0
  6  1  1  0  0  0  0
  4  7  1  0  0  0  0
  7  8  1  0  0  0  0
  8  9  2  0  0  0  0
  9 10  1  0  0  0  0
 10  5  1  0  0  0  0
  8 11  1  0  0  0  0
 12 13  2  0  0  0  0
 13  9  1  0  0  0  0
 12 14  1  0  0  0  0
 14 15  2  0  0  0  0
 15 16  1  0  0  0  0
 16 17  2  0  0  0  0
 17 13  1  0  0  0  0
  1 18  1  0  0  0  0
  3 19  1  0  0  0  0
  7 20  2  0  0  0  0
 15 21  1  0  0  0  0
 16 22  1  0  0  0  0
 22 23  1  0  0  0  0
 24 11  1  1  0  0  0
 24 25  1  0  0  0  0
 25 26  1  0  0  0  0
 26 27  1  0  0  0  0
 27 28  1  0  0  0  0
 28 29  1  0  0  0  0
 29 24  1  0  0  0  0
 26 30  1  1  0  0  0
 28 31  1  1  0  0  0
 27 32  1  6  0  0  0
 29 33  1  6  0  0  0
 30 34  2  0  0  0  0
 30 35  1  0  0  0  0
 33 36  1  0  0  0  0
 36 37  1  0  0  0  0
 36 38  2  0  0  0  0
M  END
>  <cdx:fragmentId>
5

$$$$
