93983.cdx
  Mrv1902 05222410222D          

 50 55  0  0  0  0            999 V2000
    5.7868   -8.9925    0.0000 C   0  0  0  0  0  0  0  0  0  0  0  0
    5.7868   -9.8175    0.0000 C   0  0  1  0  0  0  0  0  0  0  0  0
    6.5013  -10.2300    0.0000 C   0  0  1  0  0  0  0  0  0  0  0  0
    7.2157   -9.8175    0.0000 C   0  0  1  0  0  0  0  0  0  0  0  0
    7.2157   -8.9925    0.0000 C   0  0  2  0  0  0  0  0  0  0  0  0
    6.5013   -8.5800    0.0000 C   0  0  0  0  0  0  0  0  0  0  0  0
    7.9302  -10.2300    0.0000 C   0  0  0  0  0  0  0  0  0  0  0  0
    8.6447   -9.8175    0.0000 C   0  0  0  0  0  0  0  0  0  0  0  0
    8.6447   -8.9925    0.0000 C   0  0  2  0  0  0  0  0  0  0  0  0
    7.9302   -8.5800    0.0000 C   0  0  2  0  0  0  0  0  0  0  0  0
    9.3592   -8.5800    0.0000 C   0  0  1  0  0  0  0  0  0  0  0  0
    9.3592   -7.7550    0.0000 C   0  0  0  0  0  0  0  0  0  0  0  0
    8.6447   -7.3425    0.0000 C   0  0  0  0  0  0  0  0  0  0  0  0
    7.9302   -7.7550    0.0000 C   0  0  0  0  0  0  0  0  0  0  0  0
   10.0736   -8.9925    0.0000 C   0  0  0  0  0  0  0  0  0  0  0  0
   10.7881   -8.5800    0.0000 C   0  0  0  0  0  0  0  0  0  0  0  0
   10.7881   -7.7550    0.0000 C   0  0  2  0  0  0  0  0  0  0  0  0
   10.0736   -7.3425    0.0000 C   0  0  1  0  0  0  0  0  0  0  0  0
   11.5026   -7.3425    0.0000 C   0  0  0  0  0  0  0  0  0  0  0  0
   11.5026   -6.5175    0.0000 C   0  0  0  0  0  0  0  0  0  0  0  0
   10.7881   -6.1050    0.0000 C   0  0  1  0  0  0  0  0  0  0  0  0
   10.0736   -6.5175    0.0000 C   0  0  0  0  0  0  0  0  0  0  0  0
    5.0723  -10.2300    0.0000 O   0  0  0  0  0  0  0  0  0  0  0  0
    6.0888  -10.9445    0.0000 C   0  0  0  0  0  0  0  0  0  0  0  0
    7.2157   -8.1675    0.0000 C   0  0  0  0  0  0  0  0  0  0  0  0
    8.6447   -8.1675    0.0000 C   0  0  0  0  0  0  0  0  0  0  0  0
   10.0736   -8.1675    0.0000 H   0  0  0  0  0  0  0  0  0  0  0  0
   11.5026   -8.1675    0.0000 C   0  0  0  0  0  0  0  0  0  0  0  0
   12.2170   -7.7550    0.0000 O   0  0  0  0  0  0  0  0  0  0  0  0
   11.5026   -8.9925    0.0000 O   0  0  0  0  0  0  0  0  0  0  0  0
   10.3756   -5.3905    0.0000 C   0  0  0  0  0  0  0  0  0  0  0  0
    6.9138  -10.9445    0.0000 C   0  0  0  0  0  0  0  0  0  0  0  0
    7.2157  -10.6425    0.0000 H   0  0  0  0  0  0  0  0  0  0  0  0
    7.9302   -9.4050    0.0000 H   0  0  0  0  0  0  0  0  0  0  0  0
    9.3592   -9.4050    0.0000 C   0  0  0  0  0  0  0  0  0  0  0  0
   11.2006   -5.3905    0.0000 C   0  0  0  0  0  0  0  0  0  0  0  0
    7.7388  -10.9445    0.0000 O   0  0  0  0  0  0  0  0  0  0  0  0
    4.3579   -9.8175    0.0000 C   0  0  2  0  0  0  0  0  0  0  0  0
    4.3579   -8.9925    0.0000 O   0  0  0  0  0  0  0  0  0  0  0  0
    3.6434   -8.5800    0.0000 C   0  0  1  0  0  0  0  0  0  0  0  0
    2.9289   -8.9925    0.0000 C   0  0  2  0  0  0  0  0  0  0  0  0
    2.9289   -9.8175    0.0000 C   0  0  1  0  0  0  0  0  0  0  0  0
    3.6434  -10.2300    0.0000 C   0  0  1  0  0  0  0  0  0  0  0  0
    3.6434   -7.7550    0.0000 C   0  0  0  0  0  0  0  0  0  0  0  0
    2.2144  -10.2300    0.0000 O   0  0  0  0  0  0  0  0  0  0  0  0
    2.2144   -8.5800    0.0000 O   0  0  0  0  0  0  0  0  0  0  0  0
    3.6434  -11.0550    0.0000 O   0  0  0  0  0  0  0  0  0  0  0  0
    2.9289   -7.3425    0.0000 O   0  0  0  0  0  0  0  0  0  0  0  0
    4.3579   -7.3425    0.0000 O   0  0  0  0  0  0  0  0  0  0  0  0
    2.9289   -6.5175    0.0000 C   0  0  0  0  0  0  0  0  0  0  0  0
  1  2  1  0  0  0  0
  2  3  1  0  0  0  0
  3  4  1  0  0  0  0
  4  5  1  0  0  0  0
  5  6  1  0  0  0  0
  6  1  1  0  0  0  0
  4  7  1  0  0  0  0
  7  8  1  0  0  0  0
  8  9  1  0  0  0  0
  9 10  1  0  0  0  0
 10  5  1  0  0  0  0
  9 11  1  0  0  0  0
 11 12  1  0  0  0  0
 12 13  2  0  0  0  0
 13 14  1  0  0  0  0
 14 10  1  0  0  0  0
 11 15  1  0  0  0  0
 15 16  1  0  0  0  0
 16 17  1  0  0  0  0
 17 18  1  0  0  0  0
 18 12  1  0  0  0  0
 17 19  1  0  0  0  0
 19 20  1  0  0  0  0
 20 21  1  0  0  0  0
 21 22  1  0  0  0  0
 22 18  1  0  0  0  0
  2 23  1  1  0  0  0
  3 24  1  1  0  0  0
  5 25  1  1  0  0  0
  9 26  1  1  0  0  0
 18 27  1  1  0  0  0
 17 28  1  1  0  0  0
 21 31  1  1  0  0  0
  3 32  1  6  0  0  0
  4 33  1  6  0  0  0
 10 34  1  6  0  0  0
 11 35  1  6  0  0  0
 21 36  1  6  0  0  0
 32 37  1  0  0  0  0
 38 23  1  1  0  0  0
 38 39  1  0  0  0  0
 39 40  1  0  0  0  0
 40 41  1  0  0  0  0
 41 42  1  0  0  0  0
 42 43  1  0  0  0  0
 43 38  1  0  0  0  0
 40 44  1  1  0  0  0
 42 45  1  1  0  0  0
 41 46  1  6  0  0  0
 43 47  1  6  0  0  0
 44 48  1  0  0  0  0
 44 49  2  0  0  0  0
 48 50  1  0  0  0  0
 28 29  2  0  0  0  0
 28 30  1  0  0  0  0
M  STY  1   1 SUP
M  SAL   1  3  28  29  30
M  SBL   1  1  32
M  SMT   1 COOH
M  SAP   1  1  28  17  1
M  END
>  <cdx:fragmentId>
5

$$$$
