93988.cdx
  Mrv1902 05222410252D          

 18 19  0  0  0  0            999 V2000
    7.4185   -6.4625    0.0000 C   0  0  1  0  0  0  0  0  0  0  0  0
    7.4185   -7.2875    0.0000 C   0  0  1  0  0  0  0  0  0  0  0  0
    8.0635   -7.8019    0.0000 C   0  0  0  0  0  0  0  0  0  0  0  0
    8.8678   -7.6183    0.0000 C   0  0  0  0  0  0  0  0  0  0  0  0
    9.2257   -6.8750    0.0000 C   0  0  0  0  0  0  0  0  0  0  0  0
    8.8678   -6.1317    0.0000 C   0  0  0  0  0  0  0  0  0  0  0  0
    8.0635   -5.9481    0.0000 C   0  0  2  0  0  0  0  0  0  0  0  0
    6.6338   -6.2076    0.0000 C   0  0  0  0  0  0  0  0  0  0  0  0
    6.1489   -6.8750    0.0000 C   0  0  0  0  0  0  0  0  0  0  0  0
    6.6338   -7.5424    0.0000 C   0  0  1  0  0  0  0  0  0  0  0  0
    6.3789   -8.3271    0.0000 C   0  0  0  0  0  0  0  0  0  0  0  0
    6.9309   -8.9402    0.0000 C   0  0  0  0  0  0  0  0  0  0  0  0
    5.5719   -8.4986    0.0000 C   0  0  0  0  0  0  0  0  0  0  0  0
    9.3822   -8.2633    0.0000 C   0  0  0  0  0  0  0  0  0  0  0  0
   10.2072   -8.2633    0.0000 O   0  0  0  0  0  0  0  0  0  0  0  0
    7.4185   -8.1125    0.0000 H   0  0  0  0  0  0  0  0  0  0  0  0
    7.2049   -5.6656    0.0000 C   0  0  0  0  0  0  0  0  0  0  0  0
    7.8799   -5.1438    0.0000 O   0  0  0  0  0  0  0  0  0  0  0  0
  1  2  1  0  0  0  0
  2  3  1  0  0  0  0
  3  4  2  0  0  0  0
  4  5  1  0  0  0  0
  5  6  1  0  0  0  0
  6  7  1  0  0  0  0
  7  1  1  0  0  0  0
  1  8  1  0  0  0  0
  8  9  1  0  0  0  0
  9 10  1  0  0  0  0
 10  2  1  0  0  0  0
 10 11  1  6  0  0  0
 11 12  1  0  0  0  0
 11 13  1  0  0  0  0
  4 14  1  0  0  0  0
 14 15  1  0  0  0  0
  2 16  1  6  0  0  0
  1 17  1  1  0  0  0
  7 18  1  1  0  0  0
M  END
>  <cdx:fragmentId>
5

$$$$
