93989.cdx
  Mrv1902 05222410262D          

 17 19  0  0  0  0            999 V2000
    5.7043   -6.7512    0.0000 C   0  0  0  0  0  0  0  0  0  0  0  0
    5.7043   -7.5762    0.0000 C   0  0  0  0  0  0  0  0  0  0  0  0
    6.4188   -7.9888    0.0000 C   0  0  2  0  0  0  0  0  0  0  0  0
    7.1332   -7.5762    0.0000 C   0  0  2  0  0  0  0  0  0  0  0  0
    7.1332   -6.7512    0.0000 C   0  0  1  0  0  0  0  0  0  0  0  0
    6.4188   -6.3388    0.0000 C   0  0  0  0  0  0  0  0  0  0  0  0
    7.8477   -7.9888    0.0000 C   0  0  0  0  0  0  0  0  0  0  0  0
    8.5622   -7.5762    0.0000 C   0  0  0  0  0  0  0  0  0  0  0  0
    8.5622   -6.7512    0.0000 C   0  0  0  0  0  0  0  0  0  0  0  0
    7.8477   -6.3388    0.0000 C   0  0  0  0  0  0  0  0  0  0  0  0
    8.5622   -8.4013    0.0000 C   0  0  0  0  0  0  0  0  0  0  0  0
    7.1332   -5.9262    0.0000 C   0  0  0  0  0  0  0  0  0  0  0  0
    6.0063   -8.7032    0.0000 O   0  0  0  0  0  0  0  0  0  0  0  0
    6.8313   -8.7032    0.0000 C   0  0  0  0  0  0  0  0  0  0  0  0
    7.1332   -8.4013    0.0000 H   0  0  0  0  0  0  0  0  0  0  0  0
    8.3487   -9.1981    0.0000 C   0  0  0  0  0  0  0  0  0  0  0  0
    9.3801   -8.5089    0.0000 C   0  0  0  0  0  0  0  0  0  0  0  0
  1  2  1  0  0  0  0
  2  3  1  0  0  0  0
  3  4  1  0  0  0  0
  4  5  1  0  0  0  0
  5  6  1  0  0  0  0
  6  1  1  0  0  0  0
  4  7  1  0  0  0  0
  7  8  1  0  0  0  0
  8  9  1  0  0  0  0
  9 10  1  0  0  0  0
 10  5  1  0  0  0  0
  7 11  1  0  0  0  0
 11  8  1  0  0  0  0
  5 12  1  6  0  0  0
  3 13  1  6  0  0  0
  3 14  1  1  0  0  0
  4 15  1  1  0  0  0
 11 16  1  0  0  0  0
 11 17  1  0  0  0  0
M  END
>  <cdx:fragmentId>
5

$$$$
