93982.cdx
  Mrv1902 05222410222D          

 42 46  0  0  0  0            999 V2000
    4.9715   -6.6603    0.0000 O   0  0  0  0  0  0  0  0  0  0  0  0
    4.9730   -8.3103    0.0000 O   0  0  0  0  0  0  0  0  0  0  0  0
   11.4013   -5.4226    0.0000 O   0  0  0  0  0  0  0  0  0  0  0  0
   10.6876   -4.1846    0.0000 O   0  0  0  0  0  0  0  0  0  0  0  0
    6.4027   -9.1340    0.0000 O   0  0  0  0  0  0  0  0  0  0  0  0
    5.6863   -7.0721    0.0000 C   0  0  2  0  0  0  0  0  0  0  0  0
    5.6871   -7.8971    0.0000 C   0  0  2  0  0  0  0  0  0  0  0  0
    6.4019   -8.3090    0.0000 C   0  0  1  0  0  0  0  0  0  0  0  0
    7.1160   -7.8958    0.0000 O   0  0  0  0  0  0  0  0  0  0  0  0
    6.3997   -5.8340    0.0000 O   0  0  0  0  0  0  0  0  0  0  0  0
    6.4004   -6.6590    0.0000 C   0  0  2  0  0  0  0  0  0  0  0  0
    7.1153   -7.0708    0.0000 C   0  0  1  0  0  0  0  0  0  0  0  0
    9.9729   -4.5966    0.0000 C   0  0  2  0  0  0  0  0  0  0  0  0
    9.9723   -5.4216    0.0000 C   0  0  1  0  0  0  0  0  0  0  0  0
   10.6865   -5.8346    0.0000 C   0  0  0  0  0  0  0  0  0  0  0  0
    7.8294   -6.6577    0.0000 C   0  0  0  0  0  0  0  0  0  0  0  0
    9.2587   -4.1837    0.0000 C   0  0  1  0  0  0  0  0  0  0  0  0
    8.5439   -4.5957    0.0000 C   0  0  2  0  0  0  0  0  0  0  0  0
    8.5434   -5.4207    0.0000 C   0  0  1  0  0  0  0  0  0  0  0  0
    9.2576   -5.8337    0.0000 O   0  0  0  0  0  0  0  0  0  0  0  0
    4.9738   -9.1373    0.0000 C   0  0  0  0  0  0  0  0  0  0  0  0
    5.6892   -9.5481    0.0000 C   0  0  0  0  0  0  0  0  0  0  0  0
    4.2602   -9.5514    0.0000 C   0  0  0  0  0  0  0  0  0  0  0  0
    4.2621  -10.3764    0.0000 C   0  0  0  0  0  0  0  0  0  0  0  0
    4.9775  -10.7873    0.0000 C   0  0  0  0  0  0  0  0  0  0  0  0
    5.6911  -10.3731    0.0000 C   0  0  0  0  0  0  0  0  0  0  0  0
    4.9794  -11.6123    0.0000 C   0  0  0  0  0  0  0  0  0  0  0  0
    5.6949  -12.0231    0.0000 C   0  0  0  0  0  0  0  0  0  0  0  0
    6.4084  -11.6090    0.0000 C   0  0  0  0  0  0  0  0  0  0  0  0
    6.4065  -10.7840    0.0000 C   0  0  0  0  0  0  0  0  0  0  0  0
    7.1238  -12.0198    0.0000 C   0  0  0  0  0  0  0  0  0  0  0  0
    7.8373  -11.6057    0.0000 C   0  0  0  0  0  0  0  0  0  0  0  0
    7.8354  -10.7807    0.0000 C   0  0  0  0  0  0  0  0  0  0  0  0
    7.1200  -10.3698    0.0000 O   0  0  0  0  0  0  0  0  0  0  0  0
    5.6967  -12.8481    0.0000 O   0  0  0  0  0  0  0  0  0  0  0  0
    7.1257  -12.8448    0.0000 O   0  0  0  0  0  0  0  0  0  0  0  0
    3.5429   -8.3155    0.0000 C   0  0  0  0  0  0  0  0  0  0  0  0
    3.5448   -9.1405    0.0000 O   0  0  0  0  0  0  0  0  0  0  0  0
    8.5489  -10.3666    0.0000 C   0  0  0  0  0  0  0  0  0  0  0  0
    7.8298   -4.1827    0.0000 O   0  0  0  0  0  0  0  0  0  0  0  0
    7.8286   -5.8327    0.0000 O   0  0  0  0  0  0  0  0  0  0  0  0
    9.2593   -3.3587    0.0000 O   0  0  0  0  0  0  0  0  0  0  0  0
  6  1  1  1  0  0  0
  7  2  1  6  0  0  0
  8  5  1  1  0  0  0
  6 11  1  0  0  0  0
  7  6  1  0  0  0  0
  8  7  1  0  0  0  0
  9  8  1  0  0  0  0
 12  9  1  0  0  0  0
 11 10  1  6  0  0  0
 12 11  1  0  0  0  0
 12 16  1  1  0  0  0
 16 41  1  0  0  0  0
 13  4  1  6  0  0  0
 13 14  1  0  0  0  0
 14 15  1  1  0  0  0
 15  3  1  0  0  0  0
 13 17  1  0  0  0  0
 17 18  1  0  0  0  0
 18 19  1  0  0  0  0
 19 20  1  0  0  0  0
 21 22  2  0  0  0  0
 22  5  1  0  0  0  0
 20 14  1  0  0  0  0
 21 23  1  0  0  0  0
 23 24  2  0  0  0  0
 24 25  1  0  0  0  0
 25 26  1  0  0  0  0
 26 22  1  0  0  0  0
 25 27  2  0  0  0  0
 27 28  1  0  0  0  0
 28 29  2  0  0  0  0
 29 30  1  0  0  0  0
 30 26  2  0  0  0  0
 29 31  1  0  0  0  0
 31 32  1  0  0  0  0
 32 33  2  0  0  0  0
 33 34  1  0  0  0  0
 34 30  1  0  0  0  0
 28 35  1  0  0  0  0
 36 31  2  0  0  0  0
 37 38  1  0  0  0  0
 38 23  1  0  0  0  0
 33 39  1  0  0  0  0
 18 40  1  6  0  0  0
 19 41  1  1  0  0  0
 17 42  1  1  0  0  0
M  END
>  <cdx:fragmentId>
5

$$$$
