93986.cdx
  Mrv1902 05222410212D          

 37 40  0  0  0  0            999 V2000
    3.4081   -8.0987    0.0000 C   0  0  0  0  0  0  0  0  0  0  0  0
    3.4081   -8.9238    0.0000 C   0  0  0  0  0  0  0  0  0  0  0  0
    4.1225   -9.3362    0.0000 C   0  0  0  0  0  0  0  0  0  0  0  0
    4.8370   -8.9238    0.0000 C   0  0  1  0  0  0  0  0  0  0  0  0
    4.8370   -8.0987    0.0000 C   0  0  2  0  0  0  0  0  0  0  0  0
    4.1225   -7.6863    0.0000 C   0  0  0  0  0  0  0  0  0  0  0  0
    5.5515   -9.3362    0.0000 C   0  0  0  0  0  0  0  0  0  0  0  0
    6.2659   -8.9238    0.0000 C   0  0  0  0  0  0  0  0  0  0  0  0
    6.2659   -8.0987    0.0000 C   0  0  0  0  0  0  0  0  0  0  0  0
    5.5515   -7.6863    0.0000 C   0  0  0  0  0  0  0  0  0  0  0  0
    6.9804   -7.6863    0.0000 C   0  0  2  0  0  0  0  0  0  0  0  0
    6.9804   -6.8613    0.0000 C   0  0  1  0  0  0  0  0  0  0  0  0
    6.2659   -6.4487    0.0000 C   0  0  0  0  0  0  0  0  0  0  0  0
    5.5515   -6.8613    0.0000 C   0  0  0  0  0  0  0  0  0  0  0  0
    2.6936   -9.3362    0.0000 O   0  0  0  0  0  0  0  0  0  0  0  0
    3.7100  -10.0507    0.0000 C   0  0  0  0  0  0  0  0  0  0  0  0
    4.8370   -7.2738    0.0000 C   0  0  0  0  0  0  0  0  0  0  0  0
    6.9804   -6.0362    0.0000 C   0  0  0  0  0  0  0  0  0  0  0  0
    4.5350  -10.0507    0.0000 C   0  0  0  0  0  0  0  0  0  0  0  0
    6.9804   -8.5113    0.0000 C   0  0  0  0  0  0  0  0  0  0  0  0
    4.8370   -9.7487    0.0000 H   0  0  0  0  0  0  0  0  0  0  0  0
    7.7650   -7.9412    0.0000 C   0  0  2  0  0  0  0  0  0  0  0  0
    8.2500   -7.2738    0.0000 C   0  0  0  0  0  0  0  0  0  0  0  0
    7.7650   -6.6063    0.0000 C   0  0  2  0  0  0  0  0  0  0  0  0
    8.0200   -8.7258    0.0000 O   0  0  0  0  0  0  0  0  0  0  0  0
    8.0200   -5.8217    0.0000 C   0  0  2  0  0  0  0  0  0  0  0  0
    7.4679   -5.2086    0.0000 C   0  0  0  0  0  0  0  0  0  0  0  0
    8.8269   -5.6502    0.0000 C   0  0  2  0  0  0  0  0  0  0  0  0
    9.0819   -4.8655    0.0000 C   0  0  0  0  0  0  0  0  0  0  0  0
    9.8889   -4.6940    0.0000 C   0  0  0  0  0  0  0  0  0  0  0  0
   10.1438   -3.9094    0.0000 C   0  0  0  0  0  0  0  0  0  0  0  0
    9.5918   -3.2963    0.0000 C   0  0  0  0  0  0  0  0  0  0  0  0
   10.9508   -3.7379    0.0000 C   0  0  0  0  0  0  0  0  0  0  0  0
    9.3790   -6.2633    0.0000 O   0  0  0  0  0  0  0  0  0  0  0  0
    8.5497   -6.3514    0.0000 H   0  0  0  0  0  0  0  0  0  0  0  0
   11.5028   -4.3510    0.0000 O   0  0  0  0  0  0  0  0  0  0  0  0
   11.2057   -2.9532    0.0000 O   0  0  0  0  0  0  0  0  0  0  0  0
  1  2  1  0  0  0  0
  2  3  1  0  0  0  0
  3  4  1  0  0  0  0
  4  5  1  0  0  0  0
  5  6  1  0  0  0  0
  6  1  1  0  0  0  0
  4  7  1  0  0  0  0
  7  8  1  0  0  0  0
  8  9  2  0  0  0  0
  9 10  1  0  0  0  0
 10  5  1  0  0  0  0
  9 11  1  0  0  0  0
 11 12  1  0  0  0  0
 12 13  1  0  0  0  0
 13 14  1  0  0  0  0
 14 10  2  0  0  0  0
  2 15  2  0  0  0  0
  3 16  1  0  0  0  0
  5 17  1  1  0  0  0
 12 18  1  1  0  0  0
  3 19  1  0  0  0  0
 11 20  1  6  0  0  0
  4 21  1  6  0  0  0
 11 22  1  0  0  0  0
 22 23  1  0  0  0  0
 23 24  1  0  0  0  0
 24 12  1  0  0  0  0
 22 25  1  6  0  0  0
 24 26  1  0  0  0  0
 26 27  1  6  0  0  0
 26 28  1  0  0  0  0
 28 29  1  0  0  0  0
 29 30  1  0  0  0  0
 30 31  2  0  0  0  0
 31 32  1  0  0  0  0
 31 33  1  0  0  0  0
 28 34  1  6  0  0  0
 24 35  1  6  0  0  0
 33 36  2  0  0  0  0
 33 37  1  0  0  0  0
M  END
>  <cdx:fragmentId>
5

$$$$
