93990.cdx
  Mrv1902 05222410202D          

 16 17  0  0  0  0            999 V2000
    8.8773   -8.6220    0.0000 N   0  0  0  0  0  0  0  0  0  0  0  0
    8.3253   -8.0089    0.0000 N   0  0  0  0  0  0  0  0  0  0  0  0
    7.5716   -8.3445    0.0000 C   0  0  0  0  0  0  0  0  0  0  0  0
    7.6578   -9.1650    0.0000 C   0  0  0  0  0  0  0  0  0  0  0  0
    8.4648   -9.3365    0.0000 C   0  0  0  0  0  0  0  0  0  0  0  0
    6.8571   -7.9320    0.0000 C   0  0  0  0  0  0  0  0  0  0  0  0
    6.1426   -8.3445    0.0000 C   0  0  0  0  0  0  0  0  0  0  0  0
    5.4282   -7.9320    0.0000 C   0  0  0  0  0  0  0  0  0  0  0  0
    5.4282   -7.1070    0.0000 C   0  0  0  0  0  0  0  0  0  0  0  0
    6.1426   -6.6945    0.0000 C   0  0  0  0  0  0  0  0  0  0  0  0
    6.8571   -7.1070    0.0000 C   0  0  0  0  0  0  0  0  0  0  0  0
    7.2696   -6.3925    0.0000 C   0  0  0  0  0  0  0  0  0  0  0  0
    7.6821   -7.1070    0.0000 C   0  0  0  0  0  0  0  0  0  0  0  0
    6.1426   -9.1695    0.0000 C   0  0  0  0  0  0  0  0  0  0  0  0
    7.0447   -9.7170    0.0000 C   0  0  0  0  0  0  0  0  0  0  0  0
    7.2162  -10.5240    0.0000 C   0  0  0  0  0  0  0  0  0  0  0  0
  1  2  2  0  0  0  0
  2  3  1  0  0  0  0
  3  4  1  0  0  0  0
  4  5  1  0  0  0  0
  1  5  1  0  0  0  0
  6  7  1  0  0  0  0
  7  8  2  0  0  0  0
  8  9  1  0  0  0  0
  9 10  1  0  0  0  0
 10 11  1  0  0  0  0
  6 11  1  0  0  0  0
 11 12  1  0  0  0  0
 11 13  1  0  0  0  0
  7 14  1  0  0  0  0
  3  6  1  0  0  0  0
 15 16  1  0  0  0  0
  4 15  1  0  0  0  0
M  END
>  <cdx:groupId>
51

>  <cdx:fragmentId>
15

$$$$
