93992.cdx
  Mrv1902 05222410212D          

 43 46  0  0  0  0            999 V2000
    4.8748   -7.0697    0.0000 O   0  0  0  0  0  0  0  0  0  0  0  0
    5.6024   -8.2996    0.0000 O   0  0  0  0  0  0  0  0  0  0  0  0
    4.8836   -7.8947    0.0000 C   0  0  0  0  0  0  0  0  0  0  0  0
    4.1735   -8.3147    0.0000 C   0  0  0  0  0  0  0  0  0  0  0  0
    3.4285   -5.4349    0.0000 C   0  0  0  0  0  0  0  0  0  0  0  0
    2.7185   -5.8550    0.0000 C   0  0  0  0  0  0  0  0  0  0  0  0
    2.7272   -6.6799    0.0000 C   0  0  0  0  0  0  0  0  0  0  0  0
    3.4460   -7.0848    0.0000 C   0  0  0  0  0  0  0  0  0  0  0  0
    4.1560   -6.6648    0.0000 C   0  0  0  0  0  0  0  0  0  0  0  0
    4.1473   -5.8398    0.0000 C   0  0  0  0  0  0  0  0  0  0  0  0
    3.4198   -4.6100    0.0000 O   0  0  0  0  0  0  0  0  0  0  0  0
    3.4547   -7.9098    0.0000 C   0  0  0  0  0  0  0  0  0  0  0  0
    6.3124   -7.8795    0.0000 C   0  0  2  0  0  0  0  0  0  0  0  0
    6.3037   -7.0546    0.0000 C   0  0  2  0  0  0  0  0  0  0  0  0
    7.0312   -8.2845    0.0000 C   0  0  1  0  0  0  0  0  0  0  0  0
    7.7413   -7.8644    0.0000 C   0  0  2  0  0  0  0  0  0  0  0  0
    7.7326   -7.0395    0.0000 C   0  0  1  0  0  0  0  0  0  0  0  0
    7.0138   -6.6345    0.0000 O   0  0  0  0  0  0  0  0  0  0  0  0
    5.5849   -6.6497    0.0000 C   0  0  0  0  0  0  0  0  0  0  0  0
    5.5960   -5.8247    0.0000 O   0  0  0  0  0  0  0  0  0  0  0  0
   10.5903   -7.0092    0.0000 C   0  0  0  0  0  0  0  0  0  0  0  0
   10.5990   -7.8342    0.0000 C   0  0  0  0  0  0  0  0  0  0  0  0
   11.3178   -8.2391    0.0000 C   0  0  0  0  0  0  0  0  0  0  0  0
   12.0279   -7.8190    0.0000 C   0  0  0  0  0  0  0  0  0  0  0  0
   12.0192   -6.9941    0.0000 C   0  0  0  0  0  0  0  0  0  0  0  0
   11.3004   -6.5892    0.0000 C   0  0  0  0  0  0  0  0  0  0  0  0
   12.7292   -6.5740    0.0000 O   0  0  0  0  0  0  0  0  0  0  0  0
   12.7467   -8.2240    0.0000 O   0  0  0  0  0  0  0  0  0  0  0  0
    9.8715   -6.6043    0.0000 C   0  0  0  0  0  0  0  0  0  0  0  0
    9.1614   -7.0243    0.0000 C   0  0  0  0  0  0  0  0  0  0  0  0
    8.4426   -6.6194    0.0000 O   0  0  0  0  0  0  0  0  0  0  0  0
    7.0400   -9.1094    0.0000 O   0  0  0  0  0  0  0  0  0  0  0  0
    6.3208   -9.5136    0.0000 C   0  0  2  0  0  0  0  0  0  0  0  0
    5.6111   -9.0929    0.0000 O   0  0  0  0  0  0  0  0  0  0  0  0
    4.8919   -9.4971    0.0000 C   0  0  2  0  0  0  0  0  0  0  0  0
    4.8824  -10.3220    0.0000 C   0  0  1  0  0  0  0  0  0  0  0  0
    5.5920  -10.7428    0.0000 C   0  0  2  0  0  0  0  0  0  0  0  0
    6.3112  -10.3386    0.0000 C   0  0  1  0  0  0  0  0  0  0  0  0
    8.4601   -8.2693    0.0000 O   0  0  0  0  0  0  0  0  0  0  0  0
    7.0269  -10.7489    0.0000 O   0  0  0  0  0  0  0  0  0  0  0  0
    5.5825  -11.5677    0.0000 O   0  0  0  0  0  0  0  0  0  0  0  0
    4.1823   -9.0763    0.0000 C   0  0  0  0  0  0  0  0  0  0  0  0
    4.1632  -10.7262    0.0000 O   0  0  0  0  0  0  0  0  0  0  0  0
  3  1  2  0  0  0  0
  3  2  1  0  0  0  0
  4  3  1  0  0  0  0
 12  4  2  0  0  0  0
  5  6  2  0  0  0  0
  6  7  1  0  0  0  0
  7  8  2  0  0  0  0
  8  9  1  0  0  0  0
  9 10  2  0  0  0  0
 10  5  1  0  0  0  0
  5 11  1  0  0  0  0
  8 12  1  0  0  0  0
 13  2  1  6  0  0  0
 13 14  1  0  0  0  0
 13 15  1  0  0  0  0
 15 16  1  0  0  0  0
 16 17  1  0  0  0  0
 17 18  1  0  0  0  0
 18 14  1  0  0  0  0
 14 19  1  1  0  0  0
 19 20  1  0  0  0  0
 17 31  1  1  0  0  0
 21 22  2  0  0  0  0
 22 23  1  0  0  0  0
 23 24  2  0  0  0  0
 24 25  1  0  0  0  0
 25 26  2  0  0  0  0
 26 21  1  0  0  0  0
 25 27  1  0  0  0  0
 29 21  1  0  0  0  0
 24 28  1  0  0  0  0
 30 29  1  0  0  0  0
 31 30  1  0  0  0  0
 15 32  1  1  0  0  0
 33 32  1  1  0  0  0
 33 34  1  0  0  0  0
 34 35  1  0  0  0  0
 35 36  1  0  0  0  0
 36 37  1  0  0  0  0
 37 38  1  0  0  0  0
 38 33  1  0  0  0  0
 16 39  1  6  0  0  0
 38 40  1  6  0  0  0
 37 41  1  6  0  0  0
 35 42  1  6  0  0  0
 36 43  1  1  0  0  0
M  END
>  <cdx:fragmentId>
5

$$$$
