93995.cdx
  Mrv1902 05222410222D          

 65 71  0  0  0  0            999 V2000
   17.9058  -11.7991    0.0000 O   0  0  0  0  0  0  0  0  0  0  0  0
   16.4769  -12.6241    0.0000 O   0  0  0  0  0  0  0  0  0  0  0  0
   15.0480  -11.7991    0.0000 C   0  0  0  0  0  0  0  0  0  0  0  0
   17.9058  -10.1491    0.0000 O   0  0  0  0  0  0  0  0  0  0  0  0
   15.7624  -11.3866    0.0000 C   0  0  1  0  0  0  0  0  0  0  0  0
   16.4769  -11.7991    0.0000 C   0  0  1  0  0  0  0  0  0  0  0  0
   17.1914  -11.3866    0.0000 C   0  0  2  0  0  0  0  0  0  0  0  0
   17.1914  -10.5616    0.0000 C   0  0  2  0  0  0  0  0  0  0  0  0
   16.4769  -10.1491    0.0000 C   0  0  1  0  0  0  0  0  0  0  0  0
   15.7624  -10.5616    0.0000 O   0  0  0  0  0  0  0  0  0  0  0  0
   16.4769   -9.3241    0.0000 O   0  0  0  0  0  0  0  0  0  0  0  0
   13.6190  -10.1491    0.0000 O   0  0  0  0  0  0  0  0  0  0  0  0
   12.1901   -7.6741    0.0000 O   0  0  0  0  0  0  0  0  0  0  0  0
   18.6203   -6.4366    0.0000 O   0  0  0  0  0  0  0  0  0  0  0  0
   16.4769   -6.8491    0.0000 C   0  0  0  0  0  0  0  0  0  0  0  0
   17.1914   -6.4366    0.0000 C   0  0  0  0  0  0  0  0  0  0  0  0
   17.9058   -6.8491    0.0000 C   0  0  0  0  0  0  0  0  0  0  0  0
   17.9058   -7.6741    0.0000 C   0  0  0  0  0  0  0  0  0  0  0  0
   17.1914   -8.0866    0.0000 C   0  0  0  0  0  0  0  0  0  0  0  0
   16.4769   -7.6741    0.0000 C   0  0  0  0  0  0  0  0  0  0  0  0
   15.0480  -10.1491    0.0000 O   0  0  0  0  0  0  0  0  0  0  0  0
   15.0480   -7.6741    0.0000 O   0  0  0  0  0  0  0  0  0  0  0  0
   14.3335   -8.0866    0.0000 C   0  0  0  0  0  0  0  0  0  0  0  0
   13.6190   -7.6741    0.0000 C   0  0  0  0  0  0  0  0  0  0  0  0
   12.9045   -8.0866    0.0000 C   0  0  0  0  0  0  0  0  0  0  0  0
   12.9045   -8.9116    0.0000 C   0  0  0  0  0  0  0  0  0  0  0  0
   13.6190   -9.3241    0.0000 C   0  0  0  0  0  0  0  0  0  0  0  0
   14.3335   -8.9116    0.0000 C   0  0  0  0  0  0  0  0  0  0  0  0
   15.0480   -9.3241    0.0000 C   0  0  0  0  0  0  0  0  0  0  0  0
   15.7624   -8.9116    0.0000 C   0  0  0  0  0  0  0  0  0  0  0  0
   15.7624   -8.0866    0.0000 C   0  0  0  0  0  0  0  0  0  0  0  0
   11.4756   -8.0866    0.0000 C   0  0  2  0  0  0  0  0  0  0  0  0
   10.7611   -7.6741    0.0000 O   0  0  0  0  0  0  0  0  0  0  0  0
   10.0467   -8.0866    0.0000 C   0  0  2  0  0  0  0  0  0  0  0  0
   10.0467   -8.9116    0.0000 C   0  0  1  0  0  0  0  0  0  0  0  0
   10.7611   -9.3241    0.0000 C   0  0  2  0  0  0  0  0  0  0  0  0
   11.4756   -8.9116    0.0000 C   0  0  1  0  0  0  0  0  0  0  0  0
    9.3322   -9.3241    0.0000 O   0  0  0  0  0  0  0  0  0  0  0  0
    9.3322   -7.6741    0.0000 C   0  0  0  0  0  0  0  0  0  0  0  0
   10.7611  -10.1491    0.0000 O   0  0  0  0  0  0  0  0  0  0  0  0
   12.1901   -9.3241    0.0000 O   0  0  0  0  0  0  0  0  0  0  0  0
   10.0467  -10.5616    0.0000 C   0  0  2  0  0  0  0  0  0  0  0  0
    9.3322  -10.1491    0.0000 O   0  0  0  0  0  0  0  0  0  0  0  0
    8.6177  -10.5616    0.0000 C   0  0  1  0  0  0  0  0  0  0  0  0
    8.6177  -11.3866    0.0000 C   0  0  2  0  0  0  0  0  0  0  0  0
    9.3322  -11.7991    0.0000 C   0  0  1  0  0  0  0  0  0  0  0  0
   10.0467  -11.3866    0.0000 C   0  0  1  0  0  0  0  0  0  0  0  0
    7.9032  -10.1491    0.0000 C   0  0  0  0  0  0  0  0  0  0  0  0
    9.3322  -12.6241    0.0000 O   0  0  0  0  0  0  0  0  0  0  0  0
    7.9032  -11.7991    0.0000 O   0  0  0  0  0  0  0  0  0  0  0  0
   10.7611  -11.7991    0.0000 O   0  0  0  0  0  0  0  0  0  0  0  0
    7.1888  -10.5616    0.0000 O   0  0  0  0  0  0  0  0  0  0  0  0
    6.4743  -10.1491    0.0000 C   0  0  0  0  0  0  0  0  0  0  0  0
    5.7598  -10.5616    0.0000 C   0  0  0  0  0  0  0  0  0  0  0  0
    6.4743   -9.3241    0.0000 O   0  0  0  0  0  0  0  0  0  0  0  0
    5.0454  -10.1491    0.0000 C   0  0  0  0  0  0  0  0  0  0  0  0
    4.3309  -10.5616    0.0000 C   0  0  0  0  0  0  0  0  0  0  0  0
    3.6164  -10.1491    0.0000 C   0  0  0  0  0  0  0  0  0  0  0  0
    2.9020  -10.5616    0.0000 C   0  0  0  0  0  0  0  0  0  0  0  0
    2.9020  -11.3866    0.0000 C   0  0  0  0  0  0  0  0  0  0  0  0
    3.6164  -11.7991    0.0000 C   0  0  0  0  0  0  0  0  0  0  0  0
    4.3309  -11.3866    0.0000 C   0  0  0  0  0  0  0  0  0  0  0  0
    2.1875  -11.7991    0.0000 O   0  0  0  0  0  0  0  0  0  0  0  0
    2.1875  -10.1491    0.0000 O   0  0  0  0  0  0  0  0  0  0  0  0
    1.4730  -10.5616    0.0000 C   0  0  0  0  0  0  0  0  0  0  0  0
 30 11  1  0  0  0  0
  9 11  1  1  0  0  0
  7  1  1  6  0  0  0
  6  2  1  1  0  0  0
  5  3  1  6  0  0  0
  8  4  1  6  0  0  0
 10  5  1  0  0  0  0
  6  5  1  0  0  0  0
  7  6  1  0  0  0  0
  8  7  1  0  0  0  0
  9  8  1  0  0  0  0
 10  9  1  0  0  0  0
 27 12  1  0  0  0  0
 25 13  1  0  0  0  0
 31 20  1  0  0  0  0
 17 14  1  0  0  0  0
 20 15  2  0  0  0  0
 16 15  1  0  0  0  0
 17 16  2  0  0  0  0
 18 17  1  0  0  0  0
 19 18  2  0  0  0  0
 20 19  1  0  0  0  0
 29 21  2  0  0  0  0
 31 22  1  0  0  0  0
 23 22  1  0  0  0  0
 28 23  2  0  0  0  0
 24 23  1  0  0  0  0
 25 24  2  0  0  0  0
 26 25  1  0  0  0  0
 27 26  2  0  0  0  0
 28 27  1  0  0  0  0
 29 28  1  0  0  0  0
 30 29  1  0  0  0  0
 31 30  2  0  0  0  0
 32 13  1  1  0  0  0
 32 33  1  0  0  0  0
 33 34  1  0  0  0  0
 34 35  1  0  0  0  0
 35 36  1  0  0  0  0
 36 37  1  0  0  0  0
 37 32  1  0  0  0  0
 35 38  1  1  0  0  0
 34 39  1  6  0  0  0
 36 40  1  6  0  0  0
 37 41  1  6  0  0  0
 42 40  1  1  0  0  0
 42 43  1  0  0  0  0
 43 44  1  0  0  0  0
 44 45  1  0  0  0  0
 45 46  1  0  0  0  0
 46 47  1  0  0  0  0
 47 42  1  0  0  0  0
 44 48  1  1  0  0  0
 46 49  1  1  0  0  0
 45 50  1  6  0  0  0
 47 51  1  6  0  0  0
 48 52  1  0  0  0  0
 52 53  1  0  0  0  0
 53 54  1  0  0  0  0
 53 55  2  0  0  0  0
 54 56  2  0  0  0  0
 56 57  1  0  0  0  0
 57 58  2  0  0  0  0
 58 59  1  0  0  0  0
 59 60  2  0  0  0  0
 60 61  1  0  0  0  0
 61 62  2  0  0  0  0
 62 57  1  0  0  0  0
 60 63  1  0  0  0  0
 59 64  1  0  0  0  0
 64 65  1  0  0  0  0
M  END
>  <cdx:fragmentId>
61

$$$$
