94007.cdx
  Mrv1902 05222410232D          

 20 20  0  0  0  0            999 V2000
    6.9613   -9.1425    0.0000 C   0  0  0  0  0  0  0  0  0  0  0  0
    7.6798   -8.7371    0.0000 C   0  0  0  0  0  0  0  0  0  0  0  0
    7.6880   -7.9121    0.0000 C   0  0  0  0  0  0  0  0  0  0  0  0
    6.9777   -7.4925    0.0000 C   0  0  0  0  0  0  0  0  0  0  0  0
    6.9859   -6.6676    0.0000 C   0  0  0  0  0  0  0  0  0  0  0  0
    6.2756   -6.2480    0.0000 O   0  0  0  0  0  0  0  0  0  0  0  0
    6.2838   -5.4230    0.0000 S   0  0  0  0  0  0  0  0  0  0  0  0
    5.4588   -5.4148    0.0000 O   0  0  0  0  0  0  0  0  0  0  0  0
    7.1088   -5.4313    0.0000 O   0  0  0  0  0  0  0  0  0  0  0  0
    8.4027  -10.2119    0.0000 O   0  0  0  0  0  0  0  0  0  0  0  0
    6.2920   -4.5981    0.0000 O   0  0  0  0  0  0  0  0  0  0  0  0
    6.5279  -11.2328    0.0000 C   0  0  0  0  0  0  0  0  0  0  0  0
    7.3529  -11.2410    0.0000 C   0  0  0  0  0  0  0  0  0  0  0  0
    7.6156  -10.4590    0.0000 C   0  0  0  0  0  0  0  0  0  0  0  0
    6.9530   -9.9674    0.0000 C   0  0  1  0  0  0  0  0  0  0  0  0
    6.2808  -10.4457    0.0000 C   0  0  1  0  0  0  0  0  0  0  0  0
    4.1130  -10.4255    0.0000 O   0  0  0  0  0  0  0  0  0  0  0  0
    5.0437  -11.5375    0.0000 O   0  0  0  0  0  0  0  0  0  0  0  0
    5.4988  -10.1829    0.0000 C   0  0  0  0  0  0  0  0  0  0  0  0
    4.8802  -10.7288    0.0000 C   0  0  0  0  0  0  0  0  0  0  0  0
 16 19  1  6  0  0  0
 14 10  2  0  0  0  0
 15  1  1  1  0  0  0
 16 12  1  0  0  0  0
 13 12  1  0  0  0  0
 14 13  1  0  0  0  0
 15 14  1  0  0  0  0
 16 15  1  0  0  0  0
 20 17  1  0  0  0  0
 20 18  2  0  0  0  0
 20 19  1  0  0  0  0
  1  2  1  0  0  0  0
  2  3  2  0  0  0  0
  3  4  1  0  0  0  0
  4  5  1  0  0  0  0
  7  8  2  0  0  0  0
  7  9  2  0  0  0  0
  7 11  1  0  0  0  0
  6  7  1  0  0  0  0
  5  6  1  0  0  0  0
M  END
>  <cdx:groupId>
62

>  <cdx:fragmentId>
35

$$$$
