94009.cdx
  Mrv1902 05222410222D          

 35 37  0  0  0  0            999 V2000
    4.6318   -7.7000    0.0000 C   0  0  0  0  0  0  0  0  0  0  0  0
    4.6318   -8.5250    0.0000 C   0  0  0  0  0  0  0  0  0  0  0  0
    5.3463   -8.9375    0.0000 C   0  0  0  0  0  0  0  0  0  0  0  0
    6.0607   -8.5250    0.0000 C   0  0  0  0  0  0  0  0  0  0  0  0
    6.0607   -7.7000    0.0000 C   0  0  0  0  0  0  0  0  0  0  0  0
    5.3463   -7.2875    0.0000 C   0  0  0  0  0  0  0  0  0  0  0  0
    6.7752   -8.9375    0.0000 C   0  0  0  0  0  0  0  0  0  0  0  0
    7.4897   -8.5250    0.0000 C   0  0  0  0  0  0  0  0  0  0  0  0
    7.4897   -7.7000    0.0000 C   0  0  0  0  0  0  0  0  0  0  0  0
    6.7752   -7.2875    0.0000 O   0  0  0  0  0  0  0  0  0  0  0  0
    8.2042   -8.9375    0.0000 O   0  0  0  0  0  0  0  0  0  0  0  0
    8.9186   -7.7000    0.0000 C   0  0  0  0  0  0  0  0  0  0  0  0
    8.2042   -7.2875    0.0000 C   0  0  0  0  0  0  0  0  0  0  0  0
    9.6331   -7.2875    0.0000 C   0  0  0  0  0  0  0  0  0  0  0  0
    9.6331   -6.4625    0.0000 C   0  0  0  0  0  0  0  0  0  0  0  0
    8.9186   -6.0500    0.0000 C   0  0  0  0  0  0  0  0  0  0  0  0
    8.2042   -6.4625    0.0000 C   0  0  0  0  0  0  0  0  0  0  0  0
    6.7752   -9.7625    0.0000 O   0  0  0  0  0  0  0  0  0  0  0  0
    5.3463   -9.7625    0.0000 O   0  0  0  0  0  0  0  0  0  0  0  0
    3.9173   -7.2875    0.0000 O   0  0  0  0  0  0  0  0  0  0  0  0
    5.3463   -6.4625    0.0000 O   0  0  0  0  0  0  0  0  0  0  0  0
    8.9186   -5.2250    0.0000 O   0  0  0  0  0  0  0  0  0  0  0  0
    9.6331   -4.8125    0.0000 C   0  0  0  0  0  0  0  0  0  0  0  0
   10.3476   -6.0500    0.0000 O   0  0  0  0  0  0  0  0  0  0  0  0
    4.6318   -6.0500    0.0000 C   0  0  0  0  0  0  0  0  0  0  0  0
    8.1954   -9.7650    0.0000 C   0  0  0  0  0  0  0  0  0  0  0  0
    7.4724  -10.1623    0.0000 C   0  0  0  0  0  0  0  0  0  0  0  0
    8.9010  -10.1926    0.0000 O   0  0  0  0  0  0  0  0  0  0  0  0
    7.4549  -10.9871    0.0000 C   0  0  0  0  0  0  0  0  0  0  0  0
    7.4375  -11.8119    0.0000 C   0  0  0  0  0  0  0  0  0  0  0  0
    8.2798  -11.0046    0.0000 O   0  0  0  0  0  0  0  0  0  0  0  0
    6.6301  -10.9697    0.0000 C   0  0  0  0  0  0  0  0  0  0  0  0
    6.7144  -12.2092    0.0000 C   0  0  0  0  0  0  0  0  0  0  0  0
    6.6970  -13.0340    0.0000 O   0  0  0  0  0  0  0  0  0  0  0  0
    6.0088  -11.7817    0.0000 O   0  0  0  0  0  0  0  0  0  0  0  0
  1  2  2  0  0  0  0
  2  3  1  0  0  0  0
  3  4  2  0  0  0  0
  4  5  1  0  0  0  0
  5  6  2  0  0  0  0
  6  1  1  0  0  0  0
  4  7  1  0  0  0  0
  7  8  1  0  0  0  0
  8  9  2  0  0  0  0
  9 10  1  0  0  0  0
 10  5  1  0  0  0  0
  8 11  1  0  0  0  0
 12 13  2  0  0  0  0
 13  9  1  0  0  0  0
 12 14  1  0  0  0  0
 14 15  2  0  0  0  0
 15 16  1  0  0  0  0
 16 17  2  0  0  0  0
 17 13  1  0  0  0  0
  7 18  2  0  0  0  0
  3 19  1  0  0  0  0
  1 20  1  0  0  0  0
  6 21  1  0  0  0  0
 16 22  1  0  0  0  0
 22 23  1  0  0  0  0
 15 24  1  0  0  0  0
 21 25  1  0  0  0  0
 26 27  1  0  0  0  0
 26 28  2  0  0  0  0
 27 29  1  0  0  0  0
 29 30  1  0  0  0  0
 29 31  1  0  0  0  0
 29 32  1  0  0  0  0
 30 33  1  0  0  0  0
 33 34  1  0  0  0  0
 33 35  2  0  0  0  0
 26 11  1  0  0  0  0
M  END
>  <cdx:fragmentId>
5

$$$$
