94004.cdx
  Mrv1902 05222410242D          

 19 20  0  0  0  0            999 V2000
    4.7831   -6.4625    0.0000 C   0  0  1  0  0  0  0  0  0  0  0  0
    4.7831   -7.2875    0.0000 C   0  0  0  0  0  0  0  0  0  0  0  0
    5.4975   -7.7000    0.0000 C   0  0  0  0  0  0  0  0  0  0  0  0
    6.2120   -7.2875    0.0000 C   0  0  1  0  0  0  0  0  0  0  0  0
    6.2120   -6.4625    0.0000 C   0  0  1  0  0  0  0  0  0  0  0  0
    5.4975   -6.0500    0.0000 C   0  0  0  0  0  0  0  0  0  0  0  0
    6.9265   -7.7000    0.0000 C   0  0  2  0  0  0  0  0  0  0  0  0
    7.6409   -7.2875    0.0000 C   0  0  0  0  0  0  0  0  0  0  0  0
    7.6409   -6.4625    0.0000 C   0  0  0  0  0  0  0  0  0  0  0  0
    6.9265   -6.0500    0.0000 C   0  0  1  0  0  0  0  0  0  0  0  0
    4.0686   -6.0500    0.0000 O   0  0  0  0  0  0  0  0  0  0  0  0
    6.2120   -5.6375    0.0000 H   0  0  0  0  0  0  0  0  0  0  0  0
    6.9265   -5.2250    0.0000 C   0  0  0  0  0  0  0  0  0  0  0  0
    6.2120   -8.1125    0.0000 H   0  0  0  0  0  0  0  0  0  0  0  0
    6.5140   -8.4145    0.0000 O   0  0  0  0  0  0  0  0  0  0  0  0
    7.3390   -8.4145    0.0000 C   0  0  0  0  0  0  0  0  0  0  0  0
    4.0686   -7.7000    0.0000 C   0  0  0  0  0  0  0  0  0  0  0  0
    6.9265   -9.1289    0.0000 C   0  0  0  0  0  0  0  0  0  0  0  0
    8.1640   -8.4145    0.0000 C   0  0  0  0  0  0  0  0  0  0  0  0
  1  2  1  0  0  0  0
  2  3  2  0  0  0  0
  3  4  1  0  0  0  0
  4  5  1  0  0  0  0
  5  6  1  0  0  0  0
  6  1  1  0  0  0  0
  4  7  1  0  0  0  0
  7  8  1  0  0  0  0
  8  9  1  0  0  0  0
  9 10  1  0  0  0  0
 10  5  1  0  0  0  0
  1 11  1  6  0  0  0
  5 12  1  6  0  0  0
 10 13  1  6  0  0  0
  4 14  1  6  0  0  0
  7 15  1  6  0  0  0
  7 16  1  1  0  0  0
  2 17  1  0  0  0  0
 16 18  1  0  0  0  0
 16 19  1  0  0  0  0
M  END
>  <cdx:fragmentId>
5

$$$$
