94008.cdx
  Mrv1902 05222410222D          

 57 64  0  0  0  0            999 V2000
    8.9300   -8.5516    0.0000 C   0  0  1  0  0  0  0  0  0  0  0  0
    9.6450   -8.1401    0.0000 C   0  0  2  0  0  0  0  0  0  0  0  0
   10.4293   -8.3961    0.0000 C   0  0  0  0  0  0  0  0  0  0  0  0
   10.9151   -7.7294    0.0000 C   0  0  2  0  0  0  0  0  0  0  0  0
   11.7001   -7.4755    0.0000 O   0  0  0  0  0  0  0  0  0  0  0  0
   11.7012   -6.6505    0.0000 C   0  0  2  0  0  0  0  0  0  0  0  0
   10.9170   -6.3945    0.0000 C   0  0  2  0  0  0  0  0  0  0  0  0
   10.4311   -7.0613    0.0000 C   0  0  2  0  0  0  0  0  0  0  0  0
    9.6461   -7.3151    0.0000 C   0  0  1  0  0  0  0  0  0  0  0  0
    8.9322   -6.9016    0.0000 C   0  0  0  0  0  0  0  0  0  0  0  0
    8.2172   -7.3131    0.0000 C   0  0  0  0  0  0  0  0  0  0  0  0
    8.2161   -8.1381    0.0000 C   0  0  2  0  0  0  0  0  0  0  0  0
    7.5010   -8.5496    0.0000 C   0  0  1  0  0  0  0  0  0  0  0  0
    6.7871   -8.1362    0.0000 C   0  0  0  0  0  0  0  0  0  0  0  0
    6.0721   -8.5477    0.0000 C   0  0  2  0  0  0  0  0  0  0  0  0
    6.0709   -9.3727    0.0000 C   0  0  1  0  0  0  0  0  0  0  0  0
    6.7848   -9.7862    0.0000 C   0  0  0  0  0  0  0  0  0  0  0  0
    7.4999   -9.3746    0.0000 C   0  0  0  0  0  0  0  0  0  0  0  0
    8.2138   -9.7881    0.0000 C   0  0  0  0  0  0  0  0  0  0  0  0
    8.9288   -9.3766    0.0000 C   0  0  0  0  0  0  0  0  0  0  0  0
   11.6161   -5.8299    0.0000 O   0  0  0  0  0  0  0  0  0  0  0  0
   12.4544   -6.9871    0.0000 C   0  0  0  0  0  0  0  0  0  0  0  0
   13.1225   -6.5031    0.0000 C   0  0  0  0  0  0  0  0  0  0  0  0
   13.0374   -5.6825    0.0000 C   0  0  1  0  0  0  0  0  0  0  0  0
   12.2842   -5.3459    0.0000 C   0  0  0  0  0  0  0  0  0  0  0  0
    5.3582   -8.1342    0.0000 O   0  0  0  0  0  0  0  0  0  0  0  0
    5.3559   -9.7842    0.0000 O   0  0  0  0  0  0  0  0  0  0  0  0
    7.5022   -7.7246    0.0000 C   0  0  0  0  0  0  0  0  0  0  0  0
    9.5040   -6.5025    0.0000 C   0  0  0  0  0  0  0  0  0  0  0  0
   10.6631   -5.6095    0.0000 C   0  0  0  0  0  0  0  0  0  0  0  0
   13.7055   -5.1985    0.0000 C   0  0  0  0  0  0  0  0  0  0  0  0
    8.9311   -7.7266    0.0000 H   0  0  0  0  0  0  0  0  0  0  0  0
    9.6439   -8.9651    0.0000 H   0  0  0  0  0  0  0  0  0  0  0  0
   11.3991   -8.3975    0.0000 H   0  0  0  0  0  0  0  0  0  0  0  0
   10.0705   -6.3193    0.0000 H   0  0  0  0  0  0  0  0  0  0  0  0
    8.2149   -8.9631    0.0000 H   0  0  0  0  0  0  0  0  0  0  0  0
    4.6420   -9.3707    0.0000 C   0  0  2  0  0  0  0  0  0  0  0  0
    4.6437   -8.5457    0.0000 O   0  0  0  0  0  0  0  0  0  0  0  0
    3.9301   -8.1317    0.0000 C   0  0  1  0  0  0  0  0  0  0  0  0
    3.2148   -8.5457    0.0000 C   0  0  2  0  0  0  0  0  0  0  0  0
    3.2148   -9.3707    0.0000 C   0  0  1  0  0  0  0  0  0  0  0  0
    3.9301   -9.7847    0.0000 C   0  0  1  0  0  0  0  0  0  0  0  0
    3.9305   -7.3067    0.0000 C   0  0  0  0  0  0  0  0  0  0  0  0
    2.5001   -9.7828    0.0000 O   0  0  0  0  0  0  0  0  0  0  0  0
    3.9309  -10.6097    0.0000 O   0  0  0  0  0  0  0  0  0  0  0  0
    2.5001   -8.1336    0.0000 O   0  0  0  0  0  0  0  0  0  0  0  0
    3.2163   -6.8938    0.0000 O   0  0  0  0  0  0  0  0  0  0  0  0
    3.2169  -11.0229    0.0000 C   0  0  2  0  0  0  0  0  0  0  0  0
    2.5016  -10.6119    0.0000 O   0  0  0  0  0  0  0  0  0  0  0  0
    1.7880  -11.0229    0.0000 C   0  0  2  0  0  0  0  0  0  0  0  0
    1.7880  -11.8479    0.0000 C   0  0  1  0  0  0  0  0  0  0  0  0
    2.5016  -12.2589    0.0000 C   0  0  2  0  0  0  0  0  0  0  0  0
    3.2169  -11.8479    0.0000 C   0  0  1  0  0  0  0  0  0  0  0  0
    1.0737  -12.2608    0.0000 O   0  0  0  0  0  0  0  0  0  0  0  0
    2.5011  -13.0839    0.0000 O   0  0  0  0  0  0  0  0  0  0  0  0
    3.9309  -12.2612    0.0000 O   0  0  0  0  0  0  0  0  0  0  0  0
    1.0737  -10.6100    0.0000 C   0  0  0  0  0  0  0  0  0  0  0  0
  1  2  1  0  0  0  0
  2  3  1  0  0  0  0
  3  4  1  0  0  0  0
  4  5  1  0  0  0  0
  6  5  1  6  0  0  0
  6  7  1  0  0  0  0
  7  8  1  0  0  0  0
  8  9  1  0  0  0  0
  9 10  1  0  0  0  0
 10 11  1  0  0  0  0
 11 12  1  0  0  0  0
 12 13  1  0  0  0  0
 13 14  1  0  0  0  0
 14 15  1  0  0  0  0
 15 16  1  0  0  0  0
 16 17  1  0  0  0  0
 17 18  1  0  0  0  0
 18 19  2  0  0  0  0
 19 20  1  0  0  0  0
  1 20  1  0  0  0  0
  1 12  1  0  0  0  0
 13 18  1  0  0  0  0
  2  9  1  0  0  0  0
  4  8  1  0  0  0  0
 22 23  1  0  0  0  0
 23 24  1  0  0  0  0
 24 25  1  0  0  0  0
 21 25  1  0  0  0  0
  6 21  1  0  0  0  0
  6 22  1  0  0  0  0
 15 26  1  6  0  0  0
 16 27  1  1  0  0  0
 13 28  1  1  0  0  0
  9 29  1  1  0  0  0
  7 30  1  6  0  0  0
 24 31  1  1  0  0  0
  1 32  1  1  0  0  0
  2 33  1  6  0  0  0
  4 34  1  6  0  0  0
  8 35  1  6  0  0  0
 12 36  1  6  0  0  0
 37 27  1  1  0  0  0
 37 38  1  0  0  0  0
 38 39  1  0  0  0  0
 39 40  1  0  0  0  0
 40 41  1  0  0  0  0
 41 42  1  0  0  0  0
 42 37  1  0  0  0  0
 39 43  1  1  0  0  0
 41 44  1  1  0  0  0
 42 45  1  6  0  0  0
 40 46  1  6  0  0  0
 43 47  1  0  0  0  0
 48 45  1  1  0  0  0
 48 49  1  0  0  0  0
 49 50  1  0  0  0  0
 50 51  1  0  0  0  0
 51 52  1  0  0  0  0
 52 53  1  0  0  0  0
 53 48  1  0  0  0  0
 51 54  1  1  0  0  0
 52 55  1  6  0  0  0
 53 56  1  6  0  0  0
 50 57  1  6  0  0  0
M  END
>  <cdx:fragmentId>
3114

$$$$
