94000.cdx
  Mrv1902 05222410242D          

 53 58  0  0  0  0            999 V2000
    7.5661   -6.7804    0.0000 O   0  0  0  0  0  0  0  0  0  0  0  0
    4.7082   -7.6054    0.0000 O   0  0  0  0  0  0  0  0  0  0  0  0
    3.2793   -5.1304    0.0000 O   0  0  0  0  0  0  0  0  0  0  0  0
    9.7095   -3.8929    0.0000 O   0  0  0  0  0  0  0  0  0  0  0  0
    7.5661   -4.3054    0.0000 C   0  0  0  0  0  0  0  0  0  0  0  0
    8.2806   -3.8929    0.0000 C   0  0  0  0  0  0  0  0  0  0  0  0
    8.9950   -4.3054    0.0000 C   0  0  0  0  0  0  0  0  0  0  0  0
    8.9950   -5.1304    0.0000 C   0  0  0  0  0  0  0  0  0  0  0  0
    8.2806   -5.5429    0.0000 C   0  0  0  0  0  0  0  0  0  0  0  0
    7.5661   -5.1304    0.0000 C   0  0  0  0  0  0  0  0  0  0  0  0
    6.1372   -7.6054    0.0000 O   0  0  0  0  0  0  0  0  0  0  0  0
    6.1372   -5.1304    0.0000 O   0  0  0  0  0  0  0  0  0  0  0  0
    5.4227   -5.5429    0.0000 C   0  0  0  0  0  0  0  0  0  0  0  0
    4.7082   -5.1304    0.0000 C   0  0  0  0  0  0  0  0  0  0  0  0
    3.9938   -5.5429    0.0000 C   0  0  0  0  0  0  0  0  0  0  0  0
    3.9938   -6.3679    0.0000 C   0  0  0  0  0  0  0  0  0  0  0  0
    4.7082   -6.7804    0.0000 C   0  0  0  0  0  0  0  0  0  0  0  0
    5.4227   -6.3679    0.0000 C   0  0  0  0  0  0  0  0  0  0  0  0
    6.1372   -6.7804    0.0000 C   0  0  0  0  0  0  0  0  0  0  0  0
    6.8516   -6.3679    0.0000 C   0  0  0  0  0  0  0  0  0  0  0  0
    6.8516   -5.5429    0.0000 C   0  0  0  0  0  0  0  0  0  0  0  0
    6.8587   -8.8432    0.0000 C   0  0  2  0  0  0  0  0  0  0  0  0
    7.5744   -9.2535    0.0000 C   0  0  2  0  0  0  0  0  0  0  0  0
    8.2876   -8.8388    0.0000 C   0  0  1  0  0  0  0  0  0  0  0  0
    8.2851   -8.0138    0.0000 C   0  0  2  0  0  0  0  0  0  0  0  0
    7.5694   -7.6035    0.0000 C   0  0  1  0  0  0  0  0  0  0  0  0
    6.8562   -8.0182    0.0000 O   0  0  0  0  0  0  0  0  0  0  0  0
    6.1455   -9.2579    0.0000 C   0  0  0  0  0  0  0  0  0  0  0  0
    9.0034   -9.2491    0.0000 O   0  0  0  0  0  0  0  0  0  0  0  0
    7.5769  -10.0785    0.0000 O   0  0  0  0  0  0  0  0  0  0  0  0
    8.9983   -7.5991    0.0000 O   0  0  0  0  0  0  0  0  0  0  0  0
    6.1480  -10.0829    0.0000 O   0  0  0  0  0  0  0  0  0  0  0  0
    5.4226  -10.4958    0.0000 C   0  0  2  0  0  0  0  0  0  0  0  0
    4.7098  -10.0804    0.0000 O   0  0  0  0  0  0  0  0  0  0  0  0
    3.9937  -10.4901    0.0000 C   0  0  2  0  0  0  0  0  0  0  0  0
    3.9904  -11.3151    0.0000 C   0  0  1  0  0  0  0  0  0  0  0  0
    4.7032  -11.7304    0.0000 C   0  0  2  0  0  0  0  0  0  0  0  0
    5.4194  -11.3208    0.0000 C   0  0  1  0  0  0  0  0  0  0  0  0
    3.2743  -11.7247    0.0000 O   0  0  0  0  0  0  0  0  0  0  0  0
    3.2809  -10.0747    0.0000 C   0  0  0  0  0  0  0  0  0  0  0  0
    4.7000  -12.5554    0.0000 O   0  0  0  0  0  0  0  0  0  0  0  0
    6.1322  -11.7361    0.0000 O   0  0  0  0  0  0  0  0  0  0  0  0
    9.7198   -8.0268    0.0000 C   0  0  2  0  0  0  0  0  0  0  0  0
    9.7191   -8.8518    0.0000 O   0  0  0  0  0  0  0  0  0  0  0  0
   10.4332   -9.2649    0.0000 C   0  0  2  0  0  0  0  0  0  0  0  0
   11.1480   -8.8530    0.0000 C   0  0  1  0  0  0  0  0  0  0  0  0
   11.1487   -8.0280    0.0000 C   0  0  2  0  0  0  0  0  0  0  0  0
   10.4346   -7.6149    0.0000 C   0  0  1  0  0  0  0  0  0  0  0  0
   11.8621   -9.2661    0.0000 O   0  0  0  0  0  0  0  0  0  0  0  0
   10.4325  -10.0899    0.0000 C   0  0  0  0  0  0  0  0  0  0  0  0
   11.8636   -7.6161    0.0000 O   0  0  0  0  0  0  0  0  0  0  0  0
   10.4353   -6.7899    0.0000 O   0  0  0  0  0  0  0  0  0  0  0  0
    8.2806   -3.0679    0.0000 O   0  0  0  0  0  0  0  0  0  0  0  0
 20  1  1  0  0  0  0
 17  2  1  0  0  0  0
 15  3  1  0  0  0  0
 21 10  1  0  0  0  0
  7  4  1  0  0  0  0
 10  5  2  0  0  0  0
  6  5  1  0  0  0  0
  7  6  2  0  0  0  0
  8  7  1  0  0  0  0
  9  8  2  0  0  0  0
 10  9  1  0  0  0  0
 19 11  2  0  0  0  0
 21 12  1  0  0  0  0
 13 12  1  0  0  0  0
 18 13  2  0  0  0  0
 14 13  1  0  0  0  0
 15 14  2  0  0  0  0
 16 15  1  0  0  0  0
 17 16  2  0  0  0  0
 18 17  1  0  0  0  0
 19 18  1  0  0  0  0
 20 19  1  0  0  0  0
 21 20  2  0  0  0  0
 22 23  1  0  0  0  0
 23 24  1  0  0  0  0
 24 25  1  0  0  0  0
 25 26  1  0  0  0  0
 26 27  1  0  0  0  0
 27 22  1  0  0  0  0
 22 28  1  1  0  0  0
 24 29  1  1  0  0  0
 23 30  1  6  0  0  0
 25 31  1  6  0  0  0
 28 32  1  0  0  0  0
 26  1  1  1  0  0  0
 33 34  1  0  0  0  0
 34 35  1  0  0  0  0
 35 36  1  0  0  0  0
 36 37  1  0  0  0  0
 37 38  1  0  0  0  0
 38 33  1  0  0  0  0
 36 39  1  1  0  0  0
 35 40  1  6  0  0  0
 37 41  1  6  0  0  0
 38 42  1  6  0  0  0
 43 44  1  0  0  0  0
 44 45  1  0  0  0  0
 45 46  1  0  0  0  0
 46 47  1  0  0  0  0
 47 48  1  0  0  0  0
 48 43  1  0  0  0  0
 46 49  1  1  0  0  0
 45 50  1  6  0  0  0
 47 51  1  6  0  0  0
 48 52  1  6  0  0  0
 33 32  1  1  0  0  0
 43 31  1  1  0  0  0
  6 53  1  0  0  0  0
M  END
>  <cdx:groupId>
67

>  <cdx:fragmentId>
201

$$$$
