94019.cdx
  Mrv1902 05222410212D          

 66 72  0  0  0  0            999 V2000
   10.3071   -8.9245    0.0000 H   0  0  0  0  0  0  0  0  0  0  0  0
   10.2490  -11.3933    0.0000 H   0  0  0  0  0  0  0  0  0  0  0  0
   11.9887  -13.9977    0.0000 O   0  0  0  0  0  0  0  0  0  0  0  0
   13.7144  -12.2322    0.0000 C   0  0  0  0  0  0  0  0  0  0  0  0
   13.1188  -12.8005    0.0000 O   0  0  0  0  0  0  0  0  0  0  0  0
   10.7159  -12.2304    0.0000 C   0  0  0  0  0  0  0  0  0  0  0  0
   10.9518  -13.0190    0.0000 C   0  0  0  0  0  0  0  0  0  0  0  0
   11.7528  -13.2091    0.0000 C   0  0  0  0  0  0  0  0  0  0  0  0
   12.3178  -12.6104    0.0000 C   0  0  0  0  0  0  0  0  0  0  0  0
   12.0819  -11.8218    0.0000 C   0  0  0  0  0  0  0  0  0  0  0  0
   11.2810  -11.6317    0.0000 C   0  0  0  0  0  0  0  0  0  0  0  0
    9.4797  -10.8063    0.0000 C   0  0  0  0  0  0  0  0  0  0  0  0
    9.5111   -9.4747    0.0000 C   0  0  1  0  0  0  0  0  0  0  0  0
    9.0117  -10.1291    0.0000 O   0  0  0  0  0  0  0  0  0  0  0  0
   11.0451  -10.8431    0.0000 C   0  0  2  0  0  0  0  0  0  0  0  0
   10.2684  -10.5704    0.0000 C   0  0  2  0  0  0  0  0  0  0  0  0
   10.2878   -9.7474    0.0000 C   0  0  2  0  0  0  0  0  0  0  0  0
   11.0764   -9.5115    0.0000 C   0  0  0  0  0  0  0  0  0  0  0  0
   11.5445  -10.1887    0.0000 O   0  0  0  0  0  0  0  0  0  0  0  0
    6.8723   -8.1159    0.0000 C   0  0  0  0  0  0  0  0  0  0  0  0
    7.4374   -7.5173    0.0000 O   0  0  0  0  0  0  0  0  0  0  0  0
   10.9703   -6.8902    0.0000 C   0  0  0  0  0  0  0  0  0  0  0  0
   10.1694   -6.7001    0.0000 O   0  0  0  0  0  0  0  0  0  0  0  0
    9.6043   -7.2988    0.0000 C   0  0  0  0  0  0  0  0  0  0  0  0
    9.8402   -8.0874    0.0000 C   0  0  0  0  0  0  0  0  0  0  0  0
    9.2752   -8.6860    0.0000 C   0  0  0  0  0  0  0  0  0  0  0  0
    8.4742   -8.4960    0.0000 C   0  0  0  0  0  0  0  0  0  0  0  0
    8.2383   -7.7074    0.0000 C   0  0  0  0  0  0  0  0  0  0  0  0
    8.8034   -7.1087    0.0000 C   0  0  0  0  0  0  0  0  0  0  0  0
    8.5675   -6.3201    0.0000 O   0  0  0  0  0  0  0  0  0  0  0  0
    4.3268   -4.5812    0.0000 O   0  0  0  0  0  0  0  0  0  0  0  0
    4.6560   -3.1940    0.0000 C   0  0  0  0  0  0  0  0  0  0  0  0
    5.4569   -3.3840    0.0000 O   0  0  0  0  0  0  0  0  0  0  0  0
    6.1646   -5.7500    0.0000 C   0  0  0  0  0  0  0  0  0  0  0  0
    5.3637   -5.5599    0.0000 C   0  0  0  0  0  0  0  0  0  0  0  0
    5.1278   -4.7713    0.0000 C   0  0  0  0  0  0  0  0  0  0  0  0
    5.6928   -4.1727    0.0000 C   0  0  0  0  0  0  0  0  0  0  0  0
    6.4938   -4.3627    0.0000 C   0  0  0  0  0  0  0  0  0  0  0  0
    6.7297   -5.1513    0.0000 C   0  0  0  0  0  0  0  0  0  0  0  0
    6.4005   -6.5386    0.0000 O   0  0  0  0  0  0  0  0  0  0  0  0
    8.0957   -4.7428    0.0000 O   0  0  0  0  0  0  0  0  0  0  0  0
    7.2015   -6.7287    0.0000 C   0  0  0  0  0  0  0  0  0  0  0  0
    7.7665   -6.1300    0.0000 C   0  0  2  0  0  0  0  0  0  0  0  0
    7.5306   -5.3414    0.0000 C   0  0  2  0  0  0  0  0  0  0  0  0
   10.2989  -15.3784    0.0000 C   0  0  2  0  0  0  0  0  0  0  0  0
   10.6879  -16.1039    0.0000 C   0  0  2  0  0  0  0  0  0  0  0  0
   11.5106  -16.1298    0.0000 C   0  0  1  0  0  0  0  0  0  0  0  0
   11.9444  -15.4301    0.0000 C   0  0  2  0  0  0  0  0  0  0  0  0
   11.5554  -14.7047    0.0000 C   0  0  1  0  0  0  0  0  0  0  0  0
   10.7326  -14.6788    0.0000 O   0  0  0  0  0  0  0  0  0  0  0  0
    9.4761  -15.3526    0.0000 C   0  0  0  0  0  0  0  0  0  0  0  0
   11.8996  -16.8552    0.0000 O   0  0  0  0  0  0  0  0  0  0  0  0
   10.2541  -16.8035    0.0000 O   0  0  0  0  0  0  0  0  0  0  0  0
   12.7672  -15.4560    0.0000 O   0  0  0  0  0  0  0  0  0  0  0  0
    9.0423  -16.0522    0.0000 O   0  0  0  0  0  0  0  0  0  0  0  0
    2.1821   -5.0003    0.0000 C   0  0  2  0  0  0  0  0  0  0  0  0
    2.1821   -5.8235    0.0000 C   0  0  2  0  0  0  0  0  0  0  0  0
    2.8950   -6.2351    0.0000 C   0  0  1  0  0  0  0  0  0  0  0  0
    3.6079   -5.8235    0.0000 C   0  0  2  0  0  0  0  0  0  0  0  0
    3.6079   -5.0003    0.0000 C   0  0  1  0  0  0  0  0  0  0  0  0
    2.8950   -4.5887    0.0000 O   0  0  0  0  0  0  0  0  0  0  0  0
    1.4692   -4.5887    0.0000 C   0  0  0  0  0  0  0  0  0  0  0  0
    2.8950   -7.0583    0.0000 O   0  0  0  0  0  0  0  0  0  0  0  0
    1.4692   -6.2351    0.0000 O   0  0  0  0  0  0  0  0  0  0  0  0
    4.3208   -6.2351    0.0000 O   0  0  0  0  0  0  0  0  0  0  0  0
    0.7563   -5.0003    0.0000 O   0  0  0  0  0  0  0  0  0  0  0  0
 17  1  1  6  0  0  0
 16  2  1  6  0  0  0
 43 30  1  6  0  0  0
 13 26  1  6  0  0  0
 15 11  1  6  0  0  0
  8  3  1  0  0  0  0
  9  5  1  0  0  0  0
  5  4  1  0  0  0  0
 11  6  2  0  0  0  0
  7  6  1  0  0  0  0
  8  7  2  0  0  0  0
  9  8  1  0  0  0  0
 10  9  2  0  0  0  0
 11 10  1  0  0  0  0
 12 16  1  0  0  0  0
 13 17  1  0  0  0  0
 14 12  1  0  0  0  0
 14 13  1  0  0  0  0
 19 15  1  0  0  0  0
 16 15  1  0  0  0  0
 17 16  1  0  0  0  0
 18 17  1  0  0  0  0
 19 18  1  0  0  0  0
 28 21  1  0  0  0  0
 21 20  1  0  0  0  0
 24 23  1  0  0  0  0
 23 22  1  0  0  0  0
 30 29  1  0  0  0  0
 29 24  2  0  0  0  0
 25 24  1  0  0  0  0
 26 25  2  0  0  0  0
 27 26  1  0  0  0  0
 28 27  2  0  0  0  0
 29 28  1  0  0  0  0
 44 39  1  0  0  0  0
 36 31  1  0  0  0  0
 37 33  1  0  0  0  0
 33 32  1  0  0  0  0
 39 34  2  0  0  0  0
 35 34  1  0  0  0  0
 36 35  2  0  0  0  0
 37 36  1  0  0  0  0
 38 37  2  0  0  0  0
 39 38  1  0  0  0  0
 42 40  1  0  0  0  0
 44 41  1  6  0  0  0
 43 42  1  0  0  0  0
 44 43  1  0  0  0  0
 45 46  1  0  0  0  0
 46 47  1  0  0  0  0
 47 48  1  0  0  0  0
 48 49  1  0  0  0  0
 49 50  1  0  0  0  0
 50 45  1  0  0  0  0
 45 51  1  1  0  0  0
 47 52  1  1  0  0  0
 46 53  1  6  0  0  0
 48 54  1  6  0  0  0
 51 55  1  0  0  0  0
 56 57  1  0  0  0  0
 57 58  1  0  0  0  0
 58 59  1  0  0  0  0
 59 60  1  0  0  0  0
 60 61  1  0  0  0  0
 61 56  1  0  0  0  0
 56 62  1  1  0  0  0
 58 63  1  1  0  0  0
 57 64  1  6  0  0  0
 59 65  1  6  0  0  0
 62 66  1  0  0  0  0
 60 31  1  1  0  0  0
 49  3  1  1  0  0  0
M  END
>  <cdx:fragmentId>
71

$$$$
