94016.cdx
  Mrv1902 05222410252D          

 58 63  0  0  0  0            999 V2000
   16.2317   -6.9757    0.0000 O   0  0  0  0  0  0  0  0  0  0  0  0
   16.2195   -6.1508    0.0000 C   0  0  0  0  0  0  0  0  0  0  0  0
   15.4991   -5.7489    0.0000 C   0  0  1  0  0  0  0  0  0  0  0  0
   14.7907   -6.1718    0.0000 C   0  0  1  0  0  0  0  0  0  0  0  0
   14.8029   -6.9968    0.0000 C   0  0  2  0  0  0  0  0  0  0  0  0
   15.5234   -7.3987    0.0000 C   0  0  2  0  0  0  0  0  0  0  0  0
   14.0946   -7.4197    0.0000 O   0  0  0  0  0  0  0  0  0  0  0  0
   14.0703   -5.7699    0.0000 O   0  0  0  0  0  0  0  0  0  0  0  0
   15.4869   -4.9240    0.0000 O   0  0  0  0  0  0  0  0  0  0  0  0
   15.5511   -8.2232    0.0000 O   0  0  0  0  0  0  0  0  0  0  0  0
   16.1179   -8.8072    0.0000 C   0  0  2  0  0  0  0  0  0  0  0  0
   12.2204  -10.6718    0.0000 C   0  0  0  0  0  0  0  0  0  0  0  0
   11.5060  -11.0843    0.0000 C   0  0  0  0  0  0  0  0  0  0  0  0
   11.5060  -11.9093    0.0000 C   0  0  1  0  0  0  0  0  0  0  0  0
   12.2204  -12.3218    0.0000 C   0  0  0  0  0  0  0  0  0  0  0  0
   12.9349  -11.9093    0.0000 C   0  0  2  0  0  0  0  0  0  0  0  0
   13.6494  -12.3218    0.0000 C   0  0  2  0  0  0  0  0  0  0  0  0
   14.3638  -11.9093    0.0000 C   0  0  0  0  0  0  0  0  0  0  0  0
   14.3638  -11.0843    0.0000 C   0  0  1  0  0  0  0  0  0  0  0  0
   15.0783  -10.6718    0.0000 C   0  0  2  0  0  0  0  0  0  0  0  0
   15.8629  -10.9267    0.0000 C   0  0  0  0  0  0  0  0  0  0  0  0
   16.3479  -10.2593    0.0000 C   0  0  0  0  0  0  0  0  0  0  0  0
   15.8629   -9.5919    0.0000 C   0  0  1  0  0  0  0  0  0  0  0  0
   15.0783   -9.8468    0.0000 C   0  0  1  0  0  0  0  0  0  0  0  0
   14.3638   -9.4343    0.0000 C   0  0  1  0  0  0  0  0  0  0  0  0
   13.6494   -9.8468    0.0000 C   0  0  0  0  0  0  0  0  0  0  0  0
   13.6494  -10.6718    0.0000 C   0  0  2  0  0  0  0  0  0  0  0  0
   12.9349  -11.0843    0.0000 C   0  0  1  0  0  0  0  0  0  0  0  0
   15.0783  -11.4968    0.0000 C   0  0  0  0  0  0  0  0  0  0  0  0
   12.9349  -10.2593    0.0000 C   0  0  0  0  0  0  0  0  0  0  0  0
   14.3638  -10.2593    0.0000 C   0  0  0  0  0  0  0  0  0  0  0  0
   12.6329  -13.0363    0.0000 C   0  0  0  0  0  0  0  0  0  0  0  0
   11.8079  -13.0363    0.0000 C   0  0  0  0  0  0  0  0  0  0  0  0
   14.3638   -8.6093    0.0000 O   0  0  0  0  0  0  0  0  0  0  0  0
   10.7915  -12.3218    0.0000 O   0  0  0  0  0  0  0  0  0  0  0  0
   12.9349  -12.7343    0.0000 H   0  0  0  0  0  0  0  0  0  0  0  0
   13.6494  -11.4968    0.0000 H   0  0  0  0  0  0  0  0  0  0  0  0
   15.1646   -9.0263    0.0000 H   0  0  0  0  0  0  0  0  0  0  0  0
   16.6778   -9.4628    0.0000 H   0  0  0  0  0  0  0  0  0  0  0  0
   16.9249   -8.6357    0.0000 C   0  0  0  0  0  0  0  0  0  0  0  0
   17.4769   -9.2488    0.0000 C   0  0  0  0  0  0  0  0  0  0  0  0
   18.2839   -9.0773    0.0000 C   0  0  0  0  0  0  0  0  0  0  0  0
   18.8359   -9.6904    0.0000 C   0  0  0  0  0  0  0  0  0  0  0  0
   19.6429   -9.5189    0.0000 C   0  0  0  0  0  0  0  0  0  0  0  0
   18.5810  -10.4750    0.0000 C   0  0  0  0  0  0  0  0  0  0  0  0
   16.3728   -8.0226    0.0000 C   0  0  0  0  0  0  0  0  0  0  0  0
   13.6494  -13.1468    0.0000 O   0  0  0  0  0  0  0  0  0  0  0  0
   13.2368  -13.8613    0.0000 C   0  0  2  0  0  0  0  0  0  0  0  0
   12.4118  -13.8612    0.0000 O   0  0  0  0  0  0  0  0  0  0  0  0
   11.9993  -14.5756    0.0000 C   0  0  1  0  0  0  0  0  0  0  0  0
   12.4117  -15.2901    0.0000 C   0  0  2  0  0  0  0  0  0  0  0  0
   13.2367  -15.2902    0.0000 C   0  0  1  0  0  0  0  0  0  0  0  0
   13.6493  -14.5758    0.0000 C   0  0  1  0  0  0  0  0  0  0  0  0
   11.1743  -14.5756    0.0000 C   0  0  0  0  0  0  0  0  0  0  0  0
   13.6492  -16.0047    0.0000 O   0  0  0  0  0  0  0  0  0  0  0  0
   11.9992  -16.0046    0.0000 O   0  0  0  0  0  0  0  0  0  0  0  0
   14.4743  -14.5758    0.0000 O   0  0  0  0  0  0  0  0  0  0  0  0
   10.7617  -15.2900    0.0000 O   0  0  0  0  0  0  0  0  0  0  0  0
  1  2  1  0  0  0  0
  2  3  1  0  0  0  0
  3  4  1  0  0  0  0
  4  5  1  0  0  0  0
  5  6  1  0  0  0  0
  1  6  1  0  0  0  0
  5  7  1  6  0  0  0
  4  8  1  1  0  0  0
  3  9  1  1  0  0  0
 12 13  1  0  0  0  0
 13 14  1  0  0  0  0
 14 15  1  0  0  0  0
 15 16  1  0  0  0  0
 16 17  1  0  0  0  0
 17 18  1  0  0  0  0
 18 19  1  0  0  0  0
 19 20  1  0  0  0  0
 20 21  1  0  0  0  0
 21 22  1  0  0  0  0
 23 22  1  0  0  0  0
 23 24  1  0  0  0  0
 20 24  1  0  0  0  0
 24 25  1  0  0  0  0
 25 26  1  0  0  0  0
 26 27  1  0  0  0  0
 19 27  1  0  0  0  0
 27 28  1  0  0  0  0
 16 28  1  0  0  0  0
 12 28  1  0  0  0  0
 20 29  1  6  0  0  0
 28 30  1  1  0  0  0
 19 31  1  1  0  0  0
 15 32  1  0  0  0  0
 15 33  1  0  0  0  0
 25 34  1  1  0  0  0
 14 35  1  1  0  0  0
 11 23  1  0  0  0  0
  6 10  1  1  0  0  0
 16 36  1  6  0  0  0
 27 37  1  6  0  0  0
 24 38  1  1  0  0  0
 23 39  1  6  0  0  0
 11 40  1  0  0  0  0
 40 41  1  0  0  0  0
 41 42  1  0  0  0  0
 42 43  2  0  0  0  0
 43 44  1  0  0  0  0
 43 45  1  0  0  0  0
 11 46  1  6  0  0  0
 11 10  1  1  0  0  0
 17 47  1  6  0  0  0
 48 47  1  1  0  0  0
 48 49  1  0  0  0  0
 49 50  1  0  0  0  0
 50 51  1  0  0  0  0
 51 52  1  0  0  0  0
 52 53  1  0  0  0  0
 53 48  1  0  0  0  0
 50 54  1  1  0  0  0
 52 55  1  1  0  0  0
 51 56  1  6  0  0  0
 53 57  1  6  0  0  0
 54 58  1  0  0  0  0
M  END
>  <cdx:fragmentId>
31943

$$$$
