94010.cdx
  Mrv1902 05222410242D          

 25 25  0  0  0  0            999 V2000
    2.4175   -7.7138    0.0000 C   0  0  0  0  0  0  0  0  0  0  0  0
    3.1320   -7.3012    0.0000 C   0  0  0  0  0  0  0  0  0  0  0  0
    3.8465   -6.8888    0.0000 C   0  0  0  0  0  0  0  0  0  0  0  0
    4.5609   -6.4763    0.0000 C   0  0  0  0  0  0  0  0  0  0  0  0
    5.2754   -6.0638    0.0000 C   0  0  0  0  0  0  0  0  0  0  0  0
    5.9899   -5.6512    0.0000 C   0  0  0  0  0  0  0  0  0  0  0  0
    6.7044   -5.2387    0.0000 C   0  0  0  0  0  0  0  0  0  0  0  0
    7.4188   -4.8263    0.0000 C   0  0  0  0  0  0  0  0  0  0  0  0
    8.1333   -5.2387    0.0000 C   0  0  1  0  0  0  0  0  0  0  0  0
    8.8478   -4.8263    0.0000 C   0  0  0  0  0  0  0  0  0  0  0  0
    9.5622   -5.2387    0.0000 C   0  0  0  0  0  0  0  0  0  0  0  0
    8.1333   -6.1463    0.0000 O   0  0  0  0  0  0  0  0  0  0  0  0
    7.5499   -6.7296    0.0000 C   0  0  2  0  0  0  0  0  0  0  0  0
    6.7530   -6.5161    0.0000 O   0  0  0  0  0  0  0  0  0  0  0  0
    6.1697   -7.0995    0.0000 C   0  0  1  0  0  0  0  0  0  0  0  0
    6.3832   -7.8963    0.0000 C   0  0  2  0  0  0  0  0  0  0  0  0
    7.1801   -8.1099    0.0000 C   0  0  1  0  0  0  0  0  0  0  0  0
    7.7635   -7.5265    0.0000 C   0  0  1  0  0  0  0  0  0  0  0  0
    5.3728   -6.8859    0.0000 C   0  0  0  0  0  0  0  0  0  0  0  0
    7.3936   -8.9068    0.0000 O   0  0  0  0  0  0  0  0  0  0  0  0
    5.7998   -8.4797    0.0000 O   0  0  0  0  0  0  0  0  0  0  0  0
    8.5603   -7.7400    0.0000 O   0  0  0  0  0  0  0  0  0  0  0  0
    4.7894   -7.4693    0.0000 O   0  0  0  0  0  0  0  0  0  0  0  0
   10.2767   -4.8262    0.0000 O   0  0  0  0  0  0  0  0  0  0  0  0
    9.5622   -6.0637    0.0000 O   0  0  0  0  0  0  0  0  0  0  0  0
  1  2  1  0  0  0  0
  2  3  3  0  0  0  0
  3  4  1  0  0  0  0
  4  5  3  0  0  0  0
  5  6  1  0  0  0  0
  6  7  3  0  0  0  0
  7  8  1  0  0  0  0
  8  9  1  0  0  0  0
  9 10  1  0  0  0  0
 10 11  1  0  0  0  0
  9 12  1  1  0  0  0
 13 12  1  1  0  0  0
 13 14  1  0  0  0  0
 14 15  1  0  0  0  0
 15 16  1  0  0  0  0
 16 17  1  0  0  0  0
 17 18  1  0  0  0  0
 18 13  1  0  0  0  0
 15 19  1  1  0  0  0
 17 20  1  1  0  0  0
 16 21  1  6  0  0  0
 18 22  1  6  0  0  0
 19 23  1  0  0  0  0
 11 24  2  0  0  0  0
 11 25  1  0  0  0  0
M  END
>  <cdx:fragmentId>
7

$$$$
