94012.cdx
  Mrv1902 05222410232D          

 43 45  0  0  0  0            999 V2000
    5.4843   -7.2600    0.0000 C   0  0  0  0  0  0  0  0  0  0  0  0
    5.4843   -8.0850    0.0000 C   0  0  0  0  0  0  0  0  0  0  0  0
    6.1988   -8.4975    0.0000 C   0  0  0  0  0  0  0  0  0  0  0  0
    6.9132   -8.0850    0.0000 C   0  0  0  0  0  0  0  0  0  0  0  0
    6.9132   -7.2600    0.0000 C   0  0  0  0  0  0  0  0  0  0  0  0
    6.1988   -6.8475    0.0000 C   0  0  0  0  0  0  0  0  0  0  0  0
    6.1988   -6.0225    0.0000 C   0  0  0  0  0  0  0  0  0  0  0  0
    5.4843   -5.6100    0.0000 O   0  0  0  0  0  0  0  0  0  0  0  0
    6.9132   -5.6100    0.0000 O   0  0  0  0  0  0  0  0  0  0  0  0
    6.9132   -6.4350    0.0000 O   0  0  0  0  0  0  0  0  0  0  0  0
    4.7698   -8.4975    0.0000 O   0  0  0  0  0  0  0  0  0  0  0  0
    6.1988   -9.3225    0.0000 O   0  0  0  0  0  0  0  0  0  0  0  0
    7.6277   -8.4975    0.0000 O   0  0  0  0  0  0  0  0  0  0  0  0
    7.6802   -3.5471    0.0000 C   0  0  0  0  0  0  0  0  0  0  0  0
    6.9662   -3.9602    0.0000 C   0  0  0  0  0  0  0  0  0  0  0  0
    6.9669   -4.7852    0.0000 C   0  0  0  0  0  0  0  0  0  0  0  0
    7.6818   -5.1971    0.0000 C   0  0  0  0  0  0  0  0  0  0  0  0
    8.3959   -4.7839    0.0000 C   0  0  0  0  0  0  0  0  0  0  0  0
    8.3951   -3.9589    0.0000 C   0  0  0  0  0  0  0  0  0  0  0  0
    7.6795   -2.7221    0.0000 O   0  0  0  0  0  0  0  0  0  0  0  0
    6.2513   -3.5484    0.0000 O   0  0  0  0  0  0  0  0  0  0  0  0
    9.1107   -5.1957    0.0000 C   0  0  0  0  0  0  0  0  0  0  0  0
    9.1115   -6.0207    0.0000 C   0  0  0  0  0  0  0  0  0  0  0  0
    8.3974   -6.4339    0.0000 C   0  0  0  0  0  0  0  0  0  0  0  0
    8.3982   -7.2589    0.0000 O   0  0  0  0  0  0  0  0  0  0  0  0
    4.1090  -13.0629    0.0000 C   0  0  0  0  0  0  0  0  0  0  0  0
    4.8289  -13.4660    0.0000 C   0  0  0  0  0  0  0  0  0  0  0  0
    5.5379  -13.0441    0.0000 C   0  0  0  0  0  0  0  0  0  0  0  0
    5.5270  -12.2191    0.0000 C   0  0  0  0  0  0  0  0  0  0  0  0
    4.8071  -11.8161    0.0000 C   0  0  0  0  0  0  0  0  0  0  0  0
    4.0982  -12.2380    0.0000 C   0  0  0  0  0  0  0  0  0  0  0  0
    3.4001  -13.4848    0.0000 O   0  0  0  0  0  0  0  0  0  0  0  0
    4.8398  -14.2909    0.0000 O   0  0  0  0  0  0  0  0  0  0  0  0
    4.7962  -10.9912    0.0000 C   0  0  0  0  0  0  0  0  0  0  0  0
    5.5052  -10.5693    0.0000 C   0  0  0  0  0  0  0  0  0  0  0  0
    5.4943   -9.7444    0.0000 C   0  0  0  0  0  0  0  0  0  0  0  0
    4.7744   -9.3413    0.0000 O   0  0  0  0  0  0  0  0  0  0  0  0
   10.4722   -8.4804    0.0000 O   0  0  0  0  0  0  0  0  0  0  0  0
    9.7598   -8.8964    0.0000 C   0  0  0  0  0  0  0  0  0  0  0  0
    9.0433   -8.4873    0.0000 C   0  0  0  0  0  0  0  0  0  0  0  0
    8.3308   -8.9033    0.0000 C   0  0  0  0  0  0  0  0  0  0  0  0
    8.3348   -9.7283    0.0000 O   0  0  0  0  0  0  0  0  0  0  0  0
    9.7637   -9.7214    0.0000 O   0  0  0  0  0  0  0  0  0  0  0  0
  1  2  1  0  0  0  0
  2  3  1  0  0  0  0
  3  4  1  0  0  0  0
  4  5  1  0  0  0  0
  5  6  1  0  0  0  0
  6  1  1  0  0  0  0
  6  7  1  0  0  0  0
  7  8  1  0  0  0  0
  7  9  2  0  0  0  0
  6 10  1  0  0  0  0
  2 11  1  0  0  0  0
  3 12  1  0  0  0  0
  4 13  1  0  0  0  0
 14 15  2  0  0  0  0
 15 16  1  0  0  0  0
 16 17  2  0  0  0  0
 17 18  1  0  0  0  0
 18 19  2  0  0  0  0
 19 14  1  0  0  0  0
 14 20  1  0  0  0  0
 15 21  1  0  0  0  0
 18 22  1  0  0  0  0
 22 23  2  0  0  0  0
 23 24  1  0  0  0  0
 24 25  2  0  0  0  0
 24 10  1  0  0  0  0
 26 27  2  0  0  0  0
 27 28  1  0  0  0  0
 28 29  2  0  0  0  0
 29 30  1  0  0  0  0
 30 31  2  0  0  0  0
 31 26  1  0  0  0  0
 26 32  1  0  0  0  0
 27 33  1  0  0  0  0
 30 34  1  0  0  0  0
 34 35  2  0  0  0  0
 35 36  1  0  0  0  0
 36 37  2  0  0  0  0
 36 12  1  0  0  0  0
 39 38  1  0  0  0  0
 40 39  1  0  0  0  0
 41 40  1  0  0  0  0
 41 42  2  0  0  0  0
 39 43  2  0  0  0  0
 41 13  1  0  0  0  0
M  END
>  <cdx:fragmentId>
5

$$$$
