9401.cdx
  Mrv1902 05222410262D          

 16 19  0  0  0  0            999 V2000
    8.2674   -9.1305    0.0000 C   0  0  0  0  0  0  0  0  0  0  0  0
    8.9818   -8.7180    0.0000 C   0  0  0  0  0  0  0  0  0  0  0  0
    8.9818   -7.8930    0.0000 C   0  0  0  0  0  0  0  0  0  0  0  0
    8.2674   -7.4805    0.0000 C   0  0  0  0  0  0  0  0  0  0  0  0
    7.5529   -7.8930    0.0000 C   0  0  0  0  0  0  0  0  0  0  0  0
    6.8384   -7.4805    0.0000 C   0  0  0  0  0  0  0  0  0  0  0  0
    6.1239   -7.8930    0.0000 C   0  0  0  0  0  0  0  0  0  0  0  0
    6.1239   -8.7180    0.0000 C   0  0  0  0  0  0  0  0  0  0  0  0
    5.4095   -9.1305    0.0000 C   0  0  0  0  0  0  0  0  0  0  0  0
    5.4095   -9.9555    0.0000 C   0  0  0  0  0  0  0  0  0  0  0  0
    6.1239  -10.3680    0.0000 C   0  0  0  0  0  0  0  0  0  0  0  0
    6.8384   -9.9555    0.0000 C   0  0  0  0  0  0  0  0  0  0  0  0
    6.8384   -9.1305    0.0000 C   0  0  0  0  0  0  0  0  0  0  0  0
    7.5529   -8.7180    0.0000 C   0  0  0  0  0  0  0  0  0  0  0  0
    7.8237  -10.0156    0.0000 C   0  0  0  0  0  0  0  0  0  0  0  0
    8.2674   -6.6555    0.0000 O   0  0  0  0  0  0  0  0  0  0  0  0
  1  2  1  0  0  0  0
  2  3  2  0  0  0  0
  3  4  1  0  0  0  0
  4  5  1  0  0  0  0
  5  6  1  0  0  0  0
  6  7  2  0  0  0  0
  7  8  1  0  0  0  0
  8  9  1  0  0  0  0
  9 10  2  0  0  0  0
 10 11  1  0  0  0  0
 11 12  2  0  0  0  0
 12 13  1  0  0  0  0
 13 14  1  0  0  0  0
  1 14  1  0  0  0  0
  1 15  2  0  0  0  0
 15 12  1  0  0  0  0
  5 14  2  0  0  0  0
  8 13  2  0  0  0  0
  4 16  2  0  0  0  0
M  END
>  <cdx:fragmentId>
5

$$$$
