94018.cdx
  Mrv1902 05222410212D          

 25 25  0  0  0  0            999 V2000
    5.4078   -8.5396    0.0000 C   0  0  0  0  0  0  0  0  0  0  0  0
    6.1223   -8.1271    0.0000 C   0  0  2  0  0  0  0  0  0  0  0  0
    6.8368   -8.5396    0.0000 C   0  0  2  0  0  0  0  0  0  0  0  0
    7.5512   -8.1271    0.0000 C   0  0  1  0  0  0  0  0  0  0  0  0
    8.2657   -8.5396    0.0000 C   0  0  2  0  0  0  0  0  0  0  0  0
    8.9802   -8.1271    0.0000 C   0  0  0  0  0  0  0  0  0  0  0  0
    5.4078   -9.3646    0.0000 O   0  0  0  0  0  0  0  0  0  0  0  0
    4.6934   -8.1271    0.0000 O   0  0  0  0  0  0  0  0  0  0  0  0
    8.9802   -7.3021    0.0000 O   0  0  0  0  0  0  0  0  0  0  0  0
    9.6946   -8.5396    0.0000 O   0  0  0  0  0  0  0  0  0  0  0  0
    8.2657   -9.3646    0.0000 O   0  0  0  0  0  0  0  0  0  0  0  0
    7.5512   -7.3021    0.0000 O   0  0  0  0  0  0  0  0  0  0  0  0
    6.8368   -9.3646    0.0000 O   0  0  0  0  0  0  0  0  0  0  0  0
    6.1223   -7.3021    0.0000 O   0  0  0  0  0  0  0  0  0  0  0  0
    5.4078   -6.8896    0.0000 C   0  0  0  0  0  0  0  0  0  0  0  0
    5.4078   -6.0646    0.0000 O   0  0  0  0  0  0  0  0  0  0  0  0
    4.6934   -7.3021    0.0000 C   0  0  0  0  0  0  0  0  0  0  0  0
    3.9789   -3.5896    0.0000 O   0  0  0  0  0  0  0  0  0  0  0  0
    4.6934   -5.6521    0.0000 C   0  0  0  0  0  0  0  0  0  0  0  0
    4.6934   -4.8271    0.0000 C   0  0  0  0  0  0  0  0  0  0  0  0
    3.9789   -4.4146    0.0000 C   0  0  0  0  0  0  0  0  0  0  0  0
    3.2644   -4.8271    0.0000 C   0  0  0  0  0  0  0  0  0  0  0  0
    3.2644   -5.6521    0.0000 C   0  0  0  0  0  0  0  0  0  0  0  0
    3.9789   -6.0646    0.0000 C   0  0  0  0  0  0  0  0  0  0  0  0
    3.9789   -6.8896    0.0000 C   0  0  0  0  0  0  0  0  0  0  0  0
  1  2  1  0  0  0  0
  2  3  1  0  0  0  0
  3  4  1  0  0  0  0
  4  5  1  0  0  0  0
  5  6  1  0  0  0  0
  1  7  2  0  0  0  0
  1  8  1  0  0  0  0
  6  9  2  0  0  0  0
  6 10  1  0  0  0  0
  5 11  1  6  0  0  0
  4 12  1  6  0  0  0
  3 13  1  6  0  0  0
  2 14  1  1  0  0  0
 14 15  1  0  0  0  0
 15 16  2  0  0  0  0
 15 17  1  0  0  0  0
 17 25  2  0  0  0  0
 21 18  1  0  0  0  0
 19 24  1  0  0  0  0
 20 19  2  0  0  0  0
 21 20  1  0  0  0  0
 22 21  2  0  0  0  0
 23 22  1  0  0  0  0
 24 23  2  0  0  0  0
 25 24  1  0  0  0  0
M  END
>  <cdx:groupId>
43

>  <cdx:fragmentId>
5

$$$$
