940270.cdx
  Mrv1902 05222410242D          

 47 50  0  0  0  0            999 V2000
    2.1981   -7.5488    0.0000 C   0  0  0  0  0  0  0  0  0  0  0  0
    2.1981   -8.3737    0.0000 C   0  0  0  0  0  0  0  0  0  0  0  0
    2.9125   -8.7862    0.0000 C   0  0  0  0  0  0  0  0  0  0  0  0
    3.6270   -8.3737    0.0000 C   0  0  0  0  0  0  0  0  0  0  0  0
    3.6270   -7.5488    0.0000 C   0  0  0  0  0  0  0  0  0  0  0  0
    2.9125   -7.1362    0.0000 C   0  0  0  0  0  0  0  0  0  0  0  0
    4.3415   -8.7862    0.0000 C   0  0  0  0  0  0  0  0  0  0  0  0
    5.0559   -8.3737    0.0000 C   0  0  0  0  0  0  0  0  0  0  0  0
    5.0559   -7.5488    0.0000 C   0  0  0  0  0  0  0  0  0  0  0  0
    4.3415   -7.1362    0.0000 C   0  0  0  0  0  0  0  0  0  0  0  0
    5.7704   -8.7862    0.0000 C   0  0  2  0  0  0  0  0  0  0  0  0
    6.4849   -8.3737    0.0000 C   0  0  0  0  0  0  0  0  0  0  0  0
    6.4849   -7.5488    0.0000 C   0  0  0  0  0  0  0  0  0  0  0  0
    7.1994   -8.7862    0.0000 C   0  0  0  0  0  0  0  0  0  0  0  0
    7.9138   -8.3737    0.0000 C   0  0  0  0  0  0  0  0  0  0  0  0
    7.9138   -7.5488    0.0000 C   0  0  0  0  0  0  0  0  0  0  0  0
    7.1994   -7.1362    0.0000 C   0  0  0  0  0  0  0  0  0  0  0  0
    8.6283   -8.7862    0.0000 C   0  0  0  0  0  0  0  0  0  0  0  0
    9.3428   -8.3737    0.0000 C   0  0  0  0  0  0  0  0  0  0  0  0
    9.3428   -7.5488    0.0000 C   0  0  0  0  0  0  0  0  0  0  0  0
    8.6283   -7.1362    0.0000 C   0  0  0  0  0  0  0  0  0  0  0  0
   10.0572   -8.7862    0.0000 C   0  0  1  0  0  0  0  0  0  0  0  0
   10.7717   -8.3737    0.0000 C   0  0  0  0  0  0  0  0  0  0  0  0
   11.4862   -8.7862    0.0000 C   0  0  0  0  0  0  0  0  0  0  0  0
   12.2006   -8.3737    0.0000 C   0  0  0  0  0  0  0  0  0  0  0  0
   12.2006   -7.5488    0.0000 C   0  0  0  0  0  0  0  0  0  0  0  0
   12.9151   -8.7862    0.0000 C   0  0  0  0  0  0  0  0  0  0  0  0
    2.9125   -6.3113    0.0000 O   0  0  0  0  0  0  0  0  0  0  0  0
    2.9125   -9.6112    0.0000 O   0  0  0  0  0  0  0  0  0  0  0  0
    4.3415   -6.3113    0.0000 O   0  0  0  0  0  0  0  0  0  0  0  0
    4.3415   -9.6112    0.0000 O   0  0  0  0  0  0  0  0  0  0  0  0
    5.7704   -9.6112    0.0000 C   0  0  0  0  0  0  0  0  0  0  0  0
    6.4849  -10.0238    0.0000 C   0  0  0  0  0  0  0  0  0  0  0  0
    6.4849  -10.8488    0.0000 C   0  0  0  0  0  0  0  0  0  0  0  0
    7.1994  -11.2613    0.0000 C   0  0  0  0  0  0  0  0  0  0  0  0
    5.7704  -11.2613    0.0000 C   0  0  0  0  0  0  0  0  0  0  0  0
    7.1994   -6.3113    0.0000 O   0  0  0  0  0  0  0  0  0  0  0  0
    7.1994   -9.6112    0.0000 O   0  0  0  0  0  0  0  0  0  0  0  0
    8.6283   -6.3113    0.0000 O   0  0  0  0  0  0  0  0  0  0  0  0
    8.6283   -9.6112    0.0000 O   0  0  0  0  0  0  0  0  0  0  0  0
   10.0572   -9.6112    0.0000 O   0  0  0  0  0  0  0  0  0  0  0  0
   10.7717  -10.0237    0.0000 C   0  0  0  0  0  0  0  0  0  0  0  0
   11.4862   -9.6112    0.0000 C   0  0  0  0  0  0  0  0  0  0  0  0
   10.7717  -10.8487    0.0000 O   0  0  0  0  0  0  0  0  0  0  0  0
   12.2006  -10.0238    0.0000 C   0  0  0  0  0  0  0  0  0  0  0  0
   12.9151   -9.6112    0.0000 C   0  0  0  0  0  0  0  0  0  0  0  0
   12.2006  -10.8487    0.0000 C   0  0  0  0  0  0  0  0  0  0  0  0
  1  2  1  0  0  0  0
  2  3  2  0  0  0  0
  3  4  1  0  0  0  0
  4  5  2  0  0  0  0
  5  6  1  0  0  0  0
  6  1  2  0  0  0  0
  4  7  1  0  0  0  0
  7  8  1  0  0  0  0
  8  9  2  0  0  0  0
  9 10  1  0  0  0  0
 10  5  1  0  0  0  0
  8 11  1  0  0  0  0
 11 12  1  6  0  0  0
 12 13  1  0  0  0  0
 12 14  2  0  0  0  0
 14 15  1  0  0  0  0
 15 16  2  0  0  0  0
 16 17  1  0  0  0  0
 17 13  2  0  0  0  0
 15 18  1  0  0  0  0
 18 19  1  0  0  0  0
 19 20  2  0  0  0  0
 20 21  1  0  0  0  0
 21 16  1  0  0  0  0
 19 22  1  0  0  0  0
 22 23  1  0  0  0  0
 23 24  1  0  0  0  0
 24 25  2  0  0  0  0
 25 26  1  0  0  0  0
 25 27  1  0  0  0  0
  6 28  1  0  0  0  0
  3 29  1  0  0  0  0
 10 30  2  0  0  0  0
  7 31  2  0  0  0  0
 11 32  1  0  0  0  0
 32 33  1  0  0  0  0
 33 34  2  0  0  0  0
 34 35  1  0  0  0  0
 34 36  1  0  0  0  0
 17 37  1  0  0  0  0
 14 38  1  0  0  0  0
 21 39  2  0  0  0  0
 18 40  2  0  0  0  0
 22 41  1  1  0  0  0
 41 42  1  0  0  0  0
 42 43  1  0  0  0  0
 42 44  2  0  0  0  0
 43 45  2  0  0  0  0
 45 46  1  0  0  0  0
 45 47  1  0  0  0  0
M  END
>  <cdx:fragmentId>
5

$$$$
