94023.cdx
  Mrv1902 05222410232D          

 26 27  0  0  0  0            999 V2000
    8.7741   -5.9897    0.0000 O   0  0  0  0  0  0  0  0  0  0  0  0
    5.9162   -5.9897    0.0000 O   0  0  0  0  0  0  0  0  0  0  0  0
    7.3451  -10.1147    0.0000 O   0  0  0  0  0  0  0  0  0  0  0  0
    5.9162  -10.9397    0.0000 O   0  0  0  0  0  0  0  0  0  0  0  0
    4.4873  -10.1147    0.0000 O   0  0  0  0  0  0  0  0  0  0  0  0
    3.7728   -8.8772    0.0000 O   0  0  0  0  0  0  0  0  0  0  0  0
    4.4873   -8.4647    0.0000 C   0  0  0  0  0  0  0  0  0  0  0  0
    5.2017   -8.8772    0.0000 C   0  0  2  0  0  0  0  0  0  0  0  0
    5.2017   -9.7022    0.0000 C   0  0  2  0  0  0  0  0  0  0  0  0
    5.9162  -10.1147    0.0000 C   0  0  1  0  0  0  0  0  0  0  0  0
    6.6307   -9.7022    0.0000 C   0  0  2  0  0  0  0  0  0  0  0  0
    6.6307   -8.8772    0.0000 C   0  0  1  0  0  0  0  0  0  0  0  0
    5.9162   -8.4647    0.0000 O   0  0  0  0  0  0  0  0  0  0  0  0
    7.3451   -8.4647    0.0000 O   0  0  0  0  0  0  0  0  0  0  0  0
    7.3451   -7.6397    0.0000 C   0  0  0  0  0  0  0  0  0  0  0  0
    6.6307   -7.2272    0.0000 C   0  0  0  0  0  0  0  0  0  0  0  0
    6.6307   -6.4022    0.0000 C   0  0  0  0  0  0  0  0  0  0  0  0
    7.3451   -5.9897    0.0000 C   0  0  0  0  0  0  0  0  0  0  0  0
    8.0596   -6.4022    0.0000 C   0  0  0  0  0  0  0  0  0  0  0  0
    8.0596   -7.2272    0.0000 C   0  0  0  0  0  0  0  0  0  0  0  0
    9.4885   -6.4022    0.0000 C   0  0  0  0  0  0  0  0  0  0  0  0
    8.7741   -8.4647    0.0000 O   0  0  0  0  0  0  0  0  0  0  0  0
   10.2030   -7.6397    0.0000 C   0  0  0  0  0  0  0  0  0  0  0  0
    9.4885   -7.2272    0.0000 C   0  0  0  0  0  0  0  0  0  0  0  0
    8.7741   -7.6397    0.0000 C   0  0  0  0  0  0  0  0  0  0  0  0
   10.9175   -7.2272    0.0000 C   0  0  0  0  0  0  0  0  0  0  0  0
 25 20  1  0  0  0  0
 19  1  1  0  0  0  0
 17  2  1  0  0  0  0
 15 14  1  0  0  0  0
 12 14  1  1  0  0  0
 11  3  1  6  0  0  0
 10  4  1  1  0  0  0
  9  5  1  6  0  0  0
  8  7  1  1  0  0  0
  7  6  1  0  0  0  0
 13  8  1  0  0  0  0
  9  8  1  0  0  0  0
 10  9  1  0  0  0  0
 11 10  1  0  0  0  0
 12 11  1  0  0  0  0
 13 12  1  0  0  0  0
 20 15  2  0  0  0  0
 16 15  1  0  0  0  0
 17 16  2  0  0  0  0
 18 17  1  0  0  0  0
 19 18  2  0  0  0  0
 20 19  1  0  0  0  0
 24 21  1  0  0  0  0
 25 22  2  0  0  0  0
 24 23  1  0  0  0  0
 25 24  1  0  0  0  0
 23 26  1  0  0  0  0
M  END
>  <cdx:fragmentId>
31

$$$$
