94025.cdx
  Mrv1902 05222410212D          

 28 29  0  0  0  0            999 V2000
    3.1881   -7.3425    0.0000 C   0  0  0  0  0  0  0  0  0  0  0  0
    3.1881   -8.1675    0.0000 C   0  0  0  0  0  0  0  0  0  0  0  0
    3.9025   -8.5800    0.0000 C   0  0  0  0  0  0  0  0  0  0  0  0
    4.6170   -8.1675    0.0000 C   0  0  0  0  0  0  0  0  0  0  0  0
    4.6170   -7.3425    0.0000 C   0  0  0  0  0  0  0  0  0  0  0  0
    3.9025   -6.9300    0.0000 C   0  0  0  0  0  0  0  0  0  0  0  0
    5.3315   -8.5800    0.0000 C   0  0  0  0  0  0  0  0  0  0  0  0
    6.0459   -8.1675    0.0000 C   0  0  0  0  0  0  0  0  0  0  0  0
    6.0459   -7.3425    0.0000 C   0  0  0  0  0  0  0  0  0  0  0  0
    5.3315   -6.9300    0.0000 C   0  0  0  0  0  0  0  0  0  0  0  0
    3.9025   -9.4050    0.0000 O   0  0  0  0  0  0  0  0  0  0  0  0
    5.3315   -9.4050    0.0000 O   0  0  0  0  0  0  0  0  0  0  0  0
    5.3315   -6.1050    0.0000 O   0  0  0  0  0  0  0  0  0  0  0  0
    3.9025   -6.1050    0.0000 O   0  0  0  0  0  0  0  0  0  0  0  0
    7.4749   -7.3425    0.0000 C   0  0  0  0  0  0  0  0  0  0  0  0
    6.7604   -6.9300    0.0000 C   0  0  1  0  0  0  0  0  0  0  0  0
    8.1894   -6.9300    0.0000 C   0  0  0  0  0  0  0  0  0  0  0  0
    6.7604   -6.1050    0.0000 O   0  0  0  0  0  0  0  0  0  0  0  0
    8.9038   -7.3425    0.0000 C   0  0  0  0  0  0  0  0  0  0  0  0
    9.6183   -6.9300    0.0000 C   0  0  0  0  0  0  0  0  0  0  0  0
    8.9038   -8.1675    0.0000 C   0  0  0  0  0  0  0  0  0  0  0  0
    7.4647   -5.6753    0.0000 C   0  0  0  0  0  0  0  0  0  0  0  0
    8.1889   -6.0704    0.0000 O   0  0  0  0  0  0  0  0  0  0  0  0
    7.4447   -4.8506    0.0000 C   0  0  0  0  0  0  0  0  0  0  0  0
    6.7205   -4.4555    0.0000 C   0  0  0  0  0  0  0  0  0  0  0  0
    8.1490   -4.4209    0.0000 C   0  0  0  0  0  0  0  0  0  0  0  0
    8.8732   -4.8160    0.0000 C   0  0  0  0  0  0  0  0  0  0  0  0
    8.1290   -3.5961    0.0000 C   0  0  0  0  0  0  0  0  0  0  0  0
  1  2  1  0  0  0  0
  2  3  2  0  0  0  0
  3  4  1  0  0  0  0
  4  5  2  0  0  0  0
  5  6  1  0  0  0  0
  6  1  2  0  0  0  0
  4  7  1  0  0  0  0
  7  8  1  0  0  0  0
  8  9  2  0  0  0  0
  9 10  1  0  0  0  0
 10  5  1  0  0  0  0
  3 11  1  0  0  0  0
 12  7  2  0  0  0  0
 10 13  2  0  0  0  0
 14  6  1  0  0  0  0
 15 16  1  0  0  0  0
 16  9  1  0  0  0  0
 15 17  1  0  0  0  0
 16 18  1  6  0  0  0
 17 19  2  0  0  0  0
 19 20  1  0  0  0  0
 19 21  1  0  0  0  0
 18 22  1  0  0  0  0
 22 23  2  0  0  0  0
 22 24  1  0  0  0  0
 24 25  2  0  0  0  0
 24 26  1  0  0  0  0
 26 27  1  0  0  0  0
 26 28  2  0  0  0  0
M  END
>  <cdx:fragmentId>
5

$$$$
