94021.cdx
  Mrv1902 05222410222D          

 15 15  0  0  0  0            999 V2000
    3.6694   -9.6858    0.0000 O   0  0  0  0  0  0  0  0  0  0  0  0
    6.5272   -8.0358    0.0000 C   0  0  0  0  0  0  0  0  0  0  0  0
    7.2417   -8.4483    0.0000 C   0  0  0  0  0  0  0  0  0  0  0  0
    7.9562   -8.0358    0.0000 C   0  0  0  0  0  0  0  0  0  0  0  0
    8.6707   -8.4483    0.0000 C   0  0  0  0  0  0  0  0  0  0  0  0
    9.3851   -8.0358    0.0000 C   0  0  0  0  0  0  0  0  0  0  0  0
    9.3851   -7.2108    0.0000 C   0  0  0  0  0  0  0  0  0  0  0  0
   10.0996   -8.4483    0.0000 C   0  0  0  0  0  0  0  0  0  0  0  0
    6.5272   -7.2108    0.0000 C   0  0  0  0  0  0  0  0  0  0  0  0
    4.3838   -8.4483    0.0000 C   0  0  0  0  0  0  0  0  0  0  0  0
    5.0983   -8.0358    0.0000 C   0  0  0  0  0  0  0  0  0  0  0  0
    5.8128   -8.4483    0.0000 C   0  0  0  0  0  0  0  0  0  0  0  0
    5.8128   -9.2733    0.0000 C   0  0  0  0  0  0  0  0  0  0  0  0
    5.0983   -9.6858    0.0000 C   0  0  0  0  0  0  0  0  0  0  0  0
    4.3838   -9.2733    0.0000 C   0  0  0  0  0  0  0  0  0  0  0  0
 15  1  2  0  0  0  0
 15 10  1  0  0  0  0
 11 10  1  0  0  0  0
 12 11  1  0  0  0  0
 13 12  1  0  0  0  0
 14 13  2  0  0  0  0
 15 14  1  0  0  0  0
  2  3  1  0  0  0  0
  3  4  1  0  0  0  0
  4  5  1  0  0  0  0
  5  6  2  0  0  0  0
  6  7  1  0  0  0  0
  6  8  1  0  0  0  0
  2  9  1  0  0  0  0
 12  2  1  0  0  0  0
M  END
>  <cdx:fragmentId>
17

$$$$
