94029.cdx
  Mrv1902 05222410252D          

 31 32  0  0  0  0            999 V2000
    3.1193   -8.0437    0.0000 C   0  0  0  0  0  0  0  0  0  0  0  0
    3.1193   -8.8688    0.0000 C   0  0  0  0  0  0  0  0  0  0  0  0
    3.8338   -9.2813    0.0000 C   0  0  0  0  0  0  0  0  0  0  0  0
    4.5482   -8.8688    0.0000 C   0  0  0  0  0  0  0  0  0  0  0  0
    4.5482   -8.0437    0.0000 C   0  0  0  0  0  0  0  0  0  0  0  0
    3.8338   -7.6313    0.0000 C   0  0  0  0  0  0  0  0  0  0  0  0
    5.2627   -9.2813    0.0000 C   0  0  0  0  0  0  0  0  0  0  0  0
    5.9772   -8.8688    0.0000 C   0  0  0  0  0  0  0  0  0  0  0  0
    5.9772   -8.0437    0.0000 C   0  0  0  0  0  0  0  0  0  0  0  0
    5.2627   -7.6313    0.0000 C   0  0  0  0  0  0  0  0  0  0  0  0
    6.6917   -7.6313    0.0000 C   0  0  2  0  0  0  0  0  0  0  0  0
    6.6917   -6.8062    0.0000 O   0  0  0  0  0  0  0  0  0  0  0  0
    5.2627   -6.8062    0.0000 O   0  0  0  0  0  0  0  0  0  0  0  0
    7.4061   -8.0437    0.0000 C   0  0  0  0  0  0  0  0  0  0  0  0
    8.1206   -7.6313    0.0000 C   0  0  0  0  0  0  0  0  0  0  0  0
    8.8351   -8.0437    0.0000 C   0  0  0  0  0  0  0  0  0  0  0  0
    9.5495   -7.6313    0.0000 C   0  0  0  0  0  0  0  0  0  0  0  0
    3.8338   -6.8062    0.0000 O   0  0  0  0  0  0  0  0  0  0  0  0
    3.8338  -10.1063    0.0000 O   0  0  0  0  0  0  0  0  0  0  0  0
    5.2627  -10.1063    0.0000 O   0  0  0  0  0  0  0  0  0  0  0  0
    8.8351   -8.8688    0.0000 C   0  0  0  0  0  0  0  0  0  0  0  0
    7.4061   -6.3937    0.0000 C   0  0  0  0  0  0  0  0  0  0  0  0
    7.4061   -5.5687    0.0000 O   0  0  0  0  0  0  0  0  0  0  0  0
    8.1206   -6.8062    0.0000 C   0  0  0  0  0  0  0  0  0  0  0  0
    8.8351   -6.3937    0.0000 C   0  0  0  0  0  0  0  0  0  0  0  0
    9.5495   -6.8062    0.0000 C   0  0  0  0  0  0  0  0  0  0  0  0
   10.2640   -6.3937    0.0000 C   0  0  0  0  0  0  0  0  0  0  0  0
   10.9785   -6.8062    0.0000 O   0  0  0  0  0  0  0  0  0  0  0  0
   11.6930   -6.3937    0.0000 C   0  0  0  0  0  0  0  0  0  0  0  0
   12.4074   -6.8062    0.0000 C   0  0  0  0  0  0  0  0  0  0  0  0
   11.6930   -5.5687    0.0000 O   0  0  0  0  0  0  0  0  0  0  0  0
  1  2  1  0  0  0  0
  2  3  2  0  0  0  0
  3  4  1  0  0  0  0
  4  5  2  0  0  0  0
  5  6  1  0  0  0  0
  6  1  2  0  0  0  0
  4  7  1  0  0  0  0
  7  8  1  0  0  0  0
  8  9  2  0  0  0  0
  9 10  1  0  0  0  0
 10  5  1  0  0  0  0
  9 11  1  0  0  0  0
 11 12  1  6  0  0  0
 13 10  2  0  0  0  0
 11 14  1  0  0  0  0
 14 15  1  0  0  0  0
 16 15  2  0  0  0  0
 17 16  1  0  0  0  0
  6 18  1  0  0  0  0
  3 19  1  0  0  0  0
  7 20  2  0  0  0  0
 16 21  1  0  0  0  0
 12 22  1  0  0  0  0
 22 23  2  0  0  0  0
 22 24  1  0  0  0  0
 24 25  1  0  0  0  0
 25 26  1  0  0  0  0
 26 27  1  0  0  0  0
 27 28  1  0  0  0  0
 28 29  1  0  0  0  0
 29 30  1  0  0  0  0
 29 31  2  0  0  0  0
M  END
>  <cdx:fragmentId>
5

$$$$
