94034.cdx
  Mrv1902 05222410222D          

 12 12  0  0  0  0            999 V2000
    6.4331   -6.2287    0.0000 C   0  0  0  0  0  0  0  0  0  0  0  0
    6.4331   -7.0537    0.0000 C   0  0  0  0  0  0  0  0  0  0  0  0
    7.1475   -7.4663    0.0000 C   0  0  2  0  0  0  0  0  0  0  0  0
    7.8620   -7.0537    0.0000 C   0  0  0  0  0  0  0  0  0  0  0  0
    7.8620   -6.2287    0.0000 C   0  0  0  0  0  0  0  0  0  0  0  0
    7.1475   -5.8163    0.0000 C   0  0  0  0  0  0  0  0  0  0  0  0
    7.1475   -4.9913    0.0000 C   0  0  0  0  0  0  0  0  0  0  0  0
    8.5765   -7.4663    0.0000 O   0  0  0  0  0  0  0  0  0  0  0  0
    6.4331   -7.8788    0.0000 O   0  0  0  0  0  0  0  0  0  0  0  0
    7.1475   -8.2912    0.0000 C   0  0  0  0  0  0  0  0  0  0  0  0
    7.8620   -8.7037    0.0000 C   0  0  0  0  0  0  0  0  0  0  0  0
    6.4331   -8.7037    0.0000 C   0  0  0  0  0  0  0  0  0  0  0  0
  1  2  1  0  0  0  0
  2  3  1  0  0  0  0
  3  4  1  0  0  0  0
  4  5  1  0  0  0  0
  5  6  2  0  0  0  0
  6  1  1  0  0  0  0
  6  7  1  0  0  0  0
  4  8  2  0  0  0  0
  3  9  1  0  0  0  0
  3 10  1  1  0  0  0
 10 11  1  0  0  0  0
 10 12  2  0  0  0  0
M  END
>  <cdx:fragmentId>
5

$$$$
