94030.cdx
  Mrv1902 05222410212D          

 42 46  0  0  0  0            999 V2000
    5.7807   -7.6260    0.0000 O   0  0  0  0  0  0  0  0  0  0  0  0
    4.3518   -5.1510    0.0000 O   0  0  0  0  0  0  0  0  0  0  0  0
   10.7820   -3.9135    0.0000 O   0  0  0  0  0  0  0  0  0  0  0  0
    8.6386   -4.3260    0.0000 C   0  0  0  0  0  0  0  0  0  0  0  0
    9.3531   -3.9135    0.0000 C   0  0  0  0  0  0  0  0  0  0  0  0
   10.0675   -4.3260    0.0000 C   0  0  0  0  0  0  0  0  0  0  0  0
   10.0675   -5.1510    0.0000 C   0  0  0  0  0  0  0  0  0  0  0  0
    9.3531   -5.5635    0.0000 C   0  0  0  0  0  0  0  0  0  0  0  0
    8.6386   -5.1510    0.0000 C   0  0  0  0  0  0  0  0  0  0  0  0
   10.0675   -7.6260    0.0000 O   0  0  0  0  0  0  0  0  0  0  0  0
   10.0675   -9.2760    0.0000 O   0  0  0  0  0  0  0  0  0  0  0  0
    8.6386  -10.1010    0.0000 O   0  0  0  0  0  0  0  0  0  0  0  0
    6.4952   -8.8635    0.0000 O   0  0  0  0  0  0  0  0  0  0  0  0
    7.2097   -9.2760    0.0000 C   0  0  0  0  0  0  0  0  0  0  0  0
    7.9241   -8.8635    0.0000 C   0  0  2  0  0  0  0  0  0  0  0  0
    8.6386   -9.2760    0.0000 C   0  0  2  0  0  0  0  0  0  0  0  0
    9.3531   -8.8635    0.0000 C   0  0  1  0  0  0  0  0  0  0  0  0
    9.3531   -8.0385    0.0000 C   0  0  2  0  0  0  0  0  0  0  0  0
    8.6386   -7.6260    0.0000 C   0  0  1  0  0  0  0  0  0  0  0  0
    7.9241   -8.0385    0.0000 O   0  0  0  0  0  0  0  0  0  0  0  0
    8.6386   -6.8010    0.0000 O   0  0  0  0  0  0  0  0  0  0  0  0
    7.2097   -7.6260    0.0000 O   0  0  0  0  0  0  0  0  0  0  0  0
    7.2097   -5.1510    0.0000 O   0  0  0  0  0  0  0  0  0  0  0  0
    6.4952   -5.5635    0.0000 C   0  0  0  0  0  0  0  0  0  0  0  0
    5.7807   -5.1510    0.0000 C   0  0  0  0  0  0  0  0  0  0  0  0
    5.0663   -5.5635    0.0000 C   0  0  0  0  0  0  0  0  0  0  0  0
    5.0663   -6.3885    0.0000 C   0  0  0  0  0  0  0  0  0  0  0  0
    5.7807   -6.8010    0.0000 C   0  0  0  0  0  0  0  0  0  0  0  0
    6.4952   -6.3885    0.0000 C   0  0  0  0  0  0  0  0  0  0  0  0
    7.2097   -6.8010    0.0000 C   0  0  0  0  0  0  0  0  0  0  0  0
    7.9241   -6.3885    0.0000 C   0  0  0  0  0  0  0  0  0  0  0  0
    7.9241   -5.5635    0.0000 C   0  0  0  0  0  0  0  0  0  0  0  0
    4.0392  -10.3245    0.0000 C   0  0  0  0  0  0  0  0  0  0  0  0
    3.2143  -10.3334    0.0000 C   0  0  0  0  0  0  0  0  0  0  0  0
    2.8095  -11.0524    0.0000 C   0  0  0  0  0  0  0  0  0  0  0  0
    3.2298  -11.7623    0.0000 C   0  0  0  0  0  0  0  0  0  0  0  0
    4.0547  -11.7533    0.0000 C   0  0  0  0  0  0  0  0  0  0  0  0
    4.4594  -11.0344    0.0000 C   0  0  0  0  0  0  0  0  0  0  0  0
    4.4439   -9.6056    0.0000 C   0  0  0  0  0  0  0  0  0  0  0  0
    5.2689   -9.5966    0.0000 C   0  0  0  0  0  0  0  0  0  0  0  0
    5.6736   -8.8777    0.0000 C   0  0  0  0  0  0  0  0  0  0  0  0
    5.2534   -8.1678    0.0000 O   0  0  0  0  0  0  0  0  0  0  0  0
 28  1  1  0  0  0  0
 26  2  1  0  0  0  0
 32  9  1  0  0  0  0
  6  3  1  0  0  0  0
  9  4  2  0  0  0  0
  5  4  1  0  0  0  0
  6  5  2  0  0  0  0
  7  6  1  0  0  0  0
  8  7  2  0  0  0  0
  9  8  1  0  0  0  0
 31 21  1  0  0  0  0
 19 21  1  1  0  0  0
 18 10  1  6  0  0  0
 17 11  1  1  0  0  0
 16 12  1  6  0  0  0
 15 14  1  1  0  0  0
 14 13  1  0  0  0  0
 20 15  1  0  0  0  0
 16 15  1  0  0  0  0
 17 16  1  0  0  0  0
 18 17  1  0  0  0  0
 19 18  1  0  0  0  0
 20 19  1  0  0  0  0
 30 22  2  0  0  0  0
 32 23  1  0  0  0  0
 24 23  1  0  0  0  0
 29 24  2  0  0  0  0
 25 24  1  0  0  0  0
 26 25  2  0  0  0  0
 27 26  1  0  0  0  0
 28 27  2  0  0  0  0
 29 28  1  0  0  0  0
 30 29  1  0  0  0  0
 31 30  1  0  0  0  0
 32 31  2  0  0  0  0
 33 34  2  0  0  0  0
 34 35  1  0  0  0  0
 35 36  2  0  0  0  0
 36 37  1  0  0  0  0
 37 38  2  0  0  0  0
 38 33  1  0  0  0  0
 33 39  1  0  0  0  0
 39 40  2  0  0  0  0
 40 41  1  0  0  0  0
 41 42  2  0  0  0  0
 41 13  1  0  0  0  0
M  END
>  <cdx:groupId>
101

>  <cdx:fragmentId>
29

$$$$
