94035.cdx
  Mrv1902 05222410222D          

 13 13  0  0  0  0            999 V2000
    5.4473   -7.7162    0.0000 C   0  0  0  0  0  0  0  0  0  0  0  0
    6.1618   -7.3037    0.0000 C   0  0  0  0  0  0  0  0  0  0  0  0
    4.7328   -7.3037    0.0000 O   0  0  0  0  0  0  0  0  0  0  0  0
    6.8762   -7.7162    0.0000 C   0  0  0  0  0  0  0  0  0  0  0  0
    7.5907   -7.3037    0.0000 C   0  0  0  0  0  0  0  0  0  0  0  0
    8.3052   -7.7162    0.0000 C   0  0  0  0  0  0  0  0  0  0  0  0
    8.3052   -8.5412    0.0000 C   0  0  0  0  0  0  0  0  0  0  0  0
    7.5907   -8.9537    0.0000 C   0  0  0  0  0  0  0  0  0  0  0  0
    6.8762   -8.5412    0.0000 C   0  0  0  0  0  0  0  0  0  0  0  0
    9.0196   -8.9537    0.0000 C   0  0  0  0  0  0  0  0  0  0  0  0
    9.7341   -9.3662    0.0000 C   0  0  0  0  0  0  0  0  0  0  0  0
    9.0196   -9.7787    0.0000 C   0  0  0  0  0  0  0  0  0  0  0  0
    9.7341   -8.5412    0.0000 C   0  0  0  0  0  0  0  0  0  0  0  0
  1  2  1  0  0  0  0
  1  3  2  0  0  0  0
  4  5  1  0  0  0  0
  5  6  2  0  0  0  0
  6  7  1  0  0  0  0
  7  8  2  0  0  0  0
  8  9  1  0  0  0  0
  4  9  2  0  0  0  0
 10 11  1  0  0  0  0
 10 13  1  0  0  0  0
 10 12  1  0  0  0  0
  7 10  1  0  0  0  0
  2  4  1  0  0  0  0
M  END
>  <cdx:groupId>
41

>  <cdx:fragmentId>
11

$$$$
