94033.cdx
  Mrv1902 05222410202D          

 22 21  0  0  0  0            999 V2000
    3.6233   -8.5118    0.0000 C   0  0  0  0  0  0  0  0  0  0  0  0
    4.3378   -8.9243    0.0000 C   0  0  0  0  0  0  0  0  0  0  0  0
    5.0522   -8.5118    0.0000 C   0  0  0  0  0  0  0  0  0  0  0  0
    5.7667   -8.9243    0.0000 C   0  0  0  0  0  0  0  0  0  0  0  0
    6.4812   -8.5118    0.0000 C   0  0  0  0  0  0  0  0  0  0  0  0
    7.1956   -8.9243    0.0000 C   0  0  0  0  0  0  0  0  0  0  0  0
    7.9101   -8.5118    0.0000 C   0  0  0  0  0  0  0  0  0  0  0  0
    8.6246   -8.9243    0.0000 C   0  0  0  0  0  0  0  0  0  0  0  0
    9.3391   -9.3368    0.0000 C   0  0  0  0  0  0  0  0  0  0  0  0
   10.0535   -9.7493    0.0000 C   0  0  0  0  0  0  0  0  0  0  0  0
   10.7680  -10.1618    0.0000 C   0  0  0  0  0  0  0  0  0  0  0  0
   11.4825  -10.5743    0.0000 C   0  0  0  0  0  0  0  0  0  0  0  0
   12.1969  -10.1618    0.0000 C   0  0  0  0  0  0  0  0  0  0  0  0
   12.9114  -10.5743    0.0000 C   0  0  0  0  0  0  0  0  0  0  0  0
    2.1944   -8.5118    0.0000 C   0  0  0  0  0  0  0  0  0  0  0  0
    1.4799   -8.9243    0.0000 C   0  0  0  0  0  0  0  0  0  0  0  0
    2.1944   -7.6868    0.0000 O   0  0  0  0  0  0  0  0  0  0  0  0
    2.9088   -8.9243    0.0000 O   0  0  0  0  0  0  0  0  0  0  0  0
    4.3378   -7.2743    0.0000 C   0  0  0  0  0  0  0  0  0  0  0  0
    3.6233   -7.6868    0.0000 C   0  0  0  0  0  0  0  0  0  0  0  0
    4.3378   -6.4493    0.0000 O   0  0  0  0  0  0  0  0  0  0  0  0
    5.0522   -7.6868    0.0000 O   0  0  0  0  0  0  0  0  0  0  0  0
  1  2  1  0  0  0  0
  2  3  1  0  0  0  0
  3  4  1  0  0  0  0
  4  5  2  0  0  0  0
  5  6  1  0  0  0  0
  6  7  2  0  0  0  0
  7  8  1  0  0  0  0
  8  9  3  0  0  0  0
  9 10  1  0  0  0  0
 10 11  3  0  0  0  0
 11 12  1  0  0  0  0
 12 13  2  0  0  0  0
 13 14  1  0  0  0  0
 15 16  1  0  0  0  0
 15 17  2  0  0  0  0
 15 18  1  0  0  0  0
  1 18  1  0  0  0  0
 19 20  1  0  0  0  0
 19 21  2  0  0  0  0
 19 22  1  0  0  0  0
  3 22  1  0  0  0  0
M  END
>  <cdx:groupId>
67

>  <cdx:fragmentId>
5

$$$$
