94038.cdx
  Mrv1902 05222410242D          

 26 29  0  0  0  0            999 V2000
    4.8931   -7.8925    0.0000 C   0  0  0  0  0  0  0  0  0  0  0  0
    4.8931   -8.7175    0.0000 C   0  0  0  0  0  0  0  0  0  0  0  0
    5.6075   -9.1300    0.0000 C   0  0  1  0  0  0  0  0  0  0  0  0
    6.3220   -8.7175    0.0000 C   0  0  2  0  0  0  0  0  0  0  0  0
    6.3220   -7.8925    0.0000 C   0  0  1  0  0  0  0  0  0  0  0  0
    5.6075   -7.4800    0.0000 C   0  0  0  0  0  0  0  0  0  0  0  0
    7.0365   -9.1300    0.0000 C   0  0  0  0  0  0  0  0  0  0  0  0
    7.7509   -8.7175    0.0000 C   0  0  0  0  0  0  0  0  0  0  0  0
    7.7509   -7.8925    0.0000 C   0  0  2  0  0  0  0  0  0  0  0  0
    7.0365   -7.4800    0.0000 C   0  0  1  0  0  0  0  0  0  0  0  0
    8.4654   -7.4800    0.0000 C   0  0  0  0  0  0  0  0  0  0  0  0
    8.4654   -6.6550    0.0000 C   0  0  1  0  0  0  0  0  0  0  0  0
    7.7509   -6.2425    0.0000 C   0  0  0  0  0  0  0  0  0  0  0  0
    7.0365   -6.6550    0.0000 C   0  0  0  0  0  0  0  0  0  0  0  0
    9.1799   -7.0675    0.0000 C   0  0  0  0  0  0  0  0  0  0  0  0
    8.4654   -8.3050    0.0000 C   0  0  0  0  0  0  0  0  0  0  0  0
    9.9768   -6.8540    0.0000 C   0  0  0  0  0  0  0  0  0  0  0  0
    5.6075   -9.9550    0.0000 C   0  0  0  0  0  0  0  0  0  0  0  0
    4.8931   -9.5425    0.0000 C   0  0  0  0  0  0  0  0  0  0  0  0
    4.1786   -9.1300    0.0000 O   0  0  0  0  0  0  0  0  0  0  0  0
    6.3220  -10.3675    0.0000 O   0  0  0  0  0  0  0  0  0  0  0  0
    4.8931  -10.3675    0.0000 O   0  0  0  0  0  0  0  0  0  0  0  0
    6.3220   -7.0675    0.0000 C   0  0  0  0  0  0  0  0  0  0  0  0
    8.8779   -5.9405    0.0000 H   0  0  0  0  0  0  0  0  0  0  0  0
    6.3220   -9.5425    0.0000 H   0  0  0  0  0  0  0  0  0  0  0  0
    7.0365   -8.3050    0.0000 H   0  0  0  0  0  0  0  0  0  0  0  0
  1  2  1  0  0  0  0
  2  3  1  0  0  0  0
  3  4  1  0  0  0  0
  4  5  1  0  0  0  0
  5  6  1  0  0  0  0
  6  1  1  0  0  0  0
  4  7  1  0  0  0  0
  7  8  1  0  0  0  0
  8  9  1  0  0  0  0
  9 10  1  0  0  0  0
 10  5  1  0  0  0  0
  9 11  1  0  0  0  0
 11 12  1  0  0  0  0
 12 13  1  0  0  0  0
 13 14  1  0  0  0  0
 14 10  1  0  0  0  0
 12 15  1  0  0  0  0
  9 16  1  1  0  0  0
 16 15  1  0  0  0  0
 15 17  2  0  0  0  0
  3 18  1  0  0  0  0
  3 19  1  6  0  0  0
 19 20  1  0  0  0  0
 18 21  2  0  0  0  0
 18 22  1  0  0  0  0
  5 23  1  6  0  0  0
 12 24  1  6  0  0  0
  4 25  1  1  0  0  0
 10 26  1  1  0  0  0
M  END
>  <cdx:fragmentId>
5

$$$$
