94044.cdx
  Mrv1902 05222410182D          

 41 42  0  0  0  0            999 V2000
    3.2738  -15.6920    0.0000 C   0  0  0  0  0  0  0  0  0  0  0  0
    3.2622  -14.8671    0.0000 C   0  0  0  0  0  0  0  0  0  0  0  0
    3.9708  -14.4446    0.0000 C   0  0  0  0  0  0  0  0  0  0  0  0
    3.9592  -13.6197    0.0000 C   0  0  0  0  0  0  0  0  0  0  0  0
    4.6678  -13.1972    0.0000 C   0  0  0  0  0  0  0  0  0  0  0  0
    4.6563  -12.3723    0.0000 C   0  0  0  0  0  0  0  0  0  0  0  0
    5.3649  -11.9498    0.0000 C   0  0  0  0  0  0  0  0  0  0  0  0
    5.3533  -11.1249    0.0000 C   0  0  0  0  0  0  0  0  0  0  0  0
    6.0619  -10.7024    0.0000 C   0  0  0  0  0  0  0  0  0  0  0  0
    6.0503   -9.8775    0.0000 C   0  0  0  0  0  0  0  0  0  0  0  0
    6.7590   -9.4550    0.0000 C   0  0  0  0  0  0  0  0  0  0  0  0
    6.7474   -8.6301    0.0000 C   0  0  0  0  0  0  0  0  0  0  0  0
    7.4560   -8.2076    0.0000 C   0  0  0  0  0  0  0  0  0  0  0  0
    7.4444   -7.3827    0.0000 C   0  0  0  0  0  0  0  0  0  0  0  0
    8.1530   -6.9602    0.0000 C   0  0  0  0  0  0  0  0  0  0  0  0
    8.1414   -6.1353    0.0000 C   0  0  0  0  0  0  0  0  0  0  0  0
    8.8501   -5.7128    0.0000 C   0  0  0  0  0  0  0  0  0  0  0  0
    8.8385   -4.8879    0.0000 C   0  0  0  0  0  0  0  0  0  0  0  0
    9.5471   -4.4654    0.0000 C   0  0  0  0  0  0  0  0  0  0  0  0
    9.5355   -3.6405    0.0000 C   0  0  0  0  0  0  0  0  0  0  0  0
    2.5657  -16.1155    0.0000 C   0  0  0  0  0  0  0  0  0  0  0  0
    2.5785  -16.9404    0.0000 C   0  0  0  0  0  0  0  0  0  0  0  0
    3.2941  -17.3448    0.0000 C   0  0  1  0  0  0  0  0  0  0  0  0
    4.0039  -16.9243    0.0000 C   0  0  0  0  0  0  0  0  0  0  0  0
    3.9929  -16.1023    0.0000 C   0  0  0  0  0  0  0  0  0  0  0  0
    8.8159   -3.2370    0.0000 C   0  0  0  0  0  0  0  0  0  0  0  0
    8.8054   -2.4121    0.0000 C   0  0  0  0  0  0  0  0  0  0  0  0
    9.5095   -1.9877    0.0000 C   0  0  0  0  0  0  0  0  0  0  0  0
   10.2308   -2.3882    0.0000 C   0  0  0  0  0  0  0  0  0  0  0  0
   10.2429   -3.2102    0.0000 C   0  0  0  0  0  0  0  0  0  0  0  0
    4.7035  -15.6832    0.0000 C   0  0  0  0  0  0  0  0  0  0  0  0
    1.7408  -16.1248    0.0000 C   0  0  0  0  0  0  0  0  0  0  0  0
    2.3432  -15.3210    0.0000 C   0  0  0  0  0  0  0  0  0  0  0  0
    3.2390  -13.2173    0.0000 C   0  0  0  0  0  0  0  0  0  0  0  0
    8.1067   -3.6586    0.0000 C   0  0  0  0  0  0  0  0  0  0  0  0
   10.6673   -3.9176    0.0000 C   0  0  0  0  0  0  0  0  0  0  0  0
   11.0677   -3.1963    0.0000 C   0  0  0  0  0  0  0  0  0  0  0  0
    9.5702   -6.1152    0.0000 C   0  0  0  0  0  0  0  0  0  0  0  0
    8.1762   -8.6100    0.0000 C   0  0  0  0  0  0  0  0  0  0  0  0
    4.6331  -10.7225    0.0000 C   0  0  0  0  0  0  0  0  0  0  0  0
    3.3026  -18.1698    0.0000 O   0  0  0  0  0  0  0  0  0  0  0  0
  1  2  1  0  0  0  0
  2  3  2  0  0  0  0
  3  4  1  0  0  0  0
  4  5  2  0  0  0  0
  5  6  1  0  0  0  0
  6  7  2  0  0  0  0
  7  8  1  0  0  0  0
  8  9  2  0  0  0  0
  9 10  1  0  0  0  0
 10 11  2  0  0  0  0
 11 12  1  0  0  0  0
 12 13  2  0  0  0  0
 13 14  1  0  0  0  0
 14 15  2  0  0  0  0
 15 16  1  0  0  0  0
 16 17  2  0  0  0  0
 17 18  1  0  0  0  0
 18 19  2  0  0  0  0
 19 20  1  0  0  0  0
  1 21  1  0  0  0  0
 21 22  1  0  0  0  0
 22 23  1  0  0  0  0
 23 24  1  0  0  0  0
 24 25  1  0  0  0  0
 25  1  2  0  0  0  0
 20 26  1  0  0  0  0
 26 27  2  0  0  0  0
 27 28  1  0  0  0  0
 28 29  1  0  0  0  0
 29 30  1  0  0  0  0
 30 20  1  0  0  0  0
 25 31  1  0  0  0  0
 21 32  1  0  0  0  0
 21 33  1  0  0  0  0
  4 34  1  0  0  0  0
 26 35  1  0  0  0  0
 30 36  1  0  0  0  0
 30 37  1  0  0  0  0
 17 38  1  0  0  0  0
 13 39  1  0  0  0  0
  8 40  1  0  0  0  0
 23 41  1  1  0  0  0
M  END
>  <cdx:fragmentId>
3

$$$$
