94047.cdx
  Mrv1902 05222410182D          

 43 45  0  0  0  0            999 V2000
    2.8959   -9.4552    0.0000 C   0  0  2  0  0  0  0  0  0  0  0  0
    2.0727   -9.4581    0.0000 C   0  0  0  0  0  0  0  0  0  0  0  0
    1.6587   -8.7466    0.0000 C   0  0  2  0  0  0  0  0  0  0  0  0
    2.0678   -8.0323    0.0000 C   0  0  0  0  0  0  0  0  0  0  0  0
    2.8910   -8.0294    0.0000 C   0  0  0  0  0  0  0  0  0  0  0  0
    3.3050   -8.7409    0.0000 C   0  0  2  0  0  0  0  0  0  0  0  0
    3.7191   -9.4523    0.0000 O   0  0  0  0  0  0  0  0  0  0  0  0
    0.8355   -8.7495    0.0000 O   0  0  0  0  0  0  0  0  0  0  0  0
    2.8881   -7.2062    0.0000 C   0  0  0  0  0  0  0  0  0  0  0  0
    3.6024   -7.6153    0.0000 C   0  0  0  0  0  0  0  0  0  0  0  0
    2.8988  -10.2784    0.0000 C   0  0  0  0  0  0  0  0  0  0  0  0
    4.0165   -8.3268    0.0000 C   0  0  0  0  0  0  0  0  0  0  0  0
    4.7308   -8.7359    0.0000 C   0  0  0  0  0  0  0  0  0  0  0  0
    5.4423   -8.3218    0.0000 C   0  0  0  0  0  0  0  0  0  0  0  0
    6.1566   -8.7309    0.0000 C   0  0  0  0  0  0  0  0  0  0  0  0
    6.8680   -8.3169    0.0000 C   0  0  0  0  0  0  0  0  0  0  0  0
    7.5824   -8.7260    0.0000 C   0  0  0  0  0  0  0  0  0  0  0  0
    8.2938   -8.3119    0.0000 C   0  0  0  0  0  0  0  0  0  0  0  0
    9.0082   -8.7210    0.0000 C   0  0  0  0  0  0  0  0  0  0  0  0
    9.7196   -8.3069    0.0000 C   0  0  0  0  0  0  0  0  0  0  0  0
   10.4339   -8.7160    0.0000 C   0  0  0  0  0  0  0  0  0  0  0  0
   11.1454   -8.3020    0.0000 C   0  0  0  0  0  0  0  0  0  0  0  0
   11.8597   -8.7111    0.0000 C   0  0  0  0  0  0  0  0  0  0  0  0
   12.5712   -8.2970    0.0000 C   0  0  0  0  0  0  0  0  0  0  0  0
   13.2855   -8.7061    0.0000 C   0  0  0  0  0  0  0  0  0  0  0  0
   13.9970   -8.2920    0.0000 C   0  0  0  0  0  0  0  0  0  0  0  0
   15.4313  -10.7566    0.0000 C   0  0  0  0  0  0  0  0  0  0  0  0
   14.7199  -11.1707    0.0000 C   0  0  0  0  0  0  0  0  0  0  0  0
   14.7228  -11.9938    0.0000 C   0  0  0  0  0  0  0  0  0  0  0  0
   11.8626   -9.5342    0.0000 C   0  0  0  0  0  0  0  0  0  0  0  0
    8.2910   -7.4887    0.0000 C   0  0  0  0  0  0  0  0  0  0  0  0
    5.4394   -7.4987    0.0000 C   0  0  0  0  0  0  0  0  0  0  0  0
   15.4371  -12.4029    0.0000 C   0  0  2  0  0  0  0  0  0  0  0  0
   16.1485  -11.9889    0.0000 C   0  0  0  0  0  0  0  0  0  0  0  0
   16.1457  -11.1657    0.0000 C   0  0  0  0  0  0  0  0  0  0  0  0
   16.5548  -10.4514    0.0000 C   0  0  0  0  0  0  0  0  0  0  0  0
   16.9688  -11.1628    0.0000 C   0  0  0  0  0  0  0  0  0  0  0  0
   14.0056  -10.7616    0.0000 C   0  0  0  0  0  0  0  0  0  0  0  0
   15.4399  -13.2261    0.0000 O   0  0  0  0  0  0  0  0  0  0  0  0
   15.4227   -8.2871    0.0000 C   0  0  0  0  0  0  0  0  0  0  0  0
   15.4285   -9.9334    0.0000 C   0  0  0  0  0  0  0  0  0  0  0  0
   14.7142   -9.5243    0.0000 C   0  0  0  0  0  0  0  0  0  0  0  0
   14.7113   -8.7011    0.0000 C   0  0  0  0  0  0  0  0  0  0  0  0
 41 27  1  0  0  0  0
 43 40  1  0  0  0  0
 42 41  2  0  0  0  0
 43 42  1  0  0  0  0
  1  2  1  0  0  0  0
  2  3  1  0  0  0  0
  3  4  1  0  0  0  0
  4  5  1  0  0  0  0
  5  6  1  0  0  0  0
  6  7  1  0  0  0  0
  1  7  1  0  0  0  0
  1  6  1  0  0  0  0
  3  8  1  1  0  0  0
  5  9  1  0  0  0  0
  5 10  1  0  0  0  0
  1 11  1  1  0  0  0
 12 13  2  0  0  0  0
 13 14  1  0  0  0  0
 14 15  2  0  0  0  0
 15 16  1  0  0  0  0
 16 17  2  0  0  0  0
 17 18  1  0  0  0  0
 18 19  2  0  0  0  0
 19 20  1  0  0  0  0
 20 21  2  0  0  0  0
 21 22  1  0  0  0  0
 22 23  2  0  0  0  0
 23 24  1  0  0  0  0
 24 25  2  0  0  0  0
 25 26  1  0  0  0  0
 26 43  2  0  0  0  0
 27 28  2  0  0  0  0
 28 29  1  0  0  0  0
 29 33  1  0  0  0  0
 23 30  1  0  0  0  0
 18 31  1  0  0  0  0
 14 32  1  0  0  0  0
 33 34  1  0  0  0  0
 34 35  1  0  0  0  0
 27 35  1  0  0  0  0
 35 36  1  0  0  0  0
 35 37  1  0  0  0  0
 28 38  1  0  0  0  0
 33 39  1  6  0  0  0
  6 12  1  1  0  0  0
M  END
>  <cdx:groupId>
180

>  <cdx:fragmentId>
181

$$$$
