94045.cdx
  Mrv1902 05222410182D          

 44 47  0  0  0  0            999 V2000
   15.1492   -9.0441    0.0000 C   0  0  0  0  0  0  0  0  0  0  0  0
   14.4350   -9.4564    0.0000 C   0  0  0  0  0  0  0  0  0  0  0  0
   13.7207   -9.0441    0.0000 C   0  0  0  0  0  0  0  0  0  0  0  0
   13.0065   -9.4564    0.0000 C   0  0  0  0  0  0  0  0  0  0  0  0
   12.2922   -9.0441    0.0000 C   0  0  0  0  0  0  0  0  0  0  0  0
   11.5780   -9.4564    0.0000 C   0  0  0  0  0  0  0  0  0  0  0  0
   10.8637   -9.0441    0.0000 C   0  0  0  0  0  0  0  0  0  0  0  0
   10.1495   -9.4564    0.0000 C   0  0  0  0  0  0  0  0  0  0  0  0
    9.4352   -9.0441    0.0000 C   0  0  0  0  0  0  0  0  0  0  0  0
    8.7210   -9.4564    0.0000 C   0  0  0  0  0  0  0  0  0  0  0  0
    8.0067   -9.0441    0.0000 C   0  0  0  0  0  0  0  0  0  0  0  0
    7.2925   -9.4564    0.0000 C   0  0  0  0  0  0  0  0  0  0  0  0
    6.5782   -9.0441    0.0000 C   0  0  0  0  0  0  0  0  0  0  0  0
    5.8640   -9.4564    0.0000 C   0  0  0  0  0  0  0  0  0  0  0  0
    5.1498   -9.0441    0.0000 C   0  0  0  0  0  0  0  0  0  0  0  0
    6.5782   -8.2193    0.0000 C   0  0  0  0  0  0  0  0  0  0  0  0
    9.4352   -8.2193    0.0000 C   0  0  0  0  0  0  0  0  0  0  0  0
   13.0065  -10.2812    0.0000 C   0  0  0  0  0  0  0  0  0  0  0  0
    4.4355   -9.4564    0.0000 C   0  0  2  0  0  0  0  0  0  0  0  0
    4.0231   -8.7422    0.0000 C   0  0  0  0  0  0  0  0  0  0  0  0
    3.1984   -8.7422    0.0000 C   0  0  0  0  0  0  0  0  0  0  0  0
    2.7860   -9.4564    0.0000 C   0  0  1  0  0  0  0  0  0  0  0  0
    3.1984  -10.1707    0.0000 C   0  0  0  0  0  0  0  0  0  0  0  0
    4.0231  -10.1707    0.0000 C   0  0  1  0  0  0  0  0  0  0  0  0
    4.8479  -10.1707    0.0000 O   0  0  0  0  0  0  0  0  0  0  0  0
    4.0231  -10.9954    0.0000 C   0  0  0  0  0  0  0  0  0  0  0  0
    4.0231   -7.9174    0.0000 C   0  0  0  0  0  0  0  0  0  0  0  0
    4.7374   -8.3298    0.0000 C   0  0  0  0  0  0  0  0  0  0  0  0
    1.9613   -9.4564    0.0000 O   0  0  0  0  0  0  0  0  0  0  0  0
   16.5777   -9.0441    0.0000 C   0  0  0  0  0  0  0  0  0  0  0  0
   15.8634   -9.4564    0.0000 C   0  0  0  0  0  0  0  0  0  0  0  0
   15.8634  -10.2812    0.0000 C   0  0  0  0  0  0  0  0  0  0  0  0
   16.5777  -10.6935    0.0000 C   0  0  0  0  0  0  0  0  0  0  0  0
   15.4511  -12.6449    0.0000 C   0  0  0  0  0  0  0  0  0  0  0  0
   17.4024  -10.6935    0.0000 C   0  0  0  0  0  0  0  0  0  0  0  0
   18.1167  -11.1059    0.0000 C   0  0  0  0  0  0  0  0  0  0  0  0
   17.8148  -13.6610    0.0000 O   0  0  0  0  0  0  0  0  0  0  0  0
   15.7530  -11.5183    0.0000 O   0  0  0  0  0  0  0  0  0  0  0  0
   16.5777  -11.5183    0.0000 C   0  0  2  0  0  0  0  0  0  0  0  0
   17.4024  -11.5183    0.0000 C   0  0  0  0  0  0  0  0  0  0  0  0
   17.8148  -12.2325    0.0000 C   0  0  0  0  0  0  0  0  0  0  0  0
   17.4024  -12.9468    0.0000 C   0  0  1  0  0  0  0  0  0  0  0  0
   16.5777  -12.9468    0.0000 C   0  0  0  0  0  0  0  0  0  0  0  0
   16.1653  -12.2325    0.0000 C   0  0  2  0  0  0  0  0  0  0  0  0
 39 33  1  6  0  0  0
 31 30  1  0  0  0  0
 32 31  1  0  0  0  0
 33 32  2  0  0  0  0
 44 34  1  6  0  0  0
 40 35  1  0  0  0  0
 40 36  1  0  0  0  0
 42 37  1  6  0  0  0
 44 39  1  0  0  0  0
 44 38  1  0  0  0  0
 39 38  1  0  0  0  0
 40 39  1  0  0  0  0
 41 40  1  0  0  0  0
 42 41  1  0  0  0  0
 43 42  1  0  0  0  0
 44 43  1  0  0  0  0
 31  1  2  0  0  0  0
  1  2  1  0  0  0  0
  2  3  2  0  0  0  0
  3  4  1  0  0  0  0
  4  5  2  0  0  0  0
  5  6  1  0  0  0  0
  6  7  2  0  0  0  0
  7  8  1  0  0  0  0
  8  9  2  0  0  0  0
  9 10  1  0  0  0  0
 10 11  2  0  0  0  0
 11 12  1  0  0  0  0
 12 13  2  0  0  0  0
 13 14  1  0  0  0  0
 14 15  2  0  0  0  0
 13 16  1  0  0  0  0
  9 17  1  0  0  0  0
  4 18  1  0  0  0  0
 19 20  1  0  0  0  0
 20 21  1  0  0  0  0
 21 22  1  0  0  0  0
 22 23  1  0  0  0  0
 23 24  1  0  0  0  0
 24 25  1  0  0  0  0
 19 25  1  0  0  0  0
 19 24  1  0  0  0  0
 24 26  1  1  0  0  0
 20 27  1  0  0  0  0
 20 28  1  0  0  0  0
 22 29  1  1  0  0  0
 19 15  1  1  0  0  0
M  END
>  <cdx:fragmentId>
27

$$$$
