94043.cdx
  Mrv1902 05222410192D          

 76 77  0  0  0  0            999 V2000
    2.4148   -6.1764    0.0000 C   0  0  0  0  0  0  0  0  0  0  0  0
    2.4148   -7.0011    0.0000 C   0  0  1  0  0  0  0  0  0  0  0  0
    3.1294   -7.4132    0.0000 C   0  0  0  0  0  0  0  0  0  0  0  0
    3.8440   -7.0011    0.0000 C   0  0  0  0  0  0  0  0  0  0  0  0
    3.8440   -6.1764    0.0000 C   0  0  0  0  0  0  0  0  0  0  0  0
    3.1294   -5.7641    0.0000 C   0  0  0  0  0  0  0  0  0  0  0  0
    1.7002   -7.4132    0.0000 O   0  0  0  0  0  0  0  0  0  0  0  0
    4.5586   -7.4132    0.0000 C   0  0  0  0  0  0  0  0  0  0  0  0
    2.7172   -5.0495    0.0000 C   0  0  0  0  0  0  0  0  0  0  0  0
    3.5418   -5.0495    0.0000 C   0  0  0  0  0  0  0  0  0  0  0  0
    4.5586   -5.7641    0.0000 C   0  0  0  0  0  0  0  0  0  0  0  0
    5.2733   -6.1764    0.0000 C   0  0  0  0  0  0  0  0  0  0  0  0
    5.9879   -5.7641    0.0000 C   0  0  0  0  0  0  0  0  0  0  0  0
    6.7026   -6.1764    0.0000 C   0  0  0  0  0  0  0  0  0  0  0  0
    5.9879   -4.9396    0.0000 C   0  0  0  0  0  0  0  0  0  0  0  0
    7.4171   -5.7641    0.0000 C   0  0  0  0  0  0  0  0  0  0  0  0
    8.1318   -6.1764    0.0000 C   0  0  0  0  0  0  0  0  0  0  0  0
    8.8464   -5.7641    0.0000 C   0  0  0  0  0  0  0  0  0  0  0  0
    9.5610   -6.1764    0.0000 C   0  0  0  0  0  0  0  0  0  0  0  0
    8.8464   -4.9396    0.0000 C   0  0  0  0  0  0  0  0  0  0  0  0
   10.2757   -5.7641    0.0000 C   0  0  0  0  0  0  0  0  0  0  0  0
   10.9902   -6.1764    0.0000 C   0  0  0  0  0  0  0  0  0  0  0  0
   11.7049   -5.7641    0.0000 C   0  0  0  0  0  0  0  0  0  0  0  0
   12.4196   -6.1764    0.0000 C   0  0  0  0  0  0  0  0  0  0  0  0
   13.1342   -5.7641    0.0000 C   0  0  0  0  0  0  0  0  0  0  0  0
   12.4196   -7.0011    0.0000 C   0  0  0  0  0  0  0  0  0  0  0  0
   13.8488   -6.1764    0.0000 C   0  0  0  0  0  0  0  0  0  0  0  0
   14.5634   -5.7641    0.0000 C   0  0  0  0  0  0  0  0  0  0  0  0
   15.2780   -6.1764    0.0000 C   0  0  0  0  0  0  0  0  0  0  0  0
   15.9927   -5.7641    0.0000 C   0  0  0  0  0  0  0  0  0  0  0  0
   15.2780   -7.0011    0.0000 C   0  0  0  0  0  0  0  0  0  0  0  0
   16.7073   -6.1764    0.0000 C   0  0  0  0  0  0  0  0  0  0  0  0
   17.4219   -5.7641    0.0000 C   0  0  0  0  0  0  0  0  0  0  0  0
   18.1366   -6.1764    0.0000 C   0  0  0  0  0  0  0  0  0  0  0  0
   18.8512   -5.7641    0.0000 C   0  0  0  0  0  0  0  0  0  0  0  0
   18.8512   -4.9396    0.0000 C   0  0  1  0  0  0  0  0  0  0  0  0
   18.1366   -4.5272    0.0000 C   0  0  0  0  0  0  0  0  0  0  0  0
   17.4219   -4.9396    0.0000 C   0  0  0  0  0  0  0  0  0  0  0  0
   17.7243   -6.8911    0.0000 C   0  0  0  0  0  0  0  0  0  0  0  0
   18.5489   -6.8911    0.0000 C   0  0  0  0  0  0  0  0  0  0  0  0
   16.7073   -4.5272    0.0000 C   0  0  0  0  0  0  0  0  0  0  0  0
   19.5658   -4.5272    0.0000 O   0  0  0  0  0  0  0  0  0  0  0  0
    1.7002   -8.2378    0.0000 C   0  0  0  0  0  0  0  0  0  0  0  0
    0.9856   -8.6501    0.0000 O   0  0  0  0  0  0  0  0  0  0  0  0
    2.4148   -8.6501    0.0000 C   0  0  0  0  0  0  0  0  0  0  0  0
    3.1294   -8.2378    0.0000 C   0  0  0  0  0  0  0  0  0  0  0  0
    3.8440   -8.6501    0.0000 C   0  0  0  0  0  0  0  0  0  0  0  0
    4.5586   -8.2378    0.0000 C   0  0  0  0  0  0  0  0  0  0  0  0
    5.2733   -8.6501    0.0000 C   0  0  0  0  0  0  0  0  0  0  0  0
    5.9879   -8.2378    0.0000 C   0  0  0  0  0  0  0  0  0  0  0  0
    6.7026   -8.6501    0.0000 C   0  0  0  0  0  0  0  0  0  0  0  0
    7.4171   -8.2378    0.0000 C   0  0  0  0  0  0  0  0  0  0  0  0
    8.1318   -8.6501    0.0000 C   0  0  0  0  0  0  0  0  0  0  0  0
    8.8464   -8.2378    0.0000 C   0  0  0  0  0  0  0  0  0  0  0  0
    9.5610   -8.6501    0.0000 C   0  0  0  0  0  0  0  0  0  0  0  0
   10.2757   -8.2378    0.0000 C   0  0  0  0  0  0  0  0  0  0  0  0
   10.9902   -8.6501    0.0000 C   0  0  0  0  0  0  0  0  0  0  0  0
   11.7049   -8.2378    0.0000 C   0  0  0  0  0  0  0  0  0  0  0  0
   12.4196   -8.6501    0.0000 C   0  0  0  0  0  0  0  0  0  0  0  0
   19.5658   -3.7028    0.0000 C   0  0  0  0  0  0  0  0  0  0  0  0
   20.2804   -3.2904    0.0000 O   0  0  0  0  0  0  0  0  0  0  0  0
   18.8512   -3.2904    0.0000 C   0  0  0  0  0  0  0  0  0  0  0  0
   18.1366   -3.7028    0.0000 C   0  0  0  0  0  0  0  0  0  0  0  0
   17.4219   -3.2904    0.0000 C   0  0  0  0  0  0  0  0  0  0  0  0
   16.7073   -3.7028    0.0000 C   0  0  0  0  0  0  0  0  0  0  0  0
   15.9927   -3.2904    0.0000 C   0  0  0  0  0  0  0  0  0  0  0  0
   15.2780   -3.7028    0.0000 C   0  0  0  0  0  0  0  0  0  0  0  0
   14.5634   -3.2904    0.0000 C   0  0  0  0  0  0  0  0  0  0  0  0
   13.8488   -3.7028    0.0000 C   0  0  0  0  0  0  0  0  0  0  0  0
   13.1342   -3.2904    0.0000 C   0  0  0  0  0  0  0  0  0  0  0  0
   12.4196   -3.7028    0.0000 C   0  0  0  0  0  0  0  0  0  0  0  0
   11.7049   -3.2904    0.0000 C   0  0  0  0  0  0  0  0  0  0  0  0
   10.9902   -3.7028    0.0000 C   0  0  0  0  0  0  0  0  0  0  0  0
   10.2757   -3.2904    0.0000 C   0  0  0  0  0  0  0  0  0  0  0  0
    9.5610   -3.7028    0.0000 C   0  0  0  0  0  0  0  0  0  0  0  0
    8.8464   -3.2904    0.0000 C   0  0  0  0  0  0  0  0  0  0  0  0
  1  2  1  0  0  0  0
  2  3  1  0  0  0  0
  3  4  1  0  0  0  0
  4  5  2  0  0  0  0
  5  6  1  0  0  0  0
  1  6  1  0  0  0  0
  2  7  1  1  0  0  0
  4  8  1  0  0  0  0
  6  9  1  0  0  0  0
  6 10  1  0  0  0  0
  5 11  1  0  0  0  0
 11 12  2  0  0  0  0
 12 13  1  0  0  0  0
 13 14  2  0  0  0  0
 13 15  1  0  0  0  0
 14 16  1  0  0  0  0
 16 17  2  0  0  0  0
 17 18  1  0  0  0  0
 18 19  2  0  0  0  0
 18 20  1  0  0  0  0
 19 21  1  0  0  0  0
 21 22  2  0  0  0  0
 22 23  1  0  0  0  0
 23 24  2  0  0  0  0
 24 25  1  0  0  0  0
 24 26  1  0  0  0  0
 25 27  2  0  0  0  0
 27 28  1  0  0  0  0
 28 29  2  0  0  0  0
 29 30  1  0  0  0  0
 29 31  1  0  0  0  0
 30 32  2  0  0  0  0
 32 33  1  0  0  0  0
 33 34  1  0  0  0  0
 34 35  1  0  0  0  0
 35 36  1  0  0  0  0
 36 37  1  0  0  0  0
 37 38  1  0  0  0  0
 33 38  2  0  0  0  0
 34 39  1  0  0  0  0
 34 40  1  0  0  0  0
 38 41  1  0  0  0  0
 36 42  1  1  0  0  0
  7 43  1  0  0  0  0
 43 44  2  0  0  0  0
 43 45  1  0  0  0  0
 45 46  1  0  0  0  0
 46 47  1  0  0  0  0
 47 48  1  0  0  0  0
 48 49  1  0  0  0  0
 49 50  1  0  0  0  0
 50 51  1  0  0  0  0
 51 52  1  0  0  0  0
 52 53  1  0  0  0  0
 53 54  1  0  0  0  0
 54 55  1  0  0  0  0
 55 56  1  0  0  0  0
 56 57  1  0  0  0  0
 57 58  1  0  0  0  0
 58 59  1  0  0  0  0
 42 60  1  0  0  0  0
 60 61  2  0  0  0  0
 60 62  1  0  0  0  0
 62 63  1  0  0  0  0
 63 64  1  0  0  0  0
 64 65  1  0  0  0  0
 65 66  1  0  0  0  0
 66 67  1  0  0  0  0
 67 68  1  0  0  0  0
 68 69  1  0  0  0  0
 69 70  1  0  0  0  0
 70 71  1  0  0  0  0
 71 72  1  0  0  0  0
 72 73  1  0  0  0  0
 73 74  1  0  0  0  0
 74 75  1  0  0  0  0
 75 76  1  0  0  0  0
M  END
>  <cdx:fragmentId>
13737

$$$$
