94049.cdx
  Mrv1902 05222410282D          

 26 28  0  0  0  0            999 V2000
    8.8251   -7.9745    0.0000 C   0  0  0  0  0  0  0  0  0  0  0  0
    9.6135   -8.2177    0.0000 O   0  0  0  0  0  0  0  0  0  0  0  0
    9.9149   -8.9857    0.0000 C   0  0  0  0  0  0  0  0  0  0  0  0
    9.5024   -9.7001    0.0000 C   0  0  0  0  0  0  0  0  0  0  0  0
    8.6866   -9.8231    0.0000 C   0  0  0  0  0  0  0  0  0  0  0  0
    8.0818   -9.2620    0.0000 O   0  0  0  0  0  0  0  0  0  0  0  0
    8.1435   -8.4393    0.0000 C   0  0  0  0  0  0  0  0  0  0  0  0
    8.2228   -8.8579    0.0000 C   0  0  0  0  0  0  0  0  0  0  0  0
   10.7399   -8.9857    0.0000 C   0  0  0  0  0  0  0  0  0  0  0  0
   11.1524   -8.2712    0.0000 O   0  0  0  0  0  0  0  0  0  0  0  0
   11.1524   -9.7001    0.0000 O   0  0  0  0  0  0  0  0  0  0  0  0
    7.3978   -8.8579    0.0000 O   0  0  0  0  0  0  0  0  0  0  0  0
   10.3274   -9.7001    0.0000 O   0  0  0  0  0  0  0  0  0  0  0  0
    7.4290   -8.0268    0.0000 C   0  0  0  0  0  0  0  0  0  0  0  0
    6.7145   -8.4393    0.0000 O   0  0  0  0  0  0  0  0  0  0  0  0
    6.0000   -8.0268    0.0000 C   0  0  0  0  0  0  0  0  0  0  0  0
    5.2856   -8.4393    0.0000 C   0  0  0  0  0  0  0  0  0  0  0  0
    4.5711   -8.0268    0.0000 C   0  0  0  0  0  0  0  0  0  0  0  0
    3.8566   -8.4393    0.0000 C   0  0  0  0  0  0  0  0  0  0  0  0
    3.1422   -8.0268    0.0000 C   0  0  0  0  0  0  0  0  0  0  0  0
    2.4277   -8.4393    0.0000 C   0  0  0  0  0  0  0  0  0  0  0  0
    2.4277   -9.2643    0.0000 C   0  0  0  0  0  0  0  0  0  0  0  0
    3.1422   -9.6768    0.0000 C   0  0  0  0  0  0  0  0  0  0  0  0
    3.8566   -9.2643    0.0000 C   0  0  0  0  0  0  0  0  0  0  0  0
    6.0000   -7.2018    0.0000 O   0  0  0  0  0  0  0  0  0  0  0  0
   11.9774   -9.7001    0.0000 C   0  0  0  0  0  0  0  0  0  0  0  0
  1  2  1  0  0  0  0
  2  3  1  0  0  0  0
  3  4  1  0  0  0  0
  4  5  1  0  0  0  0
  5  6  1  0  0  0  0
  6  7  1  0  0  0  0
  1  7  1  0  0  0  0
  1  8  1  0  0  0  0
  8  5  1  0  0  0  0
  9 10  2  0  0  0  0
  9 11  1  0  0  0  0
  3  9  1  0  0  0  0
  8 12  1  0  0  0  0
  3 13  1  0  0  0  0
 16 17  1  0  0  0  0
 17 18  2  0  0  0  0
 18 19  1  0  0  0  0
 19 20  1  0  0  0  0
 20 21  2  0  0  0  0
 21 22  1  0  0  0  0
 22 23  2  0  0  0  0
 23 24  1  0  0  0  0
 19 24  2  0  0  0  0
 16 25  2  0  0  0  0
 15 16  1  0  0  0  0
 14 15  1  0  0  0  0
  7 14  1  0  0  0  0
 11 26  1  0  0  0  0
M  END
>  <cdx:groupId>
82

>  <cdx:fragmentId>
5

$$$$
