94042.cdx
  Mrv1902 05222410192D          

 42 43  0  0  0  0            999 V2000
    5.1272   -8.6866    0.0000 C   0  0  0  0  0  0  0  0  0  0  0  0
    5.8415   -9.0989    0.0000 C   0  0  0  0  0  0  0  0  0  0  0  0
    6.5557   -8.6866    0.0000 C   0  0  0  0  0  0  0  0  0  0  0  0
    7.2700   -9.0989    0.0000 C   0  0  0  0  0  0  0  0  0  0  0  0
    7.9842   -8.6866    0.0000 C   0  0  0  0  0  0  0  0  0  0  0  0
    8.6985   -9.0989    0.0000 C   0  0  0  0  0  0  0  0  0  0  0  0
    9.4127   -8.6866    0.0000 C   0  0  0  0  0  0  0  0  0  0  0  0
   10.1269   -9.0989    0.0000 C   0  0  0  0  0  0  0  0  0  0  0  0
   10.8412   -8.6866    0.0000 C   0  0  0  0  0  0  0  0  0  0  0  0
   11.5554   -9.0989    0.0000 C   0  0  0  0  0  0  0  0  0  0  0  0
   12.2697   -8.6866    0.0000 C   0  0  0  0  0  0  0  0  0  0  0  0
   12.9839   -9.0989    0.0000 C   0  0  0  0  0  0  0  0  0  0  0  0
   13.6982   -8.6866    0.0000 C   0  0  0  0  0  0  0  0  0  0  0  0
   14.4124   -9.0989    0.0000 C   0  0  0  0  0  0  0  0  0  0  0  0
   15.1267   -8.6866    0.0000 C   0  0  0  0  0  0  0  0  0  0  0  0
   15.8409   -9.0989    0.0000 C   0  0  0  0  0  0  0  0  0  0  0  0
   16.5552   -8.6866    0.0000 C   0  0  0  0  0  0  0  0  0  0  0  0
   17.2694   -9.0989    0.0000 C   0  0  0  0  0  0  0  0  0  0  0  0
   15.8409   -9.9237    0.0000 C   0  0  0  0  0  0  0  0  0  0  0  0
   12.9839   -9.9237    0.0000 C   0  0  0  0  0  0  0  0  0  0  0  0
    9.4127   -7.8618    0.0000 C   0  0  0  0  0  0  0  0  0  0  0  0
    6.5557   -7.8618    0.0000 C   0  0  0  0  0  0  0  0  0  0  0  0
    5.1272  -10.3360    0.0000 C   0  0  0  0  0  0  0  0  0  0  0  0
    3.2864   -7.9723    0.0000 C   0  0  0  0  0  0  0  0  0  0  0  0
    4.1111   -7.9723    0.0000 C   0  0  0  0  0  0  0  0  0  0  0  0
    2.2702  -10.3360    0.0000 O   0  0  0  0  0  0  0  0  0  0  0  0
    2.9845   -9.0989    0.0000 C   0  0  0  0  0  0  0  0  0  0  0  0
    3.6987   -8.6866    0.0000 C   0  0  0  0  0  0  0  0  0  0  0  0
    4.4130   -9.0989    0.0000 C   0  0  0  0  0  0  0  0  0  0  0  0
    4.4130   -9.9237    0.0000 C   0  0  0  0  0  0  0  0  0  0  0  0
    3.6987  -10.3360    0.0000 C   0  0  0  0  0  0  0  0  0  0  0  0
    2.9845   -9.9237    0.0000 C   0  0  1  0  0  0  0  0  0  0  0  0
   20.1264   -7.4494    0.0000 O   0  0  0  0  0  0  0  0  0  0  0  0
   17.2694   -7.4494    0.0000 C   0  0  0  0  0  0  0  0  0  0  0  0
   19.1103   -9.8132    0.0000 C   0  0  0  0  0  0  0  0  0  0  0  0
   18.2855   -9.8132    0.0000 C   0  0  0  0  0  0  0  0  0  0  0  0
   18.6979   -9.0989    0.0000 C   0  0  0  0  0  0  0  0  0  0  0  0
   19.4121   -8.6866    0.0000 C   0  0  0  0  0  0  0  0  0  0  0  0
   19.4121   -7.8618    0.0000 C   0  0  1  0  0  0  0  0  0  0  0  0
   18.6979   -7.4494    0.0000 C   0  0  0  0  0  0  0  0  0  0  0  0
   17.9837   -7.8618    0.0000 C   0  0  0  0  0  0  0  0  0  0  0  0
   17.9837   -8.6866    0.0000 C   0  0  0  0  0  0  0  0  0  0  0  0
 30 23  1  0  0  0  0
 28 24  1  0  0  0  0
 28 25  1  0  0  0  0
 32 26  1  1  0  0  0
 32 27  1  0  0  0  0
 28 27  1  0  0  0  0
 29 28  1  0  0  0  0
 30 29  2  0  0  0  0
 31 30  1  0  0  0  0
 32 31  1  0  0  0  0
 39 33  1  1  0  0  0
 41 34  1  0  0  0  0
 37 35  1  0  0  0  0
 37 36  1  0  0  0  0
 42 37  1  0  0  0  0
 38 37  1  0  0  0  0
 39 38  1  0  0  0  0
 40 39  1  0  0  0  0
 41 40  1  0  0  0  0
 42 41  2  0  0  0  0
  1  2  2  0  0  0  0
  2  3  1  0  0  0  0
  3  4  2  0  0  0  0
  4  5  1  0  0  0  0
  5  6  2  0  0  0  0
  6  7  1  0  0  0  0
  7  8  2  0  0  0  0
  8  9  1  0  0  0  0
  9 10  2  0  0  0  0
 10 11  1  0  0  0  0
 11 12  2  0  0  0  0
 12 13  1  0  0  0  0
 13 14  2  0  0  0  0
 14 15  1  0  0  0  0
 15 16  2  0  0  0  0
 16 17  1  0  0  0  0
 17 18  2  0  0  0  0
 16 19  1  0  0  0  0
 12 20  1  0  0  0  0
  7 21  1  0  0  0  0
  3 22  1  0  0  0  0
 18 42  1  0  0  0  0
 29  1  1  0  0  0  0
M  END
>  <cdx:fragmentId>
25

$$$$
