94041.cdx
  Mrv1902 05222410202D          

 44 47  0  0  0  0            999 V2000
   18.4186   -8.3298    0.0000 C   0  0  2  0  0  0  0  0  0  0  0  0
   19.2433   -8.3298    0.0000 C   0  0  0  0  0  0  0  0  0  0  0  0
   19.6557   -9.0441    0.0000 C   0  0  2  0  0  0  0  0  0  0  0  0
   19.2433   -9.7583    0.0000 C   0  0  0  0  0  0  0  0  0  0  0  0
   18.4186   -9.7583    0.0000 C   0  0  0  0  0  0  0  0  0  0  0  0
   18.0062   -9.0441    0.0000 C   0  0  2  0  0  0  0  0  0  0  0  0
   17.5938   -8.3298    0.0000 O   0  0  0  0  0  0  0  0  0  0  0  0
   20.4804   -9.0441    0.0000 O   0  0  0  0  0  0  0  0  0  0  0  0
   18.4186  -10.5830    0.0000 C   0  0  0  0  0  0  0  0  0  0  0  0
   17.7043  -10.1707    0.0000 C   0  0  0  0  0  0  0  0  0  0  0  0
   18.4186   -7.5051    0.0000 C   0  0  0  0  0  0  0  0  0  0  0  0
   17.2919   -9.4564    0.0000 C   0  0  0  0  0  0  0  0  0  0  0  0
   16.5777   -9.0441    0.0000 C   0  0  0  0  0  0  0  0  0  0  0  0
   15.8634   -9.4564    0.0000 C   0  0  0  0  0  0  0  0  0  0  0  0
   15.1492   -9.0441    0.0000 C   0  0  0  0  0  0  0  0  0  0  0  0
   14.4350   -9.4564    0.0000 C   0  0  0  0  0  0  0  0  0  0  0  0
   13.7207   -9.0441    0.0000 C   0  0  0  0  0  0  0  0  0  0  0  0
   13.0065   -9.4564    0.0000 C   0  0  0  0  0  0  0  0  0  0  0  0
   12.2922   -9.0441    0.0000 C   0  0  0  0  0  0  0  0  0  0  0  0
   11.5780   -9.4564    0.0000 C   0  0  0  0  0  0  0  0  0  0  0  0
   10.8637   -9.0441    0.0000 C   0  0  0  0  0  0  0  0  0  0  0  0
   10.1495   -9.4564    0.0000 C   0  0  0  0  0  0  0  0  0  0  0  0
    9.4352   -9.0441    0.0000 C   0  0  0  0  0  0  0  0  0  0  0  0
    8.7210   -9.4564    0.0000 C   0  0  0  0  0  0  0  0  0  0  0  0
    8.0067   -9.0441    0.0000 C   0  0  0  0  0  0  0  0  0  0  0  0
    7.2925   -9.4564    0.0000 C   0  0  0  0  0  0  0  0  0  0  0  0
    6.5782   -9.0441    0.0000 C   0  0  0  0  0  0  0  0  0  0  0  0
    5.8640   -9.4564    0.0000 C   0  0  0  0  0  0  0  0  0  0  0  0
    5.1498   -9.0441    0.0000 C   0  0  0  0  0  0  0  0  0  0  0  0
    6.5782   -8.2193    0.0000 C   0  0  0  0  0  0  0  0  0  0  0  0
    9.4352   -8.2193    0.0000 C   0  0  0  0  0  0  0  0  0  0  0  0
   13.0065  -10.2812    0.0000 C   0  0  0  0  0  0  0  0  0  0  0  0
   15.8634  -10.2812    0.0000 C   0  0  0  0  0  0  0  0  0  0  0  0
    4.4355   -9.4564    0.0000 C   0  0  2  0  0  0  0  0  0  0  0  0
    4.0231   -8.7422    0.0000 C   0  0  0  0  0  0  0  0  0  0  0  0
    3.1984   -8.7422    0.0000 C   0  0  0  0  0  0  0  0  0  0  0  0
    2.7860   -9.4564    0.0000 C   0  0  1  0  0  0  0  0  0  0  0  0
    3.1984  -10.1707    0.0000 C   0  0  0  0  0  0  0  0  0  0  0  0
    4.0231  -10.1707    0.0000 C   0  0  1  0  0  0  0  0  0  0  0  0
    4.8479  -10.1707    0.0000 O   0  0  0  0  0  0  0  0  0  0  0  0
    4.0231  -10.9954    0.0000 C   0  0  0  0  0  0  0  0  0  0  0  0
    4.0231   -7.9174    0.0000 C   0  0  0  0  0  0  0  0  0  0  0  0
    4.7374   -8.3298    0.0000 C   0  0  0  0  0  0  0  0  0  0  0  0
    1.9613   -9.4564    0.0000 O   0  0  0  0  0  0  0  0  0  0  0  0
  1  2  1  0  0  0  0
  2  3  1  0  0  0  0
  3  4  1  0  0  0  0
  4  5  1  0  0  0  0
  5  6  1  0  0  0  0
  6  7  1  0  0  0  0
  1  7  1  0  0  0  0
  1  6  1  0  0  0  0
  3  8  1  1  0  0  0
  5  9  1  0  0  0  0
  5 10  1  0  0  0  0
  1 11  1  1  0  0  0
 12 13  2  0  0  0  0
 13 14  1  0  0  0  0
 14 15  2  0  0  0  0
 15 16  1  0  0  0  0
 16 17  2  0  0  0  0
 17 18  1  0  0  0  0
 18 19  2  0  0  0  0
 19 20  1  0  0  0  0
 20 21  2  0  0  0  0
 21 22  1  0  0  0  0
 22 23  2  0  0  0  0
 23 24  1  0  0  0  0
 24 25  2  0  0  0  0
 25 26  1  0  0  0  0
 26 27  2  0  0  0  0
 27 28  1  0  0  0  0
 28 29  2  0  0  0  0
 27 30  1  0  0  0  0
 23 31  1  0  0  0  0
 18 32  1  0  0  0  0
 14 33  1  0  0  0  0
 34 35  1  0  0  0  0
 35 36  1  0  0  0  0
 36 37  1  0  0  0  0
 37 38  1  0  0  0  0
 38 39  1  0  0  0  0
 39 40  1  0  0  0  0
 34 40  1  0  0  0  0
 34 39  1  0  0  0  0
 39 41  1  1  0  0  0
 35 42  1  0  0  0  0
 35 43  1  0  0  0  0
 37 44  1  1  0  0  0
 34 29  1  1  0  0  0
  6 12  1  1  0  0  0
M  END
>  <cdx:fragmentId>
27

$$$$
