94054.cdx
  Mrv1902 05222410202D          

 31 33  0  0  0  0            999 V2000
    6.3368   -5.8163    0.0000 C   0  0  0  0  0  0  0  0  0  0  0  0
    6.3368   -6.6413    0.0000 C   0  0  0  0  0  0  0  0  0  0  0  0
    7.0513   -7.0537    0.0000 C   0  0  0  0  0  0  0  0  0  0  0  0
    7.7657   -6.6413    0.0000 C   0  0  0  0  0  0  0  0  0  0  0  0
    7.7657   -5.8163    0.0000 C   0  0  0  0  0  0  0  0  0  0  0  0
    7.0513   -5.4037    0.0000 C   0  0  0  0  0  0  0  0  0  0  0  0
    8.4802   -7.0537    0.0000 O   0  0  0  0  0  0  0  0  0  0  0  0
    9.1947   -6.6413    0.0000 C   0  0  0  0  0  0  0  0  0  0  0  0
    9.1947   -5.8163    0.0000 C   0  0  0  0  0  0  0  0  0  0  0  0
    8.4802   -5.4037    0.0000 C   0  0  0  0  0  0  0  0  0  0  0  0
    5.6223   -7.0537    0.0000 O   0  0  0  0  0  0  0  0  0  0  0  0
    5.6223   -7.8788    0.0000 C   0  0  0  0  0  0  0  0  0  0  0  0
    6.3368   -8.2912    0.0000 C   0  0  1  0  0  0  0  0  0  0  0  0
    7.0513   -7.8788    0.0000 C   0  0  2  0  0  0  0  0  0  0  0  0
    6.3368   -9.1162    0.0000 O   0  0  0  0  0  0  0  0  0  0  0  0
    7.0513   -9.5287    0.0000 O   0  0  0  0  0  0  0  0  0  0  0  0
    7.7657   -9.1162    0.0000 C   0  0  0  0  0  0  0  0  0  0  0  0
    7.7657   -8.2912    0.0000 O   0  0  0  0  0  0  0  0  0  0  0  0
    8.4802  -10.3537    0.0000 C   0  0  0  0  0  0  0  0  0  0  0  0
    8.4802   -9.5287    0.0000 C   0  0  0  0  0  0  0  0  0  0  0  0
    4.9079   -9.1162    0.0000 C   0  0  0  0  0  0  0  0  0  0  0  0
    5.6223   -9.5287    0.0000 C   0  0  0  0  0  0  0  0  0  0  0  0
    5.6223  -10.3537    0.0000 O   0  0  0  0  0  0  0  0  0  0  0  0
    9.9092   -7.0537    0.0000 O   0  0  0  0  0  0  0  0  0  0  0  0
    5.2098   -8.5932    0.0000 C   0  0  0  0  0  0  0  0  0  0  0  0
    4.8254   -7.6652    0.0000 C   0  0  0  0  0  0  0  0  0  0  0  0
    9.1947  -10.7663    0.0000 C   0  0  0  0  0  0  0  0  0  0  0  0
    4.1934   -9.5287    0.0000 C   0  0  0  0  0  0  0  0  0  0  0  0
    3.4789   -9.1162    0.0000 C   0  0  0  0  0  0  0  0  0  0  0  0
    4.1934  -10.3537    0.0000 C   0  0  0  0  0  0  0  0  0  0  0  0
    9.1947   -9.1162    0.0000 C   0  0  0  0  0  0  0  0  0  0  0  0
  1  2  2  0  0  0  0
  2  3  1  0  0  0  0
  3  4  2  0  0  0  0
  4  5  1  0  0  0  0
  5  6  2  0  0  0  0
  6  1  1  0  0  0  0
  4  7  1  0  0  0  0
  7  8  1  0  0  0  0
  8  9  1  0  0  0  0
  9 10  2  0  0  0  0
 10  5  1  0  0  0  0
  2 11  1  0  0  0  0
 11 12  1  0  0  0  0
 12 13  1  0  0  0  0
 13 14  1  0  0  0  0
 14  3  1  0  0  0  0
 13 15  1  1  0  0  0
 16 17  2  0  0  0  0
 17 18  1  0  0  0  0
 14 18  1  1  0  0  0
 19 20  1  0  0  0  0
 20 17  1  0  0  0  0
 21 22  1  0  0  0  0
 22 15  1  0  0  0  0
 23 22  2  0  0  0  0
  8 24  2  0  0  0  0
 12 25  1  0  0  0  0
 12 26  1  0  0  0  0
 19 27  1  0  0  0  0
 21 28  1  0  0  0  0
 28 29  1  0  0  0  0
 28 30  1  0  0  0  0
 20 31  1  0  0  0  0
M  END
>  <cdx:fragmentId>
5

$$$$
