94051.cdx
  Mrv1902 05222410182D          

 25 26  0  0  0  0            999 V2000
    4.3293   -9.5563    0.0000 C   0  0  0  0  0  0  0  0  0  0  0  0
    4.3293  -10.3812    0.0000 C   0  0  0  0  0  0  0  0  0  0  0  0
    5.0438  -10.7937    0.0000 C   0  0  0  0  0  0  0  0  0  0  0  0
    5.7582  -10.3812    0.0000 C   0  0  0  0  0  0  0  0  0  0  0  0
    5.7582   -9.5563    0.0000 C   0  0  0  0  0  0  0  0  0  0  0  0
    5.0438   -9.1438    0.0000 C   0  0  0  0  0  0  0  0  0  0  0  0
    6.4727   -9.1438    0.0000 C   0  0  2  0  0  0  0  0  0  0  0  0
    6.4727   -8.3187    0.0000 C   0  0  1  0  0  0  0  0  0  0  0  0
    5.7582   -7.9063    0.0000 C   0  0  0  0  0  0  0  0  0  0  0  0
    7.1872   -9.5563    0.0000 O   0  0  0  0  0  0  0  0  0  0  0  0
    7.1872   -7.9063    0.0000 O   0  0  0  0  0  0  0  0  0  0  0  0
    3.6148  -10.7937    0.0000 O   0  0  0  0  0  0  0  0  0  0  0  0
    5.0438  -11.6187    0.0000 O   0  0  0  0  0  0  0  0  0  0  0  0
    5.7582  -12.0313    0.0000 C   0  0  0  0  0  0  0  0  0  0  0  0
    7.9017   -7.4937    0.0000 C   0  0  0  0  0  0  0  0  0  0  0  0
    8.6161   -7.9063    0.0000 C   0  0  0  0  0  0  0  0  0  0  0  0
    9.3306   -7.4937    0.0000 C   0  0  0  0  0  0  0  0  0  0  0  0
    9.3306   -6.6688    0.0000 C   0  0  0  0  0  0  0  0  0  0  0  0
    8.6161   -6.2563    0.0000 C   0  0  0  0  0  0  0  0  0  0  0  0
    7.9017   -6.6688    0.0000 C   0  0  0  0  0  0  0  0  0  0  0  0
    7.1872   -6.2563    0.0000 O   0  0  0  0  0  0  0  0  0  0  0  0
    6.4727   -6.6688    0.0000 C   0  0  0  0  0  0  0  0  0  0  0  0
   10.0451   -6.2563    0.0000 C   0  0  0  0  0  0  0  0  0  0  0  0
   10.0451   -5.4313    0.0000 C   0  0  0  0  0  0  0  0  0  0  0  0
   10.7595   -5.0187    0.0000 C   0  0  0  0  0  0  0  0  0  0  0  0
  1  2  2  0  0  0  0
  2  3  1  0  0  0  0
  3  4  2  0  0  0  0
  4  5  1  0  0  0  0
  5  6  2  0  0  0  0
  6  1  1  0  0  0  0
  5  7  1  0  0  0  0
  7  8  1  0  0  0  0
  8  9  1  0  0  0  0
  7 10  1  6  0  0  0
  8 11  1  1  0  0  0
  2 12  1  0  0  0  0
  3 13  1  0  0  0  0
 13 14  1  0  0  0  0
 11 15  1  0  0  0  0
 15 16  2  0  0  0  0
 16 17  1  0  0  0  0
 17 18  2  0  0  0  0
 18 19  1  0  0  0  0
 19 20  2  0  0  0  0
 20 15  1  0  0  0  0
 20 21  1  0  0  0  0
 21 22  1  0  0  0  0
 18 23  1  0  0  0  0
 23 24  2  0  0  0  0
 24 25  1  0  0  0  0
M  END
>  <cdx:fragmentId>
5

$$$$
