94050.cdx
  Mrv1902 05222410182D          

 34 35  0  0  0  0            999 V2000
    9.4885   -8.8756    0.0000 C   0  0  0  0  0  0  0  0  0  0  0  0
   10.2030   -9.2881    0.0000 O   0  0  0  0  0  0  0  0  0  0  0  0
   10.9175   -9.7006    0.0000 O   0  0  0  0  0  0  0  0  0  0  0  0
   10.2030   -8.4631    0.0000 C   0  0  2  0  0  0  0  0  0  0  0  0
   10.9175   -8.8756    0.0000 C   0  0  1  0  0  0  0  0  0  0  0  0
   11.6320   -8.4631    0.0000 C   0  0  0  0  0  0  0  0  0  0  0  0
    9.4885   -9.7006    0.0000 O   0  0  0  0  0  0  0  0  0  0  0  0
    8.7741   -8.4631    0.0000 O   0  0  0  0  0  0  0  0  0  0  0  0
   11.6320   -7.6381    0.0000 O   0  0  0  0  0  0  0  0  0  0  0  0
   12.3464   -8.8756    0.0000 O   0  0  0  0  0  0  0  0  0  0  0  0
   10.2030   -7.6381    0.0000 C   0  0  0  0  0  0  0  0  0  0  0  0
    9.4885   -7.2256    0.0000 C   0  0  0  0  0  0  0  0  0  0  0  0
    8.7741   -7.6381    0.0000 C   0  0  0  0  0  0  0  0  0  0  0  0
    9.4885   -6.4006    0.0000 C   0  0  0  0  0  0  0  0  0  0  0  0
   13.0609   -8.4631    0.0000 C   0  0  0  0  0  0  0  0  0  0  0  0
    8.0596   -8.8756    0.0000 C   0  0  0  0  0  0  0  0  0  0  0  0
    7.3451   -8.4631    0.0000 C   0  0  0  0  0  0  0  0  0  0  0  0
    6.6307   -8.8756    0.0000 C   0  0  0  0  0  0  0  0  0  0  0  0
    5.9162   -8.4631    0.0000 C   0  0  0  0  0  0  0  0  0  0  0  0
    5.9162   -7.6381    0.0000 C   0  0  0  0  0  0  0  0  0  0  0  0
    6.6307   -7.2256    0.0000 C   0  0  0  0  0  0  0  0  0  0  0  0
    7.3451   -7.6381    0.0000 C   0  0  0  0  0  0  0  0  0  0  0  0
    5.2017   -7.2256    0.0000 O   0  0  0  0  0  0  0  0  0  0  0  0
    4.4873   -7.6381    0.0000 C   0  0  1  0  0  0  0  0  0  0  0  0
    4.4873   -8.4631    0.0000 C   0  0  2  0  0  0  0  0  0  0  0  0
    5.2017   -8.8756    0.0000 O   0  0  0  0  0  0  0  0  0  0  0  0
    3.7728   -8.8756    0.0000 C   0  0  1  0  0  0  0  0  0  0  0  0
    3.7728   -9.7006    0.0000 O   0  0  0  0  0  0  0  0  0  0  0  0
    3.0583   -8.4631    0.0000 C   0  0  2  0  0  0  0  0  0  0  0  0
    2.3438   -8.8756    0.0000 O   0  0  0  0  0  0  0  0  0  0  0  0
    3.0583   -7.6381    0.0000 C   0  0  2  0  0  0  0  0  0  0  0  0
    3.7728   -7.2256    0.0000 O   0  0  0  0  0  0  0  0  0  0  0  0
    2.3438   -7.2256    0.0000 C   0  0  0  0  0  0  0  0  0  0  0  0
    1.6294   -7.6381    0.0000 O   0  0  0  0  0  0  0  0  0  0  0  0
  1  4  1  0  0  0  0
  4  2  1  6  0  0  0
  4  5  1  0  0  0  0
  5  3  1  1  0  0  0
  5  6  1  0  0  0  0
  1  7  2  0  0  0  0
  1  8  1  0  0  0  0
  6  9  2  0  0  0  0
  6 10  1  0  0  0  0
 11 12  1  0  0  0  0
 12 13  1  0  0  0  0
 14 12  1  0  0  0  0
  4 11  1  0  0  0  0
 10 15  1  0  0  0  0
 16 17  1  0  0  0  0
 17 18  1  0  0  0  0
 18 19  2  0  0  0  0
 19 20  1  0  0  0  0
 20 21  2  0  0  0  0
 21 22  1  0  0  0  0
 17 22  2  0  0  0  0
 24 25  1  0  0  0  0
 25 26  1  6  0  0  0
 25 27  1  0  0  0  0
 27 28  1  1  0  0  0
 27 29  1  0  0  0  0
 29 30  1  6  0  0  0
 29 31  1  0  0  0  0
 31 32  1  0  0  0  0
 31 33  1  1  0  0  0
 33 34  1  0  0  0  0
 24 32  1  0  0  0  0
 24 23  1  1  0  0  0
 20 23  1  0  0  0  0
  8 16  1  0  0  0  0
M  END
>  <cdx:groupId>
105

>  <cdx:fragmentId>
51

$$$$
