94065.cdx
  Mrv1902 05222410262D          

 28 30  0  0  0  0            999 V2000
    5.8372   -7.6037    0.0000 C   0  0  0  0  0  0  0  0  0  0  0  0
    5.8372   -8.4288    0.0000 C   0  0  1  0  0  0  0  0  0  0  0  0
    6.4822   -8.9431    0.0000 C   0  0  1  0  0  0  0  0  0  0  0  0
    7.2865   -8.7595    0.0000 C   0  0  2  0  0  0  0  0  0  0  0  0
    7.6445   -8.0162    0.0000 C   0  0  1  0  0  0  0  0  0  0  0  0
    7.2865   -7.2730    0.0000 C   0  0  2  0  0  0  0  0  0  0  0  0
    6.4822   -7.0894    0.0000 C   0  0  0  0  0  0  0  0  0  0  0  0
    5.1487   -8.8832    0.0000 C   0  0  0  0  0  0  0  0  0  0  0  0
    5.3682   -9.6785    0.0000 C   0  0  2  0  0  0  0  0  0  0  0  0
    6.1923   -9.7155    0.0000 C   0  0  1  0  0  0  0  0  0  0  0  0
    5.0939   -7.2458    0.0000 C   0  0  0  0  0  0  0  0  0  0  0  0
    7.8828   -9.3297    0.0000 O   0  0  0  0  0  0  0  0  0  0  0  0
    8.6093   -8.9387    0.0000 C   0  0  0  0  0  0  0  0  0  0  0  0
    8.4620   -8.1270    0.0000 C   0  0  0  0  0  0  0  0  0  0  0  0
    9.0322   -7.5307    0.0000 C   0  0  0  0  0  0  0  0  0  0  0  0
    9.3526   -9.2967    0.0000 O   0  0  0  0  0  0  0  0  0  0  0  0
    7.8009   -6.6279    0.0000 O   0  0  0  0  0  0  0  0  0  0  0  0
    7.4995   -5.8600    0.0000 C   0  0  0  0  0  0  0  0  0  0  0  0
    8.0139   -5.2150    0.0000 C   0  0  0  0  0  0  0  0  0  0  0  0
    6.6837   -5.7370    0.0000 O   0  0  0  0  0  0  0  0  0  0  0  0
    7.7125   -4.4470    0.0000 C   0  0  0  0  0  0  0  0  0  0  0  0
    8.2269   -3.8020    0.0000 C   0  0  0  0  0  0  0  0  0  0  0  0
    6.8967   -4.3240    0.0000 C   0  0  0  0  0  0  0  0  0  0  0  0
    6.1923  -10.5405    0.0000 O   0  0  0  0  0  0  0  0  0  0  0  0
    6.9892   -9.9290    0.0000 C   0  0  0  0  0  0  0  0  0  0  0  0
    5.1227   -8.0162    0.0000 O   0  0  0  0  0  0  0  0  0  0  0  0
    7.0656   -9.5265    0.0000 H   0  0  0  0  0  0  0  0  0  0  0  0
    4.8538  -10.3235    0.0000 O   0  0  0  0  0  0  0  0  0  0  0  0
  1  2  1  0  0  0  0
  2  3  1  0  0  0  0
  3  4  1  0  0  0  0
  4  5  1  0  0  0  0
  5  6  1  0  0  0  0
  6  7  1  0  0  0  0
  7  1  2  0  0  0  0
  2  8  1  0  0  0  0
  8  9  1  0  0  0  0
  9 10  1  0  0  0  0
 10  3  1  0  0  0  0
  1 11  1  0  0  0  0
  4 12  1  6  0  0  0
 12 13  1  0  0  0  0
 13 14  1  0  0  0  0
  5 14  1  1  0  0  0
 14 15  2  0  0  0  0
 13 16  2  0  0  0  0
  6 17  1  6  0  0  0
 17 18  1  0  0  0  0
 18 19  1  0  0  0  0
 18 20  2  0  0  0  0
 19 21  1  0  0  0  0
 21 22  1  0  0  0  0
 21 23  1  0  0  0  0
 10 24  1  0  0  0  0
 10 25  1  1  0  0  0
  2 26  1  6  0  0  0
  3 27  1  6  0  0  0
  9 28  1  6  0  0  0
M  END
>  <cdx:fragmentId>
5

$$$$
