94061.cdx
  Mrv1902 05222410282D          

 26 28  0  0  0  0            999 V2000
    5.4838   -6.2155    0.0000 C   0  0  0  0  0  0  0  0  0  0  0  0
    5.0713   -6.9300    0.0000 C   0  0  0  0  0  0  0  0  0  0  0  0
    5.4838   -7.6445    0.0000 C   0  0  0  0  0  0  0  0  0  0  0  0
    6.3088   -7.6445    0.0000 C   0  0  0  0  0  0  0  0  0  0  0  0
    6.7213   -6.9300    0.0000 C   0  0  0  0  0  0  0  0  0  0  0  0
    6.3088   -6.2155    0.0000 C   0  0  0  0  0  0  0  0  0  0  0  0
    5.0713   -8.3589    0.0000 O   0  0  0  0  0  0  0  0  0  0  0  0
    5.0713   -5.5011    0.0000 C   0  0  0  0  0  0  0  0  0  0  0  0
    4.2463   -5.5011    0.0000 C   0  0  0  0  0  0  0  0  0  0  0  0
    3.8338   -4.7866    0.0000 C   0  0  0  0  0  0  0  0  0  0  0  0
    6.8608   -8.2576    0.0000 O   0  0  0  0  0  0  0  0  0  0  0  0
    7.6145   -7.9220    0.0000 C   0  0  2  0  0  0  0  0  0  0  0  0
    7.5282   -7.1015    0.0000 C   0  0  2  0  0  0  0  0  0  0  0  0
    8.1413   -6.5495    0.0000 C   0  0  0  0  0  0  0  0  0  0  0  0
    8.9260   -6.8044    0.0000 O   0  0  0  0  0  0  0  0  0  0  0  0
    8.3290   -8.3345    0.0000 C   0  0  0  0  0  0  0  0  0  0  0  0
    8.3290   -9.1595    0.0000 C   0  0  0  0  0  0  0  0  0  0  0  0
    9.0434   -9.5720    0.0000 C   0  0  0  0  0  0  0  0  0  0  0  0
    9.7579   -9.1595    0.0000 C   0  0  0  0  0  0  0  0  0  0  0  0
    9.7579   -8.3345    0.0000 C   0  0  0  0  0  0  0  0  0  0  0  0
    9.0434   -7.9220    0.0000 C   0  0  0  0  0  0  0  0  0  0  0  0
    9.0434  -10.3970    0.0000 O   0  0  0  0  0  0  0  0  0  0  0  0
    8.3290  -10.8095    0.0000 C   0  0  0  0  0  0  0  0  0  0  0  0
   10.4724   -9.5720    0.0000 O   0  0  0  0  0  0  0  0  0  0  0  0
    5.4838   -9.0734    0.0000 C   0  0  0  0  0  0  0  0  0  0  0  0
    3.0088   -4.7866    0.0000 O   0  0  0  0  0  0  0  0  0  0  0  0
  1  2  2  0  0  0  0
  2  3  1  0  0  0  0
  3  4  2  0  0  0  0
  4  5  1  0  0  0  0
  5  6  2  0  0  0  0
  6  1  1  0  0  0  0
  3  7  1  0  0  0  0
  1  8  1  0  0  0  0
  8  9  2  0  0  0  0
  9 10  1  0  0  0  0
  4 11  1  0  0  0  0
 11 12  1  0  0  0  0
 12 13  1  0  0  0  0
 13  5  1  0  0  0  0
 13 14  1  1  0  0  0
 14 15  1  0  0  0  0
 12 16  1  6  0  0  0
 16 17  2  0  0  0  0
 17 18  1  0  0  0  0
 18 19  2  0  0  0  0
 19 20  1  0  0  0  0
 20 21  2  0  0  0  0
 21 16  1  0  0  0  0
 18 22  1  0  0  0  0
 22 23  1  0  0  0  0
 19 24  1  0  0  0  0
  7 25  1  0  0  0  0
 10 26  2  0  0  0  0
M  END
>  <cdx:fragmentId>
5

$$$$
