94064.cdx
  Mrv1902 05222410262D          

 24 26  0  0  0  0            999 V2000
    5.8888   -7.4463    0.0000 O   0  0  0  0  0  0  0  0  0  0  0  0
    5.6811   -9.8686    0.0000 O   0  0  0  0  0  0  0  0  0  0  0  0
    6.2859   -9.3074    0.0000 C   0  0  0  0  0  0  0  0  0  0  0  0
    4.7836   -6.1879    0.0000 O   0  0  0  0  0  0  0  0  0  0  0  0
    8.8907   -6.7512    0.0000 C   0  0  0  0  0  0  0  0  0  0  0  0
    7.4618  -10.8762    0.0000 C   0  0  0  0  0  0  0  0  0  0  0  0
    6.1023   -6.6494    0.0000 C   0  0  1  0  0  0  0  0  0  0  0  0
    5.2980   -6.8330    0.0000 C   0  0  0  0  0  0  0  0  0  0  0  0
    4.9400   -7.5762    0.0000 C   0  0  0  0  0  0  0  0  0  0  0  0
    5.2980   -8.3195    0.0000 C   0  0  0  0  0  0  0  0  0  0  0  0
    6.1023   -8.5031    0.0000 C   0  0  2  0  0  0  0  0  0  0  0  0
    8.1762   -7.1638    0.0000 O   0  0  0  0  0  0  0  0  0  0  0  0
    7.4618   -6.7512    0.0000 C   0  0  0  0  0  0  0  0  0  0  0  0
    6.7473   -7.1638    0.0000 C   0  0  2  0  0  0  0  0  0  0  0  0
    6.7473   -7.9888    0.0000 C   0  0  1  0  0  0  0  0  0  0  0  0
    8.1762  -10.4637    0.0000 O   0  0  0  0  0  0  0  0  0  0  0  0
    9.6052  -10.4637    0.0000 C   0  0  0  0  0  0  0  0  0  0  0  0
    9.6052   -9.6387    0.0000 O   0  0  0  0  0  0  0  0  0  0  0  0
    8.1762   -7.9888    0.0000 C   0  0  0  0  0  0  0  0  0  0  0  0
    7.4618   -8.4013    0.0000 C   0  0  0  0  0  0  0  0  0  0  0  0
    7.4618   -9.2263    0.0000 C   0  0  0  0  0  0  0  0  0  0  0  0
    8.1762   -9.6387    0.0000 C   0  0  0  0  0  0  0  0  0  0  0  0
    8.8907   -9.2263    0.0000 C   0  0  0  0  0  0  0  0  0  0  0  0
    8.8907   -8.4013    0.0000 C   0  0  0  0  0  0  0  0  0  0  0  0
 11  1  1  6  0  0  0
  7  1  1  6  0  0  0
  3  2  1  0  0  0  0
 11  3  1  6  0  0  0
  8  4  2  0  0  0  0
 12  5  1  0  0  0  0
 16  6  1  0  0  0  0
  7 14  1  0  0  0  0
  8  7  1  0  0  0  0
  9  8  1  0  0  0  0
 10  9  2  0  0  0  0
 11 10  1  0  0  0  0
 15 11  1  0  0  0  0
 12 19  1  0  0  0  0
 14 13  1  6  0  0  0
 15 14  1  0  0  0  0
 15 20  1  1  0  0  0
 16 22  1  0  0  0  0
 18 17  1  0  0  0  0
 23 18  1  0  0  0  0
 19 24  1  0  0  0  0
 20 19  2  0  0  0  0
 21 20  1  0  0  0  0
 22 21  2  0  0  0  0
 23 22  1  0  0  0  0
 24 23  2  0  0  0  0
M  END
>  <cdx:fragmentId>
5

$$$$
