94063.cdx
  Mrv1902 05222410272D          

 24 26  0  0  0  0            999 V2000
    3.9306   -8.0025    0.0000 C   0  0  0  0  0  0  0  0  0  0  0  0
    3.9306   -8.8275    0.0000 C   0  0  0  0  0  0  0  0  0  0  0  0
    4.6450   -9.2400    0.0000 C   0  0  0  0  0  0  0  0  0  0  0  0
    5.3595   -8.8275    0.0000 C   0  0  0  0  0  0  0  0  0  0  0  0
    5.3595   -8.0025    0.0000 C   0  0  0  0  0  0  0  0  0  0  0  0
    4.6450   -7.5900    0.0000 C   0  0  0  0  0  0  0  0  0  0  0  0
    3.2161   -9.2400    0.0000 O   0  0  0  0  0  0  0  0  0  0  0  0
    3.2161  -10.0650    0.0000 C   0  0  0  0  0  0  0  0  0  0  0  0
    4.6450  -10.0650    0.0000 O   0  0  0  0  0  0  0  0  0  0  0  0
    6.0740   -7.5900    0.0000 C   0  0  1  0  0  0  0  0  0  0  0  0
    6.0740   -6.7650    0.0000 C   0  0  2  0  0  0  0  0  0  0  0  0
    5.3595   -6.3525    0.0000 C   0  0  0  0  0  0  0  0  0  0  0  0
    4.6450   -6.7650    0.0000 O   0  0  0  0  0  0  0  0  0  0  0  0
    6.7190   -8.1044    0.0000 C   0  0  1  0  0  0  0  0  0  0  0  0
    7.5233   -7.9208    0.0000 C   0  0  0  0  0  0  0  0  0  0  0  0
    7.8812   -7.1775    0.0000 C   0  0  0  0  0  0  0  0  0  0  0  0
    7.5233   -6.4342    0.0000 C   0  0  0  0  0  0  0  0  0  0  0  0
    6.7190   -6.2506    0.0000 C   0  0  1  0  0  0  0  0  0  0  0  0
    5.3595  -10.4775    0.0000 C   0  0  0  0  0  0  0  0  0  0  0  0
    3.9306   -6.3525    0.0000 C   0  0  0  0  0  0  0  0  0  0  0  0
    8.0377   -5.7892    0.0000 O   0  0  0  0  0  0  0  0  0  0  0  0
    6.5354   -8.9087    0.0000 C   0  0  0  0  0  0  0  0  0  0  0  0
    7.1402   -9.4698    0.0000 O   0  0  0  0  0  0  0  0  0  0  0  0
    6.9325   -7.0475    0.0000 O   0  0  0  0  0  0  0  0  0  0  0  0
  1  2  2  0  0  0  0
  2  3  1  0  0  0  0
  3  4  2  0  0  0  0
  4  5  1  0  0  0  0
  5  6  2  0  0  0  0
  6  1  1  0  0  0  0
  2  7  1  0  0  0  0
  7  8  1  0  0  0  0
  9  3  1  0  0  0  0
 10  5  1  1  0  0  0
 10 11  1  0  0  0  0
 11 12  1  6  0  0  0
 13  6  1  0  0  0  0
 10 14  1  0  0  0  0
 14 15  1  0  0  0  0
 15 16  2  0  0  0  0
 16 17  1  0  0  0  0
 17 18  1  0  0  0  0
 18 11  1  0  0  0  0
  9 19  1  0  0  0  0
 13 20  1  0  0  0  0
 17 21  2  0  0  0  0
 14 22  1  6  0  0  0
 22 23  1  0  0  0  0
 18 24  1  6  0  0  0
 14 24  1  6  0  0  0
M  END
>  <cdx:fragmentId>
5

$$$$
