94060.cdx
  Mrv1902 05222410282D          

 11 10  0  0  0  0            999 V2000
    6.9070   -5.3349    0.0000 C   0  0  0  0  0  0  0  0  0  0  0  0
    6.1925   -4.9224    0.0000 C   0  0  0  0  0  0  0  0  0  0  0  0
    5.4781   -5.3349    0.0000 C   0  0  0  0  0  0  0  0  0  0  0  0
    5.4781   -6.1599    0.0000 C   0  0  0  0  0  0  0  0  0  0  0  0
    8.3360   -6.1599    0.0000 C   0  0  0  0  0  0  0  0  0  0  0  0
    4.7636   -4.9224    0.0000 C   0  0  0  0  0  0  0  0  0  0  0  0
    9.0504   -4.9224    0.0000 C   0  0  0  0  0  0  0  0  0  0  0  0
    8.3360   -5.3349    0.0000 C   0  0  0  0  0  0  0  0  0  0  0  0
    8.3360   -3.6849    0.0000 O   0  0  0  0  0  0  0  0  0  0  0  0
    7.6215   -4.9224    0.0000 C   0  0  0  0  0  0  0  0  0  0  0  0
    7.6215   -4.0974    0.0000 C   0  0  0  0  0  0  0  0  0  0  0  0
 10  8  1  0  0  0  0
  8  5  1  0  0  0  0
  8  7  2  0  0  0  0
 11  9  1  0  0  0  0
 11 10  1  0  0  0  0
 10  1  1  0  0  0  0
  1  2  1  0  0  0  0
  2  3  2  0  0  0  0
  3  4  1  0  0  0  0
  3  6  1  0  0  0  0
M  END
>  <cdx:fragmentId>
5

$$$$
