94066.cdx
  Mrv1902 05222410262D          

 37 43  0  0  0  0            999 V2000
    5.4188   -8.9463    0.0000 C   0  0  0  0  0  0  0  0  0  0  0  0
    5.9847   -9.5466    0.0000 C   0  0  2  0  0  0  0  0  0  0  0  0
    6.8069   -9.4785    0.0000 C   0  0  0  0  0  0  0  0  0  0  0  0
    7.2662   -8.7932    0.0000 C   0  0  0  0  0  0  0  0  0  0  0  0
    7.0169   -8.0068    0.0000 C   0  0  0  0  0  0  0  0  0  0  0  0
    6.2465   -7.7114    0.0000 C   0  0  1  0  0  0  0  0  0  0  0  0
    5.5353   -8.1295    0.0000 C   0  0  2  0  0  0  0  0  0  0  0  0
    5.7954  -10.3496    0.0000 C   0  0  0  0  0  0  0  0  0  0  0  0
    6.5006  -10.7777    0.0000 C   0  0  0  0  0  0  0  0  0  0  0  0
    7.1257  -10.2393    0.0000 C   0  0  0  0  0  0  0  0  0  0  0  0
    6.0687   -6.9058    0.0000 C   0  0  2  0  0  0  0  0  0  0  0  0
    5.2475   -6.8260    0.0000 C   0  0  0  0  0  0  0  0  0  0  0  0
    4.9179   -7.5823    0.0000 O   0  0  0  0  0  0  0  0  0  0  0  0
    6.8898   -6.9856    0.0000 C   0  0  2  0  0  0  0  0  0  0  0  0
    7.2194   -6.2293    0.0000 C   0  0  1  0  0  0  0  0  0  0  0  0
    6.6020   -5.6821    0.0000 C   0  0  2  0  0  0  0  0  0  0  0  0
    5.8908   -6.1002    0.0000 C   0  0  0  0  0  0  0  0  0  0  0  0
    8.0322   -6.0877    0.0000 C   0  0  2  0  0  0  0  0  0  0  0  0
    8.4282   -5.3640    0.0000 C   0  0  1  0  0  0  0  0  0  0  0  0
    8.1094   -4.6031    0.0000 C   0  0  0  0  0  0  0  0  0  0  0  0
    7.3157   -4.3780    0.0000 C   0  0  0  0  0  0  0  0  0  0  0  0
    6.6448   -4.8582    0.0000 C   0  0  1  0  0  0  0  0  0  0  0  0
    8.5981   -6.6881    0.0000 O   0  0  0  0  0  0  0  0  0  0  0  0
    9.3439   -6.3354    0.0000 C   0  0  0  0  0  0  0  0  0  0  0  0
    9.2389   -5.5171    0.0000 C   0  0  0  0  0  0  0  0  0  0  0  0
    7.9287  -10.4286    0.0000 O   0  0  0  0  0  0  0  0  0  0  0  0
    8.0830   -8.9097    0.0000 C   0  0  0  0  0  0  0  0  0  0  0  0
    4.8294   -6.1148    0.0000 O   0  0  0  0  0  0  0  0  0  0  0  0
    7.3079   -7.6968    0.0000 C   0  0  0  0  0  0  0  0  0  0  0  0
    6.0615   -4.2749    0.0000 O   0  0  0  0  0  0  0  0  0  0  0  0
    9.8393   -4.9512    0.0000 C   0  0  0  0  0  0  0  0  0  0  0  0
   10.0676   -6.7315    0.0000 O   0  0  0  0  0  0  0  0  0  0  0  0
    6.2582   -6.2178    0.0000 C   0  0  0  0  0  0  0  0  0  0  0  0
    6.3132   -6.6166    0.0000 C   0  0  0  0  0  0  0  0  0  0  0  0
    5.1597   -9.5466    0.0000 C   0  0  0  0  0  0  0  0  0  0  0  0
    5.8479   -5.0717    0.0000 C   0  0  0  0  0  0  0  0  0  0  0  0
    7.4445   -5.4356    0.0000 H   0  0  0  0  0  0  0  0  0  0  0  0
  1  2  1  0  0  0  0
  2  3  1  0  0  0  0
  3  4  2  0  0  0  0
  4  5  1  0  0  0  0
  6  5  1  1  0  0  0
  6  7  1  0  0  0  0
  7  1  1  0  0  0  0
  2  8  1  0  0  0  0
  8  9  2  0  0  0  0
  9 10  1  0  0  0  0
 10  3  1  0  0  0  0
  6 11  1  0  0  0  0
 11 12  1  6  0  0  0
 12 13  1  0  0  0  0
  7 13  1  1  0  0  0
 11 14  1  0  0  0  0
 14 15  1  0  0  0  0
 15 16  1  0  0  0  0
 16 17  1  6  0  0  0
 17 11  1  0  0  0  0
 15 18  1  0  0  0  0
 18 19  1  0  0  0  0
 19 20  1  0  0  0  0
 20 21  1  0  0  0  0
 21 22  1  0  0  0  0
 22 16  1  0  0  0  0
 18 23  1  6  0  0  0
 23 24  1  0  0  0  0
 24 25  1  0  0  0  0
 19 25  1  1  0  0  0
 10 26  2  0  0  0  0
  4 27  1  0  0  0  0
 12 28  2  0  0  0  0
 14 29  1  0  0  0  0
 22 30  1  6  0  0  0
 25 31  2  0  0  0  0
 24 32  2  0  0  0  0
 16 33  1  0  0  0  0
 33 34  2  0  0  0  0
  2 35  1  1  0  0  0
 14 34  1  1  0  0  0
 22 36  1  1  0  0  0
 15 37  1  6  0  0  0
M  END
>  <cdx:fragmentId>
5

$$$$
