94077.cdx
  Mrv1902 05222410272D          

 29 31  0  0  0  0            999 V2000
    9.7849   -9.7334    0.0000 C   0  0  0  0  0  0  0  0  0  0  0  0
   10.1974   -9.0189    0.0000 O   0  0  0  0  0  0  0  0  0  0  0  0
   11.0224   -7.5900    0.0000 O   0  0  0  0  0  0  0  0  0  0  0  0
    8.9599   -8.3045    0.0000 C   0  0  0  0  0  0  0  0  0  0  0  0
    9.7849   -8.3045    0.0000 C   0  0  0  0  0  0  0  0  0  0  0  0
   10.1974   -7.5900    0.0000 C   0  0  0  0  0  0  0  0  0  0  0  0
    9.7849   -6.8755    0.0000 C   0  0  0  0  0  0  0  0  0  0  0  0
    8.9599   -6.8755    0.0000 C   0  0  0  0  0  0  0  0  0  0  0  0
    8.5474   -7.5900    0.0000 C   0  0  0  0  0  0  0  0  0  0  0  0
    7.9194   -4.5442    0.0000 C   0  0  0  0  0  0  0  0  0  0  0  0
    9.2997   -4.9140    0.0000 O   0  0  0  0  0  0  0  0  0  0  0  0
    8.5028   -5.1275    0.0000 C   0  0  0  0  0  0  0  0  0  0  0  0
    8.2893   -5.9244    0.0000 O   0  0  0  0  0  0  0  0  0  0  0  0
    7.4924   -6.1379    0.0000 C   0  0  0  0  0  0  0  0  0  0  0  0
    7.2375   -8.2574    0.0000 O   0  0  0  0  0  0  0  0  0  0  0  0
    7.7224   -7.5900    0.0000 C   0  0  1  0  0  0  0  0  0  0  0  0
    7.2375   -6.9226    0.0000 C   0  0  2  0  0  0  0  0  0  0  0  0
    5.0239   -9.6525    0.0000 C   0  0  0  0  0  0  0  0  0  0  0  0
    5.7384   -9.2400    0.0000 O   0  0  0  0  0  0  0  0  0  0  0  0
    2.1660   -7.1775    0.0000 O   0  0  0  0  0  0  0  0  0  0  0  0
    2.8805   -6.7650    0.0000 C   0  0  0  0  0  0  0  0  0  0  0  0
    3.5950   -7.1775    0.0000 C   0  0  0  0  0  0  0  0  0  0  0  0
    4.3094   -6.7650    0.0000 C   0  0  0  0  0  0  0  0  0  0  0  0
    5.7384   -6.7650    0.0000 C   0  0  0  0  0  0  0  0  0  0  0  0
    5.0239   -7.1775    0.0000 C   0  0  0  0  0  0  0  0  0  0  0  0
    5.0239   -8.0025    0.0000 C   0  0  0  0  0  0  0  0  0  0  0  0
    5.7384   -8.4150    0.0000 C   0  0  0  0  0  0  0  0  0  0  0  0
    6.4528   -8.0025    0.0000 C   0  0  0  0  0  0  0  0  0  0  0  0
    6.4528   -7.1775    0.0000 C   0  0  0  0  0  0  0  0  0  0  0  0
  2  1  1  0  0  0  0
  5  2  1  0  0  0  0
  6  3  1  0  0  0  0
  4  9  1  0  0  0  0
  5  4  2  0  0  0  0
  6  5  1  0  0  0  0
  7  6  2  0  0  0  0
  8  7  1  0  0  0  0
  9  8  2  0  0  0  0
 16  9  1  1  0  0  0
 12 10  1  0  0  0  0
 12 11  2  0  0  0  0
 13 12  1  0  0  0  0
 14 13  1  0  0  0  0
 17 14  1  6  0  0  0
 15 28  1  0  0  0  0
 16 15  1  0  0  0  0
 17 16  1  0  0  0  0
 29 17  1  0  0  0  0
 19 18  1  0  0  0  0
 27 19  1  0  0  0  0
 21 20  1  0  0  0  0
 22 21  1  0  0  0  0
 23 22  1  0  0  0  0
 25 23  1  0  0  0  0
 24 29  1  0  0  0  0
 25 24  2  0  0  0  0
 26 25  1  0  0  0  0
 27 26  2  0  0  0  0
 28 27  1  0  0  0  0
 29 28  2  0  0  0  0
M  END
>  <cdx:fragmentId>
5

$$$$
