94070.cdx
  Mrv1902 05222410262D          

 17 17  0  0  0  0            999 V2000
    9.7960   -7.5213    0.0000 C   0  0  2  0  0  0  0  0  0  0  0  0
    9.0815   -7.9337    0.0000 C   0  0  0  0  0  0  0  0  0  0  0  0
    8.3670   -7.5213    0.0000 C   0  0  0  0  0  0  0  0  0  0  0  0
    7.6526   -7.9337    0.0000 C   0  0  0  0  0  0  0  0  0  0  0  0
    6.9381   -7.5213    0.0000 C   0  0  0  0  0  0  0  0  0  0  0  0
    6.2236   -7.9337    0.0000 C   0  0  0  0  0  0  0  0  0  0  0  0
    5.5092   -7.5213    0.0000 C   0  0  0  0  0  0  0  0  0  0  0  0
    4.7947   -7.9337    0.0000 C   0  0  0  0  0  0  0  0  0  0  0  0
    4.0802   -7.5213    0.0000 C   0  0  0  0  0  0  0  0  0  0  0  0
    3.3657   -7.9337    0.0000 O   0  0  0  0  0  0  0  0  0  0  0  0
    2.6513   -7.5213    0.0000 C   0  0  0  0  0  0  0  0  0  0  0  0
    4.0802   -6.6962    0.0000 O   0  0  0  0  0  0  0  0  0  0  0  0
   10.5497   -7.8568    0.0000 O   0  0  0  0  0  0  0  0  0  0  0  0
   11.1017   -7.2437    0.0000 C   0  0  0  0  0  0  0  0  0  0  0  0
   10.6892   -6.5292    0.0000 C   0  0  0  0  0  0  0  0  0  0  0  0
    9.8822   -6.7008    0.0000 C   0  0  0  0  0  0  0  0  0  0  0  0
   11.9222   -7.3299    0.0000 O   0  0  0  0  0  0  0  0  0  0  0  0
  1  2  1  1  0  0  0
  3  2  1  0  0  0  0
  4  3  1  0  0  0  0
  5  4  1  0  0  0  0
  6  5  1  0  0  0  0
  7  6  1  0  0  0  0
  8  7  1  0  0  0  0
  9  8  1  0  0  0  0
 10  9  1  0  0  0  0
 11 10  1  0  0  0  0
  9 12  2  0  0  0  0
  1 13  1  0  0  0  0
 13 14  1  0  0  0  0
 14 15  1  0  0  0  0
 15 16  2  0  0  0  0
 16  1  1  0  0  0  0
 14 17  2  0  0  0  0
M  END
>  <cdx:fragmentId>
3

$$$$
