94072.cdx
  Mrv1902 05222410262D          

 14 14  0  0  0  0            999 V2000
    5.3125   -7.2679    0.0000 C   0  0  0  0  0  0  0  0  0  0  0  0
    6.9063   -6.8408    0.0000 O   0  0  0  0  0  0  0  0  0  0  0  0
    5.5261   -6.4710    0.0000 O   0  0  0  0  0  0  0  0  0  0  0  0
    6.3229   -6.2575    0.0000 C   0  0  0  0  0  0  0  0  0  0  0  0
    6.5365   -5.4606    0.0000 C   0  0  0  0  0  0  0  0  0  0  0  0
    7.3334   -5.2471    0.0000 C   0  0  0  0  0  0  0  0  0  0  0  0
    7.3334   -2.3429    0.0000 O   0  0  0  0  0  0  0  0  0  0  0  0
    9.0404   -4.6924    0.0000 C   0  0  0  0  0  0  0  0  0  0  0  0
    9.0404   -2.8976    0.0000 C   0  0  0  0  0  0  0  0  0  0  0  0
    7.5883   -3.1276    0.0000 C   0  0  0  0  0  0  0  0  0  0  0  0
    7.1034   -3.7950    0.0000 O   0  0  0  0  0  0  0  0  0  0  0  0
    7.5883   -4.4624    0.0000 C   0  0  1  0  0  0  0  0  0  0  0  0
    8.3729   -4.2075    0.0000 C   0  0  0  0  0  0  0  0  0  0  0  0
    8.3729   -3.3825    0.0000 C   0  0  0  0  0  0  0  0  0  0  0  0
  3  1  1  0  0  0  0
  4  2  2  0  0  0  0
  4  3  1  0  0  0  0
  5  4  1  0  0  0  0
  6  5  1  0  0  0  0
 12  6  1  1  0  0  0
 10  7  2  0  0  0  0
 13  8  1  0  0  0  0
 14  9  1  0  0  0  0
 10 14  1  0  0  0  0
 11 10  1  0  0  0  0
 12 11  1  0  0  0  0
 13 12  1  0  0  0  0
 14 13  2  0  0  0  0
M  END
>  <cdx:fragmentId>
5

$$$$
