94079.cdx
  Mrv1902 05222410182D          

 30 32  0  0  0  0            999 V2000
   12.8614   -7.9612    0.0000 C   0  0  0  0  0  0  0  0  0  0  0  0
   12.1469   -7.5488    0.0000 C   0  0  0  0  0  0  0  0  0  0  0  0
    2.5760   -6.9448    0.0000 C   0  0  0  0  0  0  0  0  0  0  0  0
    3.4010   -6.9448    0.0000 O   0  0  0  0  0  0  0  0  0  0  0  0
    7.1456   -7.9612    0.0000 C   0  0  0  0  0  0  0  0  0  0  0  0
    7.1456   -8.7862    0.0000 C   0  0  0  0  0  0  0  0  0  0  0  0
    7.8601   -9.1987    0.0000 C   0  0  0  0  0  0  0  0  0  0  0  0
    8.5745   -8.7862    0.0000 C   0  0  0  0  0  0  0  0  0  0  0  0
    8.5745   -7.9612    0.0000 C   0  0  0  0  0  0  0  0  0  0  0  0
    7.8601   -7.5488    0.0000 C   0  0  0  0  0  0  0  0  0  0  0  0
    9.2890   -7.5488    0.0000 C   0  0  0  0  0  0  0  0  0  0  0  0
   10.0035   -7.9612    0.0000 C   0  0  0  0  0  0  0  0  0  0  0  0
   10.7179   -7.5488    0.0000 C   0  0  0  0  0  0  0  0  0  0  0  0
   11.4324   -7.9612    0.0000 O   0  0  0  0  0  0  0  0  0  0  0  0
    7.8601  -10.0238    0.0000 O   0  0  0  0  0  0  0  0  0  0  0  0
    8.5745  -10.4363    0.0000 C   0  0  0  0  0  0  0  0  0  0  0  0
    6.3610   -7.7063    0.0000 C   0  0  1  0  0  0  0  0  0  0  0  0
    5.8760   -8.3737    0.0000 C   0  0  2  0  0  0  0  0  0  0  0  0
    6.3610   -9.0412    0.0000 O   0  0  0  0  0  0  0  0  0  0  0  0
    6.1060   -6.9217    0.0000 C   0  0  0  0  0  0  0  0  0  0  0  0
    5.3091   -6.7082    0.0000 O   0  0  0  0  0  0  0  0  0  0  0  0
    5.0510   -8.3737    0.0000 C   0  0  0  0  0  0  0  0  0  0  0  0
    4.6385   -7.6593    0.0000 C   0  0  0  0  0  0  0  0  0  0  0  0
    3.8135   -7.6593    0.0000 C   0  0  0  0  0  0  0  0  0  0  0  0
    3.4010   -8.3737    0.0000 C   0  0  0  0  0  0  0  0  0  0  0  0
    3.8135   -9.0882    0.0000 C   0  0  0  0  0  0  0  0  0  0  0  0
    4.6385   -9.0882    0.0000 C   0  0  0  0  0  0  0  0  0  0  0  0
    2.5760   -8.3737    0.0000 O   0  0  0  0  0  0  0  0  0  0  0  0
    3.4010   -9.8027    0.0000 O   0  0  0  0  0  0  0  0  0  0  0  0
    3.8135  -10.5172    0.0000 C   0  0  0  0  0  0  0  0  0  0  0  0
  2  1  1  0  0  0  0
 14  2  1  0  0  0  0
  4  3  1  0  0  0  0
 24  4  1  0  0  0  0
  5  6  2  0  0  0  0
  6  7  1  0  0  0  0
  7  8  2  0  0  0  0
  8  9  1  0  0  0  0
  9 10  2  0  0  0  0
 10  5  1  0  0  0  0
  9 11  1  0  0  0  0
 11 12  2  0  0  0  0
 12 13  1  0  0  0  0
 13 14  1  0  0  0  0
  7 15  1  0  0  0  0
 15 16  1  0  0  0  0
  5 17  1  0  0  0  0
 17 18  1  0  0  0  0
 18 19  1  0  0  0  0
 19  6  1  0  0  0  0
 17 20  1  1  0  0  0
 20 21  1  0  0  0  0
 18 22  1  6  0  0  0
 22 23  2  0  0  0  0
 23 24  1  0  0  0  0
 24 25  2  0  0  0  0
 25 26  1  0  0  0  0
 26 27  2  0  0  0  0
 27 22  1  0  0  0  0
 25 28  1  0  0  0  0
 26 29  1  0  0  0  0
 29 30  1  0  0  0  0
M  END
>  <cdx:fragmentId>
5

$$$$
