94071.cdx
  Mrv1902 05222410262D          

 19 19  0  0  0  0            999 V2000
    5.1773   -7.7275    0.0000 C   0  0  0  0  0  0  0  0  0  0  0  0
    5.1773   -8.5525    0.0000 C   0  0  0  0  0  0  0  0  0  0  0  0
    5.9619   -8.8074    0.0000 C   0  0  0  0  0  0  0  0  0  0  0  0
    6.4468   -8.1400    0.0000 C   0  0  2  0  0  0  0  0  0  0  0  0
    5.9619   -7.4726    0.0000 C   0  0  2  0  0  0  0  0  0  0  0  0
    4.5098   -7.2426    0.0000 O   0  0  0  0  0  0  0  0  0  0  0  0
    4.5098   -9.0374    0.0000 C   0  0  0  0  0  0  0  0  0  0  0  0
    6.2168   -9.5921    0.0000 C   0  0  0  0  0  0  0  0  0  0  0  0
    7.0302   -8.7234    0.0000 C   0  0  1  0  0  0  0  0  0  0  0  0
    7.8552   -8.7234    0.0000 C   0  0  0  0  0  0  0  0  0  0  0  0
    8.2677   -9.4378    0.0000 C   0  0  0  0  0  0  0  0  0  0  0  0
    9.0927   -9.4378    0.0000 C   0  0  0  0  0  0  0  0  0  0  0  0
    9.5052  -10.1523    0.0000 C   0  0  0  0  0  0  0  0  0  0  0  0
    6.2168   -6.6879    0.0000 C   0  0  0  0  0  0  0  0  0  0  0  0
    5.6648   -6.0748    0.0000 C   0  0  0  0  0  0  0  0  0  0  0  0
    4.8578   -6.2464    0.0000 O   0  0  0  0  0  0  0  0  0  0  0  0
    5.9197   -5.2902    0.0000 O   0  0  0  0  0  0  0  0  0  0  0  0
    7.1613   -7.7275    0.0000 O   0  0  0  0  0  0  0  0  0  0  0  0
    6.7145   -9.4856    0.0000 O   0  0  0  0  0  0  0  0  0  0  0  0
  1  2  1  0  0  0  0
  2  3  2  0  0  0  0
  3  4  1  0  0  0  0
  4  5  1  0  0  0  0
  5  1  1  0  0  0  0
  1  6  2  0  0  0  0
  2  7  1  0  0  0  0
  3  8  1  0  0  0  0
  4  9  1  0  0  0  0
  9 10  1  0  0  0  0
 10 11  1  0  0  0  0
 11 12  1  0  0  0  0
 12 13  1  0  0  0  0
  5 14  1  1  0  0  0
 14 15  1  0  0  0  0
  4 18  1  1  0  0  0
  9 19  1  1  0  0  0
 15 16  2  0  0  0  0
 15 17  1  0  0  0  0
M  STY  1   1 SUP
M  SAL   1  3  15  16  17
M  SBL   1  1  15
M  SMT   1 COOH
M  SAP   1  1  15  14  1
M  END
>  <cdx:fragmentId>
5

$$$$
