94075.cdx
  Mrv1902 05222410282D          

 30 32  0  0  0  0            999 V2000
    9.8124  -10.5172    0.0000 C   0  0  0  0  0  0  0  0  0  0  0  0
   10.2249   -9.8027    0.0000 O   0  0  0  0  0  0  0  0  0  0  0  0
   11.0499   -8.3737    0.0000 O   0  0  0  0  0  0  0  0  0  0  0  0
    8.9874   -9.0882    0.0000 C   0  0  0  0  0  0  0  0  0  0  0  0
    9.8124   -9.0882    0.0000 C   0  0  0  0  0  0  0  0  0  0  0  0
   10.2249   -8.3737    0.0000 C   0  0  0  0  0  0  0  0  0  0  0  0
    9.8124   -7.6593    0.0000 C   0  0  0  0  0  0  0  0  0  0  0  0
    8.9874   -7.6593    0.0000 C   0  0  0  0  0  0  0  0  0  0  0  0
    8.5749   -8.3737    0.0000 C   0  0  0  0  0  0  0  0  0  0  0  0
    8.3168   -6.7082    0.0000 O   0  0  0  0  0  0  0  0  0  0  0  0
    7.5199   -6.9217    0.0000 C   0  0  0  0  0  0  0  0  0  0  0  0
    7.2650   -9.0412    0.0000 O   0  0  0  0  0  0  0  0  0  0  0  0
    7.7499   -8.3737    0.0000 C   0  0  2  0  0  0  0  0  0  0  0  0
    7.2650   -7.7063    0.0000 C   0  0  1  0  0  0  0  0  0  0  0  0
    5.0514  -10.4363    0.0000 C   0  0  0  0  0  0  0  0  0  0  0  0
    5.7659  -10.0238    0.0000 O   0  0  0  0  0  0  0  0  0  0  0  0
    2.1935   -7.9612    0.0000 O   0  0  0  0  0  0  0  0  0  0  0  0
    2.9080   -7.5488    0.0000 C   0  0  0  0  0  0  0  0  0  0  0  0
    3.6225   -7.9612    0.0000 C   0  0  0  0  0  0  0  0  0  0  0  0
    4.3369   -7.5488    0.0000 C   0  0  0  0  0  0  0  0  0  0  0  0
    5.7659   -7.5488    0.0000 C   0  0  0  0  0  0  0  0  0  0  0  0
    5.0514   -7.9612    0.0000 C   0  0  0  0  0  0  0  0  0  0  0  0
    5.0514   -8.7862    0.0000 C   0  0  0  0  0  0  0  0  0  0  0  0
    5.7659   -9.1987    0.0000 C   0  0  0  0  0  0  0  0  0  0  0  0
    6.4803   -8.7862    0.0000 C   0  0  0  0  0  0  0  0  0  0  0  0
    6.4803   -7.9612    0.0000 C   0  0  0  0  0  0  0  0  0  0  0  0
   10.2249   -6.9448    0.0000 O   0  0  0  0  0  0  0  0  0  0  0  0
   11.0499   -6.9448    0.0000 C   0  0  0  0  0  0  0  0  0  0  0  0
    1.4790   -7.5488    0.0000 C   0  0  0  0  0  0  0  0  0  0  0  0
    0.7646   -7.9612    0.0000 C   0  0  0  0  0  0  0  0  0  0  0  0
  2  1  1  0  0  0  0
  5  2  1  0  0  0  0
  6  3  1  0  0  0  0
  4  9  1  0  0  0  0
  5  4  2  0  0  0  0
  6  5  1  0  0  0  0
  7  6  2  0  0  0  0
  8  7  1  0  0  0  0
  9  8  2  0  0  0  0
 13  9  1  6  0  0  0
 11 10  1  0  0  0  0
 14 11  1  1  0  0  0
 12 25  1  0  0  0  0
 13 12  1  0  0  0  0
 14 13  1  0  0  0  0
 26 14  1  0  0  0  0
 16 15  1  0  0  0  0
 24 16  1  0  0  0  0
 18 17  1  0  0  0  0
 19 18  1  0  0  0  0
 20 19  2  0  0  0  0
 22 20  1  0  0  0  0
 21 26  1  0  0  0  0
 22 21  2  0  0  0  0
 23 22  1  0  0  0  0
 24 23  2  0  0  0  0
 25 24  1  0  0  0  0
 26 25  2  0  0  0  0
  7 27  1  0  0  0  0
 27 28  1  0  0  0  0
 17 29  1  0  0  0  0
 29 30  1  0  0  0  0
M  END
>  <cdx:fragmentId>
5

$$$$
