94078.cdx
  Mrv1902 05222410182D          

 29 31  0  0  0  0            999 V2000
    6.8868   -8.4288    0.0000 C   0  0  0  0  0  0  0  0  0  0  0  0
    6.8868   -9.2538    0.0000 C   0  0  0  0  0  0  0  0  0  0  0  0
    7.6013   -9.6662    0.0000 C   0  0  0  0  0  0  0  0  0  0  0  0
    8.3157   -9.2538    0.0000 C   0  0  0  0  0  0  0  0  0  0  0  0
    8.3157   -8.4288    0.0000 C   0  0  0  0  0  0  0  0  0  0  0  0
    7.6013   -8.0162    0.0000 C   0  0  0  0  0  0  0  0  0  0  0  0
    9.0302   -8.0162    0.0000 C   0  0  0  0  0  0  0  0  0  0  0  0
    9.7447   -8.4288    0.0000 C   0  0  0  0  0  0  0  0  0  0  0  0
   10.4592   -8.0162    0.0000 C   0  0  0  0  0  0  0  0  0  0  0  0
    7.6013  -10.4912    0.0000 O   0  0  0  0  0  0  0  0  0  0  0  0
    8.3157  -10.9038    0.0000 C   0  0  0  0  0  0  0  0  0  0  0  0
    6.1022   -8.1738    0.0000 C   0  0  1  0  0  0  0  0  0  0  0  0
    5.6173   -8.8413    0.0000 C   0  0  2  0  0  0  0  0  0  0  0  0
    6.1022   -9.5087    0.0000 O   0  0  0  0  0  0  0  0  0  0  0  0
    5.8472   -7.3892    0.0000 C   0  0  0  0  0  0  0  0  0  0  0  0
    5.0504   -7.1757    0.0000 O   0  0  0  0  0  0  0  0  0  0  0  0
    4.8368   -6.3788    0.0000 C   0  0  0  0  0  0  0  0  0  0  0  0
    4.0399   -6.1652    0.0000 O   0  0  0  0  0  0  0  0  0  0  0  0
    5.4202   -5.7954    0.0000 C   0  0  0  0  0  0  0  0  0  0  0  0
    4.7923   -8.8413    0.0000 C   0  0  0  0  0  0  0  0  0  0  0  0
    4.3798   -8.1268    0.0000 C   0  0  0  0  0  0  0  0  0  0  0  0
    3.5548   -8.1268    0.0000 C   0  0  0  0  0  0  0  0  0  0  0  0
    3.1423   -8.8413    0.0000 C   0  0  0  0  0  0  0  0  0  0  0  0
    3.5548   -9.5557    0.0000 C   0  0  0  0  0  0  0  0  0  0  0  0
    4.3798   -9.5557    0.0000 C   0  0  0  0  0  0  0  0  0  0  0  0
    2.3173   -8.8413    0.0000 O   0  0  0  0  0  0  0  0  0  0  0  0
    3.1423  -10.2702    0.0000 O   0  0  0  0  0  0  0  0  0  0  0  0
    3.5548  -10.9847    0.0000 C   0  0  0  0  0  0  0  0  0  0  0  0
   11.1736   -8.4287    0.0000 O   0  0  0  0  0  0  0  0  0  0  0  0
  1  2  2  0  0  0  0
  2  3  1  0  0  0  0
  3  4  2  0  0  0  0
  4  5  1  0  0  0  0
  5  6  2  0  0  0  0
  6  1  1  0  0  0  0
  5  7  1  0  0  0  0
  7  8  2  0  0  0  0
  8  9  1  0  0  0  0
  3 10  1  0  0  0  0
 10 11  1  0  0  0  0
  1 12  1  0  0  0  0
 12 13  1  0  0  0  0
 13 14  1  0  0  0  0
 14  2  1  0  0  0  0
 12 15  1  1  0  0  0
 15 16  1  0  0  0  0
 16 17  1  0  0  0  0
 17 18  2  0  0  0  0
 17 19  1  0  0  0  0
 13 20  1  6  0  0  0
 20 21  2  0  0  0  0
 21 22  1  0  0  0  0
 22 23  2  0  0  0  0
 23 24  1  0  0  0  0
 24 25  2  0  0  0  0
 25 20  1  0  0  0  0
 23 26  1  0  0  0  0
 24 27  1  0  0  0  0
 27 28  1  0  0  0  0
  9 29  2  0  0  0  0
M  END
>  <cdx:fragmentId>
5

$$$$
