94073.cdx
  Mrv1902 05222410272D          

 17 17  0  0  0  0            999 V2000
    3.9398   -6.5450    0.0000 C   0  0  0  0  0  0  0  0  0  0  0  0
    3.9398   -7.3700    0.0000 C   0  0  0  0  0  0  0  0  0  0  0  0
    4.7244   -7.6249    0.0000 O   0  0  0  0  0  0  0  0  0  0  0  0
    5.2093   -6.9575    0.0000 C   0  0  1  0  0  0  0  0  0  0  0  0
    4.7244   -6.2901    0.0000 C   0  0  0  0  0  0  0  0  0  0  0  0
    3.2723   -7.8549    0.0000 O   0  0  0  0  0  0  0  0  0  0  0  0
   12.3810   -6.9575    0.0000 C   0  0  0  0  0  0  0  0  0  0  0  0
   11.6665   -7.3700    0.0000 O   0  0  0  0  0  0  0  0  0  0  0  0
   10.9520   -6.9575    0.0000 C   0  0  0  0  0  0  0  0  0  0  0  0
   10.2376   -7.3700    0.0000 C   0  0  0  0  0  0  0  0  0  0  0  0
    9.5231   -6.9575    0.0000 C   0  0  0  0  0  0  0  0  0  0  0  0
    8.8086   -7.3700    0.0000 C   0  0  0  0  0  0  0  0  0  0  0  0
    8.0942   -6.9575    0.0000 C   0  0  0  0  0  0  0  0  0  0  0  0
    7.3797   -7.3700    0.0000 C   0  0  0  0  0  0  0  0  0  0  0  0
    6.6652   -6.9575    0.0000 C   0  0  0  0  0  0  0  0  0  0  0  0
    5.9507   -7.3700    0.0000 C   0  0  0  0  0  0  0  0  0  0  0  0
   10.9520   -6.1325    0.0000 O   0  0  0  0  0  0  0  0  0  0  0  0
  1  2  1  0  0  0  0
  2  3  1  0  0  0  0
  3  4  1  0  0  0  0
  4  5  1  0  0  0  0
  5  1  2  0  0  0  0
  2  6  2  0  0  0  0
  8  7  1  0  0  0  0
  9  8  1  0  0  0  0
 10  9  1  0  0  0  0
 11 10  1  0  0  0  0
 12 11  1  0  0  0  0
 13 12  1  0  0  0  0
 14 13  1  0  0  0  0
 15 14  1  0  0  0  0
 16 15  1  0  0  0  0
  9 17  2  0  0  0  0
  4 16  1  1  0  0  0
M  END
>  <cdx:fragmentId>
20

$$$$
