94083.cdx
  Mrv1902 05222410202D          

 26 28  0  0  0  0            999 V2000
    5.6356   -6.3388    0.0000 C   0  0  0  0  0  0  0  0  0  0  0  0
    5.6356   -7.1638    0.0000 O   0  0  0  0  0  0  0  0  0  0  0  0
    6.3500   -7.5762    0.0000 C   0  0  2  0  0  0  0  0  0  0  0  0
    7.0645   -7.1638    0.0000 C   0  0  1  0  0  0  0  0  0  0  0  0
    7.0645   -6.3388    0.0000 C   0  0  0  0  0  0  0  0  0  0  0  0
    6.3500   -5.9262    0.0000 O   0  0  0  0  0  0  0  0  0  0  0  0
    6.3500   -8.4013    0.0000 C   0  0  0  0  0  0  0  0  0  0  0  0
    7.0645   -8.8137    0.0000 C   0  0  0  0  0  0  0  0  0  0  0  0
    7.7790   -8.4013    0.0000 C   0  0  0  0  0  0  0  0  0  0  0  0
    7.7790   -7.5762    0.0000 C   0  0  0  0  0  0  0  0  0  0  0  0
    5.6356   -8.8137    0.0000 C   0  0  0  0  0  0  0  0  0  0  0  0
    5.6356   -9.6387    0.0000 C   0  0  0  0  0  0  0  0  0  0  0  0
    6.3500  -10.0512    0.0000 C   0  0  0  0  0  0  0  0  0  0  0  0
    7.0645   -9.6387    0.0000 C   0  0  0  0  0  0  0  0  0  0  0  0
    8.4934   -8.8138    0.0000 C   0  0  0  0  0  0  0  0  0  0  0  0
    9.2079   -8.4013    0.0000 C   0  0  0  0  0  0  0  0  0  0  0  0
    9.2079   -7.5762    0.0000 C   0  0  0  0  0  0  0  0  0  0  0  0
    8.4934   -7.1638    0.0000 C   0  0  0  0  0  0  0  0  0  0  0  0
    4.9211  -10.0512    0.0000 O   0  0  0  0  0  0  0  0  0  0  0  0
    4.9211  -10.8762    0.0000 C   0  0  0  0  0  0  0  0  0  0  0  0
    6.3500  -10.8762    0.0000 O   0  0  0  0  0  0  0  0  0  0  0  0
    8.4934   -9.6387    0.0000 O   0  0  0  0  0  0  0  0  0  0  0  0
    9.2079  -10.0512    0.0000 C   0  0  0  0  0  0  0  0  0  0  0  0
    9.9224   -8.8138    0.0000 O   0  0  0  0  0  0  0  0  0  0  0  0
    4.8106   -6.3388    0.0000 C   0  0  0  0  0  0  0  0  0  0  0  0
    5.4220   -5.5419    0.0000 C   0  0  0  0  0  0  0  0  0  0  0  0
  1  2  1  0  0  0  0
  2  3  1  0  0  0  0
  3  4  1  0  0  0  0
  4  5  1  0  0  0  0
  5  6  1  0  0  0  0
  6  1  1  0  0  0  0
  3  7  1  6  0  0  0
  7  8  2  0  0  0  0
  9 10  2  0  0  0  0
  4 10  1  1  0  0  0
  7 11  1  0  0  0  0
 11 12  2  0  0  0  0
 12 13  1  0  0  0  0
 13 14  2  0  0  0  0
 14  8  1  0  0  0  0
  9 15  1  0  0  0  0
 15 16  2  0  0  0  0
 16 17  1  0  0  0  0
 17 18  2  0  0  0  0
 18 10  1  0  0  0  0
 12 19  1  0  0  0  0
 19 20  1  0  0  0  0
 21 13  1  0  0  0  0
 15 22  1  0  0  0  0
 22 23  1  0  0  0  0
 24 16  1  0  0  0  0
  1 25  1  0  0  0  0
  1 26  1  0  0  0  0
M  END
>  <cdx:fragmentId>
5

$$$$
