94087.cdx
  Mrv1902 05222410182D          

 35 38  0  0  0  0            999 V2000
    3.0098   -9.7212    0.0000 O   0  0  0  0  0  0  0  0  0  0  0  0
    3.7243  -10.9588    0.0000 C   0  0  0  0  0  0  0  0  0  0  0  0
    4.4388  -10.5463    0.0000 O   0  0  0  0  0  0  0  0  0  0  0  0
    6.5822  -11.7837    0.0000 O   0  0  0  0  0  0  0  0  0  0  0  0
    8.0111  -11.7837    0.0000 C   0  0  0  0  0  0  0  0  0  0  0  0
    8.0111  -10.9587    0.0000 O   0  0  0  0  0  0  0  0  0  0  0  0
    4.4388   -8.0713    0.0000 C   0  0  0  0  0  0  0  0  0  0  0  0
    3.7243   -8.4838    0.0000 C   0  0  0  0  0  0  0  0  0  0  0  0
    3.7243   -9.3087    0.0000 C   0  0  0  0  0  0  0  0  0  0  0  0
    4.4388   -9.7212    0.0000 C   0  0  0  0  0  0  0  0  0  0  0  0
    5.8677  -10.5462    0.0000 C   0  0  0  0  0  0  0  0  0  0  0  0
    6.5822  -10.9587    0.0000 C   0  0  0  0  0  0  0  0  0  0  0  0
    7.2967  -10.5462    0.0000 C   0  0  0  0  0  0  0  0  0  0  0  0
    7.2967   -9.7212    0.0000 C   0  0  0  0  0  0  0  0  0  0  0  0
    5.1532   -8.4838    0.0000 C   0  0  0  0  0  0  0  0  0  0  0  0
    5.1532   -9.3087    0.0000 C   0  0  0  0  0  0  0  0  0  0  0  0
    5.8677   -9.7212    0.0000 C   0  0  0  0  0  0  0  0  0  0  0  0
    6.5822   -9.3087    0.0000 C   0  0  0  0  0  0  0  0  0  0  0  0
    6.5822   -6.8338    0.0000 O   0  0  0  0  0  0  0  0  0  0  0  0
    5.8677   -7.2462    0.0000 C   0  0  0  0  0  0  0  0  0  0  0  0
    5.8677   -8.0713    0.0000 C   0  0  1  0  0  0  0  0  0  0  0  0
    6.5822   -8.4838    0.0000 C   0  0  2  0  0  0  0  0  0  0  0  0
    8.0111   -6.8338    0.0000 C   0  0  0  0  0  0  0  0  0  0  0  0
    7.2967   -7.2462    0.0000 C   0  0  2  0  0  0  0  0  0  0  0  0
    7.2967   -8.0713    0.0000 O   0  0  0  0  0  0  0  0  0  0  0  0
    8.7256   -7.2462    0.0000 C   0  0  0  0  0  0  0  0  0  0  0  0
   11.5835   -5.5962    0.0000 O   0  0  0  0  0  0  0  0  0  0  0  0
   10.8690   -4.3587    0.0000 C   0  0  0  0  0  0  0  0  0  0  0  0
   10.1545   -4.7713    0.0000 O   0  0  0  0  0  0  0  0  0  0  0  0
   10.1545   -5.5962    0.0000 C   0  0  0  0  0  0  0  0  0  0  0  0
    9.4401   -6.0088    0.0000 C   0  0  0  0  0  0  0  0  0  0  0  0
    9.4401   -6.8338    0.0000 C   0  0  0  0  0  0  0  0  0  0  0  0
   10.1545   -7.2462    0.0000 C   0  0  0  0  0  0  0  0  0  0  0  0
   10.8690   -6.8338    0.0000 C   0  0  0  0  0  0  0  0  0  0  0  0
   10.8690   -6.0088    0.0000 C   0  0  0  0  0  0  0  0  0  0  0  0
  1  9  1  0  0  0  0
  3  2  1  0  0  0  0
 10  3  1  0  0  0  0
  4 12  1  0  0  0  0
  6  5  1  0  0  0  0
 13  6  1  0  0  0  0
  7 15  1  0  0  0  0
  8  7  2  0  0  0  0
  9  8  1  0  0  0  0
 10  9  2  0  0  0  0
 16 10  1  0  0  0  0
 11 17  1  0  0  0  0
 12 11  2  0  0  0  0
 13 12  1  0  0  0  0
 14 13  2  0  0  0  0
 18 14  1  0  0  0  0
 21 15  1  1  0  0  0
 16 15  2  0  0  0  0
 18 17  2  0  0  0  0
 22 18  1  6  0  0  0
 19 24  1  0  0  0  0
 20 19  1  0  0  0  0
 21 20  1  0  0  0  0
 22 21  1  0  0  0  0
 25 22  1  0  0  0  0
 23 26  2  0  0  0  0
 24 23  1  6  0  0  0
 25 24  1  0  0  0  0
 26 32  1  0  0  0  0
 27 35  1  0  0  0  0
 29 28  1  0  0  0  0
 30 29  1  0  0  0  0
 30 35  1  0  0  0  0
 31 30  2  0  0  0  0
 32 31  1  0  0  0  0
 33 32  2  0  0  0  0
 34 33  1  0  0  0  0
 35 34  2  0  0  0  0
M  END
>  <cdx:fragmentId>
5

$$$$
