94088.cdx
  Mrv1902 05222410272D          

 33 36  0  0  0  0            999 V2000
    3.4223   -9.0750    0.0000 O   0  0  0  0  0  0  0  0  0  0  0  0
    4.1368  -10.3125    0.0000 C   0  0  0  0  0  0  0  0  0  0  0  0
    4.8513   -9.9000    0.0000 O   0  0  0  0  0  0  0  0  0  0  0  0
    6.9947  -11.1375    0.0000 O   0  0  0  0  0  0  0  0  0  0  0  0
    8.4236  -11.1375    0.0000 C   0  0  0  0  0  0  0  0  0  0  0  0
    8.4236  -10.3125    0.0000 O   0  0  0  0  0  0  0  0  0  0  0  0
    4.8513   -7.4250    0.0000 C   0  0  0  0  0  0  0  0  0  0  0  0
    4.1368   -7.8375    0.0000 C   0  0  0  0  0  0  0  0  0  0  0  0
    4.1368   -8.6625    0.0000 C   0  0  0  0  0  0  0  0  0  0  0  0
    4.8513   -9.0750    0.0000 C   0  0  0  0  0  0  0  0  0  0  0  0
    5.5657   -8.6625    0.0000 C   0  0  0  0  0  0  0  0  0  0  0  0
    6.2802   -9.0750    0.0000 C   0  0  0  0  0  0  0  0  0  0  0  0
    6.2802   -9.9000    0.0000 C   0  0  0  0  0  0  0  0  0  0  0  0
    6.9947  -10.3125    0.0000 C   0  0  0  0  0  0  0  0  0  0  0  0
    7.7092   -9.9000    0.0000 C   0  0  0  0  0  0  0  0  0  0  0  0
    7.7092   -9.0750    0.0000 C   0  0  0  0  0  0  0  0  0  0  0  0
    5.5657   -7.8375    0.0000 C   0  0  0  0  0  0  0  0  0  0  0  0
    6.9947   -8.6625    0.0000 C   0  0  0  0  0  0  0  0  0  0  0  0
    6.9947   -6.1875    0.0000 O   0  0  0  0  0  0  0  0  0  0  0  0
    6.2802   -6.6000    0.0000 C   0  0  0  0  0  0  0  0  0  0  0  0
    6.2802   -7.4250    0.0000 C   0  0  1  0  0  0  0  0  0  0  0  0
    6.9947   -7.8375    0.0000 C   0  0  2  0  0  0  0  0  0  0  0  0
    7.7092   -7.4250    0.0000 O   0  0  0  0  0  0  0  0  0  0  0  0
    7.7092   -6.6000    0.0000 C   0  0  1  0  0  0  0  0  0  0  0  0
    9.8526   -3.7125    0.0000 C   0  0  0  0  0  0  0  0  0  0  0  0
    9.1381   -4.1250    0.0000 O   0  0  0  0  0  0  0  0  0  0  0  0
   10.5670   -4.9500    0.0000 O   0  0  0  0  0  0  0  0  0  0  0  0
    9.1381   -4.9500    0.0000 C   0  0  0  0  0  0  0  0  0  0  0  0
    8.4236   -5.3625    0.0000 C   0  0  0  0  0  0  0  0  0  0  0  0
    8.4236   -6.1875    0.0000 C   0  0  0  0  0  0  0  0  0  0  0  0
    9.1381   -6.6000    0.0000 C   0  0  0  0  0  0  0  0  0  0  0  0
    9.8526   -6.1875    0.0000 C   0  0  0  0  0  0  0  0  0  0  0  0
    9.8526   -5.3625    0.0000 C   0  0  0  0  0  0  0  0  0  0  0  0
  9  1  1  0  0  0  0
  3  2  1  0  0  0  0
 10  3  1  0  0  0  0
 14  4  1  0  0  0  0
  6  5  1  0  0  0  0
 15  6  1  0  0  0  0
  7 17  1  0  0  0  0
  8  7  2  0  0  0  0
  9  8  1  0  0  0  0
 10  9  2  0  0  0  0
 11 10  1  0  0  0  0
 17 11  2  0  0  0  0
 12 18  1  0  0  0  0
 13 12  2  0  0  0  0
 14 13  1  0  0  0  0
 15 14  2  0  0  0  0
 16 15  1  0  0  0  0
 18 16  2  0  0  0  0
 21 17  1  1  0  0  0
 22 18  1  6  0  0  0
 19 24  1  0  0  0  0
 20 19  1  0  0  0  0
 21 20  1  0  0  0  0
 22 21  1  0  0  0  0
 23 22  1  0  0  0  0
 24 23  1  0  0  0  0
 24 30  1  6  0  0  0
 26 25  1  0  0  0  0
 28 26  1  0  0  0  0
 33 27  1  0  0  0  0
 28 33  1  0  0  0  0
 29 28  2  0  0  0  0
 30 29  1  0  0  0  0
 31 30  2  0  0  0  0
 32 31  1  0  0  0  0
 33 32  2  0  0  0  0
M  END
>  <cdx:fragmentId>
5

$$$$
