94081.cdx
  Mrv1902 05222410192D          

 33 36  0  0  0  0            999 V2000
    3.6143   -4.2488    0.0000 C   0  0  0  0  0  0  0  0  0  0  0  0
    3.6143   -5.0737    0.0000 C   0  0  0  0  0  0  0  0  0  0  0  0
    4.3288   -5.4863    0.0000 C   0  0  0  0  0  0  0  0  0  0  0  0
    5.0432   -5.0737    0.0000 C   0  0  0  0  0  0  0  0  0  0  0  0
    5.0432   -4.2488    0.0000 C   0  0  0  0  0  0  0  0  0  0  0  0
    4.3288   -3.8363    0.0000 C   0  0  0  0  0  0  0  0  0  0  0  0
    2.8998   -3.8363    0.0000 O   0  0  0  0  0  0  0  0  0  0  0  0
    4.3288   -3.0112    0.0000 O   0  0  0  0  0  0  0  0  0  0  0  0
    3.6143   -2.5987    0.0000 C   0  0  0  0  0  0  0  0  0  0  0  0
    5.7577   -5.4863    0.0000 C   0  0  1  0  0  0  0  0  0  0  0  0
    5.7577   -6.3113    0.0000 O   0  0  0  0  0  0  0  0  0  0  0  0
    6.4722   -6.7237    0.0000 C   0  0  2  0  0  0  0  0  0  0  0  0
    7.1867   -6.3113    0.0000 C   0  0  1  0  0  0  0  0  0  0  0  0
    7.1867   -5.4863    0.0000 C   0  0  0  0  0  0  0  0  0  0  0  0
    6.4722   -5.0737    0.0000 O   0  0  0  0  0  0  0  0  0  0  0  0
    6.4722   -7.5488    0.0000 C   0  0  0  0  0  0  0  0  0  0  0  0
    7.9011   -6.7237    0.0000 C   0  0  0  0  0  0  0  0  0  0  0  0
    5.7577   -7.9612    0.0000 C   0  0  0  0  0  0  0  0  0  0  0  0
    5.7577   -8.7862    0.0000 C   0  0  0  0  0  0  0  0  0  0  0  0
    6.4722   -9.1987    0.0000 C   0  0  0  0  0  0  0  0  0  0  0  0
    7.1867   -8.7862    0.0000 C   0  0  0  0  0  0  0  0  0  0  0  0
    7.1867   -7.9612    0.0000 C   0  0  0  0  0  0  0  0  0  0  0  0
    7.9011   -7.5488    0.0000 C   0  0  0  0  0  0  0  0  0  0  0  0
    8.6156   -7.9612    0.0000 C   0  0  0  0  0  0  0  0  0  0  0  0
    9.3301   -7.5488    0.0000 C   0  0  0  0  0  0  0  0  0  0  0  0
    9.3301   -6.7237    0.0000 C   0  0  0  0  0  0  0  0  0  0  0  0
    8.6156   -6.3113    0.0000 C   0  0  0  0  0  0  0  0  0  0  0  0
    5.0432   -9.1987    0.0000 O   0  0  0  0  0  0  0  0  0  0  0  0
    4.3288   -8.7862    0.0000 C   0  0  0  0  0  0  0  0  0  0  0  0
    6.4722  -10.0238    0.0000 O   0  0  0  0  0  0  0  0  0  0  0  0
    8.6156   -8.7862    0.0000 O   0  0  0  0  0  0  0  0  0  0  0  0
    9.3301   -9.1987    0.0000 C   0  0  0  0  0  0  0  0  0  0  0  0
   10.0445   -7.9612    0.0000 O   0  0  0  0  0  0  0  0  0  0  0  0
  1  2  2  0  0  0  0
  2  3  1  0  0  0  0
  3  4  2  0  0  0  0
  4  5  1  0  0  0  0
  5  6  2  0  0  0  0
  6  1  1  0  0  0  0
  1  7  1  0  0  0  0
  6  8  1  0  0  0  0
  8  9  1  0  0  0  0
 10  4  1  6  0  0  0
 10 11  1  0  0  0  0
 11 12  1  0  0  0  0
 12 13  1  0  0  0  0
 13 14  1  0  0  0  0
 14 15  1  0  0  0  0
 15 10  1  0  0  0  0
 12 16  1  6  0  0  0
 13 17  1  1  0  0  0
 16 18  2  0  0  0  0
 18 19  1  0  0  0  0
 19 20  2  0  0  0  0
 20 21  1  0  0  0  0
 21 22  2  0  0  0  0
 22 16  1  0  0  0  0
 17 23  2  0  0  0  0
 23 24  1  0  0  0  0
 24 25  2  0  0  0  0
 25 26  1  0  0  0  0
 26 27  2  0  0  0  0
 27 17  1  0  0  0  0
 19 28  1  0  0  0  0
 28 29  1  0  0  0  0
 20 30  1  0  0  0  0
 24 31  1  0  0  0  0
 31 32  1  0  0  0  0
 25 33  1  0  0  0  0
M  END
>  <cdx:fragmentId>
5

$$$$
