94086.cdx
  Mrv1902 05222410182D          

 26 28  0  0  0  0            999 V2000
    8.8330   -5.1981    0.0000 C   0  0  0  0  0  0  0  0  0  0  0  0
    9.4445   -5.9950    0.0000 C   0  0  0  0  0  0  0  0  0  0  0  0
    4.3326   -8.4700    0.0000 O   0  0  0  0  0  0  0  0  0  0  0  0
    5.0471   -9.7075    0.0000 C   0  0  0  0  0  0  0  0  0  0  0  0
    5.7616   -9.2950    0.0000 O   0  0  0  0  0  0  0  0  0  0  0  0
    7.9050  -10.5325    0.0000 O   0  0  0  0  0  0  0  0  0  0  0  0
    9.3339  -10.5325    0.0000 C   0  0  0  0  0  0  0  0  0  0  0  0
    9.3339   -9.7075    0.0000 O   0  0  0  0  0  0  0  0  0  0  0  0
    5.7616   -6.8200    0.0000 C   0  0  0  0  0  0  0  0  0  0  0  0
    5.0471   -7.2325    0.0000 C   0  0  0  0  0  0  0  0  0  0  0  0
    5.0471   -8.0575    0.0000 C   0  0  0  0  0  0  0  0  0  0  0  0
    5.7616   -8.4700    0.0000 C   0  0  0  0  0  0  0  0  0  0  0  0
    7.1905   -9.2950    0.0000 C   0  0  0  0  0  0  0  0  0  0  0  0
    7.9050   -9.7075    0.0000 C   0  0  0  0  0  0  0  0  0  0  0  0
    8.6195   -9.2950    0.0000 C   0  0  0  0  0  0  0  0  0  0  0  0
    8.6195   -8.4700    0.0000 C   0  0  0  0  0  0  0  0  0  0  0  0
    6.4761   -7.2325    0.0000 C   0  0  0  0  0  0  0  0  0  0  0  0
    6.4761   -8.0575    0.0000 C   0  0  0  0  0  0  0  0  0  0  0  0
    7.1905   -8.4700    0.0000 C   0  0  0  0  0  0  0  0  0  0  0  0
    7.9050   -8.0575    0.0000 C   0  0  0  0  0  0  0  0  0  0  0  0
    7.9050   -5.5825    0.0000 O   0  0  0  0  0  0  0  0  0  0  0  0
    7.1905   -5.9950    0.0000 C   0  0  0  0  0  0  0  0  0  0  0  0
    7.1905   -6.8200    0.0000 C   0  0  1  0  0  0  0  0  0  0  0  0
    7.9050   -7.2325    0.0000 C   0  0  2  0  0  0  0  0  0  0  0  0
    8.6195   -6.8200    0.0000 O   0  0  0  0  0  0  0  0  0  0  0  0
    8.6195   -5.9950    0.0000 C   0  0  0  0  0  0  0  0  0  0  0  0
 26  1  1  0  0  0  0
 26  2  1  0  0  0  0
  3 11  1  0  0  0  0
  5  4  1  0  0  0  0
 12  5  1  0  0  0  0
  6 14  1  0  0  0  0
  8  7  1  0  0  0  0
 15  8  1  0  0  0  0
  9 17  1  0  0  0  0
 10  9  2  0  0  0  0
 11 10  1  0  0  0  0
 12 11  2  0  0  0  0
 18 12  1  0  0  0  0
 13 19  1  0  0  0  0
 14 13  2  0  0  0  0
 15 14  1  0  0  0  0
 16 15  2  0  0  0  0
 20 16  1  0  0  0  0
 23 17  1  1  0  0  0
 18 17  2  0  0  0  0
 20 19  2  0  0  0  0
 24 20  1  6  0  0  0
 21 26  1  0  0  0  0
 22 21  1  0  0  0  0
 23 22  1  0  0  0  0
 24 23  1  0  0  0  0
 25 24  1  0  0  0  0
 26 25  1  0  0  0  0
M  END
>  <cdx:fragmentId>
5

$$$$
