94082.cdx
  Mrv1902 05222410202D          

 35 38  0  0  0  0            999 V2000
    3.5318   -6.4350    0.0000 C   0  0  0  0  0  0  0  0  0  0  0  0
    3.5318   -7.2600    0.0000 C   0  0  0  0  0  0  0  0  0  0  0  0
    4.2463   -7.6725    0.0000 C   0  0  0  0  0  0  0  0  0  0  0  0
    4.9607   -7.2600    0.0000 C   0  0  0  0  0  0  0  0  0  0  0  0
    4.9607   -6.4350    0.0000 C   0  0  0  0  0  0  0  0  0  0  0  0
    4.2463   -6.0225    0.0000 C   0  0  0  0  0  0  0  0  0  0  0  0
    4.2463   -5.1975    0.0000 O   0  0  0  0  0  0  0  0  0  0  0  0
    3.5318   -4.7850    0.0000 C   0  0  0  0  0  0  0  0  0  0  0  0
    2.8173   -6.0225    0.0000 O   0  0  0  0  0  0  0  0  0  0  0  0
    5.6752   -7.6725    0.0000 C   0  0  0  0  0  0  0  0  0  0  0  0
    7.1042   -8.4975    0.0000 O   0  0  0  0  0  0  0  0  0  0  0  0
    7.1042   -7.6725    0.0000 C   0  0  2  0  0  0  0  0  0  0  0  0
    6.3897   -7.2600    0.0000 C   0  0  0  0  0  0  0  0  0  0  0  0
    7.8186   -8.9100    0.0000 C   0  0  2  0  0  0  0  0  0  0  0  0
    8.5331   -8.4975    0.0000 C   0  0  1  0  0  0  0  0  0  0  0  0
    8.5331   -7.6725    0.0000 C   0  0  0  0  0  0  0  0  0  0  0  0
    7.8186   -7.2600    0.0000 O   0  0  0  0  0  0  0  0  0  0  0  0
    7.8186   -9.7350    0.0000 C   0  0  0  0  0  0  0  0  0  0  0  0
    8.5331  -10.1475    0.0000 C   0  0  0  0  0  0  0  0  0  0  0  0
    9.2476   -9.7350    0.0000 C   0  0  0  0  0  0  0  0  0  0  0  0
    9.2476   -8.9100    0.0000 C   0  0  0  0  0  0  0  0  0  0  0  0
    7.1042  -10.1475    0.0000 C   0  0  0  0  0  0  0  0  0  0  0  0
    7.1042  -10.9725    0.0000 C   0  0  0  0  0  0  0  0  0  0  0  0
    7.8186  -11.3850    0.0000 C   0  0  0  0  0  0  0  0  0  0  0  0
    8.5331  -10.9725    0.0000 C   0  0  0  0  0  0  0  0  0  0  0  0
    9.9620  -10.1475    0.0000 C   0  0  0  0  0  0  0  0  0  0  0  0
   10.6765   -9.7350    0.0000 C   0  0  0  0  0  0  0  0  0  0  0  0
   10.6765   -8.9100    0.0000 C   0  0  0  0  0  0  0  0  0  0  0  0
    9.9620   -8.4975    0.0000 C   0  0  0  0  0  0  0  0  0  0  0  0
    6.3897  -11.3850    0.0000 O   0  0  0  0  0  0  0  0  0  0  0  0
    6.3897  -12.2100    0.0000 C   0  0  0  0  0  0  0  0  0  0  0  0
    7.8186  -12.2100    0.0000 O   0  0  0  0  0  0  0  0  0  0  0  0
    9.9620  -10.9725    0.0000 O   0  0  0  0  0  0  0  0  0  0  0  0
   10.6765  -11.3850    0.0000 C   0  0  0  0  0  0  0  0  0  0  0  0
   11.3910  -10.1475    0.0000 O   0  0  0  0  0  0  0  0  0  0  0  0
  1  2  2  0  0  0  0
  2  3  1  0  0  0  0
  3  4  2  0  0  0  0
  4  5  1  0  0  0  0
  5  6  2  0  0  0  0
  6  1  1  0  0  0  0
  6  7  1  0  0  0  0
  7  8  1  0  0  0  0
  9  1  1  0  0  0  0
 10  4  1  0  0  0  0
 11 12  1  0  0  0  0
 12 13  1  6  0  0  0
 13 10  2  0  0  0  0
 11 14  1  0  0  0  0
 14 15  1  0  0  0  0
 15 16  1  0  0  0  0
 16 17  1  0  0  0  0
 17 12  1  0  0  0  0
 14 18  1  6  0  0  0
 18 19  2  0  0  0  0
 20 21  2  0  0  0  0
 15 21  1  1  0  0  0
 18 22  1  0  0  0  0
 22 23  2  0  0  0  0
 23 24  1  0  0  0  0
 24 25  2  0  0  0  0
 25 19  1  0  0  0  0
 20 26  1  0  0  0  0
 26 27  2  0  0  0  0
 27 28  1  0  0  0  0
 28 29  2  0  0  0  0
 29 21  1  0  0  0  0
 23 30  1  0  0  0  0
 30 31  1  0  0  0  0
 32 24  1  0  0  0  0
 26 33  1  0  0  0  0
 33 34  1  0  0  0  0
 35 27  1  0  0  0  0
M  END
>  <cdx:fragmentId>
5

$$$$
