94080.cdx
  Mrv1902 05222410192D          

 24 26  0  0  0  0            999 V2000
   10.1531   -9.4738    0.0000 C   0  0  0  0  0  0  0  0  0  0  0  0
   10.1531   -8.6487    0.0000 O   0  0  0  0  0  0  0  0  0  0  0  0
    8.0097   -7.4112    0.0000 C   0  0  0  0  0  0  0  0  0  0  0  0
    8.0097   -8.2363    0.0000 C   0  0  0  0  0  0  0  0  0  0  0  0
    8.7242   -8.6487    0.0000 C   0  0  0  0  0  0  0  0  0  0  0  0
    9.4387   -8.2363    0.0000 C   0  0  0  0  0  0  0  0  0  0  0  0
    9.4387   -7.4112    0.0000 C   0  0  0  0  0  0  0  0  0  0  0  0
    8.7242   -6.9988    0.0000 C   0  0  0  0  0  0  0  0  0  0  0  0
   10.1531   -6.9988    0.0000 O   0  0  0  0  0  0  0  0  0  0  0  0
   10.8676   -7.4112    0.0000 C   0  0  0  0  0  0  0  0  0  0  0  0
    7.2251   -7.1563    0.0000 C   0  0  1  0  0  0  0  0  0  0  0  0
    6.7402   -7.8237    0.0000 C   0  0  2  0  0  0  0  0  0  0  0  0
    7.2251   -8.4912    0.0000 O   0  0  0  0  0  0  0  0  0  0  0  0
    6.9702   -6.3717    0.0000 C   0  0  0  0  0  0  0  0  0  0  0  0
    6.1733   -6.1582    0.0000 O   0  0  0  0  0  0  0  0  0  0  0  0
    5.9152   -7.8237    0.0000 C   0  0  0  0  0  0  0  0  0  0  0  0
    5.5027   -7.1093    0.0000 C   0  0  0  0  0  0  0  0  0  0  0  0
    4.6777   -7.1093    0.0000 C   0  0  0  0  0  0  0  0  0  0  0  0
    4.2652   -7.8237    0.0000 C   0  0  0  0  0  0  0  0  0  0  0  0
    4.6777   -8.5382    0.0000 C   0  0  0  0  0  0  0  0  0  0  0  0
    5.5027   -8.5382    0.0000 C   0  0  0  0  0  0  0  0  0  0  0  0
    3.4402   -7.8237    0.0000 O   0  0  0  0  0  0  0  0  0  0  0  0
    4.2652   -9.2527    0.0000 O   0  0  0  0  0  0  0  0  0  0  0  0
    4.6777   -9.9672    0.0000 C   0  0  0  0  0  0  0  0  0  0  0  0
  2  1  1  0  0  0  0
  6  2  1  0  0  0  0
  3  4  2  0  0  0  0
  4  5  1  0  0  0  0
  5  6  2  0  0  0  0
  6  7  1  0  0  0  0
  7  8  2  0  0  0  0
  8  3  1  0  0  0  0
  7  9  1  0  0  0  0
  9 10  1  0  0  0  0
  3 11  1  0  0  0  0
 11 12  1  0  0  0  0
 12 13  1  0  0  0  0
 13  4  1  0  0  0  0
 11 14  1  1  0  0  0
 14 15  1  0  0  0  0
 12 16  1  6  0  0  0
 16 17  2  0  0  0  0
 17 18  1  0  0  0  0
 18 19  2  0  0  0  0
 19 20  1  0  0  0  0
 20 21  2  0  0  0  0
 21 16  1  0  0  0  0
 19 22  1  0  0  0  0
 20 23  1  0  0  0  0
 23 24  1  0  0  0  0
M  END
>  <cdx:fragmentId>
5

$$$$
