94085.cdx
  Mrv1902 05222410192D          

 24 26  0  0  0  0            999 V2000
    4.1428   -8.7465    0.0000 O   0  0  0  0  0  0  0  0  0  0  0  0
    4.8573   -9.9840    0.0000 C   0  0  0  0  0  0  0  0  0  0  0  0
    5.5718   -9.5715    0.0000 O   0  0  0  0  0  0  0  0  0  0  0  0
    7.7152  -10.8090    0.0000 O   0  0  0  0  0  0  0  0  0  0  0  0
    9.1441  -10.8090    0.0000 C   0  0  0  0  0  0  0  0  0  0  0  0
    9.1441   -9.9840    0.0000 O   0  0  0  0  0  0  0  0  0  0  0  0
    5.5718   -7.0965    0.0000 C   0  0  0  0  0  0  0  0  0  0  0  0
    4.8573   -7.5090    0.0000 C   0  0  0  0  0  0  0  0  0  0  0  0
    4.8573   -8.3340    0.0000 C   0  0  0  0  0  0  0  0  0  0  0  0
    5.5718   -8.7465    0.0000 C   0  0  0  0  0  0  0  0  0  0  0  0
    7.0007   -9.5715    0.0000 C   0  0  0  0  0  0  0  0  0  0  0  0
    7.7152   -9.9840    0.0000 C   0  0  0  0  0  0  0  0  0  0  0  0
    8.4296   -9.5715    0.0000 C   0  0  0  0  0  0  0  0  0  0  0  0
    8.4296   -8.7465    0.0000 C   0  0  0  0  0  0  0  0  0  0  0  0
    6.2862   -7.5090    0.0000 C   0  0  0  0  0  0  0  0  0  0  0  0
    6.2862   -8.3340    0.0000 C   0  0  0  0  0  0  0  0  0  0  0  0
    7.0007   -8.7465    0.0000 C   0  0  0  0  0  0  0  0  0  0  0  0
    7.7152   -8.3340    0.0000 C   0  0  0  0  0  0  0  0  0  0  0  0
    7.7152   -5.8590    0.0000 O   0  0  0  0  0  0  0  0  0  0  0  0
    7.0007   -6.2715    0.0000 C   0  0  0  0  0  0  0  0  0  0  0  0
    7.0007   -7.0965    0.0000 C   0  0  1  0  0  0  0  0  0  0  0  0
    7.7152   -7.5090    0.0000 C   0  0  2  0  0  0  0  0  0  0  0  0
    8.4296   -7.0965    0.0000 O   0  0  0  0  0  0  0  0  0  0  0  0
    8.4296   -6.2715    0.0000 C   0  0  0  0  0  0  0  0  0  0  0  0
  1  9  1  0  0  0  0
  3  2  1  0  0  0  0
 10  3  1  0  0  0  0
  4 12  1  0  0  0  0
  6  5  1  0  0  0  0
 13  6  1  0  0  0  0
  7 15  1  0  0  0  0
  8  7  2  0  0  0  0
  9  8  1  0  0  0  0
 10  9  2  0  0  0  0
 16 10  1  0  0  0  0
 11 17  1  0  0  0  0
 12 11  2  0  0  0  0
 13 12  1  0  0  0  0
 14 13  2  0  0  0  0
 18 14  1  0  0  0  0
 21 15  1  1  0  0  0
 16 15  2  0  0  0  0
 18 17  2  0  0  0  0
 22 18  1  6  0  0  0
 19 24  1  0  0  0  0
 20 19  1  0  0  0  0
 21 20  1  0  0  0  0
 22 21  1  0  0  0  0
 23 22  1  0  0  0  0
 24 23  1  0  0  0  0
M  END
>  <cdx:fragmentId>
5

$$$$
