94084.cdx
  Mrv1902 05222410182D          

 24 26  0  0  0  0            999 V2000
    5.2499   -5.4327    0.0000 C   0  0  0  0  0  0  0  0  0  0  0  0
    5.2499   -6.2577    0.0000 O   0  0  0  0  0  0  0  0  0  0  0  0
    5.9644   -6.6702    0.0000 C   0  0  2  0  0  0  0  0  0  0  0  0
    6.6789   -6.2577    0.0000 C   0  0  1  0  0  0  0  0  0  0  0  0
    6.6789   -5.4327    0.0000 C   0  0  0  0  0  0  0  0  0  0  0  0
    5.9644   -5.0202    0.0000 O   0  0  0  0  0  0  0  0  0  0  0  0
    5.9644   -7.4952    0.0000 C   0  0  0  0  0  0  0  0  0  0  0  0
    6.6789   -7.9077    0.0000 C   0  0  0  0  0  0  0  0  0  0  0  0
    7.3934   -7.4952    0.0000 C   0  0  0  0  0  0  0  0  0  0  0  0
    7.3934   -6.6702    0.0000 C   0  0  0  0  0  0  0  0  0  0  0  0
    5.2499   -7.9077    0.0000 C   0  0  0  0  0  0  0  0  0  0  0  0
    5.2499   -8.7327    0.0000 C   0  0  0  0  0  0  0  0  0  0  0  0
    5.9644   -9.1452    0.0000 C   0  0  0  0  0  0  0  0  0  0  0  0
    6.6789   -8.7327    0.0000 C   0  0  0  0  0  0  0  0  0  0  0  0
    8.1078   -7.9077    0.0000 C   0  0  0  0  0  0  0  0  0  0  0  0
    8.8223   -7.4952    0.0000 C   0  0  0  0  0  0  0  0  0  0  0  0
    8.8223   -6.6702    0.0000 C   0  0  0  0  0  0  0  0  0  0  0  0
    8.1078   -6.2577    0.0000 C   0  0  0  0  0  0  0  0  0  0  0  0
    4.5355   -9.1452    0.0000 O   0  0  0  0  0  0  0  0  0  0  0  0
    4.5355   -9.9702    0.0000 C   0  0  0  0  0  0  0  0  0  0  0  0
    5.9644   -9.9702    0.0000 O   0  0  0  0  0  0  0  0  0  0  0  0
    8.1078   -8.7327    0.0000 O   0  0  0  0  0  0  0  0  0  0  0  0
    8.8223   -9.1452    0.0000 C   0  0  0  0  0  0  0  0  0  0  0  0
    9.5368   -7.9077    0.0000 O   0  0  0  0  0  0  0  0  0  0  0  0
  1  2  1  0  0  0  0
  2  3  1  0  0  0  0
  3  4  1  0  0  0  0
  4  5  1  0  0  0  0
  5  6  1  0  0  0  0
  6  1  1  0  0  0  0
  3  7  1  6  0  0  0
  7  8  2  0  0  0  0
  9 10  2  0  0  0  0
  4 10  1  1  0  0  0
  7 11  1  0  0  0  0
 11 12  2  0  0  0  0
 12 13  1  0  0  0  0
 13 14  2  0  0  0  0
 14  8  1  0  0  0  0
  9 15  1  0  0  0  0
 15 16  2  0  0  0  0
 16 17  1  0  0  0  0
 17 18  2  0  0  0  0
 18 10  1  0  0  0  0
 12 19  1  0  0  0  0
 19 20  1  0  0  0  0
 21 13  1  0  0  0  0
 15 22  1  0  0  0  0
 22 23  1  0  0  0  0
 24 16  1  0  0  0  0
M  END
>  <cdx:fragmentId>
5

$$$$
