94099.cdx
  Mrv1902 05222410262D          

 34 38  0  0  0  0            999 V2000
    4.0681   -9.0200    0.0000 C   0  0  0  0  0  0  0  0  0  0  0  0
    4.0681   -9.8450    0.0000 C   0  0  0  0  0  0  0  0  0  0  0  0
    4.7825  -10.2575    0.0000 C   0  0  0  0  0  0  0  0  0  0  0  0
    5.4970   -9.8450    0.0000 C   0  0  0  0  0  0  0  0  0  0  0  0
    5.4970   -9.0200    0.0000 C   0  0  0  0  0  0  0  0  0  0  0  0
    4.7825   -8.6075    0.0000 C   0  0  0  0  0  0  0  0  0  0  0  0
    3.3536  -10.2575    0.0000 O   0  0  0  0  0  0  0  0  0  0  0  0
    3.3536  -11.0825    0.0000 C   0  0  0  0  0  0  0  0  0  0  0  0
    4.7825  -11.0825    0.0000 O   0  0  0  0  0  0  0  0  0  0  0  0
    6.2115  -11.0825    0.0000 C   0  0  0  0  0  0  0  0  0  0  0  0
    6.2115  -10.2575    0.0000 O   0  0  0  0  0  0  0  0  0  0  0  0
    6.2115   -7.7825    0.0000 C   0  0  0  0  0  0  0  0  0  0  0  0
    5.4970   -7.3700    0.0000 C   0  0  2  0  0  0  0  0  0  0  0  0
    4.7825   -7.7825    0.0000 C   0  0  2  0  0  0  0  0  0  0  0  0
    6.9259   -7.3700    0.0000 O   0  0  0  0  0  0  0  0  0  0  0  0
    6.9259   -6.5450    0.0000 C   0  0  0  0  0  0  0  0  0  0  0  0
    6.2115   -6.1325    0.0000 C   0  0  0  0  0  0  0  0  0  0  0  0
    5.4970   -6.5450    0.0000 O   0  0  0  0  0  0  0  0  0  0  0  0
    7.6404   -6.1325    0.0000 C   0  0  0  0  0  0  0  0  0  0  0  0
    7.6404   -5.3075    0.0000 C   0  0  0  0  0  0  0  0  0  0  0  0
    6.9259   -4.8950    0.0000 C   0  0  0  0  0  0  0  0  0  0  0  0
    6.2115   -5.3075    0.0000 C   0  0  0  0  0  0  0  0  0  0  0  0
    8.3549   -6.5450    0.0000 N   0  0  0  0  0  0  0  0  0  0  0  0
    9.0694   -6.1325    0.0000 C   0  0  0  0  0  0  0  0  0  0  0  0
    9.0694   -5.3075    0.0000 C   0  0  0  0  0  0  0  0  0  0  0  0
    8.3549   -4.8950    0.0000 C   0  0  0  0  0  0  0  0  0  0  0  0
    9.8540   -6.3874    0.0000 O   0  0  0  0  0  0  0  0  0  0  0  0
   10.3389   -5.7200    0.0000 C   0  0  0  0  0  0  0  0  0  0  0  0
    9.8540   -5.0526    0.0000 C   0  0  0  0  0  0  0  0  0  0  0  0
    4.0681   -7.3700    0.0000 O   0  0  0  0  0  0  0  0  0  0  0  0
    8.3549   -4.0700    0.0000 O   0  0  0  0  0  0  0  0  0  0  0  0
    7.6404   -3.6575    0.0000 C   0  0  0  0  0  0  0  0  0  0  0  0
    5.4970   -8.1950    0.0000 H   0  0  0  0  0  0  0  0  0  0  0  0
    4.7825   -6.9575    0.0000 H   0  0  0  0  0  0  0  0  0  0  0  0
  1  2  2  0  0  0  0
  2  3  1  0  0  0  0
  3  4  2  0  0  0  0
  4  5  1  0  0  0  0
  5  6  2  0  0  0  0
  6  1  1  0  0  0  0
  2  7  1  0  0  0  0
  7  8  1  0  0  0  0
  9  3  1  0  0  0  0
 10 11  1  0  0  0  0
 11  4  1  0  0  0  0
 12 13  1  0  0  0  0
 13 14  1  0  0  0  0
 14  6  1  0  0  0  0
 12 15  1  0  0  0  0
 15 16  1  0  0  0  0
 16 17  2  0  0  0  0
 17 18  1  0  0  0  0
 18 13  1  0  0  0  0
 16 19  1  0  0  0  0
 19 20  2  0  0  0  0
 20 21  1  0  0  0  0
 21 22  2  0  0  0  0
 22 17  1  0  0  0  0
 19 23  1  0  0  0  0
 23 24  2  0  0  0  0
 24 25  1  0  0  0  0
 25 26  2  0  0  0  0
 26 20  1  0  0  0  0
 24 27  1  0  0  0  0
 27 28  1  0  0  0  0
 28 29  2  0  0  0  0
 29 25  1  0  0  0  0
 14 30  1  0  0  0  0
 26 31  1  0  0  0  0
 31 32  1  0  0  0  0
 13 33  1  1  0  0  0
 14 34  1  6  0  0  0
M  END
>  <cdx:fragmentId>
5

$$$$
