94090.cdx
  Mrv1902 05222410182D          

 23 23  0  0  0  0            999 V2000
    5.0306   -6.1600    0.0000 C   0  0  0  0  0  0  0  0  0  0  0  0
    5.7450   -7.3975    0.0000 C   0  0  0  0  0  0  0  0  0  0  0  0
    6.4595   -6.9850    0.0000 C   0  0  0  0  0  0  0  0  0  0  0  0
    6.4595   -6.1600    0.0000 C   0  0  1  0  0  0  0  0  0  0  0  0
    5.7450   -5.7475    0.0000 O   0  0  0  0  0  0  0  0  0  0  0  0
    7.1740   -7.3975    0.0000 C   0  0  0  0  0  0  0  0  0  0  0  0
    7.8884   -6.9850    0.0000 O   0  0  0  0  0  0  0  0  0  0  0  0
    7.8884   -6.1600    0.0000 C   0  0  0  0  0  0  0  0  0  0  0  0
    7.1740   -5.7475    0.0000 C   0  0  0  0  0  0  0  0  0  0  0  0
    8.6029   -7.3975    0.0000 C   0  0  0  0  0  0  0  0  0  0  0  0
    9.3174   -6.1600    0.0000 C   0  0  0  0  0  0  0  0  0  0  0  0
    8.6029   -5.7475    0.0000 O   0  0  0  0  0  0  0  0  0  0  0  0
    5.7450   -8.2225    0.0000 C   0  0  0  0  0  0  0  0  0  0  0  0
    6.4595   -8.6350    0.0000 C   0  0  0  0  0  0  0  0  0  0  0  0
    7.1740   -8.2225    0.0000 C   0  0  0  0  0  0  0  0  0  0  0  0
    4.3161   -8.2225    0.0000 C   0  0  0  0  0  0  0  0  0  0  0  0
    5.0306   -8.6350    0.0000 O   0  0  0  0  0  0  0  0  0  0  0  0
    4.3161   -5.7475    0.0000 C   0  0  0  0  0  0  0  0  0  0  0  0
   10.0319   -5.7475    0.0000 C   0  0  0  0  0  0  0  0  0  0  0  0
    9.3174   -6.9850    0.0000 C   0  0  0  0  0  0  0  0  0  0  0  0
    7.8884   -8.6350    0.0000 O   0  0  0  0  0  0  0  0  0  0  0  0
    8.6029   -8.2225    0.0000 C   0  0  0  0  0  0  0  0  0  0  0  0
    6.4595   -9.4600    0.0000 O   0  0  0  0  0  0  0  0  0  0  0  0
  2  3  2  0  0  0  0
  3  4  1  0  0  0  0
  4  5  1  1  0  0  0
  5  1  1  0  0  0  0
  3  6  1  0  0  0  0
  7  8  1  0  0  0  0
  8  9  1  0  0  0  0
  9  4  1  0  0  0  0
  7 10  1  0  0  0  0
 11 12  1  0  0  0  0
 12  8  1  0  0  0  0
  2 13  1  0  0  0  0
 13 14  2  0  0  0  0
 14 15  1  0  0  0  0
 15  6  2  0  0  0  0
 16 17  1  0  0  0  0
 17 13  1  0  0  0  0
  1 18  1  0  0  0  0
 11 19  1  0  0  0  0
 10 20  1  0  0  0  0
 15 21  1  0  0  0  0
 21 22  1  0  0  0  0
 14 23  1  0  0  0  0
M  END
>  <cdx:fragmentId>
5

$$$$
