94093.cdx
  Mrv1902 05222410182D          

 20 22  0  0  0  0            999 V2000
    6.2268   -7.5213    0.0000 C   0  0  0  0  0  0  0  0  0  0  0  0
    6.2268   -8.3462    0.0000 C   0  0  0  0  0  0  0  0  0  0  0  0
    6.9413   -8.7588    0.0000 C   0  0  0  0  0  0  0  0  0  0  0  0
    7.6557   -8.3462    0.0000 C   0  0  0  0  0  0  0  0  0  0  0  0
    7.6557   -7.5213    0.0000 C   0  0  0  0  0  0  0  0  0  0  0  0
    6.9413   -7.1088    0.0000 C   0  0  0  0  0  0  0  0  0  0  0  0
    8.3702   -8.7588    0.0000 C   0  0  0  0  0  0  0  0  0  0  0  0
    9.0847   -8.3462    0.0000 C   0  0  0  0  0  0  0  0  0  0  0  0
    9.0847   -7.5213    0.0000 C   0  0  0  0  0  0  0  0  0  0  0  0
    8.3702   -7.1088    0.0000 C   0  0  0  0  0  0  0  0  0  0  0  0
    6.7697   -6.3018    0.0000 C   0  0  0  0  0  0  0  0  0  0  0  0
    5.9493   -6.2155    0.0000 O   0  0  0  0  0  0  0  0  0  0  0  0
    5.6137   -6.9692    0.0000 C   0  0  2  0  0  0  0  0  0  0  0  0
    7.3218   -5.6887    0.0000 O   0  0  0  0  0  0  0  0  0  0  0  0
    7.9577   -9.4732    0.0000 C   0  0  0  0  0  0  0  0  0  0  0  0
    8.7827   -9.4732    0.0000 C   0  0  0  0  0  0  0  0  0  0  0  0
    4.8067   -7.1407    0.0000 C   0  0  0  0  0  0  0  0  0  0  0  0
    4.3942   -7.8552    0.0000 C   0  0  0  0  0  0  0  0  0  0  0  0
    3.5692   -7.8552    0.0000 C   0  0  0  0  0  0  0  0  0  0  0  0
    4.8067   -8.5697    0.0000 C   0  0  0  0  0  0  0  0  0  0  0  0
  1  2  2  0  0  0  0
  2  3  1  0  0  0  0
  3  4  2  0  0  0  0
  4  5  1  0  0  0  0
  5  6  2  0  0  0  0
  6  1  1  0  0  0  0
  4  7  1  0  0  0  0
  7  8  1  0  0  0  0
  8  9  1  0  0  0  0
  9 10  1  0  0  0  0
 10  5  1  0  0  0  0
  6 11  1  0  0  0  0
 11 12  1  0  0  0  0
 12 13  1  0  0  0  0
 13  1  1  0  0  0  0
 11 14  2  0  0  0  0
  7 15  1  0  0  0  0
  7 16  1  0  0  0  0
 13 17  1  1  0  0  0
 17 18  2  0  0  0  0
 18 19  1  0  0  0  0
 18 20  1  0  0  0  0
M  END
>  <cdx:fragmentId>
5

$$$$
