94094.cdx
  Mrv1902 05222410192D          

 20 22  0  0  0  0            999 V2000
    7.8609   -8.6124    0.0000 C   0  0  0  0  0  0  0  0  0  0  0  0
    9.0984   -7.8979    0.0000 C   0  0  0  0  0  0  0  0  0  0  0  0
    8.2734   -7.8979    0.0000 C   0  0  0  0  0  0  0  0  0  0  0  0
    7.8609   -7.1835    0.0000 C   0  0  0  0  0  0  0  0  0  0  0  0
    3.8850   -9.5159    0.0000 C   0  0  0  0  0  0  0  0  0  0  0  0
    4.7100   -9.5159    0.0000 C   0  0  0  0  0  0  0  0  0  0  0  0
    5.3459   -5.7314    0.0000 O   0  0  0  0  0  0  0  0  0  0  0  0
    7.0540   -7.0119    0.0000 C   0  0  2  0  0  0  0  0  0  0  0  0
    6.7184   -6.2583    0.0000 O   0  0  0  0  0  0  0  0  0  0  0  0
    5.8979   -6.3445    0.0000 C   0  0  0  0  0  0  0  0  0  0  0  0
    4.2975   -7.1515    0.0000 C   0  0  0  0  0  0  0  0  0  0  0  0
    3.5830   -7.5640    0.0000 C   0  0  0  0  0  0  0  0  0  0  0  0
    3.5830   -8.3890    0.0000 C   0  0  0  0  0  0  0  0  0  0  0  0
    4.2975   -8.8015    0.0000 C   0  0  0  0  0  0  0  0  0  0  0  0
    5.7264   -7.1515    0.0000 C   0  0  0  0  0  0  0  0  0  0  0  0
    5.0119   -7.5640    0.0000 C   0  0  0  0  0  0  0  0  0  0  0  0
    5.0119   -8.3890    0.0000 C   0  0  0  0  0  0  0  0  0  0  0  0
    5.7264   -8.8015    0.0000 C   0  0  0  0  0  0  0  0  0  0  0  0
    6.4409   -8.3890    0.0000 C   0  0  0  0  0  0  0  0  0  0  0  0
    6.4409   -7.5640    0.0000 C   0  0  0  0  0  0  0  0  0  0  0  0
  3  1  1  0  0  0  0
  3  2  1  0  0  0  0
  4  3  2  0  0  0  0
  8  4  1  1  0  0  0
 14  5  1  0  0  0  0
 14  6  1  0  0  0  0
 10  7  2  0  0  0  0
  8 20  1  0  0  0  0
  9  8  1  0  0  0  0
 10  9  1  0  0  0  0
 15 10  1  0  0  0  0
 11 16  1  0  0  0  0
 12 11  1  0  0  0  0
 13 12  1  0  0  0  0
 14 13  1  0  0  0  0
 17 14  1  0  0  0  0
 15 20  1  0  0  0  0
 16 15  2  0  0  0  0
 17 16  1  0  0  0  0
 18 17  2  0  0  0  0
 19 18  1  0  0  0  0
 20 19  2  0  0  0  0
M  END
>  <cdx:fragmentId>
5

$$$$
