94092.cdx
  Mrv1902 05222410182D          

 23 23  0  0  0  0            999 V2000
    7.3109  -10.2025    0.0000 O   0  0  0  0  0  0  0  0  0  0  0  0
    5.1675   -8.9650    0.0000 C   0  0  0  0  0  0  0  0  0  0  0  0
    5.8820   -9.3775    0.0000 O   0  0  0  0  0  0  0  0  0  0  0  0
    4.4531   -7.7275    0.0000 C   0  0  0  0  0  0  0  0  0  0  0  0
    3.7386   -6.4900    0.0000 C   0  0  0  0  0  0  0  0  0  0  0  0
    9.4544   -6.4900    0.0000 C   0  0  0  0  0  0  0  0  0  0  0  0
    8.7399   -9.3775    0.0000 O   0  0  0  0  0  0  0  0  0  0  0  0
    9.4544   -8.9650    0.0000 C   0  0  0  0  0  0  0  0  0  0  0  0
    6.5965   -8.9650    0.0000 C   0  0  0  0  0  0  0  0  0  0  0  0
    7.3109   -9.3775    0.0000 C   0  0  0  0  0  0  0  0  0  0  0  0
    8.0254   -8.9650    0.0000 C   0  0  0  0  0  0  0  0  0  0  0  0
    5.1675   -6.4900    0.0000 O   0  0  0  0  0  0  0  0  0  0  0  0
    4.4531   -6.9025    0.0000 C   0  0  0  0  0  0  0  0  0  0  0  0
    5.1675   -8.1400    0.0000 C   0  0  0  0  0  0  0  0  0  0  0  0
    6.5965   -6.4900    0.0000 C   0  0  0  0  0  0  0  0  0  0  0  0
    5.8820   -6.9025    0.0000 C   0  0  0  0  0  0  0  0  0  0  0  0
    5.8820   -7.7275    0.0000 O   0  0  0  0  0  0  0  0  0  0  0  0
    6.5965   -8.1400    0.0000 C   0  0  0  0  0  0  0  0  0  0  0  0
    8.0254   -6.4900    0.0000 O   0  0  0  0  0  0  0  0  0  0  0  0
    7.3109   -6.9025    0.0000 C   0  0  1  0  0  0  0  0  0  0  0  0
    7.3109   -7.7275    0.0000 C   0  0  0  0  0  0  0  0  0  0  0  0
    8.0254   -8.1400    0.0000 C   0  0  0  0  0  0  0  0  0  0  0  0
    8.7399   -6.9025    0.0000 C   0  0  0  0  0  0  0  0  0  0  0  0
 10  1  1  0  0  0  0
  3  2  1  0  0  0  0
  9  3  1  0  0  0  0
 14  4  1  0  0  0  0
 13  5  1  0  0  0  0
 23  6  1  0  0  0  0
  7 11  1  0  0  0  0
  8  7  1  0  0  0  0
  9 18  2  0  0  0  0
 10  9  1  0  0  0  0
 11 10  2  0  0  0  0
 22 11  1  0  0  0  0
 12 16  1  0  0  0  0
 13 12  1  0  0  0  0
 17 14  1  0  0  0  0
 15 20  1  0  0  0  0
 16 15  1  0  0  0  0
 17 16  1  0  0  0  0
 21 18  1  0  0  0  0
 19 23  1  0  0  0  0
 20 19  1  1  0  0  0
 21 20  1  0  0  0  0
 22 21  2  0  0  0  0
M  END
>  <cdx:fragmentId>
5

$$$$
