94095.cdx
  Mrv1902 05222410192D          

 40 44  0  0  0  0            999 V2000
    7.3699  -10.9731    0.0000 O   0  0  0  0  0  0  0  0  0  0  0  0
    6.6600  -11.3935    0.0000 C   0  0  2  0  0  0  0  0  0  0  0  0
    5.9410  -10.9890    0.0000 O   0  0  0  0  0  0  0  0  0  0  0  0
    5.2312  -11.4094    0.0000 C   0  0  1  0  0  0  0  0  0  0  0  0
    5.2403  -12.2343    0.0000 C   0  0  2  0  0  0  0  0  0  0  0  0
    5.9593  -12.6389    0.0000 C   0  0  1  0  0  0  0  0  0  0  0  0
    6.6692  -12.2185    0.0000 C   0  0  1  0  0  0  0  0  0  0  0  0
    4.5122  -11.0049    0.0000 C   0  0  0  0  0  0  0  0  0  0  0  0
    5.9685  -13.4638    0.0000 O   0  0  0  0  0  0  0  0  0  0  0  0
    4.5305  -12.6548    0.0000 O   0  0  0  0  0  0  0  0  0  0  0  0
    7.3882  -12.6230    0.0000 O   0  0  0  0  0  0  0  0  0  0  0  0
    3.8023  -11.4253    0.0000 O   0  0  0  0  0  0  0  0  0  0  0  0
   11.7477   -3.1311    0.0000 C   0  0  0  0  0  0  0  0  0  0  0  0
    5.7073   -9.1396    0.0000 C   0  0  0  0  0  0  0  0  0  0  0  0
    6.2615   -9.7508    0.0000 O   0  0  0  0  0  0  0  0  0  0  0  0
   10.9519   -3.3487    0.0000 O   0  0  0  0  0  0  0  0  0  0  0  0
    7.3201   -8.7909    0.0000 C   0  0  0  0  0  0  0  0  0  0  0  0
    7.0679   -9.5764    0.0000 C   0  0  0  0  0  0  0  0  0  0  0  0
    7.6221  -10.1876    0.0000 C   0  0  0  0  0  0  0  0  0  0  0  0
    8.4284  -10.0132    0.0000 C   0  0  0  0  0  0  0  0  0  0  0  0
    8.6806   -9.2277    0.0000 C   0  0  0  0  0  0  0  0  0  0  0  0
   11.0017   -5.5308    0.0000 C   0  0  0  0  0  0  0  0  0  0  0  0
   11.2539   -4.7453    0.0000 C   0  0  0  0  0  0  0  0  0  0  0  0
   10.6997   -4.1342    0.0000 C   0  0  0  0  0  0  0  0  0  0  0  0
    9.8934   -4.3085    0.0000 C   0  0  0  0  0  0  0  0  0  0  0  0
    9.6412   -5.0940    0.0000 C   0  0  0  0  0  0  0  0  0  0  0  0
    8.1264   -8.6166    0.0000 C   0  0  0  0  0  0  0  0  0  0  0  0
    9.1566   -5.9234    0.0000 H   0  0  0  0  0  0  0  0  0  0  0  0
    9.1652   -8.3984    0.0000 H   0  0  0  0  0  0  0  0  0  0  0  0
   10.1954   -5.7052    0.0000 C   0  0  0  0  0  0  0  0  0  0  0  0
    8.3739   -6.4962    0.0000 C   0  0  0  0  0  0  0  0  0  0  0  0
    7.8914   -7.1653    0.0000 O   0  0  0  0  0  0  0  0  0  0  0  0
    8.3786   -7.8311    0.0000 C   0  0  1  0  0  0  0  0  0  0  0  0
   10.4304   -7.1564    0.0000 O   0  0  0  0  0  0  0  0  0  0  0  0
    9.9432   -6.4907    0.0000 C   0  0  2  0  0  0  0  0  0  0  0  0
    9.1595   -6.7484    0.0000 C   0  0  2  0  0  0  0  0  0  0  0  0
    9.1623   -7.5734    0.0000 C   0  0  2  0  0  0  0  0  0  0  0  0
    9.9479   -7.8256    0.0000 C   0  0  0  0  0  0  0  0  0  0  0  0
   12.0603   -4.5710    0.0000 O   0  0  0  0  0  0  0  0  0  0  0  0
   12.6145   -5.1821    0.0000 C   0  0  0  0  0  0  0  0  0  0  0  0
  2  1  1  1  0  0  0
  2  3  1  0  0  0  0
  3  4  1  0  0  0  0
  4  5  1  0  0  0  0
  5  6  1  0  0  0  0
  6  7  1  0  0  0  0
  7  2  1  0  0  0  0
  4  8  1  1  0  0  0
  6  9  1  1  0  0  0
  5 10  1  6  0  0  0
  7 11  1  6  0  0  0
 16 13  1  0  0  0  0
 15 14  1  0  0  0  0
 18 15  1  0  0  0  0
 19  1  1  0  0  0  0
  8 12  1  0  0  0  0
 24 16  1  0  0  0  0
 17 27  1  0  0  0  0
 18 17  2  0  0  0  0
 19 18  1  0  0  0  0
 20 19  2  0  0  0  0
 21 20  1  0  0  0  0
 27 21  2  0  0  0  0
 22 30  1  0  0  0  0
 23 22  2  0  0  0  0
 24 23  1  0  0  0  0
 25 24  2  0  0  0  0
 26 25  1  0  0  0  0
 30 26  2  0  0  0  0
 33 27  1  1  0  0  0
 36 28  1  1  0  0  0
 37 29  1  1  0  0  0
 35 30  1  6  0  0  0
 31 36  1  0  0  0  0
 32 31  1  0  0  0  0
 33 32  1  0  0  0  0
 37 33  1  0  0  0  0
 34 38  1  0  0  0  0
 35 34  1  0  0  0  0
 36 35  1  0  0  0  0
 37 36  1  0  0  0  0
 38 37  1  0  0  0  0
 23 39  1  0  0  0  0
 39 40  1  0  0  0  0
M  END
>  <cdx:fragmentId>
5

$$$$
