94104.cdx
  Mrv1902 05222410262D          

 28 30  0  0  0  0            999 V2000
    6.1306   -4.3450    0.0000 C   0  0  0  0  0  0  0  0  0  0  0  0
    6.1306   -5.1700    0.0000 C   0  0  0  0  0  0  0  0  0  0  0  0
    6.8450   -5.5825    0.0000 C   0  0  0  0  0  0  0  0  0  0  0  0
    7.5595   -5.1700    0.0000 C   0  0  0  0  0  0  0  0  0  0  0  0
    7.5595   -4.3450    0.0000 C   0  0  0  0  0  0  0  0  0  0  0  0
    6.8450   -3.9325    0.0000 C   0  0  0  0  0  0  0  0  0  0  0  0
    8.2740   -5.5825    0.0000 O   0  0  0  0  0  0  0  0  0  0  0  0
    8.9884   -5.1700    0.0000 C   0  0  0  0  0  0  0  0  0  0  0  0
    8.9884   -4.3450    0.0000 C   0  0  0  0  0  0  0  0  0  0  0  0
    8.2740   -3.9325    0.0000 C   0  0  0  0  0  0  0  0  0  0  0  0
    5.4161   -5.5825    0.0000 O   0  0  0  0  0  0  0  0  0  0  0  0
    5.4161   -6.4075    0.0000 C   0  0  0  0  0  0  0  0  0  0  0  0
    6.1306   -6.8200    0.0000 C   0  0  1  0  0  0  0  0  0  0  0  0
    6.8450   -6.4075    0.0000 C   0  0  2  0  0  0  0  0  0  0  0  0
    6.1306   -7.6450    0.0000 O   0  0  0  0  0  0  0  0  0  0  0  0
    6.8450   -8.0575    0.0000 O   0  0  0  0  0  0  0  0  0  0  0  0
    7.5595   -7.6450    0.0000 C   0  0  0  0  0  0  0  0  0  0  0  0
    7.5595   -6.8200    0.0000 O   0  0  0  0  0  0  0  0  0  0  0  0
    4.7016   -7.6450    0.0000 C   0  0  0  0  0  0  0  0  0  0  0  0
    5.4161   -8.0575    0.0000 C   0  0  0  0  0  0  0  0  0  0  0  0
    8.2740   -8.0575    0.0000 C   0  0  0  0  0  0  0  0  0  0  0  0
    8.2740   -8.8825    0.0000 C   0  0  0  0  0  0  0  0  0  0  0  0
    8.9884   -9.2950    0.0000 C   0  0  0  0  0  0  0  0  0  0  0  0
    9.7029   -5.5825    0.0000 O   0  0  0  0  0  0  0  0  0  0  0  0
    5.0036   -7.1220    0.0000 C   0  0  0  0  0  0  0  0  0  0  0  0
    4.5911   -6.4075    0.0000 C   0  0  0  0  0  0  0  0  0  0  0  0
    5.4161   -8.8825    0.0000 O   0  0  0  0  0  0  0  0  0  0  0  0
    8.9884   -7.6450    0.0000 C   0  0  0  0  0  0  0  0  0  0  0  0
  1  2  2  0  0  0  0
  2  3  1  0  0  0  0
  3  4  2  0  0  0  0
  4  5  1  0  0  0  0
  5  6  2  0  0  0  0
  6  1  1  0  0  0  0
  4  7  1  0  0  0  0
  7  8  1  0  0  0  0
  8  9  1  0  0  0  0
  9 10  2  0  0  0  0
 10  5  1  0  0  0  0
  2 11  1  0  0  0  0
 11 12  1  0  0  0  0
 12 13  1  0  0  0  0
 13 14  1  0  0  0  0
 14  3  1  0  0  0  0
 13 15  1  1  0  0  0
 16 17  2  0  0  0  0
 17 18  1  0  0  0  0
 14 18  1  1  0  0  0
 19 20  1  0  0  0  0
 20 15  1  0  0  0  0
 17 21  1  0  0  0  0
 21 22  2  0  0  0  0
 22 23  1  0  0  0  0
  8 24  2  0  0  0  0
 12 25  1  0  0  0  0
 12 26  1  0  0  0  0
 20 27  2  0  0  0  0
 21 28  1  0  0  0  0
M  END
>  <cdx:fragmentId>
5

$$$$
