94109.cdx
  Mrv1902 05222410202D          

 21 21  0  0  0  0            999 V2000
    9.1717   -4.0882    0.0000 C   0  0  0  0  0  0  0  0  0  0  0  0
    9.1717   -4.9132    0.0000 C   0  0  0  0  0  0  0  0  0  0  0  0
    9.8862   -5.3257    0.0000 C   0  0  0  0  0  0  0  0  0  0  0  0
   10.6006   -4.9132    0.0000 C   0  0  0  0  0  0  0  0  0  0  0  0
    8.4572   -3.6757    0.0000 O   0  0  0  0  0  0  0  0  0  0  0  0
    9.8862   -3.6757    0.0000 O   0  0  0  0  0  0  0  0  0  0  0  0
   10.6006   -4.0882    0.0000 O   0  0  0  0  0  0  0  0  0  0  0  0
   11.3151   -5.3257    0.0000 O   0  0  0  0  0  0  0  0  0  0  0  0
    9.1717   -5.7382    0.0000 O   0  0  0  0  0  0  0  0  0  0  0  0
    8.4572   -5.3257    0.0000 C   0  0  0  0  0  0  0  0  0  0  0  0
    7.7428   -4.9132    0.0000 C   0  0  0  0  0  0  0  0  0  0  0  0
    7.7428   -4.0882    0.0000 O   0  0  0  0  0  0  0  0  0  0  0  0
    7.0283   -5.3257    0.0000 O   0  0  0  0  0  0  0  0  0  0  0  0
    6.3138   -4.9132    0.0000 C   0  0  0  0  0  0  0  0  0  0  0  0
    4.8457   -4.9901    0.0000 O   0  0  0  0  0  0  0  0  0  0  0  0
    5.5994   -5.3257    0.0000 C   0  0  0  0  0  0  0  0  0  0  0  0
    5.5131   -6.1461    0.0000 C   0  0  0  0  0  0  0  0  0  0  0  0
    4.7061   -6.3177    0.0000 C   0  0  0  0  0  0  0  0  0  0  0  0
    4.2936   -5.6032    0.0000 C   0  0  0  0  0  0  0  0  0  0  0  0
    3.4732   -5.5170    0.0000 C   0  0  0  0  0  0  0  0  0  0  0  0
    2.9882   -6.1844    0.0000 O   0  0  0  0  0  0  0  0  0  0  0  0
  1  2  1  0  0  0  0
  2  3  1  0  0  0  0
  3  4  1  0  0  0  0
  1  5  2  0  0  0  0
  1  6  1  0  0  0  0
  4  7  2  0  0  0  0
  4  8  1  0  0  0  0
  2  9  1  0  0  0  0
 10 11  1  0  0  0  0
 11 12  2  0  0  0  0
 13 14  1  0  0  0  0
 15 16  1  0  0  0  0
 16 17  2  0  0  0  0
 17 18  1  0  0  0  0
 18 19  2  0  0  0  0
 15 19  1  0  0  0  0
 20 21  2  0  0  0  0
 19 20  1  0  0  0  0
 14 16  1  0  0  0  0
 11 13  1  0  0  0  0
  2 10  1  0  0  0  0
M  END
>  <cdx:fragmentId>
59551

$$$$
