94100.cdx
  Mrv1902 05222410282D          

 34 38  0  0  0  0            999 V2000
    8.8197   -6.9575    0.0000 H   0  0  0  0  0  0  0  0  0  0  0  0
    8.1052   -8.1950    0.0000 H   0  0  0  0  0  0  0  0  0  0  0  0
    5.9618   -3.6575    0.0000 C   0  0  0  0  0  0  0  0  0  0  0  0
    5.2473   -4.0700    0.0000 O   0  0  0  0  0  0  0  0  0  0  0  0
    9.5342   -7.3700    0.0000 O   0  0  0  0  0  0  0  0  0  0  0  0
    3.7483   -5.0526    0.0000 C   0  0  0  0  0  0  0  0  0  0  0  0
    3.2633   -5.7200    0.0000 C   0  0  0  0  0  0  0  0  0  0  0  0
    3.7483   -6.3874    0.0000 O   0  0  0  0  0  0  0  0  0  0  0  0
    5.2473   -4.8950    0.0000 C   0  0  0  0  0  0  0  0  0  0  0  0
    4.5329   -5.3075    0.0000 C   0  0  0  0  0  0  0  0  0  0  0  0
    4.5329   -6.1325    0.0000 C   0  0  0  0  0  0  0  0  0  0  0  0
    5.2473   -6.5450    0.0000 N   0  0  0  0  0  0  0  0  0  0  0  0
    7.3908   -5.3075    0.0000 C   0  0  0  0  0  0  0  0  0  0  0  0
    6.6763   -4.8950    0.0000 C   0  0  0  0  0  0  0  0  0  0  0  0
    5.9618   -5.3075    0.0000 C   0  0  0  0  0  0  0  0  0  0  0  0
    5.9618   -6.1325    0.0000 C   0  0  0  0  0  0  0  0  0  0  0  0
    8.1052   -6.5450    0.0000 O   0  0  0  0  0  0  0  0  0  0  0  0
    7.3908   -6.1325    0.0000 C   0  0  0  0  0  0  0  0  0  0  0  0
    6.6763   -6.5450    0.0000 C   0  0  0  0  0  0  0  0  0  0  0  0
    6.6763   -7.3700    0.0000 O   0  0  0  0  0  0  0  0  0  0  0  0
    8.8197   -7.7825    0.0000 C   0  0  2  0  0  0  0  0  0  0  0  0
    8.1052   -7.3700    0.0000 C   0  0  2  0  0  0  0  0  0  0  0  0
    7.3908   -7.7825    0.0000 C   0  0  0  0  0  0  0  0  0  0  0  0
    7.3908  -10.2575    0.0000 O   0  0  0  0  0  0  0  0  0  0  0  0
    7.3908  -11.0825    0.0000 C   0  0  0  0  0  0  0  0  0  0  0  0
    8.8197  -11.0825    0.0000 O   0  0  0  0  0  0  0  0  0  0  0  0
   10.2486  -11.0825    0.0000 C   0  0  0  0  0  0  0  0  0  0  0  0
   10.2486  -10.2575    0.0000 O   0  0  0  0  0  0  0  0  0  0  0  0
    8.8197   -8.6075    0.0000 C   0  0  0  0  0  0  0  0  0  0  0  0
    8.1052   -9.0200    0.0000 C   0  0  0  0  0  0  0  0  0  0  0  0
    8.1052   -9.8450    0.0000 C   0  0  0  0  0  0  0  0  0  0  0  0
    8.8197  -10.2575    0.0000 C   0  0  0  0  0  0  0  0  0  0  0  0
    9.5342   -9.8450    0.0000 C   0  0  0  0  0  0  0  0  0  0  0  0
    9.5342   -9.0200    0.0000 C   0  0  0  0  0  0  0  0  0  0  0  0
 21  1  1  6  0  0  0
 22  2  1  1  0  0  0
  4  3  1  0  0  0  0
  9  4  1  0  0  0  0
 21  5  1  0  0  0  0
  6 10  1  0  0  0  0
  7  6  2  0  0  0  0
  8  7  1  0  0  0  0
 11  8  1  0  0  0  0
  9 15  1  0  0  0  0
 10  9  2  0  0  0  0
 11 10  1  0  0  0  0
 12 11  2  0  0  0  0
 16 12  1  0  0  0  0
 13 18  1  0  0  0  0
 14 13  2  0  0  0  0
 15 14  1  0  0  0  0
 16 15  2  0  0  0  0
 19 16  1  0  0  0  0
 17 22  1  0  0  0  0
 18 17  1  0  0  0  0
 19 18  2  0  0  0  0
 20 19  1  0  0  0  0
 23 20  1  0  0  0  0
 21 29  1  0  0  0  0
 22 21  1  0  0  0  0
 23 22  1  0  0  0  0
 24 31  1  0  0  0  0
 25 24  1  0  0  0  0
 26 32  1  0  0  0  0
 28 27  1  0  0  0  0
 33 28  1  0  0  0  0
 29 34  1  0  0  0  0
 30 29  2  0  0  0  0
 31 30  1  0  0  0  0
 32 31  2  0  0  0  0
 33 32  1  0  0  0  0
 34 33  2  0  0  0  0
M  END
>  <cdx:fragmentId>
5

$$$$
