94101.cdx
  Mrv1902 05222410282D          

 13 13  0  0  0  0            999 V2000
    6.1239   -9.2897    0.0000 C   0  0  0  0  0  0  0  0  0  0  0  0
    5.4095   -8.8772    0.0000 C   0  0  1  0  0  0  0  0  0  0  0  0
    4.6950   -9.2897    0.0000 C   0  0  0  0  0  0  0  0  0  0  0  0
    5.4095   -8.0522    0.0000 O   0  0  0  0  0  0  0  0  0  0  0  0
    6.8384   -8.8772    0.0000 C   0  0  0  0  0  0  0  0  0  0  0  0
    7.5529   -9.2897    0.0000 C   0  0  0  0  0  0  0  0  0  0  0  0
    8.2674   -8.8772    0.0000 C   0  0  0  0  0  0  0  0  0  0  0  0
    8.2674   -8.0522    0.0000 C   0  0  0  0  0  0  0  0  0  0  0  0
    7.5529   -7.6397    0.0000 C   0  0  0  0  0  0  0  0  0  0  0  0
    6.8384   -8.0522    0.0000 C   0  0  0  0  0  0  0  0  0  0  0  0
    8.9818   -9.2897    0.0000 O   0  0  0  0  0  0  0  0  0  0  0  0
    9.6963   -8.8772    0.0000 C   0  0  0  0  0  0  0  0  0  0  0  0
    8.9818   -7.6397    0.0000 O   0  0  0  0  0  0  0  0  0  0  0  0
  1  2  1  0  0  0  0
  2  3  1  0  0  0  0
  2  4  1  1  0  0  0
  5  6  1  0  0  0  0
  6  7  2  0  0  0  0
  7  8  1  0  0  0  0
  8  9  2  0  0  0  0
  9 10  1  0  0  0  0
  5 10  2  0  0  0  0
 11 12  1  0  0  0  0
  7 11  1  0  0  0  0
  8 13  1  0  0  0  0
  1  5  1  0  0  0  0
M  END
>  <cdx:groupId>
41

>  <cdx:fragmentId>
13

$$$$
