94108.cdx
  Mrv1902 05222410202D          

 26 28  0  0  0  0            999 V2000
    4.2056   -9.2813    0.0000 C   0  0  0  0  0  0  0  0  0  0  0  0
    4.2056  -10.1063    0.0000 C   0  0  0  0  0  0  0  0  0  0  0  0
    4.9200  -10.5188    0.0000 C   0  0  0  0  0  0  0  0  0  0  0  0
    5.6345  -10.1063    0.0000 C   0  0  0  0  0  0  0  0  0  0  0  0
    5.6345   -9.2813    0.0000 C   0  0  0  0  0  0  0  0  0  0  0  0
    4.9200   -8.8688    0.0000 C   0  0  0  0  0  0  0  0  0  0  0  0
    3.4911  -10.5188    0.0000 O   0  0  0  0  0  0  0  0  0  0  0  0
    4.9200  -11.3438    0.0000 O   0  0  0  0  0  0  0  0  0  0  0  0
    5.6345  -11.7562    0.0000 C   0  0  0  0  0  0  0  0  0  0  0  0
    6.3490   -8.8687    0.0000 C   0  0  1  0  0  0  0  0  0  0  0  0
    7.1026   -9.2043    0.0000 O   0  0  0  0  0  0  0  0  0  0  0  0
    7.6547   -8.5912    0.0000 C   0  0  0  0  0  0  0  0  0  0  0  0
    7.2422   -7.8767    0.0000 C   0  0  0  0  0  0  0  0  0  0  0  0
    6.4352   -8.0483    0.0000 C   0  0  2  0  0  0  0  0  0  0  0  0
    8.4797   -8.5912    0.0000 C   0  0  0  0  0  0  0  0  0  0  0  0
    8.8922   -7.8767    0.0000 C   0  0  0  0  0  0  0  0  0  0  0  0
    8.4797   -7.1623    0.0000 C   0  0  0  0  0  0  0  0  0  0  0  0
    7.6547   -7.1623    0.0000 C   0  0  0  0  0  0  0  0  0  0  0  0
    5.8221   -7.4962    0.0000 C   0  0  0  0  0  0  0  0  0  0  0  0
    5.0375   -7.7512    0.0000 O   0  0  0  0  0  0  0  0  0  0  0  0
    8.8922   -9.3057    0.0000 O   0  0  0  0  0  0  0  0  0  0  0  0
    8.4797  -10.0202    0.0000 C   0  0  0  0  0  0  0  0  0  0  0  0
    8.8922   -6.4478    0.0000 C   0  0  0  0  0  0  0  0  0  0  0  0
    9.7172   -6.4478    0.0000 C   0  0  0  0  0  0  0  0  0  0  0  0
   10.1297   -5.7333    0.0000 C   0  0  0  0  0  0  0  0  0  0  0  0
   10.9547   -5.7333    0.0000 O   0  0  0  0  0  0  0  0  0  0  0  0
  1  2  2  0  0  0  0
  2  3  1  0  0  0  0
  3  4  2  0  0  0  0
  4  5  1  0  0  0  0
  5  6  2  0  0  0  0
  6  1  1  0  0  0  0
  2  7  1  0  0  0  0
  3  8  1  0  0  0  0
  8  9  1  0  0  0  0
 10  5  1  6  0  0  0
 10 11  1  0  0  0  0
 11 12  1  0  0  0  0
 12 13  2  0  0  0  0
 13 14  1  0  0  0  0
 14 10  1  0  0  0  0
 12 15  1  0  0  0  0
 15 16  2  0  0  0  0
 16 17  1  0  0  0  0
 17 18  2  0  0  0  0
 18 13  1  0  0  0  0
 14 19  1  1  0  0  0
 19 20  1  0  0  0  0
 15 21  1  0  0  0  0
 21 22  1  0  0  0  0
 17 23  1  0  0  0  0
 23 24  2  0  0  0  0
 24 25  1  0  0  0  0
 25 26  2  0  0  0  0
M  END
>  <cdx:fragmentId>
5

$$$$
