94107.cdx
  Mrv1902 05222410272D          

 28 30  0  0  0  0            999 V2000
    3.6143  -10.7525    0.0000 C   0  0  0  0  0  0  0  0  0  0  0  0
    3.6143  -11.5775    0.0000 C   0  0  0  0  0  0  0  0  0  0  0  0
    4.3288  -11.9900    0.0000 C   0  0  0  0  0  0  0  0  0  0  0  0
    5.0432  -11.5775    0.0000 C   0  0  0  0  0  0  0  0  0  0  0  0
    5.0432  -10.7525    0.0000 C   0  0  0  0  0  0  0  0  0  0  0  0
    4.3288  -10.3400    0.0000 C   0  0  0  0  0  0  0  0  0  0  0  0
    2.8998  -11.9900    0.0000 O   0  0  0  0  0  0  0  0  0  0  0  0
    2.8998  -10.3400    0.0000 O   0  0  0  0  0  0  0  0  0  0  0  0
    2.1854  -10.7525    0.0000 C   0  0  0  0  0  0  0  0  0  0  0  0
    4.3288  -12.8150    0.0000 O   0  0  0  0  0  0  0  0  0  0  0  0
    3.6143  -13.2275    0.0000 C   0  0  0  0  0  0  0  0  0  0  0  0
    5.7577  -10.3400    0.0000 C   0  0  1  0  0  0  0  0  0  0  0  0
    6.5114  -10.6756    0.0000 O   0  0  0  0  0  0  0  0  0  0  0  0
    7.0634  -10.0625    0.0000 C   0  0  0  0  0  0  0  0  0  0  0  0
    6.6509   -9.3480    0.0000 C   0  0  0  0  0  0  0  0  0  0  0  0
    5.8440   -9.5195    0.0000 C   0  0  2  0  0  0  0  0  0  0  0  0
    7.8884  -10.0625    0.0000 C   0  0  0  0  0  0  0  0  0  0  0  0
    8.3009   -9.3480    0.0000 C   0  0  0  0  0  0  0  0  0  0  0  0
    7.8884   -8.6335    0.0000 C   0  0  0  0  0  0  0  0  0  0  0  0
    7.0634   -8.6335    0.0000 C   0  0  0  0  0  0  0  0  0  0  0  0
    5.2309   -8.9675    0.0000 C   0  0  0  0  0  0  0  0  0  0  0  0
    4.4462   -9.2224    0.0000 O   0  0  0  0  0  0  0  0  0  0  0  0
    8.3009  -10.7769    0.0000 O   0  0  0  0  0  0  0  0  0  0  0  0
    7.8884  -11.4914    0.0000 C   0  0  0  0  0  0  0  0  0  0  0  0
    8.3009   -7.9190    0.0000 C   0  0  0  0  0  0  0  0  0  0  0  0
    9.1259   -7.9190    0.0000 C   0  0  0  0  0  0  0  0  0  0  0  0
    9.5384   -7.2046    0.0000 C   0  0  0  0  0  0  0  0  0  0  0  0
   10.3634   -7.2046    0.0000 O   0  0  0  0  0  0  0  0  0  0  0  0
  1  2  2  0  0  0  0
  2  3  1  0  0  0  0
  3  4  2  0  0  0  0
  4  5  1  0  0  0  0
  5  6  2  0  0  0  0
  6  1  1  0  0  0  0
  2  7  1  0  0  0  0
  1  8  1  0  0  0  0
  8  9  1  0  0  0  0
  3 10  1  0  0  0  0
 10 11  1  0  0  0  0
 12  5  1  6  0  0  0
 12 13  1  0  0  0  0
 13 14  1  0  0  0  0
 14 15  2  0  0  0  0
 15 16  1  0  0  0  0
 16 12  1  0  0  0  0
 14 17  1  0  0  0  0
 17 18  2  0  0  0  0
 18 19  1  0  0  0  0
 19 20  2  0  0  0  0
 20 15  1  0  0  0  0
 16 21  1  1  0  0  0
 21 22  1  0  0  0  0
 17 23  1  0  0  0  0
 23 24  1  0  0  0  0
 19 25  1  0  0  0  0
 25 26  2  0  0  0  0
 26 27  1  0  0  0  0
 27 28  2  0  0  0  0
M  END
>  <cdx:fragmentId>
5

$$$$
