94116.cdx
  Mrv1902 05222410272D          

 52 55  0  0  0  0            999 V2000
    5.9052   -6.7533    0.0000 C   0  0  0  0  0  0  0  0  0  0  0  0
    5.1907   -7.1658    0.0000 C   0  0  0  0  0  0  0  0  0  0  0  0
    4.4762   -6.7533    0.0000 C   0  0  0  0  0  0  0  0  0  0  0  0
    5.9052   -5.9283    0.0000 O   0  0  0  0  0  0  0  0  0  0  0  0
    6.6196   -7.1658    0.0000 O   0  0  0  0  0  0  0  0  0  0  0  0
    3.7617   -7.1658    0.0000 C   0  0  0  0  0  0  0  0  0  0  0  0
    3.0473   -6.7533    0.0000 C   0  0  0  0  0  0  0  0  0  0  0  0
    2.3328   -7.1658    0.0000 C   0  0  0  0  0  0  0  0  0  0  0  0
    2.3328   -7.9908    0.0000 C   0  0  0  0  0  0  0  0  0  0  0  0
    3.0473   -8.4033    0.0000 C   0  0  0  0  0  0  0  0  0  0  0  0
    3.7617   -7.9908    0.0000 C   0  0  0  0  0  0  0  0  0  0  0  0
    1.6183   -6.7533    0.0000 O   0  0  0  0  0  0  0  0  0  0  0  0
    0.9039   -7.1658    0.0000 C   0  0  0  0  0  0  0  0  0  0  0  0
    1.6183   -8.4033    0.0000 O   0  0  0  0  0  0  0  0  0  0  0  0
    7.3341   -6.7533    0.0000 C   0  0  0  0  0  0  0  0  0  0  0  0
    8.8022   -6.8303    0.0000 O   0  0  0  0  0  0  0  0  0  0  0  0
    8.0486   -7.1658    0.0000 C   0  0  1  0  0  0  0  0  0  0  0  0
    8.1348   -7.9863    0.0000 C   0  0  2  0  0  0  0  0  0  0  0  0
    8.9418   -8.1578    0.0000 C   0  0  1  0  0  0  0  0  0  0  0  0
    9.3543   -7.4434    0.0000 C   0  0  1  0  0  0  0  0  0  0  0  0
   10.1080   -7.7789    0.0000 C   0  0  0  0  0  0  0  0  0  0  0  0
   10.1942   -8.5994    0.0000 O   0  0  0  0  0  0  0  0  0  0  0  0
    9.2773   -8.9115    0.0000 O   0  0  0  0  0  0  0  0  0  0  0  0
    8.7924   -9.5790    0.0000 C   0  0  0  0  0  0  0  0  0  0  0  0
    7.9719   -9.4927    0.0000 C   0  0  0  0  0  0  0  0  0  0  0  0
    7.4870  -10.1602    0.0000 C   0  0  0  0  0  0  0  0  0  0  0  0
    9.1280  -10.3326    0.0000 O   0  0  0  0  0  0  0  0  0  0  0  0
    6.6665  -10.0739    0.0000 C   0  0  0  0  0  0  0  0  0  0  0  0
    6.1816  -10.7414    0.0000 C   0  0  0  0  0  0  0  0  0  0  0  0
    5.3611  -10.6551    0.0000 C   0  0  0  0  0  0  0  0  0  0  0  0
    5.0256   -9.9014    0.0000 C   0  0  0  0  0  0  0  0  0  0  0  0
    5.5105   -9.2340    0.0000 C   0  0  0  0  0  0  0  0  0  0  0  0
    6.3310   -9.3202    0.0000 C   0  0  0  0  0  0  0  0  0  0  0  0
    4.8762  -11.3226    0.0000 O   0  0  0  0  0  0  0  0  0  0  0  0
    4.0557  -11.2363    0.0000 C   0  0  0  0  0  0  0  0  0  0  0  0
    4.2051   -9.8152    0.0000 O   0  0  0  0  0  0  0  0  0  0  0  0
    7.5217   -8.5383    0.0000 O   0  0  0  0  0  0  0  0  0  0  0  0
   10.0217   -6.9584    0.0000 O   0  0  0  0  0  0  0  0  0  0  0  0
   10.6029   -5.6530    0.0000 O   0  0  0  0  0  0  0  0  0  0  0  0
    9.9355   -6.1380    0.0000 C   0  0  1  0  0  0  0  0  0  0  0  0
    9.1818   -5.8024    0.0000 C   0  0  1  0  0  0  0  0  0  0  0  0
    9.0956   -4.9819    0.0000 C   0  0  2  0  0  0  0  0  0  0  0  0
    9.7630   -4.4970    0.0000 C   0  0  1  0  0  0  0  0  0  0  0  0
   10.5167   -4.8326    0.0000 C   0  0  1  0  0  0  0  0  0  0  0  0
    9.6768   -3.6765    0.0000 O   0  0  0  0  0  0  0  0  0  0  0  0
    8.3419   -4.6464    0.0000 O   0  0  0  0  0  0  0  0  0  0  0  0
    8.5144   -6.2873    0.0000 O   0  0  0  0  0  0  0  0  0  0  0  0
   11.1841   -4.3476    0.0000 C   0  0  0  0  0  0  0  0  0  0  0  0
   11.9378   -4.6832    0.0000 O   0  0  0  0  0  0  0  0  0  0  0  0
   12.6052   -4.1983    0.0000 C   0  0  0  0  0  0  0  0  0  0  0  0
   12.5190   -3.3778    0.0000 O   0  0  0  0  0  0  0  0  0  0  0  0
   13.3589   -4.5338    0.0000 C   0  0  0  0  0  0  0  0  0  0  0  0
  1  2  1  0  0  0  0
  2  3  2  0  0  0  0
  1  4  2  0  0  0  0
  1  5  1  0  0  0  0
  6  7  1  0  0  0  0
  7  8  2  0  0  0  0
  8  9  1  0  0  0  0
  9 10  2  0  0  0  0
 10 11  1  0  0  0  0
  6 11  2  0  0  0  0
 12 13  1  0  0  0  0
  8 12  1  0  0  0  0
  9 14  1  0  0  0  0
  3  6  1  0  0  0  0
 16 17  1  0  0  0  0
 17 18  1  0  0  0  0
 18 19  1  0  0  0  0
 19 20  1  0  0  0  0
 16 20  1  0  0  0  0
 21 22  1  0  0  0  0
 20 21  1  6  0  0  0
 24 25  1  0  0  0  0
 25 26  2  0  0  0  0
 24 27  2  0  0  0  0
 28 29  1  0  0  0  0
 29 30  2  0  0  0  0
 30 31  1  0  0  0  0
 31 32  2  0  0  0  0
 32 33  1  0  0  0  0
 28 33  2  0  0  0  0
 34 35  1  0  0  0  0
 30 34  1  0  0  0  0
 31 36  1  0  0  0  0
 26 28  1  0  0  0  0
 23 24  1  0  0  0  0
 19 23  1  1  0  0  0
 18 37  1  6  0  0  0
 39 40  1  0  0  0  0
 40 41  1  0  0  0  0
 41 42  1  0  0  0  0
 42 43  1  0  0  0  0
 43 44  1  0  0  0  0
 39 44  1  0  0  0  0
 43 45  1  6  0  0  0
 42 46  1  1  0  0  0
 41 47  1  6  0  0  0
 50 51  2  0  0  0  0
 50 52  1  0  0  0  0
 49 50  1  0  0  0  0
 48 49  1  0  0  0  0
 44 48  1  1  0  0  0
 40 38  1  6  0  0  0
 20 38  1  1  0  0  0
 17 15  1  1  0  0  0
  5 15  1  0  0  0  0
M  END
>  <cdx:fragmentId>
137959

$$$$
