94117.cdx
  Mrv1902 05222410272D          

 23 23  0  0  0  0            999 V2000
    6.5970   -6.7789    0.0000 O   0  0  0  0  0  0  0  0  0  0  0  0
    8.0259   -6.7614    0.0000 O   0  0  0  0  0  0  0  0  0  0  0  0
   10.9138   -9.2013    0.0000 N   0  0  0  0  0  0  0  0  0  0  0  0
   11.6131   -7.9551    0.0000 N   0  0  0  0  0  0  0  0  0  0  0  0
   10.9037   -8.3763    0.0000 C   0  0  0  0  0  0  0  0  0  0  0  0
   10.1842   -7.9726    0.0000 N   0  0  0  0  0  0  0  0  0  0  0  0
    9.4749   -8.3938    0.0000 C   0  0  0  0  0  0  0  0  0  0  0  0
    8.7554   -7.9901    0.0000 C   0  0  0  0  0  0  0  0  0  0  0  0
    7.3165   -7.1826    0.0000 C   0  0  0  0  0  0  0  0  0  0  0  0
    8.0460   -8.4113    0.0000 C   0  0  0  0  0  0  0  0  0  0  0  0
    7.3266   -8.0075    0.0000 C   0  0  0  0  0  0  0  0  0  0  0  0
    6.6172   -8.4287    0.0000 N   0  0  0  0  0  0  0  0  0  0  0  0
    5.8977   -8.0250    0.0000 C   0  0  0  0  0  0  0  0  0  0  0  0
    3.7595   -8.4624    0.0000 C   0  0  0  0  0  0  0  0  0  0  0  0
    3.7688   -9.2873    0.0000 C   0  0  1  0  0  0  0  0  0  0  0  0
    4.4879   -9.6917    0.0000 C   0  0  1  0  0  0  0  0  0  0  0  0
    5.1977   -9.2712    0.0000 C   0  0  2  0  0  0  0  0  0  0  0  0
    5.1884   -8.4462    0.0000 C   0  0  1  0  0  0  0  0  0  0  0  0
    4.4693   -8.0418    0.0000 O   0  0  0  0  0  0  0  0  0  0  0  0
    5.9168   -9.6755    0.0000 O   0  0  0  0  0  0  0  0  0  0  0  0
    3.0591   -9.7079    0.0000 O   0  0  0  0  0  0  0  0  0  0  0  0
    4.4973  -10.5167    0.0000 O   0  0  0  0  0  0  0  0  0  0  0  0
    5.1884   -7.6212    0.0000 O   0  0  0  0  0  0  0  0  0  0  0  0
  9  1  2  0  0  0  0
  9  2  1  0  0  0  0
  5  3  1  0  0  0  0
  5  4  2  0  0  0  0
  6  5  1  0  0  0  0
  7  6  1  0  0  0  0
  8  7  1  0  0  0  0
 10  8  1  0  0  0  0
 11  9  1  0  0  0  0
 11 10  1  0  0  0  0
 12 11  1  0  0  0  0
 13 12  1  0  0  0  0
 18 13  1  1  0  0  0
 14 15  1  0  0  0  0
 15 16  1  0  0  0  0
 16 17  1  0  0  0  0
 17 18  1  0  0  0  0
 18 19  1  0  0  0  0
 19 14  1  0  0  0  0
 17 20  1  6  0  0  0
 15 21  1  1  0  0  0
 16 22  1  1  0  0  0
 18 23  1  6  0  0  0
M  END
>  <cdx:fragmentId>
5

$$$$
