94118.cdx
  Mrv1902 05222410182D          

 41 44  0  0  0  0            999 V2000
    7.5849   -6.1568    0.0000 C   0  0  2  0  0  0  0  0  0  0  0  0
    6.7599   -6.1553    0.0000 C   0  0  2  0  0  0  0  0  0  0  0  0
    6.3461   -6.8691    0.0000 C   0  0  1  0  0  0  0  0  0  0  0  0
    6.7574   -7.5843    0.0000 C   0  0  2  0  0  0  0  0  0  0  0  0
    7.5824   -7.5857    0.0000 C   0  0  1  0  0  0  0  0  0  0  0  0
    7.9961   -6.8720    0.0000 O   0  0  0  0  0  0  0  0  0  0  0  0
    7.9986   -5.4430    0.0000 C   0  0  0  0  0  0  0  0  0  0  0  0
    5.5211   -6.8677    0.0000 O   0  0  0  0  0  0  0  0  0  0  0  0
    7.9936   -8.3009    0.0000 O   0  0  0  0  0  0  0  0  0  0  0  0
    6.3486   -5.4402    0.0000 O   0  0  0  0  0  0  0  0  0  0  0  0
    6.3436   -8.2980    0.0000 O   0  0  0  0  0  0  0  0  0  0  0  0
    7.5873   -4.7278    0.0000 O   0  0  0  0  0  0  0  0  0  0  0  0
    7.9922   -9.1259    0.0000 C   0  0  0  0  0  0  0  0  0  0  0  0
    7.2770   -9.5372    0.0000 C   0  0  0  0  0  0  0  0  0  0  0  0
    7.2756  -10.3622    0.0000 C   0  0  0  0  0  0  0  0  0  0  0  0
    7.9894  -10.7759    0.0000 C   0  0  0  0  0  0  0  0  0  0  0  0
    8.7045  -10.3646    0.0000 C   0  0  0  0  0  0  0  0  0  0  0  0
    8.7060   -9.5396    0.0000 C   0  0  0  0  0  0  0  0  0  0  0  0
    9.4183  -10.7784    0.0000 C   0  0  0  0  0  0  0  0  0  0  0  0
   10.1335  -10.3671    0.0000 C   0  0  0  0  0  0  0  0  0  0  0  0
   10.1349   -9.5421    0.0000 C   0  0  0  0  0  0  0  0  0  0  0  0
    9.4211   -9.1284    0.0000 O   0  0  0  0  0  0  0  0  0  0  0  0
    6.5633   -9.1234    0.0000 O   0  0  0  0  0  0  0  0  0  0  0  0
    5.8481   -9.5347    0.0000 C   0  0  0  0  0  0  0  0  0  0  0  0
   11.5624  -10.3696    0.0000 O   0  0  0  0  0  0  0  0  0  0  0  0
   11.5638   -9.5446    0.0000 C   0  0  0  0  0  0  0  0  0  0  0  0
   10.8501   -9.1308    0.0000 C   0  0  0  0  0  0  0  0  0  0  0  0
   12.2790   -9.1333    0.0000 C   0  0  0  0  0  0  0  0  0  0  0  0
    9.4169  -11.6034    0.0000 O   0  0  0  0  0  0  0  0  0  0  0  0
    7.9879  -11.6009    0.0000 C   0  0  0  0  0  0  0  0  0  0  0  0
    5.5665   -8.2836    0.0000 C   0  0  0  0  0  0  0  0  0  0  0  0
    5.1579   -7.5669    0.0000 C   0  0  0  0  0  0  0  0  0  0  0  0
    4.3329   -7.5624    0.0000 C   0  0  0  0  0  0  0  0  0  0  0  0
    3.9244   -6.8457    0.0000 C   0  0  0  0  0  0  0  0  0  0  0  0
    5.1501   -8.9958    0.0000 O   0  0  0  0  0  0  0  0  0  0  0  0
    4.3408   -6.1335    0.0000 C   0  0  0  0  0  0  0  0  0  0  0  0
    3.9322   -5.4167    0.0000 C   0  0  0  0  0  0  0  0  0  0  0  0
    3.1072   -5.4122    0.0000 C   0  0  0  0  0  0  0  0  0  0  0  0
    2.6908   -6.1244    0.0000 C   0  0  0  0  0  0  0  0  0  0  0  0
    3.0994   -6.8411    0.0000 C   0  0  0  0  0  0  0  0  0  0  0  0
    2.6987   -4.6955    0.0000 O   0  0  0  0  0  0  0  0  0  0  0  0
  1  2  1  0  0  0  0
  2  3  1  0  0  0  0
  3  4  1  0  0  0  0
  4  5  1  0  0  0  0
  5  6  1  0  0  0  0
  6  1  1  0  0  0  0
  1  7  1  1  0  0  0
  3  8  1  1  0  0  0
  5  9  1  1  0  0  0
  2 10  1  6  0  0  0
  4 11  1  6  0  0  0
  7 12  1  0  0  0  0
  9 13  1  0  0  0  0
 13 14  2  0  0  0  0
 14 15  1  0  0  0  0
 15 16  2  0  0  0  0
 16 17  1  0  0  0  0
 17 18  2  0  0  0  0
 18 13  1  0  0  0  0
 17 19  1  0  0  0  0
 19 20  1  0  0  0  0
 20 21  2  0  0  0  0
 21 22  1  0  0  0  0
 22 18  1  0  0  0  0
 14 23  1  0  0  0  0
 23 24  1  0  0  0  0
 25 26  1  0  0  0  0
 26 27  1  0  0  0  0
 27 21  1  0  0  0  0
 26 28  1  0  0  0  0
 19 29  2  0  0  0  0
 16 30  1  0  0  0  0
 31 32  1  0  0  0  0
 32 33  2  0  0  0  0
 33 34  1  0  0  0  0
 31 35  2  0  0  0  0
 34 36  2  0  0  0  0
 36 37  1  0  0  0  0
 37 38  2  0  0  0  0
 38 39  1  0  0  0  0
 39 40  2  0  0  0  0
 40 34  1  0  0  0  0
 38 41  1  0  0  0  0
 31 11  1  0  0  0  0
M  END
>  <cdx:fragmentId>
5

$$$$
