94119.cdx
  Mrv1902 05222410182D          

 24 26  0  0  0  0            999 V2000
    4.9893   -8.1400    0.0000 C   0  0  0  0  0  0  0  0  0  0  0  0
    4.9893   -8.9650    0.0000 C   0  0  0  0  0  0  0  0  0  0  0  0
    5.7038   -9.3775    0.0000 C   0  0  2  0  0  0  0  0  0  0  0  0
    6.4182   -8.9650    0.0000 C   0  0  1  0  0  0  0  0  0  0  0  0
    6.4182   -8.1400    0.0000 C   0  0  2  0  0  0  0  0  0  0  0  0
    5.7038   -7.7275    0.0000 C   0  0  1  0  0  0  0  0  0  0  0  0
    7.1327   -9.3775    0.0000 C   0  0  1  0  0  0  0  0  0  0  0  0
    7.8472   -8.9650    0.0000 C   0  0  0  0  0  0  0  0  0  0  0  0
    7.8472   -8.1400    0.0000 C   0  0  0  0  0  0  0  0  0  0  0  0
    7.1327   -7.7275    0.0000 C   0  0  2  0  0  0  0  0  0  0  0  0
    8.5617   -7.7275    0.0000 C   0  0  0  0  0  0  0  0  0  0  0  0
    8.5617   -6.9025    0.0000 C   0  0  2  0  0  0  0  0  0  0  0  0
    7.8472   -6.4900    0.0000 C   0  0  0  0  0  0  0  0  0  0  0  0
    7.1327   -6.9025    0.0000 C   0  0  0  0  0  0  0  0  0  0  0  0
    5.7038   -6.9025    0.0000 O   0  0  0  0  0  0  0  0  0  0  0  0
    6.1163  -10.0920    0.0000 C   0  0  0  0  0  0  0  0  0  0  0  0
    6.4182   -9.7900    0.0000 H   0  0  0  0  0  0  0  0  0  0  0  0
    7.1327   -8.5525    0.0000 O   0  0  0  0  0  0  0  0  0  0  0  0
    9.2761   -6.4900    0.0000 C   0  0  0  0  0  0  0  0  0  0  0  0
    5.2913  -10.0920    0.0000 C   0  0  0  0  0  0  0  0  0  0  0  0
    6.4182   -7.3150    0.0000 C   0  0  0  0  0  0  0  0  0  0  0  0
    7.1327  -10.2025    0.0000 O   0  0  0  0  0  0  0  0  0  0  0  0
    8.5617   -6.0775    0.0000 C   0  0  0  0  0  0  0  0  0  0  0  0
    9.9906   -6.9025    0.0000 C   0  0  0  0  0  0  0  0  0  0  0  0
  1  2  1  0  0  0  0
  2  3  1  0  0  0  0
  3  4  1  0  0  0  0
  4  5  1  0  0  0  0
  5  6  1  0  0  0  0
  6  1  1  0  0  0  0
  4  7  1  0  0  0  0
  7  8  1  0  0  0  0
  8  9  1  0  0  0  0
  9 10  1  0  0  0  0
 10  5  1  0  0  0  0
  9 11  2  0  0  0  0
 11 12  1  0  0  0  0
 12 13  1  0  0  0  0
 13 14  1  0  0  0  0
 14 10  1  0  0  0  0
  6 15  1  6  0  0  0
  3 16  1  6  0  0  0
  4 17  1  6  0  0  0
 10 18  1  6  0  0  0
 12 19  1  6  0  0  0
  3 20  1  1  0  0  0
  5 21  1  1  0  0  0
  7 22  1  1  0  0  0
 12 23  1  1  0  0  0
 19 24  2  0  0  0  0
M  END
>  <cdx:fragmentId>
5

$$$$
