94114.cdx
  Mrv1902 05222410282D          

 58 61  0  0  0  0            999 V2000
    6.5775  -10.0653    0.0000 O   0  0  0  0  0  0  0  0  0  0  0  0
    7.2944  -10.4736    0.0000 C   0  0  1  0  0  0  0  0  0  0  0  0
    7.2992  -11.2986    0.0000 C   0  0  1  0  0  0  0  0  0  0  0  0
    6.5871  -11.7153    0.0000 C   0  0  2  0  0  0  0  0  0  0  0  0
    5.8703  -11.3069    0.0000 C   0  0  1  0  0  0  0  0  0  0  0  0
    5.8655  -10.4820    0.0000 C   0  0  1  0  0  0  0  0  0  0  0  0
    5.1582  -11.7236    0.0000 O   0  0  0  0  0  0  0  0  0  0  0  0
    6.5920  -12.5402    0.0000 O   0  0  0  0  0  0  0  0  0  0  0  0
    8.0161  -11.7069    0.0000 O   0  0  0  0  0  0  0  0  0  0  0  0
    5.1486  -10.0736    0.0000 C   0  0  0  0  0  0  0  0  0  0  0  0
    5.1438   -9.2486    0.0000 O   0  0  0  0  0  0  0  0  0  0  0  0
    4.4269   -8.8403    0.0000 C   0  0  0  0  0  0  0  0  0  0  0  0
    3.7148   -9.2570    0.0000 O   0  0  0  0  0  0  0  0  0  0  0  0
    4.4221   -8.0153    0.0000 C   0  0  0  0  0  0  0  0  0  0  0  0
    8.0064  -10.0569    0.0000 O   0  0  0  0  0  0  0  0  0  0  0  0
    7.8516   -7.1036    0.0000 O   0  0  0  0  0  0  0  0  0  0  0  0
    6.9776   -3.6588    0.0000 O   0  0  0  0  0  0  0  0  0  0  0  0
    8.0512   -2.7159    0.0000 C   0  0  0  0  0  0  0  0  0  0  0  0
    8.5956   -3.3357    0.0000 O   0  0  0  0  0  0  0  0  0  0  0  0
    7.8018   -5.6800    0.0000 C   0  0  0  0  0  0  0  0  0  0  0  0
    7.2574   -5.0601    0.0000 C   0  0  0  0  0  0  0  0  0  0  0  0
    7.5220   -4.2787    0.0000 C   0  0  0  0  0  0  0  0  0  0  0  0
    8.3310   -4.1171    0.0000 C   0  0  0  0  0  0  0  0  0  0  0  0
    8.8755   -4.7370    0.0000 C   0  0  0  0  0  0  0  0  0  0  0  0
    8.6108   -5.5184    0.0000 C   0  0  0  0  0  0  0  0  0  0  0  0
   10.2441   -7.3780    0.0000 O   0  0  0  0  0  0  0  0  0  0  0  0
    9.1553   -6.1383    0.0000 C   0  0  0  0  0  0  0  0  0  0  0  0
    8.8907   -6.9197    0.0000 C   0  0  0  0  0  0  0  0  0  0  0  0
    9.4351   -7.5396    0.0000 C   0  0  0  0  0  0  0  0  0  0  0  0
    9.1705   -8.3210    0.0000 O   0  0  0  0  0  0  0  0  0  0  0  0
    9.4454   -9.2496    0.0000 O   0  0  0  0  0  0  0  0  0  0  0  0
    8.7259   -9.6533    0.0000 C   0  0  0  0  0  0  0  0  0  0  0  0
    8.0166   -9.2320    0.0000 C   0  0  1  0  0  0  0  0  0  0  0  0
    8.3614   -8.4825    0.0000 C   0  0  2  0  0  0  0  0  0  0  0  0
    7.7552   -7.9230    0.0000 C   0  0  1  0  0  0  0  0  0  0  0  0
    7.0357   -8.3266    0.0000 C   0  0  2  0  0  0  0  0  0  0  0  0
    7.1973   -9.1356    0.0000 O   0  0  0  0  0  0  0  0  0  0  0  0
    6.2862   -7.9818    0.0000 C   0  0  0  0  0  0  0  0  0  0  0  0
    4.3307   -2.3632    0.0000 O   0  0  0  0  0  0  0  0  0  0  0  0
    2.9078   -2.4950    0.0000 C   0  0  0  0  0  0  0  0  0  0  0  0
    2.9839   -3.3165    0.0000 O   0  0  0  0  0  0  0  0  0  0  0  0
    5.2324   -4.3510    0.0000 C   0  0  0  0  0  0  0  0  0  0  0  0
    5.1563   -3.5295    0.0000 C   0  0  0  0  0  0  0  0  0  0  0  0
    4.4068   -3.1847    0.0000 C   0  0  0  0  0  0  0  0  0  0  0  0
    3.7334   -3.6613    0.0000 C   0  0  0  0  0  0  0  0  0  0  0  0
    3.8095   -4.4828    0.0000 C   0  0  0  0  0  0  0  0  0  0  0  0
    4.5590   -4.8276    0.0000 C   0  0  0  0  0  0  0  0  0  0  0  0
    6.2101   -7.1603    0.0000 O   0  0  0  0  0  0  0  0  0  0  0  0
    4.7873   -7.2921    0.0000 O   0  0  0  0  0  0  0  0  0  0  0  0
    4.6351   -5.6491    0.0000 C   0  0  0  0  0  0  0  0  0  0  0  0
    5.3846   -5.9940    0.0000 C   0  0  0  0  0  0  0  0  0  0  0  0
    5.4607   -6.8154    0.0000 C   0  0  0  0  0  0  0  0  0  0  0  0
    8.7281  -11.2902    0.0000 C   0  0  0  0  0  0  0  0  0  0  0  0
    9.4450  -11.6986    0.0000 C   0  0  0  0  0  0  0  0  0  0  0  0
    8.7233  -10.4653    0.0000 O   0  0  0  0  0  0  0  0  0  0  0  0
   10.1548   -9.6709    0.0000 C   0  0  0  0  0  0  0  0  0  0  0  0
   10.8743   -9.2673    0.0000 O   0  0  0  0  0  0  0  0  0  0  0  0
   10.1446  -10.4959    0.0000 C   0  0  0  0  0  0  0  0  0  0  0  0
 48 38  1  0  0  0  0
 36 38  1  6  0  0  0
 33 15  1  6  0  0  0
 35 16  1  1  0  0  0
 34 30  1  6  0  0  0
 30 29  1  0  0  0  0
 27 25  1  0  0  0  0
 22 17  1  0  0  0  0
 23 19  1  0  0  0  0
 19 18  1  0  0  0  0
 25 20  2  0  0  0  0
 21 20  1  0  0  0  0
 22 21  2  0  0  0  0
 23 22  1  0  0  0  0
 24 23  2  0  0  0  0
 25 24  1  0  0  0  0
 29 26  2  0  0  0  0
 28 27  2  0  0  0  0
 29 28  1  0  0  0  0
 33 32  1  0  0  0  0
 32 31  1  0  0  0  0
 37 33  1  0  0  0  0
 34 33  1  0  0  0  0
 35 34  1  0  0  0  0
 36 35  1  0  0  0  0
 37 36  1  0  0  0  0
 50 47  1  0  0  0  0
 44 39  1  0  0  0  0
 45 41  1  0  0  0  0
 41 40  1  0  0  0  0
 47 42  2  0  0  0  0
 43 42  1  0  0  0  0
 44 43  2  0  0  0  0
 45 44  1  0  0  0  0
 46 45  2  0  0  0  0
 47 46  1  0  0  0  0
 52 48  1  0  0  0  0
 52 49  2  0  0  0  0
 51 50  2  0  0  0  0
 52 51  1  0  0  0  0
  1  2  1  0  0  0  0
  2  3  1  0  0  0  0
  3  4  1  0  0  0  0
  4  5  1  0  0  0  0
  5  6  1  0  0  0  0
  1  6  1  0  0  0  0
  5  7  1  6  0  0  0
  4  8  1  1  0  0  0
  3  9  1  6  0  0  0
 12 13  2  0  0  0  0
 12 14  1  0  0  0  0
 11 12  1  0  0  0  0
 10 11  1  0  0  0  0
  6 10  1  1  0  0  0
  2 15  1  6  0  0  0
  9 53  1  0  0  0  0
 53 54  1  0  0  0  0
 53 55  2  0  0  0  0
 31 56  1  0  0  0  0
 56 57  2  0  0  0  0
 56 58  1  0  0  0  0
M  END
>  <cdx:groupId>
161

>  <cdx:fragmentId>
59

$$$$
