94111.cdx
  Mrv1902 05222410262D          

 54 59  0  0  0  0            999 V2000
    7.3254   -4.9903    0.0000 C   0  0  0  0  0  0  0  0  0  0  0  0
    7.3254   -5.8153    0.0000 C   0  0  0  0  0  0  0  0  0  0  0  0
    6.6109   -6.2278    0.0000 C   0  0  0  0  0  0  0  0  0  0  0  0
    6.6109   -7.0528    0.0000 O   0  0  0  0  0  0  0  0  0  0  0  0
    5.8965   -5.8153    0.0000 C   0  0  0  0  0  0  0  0  0  0  0  0
    5.1820   -6.2278    0.0000 C   0  0  0  0  0  0  0  0  0  0  0  0
    5.1820   -7.0528    0.0000 O   0  0  0  0  0  0  0  0  0  0  0  0
    4.4675   -5.8153    0.0000 C   0  0  0  0  0  0  0  0  0  0  0  0
    4.4675   -4.9903    0.0000 C   0  0  0  0  0  0  0  0  0  0  0  0
    3.7530   -4.5778    0.0000 O   0  0  0  0  0  0  0  0  0  0  0  0
    5.1820   -4.5778    0.0000 C   0  0  0  0  0  0  0  0  0  0  0  0
    5.8965   -4.9903    0.0000 C   0  0  0  0  0  0  0  0  0  0  0  0
    6.6109   -4.5778    0.0000 O   0  0  0  0  0  0  0  0  0  0  0  0
    8.0399   -4.5778    0.0000 C   0  0  0  0  0  0  0  0  0  0  0  0
    8.7543   -4.9903    0.0000 C   0  0  0  0  0  0  0  0  0  0  0  0
    9.4688   -4.5778    0.0000 C   0  0  0  0  0  0  0  0  0  0  0  0
   10.1833   -4.9903    0.0000 O   0  0  0  0  0  0  0  0  0  0  0  0
   10.8978   -4.5778    0.0000 C   0  0  0  0  0  0  0  0  0  0  0  0
    9.4688   -3.7528    0.0000 C   0  0  0  0  0  0  0  0  0  0  0  0
   10.1833   -3.3403    0.0000 O   0  0  0  0  0  0  0  0  0  0  0  0
    8.7543   -3.3403    0.0000 C   0  0  0  0  0  0  0  0  0  0  0  0
    8.0399   -3.7528    0.0000 C   0  0  0  0  0  0  0  0  0  0  0  0
    8.0399   -6.2278    0.0000 O   0  0  0  0  0  0  0  0  0  0  0  0
    8.0399   -7.0528    0.0000 C   0  0  1  0  0  0  0  0  0  0  0  0
    8.7543   -7.4653    0.0000 C   0  0  2  0  0  0  0  0  0  0  0  0
    9.4688   -7.0528    0.0000 O   0  0  0  0  0  0  0  0  0  0  0  0
    8.7543   -8.2903    0.0000 C   0  0  1  0  0  0  0  0  0  0  0  0
    9.4688   -8.7028    0.0000 O   0  0  0  0  0  0  0  0  0  0  0  0
    8.0399   -8.7028    0.0000 C   0  0  2  0  0  0  0  0  0  0  0  0
    8.0399   -9.5278    0.0000 O   0  0  0  0  0  0  0  0  0  0  0  0
    7.3254   -8.2903    0.0000 C   0  0  2  0  0  0  0  0  0  0  0  0
    7.3254   -7.4653    0.0000 O   0  0  0  0  0  0  0  0  0  0  0  0
    6.6109   -8.7028    0.0000 C   0  0  0  0  0  0  0  0  0  0  0  0
    5.8866   -8.2853    0.0000 O   0  0  0  0  0  0  0  0  0  0  0  0
    5.1738   -8.7008    0.0000 C   0  0  1  0  0  0  0  0  0  0  0  0
    5.1772   -9.5258    0.0000 C   0  0  2  0  0  0  0  0  0  0  0  0
    5.8934   -9.9353    0.0000 O   0  0  0  0  0  0  0  0  0  0  0  0
    4.4645   -9.9412    0.0000 C   0  0  2  0  0  0  0  0  0  0  0  0
    4.4679  -10.7662    0.0000 O   0  0  0  0  0  0  0  0  0  0  0  0
    3.7483   -9.5317    0.0000 C   0  0  1  0  0  0  0  0  0  0  0  0
    3.0356   -9.9471    0.0000 O   0  0  0  0  0  0  0  0  0  0  0  0
    3.7449   -8.7067    0.0000 C   0  0  1  0  0  0  0  0  0  0  0  0
    4.4577   -8.2912    0.0000 O   0  0  0  0  0  0  0  0  0  0  0  0
    3.0287   -8.2971    0.0000 C   0  0  0  0  0  0  0  0  0  0  0  0
    5.9040  -10.7603    0.0000 C   0  0  1  0  0  0  0  0  0  0  0  0
    6.6191  -11.1717    0.0000 C   0  0  2  0  0  0  0  0  0  0  0  0
    7.3329  -10.7581    0.0000 O   0  0  0  0  0  0  0  0  0  0  0  0
    6.6203  -11.9967    0.0000 C   0  0  2  0  0  0  0  0  0  0  0  0
    7.3354  -12.4081    0.0000 O   0  0  0  0  0  0  0  0  0  0  0  0
    5.9065  -12.4102    0.0000 C   0  0  1  0  0  0  0  0  0  0  0  0
    5.9078  -13.2352    0.0000 O   0  0  0  0  0  0  0  0  0  0  0  0
    5.1914  -11.9988    0.0000 C   0  0  1  0  0  0  0  0  0  0  0  0
    5.1902  -11.1738    0.0000 O   0  0  0  0  0  0  0  0  0  0  0  0
    4.4776  -12.4124    0.0000 C   0  0  0  0  0  0  0  0  0  0  0  0
  1  2  2  0  0  0  0
  2  3  1  0  0  0  0
  3  4  2  0  0  0  0
  3  5  1  0  0  0  0
  5  6  1  0  0  0  0
  6  7  1  0  0  0  0
  6  8  2  0  0  0  0
  8  9  1  0  0  0  0
  9 10  1  0  0  0  0
  9 11  2  0  0  0  0
 11 12  1  0  0  0  0
  5 12  2  0  0  0  0
 12 13  1  0  0  0  0
  1 13  1  0  0  0  0
  1 14  1  0  0  0  0
 14 15  1  0  0  0  0
 15 16  2  0  0  0  0
 16 17  1  0  0  0  0
 17 18  1  0  0  0  0
 16 19  1  0  0  0  0
 19 20  1  0  0  0  0
 19 21  2  0  0  0  0
 21 22  1  0  0  0  0
 14 22  2  0  0  0  0
 24 23  1  1  0  0  0
 24 25  1  0  0  0  0
 25 26  1  6  0  0  0
 25 27  1  0  0  0  0
 27 28  1  1  0  0  0
 27 29  1  0  0  0  0
 29 30  1  6  0  0  0
 29 31  1  0  0  0  0
 31 32  1  0  0  0  0
 31 33  1  1  0  0  0
 24 32  1  0  0  0  0
  2 23  1  0  0  0  0
 35 34  1  1  0  0  0
 35 36  1  0  0  0  0
 36 37  1  6  0  0  0
 36 38  1  0  0  0  0
 38 39  1  6  0  0  0
 38 40  1  0  0  0  0
 40 41  1  1  0  0  0
 40 42  1  0  0  0  0
 42 43  1  0  0  0  0
 42 44  1  6  0  0  0
 35 43  1  0  0  0  0
 45 46  1  0  0  0  0
 46 47  1  6  0  0  0
 46 48  1  0  0  0  0
 48 49  1  6  0  0  0
 48 50  1  0  0  0  0
 50 51  1  1  0  0  0
 50 52  1  0  0  0  0
 52 53  1  0  0  0  0
 52 54  1  6  0  0  0
 45 53  1  0  0  0  0
 33 34  1  0  0  0  0
 45 37  1  1  0  0  0
M  END
>  <cdx:groupId>
171

>  <cdx:fragmentId>
93

$$$$
