94124.cdx
  Mrv1902 05222410182D          

 26 28  0  0  0  0            999 V2000
    3.5181   -6.7512    0.0000 C   0  0  0  0  0  0  0  0  0  0  0  0
    3.5181   -7.5762    0.0000 C   0  0  0  0  0  0  0  0  0  0  0  0
    4.2325   -7.9888    0.0000 C   0  0  0  0  0  0  0  0  0  0  0  0
    4.9470   -7.5762    0.0000 C   0  0  0  0  0  0  0  0  0  0  0  0
    4.9470   -6.7512    0.0000 C   0  0  0  0  0  0  0  0  0  0  0  0
    4.2325   -6.3388    0.0000 C   0  0  0  0  0  0  0  0  0  0  0  0
    5.6615   -7.9888    0.0000 C   0  0  0  0  0  0  0  0  0  0  0  0
    6.3759   -7.5762    0.0000 C   0  0  0  0  0  0  0  0  0  0  0  0
    6.3759   -6.7512    0.0000 C   0  0  0  0  0  0  0  0  0  0  0  0
    5.6615   -6.3388    0.0000 O   0  0  0  0  0  0  0  0  0  0  0  0
    4.2325   -8.8138    0.0000 O   0  0  0  0  0  0  0  0  0  0  0  0
    5.6615   -8.8138    0.0000 O   0  0  0  0  0  0  0  0  0  0  0  0
    7.0904   -7.9888    0.0000 O   0  0  0  0  0  0  0  0  0  0  0  0
    7.8049   -6.7512    0.0000 C   0  0  0  0  0  0  0  0  0  0  0  0
    7.0904   -6.3388    0.0000 C   0  0  0  0  0  0  0  0  0  0  0  0
    8.5194   -6.3388    0.0000 C   0  0  0  0  0  0  0  0  0  0  0  0
    8.5194   -5.5137    0.0000 C   0  0  0  0  0  0  0  0  0  0  0  0
    7.8049   -5.1013    0.0000 C   0  0  0  0  0  0  0  0  0  0  0  0
    7.0904   -5.5137    0.0000 C   0  0  0  0  0  0  0  0  0  0  0  0
    2.8036   -6.3388    0.0000 O   0  0  0  0  0  0  0  0  0  0  0  0
    2.8036   -7.9888    0.0000 O   0  0  0  0  0  0  0  0  0  0  0  0
    7.8049   -4.2763    0.0000 O   0  0  0  0  0  0  0  0  0  0  0  0
    9.2338   -5.1013    0.0000 O   0  0  0  0  0  0  0  0  0  0  0  0
    7.0904   -8.8138    0.0000 C   0  0  0  0  0  0  0  0  0  0  0  0
    2.0891   -6.7512    0.0000 C   0  0  0  0  0  0  0  0  0  0  0  0
    7.0904   -3.8638    0.0000 C   0  0  0  0  0  0  0  0  0  0  0  0
  1  2  2  0  0  0  0
  2  3  1  0  0  0  0
  3  4  2  0  0  0  0
  4  5  1  0  0  0  0
  5  6  2  0  0  0  0
  6  1  1  0  0  0  0
  4  7  1  0  0  0  0
  7  8  1  0  0  0  0
  8  9  2  0  0  0  0
  9 10  1  0  0  0  0
 10  5  1  0  0  0  0
  3 11  1  0  0  0  0
 12  7  2  0  0  0  0
  8 13  1  0  0  0  0
 14 15  2  0  0  0  0
 15  9  1  0  0  0  0
 14 16  1  0  0  0  0
 16 17  2  0  0  0  0
 17 18  1  0  0  0  0
 18 19  2  0  0  0  0
 19 15  1  0  0  0  0
  1 20  1  0  0  0  0
  2 21  1  0  0  0  0
 18 22  1  0  0  0  0
 17 23  1  0  0  0  0
 13 24  1  0  0  0  0
 20 25  1  0  0  0  0
 22 26  1  0  0  0  0
M  END
>  <cdx:fragmentId>
5

$$$$
