94122.cdx
  Mrv1902 05222410192D          

 32 35  0  0  0  0            999 V2000
    4.2468   -6.7788    0.0000 C   0  0  0  0  0  0  0  0  0  0  0  0
    4.2468   -7.6037    0.0000 C   0  0  0  0  0  0  0  0  0  0  0  0
    4.9613   -8.0162    0.0000 C   0  0  0  0  0  0  0  0  0  0  0  0
    5.6757   -7.6037    0.0000 C   0  0  0  0  0  0  0  0  0  0  0  0
    5.6757   -6.7788    0.0000 C   0  0  0  0  0  0  0  0  0  0  0  0
    4.9613   -6.3662    0.0000 C   0  0  0  0  0  0  0  0  0  0  0  0
    6.3902   -8.0162    0.0000 C   0  0  0  0  0  0  0  0  0  0  0  0
    7.1047   -7.6037    0.0000 C   0  0  1  0  0  0  0  0  0  0  0  0
    7.1047   -6.7788    0.0000 C   0  0  2  0  0  0  0  0  0  0  0  0
    6.3902   -6.3662    0.0000 O   0  0  0  0  0  0  0  0  0  0  0  0
    4.9613   -8.8413    0.0000 O   0  0  0  0  0  0  0  0  0  0  0  0
    6.3902   -8.8413    0.0000 O   0  0  0  0  0  0  0  0  0  0  0  0
    7.8192   -8.0162    0.0000 O   0  0  0  0  0  0  0  0  0  0  0  0
    8.5336   -6.7788    0.0000 C   0  0  0  0  0  0  0  0  0  0  0  0
    7.8192   -6.3662    0.0000 C   0  0  0  0  0  0  0  0  0  0  0  0
    9.2481   -6.3662    0.0000 C   0  0  0  0  0  0  0  0  0  0  0  0
    9.2481   -5.5413    0.0000 C   0  0  0  0  0  0  0  0  0  0  0  0
    8.5336   -5.1287    0.0000 C   0  0  0  0  0  0  0  0  0  0  0  0
    7.8192   -5.5413    0.0000 C   0  0  0  0  0  0  0  0  0  0  0  0
    3.5323   -6.3662    0.0000 O   0  0  0  0  0  0  0  0  0  0  0  0
    9.9626   -5.1287    0.0000 O   0  0  0  0  0  0  0  0  0  0  0  0
    9.9626   -6.7788    0.0000 O   0  0  0  0  0  0  0  0  0  0  0  0
    7.0856  -10.0816    0.0000 C   0  0  1  0  0  0  0  0  0  0  0  0
    7.7975  -10.4986    0.0000 C   0  0  1  0  0  0  0  0  0  0  0  0
    8.5145  -10.0905    0.0000 C   0  0  2  0  0  0  0  0  0  0  0  0
    8.5197   -9.2655    0.0000 C   0  0  2  0  0  0  0  0  0  0  0  0
    7.8078   -8.8486    0.0000 C   0  0  1  0  0  0  0  0  0  0  0  0
    7.0908   -9.2566    0.0000 O   0  0  0  0  0  0  0  0  0  0  0  0
    7.7924  -11.3236    0.0000 O   0  0  0  0  0  0  0  0  0  0  0  0
    6.3686  -10.4897    0.0000 C   0  0  0  0  0  0  0  0  0  0  0  0
    9.2264  -10.5075    0.0000 O   0  0  0  0  0  0  0  0  0  0  0  0
    9.2367   -8.8575    0.0000 O   0  0  0  0  0  0  0  0  0  0  0  0
  1  2  2  0  0  0  0
  2  3  1  0  0  0  0
  3  4  2  0  0  0  0
  4  5  1  0  0  0  0
  5  6  2  0  0  0  0
  6  1  1  0  0  0  0
  4  7  1  0  0  0  0
  7  8  1  0  0  0  0
  8  9  1  0  0  0  0
  9 10  1  0  0  0  0
 10  5  1  0  0  0  0
  3 11  1  0  0  0  0
 12  7  2  0  0  0  0
  8 13  1  1  0  0  0
 14 15  2  0  0  0  0
  9 15  1  6  0  0  0
 14 16  1  0  0  0  0
 16 17  2  0  0  0  0
 17 18  1  0  0  0  0
 18 19  2  0  0  0  0
 19 15  1  0  0  0  0
  1 20  1  0  0  0  0
 17 21  1  0  0  0  0
 16 22  1  0  0  0  0
 23 24  1  0  0  0  0
 24 25  1  0  0  0  0
 25 26  1  0  0  0  0
 26 27  1  0  0  0  0
 27 28  1  0  0  0  0
 28 23  1  0  0  0  0
 24 29  1  1  0  0  0
 23 30  1  6  0  0  0
 25 31  1  6  0  0  0
 26 32  1  6  0  0  0
 27 13  1  1  0  0  0
M  END
>  <cdx:fragmentId>
5

$$$$
