94121.cdx
  Mrv1902 05222410202D          

 15 15  0  0  0  0            999 V2000
    6.4331   -7.2325    0.0000 C   0  0  2  0  0  0  0  0  0  0  0  0
    6.4331   -8.0575    0.0000 C   0  0  2  0  0  0  0  0  0  0  0  0
    7.1475   -8.4700    0.0000 C   0  0  1  0  0  0  0  0  0  0  0  0
    7.8620   -8.0575    0.0000 C   0  0  2  0  0  0  0  0  0  0  0  0
    7.8620   -7.2325    0.0000 C   0  0  0  0  0  0  0  0  0  0  0  0
    7.1475   -6.8200    0.0000 O   0  0  0  0  0  0  0  0  0  0  0  0
    5.7186   -6.8200    0.0000 C   0  0  0  0  0  0  0  0  0  0  0  0
    8.5765   -6.8200    0.0000 O   0  0  0  0  0  0  0  0  0  0  0  0
    7.1475   -9.2950    0.0000 O   0  0  0  0  0  0  0  0  0  0  0  0
    5.7186   -8.4700    0.0000 O   0  0  0  0  0  0  0  0  0  0  0  0
    8.5765   -8.4700    0.0000 O   0  0  0  0  0  0  0  0  0  0  0  0
    5.0041   -7.2325    0.0000 O   0  0  0  0  0  0  0  0  0  0  0  0
    8.5765   -9.2950    0.0000 C   0  0  0  0  0  0  0  0  0  0  0  0
    5.0041   -8.0575    0.0000 C   0  0  0  0  0  0  0  0  0  0  0  0
    4.2896   -6.8200    0.0000 C   0  0  0  0  0  0  0  0  0  0  0  0
  1  2  1  0  0  0  0
  2  3  1  0  0  0  0
  3  4  1  0  0  0  0
  4  5  1  0  0  0  0
  5  6  1  0  0  0  0
  6  1  1  0  0  0  0
  1  7  1  1  0  0  0
  5  8  1  0  0  0  0
  3  9  1  1  0  0  0
  2 10  1  6  0  0  0
  4 11  1  6  0  0  0
  7 12  1  0  0  0  0
 11 13  1  0  0  0  0
 10 14  1  0  0  0  0
 12 15  1  0  0  0  0
M  END
>  <cdx:fragmentId>
5

$$$$
