94132.cdx
  Mrv1902 05222410192D          

 32 36  0  0  0  0            999 V2000
    4.2468   -6.7788    0.0000 C   0  0  0  0  0  0  0  0  0  0  0  0
    4.2468   -7.6037    0.0000 C   0  0  0  0  0  0  0  0  0  0  0  0
    4.9613   -8.0162    0.0000 C   0  0  0  0  0  0  0  0  0  0  0  0
    5.6757   -7.6037    0.0000 C   0  0  0  0  0  0  0  0  0  0  0  0
    5.6757   -6.7788    0.0000 C   0  0  0  0  0  0  0  0  0  0  0  0
    4.9613   -6.3662    0.0000 C   0  0  0  0  0  0  0  0  0  0  0  0
    6.3902   -8.0162    0.0000 C   0  0  0  0  0  0  0  0  0  0  0  0
    7.1047   -7.6037    0.0000 C   0  0  0  0  0  0  0  0  0  0  0  0
    7.1047   -6.7788    0.0000 C   0  0  0  0  0  0  0  0  0  0  0  0
    6.3902   -6.3662    0.0000 O   0  0  0  0  0  0  0  0  0  0  0  0
    4.9613   -8.8413    0.0000 O   0  0  0  0  0  0  0  0  0  0  0  0
    7.8192   -8.0162    0.0000 O   0  0  0  0  0  0  0  0  0  0  0  0
    8.5336   -6.7788    0.0000 C   0  0  0  0  0  0  0  0  0  0  0  0
    7.8192   -6.3662    0.0000 C   0  0  0  0  0  0  0  0  0  0  0  0
    9.2481   -6.3662    0.0000 C   0  0  0  0  0  0  0  0  0  0  0  0
    9.2481   -5.5413    0.0000 C   0  0  0  0  0  0  0  0  0  0  0  0
    8.5336   -5.1287    0.0000 C   0  0  0  0  0  0  0  0  0  0  0  0
    7.8192   -5.5413    0.0000 C   0  0  0  0  0  0  0  0  0  0  0  0
    9.9626   -5.1287    0.0000 O   0  0  0  0  0  0  0  0  0  0  0  0
    4.9613   -5.5413    0.0000 C   0  0  0  0  0  0  0  0  0  0  0  0
    4.2468   -5.1287    0.0000 C   0  0  0  0  0  0  0  0  0  0  0  0
    3.5323   -5.5413    0.0000 C   0  0  0  0  0  0  0  0  0  0  0  0
    3.5323   -6.3662    0.0000 O   0  0  0  0  0  0  0  0  0  0  0  0
    2.8179   -5.1287    0.0000 O   0  0  0  0  0  0  0  0  0  0  0  0
    5.6757   -5.1287    0.0000 C   0  0  0  0  0  0  0  0  0  0  0  0
    6.3902   -5.5413    0.0000 C   0  0  0  0  0  0  0  0  0  0  0  0
    7.1047   -5.1287    0.0000 C   0  0  0  0  0  0  0  0  0  0  0  0
    7.1047   -4.3037    0.0000 C   0  0  0  0  0  0  0  0  0  0  0  0
    6.3902   -3.8912    0.0000 C   0  0  0  0  0  0  0  0  0  0  0  0
    5.6757   -4.3037    0.0000 C   0  0  0  0  0  0  0  0  0  0  0  0
    6.3902   -3.0662    0.0000 O   0  0  0  0  0  0  0  0  0  0  0  0
    7.8192   -3.8912    0.0000 O   0  0  0  0  0  0  0  0  0  0  0  0
  1  2  2  0  0  0  0
  2  3  1  0  0  0  0
  3  4  2  0  0  0  0
  4  5  1  0  0  0  0
  5  6  2  0  0  0  0
  6  1  1  0  0  0  0
  4  7  1  0  0  0  0
  7  8  1  0  0  0  0
  8  9  1  0  0  0  0
  9 10  1  0  0  0  0
 10  5  1  0  0  0  0
  3 11  1  0  0  0  0
  8 12  1  0  0  0  0
 13 14  2  0  0  0  0
 14  9  1  0  0  0  0
 13 15  1  0  0  0  0
 15 16  2  0  0  0  0
 16 17  1  0  0  0  0
 17 18  2  0  0  0  0
 18 14  1  0  0  0  0
 16 19  1  0  0  0  0
  6 20  1  0  0  0  0
 20 21  1  0  0  0  0
 21 22  1  0  0  0  0
 22 23  1  0  0  0  0
 23  1  1  0  0  0  0
 22 24  2  0  0  0  0
 20 25  1  0  0  0  0
 25 26  2  0  0  0  0
 26 27  1  0  0  0  0
 27 28  2  0  0  0  0
 28 29  1  0  0  0  0
 29 30  2  0  0  0  0
 30 25  1  0  0  0  0
 29 31  1  0  0  0  0
 28 32  1  0  0  0  0
M  END
>  <cdx:fragmentId>
5

$$$$
