94135.cdx
  Mrv1902 05222410202D          

 46 52  0  0  0  0            999 V2000
   14.3713   -9.7044    0.0000 C   0  0  1  0  0  0  0  0  0  0  0  0
   15.0827   -9.2868    0.0000 C   0  0  2  0  0  0  0  0  0  0  0  0
   15.8692   -9.5360    0.0000 C   0  0  0  0  0  0  0  0  0  0  0  0
   16.3493   -8.8651    0.0000 C   0  0  2  0  0  0  0  0  0  0  0  0
   17.1320   -8.6045    0.0000 O   0  0  0  0  0  0  0  0  0  0  0  0
   17.1261   -7.7795    0.0000 C   0  0  2  0  0  0  0  0  0  0  0  0
   16.3396   -7.5303    0.0000 C   0  0  2  0  0  0  0  0  0  0  0  0
   15.8595   -8.2012    0.0000 C   0  0  2  0  0  0  0  0  0  0  0  0
   15.0768   -8.4618    0.0000 C   0  0  1  0  0  0  0  0  0  0  0  0
   14.3594   -8.0544    0.0000 C   0  0  0  0  0  0  0  0  0  0  0  0
   13.6479   -8.4721    0.0000 C   0  0  0  0  0  0  0  0  0  0  0  0
   13.6538   -9.2971    0.0000 C   0  0  2  0  0  0  0  0  0  0  0  0
   12.9424   -9.7147    0.0000 C   0  0  1  0  0  0  0  0  0  0  0  0
   12.2249   -9.3074    0.0000 C   0  0  0  0  0  0  0  0  0  0  0  0
   11.5135   -9.7250    0.0000 C   0  0  0  0  0  0  0  0  0  0  0  0
   11.5194  -10.5500    0.0000 C   0  0  1  0  0  0  0  0  0  0  0  0
   12.2368  -10.9573    0.0000 C   0  0  0  0  0  0  0  0  0  0  0  0
   12.9483  -10.5397    0.0000 C   0  0  0  0  0  0  0  0  0  0  0  0
   13.6658  -10.9470    0.0000 C   0  0  0  0  0  0  0  0  0  0  0  0
   14.3772  -10.5294    0.0000 C   0  0  0  0  0  0  0  0  0  0  0  0
   17.0339   -6.9597    0.0000 O   0  0  0  0  0  0  0  0  0  0  0  0
   17.8822   -8.1096    0.0000 C   0  0  0  0  0  0  0  0  0  0  0  0
   18.5461   -7.6199    0.0000 C   0  0  0  0  0  0  0  0  0  0  0  0
   18.4539   -6.8001    0.0000 C   0  0  2  0  0  0  0  0  0  0  0  0
   17.6978   -6.4700    0.0000 C   0  0  0  0  0  0  0  0  0  0  0  0
   10.8079  -10.9677    0.0000 O   0  0  0  0  0  0  0  0  0  0  0  0
   12.9364   -8.8897    0.0000 C   0  0  0  0  0  0  0  0  0  0  0  0
   15.0768   -7.6368    0.0000 C   0  0  0  0  0  0  0  0  0  0  0  0
   16.0790   -6.7475    0.0000 C   0  0  0  0  0  0  0  0  0  0  0  0
   19.1178   -6.3103    0.0000 C   0  0  0  0  0  0  0  0  0  0  0  0
   14.3653   -8.8794    0.0000 H   0  0  0  0  0  0  0  0  0  0  0  0
   16.8390   -9.5290    0.0000 H   0  0  0  0  0  0  0  0  0  0  0  0
   15.4925   -7.4623    0.0000 O   0  0  0  0  0  0  0  0  0  0  0  0
   13.6598  -10.1220    0.0000 H   0  0  0  0  0  0  0  0  0  0  0  0
   10.0905  -10.5603    0.0000 C   0  0  2  0  0  0  0  0  0  0  0  0
   10.0816   -9.7354    0.0000 O   0  0  0  0  0  0  0  0  0  0  0  0
    9.3627   -9.3307    0.0000 C   0  0  1  0  0  0  0  0  0  0  0  0
    8.6527   -9.7354    0.0000 C   0  0  2  0  0  0  0  0  0  0  0  0
    8.6527  -10.5603    0.0000 C   0  0  1  0  0  0  0  0  0  0  0  0
    9.3627  -10.9650    0.0000 C   0  0  1  0  0  0  0  0  0  0  0  0
    9.3604   -8.5057    0.0000 C   0  0  0  0  0  0  0  0  0  0  0  0
    7.9394  -10.9748    0.0000 O   0  0  0  0  0  0  0  0  0  0  0  0
    9.3583  -11.7900    0.0000 O   0  0  0  0  0  0  0  0  0  0  0  0
    7.9394   -9.3209    0.0000 O   0  0  0  0  0  0  0  0  0  0  0  0
    8.6460   -8.0932    0.0000 O   0  0  0  0  0  0  0  0  0  0  0  0
   15.0887  -10.1117    0.0000 H   0  0  0  0  0  0  0  0  0  0  0  0
  1  2  1  0  0  0  0
  2  3  1  0  0  0  0
  3  4  1  0  0  0  0
  4  5  1  0  0  0  0
  6  5  1  6  0  0  0
  6  7  1  0  0  0  0
  7  8  1  0  0  0  0
  8  9  1  0  0  0  0
  9 10  1  0  0  0  0
 10 11  1  0  0  0  0
 11 12  1  0  0  0  0
 12 13  1  0  0  0  0
 13 14  1  0  0  0  0
 14 15  1  0  0  0  0
 15 16  1  0  0  0  0
 16 17  1  0  0  0  0
 17 18  1  0  0  0  0
 18 19  2  0  0  0  0
 19 20  1  0  0  0  0
  1 20  1  0  0  0  0
  1 12  1  0  0  0  0
 13 18  1  0  0  0  0
  2  9  1  0  0  0  0
  4  8  1  0  0  0  0
 22 23  1  0  0  0  0
 23 24  1  0  0  0  0
 24 25  1  0  0  0  0
 21 25  1  0  0  0  0
  6 21  1  0  0  0  0
  6 22  1  0  0  0  0
 16 26  1  1  0  0  0
 13 27  1  1  0  0  0
  9 28  1  1  0  0  0
  7 29  1  6  0  0  0
 24 30  1  6  0  0  0
  1 31  1  1  0  0  0
  4 32  1  6  0  0  0
  8 33  1  6  0  0  0
 12 34  1  6  0  0  0
 35 26  1  1  0  0  0
 35 36  1  0  0  0  0
 36 37  1  0  0  0  0
 37 38  1  0  0  0  0
 38 39  1  0  0  0  0
 39 40  1  0  0  0  0
 40 35  1  0  0  0  0
 37 41  1  1  0  0  0
 39 42  1  1  0  0  0
 40 43  1  6  0  0  0
 38 44  1  6  0  0  0
 41 45  1  0  0  0  0
  2 46  1  6  0  0  0
M  END
>  <cdx:fragmentId>
5

$$$$
