94131.cdx
  Mrv1902 05222410182D          

 22 23  0  0  0  0            999 V2000
    4.5842   -6.4475    0.0000 C   0  0  2  0  0  0  0  0  0  0  0  0
    3.8686   -6.8581    0.0000 C   0  0  2  0  0  0  0  0  0  0  0  0
    3.8664   -7.6831    0.0000 C   0  0  1  0  0  0  0  0  0  0  0  0
    4.5798   -8.0975    0.0000 C   0  0  2  0  0  0  0  0  0  0  0  0
    5.2954   -7.6869    0.0000 C   0  0  1  0  0  0  0  0  0  0  0  0
    5.2976   -6.8619    0.0000 O   0  0  0  0  0  0  0  0  0  0  0  0
    4.5864   -5.6225    0.0000 C   0  0  0  0  0  0  0  0  0  0  0  0
    3.1509   -8.0937    0.0000 O   0  0  0  0  0  0  0  0  0  0  0  0
    3.1553   -6.4437    0.0000 O   0  0  0  0  0  0  0  0  0  0  0  0
    4.5776   -8.9225    0.0000 O   0  0  0  0  0  0  0  0  0  0  0  0
    3.8730   -5.2081    0.0000 O   0  0  0  0  0  0  0  0  0  0  0  0
    7.4368   -8.0987    0.0000 C   0  0  2  0  0  0  0  0  0  0  0  0
    7.4368   -8.9238    0.0000 C   0  0  2  0  0  0  0  0  0  0  0  0
    8.1513   -9.3362    0.0000 C   0  0  1  0  0  0  0  0  0  0  0  0
    8.8657   -8.9238    0.0000 C   0  0  2  0  0  0  0  0  0  0  0  0
    8.8657   -8.0987    0.0000 C   0  0  0  0  0  0  0  0  0  0  0  0
    8.1513   -7.6863    0.0000 N   0  0  0  0  0  0  0  0  0  0  0  0
    6.7223   -7.6863    0.0000 C   0  0  0  0  0  0  0  0  0  0  0  0
    8.1513  -10.1612    0.0000 O   0  0  0  0  0  0  0  0  0  0  0  0
    6.7223   -9.3362    0.0000 O   0  0  0  0  0  0  0  0  0  0  0  0
    9.5802   -9.3362    0.0000 O   0  0  0  0  0  0  0  0  0  0  0  0
    6.0079   -8.0987    0.0000 O   0  0  0  0  0  0  0  0  0  0  0  0
  1  2  1  0  0  0  0
  2  3  1  0  0  0  0
  3  4  1  0  0  0  0
  4  5  1  0  0  0  0
  5  6  1  0  0  0  0
  6  1  1  0  0  0  0
  1  7  1  1  0  0  0
  3  8  1  1  0  0  0
  2  9  1  6  0  0  0
  4 10  1  6  0  0  0
  7 11  1  0  0  0  0
 12 13  1  0  0  0  0
 13 14  1  0  0  0  0
 14 15  1  0  0  0  0
 15 16  1  0  0  0  0
 16 17  1  0  0  0  0
 17 12  1  0  0  0  0
 12 18  1  1  0  0  0
 14 19  1  1  0  0  0
 13 20  1  6  0  0  0
 15 21  1  6  0  0  0
 18 22  1  0  0  0  0
  5 22  1  1  0  0  0
M  END
>  <cdx:fragmentId>
49

$$$$
