94137	.cdx
  Mrv1902 05222410192D          

 53 55  0  0  0  0            999 V2000
    6.1199   -9.1446    0.0000 C   0  0  0  0  0  0  0  0  0  0  0  0
    6.8354   -9.5591    0.0000 C   0  0  0  0  0  0  0  0  0  0  0  0
    5.4023   -9.5598    0.0000 C   0  0  0  0  0  0  0  0  0  0  0  0
    6.8354  -10.3837    0.0000 C   0  0  0  0  0  0  0  0  0  0  0  0
    7.5498   -9.1466    0.0000 C   0  0  0  0  0  0  0  0  0  0  0  0
    3.3931   -8.4905    0.0000 C   0  0  0  0  0  0  0  0  0  0  0  0
    5.4033  -10.3847    0.0000 C   0  0  0  0  0  0  0  0  0  0  0  0
    4.6890   -9.1481    0.0000 O   0  0  0  0  0  0  0  0  0  0  0  0
    6.1208  -10.7959    0.0000 C   0  0  0  0  0  0  0  0  0  0  0  0
    8.2644   -9.5591    0.0000 C   0  0  0  0  0  0  0  0  0  0  0  0
    4.6901  -10.7983    0.0000 O   0  0  0  0  0  0  0  0  0  0  0  0
    8.9788   -9.1466    0.0000 C   0  0  0  0  0  0  0  0  0  0  0  0
    1.1186   -7.0821    0.0000 O   0  0  0  0  0  0  0  0  0  0  0  0
    9.6953   -9.5611    0.0000 O   0  0  0  0  0  0  0  0  0  0  0  0
    8.9800   -8.3239    0.0000 O   0  0  0  0  0  0  0  0  0  0  0  0
    1.1186   -5.4321    0.0000 O   0  0  0  0  0  0  0  0  0  0  0  0
    9.6932  -10.3841    0.0000 C   0  0  2  0  0  0  0  0  0  0  0  0
   10.4078  -10.7966    0.0000 C   0  0  0  0  0  0  0  0  0  0  0  0
    8.9788  -10.7966    0.0000 C   0  0  0  0  0  0  0  0  0  0  0  0
   11.1222  -10.3841    0.0000 C   0  0  0  0  0  0  0  0  0  0  0  0
    8.2644  -10.3860    0.0000 O   0  5  0  0  0  0  0  0  0  0  0  0
    7.4394  -10.3892    0.0000 Mg  0  2  0  0  0  0  0  0  0  0  0  0
    8.9805  -11.6235    0.0000 O   0  0  0  0  0  0  0  0  0  0  0  0
   11.8367  -10.7966    0.0000 C   0  0  0  0  0  0  0  0  0  0  0  0
   11.1222   -9.5591    0.0000 C   0  0  0  0  0  0  0  0  0  0  0  0
   12.5512  -10.3841    0.0000 C   0  0  0  0  0  0  0  0  0  0  0  0
   11.8367   -9.1466    0.0000 C   0  0  0  0  0  0  0  0  0  0  0  0
   12.5512   -9.5591    0.0000 C   0  0  0  0  0  0  0  0  0  0  0  0
   13.2662  -10.7973    0.0000 O   0  0  0  0  0  0  0  0  0  0  0  0
   13.2662   -9.1472    0.0000 O   0  0  0  0  0  0  0  0  0  0  0  0
    3.2620   -5.8446    0.0000 C   0  0  0  0  0  0  0  0  0  0  0  0
    2.5475   -5.4321    0.0000 C   0  0  0  0  0  0  0  0  0  0  0  0
    1.8331   -5.8446    0.0000 C   0  0  0  0  0  0  0  0  0  0  0  0
    1.8331   -6.6696    0.0000 C   0  0  0  0  0  0  0  0  0  0  0  0
    2.5475   -7.0821    0.0000 C   0  0  0  0  0  0  0  0  0  0  0  0
    3.2620   -6.6696    0.0000 C   0  0  0  0  0  0  0  0  0  0  0  0
    3.9765   -7.0821    0.0000 C   0  0  0  0  0  0  0  0  0  0  0  0
    3.9765   -7.9071    0.0000 C   0  0  1  0  0  0  0  0  0  0  0  0
    5.4054   -7.0821    0.0000 O   0  0  0  0  0  0  0  0  0  0  0  0
    4.6909   -8.3196    0.0000 O   0  0  0  0  0  0  0  0  0  0  0  0
    5.4054   -7.9071    0.0000 C   0  0  0  0  0  0  0  0  0  0  0  0
    6.8345   -4.6071    0.0000 O   0  0  0  0  0  0  0  0  0  0  0  0
    8.2635   -5.4321    0.0000 O   0  0  0  0  0  0  0  0  0  0  0  0
    6.8345   -5.4321    0.0000 C   0  0  0  0  0  0  0  0  0  0  0  0
    6.1201   -5.8446    0.0000 C   0  0  0  0  0  0  0  0  0  0  0  0
    7.5490   -5.8446    0.0000 C   0  0  0  0  0  0  0  0  0  0  0  0
    6.1201   -6.6696    0.0000 C   0  0  0  0  0  0  0  0  0  0  0  0
    7.5490   -6.6696    0.0000 C   0  0  0  0  0  0  0  0  0  0  0  0
    6.8345   -7.0821    0.0000 C   0  0  0  0  0  0  0  0  0  0  0  0
    6.8345   -7.9070    0.0000 C   0  0  0  0  0  0  0  0  0  0  0  0
    6.1199   -8.3196    0.0000 C   0  0  0  0  0  0  0  0  0  0  0  0
    3.6066   -9.2874    0.0000 O   0  0  0  0  0  0  0  0  0  0  0  0
    2.5962   -8.2769    0.0000 O   0  5  0  0  0  0  0  0  0  0  0  0
 38  6  1  1  0  0  0
 34 13  1  0  0  0  0
 33 16  1  0  0  0  0
 31 36  1  0  0  0  0
 32 31  2  0  0  0  0
 33 32  1  0  0  0  0
 34 33  2  0  0  0  0
  1  2  1  0  0  0  0
  1 51  1  0  0  0  0
  1  3  2  0  0  0  0
  2  4  2  0  0  0  0
  2  5  1  0  0  0  0
 35 34  1  0  0  0  0
  3  7  1  0  0  0  0
  3  8  1  0  0  0  0
  4  9  1  0  0  0  0
  5 10  2  0  0  0  0
 36 35  2  0  0  0  0
  7 11  1  0  0  0  0
 10 12  1  0  0  0  0
 12 14  1  0  0  0  0
 12 15  2  0  0  0  0
 17 14  1  6  0  0  0
 37 36  1  0  0  0  0
 17 18  1  0  0  0  0
 17 19  1  0  0  0  0
 18 20  1  0  0  0  0
 19 21  1  0  0  0  0
 19 23  2  0  0  0  0
 20 24  1  0  0  0  0
 20 25  2  0  0  0  0
 24 26  2  0  0  0  0
 25 27  1  0  0  0  0
 26 28  1  0  0  0  0
 26 29  1  0  0  0  0
 28 30  1  0  0  0  0
  7  9  2  0  0  0  0
 38 37  1  0  0  0  0
 27 28  2  0  0  0  0
 40 38  1  0  0  0  0
 41 39  2  0  0  0  0
 41 40  1  0  0  0  0
 51 41  1  0  0  0  0
 45 44  1  0  0  0  0
 44 42  1  0  0  0  0
 46 43  1  0  0  0  0
 46 44  2  0  0  0  0
 47 45  2  0  0  0  0
 48 46  1  0  0  0  0
 49 47  1  0  0  0  0
 49 48  2  0  0  0  0
 50 49  1  0  0  0  0
 51 50  2  0  0  0  0
  6 52  2  0  0  0  0
  6 53  1  0  0  0  0
M  CHG  3  21  -1  22   2  53  -1
M  STY  1   1 SUP
M  SAL   1  2  21  22
M  SBL   1  1  28
M  SMT   1 O-Mg\S++
M  SAP   1  1  21  19  1
M  END
>  <cdx:fragmentId>
21167

$$$$
