94130.cdx
  Mrv1902 05222410182D          

 22 23  0  0  0  0            999 V2000
    4.5631   -7.5213    0.0000 C   0  0  2  0  0  0  0  0  0  0  0  0
    4.5631   -8.3462    0.0000 C   0  0  2  0  0  0  0  0  0  0  0  0
    5.2775   -8.7588    0.0000 C   0  0  1  0  0  0  0  0  0  0  0  0
    5.9920   -8.3462    0.0000 C   0  0  2  0  0  0  0  0  0  0  0  0
    5.9920   -7.5213    0.0000 C   0  0  2  0  0  0  0  0  0  0  0  0
    5.2775   -7.1088    0.0000 O   0  0  0  0  0  0  0  0  0  0  0  0
    3.8486   -7.1088    0.0000 C   0  0  0  0  0  0  0  0  0  0  0  0
    5.2775   -9.5838    0.0000 O   0  0  0  0  0  0  0  0  0  0  0  0
    3.8486   -8.7588    0.0000 O   0  0  0  0  0  0  0  0  0  0  0  0
    6.7065   -8.7588    0.0000 O   0  0  0  0  0  0  0  0  0  0  0  0
    6.7065   -7.1088    0.0000 O   0  0  0  0  0  0  0  0  0  0  0  0
    3.1341   -7.5213    0.0000 O   0  0  0  0  0  0  0  0  0  0  0  0
    6.7089   -6.2838    0.0000 C   0  0  1  0  0  0  0  0  0  0  0  0
    7.4246   -5.8734    0.0000 C   0  0  0  0  0  0  0  0  0  0  0  0
    7.4271   -5.0484    0.0000 N   0  0  0  0  0  0  0  0  0  0  0  0
    6.7138   -4.6338    0.0000 C   0  0  1  0  0  0  0  0  0  0  0  0
    5.9981   -5.0441    0.0000 C   0  0  2  0  0  0  0  0  0  0  0  0
    5.9957   -5.8691    0.0000 C   0  0  2  0  0  0  0  0  0  0  0  0
    5.2800   -6.2795    0.0000 O   0  0  0  0  0  0  0  0  0  0  0  0
    6.7163   -3.8088    0.0000 C   0  0  0  0  0  0  0  0  0  0  0  0
    6.0030   -3.3941    0.0000 O   0  0  0  0  0  0  0  0  0  0  0  0
    5.2849   -4.6295    0.0000 O   0  0  0  0  0  0  0  0  0  0  0  0
  1  2  1  0  0  0  0
  2  3  1  0  0  0  0
  3  4  1  0  0  0  0
  4  5  1  0  0  0  0
  5  6  1  0  0  0  0
  6  1  1  0  0  0  0
  1  7  1  1  0  0  0
  3  8  1  1  0  0  0
  2  9  1  6  0  0  0
  4 10  1  6  0  0  0
  5 11  1  6  0  0  0
  7 12  1  0  0  0  0
 13 11  1  6  0  0  0
 13 14  1  0  0  0  0
 14 15  1  0  0  0  0
 15 16  1  0  0  0  0
 16 17  1  0  0  0  0
 17 18  1  0  0  0  0
 18 13  1  0  0  0  0
 18 19  1  1  0  0  0
 16 20  1  1  0  0  0
 20 21  1  0  0  0  0
 17 22  1  6  0  0  0
M  END
>  <cdx:fragmentId>
5

$$$$
