94139.cdx
  Mrv1902 05222410262D          

 44 48  0  0  0  0            999 V2000
    1.1382   -6.2563    0.0000 C   0  0  0  0  0  0  0  0  0  0  0  0
    2.5672   -6.2563    0.0000 O   0  0  0  0  0  0  0  0  0  0  0  0
    1.8527   -5.8438    0.0000 C   0  0  0  0  0  0  0  0  0  0  0  0
    3.2817   -7.4937    0.0000 O   0  0  0  0  0  0  0  0  0  0  0  0
    3.9961   -7.0812    0.0000 C   0  0  2  0  0  0  0  0  0  0  0  0
    3.9961   -6.2563    0.0000 C   0  0  1  0  0  0  0  0  0  0  0  0
    3.2817   -5.8438    0.0000 C   0  0  0  0  0  0  0  0  0  0  0  0
    4.7106   -7.4937    0.0000 C   0  0  1  0  0  0  0  0  0  0  0  0
    5.4251   -7.0812    0.0000 C   0  0  2  0  0  0  0  0  0  0  0  0
    5.4251   -6.2563    0.0000 C   0  0  1  0  0  0  0  0  0  0  0  0
    4.7106   -5.8438    0.0000 O   0  0  0  0  0  0  0  0  0  0  0  0
    6.1395   -7.4937    0.0000 O   0  0  0  0  0  0  0  0  0  0  0  0
    6.8540   -7.0812    0.0000 C   0  0  0  0  0  0  0  0  0  0  0  0
    6.8540   -6.2563    0.0000 C   0  0  0  0  0  0  0  0  0  0  0  0
    6.1395   -5.8438    0.0000 O   0  0  0  0  0  0  0  0  0  0  0  0
    7.5685   -7.4937    0.0000 C   0  0  0  0  0  0  0  0  0  0  0  0
    8.2830   -7.0812    0.0000 C   0  0  0  0  0  0  0  0  0  0  0  0
    8.2830   -6.2563    0.0000 C   0  0  0  0  0  0  0  0  0  0  0  0
    7.5685   -5.8438    0.0000 C   0  0  0  0  0  0  0  0  0  0  0  0
    8.9974   -7.4937    0.0000 C   0  0  0  0  0  0  0  0  0  0  0  0
    9.7119   -7.0812    0.0000 C   0  0  0  0  0  0  0  0  0  0  0  0
    9.7119   -6.2563    0.0000 C   0  0  0  0  0  0  0  0  0  0  0  0
    8.9974   -5.8438    0.0000 O   0  0  0  0  0  0  0  0  0  0  0  0
   11.1408   -6.2563    0.0000 C   0  0  0  0  0  0  0  0  0  0  0  0
   10.4264   -5.8438    0.0000 C   0  0  0  0  0  0  0  0  0  0  0  0
   11.8553   -5.8438    0.0000 C   0  0  0  0  0  0  0  0  0  0  0  0
   11.8553   -5.0187    0.0000 C   0  0  0  0  0  0  0  0  0  0  0  0
   11.1408   -4.6063    0.0000 C   0  0  0  0  0  0  0  0  0  0  0  0
   10.4264   -5.0187    0.0000 C   0  0  0  0  0  0  0  0  0  0  0  0
    1.8527   -5.0187    0.0000 O   0  0  0  0  0  0  0  0  0  0  0  0
    7.5685   -8.3187    0.0000 O   0  0  0  0  0  0  0  0  0  0  0  0
    8.9974   -8.3187    0.0000 O   0  0  0  0  0  0  0  0  0  0  0  0
   12.5698   -4.6063    0.0000 O   0  0  0  0  0  0  0  0  0  0  0  0
   12.5698   -6.2563    0.0000 O   0  0  0  0  0  0  0  0  0  0  0  0
    4.7106   -8.3187    0.0000 O   0  0  0  0  0  0  0  0  0  0  0  0
    5.9260   -8.2906    0.0000 C   0  0  2  0  0  0  0  0  0  0  0  0
    5.1558   -8.5863    0.0000 O   0  0  0  0  0  0  0  0  0  0  0  0
    5.1990   -9.4102    0.0000 C   0  0  0  0  0  0  0  0  0  0  0  0
    5.9959   -9.6237    0.0000 C   0  0  1  0  0  0  0  0  0  0  0  0
    6.4452   -8.9318    0.0000 C   0  0  1  0  0  0  0  0  0  0  0  0
    5.5834  -10.3382    0.0000 C   0  0  0  0  0  0  0  0  0  0  0  0
    7.2691   -8.8886    0.0000 O   0  0  0  0  0  0  0  0  0  0  0  0
    6.6993  -10.0547    0.0000 O   0  0  0  0  0  0  0  0  0  0  0  0
    5.9959  -11.0526    0.0000 O   0  0  0  0  0  0  0  0  0  0  0  0
  2  3  1  0  0  0  0
  3  1  1  0  0  0  0
  5  4  1  6  0  0  0
  5  6  1  0  0  0  0
  6  7  1  1  0  0  0
  7  2  1  0  0  0  0
  5  8  1  0  0  0  0
  8  9  1  0  0  0  0
  9 10  1  0  0  0  0
 10 11  1  0  0  0  0
 11  6  1  0  0  0  0
  9 12  1  6  0  0  0
 13 14  2  0  0  0  0
 14 15  1  0  0  0  0
 10 15  1  1  0  0  0
 13 16  1  0  0  0  0
 16 17  2  0  0  0  0
 17 18  1  0  0  0  0
 18 19  2  0  0  0  0
 19 14  1  0  0  0  0
 17 20  1  0  0  0  0
 20 21  1  0  0  0  0
 21 22  2  0  0  0  0
 22 23  1  0  0  0  0
 23 18  1  0  0  0  0
 24 25  2  0  0  0  0
 25 22  1  0  0  0  0
 24 26  1  0  0  0  0
 26 27  2  0  0  0  0
 27 28  1  0  0  0  0
 28 29  2  0  0  0  0
 29 25  1  0  0  0  0
  3 30  2  0  0  0  0
 16 31  1  0  0  0  0
 20 32  2  0  0  0  0
 27 33  1  0  0  0  0
 26 34  1  0  0  0  0
  8 35  1  1  0  0  0
 36 12  1  1  0  0  0
 36 37  1  0  0  0  0
 37 38  1  0  0  0  0
 38 39  1  0  0  0  0
 39 40  1  0  0  0  0
 40 36  1  0  0  0  0
 39 41  1  1  0  0  0
 40 42  1  6  0  0  0
 39 43  1  6  0  0  0
 41 44  1  0  0  0  0
M  END
>  <cdx:fragmentId>
5

$$$$
