94138.cdx
  Mrv1902 05222410262D          

 47 51  0  0  0  0            999 V2000
    1.1118   -6.1463    0.0000 O   0  0  0  0  0  0  0  0  0  0  0  0
    2.5407   -6.1463    0.0000 C   0  0  0  0  0  0  0  0  0  0  0  0
    1.8263   -5.7338    0.0000 C   0  0  0  0  0  0  0  0  0  0  0  0
    3.9697   -6.1463    0.0000 O   0  0  0  0  0  0  0  0  0  0  0  0
    3.2552   -5.7338    0.0000 C   0  0  0  0  0  0  0  0  0  0  0  0
    4.6842   -7.3838    0.0000 O   0  0  0  0  0  0  0  0  0  0  0  0
    5.3986   -6.9712    0.0000 C   0  0  2  0  0  0  0  0  0  0  0  0
    5.3986   -6.1463    0.0000 C   0  0  1  0  0  0  0  0  0  0  0  0
    4.6842   -5.7338    0.0000 C   0  0  0  0  0  0  0  0  0  0  0  0
    6.1131   -7.3838    0.0000 C   0  0  1  0  0  0  0  0  0  0  0  0
    6.8276   -6.9712    0.0000 C   0  0  2  0  0  0  0  0  0  0  0  0
    6.8276   -6.1463    0.0000 C   0  0  1  0  0  0  0  0  0  0  0  0
    6.1131   -5.7338    0.0000 O   0  0  0  0  0  0  0  0  0  0  0  0
    7.5420   -7.3838    0.0000 O   0  0  0  0  0  0  0  0  0  0  0  0
    8.2565   -6.9712    0.0000 C   0  0  0  0  0  0  0  0  0  0  0  0
    8.2565   -6.1463    0.0000 C   0  0  0  0  0  0  0  0  0  0  0  0
    7.5420   -5.7338    0.0000 O   0  0  0  0  0  0  0  0  0  0  0  0
    8.9710   -7.3838    0.0000 C   0  0  0  0  0  0  0  0  0  0  0  0
    9.6855   -6.9712    0.0000 C   0  0  0  0  0  0  0  0  0  0  0  0
    9.6855   -6.1463    0.0000 C   0  0  0  0  0  0  0  0  0  0  0  0
    8.9710   -5.7338    0.0000 C   0  0  0  0  0  0  0  0  0  0  0  0
   10.3999   -7.3838    0.0000 C   0  0  0  0  0  0  0  0  0  0  0  0
   11.1144   -6.9712    0.0000 C   0  0  0  0  0  0  0  0  0  0  0  0
   11.1144   -6.1463    0.0000 C   0  0  0  0  0  0  0  0  0  0  0  0
   10.3999   -5.7338    0.0000 O   0  0  0  0  0  0  0  0  0  0  0  0
   12.5433   -6.1463    0.0000 C   0  0  0  0  0  0  0  0  0  0  0  0
   11.8289   -5.7338    0.0000 C   0  0  0  0  0  0  0  0  0  0  0  0
   13.2578   -5.7338    0.0000 C   0  0  0  0  0  0  0  0  0  0  0  0
   13.2578   -4.9088    0.0000 C   0  0  0  0  0  0  0  0  0  0  0  0
   12.5433   -4.4962    0.0000 C   0  0  0  0  0  0  0  0  0  0  0  0
   11.8289   -4.9088    0.0000 C   0  0  0  0  0  0  0  0  0  0  0  0
    1.8263   -4.9088    0.0000 O   0  0  0  0  0  0  0  0  0  0  0  0
    3.2552   -4.9088    0.0000 O   0  0  0  0  0  0  0  0  0  0  0  0
    8.9710   -8.2088    0.0000 O   0  0  0  0  0  0  0  0  0  0  0  0
   10.3999   -8.2088    0.0000 O   0  0  0  0  0  0  0  0  0  0  0  0
   13.9723   -4.4962    0.0000 O   0  0  0  0  0  0  0  0  0  0  0  0
   13.9723   -6.1463    0.0000 O   0  0  0  0  0  0  0  0  0  0  0  0
    6.1131   -8.2088    0.0000 O   0  0  0  0  0  0  0  0  0  0  0  0
    7.3285   -8.1806    0.0000 C   0  0  2  0  0  0  0  0  0  0  0  0
    6.5583   -8.4763    0.0000 O   0  0  0  0  0  0  0  0  0  0  0  0
    6.6015   -9.3002    0.0000 C   0  0  0  0  0  0  0  0  0  0  0  0
    7.3984   -9.5137    0.0000 C   0  0  1  0  0  0  0  0  0  0  0  0
    7.8477   -8.8218    0.0000 C   0  0  1  0  0  0  0  0  0  0  0  0
    6.9859  -10.2282    0.0000 C   0  0  0  0  0  0  0  0  0  0  0  0
    8.6716   -8.7786    0.0000 O   0  0  0  0  0  0  0  0  0  0  0  0
    8.1018   -9.9447    0.0000 O   0  0  0  0  0  0  0  0  0  0  0  0
    7.3984  -10.9426    0.0000 O   0  0  0  0  0  0  0  0  0  0  0  0
  2  3  1  0  0  0  0
  3  1  1  0  0  0  0
  4  5  1  0  0  0  0
  5  2  1  0  0  0  0
  7  6  1  6  0  0  0
  7  8  1  0  0  0  0
  8  9  1  1  0  0  0
  9  4  1  0  0  0  0
  7 10  1  0  0  0  0
 10 11  1  0  0  0  0
 11 12  1  0  0  0  0
 12 13  1  0  0  0  0
 13  8  1  0  0  0  0
 11 14  1  6  0  0  0
 15 16  2  0  0  0  0
 16 17  1  0  0  0  0
 12 17  1  1  0  0  0
 15 18  1  0  0  0  0
 18 19  2  0  0  0  0
 19 20  1  0  0  0  0
 20 21  2  0  0  0  0
 21 16  1  0  0  0  0
 19 22  1  0  0  0  0
 22 23  1  0  0  0  0
 23 24  2  0  0  0  0
 24 25  1  0  0  0  0
 25 20  1  0  0  0  0
 26 27  2  0  0  0  0
 27 24  1  0  0  0  0
 26 28  1  0  0  0  0
 28 29  2  0  0  0  0
 29 30  1  0  0  0  0
 30 31  2  0  0  0  0
 31 27  1  0  0  0  0
  3 32  2  0  0  0  0
  5 33  2  0  0  0  0
 18 34  1  0  0  0  0
 22 35  2  0  0  0  0
 29 36  1  0  0  0  0
 28 37  1  0  0  0  0
 10 38  1  1  0  0  0
 39 14  1  1  0  0  0
 39 40  1  0  0  0  0
 40 41  1  0  0  0  0
 41 42  1  0  0  0  0
 42 43  1  0  0  0  0
 43 39  1  0  0  0  0
 42 44  1  1  0  0  0
 43 45  1  6  0  0  0
 42 46  1  6  0  0  0
 44 47  1  0  0  0  0
M  END
>  <cdx:fragmentId>
5

$$$$
