94140.cdx
  Mrv1902 05222410222D          

 41 45  0  0  0  0            999 V2000
    2.5672   -6.2563    0.0000 O   0  0  0  0  0  0  0  0  0  0  0  0
    3.2817   -7.4937    0.0000 O   0  0  0  0  0  0  0  0  0  0  0  0
    3.9961   -7.0812    0.0000 C   0  0  2  0  0  0  0  0  0  0  0  0
    3.9961   -6.2563    0.0000 C   0  0  1  0  0  0  0  0  0  0  0  0
    3.2817   -5.8438    0.0000 C   0  0  0  0  0  0  0  0  0  0  0  0
    4.7106   -7.4937    0.0000 C   0  0  1  0  0  0  0  0  0  0  0  0
    5.4251   -7.0812    0.0000 C   0  0  2  0  0  0  0  0  0  0  0  0
    5.4251   -6.2563    0.0000 C   0  0  1  0  0  0  0  0  0  0  0  0
    4.7106   -5.8438    0.0000 O   0  0  0  0  0  0  0  0  0  0  0  0
    6.1395   -7.4937    0.0000 O   0  0  0  0  0  0  0  0  0  0  0  0
    6.8540   -7.0812    0.0000 C   0  0  0  0  0  0  0  0  0  0  0  0
    6.8540   -6.2563    0.0000 C   0  0  0  0  0  0  0  0  0  0  0  0
    6.1395   -5.8438    0.0000 O   0  0  0  0  0  0  0  0  0  0  0  0
    7.5685   -7.4937    0.0000 C   0  0  0  0  0  0  0  0  0  0  0  0
    8.2830   -7.0812    0.0000 C   0  0  0  0  0  0  0  0  0  0  0  0
    8.2830   -6.2563    0.0000 C   0  0  0  0  0  0  0  0  0  0  0  0
    7.5685   -5.8438    0.0000 C   0  0  0  0  0  0  0  0  0  0  0  0
    8.9974   -7.4937    0.0000 C   0  0  0  0  0  0  0  0  0  0  0  0
    9.7119   -7.0812    0.0000 C   0  0  0  0  0  0  0  0  0  0  0  0
    9.7119   -6.2563    0.0000 C   0  0  0  0  0  0  0  0  0  0  0  0
    8.9974   -5.8438    0.0000 O   0  0  0  0  0  0  0  0  0  0  0  0
   11.1408   -6.2563    0.0000 C   0  0  0  0  0  0  0  0  0  0  0  0
   10.4264   -5.8438    0.0000 C   0  0  0  0  0  0  0  0  0  0  0  0
   11.8553   -5.8438    0.0000 C   0  0  0  0  0  0  0  0  0  0  0  0
   11.8553   -5.0187    0.0000 C   0  0  0  0  0  0  0  0  0  0  0  0
   11.1408   -4.6063    0.0000 C   0  0  0  0  0  0  0  0  0  0  0  0
   10.4264   -5.0187    0.0000 C   0  0  0  0  0  0  0  0  0  0  0  0
    7.5685   -8.3187    0.0000 O   0  0  0  0  0  0  0  0  0  0  0  0
    8.9974   -8.3187    0.0000 O   0  0  0  0  0  0  0  0  0  0  0  0
   12.5698   -4.6063    0.0000 O   0  0  0  0  0  0  0  0  0  0  0  0
   12.5698   -6.2563    0.0000 O   0  0  0  0  0  0  0  0  0  0  0  0
    4.7106   -8.3187    0.0000 O   0  0  0  0  0  0  0  0  0  0  0  0
    5.9260   -8.2906    0.0000 C   0  0  2  0  0  0  0  0  0  0  0  0
    5.1558   -8.5863    0.0000 O   0  0  0  0  0  0  0  0  0  0  0  0
    5.1990   -9.4102    0.0000 C   0  0  0  0  0  0  0  0  0  0  0  0
    5.9959   -9.6237    0.0000 C   0  0  1  0  0  0  0  0  0  0  0  0
    6.4452   -8.9318    0.0000 C   0  0  1  0  0  0  0  0  0  0  0  0
    5.5834  -10.3382    0.0000 C   0  0  0  0  0  0  0  0  0  0  0  0
    7.2691   -8.8886    0.0000 O   0  0  0  0  0  0  0  0  0  0  0  0
    6.6993  -10.0547    0.0000 O   0  0  0  0  0  0  0  0  0  0  0  0
    5.9959  -11.0526    0.0000 O   0  0  0  0  0  0  0  0  0  0  0  0
  3  2  1  6  0  0  0
  3  4  1  0  0  0  0
  4  5  1  1  0  0  0
  5  1  1  0  0  0  0
  3  6  1  0  0  0  0
  6  7  1  0  0  0  0
  7  8  1  0  0  0  0
  8  9  1  0  0  0  0
  9  4  1  0  0  0  0
  7 10  1  6  0  0  0
 11 12  2  0  0  0  0
 12 13  1  0  0  0  0
  8 13  1  1  0  0  0
 11 14  1  0  0  0  0
 14 15  2  0  0  0  0
 15 16  1  0  0  0  0
 16 17  2  0  0  0  0
 17 12  1  0  0  0  0
 15 18  1  0  0  0  0
 18 19  1  0  0  0  0
 19 20  2  0  0  0  0
 20 21  1  0  0  0  0
 21 16  1  0  0  0  0
 22 23  2  0  0  0  0
 23 20  1  0  0  0  0
 22 24  1  0  0  0  0
 24 25  2  0  0  0  0
 25 26  1  0  0  0  0
 26 27  2  0  0  0  0
 27 23  1  0  0  0  0
 14 28  1  0  0  0  0
 18 29  2  0  0  0  0
 25 30  1  0  0  0  0
 24 31  1  0  0  0  0
  6 32  1  1  0  0  0
 33 10  1  1  0  0  0
 33 34  1  0  0  0  0
 34 35  1  0  0  0  0
 35 36  1  0  0  0  0
 36 37  1  0  0  0  0
 37 33  1  0  0  0  0
 36 38  1  1  0  0  0
 37 39  1  6  0  0  0
 36 40  1  6  0  0  0
 38 41  1  0  0  0  0
M  END
>  <cdx:fragmentId>
5

$$$$
