94142.cdx
  Mrv1902 05222410222D          

 16 16  0  0  0  0            999 V2000
    4.8243   -6.7788    0.0000 C   0  0  0  0  0  0  0  0  0  0  0  0
    4.8243   -7.6037    0.0000 C   0  0  0  0  0  0  0  0  0  0  0  0
    5.5388   -8.0162    0.0000 C   0  0  0  0  0  0  0  0  0  0  0  0
    6.2532   -7.6037    0.0000 C   0  0  0  0  0  0  0  0  0  0  0  0
    6.2532   -6.7788    0.0000 C   0  0  0  0  0  0  0  0  0  0  0  0
    5.5388   -6.3662    0.0000 C   0  0  0  0  0  0  0  0  0  0  0  0
    5.1263   -5.6518    0.0000 C   0  0  0  0  0  0  0  0  0  0  0  0
    5.9513   -5.6518    0.0000 C   0  0  0  0  0  0  0  0  0  0  0  0
    6.9677   -8.0162    0.0000 C   0  0  0  0  0  0  0  0  0  0  0  0
    6.9677   -6.3662    0.0000 C   0  0  0  0  0  0  0  0  0  0  0  0
    7.6822   -6.7787    0.0000 C   0  0  0  0  0  0  0  0  0  0  0  0
    8.3967   -6.3662    0.0000 C   0  0  0  0  0  0  0  0  0  0  0  0
    9.1111   -6.7787    0.0000 C   0  0  0  0  0  0  0  0  0  0  0  0
    8.3967   -5.5412    0.0000 O   0  0  0  0  0  0  0  0  0  0  0  0
    5.5388   -8.8413    0.0000 O   0  0  0  0  0  0  0  0  0  0  0  0
    4.1098   -8.0162    0.0000 O   0  0  0  0  0  0  0  0  0  0  0  0
  1  2  1  0  0  0  0
  2  3  1  0  0  0  0
  3  4  1  0  0  0  0
  4  5  2  0  0  0  0
  5  6  1  0  0  0  0
  6  1  1  0  0  0  0
  6  7  1  0  0  0  0
  6  8  1  0  0  0  0
  4  9  1  0  0  0  0
  5 10  1  0  0  0  0
 10 11  2  0  0  0  0
 11 12  1  0  0  0  0
 12 13  1  0  0  0  0
 12 14  1  0  0  0  0
  3 15  1  0  0  0  0
  2 16  1  0  0  0  0
M  END
>  <cdx:fragmentId>
5

$$$$
