9414.cdx
  Mrv1902 05222410262D          

 59 64  0  0  0  0            999 V2000
    8.3177  -10.4368    0.0000 C   0  0  1  0  0  0  0  0  0  0  0  0
    8.0424   -9.6591    0.0000 C   0  0  2  0  0  0  0  0  0  0  0  0
    7.2176   -9.6807    0.0000 C   0  0  0  0  0  0  0  0  0  0  0  0
    6.9833  -10.4717    0.0000 O   0  0  0  0  0  0  0  0  0  0  0  0
    7.6632  -10.9390    0.0000 C   0  0  2  0  0  0  0  0  0  0  0  0
    6.7816   -6.1678    0.0000 O   0  0  0  0  0  0  0  0  0  0  0  0
    7.6848  -11.7637    0.0000 C   0  0  0  0  0  0  0  0  0  0  0  0
    6.9814  -12.1948    0.0000 C   0  0  0  0  0  0  0  0  0  0  0  0
    7.0030  -13.0195    0.0000 C   0  0  0  0  0  0  0  0  0  0  0  0
    7.7280  -13.4132    0.0000 C   0  0  0  0  0  0  0  0  0  0  0  0
    8.4314  -12.9821    0.0000 C   0  0  0  0  0  0  0  0  0  0  0  0
    8.4098  -12.1574    0.0000 C   0  0  0  0  0  0  0  0  0  0  0  0
    6.0700   -5.7503    0.0000 C   0  0  2  0  0  0  0  0  0  0  0  0
    6.0741   -4.9253    0.0000 O   0  0  0  0  0  0  0  0  0  0  0  0
    5.3620   -4.5088    0.0000 C   0  0  1  0  0  0  0  0  0  0  0  0
    4.6458   -4.9173    0.0000 C   0  0  2  0  0  0  0  0  0  0  0  0
    4.6408   -5.7418    0.0000 C   0  0  1  0  0  0  0  0  0  0  0  0
    5.3529   -6.1583    0.0000 C   0  0  1  0  0  0  0  0  0  0  0  0
    9.1088  -10.6711    0.0000 C   0  0  0  0  0  0  0  0  0  0  0  0
    9.6921  -10.0877    0.0000 O   0  0  0  0  0  0  0  0  0  0  0  0
    7.7496  -14.2379    0.0000 O   0  0  0  0  0  0  0  0  0  0  0  0
    5.3665   -3.6838    0.0000 C   0  0  0  0  0  0  0  0  0  0  0  0
    3.9240   -6.1501    0.0000 O   0  0  0  0  0  0  0  0  0  0  0  0
    6.2995  -13.4505    0.0000 O   0  0  0  0  0  0  0  0  0  0  0  0
    5.5745  -13.0569    0.0000 C   0  0  0  0  0  0  0  0  0  0  0  0
    7.0423  -14.6627    0.0000 C   0  0  2  0  0  0  0  0  0  0  0  0
    6.3208  -14.2626    0.0000 O   0  0  0  0  0  0  0  0  0  0  0  0
    5.6136  -14.6874    0.0000 C   0  0  1  0  0  0  0  0  0  0  0  0
    5.6279  -15.5123    0.0000 C   0  0  2  0  0  0  0  0  0  0  0  0
    6.3494  -15.9123    0.0000 C   0  0  1  0  0  0  0  0  0  0  0  0
    7.0566  -15.4875    0.0000 C   0  0  1  0  0  0  0  0  0  0  0  0
    5.3480   -6.9833    0.0000 O   0  0  0  0  0  0  0  0  0  0  0  0
    3.9336   -4.5007    0.0000 O   0  0  0  0  0  0  0  0  0  0  0  0
    4.6543   -3.2674    0.0000 O   0  0  0  0  0  0  0  0  0  0  0  0
    4.6312   -7.3917    0.0000 C   0  0  2  0  0  0  0  0  0  0  0  0
    3.9191   -6.9752    0.0000 O   0  0  0  0  0  0  0  0  0  0  0  0
    3.2023   -7.3837    0.0000 C   0  0  1  0  0  0  0  0  0  0  0  0
    3.1976   -8.2086    0.0000 C   0  0  2  0  0  0  0  0  0  0  0  0
    3.9098   -8.6252    0.0000 C   0  0  1  0  0  0  0  0  0  0  0  0
    4.6265   -8.2167    0.0000 C   0  0  1  0  0  0  0  0  0  0  0  0
    4.8921  -14.2873    0.0000 C   0  0  0  0  0  0  0  0  0  0  0  0
    6.3636  -16.7372    0.0000 O   0  0  0  0  0  0  0  0  0  0  0  0
    4.9206  -15.9371    0.0000 O   0  0  0  0  0  0  0  0  0  0  0  0
    7.7781  -15.8876    0.0000 O   0  0  0  0  0  0  0  0  0  0  0  0
    4.1849  -14.7121    0.0000 O   0  0  0  0  0  0  0  0  0  0  0  0
    2.4902   -6.9671    0.0000 C   0  0  0  0  0  0  0  0  0  0  0  0
    3.9051   -9.4502    0.0000 O   0  0  0  0  0  0  0  0  0  0  0  0
    5.3387   -8.6333    0.0000 O   0  0  0  0  0  0  0  0  0  0  0  0
    2.4808   -8.6171    0.0000 O   0  0  0  0  0  0  0  0  0  0  0  0
    1.7734   -7.3756    0.0000 O   0  0  0  0  0  0  0  0  0  0  0  0
    7.9989   -5.4196    0.0000 C   0  0  0  0  0  0  0  0  0  0  0  0
    8.4309   -6.1224    0.0000 O   0  0  0  0  0  0  0  0  0  0  0  0
    8.4703   -7.5508    0.0000 C   0  0  0  0  0  0  0  0  0  0  0  0
    8.0383   -6.8480    0.0000 C   0  0  0  0  0  0  0  0  0  0  0  0
    7.2136   -6.8707    0.0000 C   0  0  0  0  0  0  0  0  0  0  0  0
    6.8209   -7.5962    0.0000 C   0  0  0  0  0  0  0  0  0  0  0  0
    7.2530   -8.2991    0.0000 C   0  0  0  0  0  0  0  0  0  0  0  0
    8.0776   -8.2764    0.0000 C   0  0  0  0  0  0  0  0  0  0  0  0
    8.5097   -8.9792    0.0000 C   0  0  0  0  0  0  0  0  0  0  0  0
  1  2  1  0  0  0  0
  2  3  1  0  0  0  0
  3  4  1  0  0  0  0
  4  5  1  0  0  0  0
  5  1  1  0  0  0  0
  2 59  1  6  0  0  0
  5  7  1  1  0  0  0
  7  8  2  0  0  0  0
  8  9  1  0  0  0  0
  9 10  2  0  0  0  0
 10 11  1  0  0  0  0
 11 12  2  0  0  0  0
 12  7  1  0  0  0  0
 13  6  1  1  0  0  0
 13 14  1  0  0  0  0
 14 15  1  0  0  0  0
 15 16  1  0  0  0  0
 16 17  1  0  0  0  0
 17 18  1  0  0  0  0
 18 13  1  0  0  0  0
  1 19  1  6  0  0  0
 19 20  1  0  0  0  0
 10 21  1  0  0  0  0
 15 22  1  1  0  0  0
 17 23  1  1  0  0  0
  9 24  1  0  0  0  0
 24 25  1  0  0  0  0
 26 21  1  1  0  0  0
 26 27  1  0  0  0  0
 27 28  1  0  0  0  0
 28 29  1  0  0  0  0
 29 30  1  0  0  0  0
 30 31  1  0  0  0  0
 31 26  1  0  0  0  0
 18 32  1  6  0  0  0
 16 33  1  6  0  0  0
 22 34  1  0  0  0  0
 35 32  1  1  0  0  0
 35 36  1  0  0  0  0
 36 37  1  0  0  0  0
 28 41  1  1  0  0  0
 30 42  1  1  0  0  0
 37 38  1  0  0  0  0
 38 39  1  0  0  0  0
 39 40  1  0  0  0  0
 40 35  1  0  0  0  0
 29 43  1  6  0  0  0
 31 44  1  6  0  0  0
 41 45  1  0  0  0  0
 37 46  1  1  0  0  0
 39 47  1  1  0  0  0
 40 48  1  6  0  0  0
 38 49  1  6  0  0  0
 55  6  1  0  0  0  0
 46 50  1  0  0  0  0
 52 51  1  0  0  0  0
 54 52  1  0  0  0  0
 53 58  1  0  0  0  0
 54 53  2  0  0  0  0
 55 54  1  0  0  0  0
 56 55  2  0  0  0  0
 57 56  1  0  0  0  0
 58 57  2  0  0  0  0
 59 58  1  0  0  0  0
M  END
>  <cdx:fragmentId>
325

$$$$
