94146.cdx
  Mrv1902 05222410212D          

 14 14  0  0  0  0            999 V2000
    6.1168   -7.9612    0.0000 C   0  0  0  0  0  0  0  0  0  0  0  0
    6.1168   -8.7862    0.0000 C   0  0  0  0  0  0  0  0  0  0  0  0
    6.8313   -9.1987    0.0000 C   0  0  0  0  0  0  0  0  0  0  0  0
    7.5457   -8.7862    0.0000 C   0  0  0  0  0  0  0  0  0  0  0  0
    7.5457   -7.9612    0.0000 C   0  0  0  0  0  0  0  0  0  0  0  0
    6.8313   -7.5488    0.0000 C   0  0  0  0  0  0  0  0  0  0  0  0
    6.4188   -6.8343    0.0000 C   0  0  0  0  0  0  0  0  0  0  0  0
    7.2438   -6.8343    0.0000 C   0  0  0  0  0  0  0  0  0  0  0  0
    8.2602   -9.1987    0.0000 C   0  0  0  0  0  0  0  0  0  0  0  0
    8.9747   -5.4862    0.0000 C   0  0  0  0  0  0  0  0  0  0  0  0
    8.9747   -6.3112    0.0000 C   0  0  0  0  0  0  0  0  0  0  0  0
    8.2602   -6.7237    0.0000 C   0  0  0  0  0  0  0  0  0  0  0  0
    8.2602   -7.5487    0.0000 C   0  0  0  0  0  0  0  0  0  0  0  0
    5.4023   -9.1987    0.0000 O   0  0  0  0  0  0  0  0  0  0  0  0
  1  2  1  0  0  0  0
  2  3  1  0  0  0  0
  3  4  2  0  0  0  0
  4  5  1  0  0  0  0
  5  6  1  0  0  0  0
  6  1  1  0  0  0  0
  6  7  1  0  0  0  0
  6  8  1  0  0  0  0
  4  9  1  0  0  0  0
 11 10  1  0  0  0  0
  5 13  2  0  0  0  0
 12 11  2  0  0  0  0
 13 12  1  0  0  0  0
  2 14  2  0  0  0  0
M  END
>  <cdx:fragmentId>
5

$$$$
