94143.cdx
  Mrv1902 05222410232D          

 37 42  0  0  0  0            999 V2000
    3.4380   -9.2400    0.0000 C   0  0  0  0  0  0  0  0  0  0  0  0
    3.4380  -10.0650    0.0000 C   0  0  1  0  0  0  0  0  0  0  0  0
    4.1525  -10.4775    0.0000 C   0  0  0  0  0  0  0  0  0  0  0  0
    4.8670  -10.0650    0.0000 C   0  0  1  0  0  0  0  0  0  0  0  0
    4.8670   -9.2400    0.0000 C   0  0  2  0  0  0  0  0  0  0  0  0
    4.1525   -8.8275    0.0000 C   0  0  0  0  0  0  0  0  0  0  0  0
    5.5814  -10.4775    0.0000 C   0  0  0  0  0  0  0  0  0  0  0  0
    6.2959  -10.0650    0.0000 C   0  0  0  0  0  0  0  0  0  0  0  0
    6.2959   -9.2400    0.0000 C   0  0  2  0  0  0  0  0  0  0  0  0
    5.5814   -8.8275    0.0000 C   0  0  2  0  0  0  0  0  0  0  0  0
    7.0104   -8.8275    0.0000 C   0  0  1  0  0  0  0  0  0  0  0  0
    7.0104   -8.0025    0.0000 C   0  0  0  0  0  0  0  0  0  0  0  0
    6.2959   -7.5900    0.0000 C   0  0  0  0  0  0  0  0  0  0  0  0
    5.5814   -8.0025    0.0000 C   0  0  0  0  0  0  0  0  0  0  0  0
    7.7249   -9.2400    0.0000 C   0  0  0  0  0  0  0  0  0  0  0  0
    8.4393   -8.8275    0.0000 C   0  0  1  0  0  0  0  0  0  0  0  0
    8.4393   -8.0025    0.0000 C   0  0  2  0  0  0  0  0  0  0  0  0
    7.7249   -7.5900    0.0000 C   0  0  1  0  0  0  0  0  0  0  0  0
    9.1538   -7.5900    0.0000 C   0  0  0  0  0  0  0  0  0  0  0  0
    9.1538   -6.7650    0.0000 C   0  0  1  0  0  0  0  0  0  0  0  0
    8.4393   -6.3525    0.0000 C   0  0  0  0  0  0  0  0  0  0  0  0
    7.7249   -6.7650    0.0000 C   0  0  0  0  0  0  0  0  0  0  0  0
    4.8670   -8.4150    0.0000 C   0  0  0  0  0  0  0  0  0  0  0  0
    6.2959   -8.4150    0.0000 C   0  0  0  0  0  0  0  0  0  0  0  0
    7.7249   -8.4150    0.0000 H   0  0  0  0  0  0  0  0  0  0  0  0
    4.8670  -10.8900    0.0000 H   0  0  0  0  0  0  0  0  0  0  0  0
    5.5814   -9.6525    0.0000 H   0  0  0  0  0  0  0  0  0  0  0  0
    7.0104   -9.6525    0.0000 C   0  0  0  0  0  0  0  0  0  0  0  0
    4.5650  -11.1920    0.0000 C   0  0  0  0  0  0  0  0  0  0  0  0
    3.7400  -11.1920    0.0000 C   0  0  0  0  0  0  0  0  0  0  0  0
    9.1538   -9.2400    0.0000 O   0  0  0  0  0  0  0  0  0  0  0  0
    2.7236  -10.4775    0.0000 O   0  0  0  0  0  0  0  0  0  0  0  0
    9.8683   -7.1775    0.0000 O   0  0  0  0  0  0  0  0  0  0  0  0
    8.0268   -5.6380    0.0000 C   0  0  0  0  0  0  0  0  0  0  0  0
    8.8518   -5.6380    0.0000 C   0  0  0  0  0  0  0  0  0  0  0  0
    9.1538   -8.4150    0.0000 C   0  0  0  0  0  0  0  0  0  0  0  0
    9.8683   -8.8275    0.0000 O   0  0  0  0  0  0  0  0  0  0  0  0
  1  2  1  0  0  0  0
  2  3  1  0  0  0  0
  3  4  1  0  0  0  0
  4  5  1  0  0  0  0
  5  6  1  0  0  0  0
  6  1  1  0  0  0  0
  4  7  1  0  0  0  0
  7  8  1  0  0  0  0
  8  9  1  0  0  0  0
  9 10  1  0  0  0  0
 10  5  1  0  0  0  0
  9 11  1  0  0  0  0
 11 12  1  0  0  0  0
 12 13  2  0  0  0  0
 13 14  1  0  0  0  0
 14 10  1  0  0  0  0
 11 15  1  0  0  0  0
 15 16  1  0  0  0  0
 16 17  1  0  0  0  0
 17 18  1  0  0  0  0
 18 12  1  0  0  0  0
 17 19  1  0  0  0  0
 19 20  1  0  0  0  0
 20 21  1  0  0  0  0
 21 22  1  0  0  0  0
 22 18  1  0  0  0  0
  5 23  1  1  0  0  0
  9 24  1  1  0  0  0
 18 25  1  1  0  0  0
  4 26  1  6  0  0  0
 10 27  1  6  0  0  0
 11 28  1  6  0  0  0
  3 29  1  0  0  0  0
  3 30  1  0  0  0  0
  2 32  1  1  0  0  0
 16 31  1  1  0  0  0
 20 33  1  1  0  0  0
 21 34  1  0  0  0  0
 21 35  1  0  0  0  0
 17 36  1  1  0  0  0
 36 33  1  0  0  0  0
 36 37  2  0  0  0  0
M  END
>  <cdx:fragmentId>
139

$$$$
