94149.cdx
  Mrv1902 05222410252D          

 28 31  0  0  0  0            999 V2000
    5.8468   -6.1256    0.0000 C   0  0  0  0  0  0  0  0  0  0  0  0
    6.5612   -5.7131    0.0000 N   0  0  0  0  0  0  0  0  0  0  0  0
    6.5612   -4.8881    0.0000 C   0  0  1  0  0  0  0  0  0  0  0  0
    5.8468   -4.4756    0.0000 C   0  0  0  0  0  0  0  0  0  0  0  0
    5.1323   -4.8881    0.0000 C   0  0  0  0  0  0  0  0  0  0  0  0
    4.4178   -4.4756    0.0000 C   0  0  0  0  0  0  0  0  0  0  0  0
    3.7034   -4.8881    0.0000 C   0  0  0  0  0  0  0  0  0  0  0  0
    3.7034   -5.7131    0.0000 C   0  0  0  0  0  0  0  0  0  0  0  0
    4.4178   -6.1256    0.0000 C   0  0  0  0  0  0  0  0  0  0  0  0
    5.1323   -5.7131    0.0000 C   0  0  0  0  0  0  0  0  0  0  0  0
    7.2757   -6.1256    0.0000 C   0  0  0  0  0  0  0  0  0  0  0  0
    7.9902   -5.7131    0.0000 C   0  0  0  0  0  0  0  0  0  0  0  0
    7.9902   -4.8881    0.0000 C   0  0  0  0  0  0  0  0  0  0  0  0
    8.7046   -4.4756    0.0000 C   0  0  0  0  0  0  0  0  0  0  0  0
    8.7046   -3.6506    0.0000 C   0  0  0  0  0  0  0  0  0  0  0  0
    7.9902   -3.2381    0.0000 C   0  0  0  0  0  0  0  0  0  0  0  0
    7.2757   -3.6506    0.0000 C   0  0  0  0  0  0  0  0  0  0  0  0
    7.2757   -4.4756    0.0000 C   0  0  0  0  0  0  0  0  0  0  0  0
    6.5612   -3.2381    0.0000 O   0  0  0  0  0  0  0  0  0  0  0  0
    2.9889   -6.1256    0.0000 O   0  0  0  0  0  0  0  0  0  0  0  0
    2.2744   -5.7131    0.0000 C   0  0  0  0  0  0  0  0  0  0  0  0
    4.4178   -6.9506    0.0000 O   0  0  0  0  0  0  0  0  0  0  0  0
    3.7034   -7.3631    0.0000 C   0  0  0  0  0  0  0  0  0  0  0  0
    9.4191   -3.2381    0.0000 O   0  0  0  0  0  0  0  0  0  0  0  0
   10.1336   -3.6506    0.0000 C   0  0  0  0  0  0  0  0  0  0  0  0
    7.9902   -2.4131    0.0000 O   0  0  0  0  0  0  0  0  0  0  0  0
    8.7046   -2.0006    0.0000 C   0  0  0  0  0  0  0  0  0  0  0  0
    6.5612   -4.0631    0.0000 H   0  0  0  0  0  0  0  0  0  0  0  0
  1  2  1  0  0  0  0
  2  3  1  0  0  0  0
  3  4  1  0  0  0  0
  4  5  1  0  0  0  0
  5  6  1  0  0  0  0
  6  7  2  0  0  0  0
  7  8  1  0  0  0  0
  8  9  2  0  0  0  0
  9 10  1  0  0  0  0
  1 10  1  0  0  0  0
  5 10  2  0  0  0  0
 11 12  1  0  0  0  0
 12 13  1  0  0  0  0
 13 14  1  0  0  0  0
 14 15  2  0  0  0  0
 15 16  1  0  0  0  0
 16 17  2  0  0  0  0
 17 18  1  0  0  0  0
 13 18  2  0  0  0  0
 11  2  1  0  0  0  0
 18  3  1  0  0  0  0
 17 19  1  0  0  0  0
 20 21  1  0  0  0  0
  8 20  1  0  0  0  0
 22 23  1  0  0  0  0
  9 22  1  0  0  0  0
 24 25  1  0  0  0  0
 15 24  1  0  0  0  0
 26 27  1  0  0  0  0
 16 26  1  0  0  0  0
  3 28  1  6  0  0  0
M  END
>  <cdx:groupId>
89

>  <cdx:fragmentId>
5

$$$$
