94144.cdx
  Mrv1902 05222410212D          

 65 71  0  0  0  0            999 V2000
    7.7154  -10.8297    0.0000 O   0  0  0  0  0  0  0  0  0  0  0  0
   12.7167   -8.7672    0.0000 O   0  0  0  0  0  0  0  0  0  0  0  0
   13.4312   -7.5297    0.0000 C   0  0  0  0  0  0  0  0  0  0  0  0
   12.7167   -7.1172    0.0000 O   0  0  0  0  0  0  0  0  0  0  0  0
   10.5733   -7.5297    0.0000 C   0  0  0  0  0  0  0  0  0  0  0  0
   11.2878   -7.1172    0.0000 C   0  0  0  0  0  0  0  0  0  0  0  0
   12.0023   -7.5297    0.0000 C   0  0  0  0  0  0  0  0  0  0  0  0
   12.0023   -8.3547    0.0000 C   0  0  0  0  0  0  0  0  0  0  0  0
   11.2878   -8.7672    0.0000 C   0  0  0  0  0  0  0  0  0  0  0  0
   10.5733   -8.3547    0.0000 C   0  0  0  0  0  0  0  0  0  0  0  0
    5.4611   -9.7834    0.0000 O   0  0  0  0  0  0  0  0  0  0  0  0
    3.8111   -9.7829    0.0000 O   0  0  0  0  0  0  0  0  0  0  0  0
    2.9865   -8.3537    0.0000 O   0  0  0  0  0  0  0  0  0  0  0  0
    3.8124   -5.4961    0.0000 O   0  0  0  0  0  0  0  0  0  0  0  0
    2.9878   -4.0669    0.0000 O   0  0  0  0  0  0  0  0  0  0  0  0
    1.3378   -4.0664    0.0000 O   0  0  0  0  0  0  0  0  0  0  0  0
    0.5124   -5.4951    0.0000 C   0  0  0  0  0  0  0  0  0  0  0  0
    1.3374   -5.4954    0.0000 C   0  0  1  0  0  0  0  0  0  0  0  0
    1.7501   -4.7810    0.0000 C   0  0  1  0  0  0  0  0  0  0  0  0
    2.5751   -4.7813    0.0000 C   0  0  2  0  0  0  0  0  0  0  0  0
    2.9874   -5.4959    0.0000 C   0  0  2  0  0  0  0  0  0  0  0  0
    2.5746   -6.2102    0.0000 C   0  0  1  0  0  0  0  0  0  0  0  0
    1.7496   -6.2100    0.0000 O   0  0  0  0  0  0  0  0  0  0  0  0
    2.9869   -6.9248    0.0000 O   0  0  0  0  0  0  0  0  0  0  0  0
    3.8119   -6.9250    0.0000 C   0  0  0  0  0  0  0  0  0  0  0  0
    4.2242   -7.6396    0.0000 C   0  0  2  0  0  0  0  0  0  0  0  0
    3.8115   -8.3540    0.0000 C   0  0  2  0  0  0  0  0  0  0  0  0
    4.2238   -9.0686    0.0000 C   0  0  1  0  0  0  0  0  0  0  0  0
    5.0488   -9.0688    0.0000 C   0  0  2  0  0  0  0  0  0  0  0  0
    5.4615   -8.3545    0.0000 C   0  0  1  0  0  0  0  0  0  0  0  0
    5.0492   -7.6399    0.0000 O   0  0  0  0  0  0  0  0  0  0  0  0
    6.2865   -8.3547    0.0000 O   0  0  0  0  0  0  0  0  0  0  0  0
    9.1444  -10.8297    0.0000 O   0  0  0  0  0  0  0  0  0  0  0  0
    9.1444   -8.3547    0.0000 O   0  0  0  0  0  0  0  0  0  0  0  0
    8.4299   -8.7672    0.0000 C   0  0  0  0  0  0  0  0  0  0  0  0
    7.7154   -8.3547    0.0000 C   0  0  0  0  0  0  0  0  0  0  0  0
    7.0010   -8.7672    0.0000 C   0  0  0  0  0  0  0  0  0  0  0  0
    7.0010   -9.5922    0.0000 C   0  0  0  0  0  0  0  0  0  0  0  0
    7.7154  -10.0047    0.0000 C   0  0  0  0  0  0  0  0  0  0  0  0
    8.4299   -9.5922    0.0000 C   0  0  0  0  0  0  0  0  0  0  0  0
    9.1444  -10.0047    0.0000 C   0  0  0  0  0  0  0  0  0  0  0  0
    9.8589   -9.5922    0.0000 C   0  0  0  0  0  0  0  0  0  0  0  0
    9.8589   -8.7672    0.0000 C   0  0  0  0  0  0  0  0  0  0  0  0
    6.2656   -7.6070    0.0000 O   0  0  0  0  0  0  0  0  0  0  0  0
    6.2648   -5.9570    0.0000 O   0  0  0  0  0  0  0  0  0  0  0  0
    7.6933   -5.1313    0.0000 O   0  0  0  0  0  0  0  0  0  0  0  0
    9.1223   -5.1306    0.0000 O   0  0  0  0  0  0  0  0  0  0  0  0
    9.1227   -5.9556    0.0000 C   0  0  0  0  0  0  0  0  0  0  0  0
    8.4084   -6.3685    0.0000 C   0  0  2  0  0  0  0  0  0  0  0  0
    7.6937   -5.9563    0.0000 C   0  0  2  0  0  0  0  0  0  0  0  0
    6.9795   -6.3691    0.0000 C   0  0  1  0  0  0  0  0  0  0  0  0
    6.9799   -7.1941    0.0000 C   0  0  2  0  0  0  0  0  0  0  0  0
    7.6945   -7.6063    0.0000 C   0  0  1  0  0  0  0  0  0  0  0  0
    8.4088   -7.1935    0.0000 O   0  0  0  0  0  0  0  0  0  0  0  0
    7.4787  -11.0079    0.0000 O   0  0  0  0  0  0  0  0  0  0  0  0
    6.6537  -12.4367    0.0000 O   0  0  0  0  0  0  0  0  0  0  0  0
    5.0037  -12.4366    0.0000 O   0  0  0  0  0  0  0  0  0  0  0  0
    3.7662  -11.7221    0.0000 O   0  0  0  0  0  0  0  0  0  0  0  0
    4.1787  -11.0076    0.0000 C   0  0  0  0  0  0  0  0  0  0  0  0
    5.0037  -11.0077    0.0000 C   0  0  2  0  0  0  0  0  0  0  0  0
    5.4162  -11.7222    0.0000 C   0  0  2  0  0  0  0  0  0  0  0  0
    6.2412  -11.7222    0.0000 C   0  0  1  0  0  0  0  0  0  0  0  0
    6.6537  -11.0078    0.0000 C   0  0  2  0  0  0  0  0  0  0  0  0
    6.2413  -10.2933    0.0000 C   0  0  1  0  0  0  0  0  0  0  0  0
    5.4163  -10.2932    0.0000 O   0  0  0  0  0  0  0  0  0  0  0  0
 39  1  1  0  0  0  0
 43 10  1  0  0  0  0
  8  2  1  0  0  0  0
  7  4  1  0  0  0  0
  4  3  1  0  0  0  0
 10  5  2  0  0  0  0
  6  5  1  0  0  0  0
  7  6  2  0  0  0  0
  8  7  1  0  0  0  0
  9  8  2  0  0  0  0
 10  9  1  0  0  0  0
 37 32  1  0  0  0  0
 30 32  1  1  0  0  0
 29 11  1  6  0  0  0
 28 12  1  1  0  0  0
 27 13  1  6  0  0  0
 26 25  1  1  0  0  0
 25 24  1  0  0  0  0
 22 24  1  6  0  0  0
 21 14  1  1  0  0  0
 20 15  1  1  0  0  0
 19 16  1  6  0  0  0
 18 17  1  1  0  0  0
 23 18  1  0  0  0  0
 19 18  1  0  0  0  0
 20 19  1  0  0  0  0
 21 20  1  0  0  0  0
 22 21  1  0  0  0  0
 23 22  1  0  0  0  0
 31 26  1  0  0  0  0
 27 26  1  0  0  0  0
 28 27  1  0  0  0  0
 29 28  1  0  0  0  0
 30 29  1  0  0  0  0
 31 30  1  0  0  0  0
 41 33  2  0  0  0  0
 43 34  1  0  0  0  0
 35 34  1  0  0  0  0
 40 35  2  0  0  0  0
 36 35  1  0  0  0  0
 37 36  2  0  0  0  0
 38 37  1  0  0  0  0
 39 38  2  0  0  0  0
 40 39  1  0  0  0  0
 41 40  1  0  0  0  0
 42 41  1  0  0  0  0
 43 42  2  0  0  0  0
 52 44  1  6  0  0  0
 51 45  1  1  0  0  0
 50 46  1  6  0  0  0
 49 48  1  1  0  0  0
 48 47  1  0  0  0  0
 54 49  1  0  0  0  0
 50 49  1  0  0  0  0
 51 50  1  0  0  0  0
 52 51  1  0  0  0  0
 53 52  1  0  0  0  0
 54 53  1  0  0  0  0
 63 55  1  6  0  0  0
 62 56  1  1  0  0  0
 61 57  1  6  0  0  0
 60 59  1  1  0  0  0
 59 58  1  0  0  0  0
 65 60  1  0  0  0  0
 61 60  1  0  0  0  0
 62 61  1  0  0  0  0
 63 62  1  0  0  0  0
 64 63  1  0  0  0  0
 65 64  1  0  0  0  0
 53 36  1  1  0  0  0
 64 38  1  1  0  0  0
M  END
>  <cdx:fragmentId>
45

$$$$
