94154.cdx
  Mrv1902 05222410222D          

 19 20  0  0  0  0            999 V2000
    5.5904   -2.7963    0.0000 S   0  0  0  0  0  0  0  0  0  0  0  0
    5.3458   -3.5842    0.0000 C   0  0  0  0  0  0  0  0  0  0  0  0
    6.0196   -4.0603    0.0000 C   0  0  0  0  0  0  0  0  0  0  0  0
    6.6805   -3.5666    0.0000 C   0  0  0  0  0  0  0  0  0  0  0  0
    6.4153   -2.7854    0.0000 S   0  0  0  0  0  0  0  0  0  0  0  0
    6.0304   -4.8852    0.0000 C   0  0  0  0  0  0  0  0  0  0  0  0
    5.3215   -5.3071    0.0000 O   0  0  0  0  0  0  0  0  0  0  0  0
    6.7503   -5.2883    0.0000 O   0  0  0  0  0  0  0  0  0  0  0  0
    6.7612   -6.1132    0.0000 C   0  0  0  0  0  0  0  0  0  0  0  0
    7.4707   -6.5341    0.0000 C   0  0  2  0  0  0  0  0  0  0  0  0
    7.4610   -7.3591    0.0000 C   0  0  2  0  0  0  0  0  0  0  0  0
    8.1705   -7.7800    0.0000 C   0  0  1  0  0  0  0  0  0  0  0  0
    8.8898   -7.3759    0.0000 C   0  0  2  0  0  0  0  0  0  0  0  0
    8.8996   -6.5510    0.0000 C   0  0  1  0  0  0  0  0  0  0  0  0
    8.1900   -6.1301    0.0000 O   0  0  0  0  0  0  0  0  0  0  0  0
    9.6188   -6.1470    0.0000 O   0  0  0  0  0  0  0  0  0  0  0  0
    8.1608   -8.6049    0.0000 O   0  0  0  0  0  0  0  0  0  0  0  0
    9.5994   -7.7968    0.0000 O   0  0  0  0  0  0  0  0  0  0  0  0
    6.7417   -7.7631    0.0000 O   0  0  0  0  0  0  0  0  0  0  0  0
  1  2  1  0  0  0  0
  2  3  1  0  0  0  0
  3  4  1  0  0  0  0
  4  5  1  0  0  0  0
  5  1  1  0  0  0  0
  3  6  1  0  0  0  0
  6  7  2  0  0  0  0
  6  8  1  0  0  0  0
  8  9  1  0  0  0  0
 10  9  1  1  0  0  0
 10 11  1  0  0  0  0
 11 12  1  0  0  0  0
 12 13  1  0  0  0  0
 13 14  1  0  0  0  0
 14 15  1  0  0  0  0
 15 10  1  0  0  0  0
 14 16  1  1  0  0  0
 12 17  1  1  0  0  0
 13 18  1  6  0  0  0
 11 19  1  6  0  0  0
M  END
>  <cdx:fragmentId>
17930

$$$$
