94157.cdx
  Mrv1902 05222410232D          

  7  6  0  0  0  0            999 V2000
    4.7484   -7.7903    0.0000 C   0  0  0  0  0  0  0  0  0  0  0  0
    5.4629   -7.3778    0.0000 S   0  0  0  0  0  0  0  0  0  0  0  0
    5.4629   -6.5528    0.0000 O   0  0  0  0  0  0  0  0  0  0  0  0
    6.1774   -7.7903    0.0000 S   0  0  0  0  0  0  0  0  0  0  0  0
    6.8918   -7.3778    0.0000 C   0  0  0  0  0  0  0  0  0  0  0  0
    7.6063   -7.7903    0.0000 C   0  0  0  0  0  0  0  0  0  0  0  0
    8.3208   -7.3778    0.0000 C   0  0  0  0  0  0  0  0  0  0  0  0
  2  3  2  0  0  0  0
  2  4  1  0  0  0  0
  1  2  1  0  0  0  0
  4  5  1  0  0  0  0
  5  6  1  0  0  0  0
  6  7  2  0  0  0  0
M  END
>  <cdx:groupId>
22

>  <cdx:fragmentId>
11

$$$$
