94152.cdx
  Mrv1902 05222410212D          

 27 29  0  0  0  0            999 V2000
    6.2131   -8.5938    0.0000 O   0  0  0  0  0  0  0  0  0  0  0  0
    6.9275   -9.8312    0.0000 O   0  0  0  0  0  0  0  0  0  0  0  0
    7.6420   -9.4187    0.0000 C   0  0  2  0  0  0  0  0  0  0  0  0
    7.6420   -8.5938    0.0000 C   0  0  1  0  0  0  0  0  0  0  0  0
    6.9275   -8.1813    0.0000 C   0  0  0  0  0  0  0  0  0  0  0  0
    8.3565   -9.8312    0.0000 C   0  0  0  0  0  0  0  0  0  0  0  0
    9.0709   -9.4187    0.0000 C   0  0  2  0  0  0  0  0  0  0  0  0
    9.0709   -8.5938    0.0000 C   0  0  1  0  0  0  0  0  0  0  0  0
    8.3565   -8.1813    0.0000 O   0  0  0  0  0  0  0  0  0  0  0  0
    9.7854   -8.1813    0.0000 O   0  0  0  0  0  0  0  0  0  0  0  0
    9.7854   -7.3563    0.0000 C   0  0  0  0  0  0  0  0  0  0  0  0
    9.0709   -6.9438    0.0000 C   0  0  0  0  0  0  0  0  0  0  0  0
   10.3985   -6.8042    0.0000 C   0  0  0  0  0  0  0  0  0  0  0  0
   10.0629   -6.0505    0.0000 C   0  0  0  0  0  0  0  0  0  0  0  0
    9.2425   -6.1368    0.0000 N   0  0  0  0  0  0  0  0  0  0  0  0
   11.2190   -6.8905    0.0000 C   0  0  0  0  0  0  0  0  0  0  0  0
   11.7039   -6.2230    0.0000 C   0  0  0  0  0  0  0  0  0  0  0  0
   11.3683   -5.4693    0.0000 C   0  0  0  0  0  0  0  0  0  0  0  0
   10.5479   -5.3831    0.0000 C   0  0  0  0  0  0  0  0  0  0  0  0
    8.3565  -10.6563    0.0000 O   0  0  0  0  0  0  0  0  0  0  0  0
    9.7854   -9.8312    0.0000 O   0  0  0  0  0  0  0  0  0  0  0  0
    5.4986   -8.1813    0.0000 C   0  0  0  0  0  0  0  0  0  0  0  0
    4.7841   -8.5938    0.0000 C   0  0  0  0  0  0  0  0  0  0  0  0
    5.4986   -7.3563    0.0000 O   0  0  0  0  0  0  0  0  0  0  0  0
    4.0696   -8.1813    0.0000 C   0  0  0  0  0  0  0  0  0  0  0  0
    3.3552   -8.5938    0.0000 O   0  0  0  0  0  0  0  0  0  0  0  0
    4.0696   -7.3563    0.0000 O   0  0  0  0  0  0  0  0  0  0  0  0
  3  2  1  6  0  0  0
  3  4  1  0  0  0  0
  4  5  1  1  0  0  0
  5  1  1  0  0  0  0
  3  6  1  0  0  0  0
  6  7  1  0  0  0  0
  7  8  1  0  0  0  0
  8  9  1  0  0  0  0
  9  4  1  0  0  0  0
  8 10  1  1  0  0  0
 10 11  1  0  0  0  0
 11 12  2  0  0  0  0
 11 13  1  0  0  0  0
 13 14  2  0  0  0  0
 14 15  1  0  0  0  0
 15 12  1  0  0  0  0
 13 16  1  0  0  0  0
 16 17  2  0  0  0  0
 17 18  1  0  0  0  0
 18 19  2  0  0  0  0
 19 14  1  0  0  0  0
  6 20  2  0  0  0  0
  7 21  1  6  0  0  0
  1 22  1  0  0  0  0
 22 23  1  0  0  0  0
 22 24  2  0  0  0  0
 23 25  1  0  0  0  0
 25 26  1  0  0  0  0
 25 27  2  0  0  0  0
M  END
>  <cdx:fragmentId>
5

$$$$
