9415.cdx
  Mrv1902 05222410262D          

 24 26  0  0  0  0            999 V2000
    6.0788   -9.0868    0.0000 C   0  0  2  0  0  0  0  0  0  0  0  0
    5.6018   -9.7599    0.0000 C   0  0  0  0  0  0  0  0  0  0  0  0
    6.0945  -10.4216    0.0000 C   0  0  0  0  0  0  0  0  0  0  0  0
    6.8761  -10.1575    0.0000 N   0  0  0  0  0  0  0  0  0  0  0  0
    6.8664   -9.3326    0.0000 C   0  0  2  0  0  0  0  0  0  0  0  0
    7.6636  -10.4032    0.0000 C   0  0  0  0  0  0  0  0  0  0  0  0
    8.1407   -9.7301    0.0000 C   0  0  0  0  0  0  0  0  0  0  0  0
    7.6480   -9.0684    0.0000 C   0  0  0  0  0  0  0  0  0  0  0  0
    6.1476   -8.2618    0.0000 O   0  0  0  0  0  0  0  0  0  0  0  0
    6.1476   -6.6118    0.0000 C   0  0  0  0  0  0  0  0  0  0  0  0
    5.4331   -7.0243    0.0000 C   0  0  2  0  0  0  0  0  0  0  0  0
    5.4331   -7.8493    0.0000 C   0  0  0  0  0  0  0  0  0  0  0  0
    7.5765   -8.2618    0.0000 C   0  0  0  0  0  0  0  0  0  0  0  0
    8.2910   -7.8493    0.0000 O   0  0  0  0  0  0  0  0  0  0  0  0
    8.2910   -7.0243    0.0000 C   0  0  0  0  0  0  0  0  0  0  0  0
    7.5765   -6.6118    0.0000 C   0  0  0  0  0  0  0  0  0  0  0  0
    4.7186   -6.6118    0.0000 C   0  0  0  0  0  0  0  0  0  0  0  0
    4.7186   -8.2618    0.0000 O   0  0  0  0  0  0  0  0  0  0  0  0
    9.0055   -6.6118    0.0000 O   0  0  0  0  0  0  0  0  0  0  0  0
    6.8567   -8.5076    0.0000 H   0  0  0  0  0  0  0  0  0  0  0  0
    5.9340   -5.8150    0.0000 O   0  0  0  0  0  0  0  0  0  0  0  0
    7.7900   -5.8150    0.0000 O   0  0  0  0  0  0  0  0  0  0  0  0
    6.1476   -7.4368    0.0000 C   0  0  0  0  0  0  0  0  0  0  0  0
    7.5765   -7.4368    0.0000 C   0  0  0  0  0  0  0  0  0  0  0  0
  1  2  1  0  0  0  0
  2  3  1  0  0  0  0
  3  4  1  0  0  0  0
  4  5  1  0  0  0  0
  5  1  1  0  0  0  0
  4  6  1  0  0  0  0
  6  7  1  0  0  0  0
  7  8  2  0  0  0  0
  8  5  1  0  0  0  0
  1  9  1  1  0  0  0
 10 11  1  0  0  0  0
 11 12  1  0  0  0  0
 12  9  1  0  0  0  0
 13 14  1  0  0  0  0
 14 15  1  0  0  0  0
 15 16  1  0  0  0  0
  8 13  1  0  0  0  0
 11 17  1  6  0  0  0
 18 12  2  0  0  0  0
 15 19  2  0  0  0  0
  5 20  1  6  0  0  0
 10 16  1  0  0  0  0
 10 21  1  1  0  0  0
 16 22  1  1  0  0  0
 10 23  1  6  0  0  0
 16 24  1  6  0  0  0
M  END
>  <cdx:fragmentId>
5

$$$$
