94150.cdx
  Mrv1902 05222410212D          

 34 38  0  0  0  0            999 V2000
    4.4668   -9.4187    0.0000 C   0  0  0  0  0  0  0  0  0  0  0  0
    4.4668  -10.2437    0.0000 C   0  0  1  0  0  0  0  0  0  0  0  0
    5.1813  -10.6563    0.0000 C   0  0  0  0  0  0  0  0  0  0  0  0
    5.8957  -10.2437    0.0000 C   0  0  1  0  0  0  0  0  0  0  0  0
    5.8957   -9.4187    0.0000 C   0  0  2  0  0  0  0  0  0  0  0  0
    5.1813   -9.0062    0.0000 C   0  0  0  0  0  0  0  0  0  0  0  0
    6.6102  -10.6563    0.0000 C   0  0  0  0  0  0  0  0  0  0  0  0
    7.3247  -10.2437    0.0000 C   0  0  0  0  0  0  0  0  0  0  0  0
    7.3247   -9.4187    0.0000 C   0  0  2  0  0  0  0  0  0  0  0  0
    6.6102   -9.0062    0.0000 C   0  0  1  0  0  0  0  0  0  0  0  0
    8.0392   -9.0062    0.0000 C   0  0  1  0  0  0  0  0  0  0  0  0
    8.0392   -8.1813    0.0000 C   0  0  2  0  0  0  0  0  0  0  0  0
    7.3247   -7.7687    0.0000 C   0  0  0  0  0  0  0  0  0  0  0  0
    6.6102   -8.1813    0.0000 C   0  0  0  0  0  0  0  0  0  0  0  0
    8.8238   -9.2612    0.0000 C   0  0  0  0  0  0  0  0  0  0  0  0
    9.3087   -8.5938    0.0000 C   0  0  0  0  0  0  0  0  0  0  0  0
    8.8238   -7.9263    0.0000 C   0  0  2  0  0  0  0  0  0  0  0  0
    4.7688  -11.3707    0.0000 C   0  0  0  0  0  0  0  0  0  0  0  0
    5.5938  -11.3707    0.0000 C   0  0  0  0  0  0  0  0  0  0  0  0
    9.0787   -7.1417    0.0000 C   0  0  2  0  0  0  0  0  0  0  0  0
    8.5267   -6.5286    0.0000 C   0  0  0  0  0  0  0  0  0  0  0  0
    9.8857   -6.9702    0.0000 C   0  0  0  0  0  0  0  0  0  0  0  0
   10.0992   -6.1733    0.0000 C   0  0  0  0  0  0  0  0  0  0  0  0
   10.8961   -5.9597    0.0000 C   0  0  0  0  0  0  0  0  0  0  0  0
   11.1096   -5.1629    0.0000 C   0  0  0  0  0  0  0  0  0  0  0  0
   11.9065   -4.9493    0.0000 C   0  0  0  0  0  0  0  0  0  0  0  0
   10.5263   -4.5795    0.0000 C   0  0  0  0  0  0  0  0  0  0  0  0
    3.7523  -10.6563    0.0000 O   0  0  0  0  0  0  0  0  0  0  0  0
    5.8957   -8.5938    0.0000 C   0  0  0  0  0  0  0  0  0  0  0  0
    8.0392   -7.3563    0.0000 C   0  0  0  0  0  0  0  0  0  0  0  0
    7.3247   -8.5938    0.0000 H   0  0  0  0  0  0  0  0  0  0  0  0
    9.6386   -7.7973    0.0000 H   0  0  0  0  0  0  0  0  0  0  0  0
    8.0392   -9.8312    0.0000 C   0  0  0  0  0  0  0  0  0  0  0  0
    5.8957  -11.0688    0.0000 H   0  0  0  0  0  0  0  0  0  0  0  0
  1  2  1  0  0  0  0
  2  3  1  0  0  0  0
  3  4  1  0  0  0  0
  4  5  1  0  0  0  0
  5  6  1  0  0  0  0
  6  1  1  0  0  0  0
  4  7  1  0  0  0  0
  7  8  1  0  0  0  0
  8  9  1  0  0  0  0
  9 10  1  0  0  0  0
 10  5  1  0  0  0  0
  9 11  1  0  0  0  0
 11 12  1  0  0  0  0
 12 13  1  0  0  0  0
 13 14  1  0  0  0  0
 14 10  1  0  0  0  0
 11 15  1  0  0  0  0
 15 16  1  0  0  0  0
 16 17  1  0  0  0  0
 17 12  1  0  0  0  0
  3 18  1  0  0  0  0
  3 19  1  0  0  0  0
 17 20  1  0  0  0  0
 20 21  1  6  0  0  0
 20 22  1  0  0  0  0
 22 23  1  0  0  0  0
 23 24  1  0  0  0  0
 24 25  2  0  0  0  0
 25 26  1  0  0  0  0
 25 27  1  0  0  0  0
  2 28  1  1  0  0  0
  5 29  1  1  0  0  0
 10 29  1  1  0  0  0
 12 30  1  1  0  0  0
  9 31  1  1  0  0  0
 17 32  1  6  0  0  0
 11 33  1  6  0  0  0
  4 34  1  6  0  0  0
M  END
>  <cdx:fragmentId>
5

$$$$
