94156.cdx
  Mrv1902 05222410222D          

 16 18  0  0  0  0            999 V2000
    7.0921   -6.1132    0.0000 C   0  0  0  0  0  0  0  0  0  0  0  0
    6.6076   -6.2412    0.0000 C   0  0  0  0  0  0  0  0  0  0  0  0
    5.8796   -6.5090    0.0000 C   0  0  0  0  0  0  0  0  0  0  0  0
    6.3373   -5.8541    0.0000 C   0  0  0  0  0  0  0  0  0  0  0  0
    7.4865   -6.3949    0.0000 C   0  0  0  0  0  0  0  0  0  0  0  0
    7.9934   -5.6626    0.0000 C   0  0  0  0  0  0  0  0  0  0  0  0
    5.5404   -6.0676    0.0000 C   0  0  0  0  0  0  0  0  0  0  0  0
    7.4865   -7.2199    0.0000 C   0  0  0  0  0  0  0  0  0  0  0  0
    7.0921   -6.9382    0.0000 C   0  0  0  0  0  0  0  0  0  0  0  0
    7.8640   -7.9535    0.0000 C   0  0  0  0  0  0  0  0  0  0  0  0
    7.8890   -7.1518    0.0000 C   0  0  0  0  0  0  0  0  0  0  0  0
    8.6859   -6.9382    0.0000 C   0  0  0  0  0  0  0  0  0  0  0  0
    8.6859   -6.1132    0.0000 C   0  0  0  0  0  0  0  0  0  0  0  0
    8.0401   -4.8389    0.0000 C   0  0  0  0  0  0  0  0  0  0  0  0
    8.2833   -6.1814    0.0000 C   0  0  0  0  0  0  0  0  0  0  0  0
    6.3520   -5.5659    0.0000 H   0  0  0  0  0  0  0  0  0  0  0  0
  3  2  1  0  0  0  0
  4  3  1  0  0  0  0
  1  4  1  0  0  0  0
  6  5  1  0  0  0  0
  1  6  1  0  0  0  0
  4  7  1  0  0  0  0
  1  9  1  0  0  0  0
  2  5  1  0  0  0  0
  9  8  1  0  0  0  0
  8 10  2  0  0  0  0
  9 11  1  0  0  0  0
  5  8  1  0  0  0  0
 11 12  1  0  0  0  0
 12 13  1  0  0  0  0
  6 13  1  0  0  0  0
  6 14  1  0  0  0  0
  5 15  1  0  0  0  0
  4 16  1  0  0  0  0
M  END
>  <cdx:groupId>
813

>  <cdx:fragmentId>
814

$$$$
