94164.cdx
  Mrv1902 05222410242D          

 17 19  0  0  0  0            999 V2000
    5.7750   -4.7300    0.0000 C   0  0  0  0  0  0  0  0  0  0  0  0
    5.5956   -5.4632    0.0000 C   0  0  2  0  0  0  0  0  0  0  0  0
    6.9289   -5.4236    0.0000 C   0  0  0  0  0  0  0  0  0  0  0  0
    7.1500   -4.3725    0.0000 C   0  0  0  0  0  0  0  0  0  0  0  0
    6.1325   -3.9600    0.0000 C   0  0  0  0  0  0  0  0  0  0  0  0
    5.1150   -4.4550    0.0000 C   0  0  1  0  0  0  0  0  0  0  0  0
    6.5657   -4.6989    0.0000 C   0  0  1  0  0  0  0  0  0  0  0  0
    6.6114   -6.0607    0.0000 C   0  0  0  0  0  0  0  0  0  0  0  0
    7.4197   -6.2258    0.0000 C   0  0  0  0  0  0  0  0  0  0  0  0
    7.6808   -7.0084    0.0000 C   0  0  0  0  0  0  0  0  0  0  0  0
    8.4891   -7.1735    0.0000 C   0  0  0  0  0  0  0  0  0  0  0  0
    8.7502   -7.9561    0.0000 C   0  0  0  0  0  0  0  0  0  0  0  0
    9.0363   -6.5561    0.0000 C   0  0  0  0  0  0  0  0  0  0  0  0
    6.9782   -3.9844    0.0000 C   0  0  0  0  0  0  0  0  0  0  0  0
    5.4587   -3.9232    0.0000 C   0  0  0  0  0  0  0  0  0  0  0  0
    4.2900   -4.4550    0.0000 H   0  0  0  0  0  0  0  0  0  0  0  0
    4.8811   -5.8757    0.0000 H   0  0  0  0  0  0  0  0  0  0  0  0
  1  2  1  0  0  0  0
  2  3  1  0  0  0  0
  3  4  1  0  0  0  0
  4  5  1  0  0  0  0
  5  6  1  0  0  0  0
  1  6  1  0  0  0  0
  1  7  1  0  0  0  0
  7  4  1  0  0  0  0
  2  6  1  0  0  0  0
  8  9  1  0  0  0  0
  9 10  1  0  0  0  0
 10 11  2  0  0  0  0
 11 12  1  0  0  0  0
 11 13  1  0  0  0  0
  7  8  1  0  0  0  0
  7 14  1  6  0  0  0
  1 15  1  0  0  0  0
  6 16  1  1  0  0  0
  2 17  1  1  0  0  0
M  END
>  <cdx:fragmentId>
5

$$$$
