94162.cdx
  Mrv1902 05222410252D          

 11 11  0  0  0  0            999 V2000
    4.6798   -8.0195    0.0000 S   0  0  0  0  0  0  0  0  0  0  0  0
    5.4049   -7.6259    0.0000 C   0  0  0  0  0  0  0  0  0  0  0  0
    6.1083   -8.0571    0.0000 C   0  0  0  0  0  0  0  0  0  0  0  0
    6.0865   -8.8819    0.0000 C   0  0  0  0  0  0  0  0  0  0  0  0
    5.3614   -9.2754    0.0000 C   0  0  0  0  0  0  0  0  0  0  0  0
    4.6581   -8.8442    0.0000 C   0  0  0  0  0  0  0  0  0  0  0  0
    6.8334   -7.6636    0.0000 C   0  0  0  0  0  0  0  0  0  0  0  0
    7.5367   -8.0948    0.0000 S   0  0  0  0  0  0  0  0  0  0  0  0
    8.2618   -7.7013    0.0000 C   0  0  0  0  0  0  0  0  0  0  0  0
    8.9652   -8.1325    0.0000 C   0  0  0  0  0  0  0  0  0  0  0  0
    9.6903   -7.7390    0.0000 C   0  0  0  0  0  0  0  0  0  0  0  0
  1  2  1  0  0  0  0
  2  3  1  0  0  0  0
  3  4  1  0  0  0  0
  4  5  1  0  0  0  0
  5  6  2  0  0  0  0
  1  6  1  0  0  0  0
  7  8  1  0  0  0  0
  8  9  1  0  0  0  0
  9 10  1  0  0  0  0
 10 11  2  0  0  0  0
  3  7  1  0  0  0  0
M  END
>  <cdx:groupId>
35

>  <cdx:fragmentId>
5

$$$$
