94163.cdx
  Mrv1902 05222410252D          

  8  8  0  0  0  0            999 V2000
    7.0902   -8.5722    0.0000 S   0  0  0  0  0  0  0  0  0  0  0  0
    7.8047   -8.9847    0.0000 C   0  0  0  0  0  0  0  0  0  0  0  0
    8.5191   -8.5722    0.0000 C   0  0  0  0  0  0  0  0  0  0  0  0
    8.9316   -7.8577    0.0000 C   0  0  0  0  0  0  0  0  0  0  0  0
    9.3441   -8.5722    0.0000 O   0  0  0  0  0  0  0  0  0  0  0  0
    6.3757   -8.9847    0.0000 C   0  0  0  0  0  0  0  0  0  0  0  0
    5.6613   -8.5722    0.0000 C   0  0  0  0  0  0  0  0  0  0  0  0
    4.9468   -8.9847    0.0000 C   0  0  0  0  0  0  0  0  0  0  0  0
  2  3  1  0  0  0  0
  3  4  1  0  0  0  0
  3  5  1  0  0  0  0
  4  5  1  0  0  0  0
  1  2  1  0  0  0  0
  6  7  1  0  0  0  0
  7  8  2  0  0  0  0
  1  6  1  0  0  0  0
M  END
>  <cdx:groupId>
26

>  <cdx:fragmentId>
7

$$$$
