94161.cdx
  Mrv1902 05222410252D          

 12 13  0  0  0  0            999 V2000
    6.1239   -8.2500    0.0000 S   0  0  0  0  0  0  0  0  0  0  0  0
    6.8384   -8.6625    0.0000 C   0  0  0  0  0  0  0  0  0  0  0  0
    6.8384   -9.4875    0.0000 S   0  0  0  0  0  0  0  0  0  0  0  0
    6.1239   -9.9000    0.0000 C   0  0  0  0  0  0  0  0  0  0  0  0
    5.4095   -9.4875    0.0000 C   0  0  0  0  0  0  0  0  0  0  0  0
    5.4095   -8.6625    0.0000 C   0  0  0  0  0  0  0  0  0  0  0  0
    7.5529   -7.4250    0.0000 S   0  0  0  0  0  0  0  0  0  0  0  0
    8.2674   -7.0125    0.0000 C   0  0  0  0  0  0  0  0  0  0  0  0
    8.9818   -7.4250    0.0000 C   0  0  0  0  0  0  0  0  0  0  0  0
    8.9818   -8.2500    0.0000 C   0  0  0  0  0  0  0  0  0  0  0  0
    8.2674   -8.6625    0.0000 C   0  0  0  0  0  0  0  0  0  0  0  0
    7.5529   -8.2500    0.0000 C   0  0  0  0  0  0  0  0  0  0  0  0
  1  2  1  0  0  0  0
  2  3  1  0  0  0  0
  3  4  1  0  0  0  0
  4  5  1  0  0  0  0
  5  6  2  0  0  0  0
  1  6  1  0  0  0  0
  7  8  1  0  0  0  0
  8  9  2  0  0  0  0
  9 10  1  0  0  0  0
 10 11  1  0  0  0  0
 11 12  1  0  0  0  0
  7 12  1  0  0  0  0
  2 12  1  0  0  0  0
M  END
>  <cdx:groupId>
39

>  <cdx:fragmentId>
17

$$$$
