94160.cdx
  Mrv1902 05222410252D          

 31 33  0  0  0  0            999 V2000
    8.9784   -8.8197    0.0000 C   0  0  0  0  0  0  0  0  0  0  0  0
    8.9784   -9.6447    0.0000 C   0  0  0  0  0  0  0  0  0  0  0  0
    8.2639  -10.0572    0.0000 C   0  0  0  0  0  0  0  0  0  0  0  0
    8.2639  -10.8822    0.0000 O   0  0  0  0  0  0  0  0  0  0  0  0
    7.5494   -9.6447    0.0000 C   0  0  0  0  0  0  0  0  0  0  0  0
    6.8350  -10.0572    0.0000 C   0  0  0  0  0  0  0  0  0  0  0  0
    6.1205   -9.6447    0.0000 C   0  0  0  0  0  0  0  0  0  0  0  0
    6.1205   -8.8197    0.0000 C   0  0  0  0  0  0  0  0  0  0  0  0
    6.8350   -8.4072    0.0000 C   0  0  0  0  0  0  0  0  0  0  0  0
    7.5494   -8.8197    0.0000 C   0  0  0  0  0  0  0  0  0  0  0  0
    8.2639   -8.4072    0.0000 O   0  0  0  0  0  0  0  0  0  0  0  0
    9.6929   -8.4072    0.0000 C   0  0  0  0  0  0  0  0  0  0  0  0
    9.6929   -7.5822    0.0000 C   0  0  0  0  0  0  0  0  0  0  0  0
   10.4073   -7.1697    0.0000 C   0  0  0  0  0  0  0  0  0  0  0  0
   11.1218   -7.5822    0.0000 C   0  0  0  0  0  0  0  0  0  0  0  0
   11.1218   -8.4072    0.0000 C   0  0  0  0  0  0  0  0  0  0  0  0
   10.4073   -8.8197    0.0000 C   0  0  0  0  0  0  0  0  0  0  0  0
    6.8350   -7.5822    0.0000 C   0  0  0  0  0  0  0  0  0  0  0  0
    6.1205   -7.1697    0.0000 C   0  0  0  0  0  0  0  0  0  0  0  0
    6.1205   -6.3447    0.0000 C   0  0  0  0  0  0  0  0  0  0  0  0
    6.8350   -5.9322    0.0000 C   0  0  0  0  0  0  0  0  0  0  0  0
    5.4060   -5.9322    0.0000 C   0  0  0  0  0  0  0  0  0  0  0  0
    5.4060  -10.0572    0.0000 C   0  0  0  0  0  0  0  0  0  0  0  0
    4.6916   -9.6447    0.0000 C   0  0  0  0  0  0  0  0  0  0  0  0
    3.9771  -10.0572    0.0000 C   0  0  0  0  0  0  0  0  0  0  0  0
    3.9771  -10.8822    0.0000 C   0  0  0  0  0  0  0  0  0  0  0  0
    3.2626   -9.6447    0.0000 C   0  0  0  0  0  0  0  0  0  0  0  0
   10.4073   -9.6447    0.0000 O   0  0  0  0  0  0  0  0  0  0  0  0
    8.9784   -7.1697    0.0000 O   0  0  0  0  0  0  0  0  0  0  0  0
    5.4060   -8.4072    0.0000 O   0  0  0  0  0  0  0  0  0  0  0  0
    6.8350  -10.8822    0.0000 O   0  0  0  0  0  0  0  0  0  0  0  0
  1  2  1  0  0  0  0
  2  3  1  0  0  0  0
  3  4  2  0  0  0  0
  3  5  1  0  0  0  0
  5  6  1  0  0  0  0
  6  7  2  0  0  0  0
  7  8  1  0  0  0  0
  8  9  2  0  0  0  0
  9 10  1  0  0  0  0
  5 10  2  0  0  0  0
 10 11  1  0  0  0  0
  1 11  1  0  0  0  0
  1 12  1  0  0  0  0
 12 13  1  0  0  0  0
 13 14  2  0  0  0  0
 14 15  1  0  0  0  0
 15 16  2  0  0  0  0
 16 17  1  0  0  0  0
 12 17  2  0  0  0  0
 18 19  1  0  0  0  0
 19 20  2  0  0  0  0
 20 21  1  0  0  0  0
 20 22  1  0  0  0  0
  9 18  1  0  0  0  0
 23 24  1  0  0  0  0
 24 25  2  0  0  0  0
 25 26  1  0  0  0  0
 25 27  1  0  0  0  0
  7 23  1  0  0  0  0
 17 28  1  0  0  0  0
 13 29  1  0  0  0  0
  8 30  1  0  0  0  0
  6 31  1  0  0  0  0
M  END
>  <cdx:groupId>
97

>  <cdx:fragmentId>
5

$$$$
