94179.cdx
  Mrv1902 05222410212D          

 34 38  0  0  0  0            999 V2000
    3.9330  -11.0133    0.0000 C   0  0  1  0  0  0  0  0  0  0  0  0
    3.9330  -10.1883    0.0000 C   0  0  0  0  0  0  0  0  0  0  0  0
    4.6475   -9.7758    0.0000 C   0  0  0  0  0  0  0  0  0  0  0  0
    4.6475  -11.4258    0.0000 C   0  0  0  0  0  0  0  0  0  0  0  0
    5.3620  -11.0133    0.0000 C   0  0  2  0  0  0  0  0  0  0  0  0
    6.0764  -11.4258    0.0000 C   0  0  0  0  0  0  0  0  0  0  0  0
    6.7909  -11.0133    0.0000 C   0  0  0  0  0  0  0  0  0  0  0  0
    6.7909  -10.1883    0.0000 C   0  0  2  0  0  0  0  0  0  0  0  0
    7.5054   -9.7758    0.0000 C   0  0  2  0  0  0  0  0  0  0  0  0
    8.2900  -10.0308    0.0000 C   0  0  0  0  0  0  0  0  0  0  0  0
    8.7749   -9.3633    0.0000 C   0  0  0  0  0  0  0  0  0  0  0  0
    8.2900   -8.6959    0.0000 C   0  0  2  0  0  0  0  0  0  0  0  0
    8.5449   -7.9113    0.0000 C   0  0  1  0  0  0  0  0  0  0  0  0
    9.3519   -7.7397    0.0000 C   0  0  0  0  0  0  0  0  0  0  0  0
    9.6069   -6.9551    0.0000 C   0  0  0  0  0  0  0  0  0  0  0  0
   10.4138   -6.7836    0.0000 C   0  0  1  0  0  0  0  0  0  0  0  0
   10.6688   -5.9990    0.0000 C   0  0  0  0  0  0  0  0  0  0  0  0
   10.1167   -5.3859    0.0000 C   0  0  0  0  0  0  0  0  0  0  0  0
   11.4757   -5.8274    0.0000 C   0  0  0  0  0  0  0  0  0  0  0  0
    7.9929   -7.2982    0.0000 C   0  0  0  0  0  0  0  0  0  0  0  0
    7.5054   -8.9508    0.0000 C   0  0  2  0  0  0  0  0  0  0  0  0
    7.5054   -8.1258    0.0000 C   0  0  0  0  0  0  0  0  0  0  0  0
    6.7909   -8.5383    0.0000 C   0  0  0  0  0  0  0  0  0  0  0  0
    6.0764   -8.9508    0.0000 C   0  0  0  0  0  0  0  0  0  0  0  0
    6.0764   -9.7758    0.0000 C   0  0  2  0  0  0  0  0  0  0  0  0
    5.3620  -10.1883    0.0000 C   0  0  1  0  0  0  0  0  0  0  0  0
    5.3620   -9.3633    0.0000 C   0  0  0  0  0  0  0  0  0  0  0  0
    3.2186  -11.4258    0.0000 O   0  0  0  0  0  0  0  0  0  0  0  0
    6.5154  -10.7414    0.0000 O   0  0  0  0  0  0  0  0  0  0  0  0
    5.9796  -11.0508    0.0000 O   0  0  0  0  0  0  0  0  0  0  0  0
   10.9659   -7.3967    0.0000 C   0  0  0  0  0  0  0  0  0  0  0  0
    6.0764  -10.6008    0.0000 H   0  0  0  0  0  0  0  0  0  0  0  0
    7.5054  -10.6008    0.0000 H   0  0  0  0  0  0  0  0  0  0  0  0
    9.0869   -8.4824    0.0000 H   0  0  0  0  0  0  0  0  0  0  0  0
  1  2  1  0  0  0  0
  2  3  1  0  0  0  0
  1  4  1  0  0  0  0
  4  5  1  0  0  0  0
  5  6  1  0  0  0  0
  6  7  2  0  0  0  0
  7  8  1  0  0  0  0
  8  9  1  0  0  0  0
  9 10  1  0  0  0  0
 10 11  1  0  0  0  0
 12 11  1  0  0  0  0
 12 13  1  0  0  0  0
 13 14  1  0  0  0  0
 14 15  2  0  0  0  0
 15 16  1  0  0  0  0
 16 17  1  0  0  0  0
 17 18  1  0  0  0  0
 17 19  1  0  0  0  0
 13 20  1  6  0  0  0
 12 21  1  0  0  0  0
  9 21  1  0  0  0  0
 21 22  1  1  0  0  0
 21 23  1  0  0  0  0
 23 24  1  0  0  0  0
 24 25  1  0  0  0  0
  8 25  1  0  0  0  0
 25 26  1  0  0  0  0
  3 26  1  0  0  0  0
  5 26  1  0  0  0  0
 26 27  1  1  0  0  0
  1 28  1  1  0  0  0
 29 30  1  0  0  0  0
  5 30  1  6  0  0  0
  8 29  1  6  0  0  0
 16 31  1  1  0  0  0
 25 32  1  6  0  0  0
  9 33  1  6  0  0  0
 12 34  1  6  0  0  0
M  END
>  <cdx:fragmentId>
5

$$$$
