94174.cdx
  Mrv1902 05222410252D          

 21 22  0  0  0  0            999 V2000
    8.8042   -7.2352    0.0000 C   0  0  0  0  0  0  0  0  0  0  0  0
    8.0841   -7.6377    0.0000 C   0  0  2  0  0  0  0  0  0  0  0  0
    7.3754   -7.2152    0.0000 C   0  0  1  0  0  0  0  0  0  0  0  0
    6.6553   -7.6177    0.0000 C   0  0  0  0  0  0  0  0  0  0  0  0
    8.0725   -8.4626    0.0000 C   0  0  0  0  0  0  0  0  0  0  0  0
    8.7812   -8.8850    0.0000 C   0  0  0  0  0  0  0  0  0  0  0  0
    8.7697   -9.7099    0.0000 C   0  0  0  0  0  0  0  0  0  0  0  0
    8.0495  -10.1124    0.0000 C   0  0  0  0  0  0  0  0  0  0  0  0
    7.3409   -9.6900    0.0000 C   0  0  0  0  0  0  0  0  0  0  0  0
    7.3524   -8.8651    0.0000 C   0  0  0  0  0  0  0  0  0  0  0  0
    8.0380  -10.9373    0.0000 O   0  0  0  0  0  0  0  0  0  0  0  0
    8.8158   -6.4103    0.0000 C   0  0  0  0  0  0  0  0  0  0  0  0
   11.6964   -4.8003    0.0000 O   0  0  0  0  0  0  0  0  0  0  0  0
   10.2676   -4.7804    0.0000 C   0  0  0  0  0  0  0  0  0  0  0  0
    9.5474   -5.1829    0.0000 C   0  0  0  0  0  0  0  0  0  0  0  0
    9.5359   -6.0078    0.0000 C   0  0  0  0  0  0  0  0  0  0  0  0
   10.2446   -6.4302    0.0000 C   0  0  0  0  0  0  0  0  0  0  0  0
   10.9647   -6.0277    0.0000 C   0  0  0  0  0  0  0  0  0  0  0  0
   10.9762   -5.2028    0.0000 C   0  0  0  0  0  0  0  0  0  0  0  0
    7.3870   -6.3903    0.0000 O   0  0  0  0  0  0  0  0  0  0  0  0
    5.9466   -7.1953    0.0000 O   0  0  0  0  0  0  0  0  0  0  0  0
 16 12  1  0  0  0  0
 19 13  1  0  0  0  0
 19 14  2  0  0  0  0
 15 14  1  0  0  0  0
 16 15  2  0  0  0  0
 17 16  1  0  0  0  0
 18 17  2  0  0  0  0
 19 18  1  0  0  0  0
 12  1  2  0  0  0  0
  2  1  1  1  0  0  0
  2  3  1  0  0  0  0
  3  4  1  0  0  0  0
  5  6  1  0  0  0  0
  6  7  2  0  0  0  0
  7  8  1  0  0  0  0
  8  9  2  0  0  0  0
  9 10  1  0  0  0  0
  5 10  2  0  0  0  0
  8 11  1  0  0  0  0
  2  5  1  0  0  0  0
  3 20  1  1  0  0  0
  4 21  1  0  0  0  0
M  END
>  <cdx:fragmentId>
17844

$$$$
