941763.cdx
  Mrv1902 05222410212D          

 51 59  0  0  0  0            999 V2000
   11.0154   -9.3586    0.0000 H   0  0  0  0  0  0  0  0  0  0  0  0
   10.3077   -9.7076    0.0000 H   0  0  0  0  0  0  0  0  0  0  0  0
    7.1645   -6.9615    0.0000 C   0  0  0  0  0  0  0  0  0  0  0  0
    6.4533   -7.3797    0.0000 C   0  0  0  0  0  0  0  0  0  0  0  0
    7.1579   -6.1366    0.0000 O   0  0  0  0  0  0  0  0  0  0  0  0
    7.8822   -7.3684    0.0000 O   0  0  0  0  0  0  0  0  0  0  0  0
    7.1841   -9.4365    0.0000 C   0  0  2  0  0  0  0  0  0  0  0  0
    7.1776   -8.6115    0.0000 C   0  0  0  0  0  0  0  0  0  0  0  0
    7.8887   -8.1933    0.0000 C   0  0  2  0  0  0  0  0  0  0  0  0
    8.6065   -8.6002    0.0000 C   0  0  2  0  0  0  0  0  0  0  0  0
    9.3890   -8.3390    0.0000 C   0  0  1  0  0  0  0  0  0  0  0  0
    9.7186   -7.5827    0.0000 C   0  0  1  0  0  0  0  0  0  0  0  0
   10.5384   -7.4900    0.0000 C   0  0  0  0  0  0  0  0  0  0  0  0
   10.6990   -8.9099    0.0000 O   0  0  0  0  0  0  0  0  0  0  0  0
    9.8792   -9.0026    0.0000 C   0  0  1  0  0  0  0  0  0  0  0  0
    9.3996   -9.6739    0.0000 C   0  0  0  0  0  0  0  0  0  0  0  0
    8.6130   -9.4251    0.0000 C   0  0  1  0  0  0  0  0  0  0  0  0
    7.9018   -9.8433    0.0000 C   0  0  0  0  0  0  0  0  0  0  0  0
    7.9084  -10.6683    0.0000 C   0  0  0  0  0  0  0  0  0  0  0  0
    7.1972  -11.0864    0.0000 C   0  0  0  0  0  0  0  0  0  0  0  0
    6.4795  -10.6796    0.0000 C   0  0  1  0  0  0  0  0  0  0  0  0
    5.7683  -11.0977    0.0000 C   0  0  0  0  0  0  0  0  0  0  0  0
    5.0506  -10.6909    0.0000 C   0  0  2  0  0  0  0  0  0  0  0  0
    5.0440   -9.8659    0.0000 C   0  0  0  0  0  0  0  0  0  0  0  0
    5.7552   -9.4478    0.0000 C   0  0  0  0  0  0  0  0  0  0  0  0
    6.4729   -9.8546    0.0000 C   0  0  2  0  0  0  0  0  0  0  0  0
    6.4664   -9.0296    0.0000 C   0  0  0  0  0  0  0  0  0  0  0  0
    6.1864  -11.8089    0.0000 C   0  0  0  0  0  0  0  0  0  0  0  0
    5.3615  -11.8155    0.0000 C   0  0  0  0  0  0  0  0  0  0  0  0
    8.6195  -10.2501    0.0000 C   0  0  0  0  0  0  0  0  0  0  0  0
    9.2284   -6.9191    0.0000 C   0  0  0  0  0  0  0  0  0  0  0  0
    8.5879   -7.7754    0.0000 C   0  0  0  0  0  0  0  0  0  0  0  0
    8.9463   -7.6429    0.0000 H   0  0  0  0  0  0  0  0  0  0  0  0
    6.4860  -11.5046    0.0000 H   0  0  0  0  0  0  0  0  0  0  0  0
   13.1614   -8.4142    0.0000 C   0  0  0  0  0  0  0  0  0  0  0  0
   12.2567   -9.2419    0.0000 O   0  0  0  0  0  0  0  0  0  0  0  0
   11.5855   -8.7622    0.0000 C   0  0  1  0  0  0  0  0  0  0  0  0
   11.0286   -8.1535    0.0000 C   0  0  2  0  0  0  0  0  0  0  0  0
   11.4354   -7.4358    0.0000 O   0  0  0  0  0  0  0  0  0  0  0  0
   12.2437   -7.6009    0.0000 C   0  0  0  0  0  0  0  0  0  0  0  0
   12.3364   -8.4207    0.0000 C   0  0  2  0  0  0  0  0  0  0  0  0
    2.9146  -11.9411    0.0000 O   0  0  0  0  0  0  0  0  0  0  0  0
    1.4815  -11.1232    0.0000 O   0  0  0  0  0  0  0  0  0  0  0  0
    1.4734   -9.4733    0.0000 O   0  0  0  0  0  0  0  0  0  0  0  0
    2.9023   -9.4662    0.0000 C   0  0  0  0  0  0  0  0  0  0  0  0
    2.1899   -9.8822    0.0000 C   0  0  2  0  0  0  0  0  0  0  0  0
    2.1940  -10.7072    0.0000 C   0  0  1  0  0  0  0  0  0  0  0  0
    2.9105  -11.1162    0.0000 C   0  0  2  0  0  0  0  0  0  0  0  0
    3.6229  -10.7001    0.0000 C   0  0  1  0  0  0  0  0  0  0  0  0
    3.6188   -9.8751    0.0000 O   0  0  0  0  0  0  0  0  0  0  0  0
    4.3394  -11.1091    0.0000 O   0  0  0  0  0  0  0  0  0  0  0  0
 37  1  1  6  0  0  0
 15  2  1  6  0  0  0
 41 35  1  6  0  0  0
 41 37  1  0  0  0  0
 41 36  1  0  0  0  0
 37 36  1  0  0  0  0
 38 37  1  0  0  0  0
 38 39  1  6  0  0  0
 40 39  1  0  0  0  0
 49 51  1  1  0  0  0
 48 42  1  6  0  0  0
 47 43  1  1  0  0  0
 46 44  1  6  0  0  0
 50 45  1  0  0  0  0
 46 45  1  0  0  0  0
 47 46  1  0  0  0  0
 48 47  1  0  0  0  0
 49 48  1  0  0  0  0
 50 49  1  0  0  0  0
  3  4  1  0  0  0  0
  3  5  2  0  0  0  0
  3  6  1  0  0  0  0
 41 40  1  0  0  0  0
  7  8  1  0  0  0  0
  8  9  1  0  0  0  0
  9 10  1  0  0  0  0
 10 11  1  0  0  0  0
 11 12  1  0  0  0  0
 12 13  1  0  0  0  0
 14 15  1  0  0  0  0
 15 16  1  0  0  0  0
 16 17  1  0  0  0  0
 17 18  1  0  0  0  0
 18 19  2  0  0  0  0
 19 20  1  0  0  0  0
 20 21  1  0  0  0  0
 21 22  1  0  0  0  0
 22 23  1  0  0  0  0
 23 24  1  0  0  0  0
 24 25  1  0  0  0  0
 25 26  1  0  0  0  0
 26 27  1  1  0  0  0
  7 27  1  1  0  0  0
  7 18  1  0  0  0  0
 21 26  1  0  0  0  0
  7 26  1  0  0  0  0
 10 17  1  0  0  0  0
 11 15  1  0  0  0  0
 13 38  1  0  0  0  0
 14 38  1  0  0  0  0
 22 28  1  0  0  0  0
 22 29  1  0  0  0  0
 17 30  1  6  0  0  0
 12 31  1  6  0  0  0
 10 32  1  1  0  0  0
 23 51  1  1  0  0  0
  9  6  1  1  0  0  0
 11 33  1  6  0  0  0
 21 34  1  6  0  0  0
M  END
>  <cdx:fragmentId>
39

$$$$
