94178.cdx
  Mrv1902 05222410212D          

 11 11  0  0  0  0            999 V2000
    7.2475   -4.7558    0.0000 O   0  0  0  0  0  0  0  0  0  0  0  0
    7.6600   -7.9452    0.0000 C   0  0  0  0  0  0  0  0  0  0  0  0
    8.0725   -7.2308    0.0000 C   0  0  0  0  0  0  0  0  0  0  0  0
    6.5331   -5.1683    0.0000 C   0  0  0  0  0  0  0  0  0  0  0  0
    5.1041   -5.9933    0.0000 C   0  0  0  0  0  0  0  0  0  0  0  0
    5.8186   -6.4058    0.0000 C   0  0  0  0  0  0  0  0  0  0  0  0
    5.8186   -7.2308    0.0000 C   0  0  0  0  0  0  0  0  0  0  0  0
    6.5331   -7.6433    0.0000 C   0  0  0  0  0  0  0  0  0  0  0  0
    7.2475   -7.2308    0.0000 C   0  0  0  0  0  0  0  0  0  0  0  0
    7.2475   -6.4058    0.0000 C   0  0  0  0  0  0  0  0  0  0  0  0
    6.5331   -5.9933    0.0000 C   0  0  0  0  0  0  0  0  0  0  0  0
  4  1  2  0  0  0  0
  9  2  1  0  0  0  0
  9  3  1  0  0  0  0
 11  4  1  0  0  0  0
  6  5  2  0  0  0  0
  6 11  1  0  0  0  0
  7  6  1  0  0  0  0
  8  7  2  0  0  0  0
  9  8  1  0  0  0  0
 10  9  1  0  0  0  0
 11 10  1  0  0  0  0
M  END
>  <cdx:fragmentId>
40

$$$$
