94171.cdx
  Mrv1902 05222410242D          

 25 25  0  0  0  0            999 V2000
    3.3806   -8.3600    0.0000 C   0  0  0  0  0  0  0  0  0  0  0  0
    3.3806   -9.1850    0.0000 C   0  0  0  0  0  0  0  0  0  0  0  0
    4.0950   -9.5975    0.0000 C   0  0  0  0  0  0  0  0  0  0  0  0
    4.8095   -9.1850    0.0000 C   0  0  0  0  0  0  0  0  0  0  0  0
    4.8095   -8.3600    0.0000 C   0  0  0  0  0  0  0  0  0  0  0  0
    4.0950   -7.9475    0.0000 C   0  0  0  0  0  0  0  0  0  0  0  0
    2.6661   -7.9475    0.0000 O   0  0  0  0  0  0  0  0  0  0  0  0
    1.9516   -8.3600    0.0000 C   0  0  0  0  0  0  0  0  0  0  0  0
    2.6661   -9.5975    0.0000 O   0  0  0  0  0  0  0  0  0  0  0  0
    1.9516   -9.1850    0.0000 C   0  0  0  0  0  0  0  0  0  0  0  0
    5.5240   -7.9475    0.0000 C   0  0  0  0  0  0  0  0  0  0  0  0
    6.2384   -8.3600    0.0000 C   0  0  0  0  0  0  0  0  0  0  0  0
    6.9529   -7.9475    0.0000 C   0  0  0  0  0  0  0  0  0  0  0  0
    7.6674   -8.3600    0.0000 C   0  0  0  0  0  0  0  0  0  0  0  0
    6.9529   -7.1225    0.0000 O   0  0  0  0  0  0  0  0  0  0  0  0
    6.2384   -6.7100    0.0000 C   0  0  0  0  0  0  0  0  0  0  0  0
    8.3819   -7.9475    0.0000 C   0  0  0  0  0  0  0  0  0  0  0  0
    9.0963   -8.3600    0.0000 C   0  0  0  0  0  0  0  0  0  0  0  0
    8.3819   -7.1225    0.0000 O   0  0  0  0  0  0  0  0  0  0  0  0
    9.8108   -7.9475    0.0000 C   0  0  0  0  0  0  0  0  0  0  0  0
   10.5253   -8.3600    0.0000 C   0  0  0  0  0  0  0  0  0  0  0  0
   11.2397   -7.9475    0.0000 C   0  0  0  0  0  0  0  0  0  0  0  0
   11.9542   -8.3600    0.0000 C   0  0  0  0  0  0  0  0  0  0  0  0
    6.2384   -5.8850    0.0000 O   0  0  0  0  0  0  0  0  0  0  0  0
    5.5240   -7.1225    0.0000 C   0  0  0  0  0  0  0  0  0  0  0  0
  1  2  2  0  0  0  0
  2  3  1  0  0  0  0
  3  4  2  0  0  0  0
  4  5  1  0  0  0  0
  5  6  2  0  0  0  0
  6  1  1  0  0  0  0
  1  7  1  0  0  0  0
  7  8  1  0  0  0  0
  2  9  1  0  0  0  0
  9 10  1  0  0  0  0
  5 11  1  0  0  0  0
 11 12  1  0  0  0  0
 12 13  1  0  0  0  0
 13 14  1  0  0  0  0
 13 15  1  0  0  0  0
 15 16  1  0  0  0  0
 14 17  1  0  0  0  0
 17 18  1  0  0  0  0
 17 19  1  0  0  0  0
 18 20  1  0  0  0  0
 20 21  1  0  0  0  0
 21 22  1  0  0  0  0
 22 23  1  0  0  0  0
 16 24  2  0  0  0  0
 16 25  1  0  0  0  0
M  END
>  <cdx:fragmentId>
5

$$$$
