94177.cdx
  Mrv1902 05222410252D          

 21 23  0  0  0  0            999 V2000
    4.5218   -6.9575    0.0000 C   0  0  0  0  0  0  0  0  0  0  0  0
    4.5218   -7.7825    0.0000 C   0  0  0  0  0  0  0  0  0  0  0  0
    5.2363   -8.1950    0.0000 C   0  0  0  0  0  0  0  0  0  0  0  0
    5.9507   -7.7825    0.0000 C   0  0  0  0  0  0  0  0  0  0  0  0
    5.9507   -6.9575    0.0000 C   0  0  0  0  0  0  0  0  0  0  0  0
    5.2363   -6.5450    0.0000 C   0  0  0  0  0  0  0  0  0  0  0  0
    6.6652   -8.1950    0.0000 C   0  0  0  0  0  0  0  0  0  0  0  0
    7.3797   -7.7825    0.0000 C   0  0  0  0  0  0  0  0  0  0  0  0
    7.3797   -6.9575    0.0000 C   0  0  0  0  0  0  0  0  0  0  0  0
    6.6652   -6.5450    0.0000 C   0  0  0  0  0  0  0  0  0  0  0  0
    8.0942   -8.1950    0.0000 C   0  0  0  0  0  0  0  0  0  0  0  0
    8.8086   -7.7825    0.0000 C   0  0  0  0  0  0  0  0  0  0  0  0
    8.8086   -6.9575    0.0000 C   0  0  0  0  0  0  0  0  0  0  0  0
    8.0942   -6.5450    0.0000 C   0  0  0  0  0  0  0  0  0  0  0  0
    5.2363   -5.7200    0.0000 O   0  0  0  0  0  0  0  0  0  0  0  0
    3.8073   -8.1950    0.0000 C   0  0  0  0  0  0  0  0  0  0  0  0
    3.0929   -7.7825    0.0000 O   0  0  0  0  0  0  0  0  0  0  0  0
    6.6652   -5.7200    0.0000 O   0  0  0  0  0  0  0  0  0  0  0  0
    6.6652   -9.0200    0.0000 O   0  0  0  0  0  0  0  0  0  0  0  0
    8.0942   -5.7200    0.0000 O   0  0  0  0  0  0  0  0  0  0  0  0
    9.5231   -8.1950    0.0000 O   0  0  0  0  0  0  0  0  0  0  0  0
  1  2  1  0  0  0  0
  2  3  2  0  0  0  0
  3  4  1  0  0  0  0
  4  5  2  0  0  0  0
  5  6  1  0  0  0  0
  6  1  2  0  0  0  0
  4  7  1  0  0  0  0
  7  8  1  0  0  0  0
  8  9  2  0  0  0  0
  9 10  1  0  0  0  0
 10  5  1  0  0  0  0
  8 11  1  0  0  0  0
 11 12  2  0  0  0  0
 12 13  1  0  0  0  0
 13 14  2  0  0  0  0
 14  9  1  0  0  0  0
  6 15  1  0  0  0  0
  2 16  1  0  0  0  0
 16 17  1  0  0  0  0
 10 18  2  0  0  0  0
  7 19  2  0  0  0  0
 14 20  1  0  0  0  0
 12 21  1  0  0  0  0
M  END
>  <cdx:fragmentId>
5

$$$$
