94176.cdx
  Mrv1902 05222410252D          

 22 25  0  0  0  0            999 V2000
    4.3843   -7.9750    0.0000 C   0  0  0  0  0  0  0  0  0  0  0  0
    4.3843   -8.8000    0.0000 C   0  0  0  0  0  0  0  0  0  0  0  0
    5.0988   -9.2125    0.0000 C   0  0  0  0  0  0  0  0  0  0  0  0
    5.8132   -8.8000    0.0000 C   0  0  0  0  0  0  0  0  0  0  0  0
    5.8132   -7.9750    0.0000 C   0  0  0  0  0  0  0  0  0  0  0  0
    5.0988   -7.5625    0.0000 C   0  0  0  0  0  0  0  0  0  0  0  0
    6.5277   -9.2125    0.0000 C   0  0  0  0  0  0  0  0  0  0  0  0
    7.2422   -8.8000    0.0000 C   0  0  0  0  0  0  0  0  0  0  0  0
    7.2422   -7.9750    0.0000 C   0  0  0  0  0  0  0  0  0  0  0  0
    6.5277   -7.5625    0.0000 C   0  0  0  0  0  0  0  0  0  0  0  0
    7.9567   -7.5625    0.0000 C   0  0  0  0  0  0  0  0  0  0  0  0
    7.9567   -6.7375    0.0000 C   0  0  0  0  0  0  0  0  0  0  0  0
    7.2422   -6.3250    0.0000 C   0  0  0  0  0  0  0  0  0  0  0  0
    6.5277   -6.7375    0.0000 C   0  0  0  0  0  0  0  0  0  0  0  0
    7.2422   -5.5000    0.0000 O   0  0  0  0  0  0  0  0  0  0  0  0
    5.8132   -6.3250    0.0000 O   0  0  0  0  0  0  0  0  0  0  0  0
    4.6863   -9.9270    0.0000 C   0  0  0  0  0  0  0  0  0  0  0  0
    5.5113   -9.9270    0.0000 C   0  0  0  0  0  0  0  0  0  0  0  0
    8.7413   -7.8174    0.0000 O   0  0  0  0  0  0  0  0  0  0  0  0
    9.2262   -7.1500    0.0000 C   0  0  0  0  0  0  0  0  0  0  0  0
    8.7413   -6.4826    0.0000 C   0  0  0  0  0  0  0  0  0  0  0  0
    8.9962   -5.6979    0.0000 C   0  0  0  0  0  0  0  0  0  0  0  0
  1  2  2  0  0  0  0
  2  3  1  0  0  0  0
  3  4  1  0  0  0  0
  4  5  2  0  0  0  0
  5  6  1  0  0  0  0
  6  1  1  0  0  0  0
  4  7  1  0  0  0  0
  7  8  2  0  0  0  0
  8  9  1  0  0  0  0
  9 10  2  0  0  0  0
 10  5  1  0  0  0  0
  9 11  1  0  0  0  0
 11 12  2  0  0  0  0
 12 13  1  0  0  0  0
 13 14  1  0  0  0  0
 14 10  1  0  0  0  0
 13 15  2  0  0  0  0
 16 14  2  0  0  0  0
  3 17  1  0  0  0  0
  3 18  1  0  0  0  0
 11 19  1  0  0  0  0
 19 20  1  0  0  0  0
 20 21  2  0  0  0  0
 21 12  1  0  0  0  0
 21 22  1  0  0  0  0
M  END
>  <cdx:fragmentId>
5

$$$$
