94182.cdx
  Mrv1902 05222410222D          

 38 41  0  0  0  0            999 V2000
   10.2413   -5.5731    0.0000 C   0  0  0  0  0  0  0  0  0  0  0  0
    9.9863   -6.3577    0.0000 C   0  0  0  0  0  0  0  0  0  0  0  0
    9.1793   -6.5292    0.0000 C   0  0  0  0  0  0  0  0  0  0  0  0
    8.9244   -7.3138    0.0000 C   0  0  0  0  0  0  0  0  0  0  0  0
    8.1174   -7.4854    0.0000 C   0  0  1  0  0  0  0  0  0  0  0  0
    7.5654   -6.8723    0.0000 C   0  0  0  0  0  0  0  0  0  0  0  0
   11.3032   -4.6169    0.0000 O   0  0  0  0  0  0  0  0  0  0  0  0
    9.6892   -4.9600    0.0000 C   0  0  0  0  0  0  0  0  0  0  0  0
    4.2200   -9.3499    0.0000 C   0  0  0  0  0  0  0  0  0  0  0  0
    3.5055   -9.7624    0.0000 C   0  0  0  0  0  0  0  0  0  0  0  0
    3.5055  -10.5874    0.0000 C   0  0  1  0  0  0  0  0  0  0  0  0
    4.2200  -10.9999    0.0000 C   0  0  0  0  0  0  0  0  0  0  0  0
    4.9345  -10.5874    0.0000 C   0  0  2  0  0  0  0  0  0  0  0  0
    5.6489  -10.9999    0.0000 C   0  0  0  0  0  0  0  0  0  0  0  0
    6.3634  -10.5874    0.0000 C   0  0  1  0  0  0  0  0  0  0  0  0
    6.3634   -9.7624    0.0000 C   0  0  0  0  0  0  0  0  0  0  0  0
    7.0779   -9.3499    0.0000 C   0  0  2  0  0  0  0  0  0  0  0  0
    7.8625   -9.6049    0.0000 C   0  0  0  0  0  0  0  0  0  0  0  0
    8.3474   -8.9374    0.0000 C   0  0  0  0  0  0  0  0  0  0  0  0
    7.8625   -8.2700    0.0000 C   0  0  1  0  0  0  0  0  0  0  0  0
    7.0779   -8.5249    0.0000 C   0  0  1  0  0  0  0  0  0  0  0  0
    6.3634   -8.1124    0.0000 C   0  0  0  0  0  0  0  0  0  0  0  0
    5.6489   -8.5249    0.0000 C   0  0  0  0  0  0  0  0  0  0  0  0
    5.6489   -9.3499    0.0000 C   0  0  0  0  0  0  0  0  0  0  0  0
    4.9345   -9.7624    0.0000 C   0  0  1  0  0  0  0  0  0  0  0  0
    8.1174  -10.3895    0.0000 O   0  0  0  0  0  0  0  0  0  0  0  0
    4.9345   -8.1124    0.0000 O   0  0  0  0  0  0  0  0  0  0  0  0
    7.0779  -10.1749    0.0000 C   0  0  0  0  0  0  0  0  0  0  0  0
    7.0779   -7.6999    0.0000 C   0  0  0  0  0  0  0  0  0  0  0  0
    4.9345   -8.9374    0.0000 C   0  0  0  0  0  0  0  0  0  0  0  0
    4.6325  -11.7144    0.0000 C   0  0  0  0  0  0  0  0  0  0  0  0
    3.8075  -11.7144    0.0000 C   0  0  0  0  0  0  0  0  0  0  0  0
    7.0779  -10.9999    0.0000 O   0  0  0  0  0  0  0  0  0  0  0  0
    2.7910  -10.9999    0.0000 O   0  0  0  0  0  0  0  0  0  0  0  0
    4.9345  -11.4124    0.0000 H   0  0  0  0  0  0  0  0  0  0  0  0
   11.6003   -6.0146    0.0000 O   0  0  0  0  0  0  0  0  0  0  0  0
   11.0482   -5.4015    0.0000 C   0  0  0  0  0  0  0  0  0  0  0  0
    8.6773   -8.1409    0.0000 H   0  0  0  0  0  0  0  0  0  0  0  0
 37  7  1  0  0  0  0
 37 36  2  0  0  0  0
 37  1  1  0  0  0  0
  1  2  2  0  0  0  0
  2  3  1  0  0  0  0
  3  4  1  0  0  0  0
  4  5  1  0  0  0  0
  5  6  1  6  0  0  0
  1  8  1  0  0  0  0
  9 10  1  0  0  0  0
 10 11  1  0  0  0  0
 11 12  1  0  0  0  0
 12 13  1  0  0  0  0
 13 14  1  0  0  0  0
 14 15  1  0  0  0  0
 15 16  1  0  0  0  0
 16 17  1  0  0  0  0
 17 18  1  0  0  0  0
 18 19  1  0  0  0  0
 20 19  1  0  0  0  0
 20 21  1  0  0  0  0
 17 21  1  0  0  0  0
 21 22  1  0  0  0  0
 22 23  1  0  0  0  0
 23 24  1  0  0  0  0
 16 24  2  0  0  0  0
 24 25  1  0  0  0  0
 13 25  1  0  0  0  0
  9 25  1  0  0  0  0
 18 26  2  0  0  0  0
 23 27  2  0  0  0  0
 17 28  1  6  0  0  0
 21 29  1  1  0  0  0
 25 30  1  1  0  0  0
 12 31  1  0  0  0  0
 12 32  1  0  0  0  0
 15 33  1  1  0  0  0
 11 34  1  1  0  0  0
  5 20  1  0  0  0  0
 13 35  1  6  0  0  0
 20 38  1  6  0  0  0
M  END
>  <cdx:fragmentId>
25

$$$$
