9418.cdx
  Mrv1902 05222410202D          

 34 37  0  0  0  0            999 V2000
    5.0418   -7.1317    0.0000 C   0  0  0  0  0  0  0  0  0  0  0  0
    4.3273   -7.5442    0.0000 C   0  0  0  0  0  0  0  0  0  0  0  0
    4.3273   -8.3692    0.0000 C   0  0  1  0  0  0  0  0  0  0  0  0
    5.0418   -8.7817    0.0000 C   0  0  0  0  0  0  0  0  0  0  0  0
    5.7563   -8.3692    0.0000 C   0  0  2  0  0  0  0  0  0  0  0  0
    6.4707   -8.7817    0.0000 C   0  0  0  0  0  0  0  0  0  0  0  0
    7.1852   -8.3692    0.0000 C   0  0  0  0  0  0  0  0  0  0  0  0
    7.1852   -7.5442    0.0000 C   0  0  0  0  0  0  0  0  0  0  0  0
    7.8997   -7.1317    0.0000 C   0  0  2  0  0  0  0  0  0  0  0  0
    8.6843   -7.3866    0.0000 C   0  0  0  0  0  0  0  0  0  0  0  0
    9.1692   -6.7192    0.0000 C   0  0  0  0  0  0  0  0  0  0  0  0
    8.6843   -6.0517    0.0000 C   0  0  1  0  0  0  0  0  0  0  0  0
    7.8997   -6.3067    0.0000 C   0  0  1  0  0  0  0  0  0  0  0  0
    7.1852   -5.8942    0.0000 C   0  0  0  0  0  0  0  0  0  0  0  0
    6.4707   -6.3067    0.0000 C   0  0  0  0  0  0  0  0  0  0  0  0
    6.4707   -7.1317    0.0000 C   0  0  2  0  0  0  0  0  0  0  0  0
    5.7563   -7.5442    0.0000 C   0  0  1  0  0  0  0  0  0  0  0  0
    3.6129   -8.7817    0.0000 O   0  0  0  0  0  0  0  0  0  0  0  0
    8.3872   -4.6540    0.0000 C   0  0  0  0  0  0  0  0  0  0  0  0
    8.9392   -5.2671    0.0000 C   0  0  2  0  0  0  0  0  0  0  0  0
    9.7462   -5.0956    0.0000 C   0  0  0  0  0  0  0  0  0  0  0  0
   10.0012   -4.3110    0.0000 C   0  0  0  0  0  0  0  0  0  0  0  0
   10.5110   -2.7417    0.0000 C   0  0  0  0  0  0  0  0  0  0  0  0
    7.8997   -5.4817    0.0000 C   0  0  0  0  0  0  0  0  0  0  0  0
    5.7563   -6.7192    0.0000 C   0  0  0  0  0  0  0  0  0  0  0  0
    5.7563   -9.1942    0.0000 H   0  0  0  0  0  0  0  0  0  0  0  0
    6.4707   -7.9567    0.0000 H   0  0  0  0  0  0  0  0  0  0  0  0
    7.8997   -7.9567    0.0000 H   0  0  0  0  0  0  0  0  0  0  0  0
   11.0631   -3.3548    0.0000 C   0  0  0  0  0  0  0  0  0  0  0  0
   11.8700   -3.1833    0.0000 C   0  0  0  0  0  0  0  0  0  0  0  0
   12.1671   -4.5810    0.0000 C   0  0  0  0  0  0  0  0  0  0  0  0
   11.3602   -4.7525    0.0000 C   0  0  0  0  0  0  0  0  0  0  0  0
   10.8081   -4.1394    0.0000 C   0  0  0  0  0  0  0  0  0  0  0  0
    9.4689   -5.7968    0.0000 H   0  0  0  0  0  0  0  0  0  0  0  0
 33 29  1  0  0  0  0
 29 23  1  0  0  0  0
 30 29  1  0  0  0  0
 32 31  1  0  0  0  0
 33 32  2  0  0  0  0
  1  2  1  0  0  0  0
  2  3  1  0  0  0  0
  3  4  1  0  0  0  0
  4  5  1  0  0  0  0
  5  6  1  0  0  0  0
  6  7  1  0  0  0  0
  7  8  2  0  0  0  0
  8  9  1  0  0  0  0
  9 10  1  0  0  0  0
 10 11  1  0  0  0  0
 12 11  1  0  0  0  0
 12 13  1  0  0  0  0
  9 13  1  0  0  0  0
 13 14  1  0  0  0  0
 14 15  1  0  0  0  0
 15 16  1  0  0  0  0
  8 16  1  0  0  0  0
 16 17  1  0  0  0  0
  5 17  1  0  0  0  0
  1 17  1  0  0  0  0
  3 18  1  1  0  0  0
 20 19  1  6  0  0  0
 20 21  1  0  0  0  0
 21 22  1  0  0  0  0
 22 33  1  0  0  0  0
 12 20  1  0  0  0  0
 13 24  1  1  0  0  0
 17 25  1  1  0  0  0
  5 26  1  6  0  0  0
 16 27  1  6  0  0  0
  9 28  1  6  0  0  0
 12 34  1  6  0  0  0
M  END
>  <cdx:fragmentId>
27691

$$$$
