94187.cdx
  Mrv1902 05222410212D          

 24 24  0  0  0  0            999 V2000
    1.9093   -7.0263    0.0000 C   0  0  0  0  0  0  0  0  0  0  0  0
    1.9093   -7.8513    0.0000 C   0  0  0  0  0  0  0  0  0  0  0  0
    2.6238   -8.2637    0.0000 C   0  0  0  0  0  0  0  0  0  0  0  0
    3.3382   -7.8513    0.0000 C   0  0  0  0  0  0  0  0  0  0  0  0
    3.3382   -7.0263    0.0000 C   0  0  0  0  0  0  0  0  0  0  0  0
    2.6238   -6.6137    0.0000 C   0  0  0  0  0  0  0  0  0  0  0  0
    2.6238   -9.0887    0.0000 O   0  0  0  0  0  0  0  0  0  0  0  0
    2.6238   -5.7888    0.0000 O   0  0  0  0  0  0  0  0  0  0  0  0
    1.1948   -6.6137    0.0000 O   0  0  0  0  0  0  0  0  0  0  0  0
    4.0527   -6.6137    0.0000 C   0  0  0  0  0  0  0  0  0  0  0  0
    0.4804   -7.0263    0.0000 C   0  0  0  0  0  0  0  0  0  0  0  0
    4.7672   -7.0262    0.0000 C   0  0  0  0  0  0  0  0  0  0  0  0
    5.4817   -6.6137    0.0000 C   0  0  0  0  0  0  0  0  0  0  0  0
    6.1961   -7.0262    0.0000 C   0  0  0  0  0  0  0  0  0  0  0  0
    6.9106   -6.6137    0.0000 C   0  0  0  0  0  0  0  0  0  0  0  0
    7.6251   -7.0262    0.0000 C   0  0  0  0  0  0  0  0  0  0  0  0
    8.3395   -6.6137    0.0000 C   0  0  0  0  0  0  0  0  0  0  0  0
    4.0527   -8.2637    0.0000 O   0  0  0  0  0  0  0  0  0  0  0  0
    9.0540   -7.0262    0.0000 C   0  0  0  0  0  0  0  0  0  0  0  0
    9.7685   -6.6137    0.0000 C   0  0  0  0  0  0  0  0  0  0  0  0
   10.4830   -7.0262    0.0000 C   0  0  0  0  0  0  0  0  0  0  0  0
   11.1974   -6.6137    0.0000 C   0  0  0  0  0  0  0  0  0  0  0  0
   11.9119   -7.0262    0.0000 C   0  0  0  0  0  0  0  0  0  0  0  0
   12.6264   -6.6137    0.0000 C   0  0  0  0  0  0  0  0  0  0  0  0
  1  2  2  0  0  0  0
  2  3  1  0  0  0  0
  3  4  1  0  0  0  0
  4  5  2  0  0  0  0
  5  6  1  0  0  0  0
  6  1  1  0  0  0  0
  3  7  2  0  0  0  0
  6  8  2  0  0  0  0
  1  9  1  0  0  0  0
  5 10  1  0  0  0  0
  9 11  1  0  0  0  0
 10 12  1  0  0  0  0
 12 13  1  0  0  0  0
 13 14  1  0  0  0  0
 14 15  1  0  0  0  0
 15 16  1  0  0  0  0
 16 17  1  0  0  0  0
  4 18  1  0  0  0  0
 17 19  1  0  0  0  0
 19 20  2  0  0  0  0
 20 21  1  0  0  0  0
 21 22  1  0  0  0  0
 22 23  1  0  0  0  0
 23 24  1  0  0  0  0
M  END
>  <cdx:fragmentId>
25

$$$$
