94180.cdx
  Mrv1902 05222410232D          

 27 31  0  0  0  0            999 V2000
    5.0856   -8.3462    0.0000 C   0  0  0  0  0  0  0  0  0  0  0  0
    5.0856   -9.1713    0.0000 C   0  0  0  0  0  0  0  0  0  0  0  0
    5.8000   -9.5838    0.0000 C   0  0  0  0  0  0  0  0  0  0  0  0
    6.5145   -9.1713    0.0000 C   0  0  0  0  0  0  0  0  0  0  0  0
    6.5145   -8.3462    0.0000 C   0  0  0  0  0  0  0  0  0  0  0  0
    5.8000   -7.9337    0.0000 C   0  0  0  0  0  0  0  0  0  0  0  0
    7.2290   -9.5838    0.0000 C   0  0  0  0  0  0  0  0  0  0  0  0
    7.9434   -9.1713    0.0000 N   0  0  0  0  0  0  0  0  0  0  0  0
    7.9434   -8.3462    0.0000 C   0  0  0  0  0  0  0  0  0  0  0  0
    7.2290   -7.9337    0.0000 C   0  0  0  0  0  0  0  0  0  0  0  0
    8.6579   -7.9337    0.0000 C   0  0  0  0  0  0  0  0  0  0  0  0
    8.6579   -7.1088    0.0000 C   0  0  0  0  0  0  0  0  0  0  0  0
    7.9434   -6.6962    0.0000 C   0  0  0  0  0  0  0  0  0  0  0  0
    7.2290   -7.1088    0.0000 C   0  0  0  0  0  0  0  0  0  0  0  0
    9.3724   -8.3462    0.0000 C   0  0  0  0  0  0  0  0  0  0  0  0
   10.0869   -7.9337    0.0000 C   0  0  0  0  0  0  0  0  0  0  0  0
   10.0869   -7.1088    0.0000 C   0  0  0  0  0  0  0  0  0  0  0  0
    9.3724   -6.6962    0.0000 C   0  0  0  0  0  0  0  0  0  0  0  0
   10.8715   -8.1887    0.0000 O   0  0  0  0  0  0  0  0  0  0  0  0
   11.3564   -7.5213    0.0000 C   0  0  0  0  0  0  0  0  0  0  0  0
   10.8715   -6.8538    0.0000 O   0  0  0  0  0  0  0  0  0  0  0  0
    4.3711   -9.5838    0.0000 O   0  0  0  0  0  0  0  0  0  0  0  0
    3.6566   -9.1713    0.0000 C   0  0  0  0  0  0  0  0  0  0  0  0
    5.8000  -10.4087    0.0000 O   0  0  0  0  0  0  0  0  0  0  0  0
    5.0856  -10.8212    0.0000 C   0  0  0  0  0  0  0  0  0  0  0  0
    7.2290  -10.4087    0.0000 O   0  0  0  0  0  0  0  0  0  0  0  0
    7.9434  -10.8212    0.0000 C   0  0  0  0  0  0  0  0  0  0  0  0
  1  2  1  0  0  0  0
  2  3  2  0  0  0  0
  3  4  1  0  0  0  0
  4  5  2  0  0  0  0
  5  6  1  0  0  0  0
  6  1  2  0  0  0  0
  4  7  1  0  0  0  0
  7  8  2  0  0  0  0
  8  9  1  0  0  0  0
  9 10  1  0  0  0  0
 10  5  1  0  0  0  0
  9 11  2  0  0  0  0
 11 12  1  0  0  0  0
 12 13  2  0  0  0  0
 13 14  1  0  0  0  0
 14 10  2  0  0  0  0
 11 15  1  0  0  0  0
 15 16  2  0  0  0  0
 16 17  1  0  0  0  0
 17 18  2  0  0  0  0
 18 12  1  0  0  0  0
 16 19  1  0  0  0  0
 19 20  1  0  0  0  0
 20 21  1  0  0  0  0
 21 17  1  0  0  0  0
  2 22  1  0  0  0  0
 22 23  1  0  0  0  0
  3 24  1  0  0  0  0
 24 25  1  0  0  0  0
  7 26  1  0  0  0  0
 26 27  1  0  0  0  0
M  END
>  <cdx:fragmentId>
5

$$$$
