94181.cdx
  Mrv1902 05222410222D          

 51 55  0  0  0  0            999 V2000
    5.9656   -7.3700    0.0000 C   0  0  0  0  0  0  0  0  0  0  0  0
    5.9656   -8.1950    0.0000 C   0  0  0  0  0  0  0  0  0  0  0  0
    6.6800   -8.6075    0.0000 C   0  0  0  0  0  0  0  0  0  0  0  0
    7.3945   -8.1950    0.0000 C   0  0  0  0  0  0  0  0  0  0  0  0
    7.3945   -7.3700    0.0000 C   0  0  0  0  0  0  0  0  0  0  0  0
    6.6800   -6.9575    0.0000 C   0  0  0  0  0  0  0  0  0  0  0  0
    8.1090   -8.6075    0.0000 C   0  0  0  0  0  0  0  0  0  0  0  0
    8.8234   -8.1950    0.0000 C   0  0  0  0  0  0  0  0  0  0  0  0
    8.8234   -7.3700    0.0000 C   0  0  0  0  0  0  0  0  0  0  0  0
    8.1090   -6.9575    0.0000 O   0  0  0  0  0  0  0  0  0  0  0  0
    9.5379   -8.6075    0.0000 O   0  0  0  0  0  0  0  0  0  0  0  0
   10.2524   -7.3700    0.0000 C   0  0  0  0  0  0  0  0  0  0  0  0
    9.5379   -6.9575    0.0000 C   0  0  0  0  0  0  0  0  0  0  0  0
   10.9669   -6.9575    0.0000 C   0  0  0  0  0  0  0  0  0  0  0  0
   10.9669   -6.1325    0.0000 C   0  0  0  0  0  0  0  0  0  0  0  0
   10.2524   -5.7200    0.0000 C   0  0  0  0  0  0  0  0  0  0  0  0
    9.5379   -6.1325    0.0000 C   0  0  0  0  0  0  0  0  0  0  0  0
    5.2511   -6.9575    0.0000 O   0  0  0  0  0  0  0  0  0  0  0  0
    6.6800   -6.1325    0.0000 C   0  0  0  0  0  0  0  0  0  0  0  0
    5.9656   -5.7200    0.0000 C   0  0  0  0  0  0  0  0  0  0  0  0
    5.9656   -4.8950    0.0000 C   0  0  0  0  0  0  0  0  0  0  0  0
    5.2511   -4.4825    0.0000 C   0  0  0  0  0  0  0  0  0  0  0  0
    6.6800   -4.4825    0.0000 C   0  0  0  0  0  0  0  0  0  0  0  0
   11.6813   -5.7200    0.0000 O   0  0  0  0  0  0  0  0  0  0  0  0
   12.3958   -6.1325    0.0000 C   0  0  0  0  0  0  0  0  0  0  0  0
    8.1090   -9.4325    0.0000 O   0  0  0  0  0  0  0  0  0  0  0  0
    6.6800   -9.4325    0.0000 O   0  0  0  0  0  0  0  0  0  0  0  0
    8.8256   -9.8312    0.0000 O   0  0  0  0  0  0  0  0  0  0  0  0
    8.8256  -10.6563    0.0000 C   0  0  2  0  0  0  0  0  0  0  0  0
    9.5400  -11.0688    0.0000 C   0  0  1  0  0  0  0  0  0  0  0  0
   10.2545  -10.6563    0.0000 C   0  0  2  0  0  0  0  0  0  0  0  0
   10.2545   -9.8312    0.0000 C   0  0  2  0  0  0  0  0  0  0  0  0
    9.5400   -9.4187    0.0000 C   0  0  2  0  0  0  0  0  0  0  0  0
    9.5400  -11.8938    0.0000 O   0  0  0  0  0  0  0  0  0  0  0  0
    8.1111  -11.0688    0.0000 C   0  0  0  0  0  0  0  0  0  0  0  0
   10.9690   -9.4187    0.0000 O   0  0  0  0  0  0  0  0  0  0  0  0
   10.9690  -11.0688    0.0000 O   0  0  0  0  0  0  0  0  0  0  0  0
    4.5366   -7.3700    0.0000 C   0  0  2  0  0  0  0  0  0  0  0  0
    3.8221   -6.9575    0.0000 O   0  0  0  0  0  0  0  0  0  0  0  0
    3.1077   -7.3700    0.0000 C   0  0  1  0  0  0  0  0  0  0  0  0
    3.1077   -8.1950    0.0000 C   0  0  2  0  0  0  0  0  0  0  0  0
    3.8221   -8.6075    0.0000 C   0  0  1  0  0  0  0  0  0  0  0  0
    4.5366   -8.1950    0.0000 C   0  0  1  0  0  0  0  0  0  0  0  0
    2.3932   -6.9575    0.0000 C   0  0  0  0  0  0  0  0  0  0  0  0
    3.8221   -9.4325    0.0000 O   0  0  0  0  0  0  0  0  0  0  0  0
    2.3932   -8.6075    0.0000 O   0  0  0  0  0  0  0  0  0  0  0  0
    5.2511   -8.6075    0.0000 O   0  0  0  0  0  0  0  0  0  0  0  0
    1.6787   -7.3700    0.0000 O   0  0  0  0  0  0  0  0  0  0  0  0
    5.9656   -9.8450    0.0000 O   0  0  0  0  0  0  0  0  0  0  0  0
    4.5366   -9.8450    0.0000 C   0  0  0  0  0  0  0  0  0  0  0  0
    5.2511   -9.4325    0.0000 C   0  0  0  0  0  0  0  0  0  0  0  0
  1  2  2  0  0  0  0
  2  3  1  0  0  0  0
  3  4  2  0  0  0  0
  4  5  1  0  0  0  0
  5  6  2  0  0  0  0
  6  1  1  0  0  0  0
  4  7  1  0  0  0  0
  7  8  1  0  0  0  0
  8  9  2  0  0  0  0
  9 10  1  0  0  0  0
 10  5  1  0  0  0  0
  8 11  1  0  0  0  0
 12 13  2  0  0  0  0
 13  9  1  0  0  0  0
 12 14  1  0  0  0  0
 14 15  2  0  0  0  0
 15 16  1  0  0  0  0
 16 17  2  0  0  0  0
 17 13  1  0  0  0  0
  1 18  1  0  0  0  0
  6 19  1  0  0  0  0
 19 20  1  0  0  0  0
 20 21  2  0  0  0  0
 21 22  1  0  0  0  0
 21 23  1  0  0  0  0
 15 24  1  0  0  0  0
 24 25  1  0  0  0  0
  7 26  2  0  0  0  0
  3 27  1  0  0  0  0
 28 29  1  0  0  0  0
 29 30  1  0  0  0  0
 30 31  1  0  0  0  0
 31 32  1  0  0  0  0
 32 33  1  0  0  0  0
 33 28  1  0  0  0  0
 30 34  1  1  0  0  0
 29 35  1  6  0  0  0
 32 36  1  6  0  0  0
 31 37  1  6  0  0  0
 33 11  1  1  0  0  0
 38 18  1  1  0  0  0
 38 39  1  0  0  0  0
 39 40  1  0  0  0  0
 40 41  1  0  0  0  0
 41 42  1  0  0  0  0
 42 43  1  0  0  0  0
 43 38  1  0  0  0  0
 40 44  1  1  0  0  0
 42 45  1  1  0  0  0
 41 46  1  6  0  0  0
 43 47  1  6  0  0  0
 44 48  1  0  0  0  0
 51 49  2  0  0  0  0
 47 51  1  0  0  0  0
 51 50  1  0  0  0  0
M  END
>  <cdx:fragmentId>
5

$$$$
