941987.cdx
  Mrv1902 05222410212D          

 41 44  0  0  0  0            999 V2000
    2.8715   -7.0565    0.0000 C   0  0  0  0  0  0  0  0  0  0  0  0
    2.8715   -7.8815    0.0000 C   0  0  0  0  0  0  0  0  0  0  0  0
    3.5860   -8.2940    0.0000 C   0  0  0  0  0  0  0  0  0  0  0  0
    4.3005   -7.8815    0.0000 C   0  0  1  0  0  0  0  0  0  0  0  0
    4.3005   -7.0565    0.0000 C   0  0  2  0  0  0  0  0  0  0  0  0
    3.5860   -6.6440    0.0000 C   0  0  0  0  0  0  0  0  0  0  0  0
    5.0149   -8.2940    0.0000 C   0  0  0  0  0  0  0  0  0  0  0  0
    5.7294   -7.8815    0.0000 C   0  0  0  0  0  0  0  0  0  0  0  0
    5.7294   -7.0565    0.0000 C   0  0  1  0  0  0  0  0  0  0  0  0
    5.0149   -6.6440    0.0000 C   0  0  1  0  0  0  0  0  0  0  0  0
    6.4439   -6.6440    0.0000 C   0  0  2  0  0  0  0  0  0  0  0  0
    6.4439   -5.8190    0.0000 C   0  0  0  0  0  0  0  0  0  0  0  0
    5.7294   -5.4065    0.0000 C   0  0  0  0  0  0  0  0  0  0  0  0
    5.0149   -5.8190    0.0000 C   0  0  0  0  0  0  0  0  0  0  0  0
    2.1571   -8.2940    0.0000 O   0  0  0  0  0  0  0  0  0  0  0  0
    4.3005   -8.7065    0.0000 H   0  0  0  0  0  0  0  0  0  0  0  0
    4.3005   -6.2315    0.0000 C   0  0  0  0  0  0  0  0  0  0  0  0
    5.0149   -7.4690    0.0000 H   0  0  0  0  0  0  0  0  0  0  0  0
    5.7294   -6.2315    0.0000 C   0  0  0  0  0  0  0  0  0  0  0  0
    7.1584   -5.4065    0.0000 O   0  0  0  0  0  0  0  0  0  0  0  0
    3.9985   -9.0085    0.0000 C   0  0  0  0  0  0  0  0  0  0  0  0
    3.1735   -9.0085    0.0000 C   0  0  0  0  0  0  0  0  0  0  0  0
    7.1584   -7.0565    0.0000 C   0  0  0  0  0  0  0  0  0  0  0  0
    7.8728   -6.6440    0.0000 C   0  0  0  0  0  0  0  0  0  0  0  0
    8.5873   -7.0565    0.0000 C   0  0  0  0  0  0  0  0  0  0  0  0
    9.3018   -6.6440    0.0000 C   0  0  1  0  0  0  0  0  0  0  0  0
    8.5873   -7.8815    0.0000 O   0  0  0  0  0  0  0  0  0  0  0  0
   10.0162   -7.0565    0.0000 C   0  0  0  0  0  0  0  0  0  0  0  0
    9.3018   -5.8190    0.0000 C   0  0  0  0  0  0  0  0  0  0  0  0
   10.7307   -6.6440    0.0000 C   0  0  1  0  0  0  0  0  0  0  0  0
   11.4452   -7.0565    0.0000 C   0  0  2  0  0  0  0  0  0  0  0  0
   10.7307   -5.8190    0.0000 O   0  0  0  0  0  0  0  0  0  0  0  0
   11.4452   -5.4065    0.0000 C   0  0  0  0  0  0  0  0  0  0  0  0
   11.4452   -4.5815    0.0000 O   0  0  0  0  0  0  0  0  0  0  0  0
   12.1597   -5.8190    0.0000 C   0  0  0  0  0  0  0  0  0  0  0  0
   12.1597   -6.6440    0.0000 C   0  0  0  0  0  0  0  0  0  0  0  0
   12.9565   -6.8575    0.0000 C   0  0  0  0  0  0  0  0  0  0  0  0
   12.7430   -6.0606    0.0000 C   0  0  0  0  0  0  0  0  0  0  0  0
   12.1550   -7.4525    0.0000 O   0  0  0  0  0  0  0  0  0  0  0  0
    6.4439   -7.4690    0.0000 C   0  0  0  0  0  0  0  0  0  0  0  0
   11.2317   -7.8534    0.0000 H   0  0  0  0  0  0  0  0  0  0  0  0
  1  2  1  0  0  0  0
  2  3  1  0  0  0  0
  3  4  1  0  0  0  0
  4  5  1  0  0  0  0
  5  6  1  0  0  0  0
  6  1  1  0  0  0  0
  4  7  1  0  0  0  0
  7  8  1  0  0  0  0
  8  9  1  0  0  0  0
  9 10  1  0  0  0  0
 10  5  1  0  0  0  0
  9 11  1  0  0  0  0
 11 12  1  0  0  0  0
 12 13  1  0  0  0  0
 13 14  2  0  0  0  0
 14 10  1  0  0  0  0
  2 15  2  0  0  0  0
  4 16  1  6  0  0  0
  5 17  1  1  0  0  0
 10 18  1  1  0  0  0
  9 19  1  6  0  0  0
 12 20  2  0  0  0  0
  3 21  1  0  0  0  0
  3 22  1  0  0  0  0
 11 23  1  0  0  0  0
 23 24  1  0  0  0  0
 24 25  1  0  0  0  0
 25 26  1  0  0  0  0
 25 27  2  0  0  0  0
 26 28  1  0  0  0  0
 26 29  1  6  0  0  0
 28 30  1  0  0  0  0
 30 31  1  0  0  0  0
 30 32  1  6  0  0  0
 32 33  1  0  0  0  0
 33 34  2  0  0  0  0
 33 35  1  0  0  0  0
 31 36  1  0  0  0  0
 36 37  1  0  0  0  0
 36 38  1  0  0  0  0
 36 39  1  0  0  0  0
 39 31  1  0  0  0  0
 11 40  1  1  0  0  0
 31 41  1  1  0  0  0
M  END
>  <cdx:fragmentId>
50716

$$$$
