94195.cdx
  Mrv1902 05222410222D          

 35 40  0  0  0  0            999 V2000
    1.9506   -7.5350    0.0000 C   0  0  0  0  0  0  0  0  0  0  0  0
    1.9506   -8.3600    0.0000 C   0  0  0  0  0  0  0  0  0  0  0  0
    2.6650   -8.7725    0.0000 C   0  0  0  0  0  0  0  0  0  0  0  0
    3.3795   -8.3600    0.0000 C   0  0  1  0  0  0  0  0  0  0  0  0
    3.3795   -7.5350    0.0000 C   0  0  1  0  0  0  0  0  0  0  0  0
    2.6650   -7.1225    0.0000 C   0  0  0  0  0  0  0  0  0  0  0  0
    4.1641   -8.6149    0.0000 C   0  0  0  0  0  0  0  0  0  0  0  0
    4.6490   -7.9475    0.0000 N   0  0  0  0  0  0  0  0  0  0  0  0
    4.1641   -7.2801    0.0000 C   0  0  0  0  0  0  0  0  0  0  0  0
    4.4191   -6.4954    0.0000 O   0  0  0  0  0  0  0  0  0  0  0  0
    4.4191   -9.3996    0.0000 O   0  0  0  0  0  0  0  0  0  0  0  0
    5.3635   -7.5350    0.0000 C   0  0  0  0  0  0  0  0  0  0  0  0
    6.0780   -7.9475    0.0000 C   0  0  0  0  0  0  0  0  0  0  0  0
    9.6244   -7.5900    0.0000 N   0  0  0  0  0  0  0  0  0  0  0  0
   10.1051   -8.2605    0.0000 C   0  0  0  0  0  0  0  0  0  0  0  0
   10.8913   -8.0106    0.0000 C   0  0  1  0  0  0  0  0  0  0  0  0
   10.8966   -7.1856    0.0000 C   0  0  1  0  0  0  0  0  0  0  0  0
   10.1136   -6.9257    0.0000 C   0  0  0  0  0  0  0  0  0  0  0  0
   11.6031   -8.4277    0.0000 C   0  0  0  0  0  0  0  0  0  0  0  0
   12.3202   -8.0106    0.0000 C   0  0  0  0  0  0  0  0  0  0  0  0
   12.3202   -7.1856    0.0000 C   0  0  0  0  0  0  0  0  0  0  0  0
   11.6031   -6.7686    0.0000 C   0  0  0  0  0  0  0  0  0  0  0  0
    9.8637   -6.1394    0.0000 O   0  0  0  0  0  0  0  0  0  0  0  0
    9.8451   -9.0435    0.0000 O   0  0  0  0  0  0  0  0  0  0  0  0
   11.8166   -7.5655    0.0000 O   0  0  0  0  0  0  0  0  0  0  0  0
    2.4515   -7.9194    0.0000 O   0  0  0  0  0  0  0  0  0  0  0  0
    3.3795   -6.7100    0.0000 C   0  0  0  0  0  0  0  0  0  0  0  0
    3.3795   -9.1850    0.0000 C   0  0  0  0  0  0  0  0  0  0  0  0
   10.8913   -8.8356    0.0000 C   0  0  0  0  0  0  0  0  0  0  0  0
   10.8966   -6.3606    0.0000 C   0  0  0  0  0  0  0  0  0  0  0  0
    6.7925   -7.5350    0.0000 C   0  0  0  0  0  0  0  0  0  0  0  0
    7.5069   -7.9475    0.0000 O   0  0  0  0  0  0  0  0  0  0  0  0
    6.7925   -6.7100    0.0000 O   0  0  0  0  0  0  0  0  0  0  0  0
    8.2214   -7.5350    0.0000 C   0  0  0  0  0  0  0  0  0  0  0  0
    8.9359   -7.9475    0.0000 C   0  0  0  0  0  0  0  0  0  0  0  0
  1  2  1  0  0  0  0
  2  3  1  0  0  0  0
  3  4  1  0  0  0  0
  4  5  1  0  0  0  0
  5  6  1  0  0  0  0
  6  1  1  0  0  0  0
  4  7  1  0  0  0  0
  7  8  1  0  0  0  0
  8  9  1  0  0  0  0
  9  5  1  0  0  0  0
  9 10  2  0  0  0  0
  7 11  2  0  0  0  0
  8 12  1  0  0  0  0
 12 13  1  0  0  0  0
 14 15  1  0  0  0  0
 15 16  1  0  0  0  0
 16 17  1  0  0  0  0
 17 18  1  0  0  0  0
 18 14  1  0  0  0  0
 16 19  1  0  0  0  0
 19 20  1  0  0  0  0
 20 21  1  0  0  0  0
 21 22  1  0  0  0  0
 22 17  1  0  0  0  0
 18 23  2  0  0  0  0
 15 24  2  0  0  0  0
 22 25  1  0  0  0  0
 25 19  1  0  0  0  0
  6 26  1  0  0  0  0
 26  3  1  0  0  0  0
  5 27  1  6  0  0  0
  4 28  1  6  0  0  0
 16 29  1  6  0  0  0
 17 30  1  6  0  0  0
 13 31  1  0  0  0  0
 31 32  1  0  0  0  0
 31 33  2  0  0  0  0
 32 34  1  0  0  0  0
 34 35  1  0  0  0  0
 35 14  1  0  0  0  0
M  END
>  <cdx:fragmentId>
5

$$$$
