94199.cdx
  Mrv1902 05222410232D          

 21 23  0  0  0  0            999 V2000
    1.8131   -7.4112    0.0000 C   0  0  0  0  0  0  0  0  0  0  0  0
    1.8131   -8.2363    0.0000 C   0  0  0  0  0  0  0  0  0  0  0  0
    2.5275   -8.6487    0.0000 C   0  0  1  0  0  0  0  0  0  0  0  0
    3.2420   -8.2363    0.0000 C   0  0  1  0  0  0  0  0  0  0  0  0
    3.2420   -7.4112    0.0000 C   0  0  1  0  0  0  0  0  0  0  0  0
    2.5275   -6.9988    0.0000 C   0  0  2  0  0  0  0  0  0  0  0  0
    4.0266   -8.4912    0.0000 C   0  0  0  0  0  0  0  0  0  0  0  0
    4.5115   -7.8237    0.0000 N   0  0  0  0  0  0  0  0  0  0  0  0
    4.0266   -7.1563    0.0000 C   0  0  0  0  0  0  0  0  0  0  0  0
    4.2816   -6.3717    0.0000 O   0  0  0  0  0  0  0  0  0  0  0  0
    4.2816   -9.2758    0.0000 O   0  0  0  0  0  0  0  0  0  0  0  0
    2.3140   -7.7956    0.0000 O   0  0  0  0  0  0  0  0  0  0  0  0
    3.2420   -6.5863    0.0000 C   0  0  0  0  0  0  0  0  0  0  0  0
    3.2420   -9.0613    0.0000 H   0  0  0  0  0  0  0  0  0  0  0  0
    5.2260   -7.4112    0.0000 C   0  0  0  0  0  0  0  0  0  0  0  0
    5.9405   -7.8237    0.0000 C   0  0  0  0  0  0  0  0  0  0  0  0
    6.6550   -7.4112    0.0000 C   0  0  0  0  0  0  0  0  0  0  0  0
    7.3694   -7.8237    0.0000 C   0  0  0  0  0  0  0  0  0  0  0  0
    8.0839   -7.4112    0.0000 N   0  0  0  0  0  0  0  0  0  0  0  0
    8.7984   -7.8237    0.0000 C   0  0  0  0  0  0  0  0  0  0  0  0
    7.3694   -8.6487    0.0000 O   0  0  0  0  0  0  0  0  0  0  0  0
  1  2  1  0  0  0  0
  2  3  1  0  0  0  0
  3  4  1  0  0  0  0
  4  5  1  0  0  0  0
  5  6  1  0  0  0  0
  6  1  1  0  0  0  0
  4  7  1  0  0  0  0
  7  8  1  0  0  0  0
  8  9  1  0  0  0  0
  9  5  1  0  0  0  0
  9 10  2  0  0  0  0
  7 11  2  0  0  0  0
  6 12  1  1  0  0  0
  3 12  1  1  0  0  0
  5 13  1  6  0  0  0
  4 14  1  6  0  0  0
  8 15  1  0  0  0  0
 15 16  1  0  0  0  0
 16 17  1  0  0  0  0
 17 18  1  0  0  0  0
 18 19  1  0  0  0  0
 19 20  1  0  0  0  0
 18 21  2  0  0  0  0
M  END
>  <cdx:fragmentId>
191

$$$$
