94197.cdx
  Mrv1902 05222410222D          

 32 37  0  0  0  0            999 V2000
    2.2558   -8.0341    0.0000 C   0  0  0  0  0  0  0  0  0  0  0  0
    2.2464   -8.8590    0.0000 C   0  0  0  0  0  0  0  0  0  0  0  0
    2.9562   -9.2796    0.0000 C   0  0  0  0  0  0  0  0  0  0  0  0
    3.6753   -8.8752    0.0000 C   0  0  1  0  0  0  0  0  0  0  0  0
    3.6846   -8.0503    0.0000 C   0  0  1  0  0  0  0  0  0  0  0  0
    2.9749   -7.6297    0.0000 C   0  0  0  0  0  0  0  0  0  0  0  0
    4.4569   -9.1391    0.0000 C   0  0  0  0  0  0  0  0  0  0  0  0
    4.9494   -8.4772    0.0000 N   0  0  0  0  0  0  0  0  0  0  0  0
    4.4721   -7.8043    0.0000 C   0  0  0  0  0  0  0  0  0  0  0  0
    4.7360   -7.0226    0.0000 O   0  0  0  0  0  0  0  0  0  0  0  0
    4.7029   -9.9266    0.0000 O   0  0  0  0  0  0  0  0  0  0  0  0
    5.6685   -8.0728    0.0000 C   0  0  0  0  0  0  0  0  0  0  0  0
    6.3783   -8.4934    0.0000 C   0  0  0  0  0  0  0  0  0  0  0  0
    8.5266   -8.1191    0.0000 N   0  0  0  0  0  0  0  0  0  0  0  0
    9.0052   -8.7911    0.0000 C   0  0  0  0  0  0  0  0  0  0  0  0
    9.7922   -8.5436    0.0000 C   0  0  1  0  0  0  0  0  0  0  0  0
    9.8000   -7.7186    0.0000 C   0  0  1  0  0  0  0  0  0  0  0  0
    9.0178   -7.4563    0.0000 C   0  0  0  0  0  0  0  0  0  0  0  0
   10.5027   -8.9628    0.0000 C   0  0  0  0  0  0  0  0  0  0  0  0
   11.2211   -8.5480    0.0000 C   0  0  0  0  0  0  0  0  0  0  0  0
   11.2236   -7.7230    0.0000 C   0  0  0  0  0  0  0  0  0  0  0  0
   10.5078   -7.3037    0.0000 C   0  0  0  0  0  0  0  0  0  0  0  0
    8.7703   -6.6693    0.0000 O   0  0  0  0  0  0  0  0  0  0  0  0
    8.7428   -9.5733    0.0000 O   0  0  0  0  0  0  0  0  0  0  0  0
   10.7189   -8.1013    0.0000 O   0  0  0  0  0  0  0  0  0  0  0  0
    2.7523   -8.4241    0.0000 O   0  0  0  0  0  0  0  0  0  0  0  0
    3.6846   -7.2253    0.0000 C   0  0  0  0  0  0  0  0  0  0  0  0
    3.6753   -9.7002    0.0000 C   0  0  0  0  0  0  0  0  0  0  0  0
    9.7922   -9.3686    0.0000 C   0  0  0  0  0  0  0  0  0  0  0  0
    9.8000   -6.8936    0.0000 C   0  0  0  0  0  0  0  0  0  0  0  0
    7.0974   -8.0891    0.0000 C   0  0  0  0  0  0  0  0  0  0  0  0
    7.8071   -8.5097    0.0000 C   0  0  0  0  0  0  0  0  0  0  0  0
  1  2  1  0  0  0  0
  2  3  1  0  0  0  0
  3  4  1  0  0  0  0
  4  5  1  0  0  0  0
  5  6  1  0  0  0  0
  6  1  1  0  0  0  0
  4  7  1  0  0  0  0
  7  8  1  0  0  0  0
  8  9  1  0  0  0  0
  9  5  1  0  0  0  0
  9 10  2  0  0  0  0
  7 11  2  0  0  0  0
  8 12  1  0  0  0  0
 12 13  1  0  0  0  0
 14 15  1  0  0  0  0
 15 16  1  0  0  0  0
 16 17  1  0  0  0  0
 17 18  1  0  0  0  0
 18 14  1  0  0  0  0
 16 19  1  0  0  0  0
 19 20  1  0  0  0  0
 20 21  1  0  0  0  0
 21 22  1  0  0  0  0
 22 17  1  0  0  0  0
 18 23  2  0  0  0  0
 15 24  2  0  0  0  0
 22 25  1  0  0  0  0
 25 19  1  0  0  0  0
  6 26  1  0  0  0  0
 26  3  1  0  0  0  0
  5 27  1  6  0  0  0
  4 28  1  6  0  0  0
 16 29  1  6  0  0  0
 17 30  1  6  0  0  0
 13 31  1  0  0  0  0
 31 32  1  0  0  0  0
 32 14  1  0  0  0  0
M  END
>  <cdx:fragmentId>
5

$$$$
