94192.cdx
  Mrv1902 05222410212D          

 31 36  0  0  0  0            999 V2000
    2.8306   -7.2188    0.0000 C   0  0  0  0  0  0  0  0  0  0  0  0
    2.8306   -8.0437    0.0000 C   0  0  0  0  0  0  0  0  0  0  0  0
    3.5450   -8.4563    0.0000 C   0  0  0  0  0  0  0  0  0  0  0  0
    4.2595   -8.0437    0.0000 C   0  0  1  0  0  0  0  0  0  0  0  0
    4.2595   -7.2188    0.0000 C   0  0  1  0  0  0  0  0  0  0  0  0
    3.5450   -6.8062    0.0000 C   0  0  0  0  0  0  0  0  0  0  0  0
    5.0441   -8.2987    0.0000 C   0  0  0  0  0  0  0  0  0  0  0  0
    5.5290   -7.6313    0.0000 N   0  0  0  0  0  0  0  0  0  0  0  0
    5.0441   -6.9638    0.0000 C   0  0  0  0  0  0  0  0  0  0  0  0
    5.2991   -6.1792    0.0000 O   0  0  0  0  0  0  0  0  0  0  0  0
    5.2991   -9.0833    0.0000 O   0  0  0  0  0  0  0  0  0  0  0  0
    6.2435   -7.2188    0.0000 C   0  0  0  0  0  0  0  0  0  0  0  0
    6.9580   -7.6313    0.0000 C   0  0  0  0  0  0  0  0  0  0  0  0
    7.6725   -7.2188    0.0000 C   0  0  0  0  0  0  0  0  0  0  0  0
    8.3869   -7.6313    0.0000 N   0  0  0  0  0  0  0  0  0  0  0  0
    8.8676   -8.3018    0.0000 C   0  0  0  0  0  0  0  0  0  0  0  0
    9.6538   -8.0519    0.0000 C   0  0  1  0  0  0  0  0  0  0  0  0
    9.6591   -7.2269    0.0000 C   0  0  1  0  0  0  0  0  0  0  0  0
    8.8761   -6.9669    0.0000 C   0  0  0  0  0  0  0  0  0  0  0  0
   10.3656   -8.4689    0.0000 C   0  0  0  0  0  0  0  0  0  0  0  0
   11.0827   -8.0519    0.0000 C   0  0  0  0  0  0  0  0  0  0  0  0
   11.0827   -7.2269    0.0000 C   0  0  0  0  0  0  0  0  0  0  0  0
   10.3656   -6.8098    0.0000 C   0  0  0  0  0  0  0  0  0  0  0  0
    8.6262   -6.1807    0.0000 O   0  0  0  0  0  0  0  0  0  0  0  0
    8.6076   -9.0848    0.0000 O   0  0  0  0  0  0  0  0  0  0  0  0
   10.5791   -7.6067    0.0000 O   0  0  0  0  0  0  0  0  0  0  0  0
    3.3315   -7.6031    0.0000 O   0  0  0  0  0  0  0  0  0  0  0  0
    4.2595   -6.3937    0.0000 C   0  0  0  0  0  0  0  0  0  0  0  0
    4.2595   -8.8688    0.0000 C   0  0  0  0  0  0  0  0  0  0  0  0
    9.6591   -6.4019    0.0000 C   0  0  0  0  0  0  0  0  0  0  0  0
    9.6538   -8.8769    0.0000 C   0  0  0  0  0  0  0  0  0  0  0  0
  1  2  1  0  0  0  0
  2  3  1  0  0  0  0
  3  4  1  0  0  0  0
  4  5  1  0  0  0  0
  5  6  1  0  0  0  0
  6  1  1  0  0  0  0
  4  7  1  0  0  0  0
  7  8  1  0  0  0  0
  8  9  1  0  0  0  0
  9  5  1  0  0  0  0
  9 10  2  0  0  0  0
  7 11  2  0  0  0  0
  8 12  1  0  0  0  0
 12 13  1  0  0  0  0
 13 14  1  0  0  0  0
 14 15  1  0  0  0  0
 15 16  1  0  0  0  0
 16 17  1  0  0  0  0
 17 18  1  0  0  0  0
 18 19  1  0  0  0  0
 19 15  1  0  0  0  0
 17 20  1  0  0  0  0
 20 21  1  0  0  0  0
 21 22  1  0  0  0  0
 22 23  1  0  0  0  0
 23 18  1  0  0  0  0
 19 24  2  0  0  0  0
 16 25  2  0  0  0  0
 23 26  1  0  0  0  0
 26 20  1  0  0  0  0
  6 27  1  0  0  0  0
 27  3  1  0  0  0  0
  5 28  1  6  0  0  0
  4 29  1  6  0  0  0
 18 30  1  6  0  0  0
 17 31  1  6  0  0  0
M  END
>  <cdx:fragmentId>
5

$$$$
