94198.cdx
  Mrv1902 05222410232D          

 23 26  0  0  0  0            999 V2000
    3.3256   -7.0263    0.0000 C   0  0  0  0  0  0  0  0  0  0  0  0
    3.3256   -7.8513    0.0000 C   0  0  0  0  0  0  0  0  0  0  0  0
    4.0400   -8.2637    0.0000 C   0  0  1  0  0  0  0  0  0  0  0  0
    4.7545   -7.8513    0.0000 C   0  0  1  0  0  0  0  0  0  0  0  0
    4.7545   -7.0263    0.0000 C   0  0  1  0  0  0  0  0  0  0  0  0
    4.0400   -6.6137    0.0000 C   0  0  2  0  0  0  0  0  0  0  0  0
    5.5391   -8.1062    0.0000 C   0  0  0  0  0  0  0  0  0  0  0  0
    6.0240   -7.4387    0.0000 N   0  0  0  0  0  0  0  0  0  0  0  0
    5.5391   -6.7713    0.0000 C   0  0  0  0  0  0  0  0  0  0  0  0
    5.7941   -5.9867    0.0000 O   0  0  0  0  0  0  0  0  0  0  0  0
    5.7941   -8.8908    0.0000 O   0  0  0  0  0  0  0  0  0  0  0  0
    3.8265   -7.4106    0.0000 O   0  0  0  0  0  0  0  0  0  0  0  0
    4.7545   -6.2012    0.0000 C   0  0  0  0  0  0  0  0  0  0  0  0
    4.7545   -8.6762    0.0000 C   0  0  0  0  0  0  0  0  0  0  0  0
    6.7385   -7.0263    0.0000 C   0  0  0  0  0  0  0  0  0  0  0  0
    7.4530   -7.4387    0.0000 C   0  0  0  0  0  0  0  0  0  0  0  0
    8.1675   -7.0263    0.0000 C   0  0  0  0  0  0  0  0  0  0  0  0
    8.8819   -7.4387    0.0000 C   0  0  0  0  0  0  0  0  0  0  0  0
    9.5964   -7.0263    0.0000 C   0  0  0  0  0  0  0  0  0  0  0  0
    9.5964   -6.2012    0.0000 C   0  0  0  0  0  0  0  0  0  0  0  0
    8.8819   -5.7888    0.0000 C   0  0  0  0  0  0  0  0  0  0  0  0
    8.1675   -6.2012    0.0000 C   0  0  0  0  0  0  0  0  0  0  0  0
   10.3109   -5.7888    0.0000 O   0  0  0  0  0  0  0  0  0  0  0  0
  1  2  1  0  0  0  0
  2  3  1  0  0  0  0
  3  4  1  0  0  0  0
  4  5  1  0  0  0  0
  5  6  1  0  0  0  0
  6  1  1  0  0  0  0
  4  7  1  0  0  0  0
  7  8  1  0  0  0  0
  8  9  1  0  0  0  0
  9  5  1  0  0  0  0
  9 10  2  0  0  0  0
  7 11  2  0  0  0  0
  6 12  1  1  0  0  0
  3 12  1  1  0  0  0
  5 13  1  6  0  0  0
  4 14  1  6  0  0  0
  8 15  1  0  0  0  0
 15 16  1  0  0  0  0
 16 17  1  0  0  0  0
 17 18  2  0  0  0  0
 18 19  1  0  0  0  0
 19 20  2  0  0  0  0
 20 21  1  0  0  0  0
 21 22  2  0  0  0  0
 22 17  1  0  0  0  0
 20 23  1  0  0  0  0
M  END
>  <cdx:fragmentId>
191

$$$$
