94206.cdx
  Mrv1902 05222410242D          

 23 25  0  0  0  0            999 V2000
    4.4668   -8.1263    0.0000 C   0  0  0  0  0  0  0  0  0  0  0  0
    4.4668   -8.9513    0.0000 C   0  0  0  0  0  0  0  0  0  0  0  0
    5.1813   -9.3637    0.0000 C   0  0  1  0  0  0  0  0  0  0  0  0
    5.8957   -8.9513    0.0000 C   0  0  1  0  0  0  0  0  0  0  0  0
    5.8957   -8.1263    0.0000 C   0  0  1  0  0  0  0  0  0  0  0  0
    5.1813   -7.7138    0.0000 C   0  0  2  0  0  0  0  0  0  0  0  0
    6.6804   -9.2062    0.0000 C   0  0  0  0  0  0  0  0  0  0  0  0
    7.1653   -8.5388    0.0000 N   0  0  0  0  0  0  0  0  0  0  0  0
    6.6804   -7.8713    0.0000 C   0  0  0  0  0  0  0  0  0  0  0  0
    6.9353   -7.0867    0.0000 O   0  0  0  0  0  0  0  0  0  0  0  0
    6.9353   -9.9908    0.0000 O   0  0  0  0  0  0  0  0  0  0  0  0
    4.9677   -8.5106    0.0000 O   0  0  0  0  0  0  0  0  0  0  0  0
    5.8957   -7.3012    0.0000 C   0  0  0  0  0  0  0  0  0  0  0  0
    5.8957   -9.7763    0.0000 C   0  0  0  0  0  0  0  0  0  0  0  0
    7.9903   -8.5388    0.0000 C   0  0  0  0  0  0  0  0  0  0  0  0
    8.4028   -7.8243    0.0000 C   0  0  0  0  0  0  0  0  0  0  0  0
    8.4028   -9.2532    0.0000 C   0  0  0  0  0  0  0  0  0  0  0  0
    7.9903   -9.9677    0.0000 O   0  0  0  0  0  0  0  0  0  0  0  0
    9.2278   -9.2532    0.0000 O   0  0  0  0  0  0  0  0  0  0  0  0
    7.9903   -7.1098    0.0000 C   0  0  0  0  0  0  0  0  0  0  0  0
    8.4028   -6.3953    0.0000 C   0  0  0  0  0  0  0  0  0  0  0  0
    7.9903   -5.6809    0.0000 C   0  0  0  0  0  0  0  0  0  0  0  0
    8.4028   -4.9664    0.0000 N   0  0  0  0  0  0  0  0  0  0  0  0
  1  2  1  0  0  0  0
  2  3  1  0  0  0  0
  3  4  1  0  0  0  0
  4  5  1  0  0  0  0
  5  6  1  0  0  0  0
  6  1  1  0  0  0  0
  4  7  1  0  0  0  0
  7  8  1  0  0  0  0
  8  9  1  0  0  0  0
  9  5  1  0  0  0  0
  9 10  2  0  0  0  0
  7 11  2  0  0  0  0
  6 12  1  1  0  0  0
  3 12  1  1  0  0  0
  5 13  1  6  0  0  0
  4 14  1  6  0  0  0
  8 15  1  0  0  0  0
 15 16  1  0  0  0  0
 15 17  1  0  0  0  0
 17 18  1  0  0  0  0
 17 19  2  0  0  0  0
 16 20  1  0  0  0  0
 20 21  1  0  0  0  0
 21 22  1  0  0  0  0
 22 23  1  0  0  0  0
M  END
>  <cdx:fragmentId>
191

$$$$
