94207.cdx
  Mrv1902 05222410242D          

 19 21  0  0  0  0            999 V2000
    3.8893   -8.0437    0.0000 C   0  0  0  0  0  0  0  0  0  0  0  0
    3.8893   -8.8688    0.0000 C   0  0  0  0  0  0  0  0  0  0  0  0
    4.6038   -9.2813    0.0000 C   0  0  1  0  0  0  0  0  0  0  0  0
    5.3182   -8.8688    0.0000 C   0  0  1  0  0  0  0  0  0  0  0  0
    5.3182   -8.0437    0.0000 C   0  0  1  0  0  0  0  0  0  0  0  0
    4.6038   -7.6313    0.0000 C   0  0  2  0  0  0  0  0  0  0  0  0
    6.1029   -9.1237    0.0000 C   0  0  0  0  0  0  0  0  0  0  0  0
    6.5878   -8.4563    0.0000 N   0  0  0  0  0  0  0  0  0  0  0  0
    6.1029   -7.7888    0.0000 C   0  0  0  0  0  0  0  0  0  0  0  0
    6.3578   -7.0042    0.0000 O   0  0  0  0  0  0  0  0  0  0  0  0
    6.3578   -9.9083    0.0000 O   0  0  0  0  0  0  0  0  0  0  0  0
    4.3902   -8.4281    0.0000 O   0  0  0  0  0  0  0  0  0  0  0  0
    5.3182   -7.2188    0.0000 C   0  0  0  0  0  0  0  0  0  0  0  0
    5.3182   -9.6937    0.0000 C   0  0  0  0  0  0  0  0  0  0  0  0
    7.3023   -8.0437    0.0000 C   0  0  0  0  0  0  0  0  0  0  0  0
    8.0167   -8.4563    0.0000 C   0  0  0  0  0  0  0  0  0  0  0  0
    8.7312   -8.0437    0.0000 C   0  0  0  0  0  0  0  0  0  0  0  0
    9.4457   -8.4563    0.0000 N   0  0  0  0  0  0  0  0  0  0  0  0
    8.7312   -7.2188    0.0000 O   0  0  0  0  0  0  0  0  0  0  0  0
  1  2  1  0  0  0  0
  2  3  1  0  0  0  0
  3  4  1  0  0  0  0
  4  5  1  0  0  0  0
  5  6  1  0  0  0  0
  6  1  1  0  0  0  0
  4  7  1  0  0  0  0
  7  8  1  0  0  0  0
  8  9  1  0  0  0  0
  9  5  1  0  0  0  0
  9 10  2  0  0  0  0
  7 11  2  0  0  0  0
  6 12  1  1  0  0  0
  3 12  1  1  0  0  0
  5 13  1  6  0  0  0
  4 14  1  6  0  0  0
  8 15  1  0  0  0  0
 15 16  1  0  0  0  0
 16 17  1  0  0  0  0
 17 18  1  0  0  0  0
 17 19  2  0  0  0  0
M  END
>  <cdx:fragmentId>
191

$$$$
