94203.cdx
  Mrv1902 05222410252D          

 17 19  0  0  0  0            999 V2000
    4.7006   -6.6137    0.0000 C   0  0  0  0  0  0  0  0  0  0  0  0
    4.7006   -7.4387    0.0000 C   0  0  0  0  0  0  0  0  0  0  0  0
    5.4150   -7.8513    0.0000 C   0  0  1  0  0  0  0  0  0  0  0  0
    6.1295   -7.4387    0.0000 C   0  0  1  0  0  0  0  0  0  0  0  0
    6.1295   -6.6137    0.0000 C   0  0  1  0  0  0  0  0  0  0  0  0
    5.4150   -6.2012    0.0000 C   0  0  2  0  0  0  0  0  0  0  0  0
    6.9141   -7.6937    0.0000 C   0  0  0  0  0  0  0  0  0  0  0  0
    7.3990   -7.0263    0.0000 N   0  0  0  0  0  0  0  0  0  0  0  0
    6.9141   -6.3588    0.0000 C   0  0  0  0  0  0  0  0  0  0  0  0
    7.1691   -5.5742    0.0000 O   0  0  0  0  0  0  0  0  0  0  0  0
    7.1691   -8.4783    0.0000 O   0  0  0  0  0  0  0  0  0  0  0  0
    5.2015   -6.9981    0.0000 O   0  0  0  0  0  0  0  0  0  0  0  0
    6.1295   -5.7888    0.0000 C   0  0  0  0  0  0  0  0  0  0  0  0
    6.1295   -8.2637    0.0000 C   0  0  0  0  0  0  0  0  0  0  0  0
    8.1135   -6.6137    0.0000 C   0  0  0  0  0  0  0  0  0  0  0  0
    8.8280   -7.0263    0.0000 C   0  0  0  0  0  0  0  0  0  0  0  0
    9.5425   -6.6137    0.0000 O   0  0  0  0  0  0  0  0  0  0  0  0
  1  2  1  0  0  0  0
  2  3  1  0  0  0  0
  3  4  1  0  0  0  0
  4  5  1  0  0  0  0
  5  6  1  0  0  0  0
  6  1  1  0  0  0  0
  4  7  1  0  0  0  0
  7  8  1  0  0  0  0
  8  9  1  0  0  0  0
  9  5  1  0  0  0  0
  9 10  2  0  0  0  0
  7 11  2  0  0  0  0
  6 12  1  1  0  0  0
  3 12  1  1  0  0  0
  5 13  1  6  0  0  0
  4 14  1  6  0  0  0
  8 15  1  0  0  0  0
 15 16  1  0  0  0  0
 16 17  1  0  0  0  0
M  END
>  <cdx:fragmentId>
191

$$$$
