94200.cdx
  Mrv1902 05222410262D          

 18 20  0  0  0  0            999 V2000
    3.5181   -7.4937    0.0000 C   0  0  0  0  0  0  0  0  0  0  0  0
    3.5181   -8.3187    0.0000 C   0  0  0  0  0  0  0  0  0  0  0  0
    4.2325   -8.7313    0.0000 C   0  0  1  0  0  0  0  0  0  0  0  0
    4.9470   -8.3187    0.0000 C   0  0  1  0  0  0  0  0  0  0  0  0
    4.9470   -7.4937    0.0000 C   0  0  1  0  0  0  0  0  0  0  0  0
    4.2325   -7.0812    0.0000 C   0  0  2  0  0  0  0  0  0  0  0  0
    5.7316   -8.5737    0.0000 C   0  0  0  0  0  0  0  0  0  0  0  0
    6.2165   -7.9063    0.0000 N   0  0  0  0  0  0  0  0  0  0  0  0
    5.7316   -7.2388    0.0000 C   0  0  0  0  0  0  0  0  0  0  0  0
    5.9866   -6.4542    0.0000 O   0  0  0  0  0  0  0  0  0  0  0  0
    5.9866   -9.3583    0.0000 O   0  0  0  0  0  0  0  0  0  0  0  0
    4.0190   -7.8781    0.0000 O   0  0  0  0  0  0  0  0  0  0  0  0
    4.9470   -6.6688    0.0000 C   0  0  0  0  0  0  0  0  0  0  0  0
    4.9470   -9.1438    0.0000 H   0  0  0  0  0  0  0  0  0  0  0  0
    6.9310   -7.4937    0.0000 C   0  0  0  0  0  0  0  0  0  0  0  0
    7.6455   -7.9063    0.0000 C   0  0  0  0  0  0  0  0  0  0  0  0
    8.3600   -7.4937    0.0000 N   0  0  0  0  0  0  0  0  0  0  0  0
    7.6455   -8.7313    0.0000 O   0  0  0  0  0  0  0  0  0  0  0  0
  1  2  1  0  0  0  0
  2  3  1  0  0  0  0
  3  4  1  0  0  0  0
  4  5  1  0  0  0  0
  5  6  1  0  0  0  0
  6  1  1  0  0  0  0
  4  7  1  0  0  0  0
  7  8  1  0  0  0  0
  8  9  1  0  0  0  0
  9  5  1  0  0  0  0
  9 10  2  0  0  0  0
  7 11  2  0  0  0  0
  6 12  1  1  0  0  0
  3 12  1  1  0  0  0
  5 13  1  6  0  0  0
  4 14  1  6  0  0  0
  8 15  1  0  0  0  0
 15 16  1  0  0  0  0
 16 17  1  0  0  0  0
 16 18  2  0  0  0  0
M  END
>  <cdx:fragmentId>
191

$$$$
