94208.cdx
  Mrv1902 05222410222D          

 31 33  0  0  0  0            999 V2000
    3.8068   -6.2012    0.0000 C   0  0  0  0  0  0  0  0  0  0  0  0
    3.8068   -7.0263    0.0000 C   0  0  0  0  0  0  0  0  0  0  0  0
    4.5213   -7.4387    0.0000 C   0  0  1  0  0  0  0  0  0  0  0  0
    5.2357   -7.0263    0.0000 C   0  0  1  0  0  0  0  0  0  0  0  0
    5.2357   -6.2012    0.0000 C   0  0  1  0  0  0  0  0  0  0  0  0
    4.5213   -5.7888    0.0000 C   0  0  2  0  0  0  0  0  0  0  0  0
    6.0204   -7.2812    0.0000 C   0  0  0  0  0  0  0  0  0  0  0  0
    6.5053   -6.6137    0.0000 N   0  0  0  0  0  0  0  0  0  0  0  0
    6.0204   -5.9463    0.0000 C   0  0  0  0  0  0  0  0  0  0  0  0
    6.2753   -5.1617    0.0000 O   0  0  0  0  0  0  0  0  0  0  0  0
    6.2753   -8.0658    0.0000 O   0  0  0  0  0  0  0  0  0  0  0  0
    4.3077   -6.5856    0.0000 O   0  0  0  0  0  0  0  0  0  0  0  0
    5.2357   -5.3763    0.0000 C   0  0  0  0  0  0  0  0  0  0  0  0
    5.2357   -7.8513    0.0000 C   0  0  0  0  0  0  0  0  0  0  0  0
    7.3403   -5.1653    0.0000 O   0  0  0  0  0  0  0  0  0  0  0  0
    7.7461   -5.8836    0.0000 C   0  0  0  0  0  0  0  0  0  0  0  0
    7.3269   -6.5942    0.0000 C   0  0  0  0  0  0  0  0  0  0  0  0
    8.5710   -5.8913    0.0000 O   0  0  0  0  0  0  0  0  0  0  0  0
    7.7327   -7.3125    0.0000 C   0  0  0  0  0  0  0  0  0  0  0  0
    7.3135   -8.0231    0.0000 C   0  0  0  0  0  0  0  0  0  0  0  0
    7.7193   -8.7414    0.0000 C   0  0  0  0  0  0  0  0  0  0  0  0
    7.3002   -9.4520    0.0000 N   0  0  0  0  0  0  0  0  0  0  0  0
    8.5443   -8.7491    0.0000 O   0  0  0  0  0  0  0  0  0  0  0  0
    7.7059  -10.1703    0.0000 C   0  0  0  0  0  0  0  0  0  0  0  0
    7.2868  -10.8808    0.0000 C   0  0  0  0  0  0  0  0  0  0  0  0
    8.5309  -10.1780    0.0000 C   0  0  0  0  0  0  0  0  0  0  0  0
    8.9367  -10.8963    0.0000 C   0  0  0  0  0  0  0  0  0  0  0  0
    9.7617  -10.9040    0.0000 C   0  0  0  0  0  0  0  0  0  0  0  0
    8.5175  -11.6069    0.0000 C   0  0  0  0  0  0  0  0  0  0  0  0
    7.6926  -11.5991    0.0000 O   0  0  0  0  0  0  0  0  0  0  0  0
    6.4618  -10.8731    0.0000 O   0  0  0  0  0  0  0  0  0  0  0  0
  1  2  1  0  0  0  0
  2  3  1  0  0  0  0
  3  4  1  0  0  0  0
  4  5  1  0  0  0  0
  5  6  1  0  0  0  0
  6  1  1  0  0  0  0
  4  7  1  0  0  0  0
  7  8  1  0  0  0  0
  8  9  1  0  0  0  0
  9  5  1  0  0  0  0
  9 10  2  0  0  0  0
  7 11  2  0  0  0  0
  6 12  1  1  0  0  0
  3 12  1  1  0  0  0
  5 13  1  6  0  0  0
  4 14  1  6  0  0  0
 15 16  1  0  0  0  0
 16 17  1  0  0  0  0
 16 18  2  0  0  0  0
 17 19  1  0  0  0  0
 19 20  1  0  0  0  0
 20 21  1  0  0  0  0
 21 22  1  0  0  0  0
 21 23  2  0  0  0  0
 22 24  1  0  0  0  0
 24 25  1  0  0  0  0
 24 26  1  0  0  0  0
 26 27  1  0  0  0  0
 27 28  1  0  0  0  0
 27 29  1  0  0  0  0
 25 30  1  0  0  0  0
 25 31  2  0  0  0  0
 17  8  1  0  0  0  0
M  END
>  <cdx:fragmentId>
291

$$$$
