94209.cdx
  Mrv1902 05222410232D          

 30 32  0  0  0  0            999 V2000
    3.8068   -6.2012    0.0000 C   0  0  0  0  0  0  0  0  0  0  0  0
    3.8068   -7.0263    0.0000 C   0  0  0  0  0  0  0  0  0  0  0  0
    4.5213   -7.4387    0.0000 C   0  0  1  0  0  0  0  0  0  0  0  0
    5.2357   -7.0263    0.0000 C   0  0  1  0  0  0  0  0  0  0  0  0
    5.2357   -6.2012    0.0000 C   0  0  1  0  0  0  0  0  0  0  0  0
    4.5213   -5.7888    0.0000 C   0  0  2  0  0  0  0  0  0  0  0  0
    6.0204   -7.2812    0.0000 C   0  0  0  0  0  0  0  0  0  0  0  0
    6.5053   -6.6137    0.0000 N   0  0  0  0  0  0  0  0  0  0  0  0
    6.0204   -5.9463    0.0000 C   0  0  0  0  0  0  0  0  0  0  0  0
    6.2753   -5.1617    0.0000 O   0  0  0  0  0  0  0  0  0  0  0  0
    6.2753   -8.0658    0.0000 O   0  0  0  0  0  0  0  0  0  0  0  0
    4.3077   -6.5856    0.0000 O   0  0  0  0  0  0  0  0  0  0  0  0
    5.2357   -5.3763    0.0000 C   0  0  0  0  0  0  0  0  0  0  0  0
    5.2357   -7.8513    0.0000 C   0  0  0  0  0  0  0  0  0  0  0  0
    7.2198   -7.0263    0.0000 C   0  0  0  0  0  0  0  0  0  0  0  0
    7.2198   -7.8513    0.0000 C   0  0  0  0  0  0  0  0  0  0  0  0
    7.9342   -8.2637    0.0000 C   0  0  0  0  0  0  0  0  0  0  0  0
    8.6487   -7.8513    0.0000 C   0  0  0  0  0  0  0  0  0  0  0  0
    8.6487   -7.0263    0.0000 N   0  0  0  0  0  0  0  0  0  0  0  0
    7.9342   -6.6137    0.0000 C   0  0  0  0  0  0  0  0  0  0  0  0
    7.9342   -5.7888    0.0000 O   0  0  0  0  0  0  0  0  0  0  0  0
    7.9342   -9.0887    0.0000 C   0  0  0  0  0  0  0  0  0  0  0  0
    9.3632   -6.6137    0.0000 C   0  0  0  0  0  0  0  0  0  0  0  0
   10.0776   -7.0262    0.0000 C   0  0  0  0  0  0  0  0  0  0  0  0
   10.7921   -6.6137    0.0000 O   0  0  0  0  0  0  0  0  0  0  0  0
   10.7921   -5.7887    0.0000 C   0  0  0  0  0  0  0  0  0  0  0  0
   10.0776   -5.3763    0.0000 C   0  0  0  0  0  0  0  0  0  0  0  0
    9.3632   -5.7887    0.0000 C   0  0  0  0  0  0  0  0  0  0  0  0
   10.0776   -4.5512    0.0000 C   0  0  0  0  0  0  0  0  0  0  0  0
   10.0776   -7.8512    0.0000 O   0  0  0  0  0  0  0  0  0  0  0  0
  1  2  1  0  0  0  0
  2  3  1  0  0  0  0
  3  4  1  0  0  0  0
  4  5  1  0  0  0  0
  5  6  1  0  0  0  0
  6  1  1  0  0  0  0
  4  7  1  0  0  0  0
  7  8  1  0  0  0  0
  8  9  1  0  0  0  0
  9  5  1  0  0  0  0
  9 10  2  0  0  0  0
  7 11  2  0  0  0  0
  6 12  1  1  0  0  0
  3 12  1  1  0  0  0
  5 13  1  6  0  0  0
  4 14  1  6  0  0  0
  8 15  1  0  0  0  0
 15 16  1  0  0  0  0
 16 17  1  0  0  0  0
 17 18  1  0  0  0  0
 19 20  1  0  0  0  0
 20 15  1  0  0  0  0
 20 21  2  0  0  0  0
 17 22  1  0  0  0  0
 19 23  1  0  0  0  0
 23 24  1  0  0  0  0
 24 25  1  0  0  0  0
 26 27  1  0  0  0  0
 27 28  1  0  0  0  0
 28 23  1  0  0  0  0
 27 29  1  0  0  0  0
 24 30  2  0  0  0  0
M  END
>  <cdx:fragmentId>
291

$$$$
