94212.cdx
  Mrv1902 05222410242D          

 19 21  0  0  0  0            999 V2000
    3.8068   -6.2012    0.0000 C   0  0  0  0  0  0  0  0  0  0  0  0
    3.8068   -7.0263    0.0000 C   0  0  0  0  0  0  0  0  0  0  0  0
    4.5213   -7.4387    0.0000 C   0  0  1  0  0  0  0  0  0  0  0  0
    5.2357   -7.0263    0.0000 C   0  0  1  0  0  0  0  0  0  0  0  0
    5.2357   -6.2012    0.0000 C   0  0  1  0  0  0  0  0  0  0  0  0
    4.5213   -5.7888    0.0000 C   0  0  2  0  0  0  0  0  0  0  0  0
    6.0204   -7.2812    0.0000 C   0  0  0  0  0  0  0  0  0  0  0  0
    6.5053   -6.6137    0.0000 N   0  0  0  0  0  0  0  0  0  0  0  0
    6.0204   -5.9463    0.0000 C   0  0  0  0  0  0  0  0  0  0  0  0
    6.2753   -5.1617    0.0000 O   0  0  0  0  0  0  0  0  0  0  0  0
    6.2753   -8.0658    0.0000 O   0  0  0  0  0  0  0  0  0  0  0  0
    4.3077   -6.5856    0.0000 O   0  0  0  0  0  0  0  0  0  0  0  0
    5.2357   -5.3763    0.0000 C   0  0  0  0  0  0  0  0  0  0  0  0
    5.2357   -7.8513    0.0000 C   0  0  0  0  0  0  0  0  0  0  0  0
    8.5521   -5.9280    0.0000 O   0  0  0  0  0  0  0  0  0  0  0  0
    7.3283   -5.1903    0.0000 O   0  0  0  0  0  0  0  0  0  0  0  0
    7.7273   -5.9124    0.0000 C   0  0  0  0  0  0  0  0  0  0  0  0
    7.3013   -6.6190    0.0000 C   0  0  0  0  0  0  0  0  0  0  0  0
    7.7003   -7.3411    0.0000 C   0  0  0  0  0  0  0  0  0  0  0  0
  1  2  1  0  0  0  0
  2  3  1  0  0  0  0
  3  4  1  0  0  0  0
  4  5  1  0  0  0  0
  5  6  1  0  0  0  0
  6  1  1  0  0  0  0
  4  7  1  0  0  0  0
  7  8  1  0  0  0  0
  8  9  1  0  0  0  0
  9  5  1  0  0  0  0
  9 10  2  0  0  0  0
  7 11  2  0  0  0  0
  6 12  1  1  0  0  0
  3 12  1  1  0  0  0
  5 13  1  6  0  0  0
  4 14  1  6  0  0  0
 17 15  1  0  0  0  0
 17 16  2  0  0  0  0
 18 17  1  0  0  0  0
 18  8  1  0  0  0  0
 19 18  1  0  0  0  0
M  END
>  <cdx:fragmentId>
380

$$$$
