94213.cdx
  Mrv1902 05222410242D          

 12 11  0  0  0  0            999 V2000
    9.3474   -2.6114    0.0000 C   0  0  0  0  0  0  0  0  0  0  0  0
    8.6329   -3.0239    0.0000 C   0  0  0  0  0  0  0  0  0  0  0  0
    7.9184   -2.6114    0.0000 C   0  0  0  0  0  0  0  0  0  0  0  0
    7.2039   -3.0239    0.0000 C   0  0  0  0  0  0  0  0  0  0  0  0
    6.4895   -2.6114    0.0000 C   0  0  0  0  0  0  0  0  0  0  0  0
    5.7750   -3.0239    0.0000 C   0  0  0  0  0  0  0  0  0  0  0  0
    5.0605   -2.6114    0.0000 C   0  0  0  0  0  0  0  0  0  0  0  0
    4.3461   -3.0239    0.0000 C   0  0  0  0  0  0  0  0  0  0  0  0
    3.6316   -2.6114    0.0000 C   0  0  0  0  0  0  0  0  0  0  0  0
    2.9171   -3.0239    0.0000 C   0  0  0  0  0  0  0  0  0  0  0  0
    2.2026   -2.6114    0.0000 C   0  0  0  0  0  0  0  0  0  0  0  0
    6.4895   -1.7864    0.0000 C   0  0  0  0  0  0  0  0  0  0  0  0
  1  2  1  0  0  0  0
  2  3  1  0  0  0  0
  3  4  1  0  0  0  0
  4  5  1  0  0  0  0
  5  6  1  0  0  0  0
  6  7  1  0  0  0  0
  7  8  1  0  0  0  0
  8  9  1  0  0  0  0
  9 10  1  0  0  0  0
 10 11  1  0  0  0  0
  5 12  1  0  0  0  0
M  END
>  <cdx:groupId>
37

>  <cdx:fragmentId>
5

$$$$
