94217.cdx
  Mrv1902 05222410252D          

 12 12  0  0  0  0            999 V2000
    7.9337   -7.6669    0.0000 C   0  0  0  0  0  0  0  0  0  0  0  0
    7.2201   -7.2528    0.0000 C   0  0  0  0  0  0  0  0  0  0  0  0
    6.5047   -7.6636    0.0000 C   0  0  0  0  0  0  0  0  0  0  0  0
    6.5028   -8.4886    0.0000 C   0  0  0  0  0  0  0  0  0  0  0  0
    7.2163   -8.9028    0.0000 C   0  0  0  0  0  0  0  0  0  0  0  0
    7.9317   -8.4919    0.0000 C   0  0  0  0  0  0  0  0  0  0  0  0
    6.8022   -9.6163    0.0000 C   0  0  0  0  0  0  0  0  0  0  0  0
    7.2221   -6.4278    0.0000 C   0  0  0  0  0  0  0  0  0  0  0  0
    7.9375   -6.0169    0.0000 C   0  0  0  0  0  0  0  0  0  0  0  0
    6.5086   -6.0136    0.0000 C   0  0  0  0  0  0  0  0  0  0  0  0
    7.6272   -9.6182    0.0000 O   0  0  0  0  0  0  0  0  0  0  0  0
    8.6453   -8.9061    0.0000 O   0  0  0  0  0  0  0  0  0  0  0  0
  1  2  1  0  0  0  0
  2  3  1  0  0  0  0
  3  4  1  0  0  0  0
  4  5  1  0  0  0  0
  5  6  1  0  0  0  0
  1  6  1  0  0  0  0
  5  7  1  0  0  0  0
  8  9  2  0  0  0  0
  8 10  1  0  0  0  0
  2  8  1  0  0  0  0
  5 11  1  0  0  0  0
  6 12  1  0  0  0  0
M  END
>  <cdx:fragmentId>
5

$$$$
