942167.cdx
  Mrv1902 05222410282D          

 82 90  0  0  0  0            999 V2000
    7.3258  -10.4488    0.0000 C   0  0  0  0  0  0  0  0  0  0  0  0
    6.6211  -10.8778    0.0000 C   0  0  0  0  0  0  0  0  0  0  0  0
    6.6403  -11.7026    0.0000 C   0  0  1  0  0  0  0  0  0  0  0  0
    7.3641  -12.0984    0.0000 C   0  0  1  0  0  0  0  0  0  0  0  0
    8.0688  -11.6694    0.0000 C   0  0  2  0  0  0  0  0  0  0  0  0
    8.7927  -12.0652    0.0000 C   0  0  0  0  0  0  0  0  0  0  0  0
    9.4974  -11.6362    0.0000 C   0  0  0  0  0  0  0  0  0  0  0  0
    9.4782  -10.8114    0.0000 C   0  0  1  0  0  0  0  0  0  0  0  0
   10.1829  -10.3824    0.0000 C   0  0  2  0  0  0  0  0  0  0  0  0
   10.9068  -10.7782    0.0000 C   0  0  0  0  0  0  0  0  0  0  0  0
   11.6115  -10.3492    0.0000 C   0  0  0  0  0  0  0  0  0  0  0  0
   11.5923   -9.5245    0.0000 C   0  0  1  0  0  0  0  0  0  0  0  0
   12.2970   -9.0955    0.0000 C   0  0  0  0  0  0  0  0  0  0  0  0
   12.2778   -8.2707    0.0000 C   0  0  0  0  0  0  0  0  0  0  0  0
   11.5540   -7.8749    0.0000 C   0  0  1  0  0  0  0  0  0  0  0  0
   10.8493   -8.3039    0.0000 C   0  0  0  0  0  0  0  0  0  0  0  0
   10.8684   -9.1287    0.0000 C   0  0  1  0  0  0  0  0  0  0  0  0
   10.1637   -9.5577    0.0000 C   0  0  0  0  0  0  0  0  0  0  0  0
    9.4399   -9.1619    0.0000 C   0  0  0  0  0  0  0  0  0  0  0  0
    8.7352   -9.5908    0.0000 C   0  0  0  0  0  0  0  0  0  0  0  0
    8.7543  -10.4156    0.0000 C   0  0  2  0  0  0  0  0  0  0  0  0
    8.0497  -10.8446    0.0000 C   0  0  1  0  0  0  0  0  0  0  0  0
    8.0497  -10.0196    0.0000 C   0  0  0  0  0  0  0  0  0  0  0  0
   11.1250   -7.1702    0.0000 C   0  0  0  0  0  0  0  0  0  0  0  0
   11.9498   -7.1510    0.0000 C   0  0  0  0  0  0  0  0  0  0  0  0
   12.3162   -9.9202    0.0000 O   0  0  0  0  0  0  0  0  0  0  0  0
   10.2021  -11.2072    0.0000 C   0  0  0  0  0  0  0  0  0  0  0  0
    9.4782   -9.9864    0.0000 C   0  0  0  0  0  0  0  0  0  0  0  0
    6.9516  -12.8128    0.0000 C   0  0  0  0  0  0  0  0  0  0  0  0
    8.0880  -12.4942    0.0000 H   0  0  0  0  0  0  0  0  0  0  0  0
   10.1446   -8.7329    0.0000 H   0  0  0  0  0  0  0  0  0  0  0  0
    8.7543  -11.2406    0.0000 H   0  0  0  0  0  0  0  0  0  0  0  0
    5.9356  -12.1316    0.0000 O   0  0  0  0  0  0  0  0  0  0  0  0
    3.0773  -10.4822    0.0000 O   0  0  0  0  0  0  0  0  0  0  0  0
    3.0777  -12.1322    0.0000 O   0  0  0  0  0  0  0  0  0  0  0  0
    4.5068  -12.9569    0.0000 O   0  0  0  0  0  0  0  0  0  0  0  0
    3.7916   -9.2445    0.0000 O   0  0  0  0  0  0  0  0  0  0  0  0
    4.5061   -9.6569    0.0000 C   0  0  0  0  0  0  0  0  0  0  0  0
    5.2210  -11.7192    0.0000 C   0  0  1  0  0  0  0  0  0  0  0  0
    4.5066  -12.1319    0.0000 C   0  0  1  0  0  0  0  0  0  0  0  0
    3.7921  -11.7195    0.0000 C   0  0  2  0  0  0  0  0  0  0  0  0
    3.7919  -10.8945    0.0000 C   0  0  1  0  0  0  0  0  0  0  0  0
    4.5063  -10.4819    0.0000 C   0  0  2  0  0  0  0  0  0  0  0  0
    5.2208  -10.8942    0.0000 O   0  0  0  0  0  0  0  0  0  0  0  0
    7.7766  -12.8128    0.0000 C   0  0  0  0  0  0  0  0  0  0  0  0
    7.3641  -13.5273    0.0000 O   0  0  0  0  0  0  0  0  0  0  0  0
    5.2205   -9.2442    0.0000 O   0  0  0  0  0  0  0  0  0  0  0  0
    3.7924  -13.3695    0.0000 C   0  0  2  0  0  0  0  0  0  0  0  0
    3.0685  -12.9739    0.0000 O   0  0  0  0  0  0  0  0  0  0  0  0
    2.3639  -13.4030    0.0000 C   0  0  1  0  0  0  0  0  0  0  0  0
    2.3832  -14.2278    0.0000 C   0  0  2  0  0  0  0  0  0  0  0  0
    3.1071  -14.6234    0.0000 C   0  0  1  0  0  0  0  0  0  0  0  0
    3.8117  -14.1943    0.0000 C   0  0  1  0  0  0  0  0  0  0  0  0
    1.6399  -13.0074    0.0000 C   0  0  0  0  0  0  0  0  0  0  0  0
    3.1265  -15.4482    0.0000 O   0  0  0  0  0  0  0  0  0  0  0  0
    4.5357  -14.5899    0.0000 O   0  0  0  0  0  0  0  0  0  0  0  0
    1.6786  -14.6569    0.0000 O   0  0  0  0  0  0  0  0  0  0  0  0
    0.9353  -13.4365    0.0000 O   0  0  0  0  0  0  0  0  0  0  0  0
   11.5208   -6.4463    0.0000 O   0  0  0  0  0  0  0  0  0  0  0  0
   12.7745   -7.1319    0.0000 O   0  0  0  0  0  0  0  0  0  0  0  0
   13.1703   -6.4080    0.0000 C   0  0  2  0  0  0  0  0  0  0  0  0
   13.9948   -6.3791    0.0000 O   0  0  0  0  0  0  0  0  0  0  0  0
   14.3820   -5.6506    0.0000 C   0  0  1  0  0  0  0  0  0  0  0  0
   13.9447   -4.9510    0.0000 C   0  0  2  0  0  0  0  0  0  0  0  0
   13.1202   -4.9799    0.0000 C   0  0  1  0  0  0  0  0  0  0  0  0
   12.7330   -5.7084    0.0000 C   0  0  1  0  0  0  0  0  0  0  0  0
   15.2065   -5.6216    0.0000 C   0  0  0  0  0  0  0  0  0  0  0  0
   12.6829   -4.2804    0.0000 O   0  0  0  0  0  0  0  0  0  0  0  0
   14.3319   -4.2225    0.0000 O   0  0  0  0  0  0  0  0  0  0  0  0
   11.9085   -5.7374    0.0000 O   0  0  0  0  0  0  0  0  0  0  0  0
   15.5937   -4.8931    0.0000 O   0  0  0  0  0  0  0  0  0  0  0  0
   16.4182   -4.8642    0.0000 C   0  0  2  0  0  0  0  0  0  0  0  0
   16.8336   -5.5770    0.0000 O   0  0  0  0  0  0  0  0  0  0  0  0
   17.6586   -5.5770    0.0000 C   0  0  1  0  0  0  0  0  0  0  0  0
   18.0682   -4.8642    0.0000 C   0  0  2  0  0  0  0  0  0  0  0  0
   17.6586   -4.1514    0.0000 C   0  0  1  0  0  0  0  0  0  0  0  0
   16.8336   -4.1514    0.0000 C   0  0  1  0  0  0  0  0  0  0  0  0
   18.0718   -6.2910    0.0000 C   0  0  0  0  0  0  0  0  0  0  0  0
   18.0718   -3.4374    0.0000 O   0  0  0  0  0  0  0  0  0  0  0  0
   18.8932   -4.8642    0.0000 O   0  0  0  0  0  0  0  0  0  0  0  0
   16.4226   -3.4361    0.0000 O   0  0  0  0  0  0  0  0  0  0  0  0
   18.8968   -6.2902    0.0000 O   0  0  0  0  0  0  0  0  0  0  0  0
 39 33  1  1  0  0  0
 42 34  1  6  0  0  0
 41 35  1  1  0  0  0
 40 36  1  6  0  0  0
 43 38  1  1  0  0  0
 38 37  1  0  0  0  0
 44 39  1  0  0  0  0
 40 39  1  0  0  0  0
 41 40  1  0  0  0  0
 42 41  1  0  0  0  0
 43 42  1  0  0  0  0
 44 43  1  0  0  0  0
  1  2  1  0  0  0  0
  2  3  1  0  0  0  0
  3  4  1  0  0  0  0
  4  5  1  0  0  0  0
  5  6  1  0  0  0  0
  6  7  1  0  0  0  0
  7  8  1  0  0  0  0
  8  9  1  0  0  0  0
  9 10  1  0  0  0  0
 10 11  1  0  0  0  0
 11 12  1  0  0  0  0
 12 13  1  0  0  0  0
 13 14  1  0  0  0  0
 14 15  1  0  0  0  0
 15 16  1  0  0  0  0
 16 17  1  0  0  0  0
 12 17  1  0  0  0  0
 17 18  1  0  0  0  0
  9 18  1  0  0  0  0
 18 19  2  0  0  0  0
 19 20  1  0  0  0  0
 20 21  1  0  0  0  0
  8 21  1  0  0  0  0
 21 22  1  0  0  0  0
  5 22  1  0  0  0  0
  1 22  1  0  0  0  0
 22 23  1  1  0  0  0
 15 24  1  1  0  0  0
 15 25  1  6  0  0  0
 12 26  1  1  0  0  0
  9 27  1  6  0  0  0
  8 28  1  1  0  0  0
  4 29  1  1  0  0  0
  3 33  1  1  0  0  0
  5 30  1  6  0  0  0
 17 31  1  1  0  0  0
 21 32  1  6  0  0  0
  4 45  1  6  0  0  0
 29 46  1  0  0  0  0
 38 47  2  0  0  0  0
 48 36  1  1  0  0  0
 48 49  1  0  0  0  0
 49 50  1  0  0  0  0
 50 51  1  0  0  0  0
 51 52  1  0  0  0  0
 52 53  1  0  0  0  0
 53 48  1  0  0  0  0
 50 54  1  1  0  0  0
 52 55  1  1  0  0  0
 53 56  1  6  0  0  0
 51 57  1  6  0  0  0
 54 58  1  0  0  0  0
 25 59  2  0  0  0  0
 25 60  1  0  0  0  0
 61 60  1  1  0  0  0
 61 62  1  0  0  0  0
 62 63  1  0  0  0  0
 63 64  1  0  0  0  0
 64 65  1  0  0  0  0
 65 66  1  0  0  0  0
 66 61  1  0  0  0  0
 63 67  1  1  0  0  0
 65 68  1  1  0  0  0
 64 69  1  6  0  0  0
 66 70  1  6  0  0  0
 67 71  1  0  0  0  0
 72 71  1  1  0  0  0
 72 73  1  0  0  0  0
 73 74  1  0  0  0  0
 74 75  1  0  0  0  0
 75 76  1  0  0  0  0
 76 77  1  0  0  0  0
 77 72  1  0  0  0  0
 74 78  1  1  0  0  0
 76 79  1  1  0  0  0
 75 80  1  6  0  0  0
 77 81  1  6  0  0  0
 78 82  1  0  0  0  0
M  END
>  <cdx:fragmentId>
94679

$$$$
