94215.cdx
  Mrv1902 05222410252D          

 23 25  0  0  0  0            999 V2000
    3.8068   -6.2012    0.0000 C   0  0  0  0  0  0  0  0  0  0  0  0
    3.8068   -7.0263    0.0000 C   0  0  0  0  0  0  0  0  0  0  0  0
    4.5213   -7.4387    0.0000 C   0  0  1  0  0  0  0  0  0  0  0  0
    5.2357   -7.0263    0.0000 C   0  0  1  0  0  0  0  0  0  0  0  0
    5.2357   -6.2012    0.0000 C   0  0  1  0  0  0  0  0  0  0  0  0
    4.5213   -5.7888    0.0000 C   0  0  2  0  0  0  0  0  0  0  0  0
    6.0204   -7.2812    0.0000 C   0  0  0  0  0  0  0  0  0  0  0  0
    6.5053   -6.6137    0.0000 N   0  0  0  0  0  0  0  0  0  0  0  0
    6.0204   -5.9463    0.0000 C   0  0  0  0  0  0  0  0  0  0  0  0
    6.2753   -5.1617    0.0000 O   0  0  0  0  0  0  0  0  0  0  0  0
    6.2753   -8.0658    0.0000 O   0  0  0  0  0  0  0  0  0  0  0  0
    4.3077   -6.5856    0.0000 O   0  0  0  0  0  0  0  0  0  0  0  0
    5.2357   -5.3763    0.0000 C   0  0  0  0  0  0  0  0  0  0  0  0
    5.2357   -7.8513    0.0000 C   0  0  0  0  0  0  0  0  0  0  0  0
    7.7097   -5.9021    0.0000 C   0  0  0  0  0  0  0  0  0  0  0  0
    7.3013   -6.6190    0.0000 C   0  0  0  0  0  0  0  0  0  0  0  0
    7.7180   -7.3310    0.0000 C   0  0  0  0  0  0  0  0  0  0  0  0
    7.2931   -5.1900    0.0000 O   0  0  0  0  0  0  0  0  0  0  0  0
    8.5347   -5.8973    0.0000 O   0  0  0  0  0  0  0  0  0  0  0  0
    7.3096   -8.0479    0.0000 C   0  0  0  0  0  0  0  0  0  0  0  0
    7.7263   -8.7599    0.0000 C   0  0  0  0  0  0  0  0  0  0  0  0
    7.3179   -9.4768    0.0000 O   0  0  0  0  0  0  0  0  0  0  0  0
    8.5513   -8.7552    0.0000 N   0  0  0  0  0  0  0  0  0  0  0  0
  1  2  1  0  0  0  0
  2  3  1  0  0  0  0
  3  4  1  0  0  0  0
  4  5  1  0  0  0  0
  5  6  1  0  0  0  0
  6  1  1  0  0  0  0
  4  7  1  0  0  0  0
  7  8  1  0  0  0  0
  8  9  1  0  0  0  0
  9  5  1  0  0  0  0
  9 10  2  0  0  0  0
  7 11  2  0  0  0  0
  6 12  1  1  0  0  0
  3 12  1  1  0  0  0
  5 13  1  6  0  0  0
  4 14  1  6  0  0  0
 15 16  1  0  0  0  0
 16 17  1  0  0  0  0
 16  8  1  0  0  0  0
 15 18  2  0  0  0  0
 15 19  1  0  0  0  0
 17 20  1  0  0  0  0
 20 21  1  0  0  0  0
 21 22  2  0  0  0  0
 21 23  1  0  0  0  0
M  END
>  <cdx:fragmentId>
380

$$$$
