94225.cdx
  Mrv1902 05222410202D          

 20 22  0  0  0  0            999 V2000
    4.2331   -6.9025    0.0000 C   0  0  0  0  0  0  0  0  0  0  0  0
    4.2331   -7.7275    0.0000 C   0  0  0  0  0  0  0  0  0  0  0  0
    4.9475   -8.1400    0.0000 C   0  0  1  0  0  0  0  0  0  0  0  0
    5.6620   -7.7275    0.0000 C   0  0  1  0  0  0  0  0  0  0  0  0
    5.6620   -6.9025    0.0000 C   0  0  1  0  0  0  0  0  0  0  0  0
    4.9475   -6.4900    0.0000 C   0  0  2  0  0  0  0  0  0  0  0  0
    6.4466   -7.9824    0.0000 C   0  0  0  0  0  0  0  0  0  0  0  0
    6.9315   -7.3150    0.0000 N   0  0  0  0  0  0  0  0  0  0  0  0
    6.4466   -6.6476    0.0000 C   0  0  0  0  0  0  0  0  0  0  0  0
    6.7016   -5.8629    0.0000 O   0  0  0  0  0  0  0  0  0  0  0  0
    6.7016   -8.7671    0.0000 O   0  0  0  0  0  0  0  0  0  0  0  0
    4.7340   -7.2869    0.0000 O   0  0  0  0  0  0  0  0  0  0  0  0
    5.6620   -6.0775    0.0000 C   0  0  0  0  0  0  0  0  0  0  0  0
    5.6620   -8.5525    0.0000 C   0  0  0  0  0  0  0  0  0  0  0  0
    8.1325   -6.5918    0.0000 C   0  0  0  0  0  0  0  0  0  0  0  0
    7.7188   -7.3055    0.0000 C   0  0  0  0  0  0  0  0  0  0  0  0
    8.1300   -8.0207    0.0000 C   0  0  0  0  0  0  0  0  0  0  0  0
    7.7163   -8.7345    0.0000 O   0  0  0  0  0  0  0  0  0  0  0  0
    7.7213   -5.8766    0.0000 O   0  0  0  0  0  0  0  0  0  0  0  0
    8.9575   -6.5932    0.0000 O   0  0  0  0  0  0  0  0  0  0  0  0
  1  2  1  0  0  0  0
  2  3  1  0  0  0  0
  3  4  1  0  0  0  0
  4  5  1  0  0  0  0
  5  6  1  0  0  0  0
  6  1  1  0  0  0  0
  4  7  1  0  0  0  0
  7  8  1  0  0  0  0
  8  9  1  0  0  0  0
  9  5  1  0  0  0  0
  9 10  2  0  0  0  0
  7 11  2  0  0  0  0
  6 12  1  1  0  0  0
  3 12  1  1  0  0  0
  5 13  1  6  0  0  0
  4 14  1  6  0  0  0
 15 16  1  0  0  0  0
 16 17  1  0  0  0  0
 16  8  1  0  0  0  0
 17 18  1  0  0  0  0
 15 19  2  0  0  0  0
 15 20  1  0  0  0  0
M  END
>  <cdx:fragmentId>
380

$$$$
