9942292.cdx
  Mrv1902 05222410222D          

 13 13  0  0  0  0            999 V2000
   10.1164   -6.1704    0.0000 C   0  0  0  0  0  0  0  0  0  0  0  0
    9.4019   -5.7579    0.0000 C   0  0  0  0  0  0  0  0  0  0  0  0
    8.6874   -6.1704    0.0000 C   0  0  0  0  0  0  0  0  0  0  0  0
    7.9730   -5.7579    0.0000 C   0  0  0  0  0  0  0  0  0  0  0  0
    9.4019   -4.9329    0.0000 O   0  0  0  0  0  0  0  0  0  0  0  0
    7.2585   -6.1704    0.0000 C   0  0  0  0  0  0  0  0  0  0  0  0
    6.5440   -5.7579    0.0000 C   0  0  0  0  0  0  0  0  0  0  0  0
    5.8296   -6.1704    0.0000 C   0  0  0  0  0  0  0  0  0  0  0  0
    5.8296   -6.9954    0.0000 C   0  0  0  0  0  0  0  0  0  0  0  0
    6.5440   -7.4079    0.0000 C   0  0  0  0  0  0  0  0  0  0  0  0
    7.2585   -6.9954    0.0000 C   0  0  0  0  0  0  0  0  0  0  0  0
    5.1151   -7.4079    0.0000 O   0  0  0  0  0  0  0  0  0  0  0  0
    5.1151   -5.7579    0.0000 O   0  0  0  0  0  0  0  0  0  0  0  0
  1  2  1  0  0  0  0
  2  3  1  0  0  0  0
  3  4  2  0  0  0  0
  2  5  2  0  0  0  0
  6  7  1  0  0  0  0
  7  8  2  0  0  0  0
  8  9  1  0  0  0  0
  9 10  2  0  0  0  0
 10 11  1  0  0  0  0
  6 11  2  0  0  0  0
  9 12  1  0  0  0  0
  8 13  1  0  0  0  0
  4  6  1  0  0  0  0
M  END
>  <cdx:groupId>
41

>  <cdx:fragmentId>
15

$$$$
