94230.cdx
  Mrv1902 05222410212D          

 25 28  0  0  0  0            999 V2000
    3.9856   -5.7750    0.0000 C   0  0  0  0  0  0  0  0  0  0  0  0
    3.9856   -6.6000    0.0000 C   0  0  0  0  0  0  0  0  0  0  0  0
    4.7000   -7.0125    0.0000 C   0  0  0  0  0  0  0  0  0  0  0  0
    5.4145   -6.6000    0.0000 C   0  0  0  0  0  0  0  0  0  0  0  0
    5.4145   -5.7750    0.0000 C   0  0  0  0  0  0  0  0  0  0  0  0
    4.7000   -5.3625    0.0000 C   0  0  0  0  0  0  0  0  0  0  0  0
    6.1290   -7.0125    0.0000 C   0  0  0  0  0  0  0  0  0  0  0  0
    6.8434   -6.6000    0.0000 C   0  0  0  0  0  0  0  0  0  0  0  0
    6.8434   -5.7750    0.0000 C   0  0  0  0  0  0  0  0  0  0  0  0
    6.1290   -5.3625    0.0000 O   0  0  0  0  0  0  0  0  0  0  0  0
    7.5579   -7.0125    0.0000 C   0  0  0  0  0  0  0  0  0  0  0  0
    8.2724   -6.6000    0.0000 C   0  0  0  0  0  0  0  0  0  0  0  0
    8.2724   -5.7750    0.0000 C   0  0  0  0  0  0  0  0  0  0  0  0
    8.9869   -7.0125    0.0000 C   0  0  0  0  0  0  0  0  0  0  0  0
    9.7013   -6.6000    0.0000 C   0  0  0  0  0  0  0  0  0  0  0  0
    9.7013   -5.7750    0.0000 C   0  0  0  0  0  0  0  0  0  0  0  0
    8.9869   -5.3625    0.0000 C   0  0  0  0  0  0  0  0  0  0  0  0
    6.1290   -7.8375    0.0000 O   0  0  0  0  0  0  0  0  0  0  0  0
    4.7000   -7.8375    0.0000 O   0  0  0  0  0  0  0  0  0  0  0  0
    3.2711   -5.3625    0.0000 O   0  0  0  0  0  0  0  0  0  0  0  0
    8.9869   -7.8375    0.0000 O   0  0  0  0  0  0  0  0  0  0  0  0
    3.2711   -7.0125    0.0000 C   0  0  0  0  0  0  0  0  0  0  0  0
   10.4859   -6.8549    0.0000 O   0  0  0  0  0  0  0  0  0  0  0  0
   10.9709   -6.1875    0.0000 C   0  0  0  0  0  0  0  0  0  0  0  0
   10.4859   -5.5201    0.0000 O   0  0  0  0  0  0  0  0  0  0  0  0
  1  2  2  0  0  0  0
  2  3  1  0  0  0  0
  3  4  2  0  0  0  0
  4  5  1  0  0  0  0
  5  6  2  0  0  0  0
  6  1  1  0  0  0  0
  4  7  1  0  0  0  0
  7  8  1  0  0  0  0
  8  9  1  0  0  0  0
  9 10  1  0  0  0  0
 10  5  1  0  0  0  0
  8 11  1  0  0  0  0
 11 12  1  0  0  0  0
 12 13  2  0  0  0  0
 12 14  1  0  0  0  0
 14 15  2  0  0  0  0
 15 16  1  0  0  0  0
 16 17  2  0  0  0  0
 17 13  1  0  0  0  0
  7 18  2  0  0  0  0
  3 19  1  0  0  0  0
  1 20  1  0  0  0  0
 14 21  1  0  0  0  0
  2 22  1  0  0  0  0
 15 23  1  0  0  0  0
 23 24  1  0  0  0  0
 24 25  1  0  0  0  0
 25 16  1  0  0  0  0
M  END
>  <cdx:fragmentId>
5

$$$$
