9423.cdx
  Mrv1902 05222410192D          

 42 47  0  0  0  0            999 V2000
   17.9875  -10.0426    0.0000 H   0  0  0  0  0  0  0  0  0  0  0  0
   16.1234   -8.6221    0.0000 H   0  0  0  0  0  0  0  0  0  0  0  0
   17.2533   -6.4011    0.0000 C   0  0  0  0  0  0  0  0  0  0  0  0
   19.4901   -7.5955    0.0000 C   0  0  0  0  0  0  0  0  0  0  0  0
   18.2482   -9.4435    0.0000 C   0  0  0  0  0  0  0  0  0  0  0  0
   16.7301  -10.9227    0.0000 C   0  0  0  0  0  0  0  0  0  0  0  0
   17.3833   -7.2159    0.0000 C   0  0  0  0  0  0  0  0  0  0  0  0
   14.4166  -10.5456    0.0000 C   0  0  1  0  0  0  0  0  0  0  0  0
   18.5734   -6.6051    0.0000 C   0  0  1  0  0  0  0  0  0  0  0  0
   18.7504   -7.9668    0.0000 C   0  0  2  0  0  0  0  0  0  0  0  0
   15.9494   -8.8122    0.0000 C   0  0  0  0  0  0  0  0  0  0  0  0
   16.6736   -7.6460    0.0000 C   0  0  0  0  0  0  0  0  0  0  0  0
   14.4044   -9.6452    0.0000 C   0  0  1  0  0  0  0  0  0  0  0  0
   15.2059  -10.9791    0.0000 C   0  0  0  0  0  0  0  0  0  0  0  0
   17.4659  -10.4689    0.0000 C   0  0  0  0  0  0  0  0  0  0  0  0
   18.2036   -7.3425    0.0000 C   0  0  1  0  0  0  0  0  0  0  0  0
   16.4063   -8.4317    0.0000 C   0  0  0  0  0  0  0  0  0  0  0  0
   15.1816   -9.1903    0.0000 C   0  0  0  0  0  0  0  0  0  0  0  0
   15.9724  -10.5065    0.0000 C   0  0  0  0  0  0  0  0  0  0  0  0
   17.4342   -9.6050    0.0000 C   0  0  2  0  0  0  0  0  0  0  0  0
   16.7068   -9.2054    0.0000 C   0  0  1  0  0  0  0  0  0  0  0  0
   15.9606   -9.6420    0.0000 C   0  0  2  0  0  0  0  0  0  0  0  0
   18.6784  -10.1533    0.0000 O   0  0  0  0  0  0  0  0  0  0  0  0
   13.7052  -10.9730    0.0000 O   0  0  0  0  0  0  0  0  0  0  0  0
   17.9873   -6.0244    0.0000 O   0  0  0  0  0  0  0  0  0  0  0  0
   19.3834   -6.7748    0.0000 O   0  0  0  0  0  0  0  0  0  0  0  0
   18.7681   -8.7966    0.0000 O   0  0  0  0  0  0  0  0  0  0  0  0
   19.4649   -8.3793    0.0000 H   0  0  0  0  0  0  0  0  0  0  0  0
   17.7911   -6.6280    0.0000 H   0  0  0  0  0  0  0  0  0  0  0  0
   18.9859   -5.8906    0.0000 C   0  0  0  0  0  0  0  0  0  0  0  0
   12.9837  -10.5730    0.0000 C   0  0  2  0  0  0  0  0  0  0  0  0
   12.9620   -9.7483    0.0000 O   0  0  0  0  0  0  0  0  0  0  0  0
   12.2369   -9.3548    0.0000 C   0  0  1  0  0  0  0  0  0  0  0  0
   11.5335   -9.7859    0.0000 C   0  0  2  0  0  0  0  0  0  0  0  0
   11.5335  -10.6106    0.0000 C   0  0  1  0  0  0  0  0  0  0  0  0
   12.2369  -11.0042    0.0000 C   0  0  1  0  0  0  0  0  0  0  0  0
   12.2152   -8.5300    0.0000 C   0  0  0  0  0  0  0  0  0  0  0  0
   10.8218  -11.0279    0.0000 O   0  0  0  0  0  0  0  0  0  0  0  0
   12.2424  -11.8292    0.0000 O   0  0  0  0  0  0  0  0  0  0  0  0
   10.8274  -11.8529    0.0000 C   0  0  0  0  0  0  0  0  0  0  0  0
   10.8137   -9.3828    0.0000 O   0  0  0  0  0  0  0  0  0  0  0  0
   13.6860   -9.2396    0.0000 O   0  0  0  0  0  0  0  0  0  0  0  0
  7  3  2  0  0  0  0
 10  4  1  0  0  0  0
 12  7  1  0  0  0  0
 13  8  1  0  0  0  0
 14  8  1  0  0  0  0
 15  6  1  0  0  0  0
 16  7  1  0  0  0  0
 16  9  1  0  0  0  0
 16 10  1  0  0  0  0
 17 12  1  0  0  0  0
 18 13  1  0  0  0  0
 19  6  2  0  0  0  0
 19 14  1  0  0  0  0
 20  1  1  1  0  0  0
 20  5  1  0  0  0  0
 20 15  1  0  0  0  0
 21  2  1  6  0  0  0
 21 17  1  0  0  0  0
 21 20  1  0  0  0  0
 22 11  1  1  0  0  0
 22 18  1  0  0  0  0
 22 19  1  0  0  0  0
 22 21  1  0  0  0  0
 23  5  2  0  0  0  0
  8 24  1  1  0  0  0
 25  3  1  0  0  0  0
 25  9  1  0  0  0  0
 26  4  1  0  0  0  0
 26  9  1  0  0  0  0
 27  5  1  0  0  0  0
 27 10  1  0  0  0  0
 10 28  1  6  0  0  0
 16 29  1  6  0  0  0
  9 30  1  6  0  0  0
 31 24  1  1  0  0  0
 31 32  1  0  0  0  0
 32 33  1  0  0  0  0
 33 34  1  0  0  0  0
 34 35  1  0  0  0  0
 35 36  1  0  0  0  0
 36 31  1  0  0  0  0
 33 37  1  1  0  0  0
 35 38  1  1  0  0  0
 34 41  1  6  0  0  0
 36 39  1  6  0  0  0
 38 40  1  0  0  0  0
 13 42  1  6  0  0  0
M  END
>  <cdx:fragmentId>
1

$$$$
