94249.cdx
  Mrv1902 05222410272D          

 13 14  0  0  0  0            999 V2000
    4.9800   -2.0652    0.0000 C   0  0  0  0  0  0  0  0  0  0  0  0
    5.6945   -2.4777    0.0000 C   0  0  0  0  0  0  0  0  0  0  0  0
    5.6945   -3.3027    0.0000 C   0  0  0  0  0  0  0  0  0  0  0  0
    4.9800   -3.7152    0.0000 C   0  0  0  0  0  0  0  0  0  0  0  0
    4.2655   -3.3027    0.0000 C   0  0  2  0  0  0  0  0  0  0  0  0
    3.5510   -3.7152    0.0000 C   0  0  0  0  0  0  0  0  0  0  0  0
    2.8366   -3.3027    0.0000 C   0  0  0  0  0  0  0  0  0  0  0  0
    2.8366   -2.4777    0.0000 C   0  0  0  0  0  0  0  0  0  0  0  0
    3.5510   -2.0652    0.0000 C   0  0  0  0  0  0  0  0  0  0  0  0
    4.2655   -2.4777    0.0000 C   0  0  1  0  0  0  0  0  0  0  0  0
    6.4089   -2.0652    0.0000 C   0  0  0  0  0  0  0  0  0  0  0  0
    4.2655   -4.1277    0.0000 H   0  0  0  0  0  0  0  0  0  0  0  0
    4.2655   -1.6527    0.0000 H   0  0  0  0  0  0  0  0  0  0  0  0
  1  2  1  0  0  0  0
  2  3  1  0  0  0  0
  3  4  1  0  0  0  0
  4  5  1  0  0  0  0
  5  6  1  0  0  0  0
  6  7  1  0  0  0  0
  7  8  1  0  0  0  0
  8  9  1  0  0  0  0
  9 10  1  0  0  0  0
  1 10  1  0  0  0  0
  5 10  1  0  0  0  0
  2 11  1  0  0  0  0
  5 12  1  1  0  0  0
 10 13  1  6  0  0  0
M  END
>  <cdx:groupId>
39

>  <cdx:fragmentId>
5

$$$$
