94248.cdx
  Mrv1902 05222410272D          

 33 36  0  0  0  0            999 V2000
    8.6881   -6.5587    0.0000 C   0  0  0  0  0  0  0  0  0  0  0  0
    8.6881   -7.3838    0.0000 C   0  0  0  0  0  0  0  0  0  0  0  0
    9.4025   -7.7963    0.0000 C   0  0  0  0  0  0  0  0  0  0  0  0
   10.1170   -7.3838    0.0000 C   0  0  0  0  0  0  0  0  0  0  0  0
   10.1170   -6.5587    0.0000 C   0  0  0  0  0  0  0  0  0  0  0  0
    9.4025   -6.1463    0.0000 C   0  0  0  0  0  0  0  0  0  0  0  0
   10.8315   -7.7963    0.0000 O   0  0  0  0  0  0  0  0  0  0  0  0
   11.5459   -7.3838    0.0000 C   0  0  0  0  0  0  0  0  0  0  0  0
   11.5459   -6.5587    0.0000 C   0  0  0  0  0  0  0  0  0  0  0  0
   10.8315   -6.1463    0.0000 C   0  0  0  0  0  0  0  0  0  0  0  0
    7.9034   -6.3038    0.0000 C   0  0  0  0  0  0  0  0  0  0  0  0
    7.4185   -6.9712    0.0000 C   0  0  2  0  0  0  0  0  0  0  0  0
    7.9034   -7.6387    0.0000 O   0  0  0  0  0  0  0  0  0  0  0  0
    9.4025   -5.3213    0.0000 O   0  0  0  0  0  0  0  0  0  0  0  0
    8.6881   -4.9088    0.0000 C   0  0  0  0  0  0  0  0  0  0  0  0
   10.8315   -5.3213    0.0000 O   0  0  0  0  0  0  0  0  0  0  0  0
   12.2604   -7.7963    0.0000 C   0  0  0  0  0  0  0  0  0  0  0  0
    6.5935   -6.9712    0.0000 C   0  0  0  0  0  0  0  0  0  0  0  0
    6.5935   -7.7962    0.0000 C   0  0  0  0  0  0  0  0  0  0  0  0
    6.5935   -6.1463    0.0000 C   0  0  0  0  0  0  0  0  0  0  0  0
    5.7685   -6.9712    0.0000 O   0  0  0  0  0  0  0  0  0  0  0  0
    5.0540   -7.3838    0.0000 C   0  0  2  0  0  0  0  0  0  0  0  0
    4.3396   -6.9712    0.0000 O   0  0  0  0  0  0  0  0  0  0  0  0
    3.6251   -7.3838    0.0000 C   0  0  1  0  0  0  0  0  0  0  0  0
    3.6251   -8.2088    0.0000 C   0  0  2  0  0  0  0  0  0  0  0  0
    4.3396   -8.6212    0.0000 C   0  0  1  0  0  0  0  0  0  0  0  0
    5.0540   -8.2088    0.0000 C   0  0  1  0  0  0  0  0  0  0  0  0
    2.9106   -6.9712    0.0000 C   0  0  0  0  0  0  0  0  0  0  0  0
    4.3396   -9.4462    0.0000 O   0  0  0  0  0  0  0  0  0  0  0  0
    2.9106   -8.6212    0.0000 O   0  0  0  0  0  0  0  0  0  0  0  0
    5.7685   -8.6212    0.0000 O   0  0  0  0  0  0  0  0  0  0  0  0
    2.1962   -7.3838    0.0000 O   0  0  0  0  0  0  0  0  0  0  0  0
    7.0060   -7.6857    0.0000 H   0  0  0  0  0  0  0  0  0  0  0  0
  1  2  2  0  0  0  0
  2  3  1  0  0  0  0
  3  4  2  0  0  0  0
  4  5  1  0  0  0  0
  5  6  2  0  0  0  0
  6  1  1  0  0  0  0
  4  7  1  0  0  0  0
  7  8  1  0  0  0  0
  8  9  2  0  0  0  0
  9 10  1  0  0  0  0
 10  5  1  0  0  0  0
  1 11  1  0  0  0  0
 11 12  1  0  0  0  0
 12 13  1  0  0  0  0
 13  2  1  0  0  0  0
  6 14  1  0  0  0  0
 14 15  1  0  0  0  0
 10 16  2  0  0  0  0
  8 17  1  0  0  0  0
 12 18  1  0  0  0  0
 18 19  1  0  0  0  0
 18 20  1  0  0  0  0
 18 21  1  0  0  0  0
 22 21  1  1  0  0  0
 22 23  1  0  0  0  0
 23 24  1  0  0  0  0
 24 25  1  0  0  0  0
 25 26  1  0  0  0  0
 26 27  1  0  0  0  0
 27 22  1  0  0  0  0
 24 28  1  1  0  0  0
 26 29  1  1  0  0  0
 25 30  1  6  0  0  0
 27 31  1  6  0  0  0
 28 32  1  0  0  0  0
 12 33  1  1  0  0  0
M  END
>  <cdx:fragmentId>
5

$$$$
