94244.cdx
  Mrv1902 05222410192D          

 15 16  0  0  0  0            999 V2000
    5.7759   -7.9268    0.0000 C   0  0  0  0  0  0  0  0  0  0  0  0
    4.9509   -7.9268    0.0000 C   0  0  0  0  0  0  0  0  0  0  0  0
    6.1884   -7.2124    0.0000 O   0  0  0  0  0  0  0  0  0  0  0  0
    6.1884   -8.6413    0.0000 O   0  0  0  0  0  0  0  0  0  0  0  0
    8.2829   -8.2288    0.0000 C   0  0  1  0  0  0  0  0  0  0  0  0
    7.4983   -7.9739    0.0000 C   0  0  0  0  0  0  0  0  0  0  0  0
    7.0134   -8.6413    0.0000 C   0  0  1  0  0  0  0  0  0  0  0  0
    7.4983   -9.3087    0.0000 C   0  0  0  0  0  0  0  0  0  0  0  0
    8.2829   -9.0538    0.0000 C   0  0  1  0  0  0  0  0  0  0  0  0
    8.9974   -8.6413    0.0000 C   0  0  0  0  0  0  0  0  0  0  0  0
    7.2434  -10.0934    0.0000 C   0  0  0  0  0  0  0  0  0  0  0  0
    8.6185   -7.4751    0.0000 C   0  0  0  0  0  0  0  0  0  0  0  0
    8.1336   -6.8077    0.0000 C   0  0  0  0  0  0  0  0  0  0  0  0
    9.4390   -7.3889    0.0000 C   0  0  0  0  0  0  0  0  0  0  0  0
    8.6185   -9.8075    0.0000 H   0  0  0  0  0  0  0  0  0  0  0  0
  1  2  1  0  0  0  0
  1  3  2  0  0  0  0
  1  4  1  0  0  0  0
  5  6  1  0  0  0  0
  6  7  1  0  0  0  0
  7  8  1  0  0  0  0
  8  9  1  0  0  0  0
  9 10  1  0  0  0  0
  5 10  1  0  0  0  0
  5  9  1  0  0  0  0
  8 11  2  0  0  0  0
 12 13  1  0  0  0  0
 12 14  1  0  0  0  0
  5 12  1  1  0  0  0
  7  4  1  1  0  0  0
  9 15  1  1  0  0  0
M  END
>  <cdx:groupId>
48

>  <cdx:fragmentId>
13

$$$$
