94245.cdx
  Mrv1902 05222410182D          

 12 12  0  0  0  0            999 V2000
    9.8148   -8.6333    0.0000 C   0  0  0  0  0  0  0  0  0  0  0  0
    9.1003   -9.0458    0.0000 C   0  0  0  0  0  0  0  0  0  0  0  0
    8.3858   -8.6333    0.0000 C   0  0  0  0  0  0  0  0  0  0  0  0
    7.6714   -9.0458    0.0000 C   0  0  0  0  0  0  0  0  0  0  0  0
    4.8307   -8.4420    0.0000 O   0  0  0  0  0  0  0  0  0  0  0  0
    6.0317   -9.7758    0.0000 C   0  0  0  0  0  0  0  0  0  0  0  0
    7.4838   -7.2608    0.0000 O   0  0  0  0  0  0  0  0  0  0  0  0
    6.0637   -7.6413    0.0000 C   0  0  0  0  0  0  0  0  0  0  0  0
    5.6512   -8.3558    0.0000 C   0  0  0  0  0  0  0  0  0  0  0  0
    6.2032   -8.9688    0.0000 C   0  0  0  0  0  0  0  0  0  0  0  0
    6.9569   -8.6333    0.0000 C   0  0  0  0  0  0  0  0  0  0  0  0
    6.8707   -7.8128    0.0000 C   0  0  0  0  0  0  0  0  0  0  0  0
 11  4  1  0  0  0  0
  2  1  1  0  0  0  0
  3  2  2  0  0  0  0
  4  3  1  0  0  0  0
  9  5  1  0  0  0  0
 10  6  1  0  0  0  0
 12  7  2  0  0  0  0
 12  8  1  0  0  0  0
  9  8  1  0  0  0  0
 10  9  1  0  0  0  0
 11 10  2  0  0  0  0
 12 11  1  0  0  0  0
M  END
>  <cdx:fragmentId>
5

$$$$
