94241.cdx
  Mrv1902 05222410192D          

 34 37  0  0  0  0            999 V2000
    5.0077   -8.1410    0.0000 C   0  0  0  0  0  0  0  0  0  0  0  0
    4.2932   -8.5535    0.0000 C   0  0  0  0  0  0  0  0  0  0  0  0
    4.2932   -9.3785    0.0000 C   0  0  1  0  0  0  0  0  0  0  0  0
    5.0077   -9.7910    0.0000 C   0  0  0  0  0  0  0  0  0  0  0  0
    5.7222   -9.3785    0.0000 C   0  0  2  0  0  0  0  0  0  0  0  0
    6.4366   -9.7910    0.0000 C   0  0  0  0  0  0  0  0  0  0  0  0
    7.1511   -9.3785    0.0000 C   0  0  0  0  0  0  0  0  0  0  0  0
    7.1511   -8.5535    0.0000 C   0  0  0  0  0  0  0  0  0  0  0  0
    7.8656   -8.1410    0.0000 C   0  0  2  0  0  0  0  0  0  0  0  0
    8.6502   -8.3959    0.0000 C   0  0  0  0  0  0  0  0  0  0  0  0
    9.1351   -7.7285    0.0000 C   0  0  0  0  0  0  0  0  0  0  0  0
    8.6502   -7.0610    0.0000 C   0  0  1  0  0  0  0  0  0  0  0  0
    7.8656   -7.3160    0.0000 C   0  0  1  0  0  0  0  0  0  0  0  0
    7.1511   -6.9035    0.0000 C   0  0  0  0  0  0  0  0  0  0  0  0
    6.4366   -7.3160    0.0000 C   0  0  0  0  0  0  0  0  0  0  0  0
    6.4366   -8.1410    0.0000 C   0  0  2  0  0  0  0  0  0  0  0  0
    5.7222   -8.5535    0.0000 C   0  0  1  0  0  0  0  0  0  0  0  0
    3.5788   -9.7910    0.0000 O   0  0  0  0  0  0  0  0  0  0  0  0
    7.9518   -6.4955    0.0000 C   0  0  0  0  0  0  0  0  0  0  0  0
    5.7222   -7.7285    0.0000 C   0  0  0  0  0  0  0  0  0  0  0  0
    8.3531   -5.6633    0.0000 C   0  0  0  0  0  0  0  0  0  0  0  0
    8.9051   -6.2764    0.0000 C   0  0  2  0  0  0  0  0  0  0  0  0
    9.7121   -6.1049    0.0000 C   0  0  0  0  0  0  0  0  0  0  0  0
    9.9671   -5.3202    0.0000 C   0  0  0  0  0  0  0  0  0  0  0  0
   10.7740   -5.1487    0.0000 C   0  0  1  0  0  0  0  0  0  0  0  0
   11.0290   -4.3641    0.0000 C   0  0  0  0  0  0  0  0  0  0  0  0
   10.4769   -3.7510    0.0000 C   0  0  0  0  0  0  0  0  0  0  0  0
   11.8359   -4.1926    0.0000 C   0  0  0  0  0  0  0  0  0  0  0  0
   11.3261   -5.7618    0.0000 C   0  0  0  0  0  0  0  0  0  0  0  0
   12.1330   -5.5903    0.0000 C   0  0  0  0  0  0  0  0  0  0  0  0
    5.7222  -10.2035    0.0000 H   0  0  0  0  0  0  0  0  0  0  0  0
    6.4366   -8.9660    0.0000 H   0  0  0  0  0  0  0  0  0  0  0  0
    7.8656   -8.9660    0.0000 H   0  0  0  0  0  0  0  0  0  0  0  0
    9.4650   -6.9320    0.0000 H   0  0  0  0  0  0  0  0  0  0  0  0
  1  2  1  0  0  0  0
  2  3  1  0  0  0  0
  3  4  1  0  0  0  0
  4  5  1  0  0  0  0
  5  6  1  0  0  0  0
  6  7  1  0  0  0  0
  7  8  2  0  0  0  0
  8  9  1  0  0  0  0
  9 10  1  0  0  0  0
 10 11  1  0  0  0  0
 12 11  1  0  0  0  0
 12 13  1  0  0  0  0
  9 13  1  0  0  0  0
 13 14  1  0  0  0  0
 14 15  1  0  0  0  0
 15 16  1  0  0  0  0
  8 16  1  0  0  0  0
 16 17  1  0  0  0  0
  5 17  1  0  0  0  0
  1 17  1  0  0  0  0
  3 18  1  1  0  0  0
 13 19  1  1  0  0  0
 17 20  1  1  0  0  0
 22 21  1  6  0  0  0
 22 23  1  0  0  0  0
 23 24  1  0  0  0  0
 25 24  1  1  0  0  0
 25 26  1  0  0  0  0
 26 27  1  0  0  0  0
 26 28  1  0  0  0  0
 29 30  1  0  0  0  0
 25 29  1  0  0  0  0
 12 22  1  0  0  0  0
  5 31  1  6  0  0  0
 16 32  1  6  0  0  0
  9 33  1  6  0  0  0
 12 34  1  6  0  0  0
M  END
>  <cdx:groupId>
104

>  <cdx:fragmentId>
5

$$$$
