94246.cdx
  Mrv1902 05222410182D          

 14 14  0  0  0  0            999 V2000
    6.8384   -8.4642    0.0000 C   0  0  0  0  0  0  0  0  0  0  0  0
    6.8384   -7.6392    0.0000 C   0  0  0  0  0  0  0  0  0  0  0  0
    7.5529   -7.2267    0.0000 C   0  0  0  0  0  0  0  0  0  0  0  0
    8.2674   -7.6392    0.0000 C   0  0  0  0  0  0  0  0  0  0  0  0
    8.2674   -8.4642    0.0000 C   0  0  0  0  0  0  0  0  0  0  0  0
    7.5529   -8.8767    0.0000 C   0  0  0  0  0  0  0  0  0  0  0  0
    8.9818   -8.8767    0.0000 C   0  0  0  0  0  0  0  0  0  0  0  0
    8.9818   -9.7017    0.0000 C   0  0  0  0  0  0  0  0  0  0  0  0
    9.6963   -8.4642    0.0000 C   0  0  0  0  0  0  0  0  0  0  0  0
    6.1239   -7.2267    0.0000 C   0  0  0  0  0  0  0  0  0  0  0  0
    5.4095   -8.4642    0.0000 C   0  0  0  0  0  0  0  0  0  0  0  0
    4.6950   -8.8767    0.0000 C   0  0  0  0  0  0  0  0  0  0  0  0
    5.4095   -7.6392    0.0000 O   0  0  0  0  0  0  0  0  0  0  0  0
    6.1239   -8.8767    0.0000 O   0  0  0  0  0  0  0  0  0  0  0  0
  1  2  1  0  0  0  0
  2  3  2  0  0  0  0
  3  4  1  0  0  0  0
  4  5  1  0  0  0  0
  5  6  1  0  0  0  0
  1  6  1  0  0  0  0
  7  8  2  0  0  0  0
  7  9  1  0  0  0  0
  5  7  1  0  0  0  0
  2 10  1  0  0  0  0
 11 12  1  0  0  0  0
 11 13  2  0  0  0  0
 11 14  1  0  0  0  0
  1 14  1  0  0  0  0
M  END
>  <cdx:groupId>
44

>  <cdx:fragmentId>
5

$$$$
