94256.cdx
  Mrv1902 05222410202D          

 24 25  0  0  0  0            999 V2000
    7.6431   -5.9262    0.0000 C   0  0  2  0  0  0  0  0  0  0  0  0
    7.6431   -6.7512    0.0000 C   0  0  2  0  0  0  0  0  0  0  0  0
    8.3575   -7.1638    0.0000 C   0  0  1  0  0  0  0  0  0  0  0  0
    9.0720   -6.7512    0.0000 C   0  0  2  0  0  0  0  0  0  0  0  0
    9.0720   -5.9262    0.0000 C   0  0  1  0  0  0  0  0  0  0  0  0
    8.3575   -5.5137    0.0000 O   0  0  0  0  0  0  0  0  0  0  0  0
    9.7865   -5.5137    0.0000 C   0  0  0  0  0  0  0  0  0  0  0  0
    8.3575   -7.9888    0.0000 O   0  0  0  0  0  0  0  0  0  0  0  0
    6.9286   -5.5137    0.0000 O   0  0  0  0  0  0  0  0  0  0  0  0
    6.9286   -7.1638    0.0000 O   0  0  0  0  0  0  0  0  0  0  0  0
    9.7865   -7.1638    0.0000 O   0  0  0  0  0  0  0  0  0  0  0  0
   10.5009   -5.9262    0.0000 O   0  0  0  0  0  0  0  0  0  0  0  0
    6.2141   -5.9262    0.0000 C   0  0  0  0  0  0  0  0  0  0  0  0
    5.4996   -5.5137    0.0000 C   0  0  0  0  0  0  0  0  0  0  0  0
    4.7852   -5.9262    0.0000 C   0  0  0  0  0  0  0  0  0  0  0  0
    4.0315   -5.5907    0.0000 C   0  0  0  0  0  0  0  0  0  0  0  0
    3.4795   -6.2038    0.0000 C   0  0  0  0  0  0  0  0  0  0  0  0
    3.8920   -6.9183    0.0000 C   0  0  0  0  0  0  0  0  0  0  0  0
    4.6989   -6.7467    0.0000 C   0  0  0  0  0  0  0  0  0  0  0  0
    3.8600   -4.7837    0.0000 O   0  0  0  0  0  0  0  0  0  0  0  0
    3.5564   -7.6719    0.0000 C   0  0  0  0  0  0  0  0  0  0  0  0
    2.7314   -7.6719    0.0000 O   0  0  0  0  0  0  0  0  0  0  0  0
    5.3120   -7.2988    0.0000 C   0  0  0  0  0  0  0  0  0  0  0  0
    5.3120   -8.1238    0.0000 O   0  0  0  0  0  0  0  0  0  0  0  0
  1  2  1  0  0  0  0
  2  3  1  0  0  0  0
  3  4  1  0  0  0  0
  4  5  1  0  0  0  0
  5  6  1  0  0  0  0
  6  1  1  0  0  0  0
  5  7  1  1  0  0  0
  3  8  1  1  0  0  0
  1  9  1  1  0  0  0
  2 10  1  6  0  0  0
  4 11  1  6  0  0  0
  7 12  1  0  0  0  0
  9 13  1  0  0  0  0
 13 14  1  0  0  0  0
 14 15  1  0  0  0  0
 15 16  1  0  0  0  0
 16 17  1  0  0  0  0
 17 18  1  0  0  0  0
 18 19  2  0  0  0  0
 19 15  1  0  0  0  0
 16 20  1  0  0  0  0
 18 21  1  0  0  0  0
 21 22  1  0  0  0  0
 19 23  1  0  0  0  0
 23 24  1  0  0  0  0
M  END
>  <cdx:fragmentId>
5

$$$$
