94259.cdx
  Mrv1902 05222410272D          

 23 24  0  0  0  0            999 V2000
    4.9068   -7.8513    0.0000 C   0  0  0  0  0  0  0  0  0  0  0  0
    4.9068   -8.6762    0.0000 C   0  0  0  0  0  0  0  0  0  0  0  0
    5.6213   -9.0887    0.0000 C   0  0  0  0  0  0  0  0  0  0  0  0
    6.3357   -8.6762    0.0000 C   0  0  0  0  0  0  0  0  0  0  0  0
    6.3357   -7.8513    0.0000 C   0  0  0  0  0  0  0  0  0  0  0  0
    5.6213   -7.4387    0.0000 C   0  0  0  0  0  0  0  0  0  0  0  0
    4.1923   -7.4387    0.0000 O   0  0  0  0  0  0  0  0  0  0  0  0
    7.0502   -9.0887    0.0000 O   0  0  0  0  0  0  0  0  0  0  0  0
    7.0502   -7.4387    0.0000 C   0  0  0  0  0  0  0  0  0  0  0  0
    7.7647   -7.8512    0.0000 C   0  0  0  0  0  0  0  0  0  0  0  0
    7.0502   -6.6137    0.0000 O   0  0  0  0  0  0  0  0  0  0  0  0
    8.4792   -7.4387    0.0000 C   0  0  2  0  0  0  0  0  0  0  0  0
    9.1936   -7.8512    0.0000 C   0  0  0  0  0  0  0  0  0  0  0  0
    9.9081   -7.4387    0.0000 O   0  0  0  0  0  0  0  0  0  0  0  0
    9.1936   -8.6762    0.0000 O   0  0  0  0  0  0  0  0  0  0  0  0
    8.4792   -6.6137    0.0000 C   0  0  2  0  0  0  0  0  0  0  0  0
    9.1936   -6.2012    0.0000 O   0  0  0  0  0  0  0  0  0  0  0  0
    9.1936   -5.3762    0.0000 C   0  0  0  0  0  0  0  0  0  0  0  0
    8.4792   -4.9637    0.0000 C   0  0  0  0  0  0  0  0  0  0  0  0
    7.7647   -5.3762    0.0000 C   0  0  0  0  0  0  0  0  0  0  0  0
    7.7647   -6.2012    0.0000 C   0  0  0  0  0  0  0  0  0  0  0  0
    8.4792   -4.1387    0.0000 C   0  0  0  0  0  0  0  0  0  0  0  0
    7.7647   -7.0262    0.0000 H   0  0  0  0  0  0  0  0  0  0  0  0
  1  2  2  0  0  0  0
  2  3  1  0  0  0  0
  3  4  2  0  0  0  0
  4  5  1  0  0  0  0
  5  6  2  0  0  0  0
  6  1  1  0  0  0  0
  1  7  1  0  0  0  0
  4  8  1  0  0  0  0
  5  9  1  0  0  0  0
  9 10  1  0  0  0  0
  9 11  2  0  0  0  0
 10 12  1  0  0  0  0
 12 13  1  0  0  0  0
 13 14  1  0  0  0  0
 13 15  2  0  0  0  0
 16 17  1  1  0  0  0
 17 18  1  0  0  0  0
 18 19  1  0  0  0  0
 19 20  2  0  0  0  0
 20 21  1  0  0  0  0
 21 16  1  0  0  0  0
 19 22  1  0  0  0  0
 12 16  1  0  0  0  0
 12 23  1  6  0  0  0
M  END
>  <cdx:fragmentId>
5

$$$$
