94268.cdx
  Mrv1902 05222410192D          

 18 20  0  0  0  0            999 V2000
    8.7049   -7.6716    0.0000 C   0  0  0  0  0  0  0  0  0  0  0  0
    9.2569   -8.2847    0.0000 N   0  0  0  0  0  0  0  0  0  0  0  0
    9.0020   -9.0693    0.0000 C   0  0  0  0  0  0  0  0  0  0  0  0
    8.1950   -9.2409    0.0000 C   0  0  0  0  0  0  0  0  0  0  0  0
    7.6430   -8.6278    0.0000 C   0  0  0  0  0  0  0  0  0  0  0  0
    6.8180   -8.6278    0.0000 C   0  0  0  0  0  0  0  0  0  0  0  0
    6.2659   -9.2409    0.0000 C   0  0  0  0  0  0  0  0  0  0  0  0
    5.4590   -9.0693    0.0000 C   0  0  0  0  0  0  0  0  0  0  0  0
    5.2040   -8.2847    0.0000 C   0  0  0  0  0  0  0  0  0  0  0  0
    5.7560   -7.6716    0.0000 C   0  0  0  0  0  0  0  0  0  0  0  0
    6.5630   -7.8432    0.0000 C   0  0  0  0  0  0  0  0  0  0  0  0
    7.2305   -7.3582    0.0000 N   0  0  0  0  0  0  0  0  0  0  0  0
    7.8979   -7.8432    0.0000 C   0  0  0  0  0  0  0  0  0  0  0  0
    4.9069   -9.6824    0.0000 O   0  0  0  0  0  0  0  0  0  0  0  0
    7.9401  -10.0255    0.0000 O   0  0  0  0  0  0  0  0  0  0  0  0
    7.1331  -10.1970    0.0000 C   0  0  0  0  0  0  0  0  0  0  0  0
    8.9598   -6.8870    0.0000 C   0  0  0  0  0  0  0  0  0  0  0  0
    9.7668   -6.7155    0.0000 C   0  0  0  0  0  0  0  0  0  0  0  0
  1  2  2  0  0  0  0
  2  3  1  0  0  0  0
  3  4  2  0  0  0  0
  4  5  1  0  0  0  0
  5  6  1  0  0  0  0
  6  7  1  0  0  0  0
  7  8  2  0  0  0  0
  8  9  1  0  0  0  0
  9 10  2  0  0  0  0
 10 11  1  0  0  0  0
  6 11  2  0  0  0  0
 11 12  1  0  0  0  0
 12 13  1  0  0  0  0
  5 13  2  0  0  0  0
  1 13  1  0  0  0  0
  8 14  1  0  0  0  0
 15 16  1  0  0  0  0
  4 15  1  0  0  0  0
 17 18  2  0  0  0  0
  1 17  1  0  0  0  0
M  END
>  <cdx:groupId>
58

>  <cdx:fragmentId>
5

$$$$
