94264.cdx
  Mrv1902 05222410262D          

 18 21  0  0  0  0            999 V2000
    8.1181   -9.6975    0.0000 C   0  0  0  0  0  0  0  0  0  0  0  0
    8.9251   -9.5260    0.0000 C   0  0  0  0  0  0  0  0  0  0  0  0
    9.1801   -8.7413    0.0000 N   0  0  0  0  0  0  0  0  0  0  0  0
    8.6280   -8.1282    0.0000 C   0  0  0  0  0  0  0  0  0  0  0  0
    8.7649   -7.3146    0.0000 C   0  0  0  0  0  0  0  0  0  0  0  0
    8.1446   -6.7706    0.0000 C   0  0  0  0  0  0  0  0  0  0  0  0
    7.3567   -7.0152    0.0000 C   0  0  0  0  0  0  0  0  0  0  0  0
    7.1536   -7.8149    0.0000 N   0  0  0  0  0  0  0  0  0  0  0  0
    6.4862   -8.2998    0.0000 C   0  0  0  0  0  0  0  0  0  0  0  0
    5.6792   -8.1282    0.0000 C   0  0  0  0  0  0  0  0  0  0  0  0
    5.1272   -8.7413    0.0000 C   0  0  0  0  0  0  0  0  0  0  0  0
    5.3821   -9.5260    0.0000 C   0  0  0  0  0  0  0  0  0  0  0  0
    6.1891   -9.6975    0.0000 C   0  0  0  0  0  0  0  0  0  0  0  0
    6.7411   -9.0844    0.0000 C   0  0  0  0  0  0  0  0  0  0  0  0
    7.5661   -9.0844    0.0000 C   0  0  0  0  0  0  0  0  0  0  0  0
    7.8211   -8.2998    0.0000 C   0  0  0  0  0  0  0  0  0  0  0  0
    6.7583   -6.4473    0.0000 O   0  0  0  0  0  0  0  0  0  0  0  0
    6.4440  -10.4821    0.0000 O   0  0  0  0  0  0  0  0  0  0  0  0
  1  2  1  0  0  0  0
  2  3  2  0  0  0  0
  3  4  1  0  0  0  0
  4  5  1  0  0  0  0
  5  6  2  0  0  0  0
  6  7  1  0  0  0  0
  7  8  1  0  0  0  0
  8  9  1  0  0  0  0
  9 10  1  0  0  0  0
 10 11  2  0  0  0  0
 11 12  1  0  0  0  0
 12 13  2  0  0  0  0
 13 14  1  0  0  0  0
  9 14  2  0  0  0  0
 14 15  1  0  0  0  0
  1 15  2  0  0  0  0
 15 16  1  0  0  0  0
  4 16  2  0  0  0  0
  8 16  1  0  0  0  0
  7 17  2  0  0  0  0
 13 18  1  0  0  0  0
M  END
>  <cdx:groupId>
59

>  <cdx:fragmentId>
5

$$$$
