94267.cdx
  Mrv1902 05222410262D          

 16 18  0  0  0  0            999 V2000
    8.3764   -7.8806    0.0000 C   0  0  0  0  0  0  0  0  0  0  0  0
    8.9284   -8.4937    0.0000 N   0  0  0  0  0  0  0  0  0  0  0  0
    8.6734   -9.2784    0.0000 C   0  0  0  0  0  0  0  0  0  0  0  0
    7.8665   -9.4499    0.0000 C   0  0  0  0  0  0  0  0  0  0  0  0
    7.3144   -8.8368    0.0000 C   0  0  0  0  0  0  0  0  0  0  0  0
    6.4894   -8.8368    0.0000 C   0  0  0  0  0  0  0  0  0  0  0  0
    5.9374   -9.4499    0.0000 C   0  0  0  0  0  0  0  0  0  0  0  0
    5.1304   -9.2784    0.0000 C   0  0  0  0  0  0  0  0  0  0  0  0
    4.8755   -8.4937    0.0000 C   0  0  0  0  0  0  0  0  0  0  0  0
    5.4275   -7.8806    0.0000 C   0  0  0  0  0  0  0  0  0  0  0  0
    6.2345   -8.0522    0.0000 C   0  0  0  0  0  0  0  0  0  0  0  0
    6.9019   -7.5672    0.0000 N   0  0  0  0  0  0  0  0  0  0  0  0
    7.5694   -8.0522    0.0000 C   0  0  0  0  0  0  0  0  0  0  0  0
    9.2255   -9.8915    0.0000 O   0  0  0  0  0  0  0  0  0  0  0  0
    8.6313   -7.0960    0.0000 C   0  0  0  0  0  0  0  0  0  0  0  0
    9.4383   -6.9245    0.0000 C   0  0  0  0  0  0  0  0  0  0  0  0
  1  2  2  0  0  0  0
  2  3  1  0  0  0  0
  3  4  2  0  0  0  0
  4  5  1  0  0  0  0
  5  6  1  0  0  0  0
  6  7  1  0  0  0  0
  7  8  2  0  0  0  0
  8  9  1  0  0  0  0
  9 10  2  0  0  0  0
 10 11  1  0  0  0  0
  6 11  2  0  0  0  0
 11 12  1  0  0  0  0
 12 13  1  0  0  0  0
  5 13  2  0  0  0  0
  1 13  1  0  0  0  0
  3 14  1  0  0  0  0
 15 16  2  0  0  0  0
  1 15  1  0  0  0  0
M  END
>  <cdx:groupId>
52

>  <cdx:fragmentId>
5

$$$$
