94262.cdx
  Mrv1902 05222410282D          

 19 21  0  0  0  0            999 V2000
    7.8905   -8.9045    0.0000 C   0  0  0  0  0  0  0  0  0  0  0  0
    8.4425   -9.5176    0.0000 N   0  0  0  0  0  0  0  0  0  0  0  0
    8.1876  -10.3022    0.0000 C   0  0  0  0  0  0  0  0  0  0  0  0
    7.3806  -10.4737    0.0000 C   0  0  0  0  0  0  0  0  0  0  0  0
    6.8286   -9.8606    0.0000 C   0  0  0  0  0  0  0  0  0  0  0  0
    6.0036   -9.8606    0.0000 C   0  0  0  0  0  0  0  0  0  0  0  0
    5.4516  -10.4737    0.0000 C   0  0  0  0  0  0  0  0  0  0  0  0
    4.6446  -10.3022    0.0000 C   0  0  0  0  0  0  0  0  0  0  0  0
    4.3896   -9.5176    0.0000 C   0  0  0  0  0  0  0  0  0  0  0  0
    4.9417   -8.9045    0.0000 C   0  0  0  0  0  0  0  0  0  0  0  0
    5.7487   -9.0760    0.0000 C   0  0  0  0  0  0  0  0  0  0  0  0
    6.4161   -8.5911    0.0000 N   0  0  0  0  0  0  0  0  0  0  0  0
    7.0835   -9.0760    0.0000 C   0  0  0  0  0  0  0  0  0  0  0  0
    8.1454   -8.1199    0.0000 C   0  0  0  0  0  0  0  0  0  0  0  0
    8.9524   -7.9483    0.0000 C   0  0  0  0  0  0  0  0  0  0  0  0
    9.2074   -7.1637    0.0000 C   0  0  0  0  0  0  0  0  0  0  0  0
   10.0143   -6.9922    0.0000 C   0  0  0  0  0  0  0  0  0  0  0  0
    8.6553   -6.5506    0.0000 O   0  0  0  0  0  0  0  0  0  0  0  0
    9.5044   -8.5614    0.0000 O   0  0  0  0  0  0  0  0  0  0  0  0
  1  2  2  0  0  0  0
  2  3  1  0  0  0  0
  3  4  2  0  0  0  0
  4  5  1  0  0  0  0
  5  6  1  0  0  0  0
  6  7  1  0  0  0  0
  7  8  2  0  0  0  0
  8  9  1  0  0  0  0
  9 10  2  0  0  0  0
 10 11  1  0  0  0  0
  6 11  2  0  0  0  0
 11 12  1  0  0  0  0
 12 13  1  0  0  0  0
  5 13  2  0  0  0  0
  1 13  1  0  0  0  0
 14 15  1  0  0  0  0
 15 16  2  0  0  0  0
 16 17  1  0  0  0  0
 16 18  1  0  0  0  0
 15 19  1  0  0  0  0
  1 14  1  0  0  0  0
M  END
>  <cdx:groupId>
61

>  <cdx:fragmentId>
5

$$$$
