94265.cdx
  Mrv1902 05222410272D          

 20 22  0  0  0  0            999 V2000
    8.6701   -7.9492    0.0000 C   0  0  0  0  0  0  0  0  0  0  0  0
    9.2221   -8.5623    0.0000 N   0  0  0  0  0  0  0  0  0  0  0  0
    8.9672   -9.3469    0.0000 C   0  0  0  0  0  0  0  0  0  0  0  0
    8.1602   -9.5184    0.0000 C   0  0  0  0  0  0  0  0  0  0  0  0
    7.6081   -8.9053    0.0000 C   0  0  0  0  0  0  0  0  0  0  0  0
    6.7831   -8.9053    0.0000 C   0  0  0  0  0  0  0  0  0  0  0  0
    6.2311   -9.5184    0.0000 C   0  0  0  0  0  0  0  0  0  0  0  0
    5.4241   -9.3469    0.0000 C   0  0  0  0  0  0  0  0  0  0  0  0
    5.1692   -8.5623    0.0000 C   0  0  0  0  0  0  0  0  0  0  0  0
    5.7212   -7.9492    0.0000 C   0  0  0  0  0  0  0  0  0  0  0  0
    6.5282   -8.1207    0.0000 C   0  0  0  0  0  0  0  0  0  0  0  0
    7.1956   -7.6358    0.0000 N   0  0  0  0  0  0  0  0  0  0  0  0
    7.8631   -8.1207    0.0000 C   0  0  0  0  0  0  0  0  0  0  0  0
    5.4663   -7.1645    0.0000 O   0  0  0  0  0  0  0  0  0  0  0  0
    4.6593   -6.9930    0.0000 C   0  0  0  0  0  0  0  0  0  0  0  0
    7.9052  -10.3030    0.0000 O   0  0  0  0  0  0  0  0  0  0  0  0
    7.0983  -10.4746    0.0000 C   0  0  0  0  0  0  0  0  0  0  0  0
    8.9250   -7.1645    0.0000 C   0  0  0  0  0  0  0  0  0  0  0  0
    9.7320   -6.9930    0.0000 C   0  0  0  0  0  0  0  0  0  0  0  0
    8.3730   -6.5514    0.0000 O   0  0  0  0  0  0  0  0  0  0  0  0
  1  2  2  0  0  0  0
  2  3  1  0  0  0  0
  3  4  2  0  0  0  0
  4  5  1  0  0  0  0
  5  6  1  0  0  0  0
  6  7  1  0  0  0  0
  7  8  2  0  0  0  0
  8  9  1  0  0  0  0
  9 10  2  0  0  0  0
 10 11  1  0  0  0  0
  6 11  2  0  0  0  0
 11 12  1  0  0  0  0
 12 13  1  0  0  0  0
  5 13  2  0  0  0  0
  1 13  1  0  0  0  0
 14 15  1  0  0  0  0
 10 14  1  0  0  0  0
 16 17  1  0  0  0  0
  4 16  1  0  0  0  0
 18 19  1  0  0  0  0
 18 20  2  0  0  0  0
  1 18  1  0  0  0  0
M  END
>  <cdx:groupId>
64

>  <cdx:fragmentId>
5

$$$$
