94274.cdx
  Mrv1902 05222410272D          

 22 24  0  0  0  0            999 V2000
    8.0065   -8.5374    0.0000 C   0  0  0  0  0  0  0  0  0  0  0  0
    8.5586   -9.1505    0.0000 N   0  0  0  0  0  0  0  0  0  0  0  0
    8.3036   -9.9351    0.0000 C   0  0  0  0  0  0  0  0  0  0  0  0
    7.4966  -10.1067    0.0000 C   0  0  0  0  0  0  0  0  0  0  0  0
    6.9446   -9.4936    0.0000 C   0  0  0  0  0  0  0  0  0  0  0  0
    6.1196   -9.4936    0.0000 C   0  0  0  0  0  0  0  0  0  0  0  0
    5.5676  -10.1067    0.0000 C   0  0  0  0  0  0  0  0  0  0  0  0
    4.7606   -9.9351    0.0000 C   0  0  0  0  0  0  0  0  0  0  0  0
    4.5057   -9.1505    0.0000 C   0  0  0  0  0  0  0  0  0  0  0  0
    5.0577   -8.5374    0.0000 C   0  0  0  0  0  0  0  0  0  0  0  0
    5.8647   -8.7089    0.0000 C   0  0  0  0  0  0  0  0  0  0  0  0
    6.5321   -8.2240    0.0000 N   0  0  0  0  0  0  0  0  0  0  0  0
    7.1996   -8.7089    0.0000 C   0  0  0  0  0  0  0  0  0  0  0  0
    4.8028   -7.7528    0.0000 O   0  0  0  0  0  0  0  0  0  0  0  0
    3.9958   -7.5813    0.0000 C   0  0  0  0  0  0  0  0  0  0  0  0
    7.2417  -10.8913    0.0000 O   0  0  0  0  0  0  0  0  0  0  0  0
    6.4347  -11.0628    0.0000 C   0  0  0  0  0  0  0  0  0  0  0  0
    8.2615   -7.7528    0.0000 C   0  0  0  0  0  0  0  0  0  0  0  0
    9.0684   -7.5813    0.0000 C   0  0  0  0  0  0  0  0  0  0  0  0
    9.3234   -6.7966    0.0000 O   0  0  0  0  0  0  0  0  0  0  0  0
   10.1303   -6.6251    0.0000 C   0  0  0  0  0  0  0  0  0  0  0  0
   10.3853   -5.8405    0.0000 C   0  0  0  0  0  0  0  0  0  0  0  0
  1  2  2  0  0  0  0
  2  3  1  0  0  0  0
  3  4  2  0  0  0  0
  4  5  1  0  0  0  0
  5  6  1  0  0  0  0
  6  7  1  0  0  0  0
  7  8  2  0  0  0  0
  8  9  1  0  0  0  0
  9 10  2  0  0  0  0
 10 11  1  0  0  0  0
  6 11  2  0  0  0  0
 11 12  1  0  0  0  0
 12 13  1  0  0  0  0
  5 13  2  0  0  0  0
  1 13  1  0  0  0  0
 14 15  1  0  0  0  0
 10 14  1  0  0  0  0
 16 17  1  0  0  0  0
  4 16  1  0  0  0  0
 18 19  1  0  0  0  0
 21 22  1  0  0  0  0
 20 21  1  0  0  0  0
 19 20  1  0  0  0  0
  1 18  1  0  0  0  0
M  END
>  <cdx:groupId>
70

>  <cdx:fragmentId>
5

$$$$
