94279.cdx
  Mrv1902 05222410182D          

 17 19  0  0  0  0            999 V2000
    8.4215   -8.4455    0.0000 C   0  0  0  0  0  0  0  0  0  0  0  0
    8.9735   -9.0586    0.0000 N   0  0  0  0  0  0  0  0  0  0  0  0
    8.7186   -9.8432    0.0000 C   0  0  0  0  0  0  0  0  0  0  0  0
    7.9116  -10.0147    0.0000 C   0  0  0  0  0  0  0  0  0  0  0  0
    7.3595   -9.4016    0.0000 C   0  0  0  0  0  0  0  0  0  0  0  0
    6.5345   -9.4016    0.0000 C   0  0  0  0  0  0  0  0  0  0  0  0
    5.9825  -10.0147    0.0000 C   0  0  0  0  0  0  0  0  0  0  0  0
    5.1755   -9.8432    0.0000 C   0  0  0  0  0  0  0  0  0  0  0  0
    4.9206   -9.0586    0.0000 C   0  0  0  0  0  0  0  0  0  0  0  0
    5.4726   -8.4455    0.0000 C   0  0  0  0  0  0  0  0  0  0  0  0
    6.2796   -8.6170    0.0000 C   0  0  0  0  0  0  0  0  0  0  0  0
    6.9470   -8.1321    0.0000 N   0  0  0  0  0  0  0  0  0  0  0  0
    7.6145   -8.6170    0.0000 C   0  0  0  0  0  0  0  0  0  0  0  0
    6.9470   -7.3071    0.0000 O   0  0  0  0  0  0  0  0  0  0  0  0
    7.6615   -6.8946    0.0000 C   0  0  0  0  0  0  0  0  0  0  0  0
    8.6764   -7.6609    0.0000 C   0  0  0  0  0  0  0  0  0  0  0  0
    9.4834   -7.4893    0.0000 C   0  0  0  0  0  0  0  0  0  0  0  0
  1  2  2  0  0  0  0
  2  3  1  0  0  0  0
  3  4  2  0  0  0  0
  4  5  1  0  0  0  0
  5  6  1  0  0  0  0
  6  7  1  0  0  0  0
  7  8  2  0  0  0  0
  8  9  1  0  0  0  0
  9 10  2  0  0  0  0
 10 11  1  0  0  0  0
  6 11  2  0  0  0  0
 11 12  1  0  0  0  0
 12 13  1  0  0  0  0
  5 13  2  0  0  0  0
  1 13  1  0  0  0  0
 14 15  1  0  0  0  0
 12 14  1  0  0  0  0
 16 17  1  0  0  0  0
  1 16  1  0  0  0  0
M  END
>  <cdx:groupId>
55

>  <cdx:fragmentId>
5

$$$$
