94275.cdx
  Mrv1902 05222410272D          

 16 17  0  0  0  0            999 V2000
    9.0231   -6.9785    0.0000 C   0  0  0  0  0  0  0  0  0  0  0  0
    9.5080   -6.3111    0.0000 C   0  0  0  0  0  0  0  0  0  0  0  0
    9.0231   -5.6436    0.0000 C   0  0  1  0  0  0  0  0  0  0  0  0
    8.2385   -5.8986    0.0000 C   0  0  2  0  0  0  0  0  0  0  0  0
    7.5935   -5.3842    0.0000 C   0  0  0  0  0  0  0  0  0  0  0  0
    6.7892   -5.5678    0.0000 C   0  0  1  0  0  0  0  0  0  0  0  0
    6.4312   -6.3111    0.0000 C   0  0  0  0  0  0  0  0  0  0  0  0
    6.7892   -7.0544    0.0000 C   0  0  0  0  0  0  0  0  0  0  0  0
    7.5935   -7.2379    0.0000 C   0  0  0  0  0  0  0  0  0  0  0  0
    8.2385   -6.7236    0.0000 C   0  0  0  0  0  0  0  0  0  0  0  0
    6.5762   -4.1548    0.0000 C   0  0  0  0  0  0  0  0  0  0  0  0
    6.2748   -4.9228    0.0000 C   0  0  0  0  0  0  0  0  0  0  0  0
    5.4590   -5.0457    0.0000 C   0  0  0  0  0  0  0  0  0  0  0  0
    7.7771   -8.0423    0.0000 C   0  0  0  0  0  0  0  0  0  0  0  0
    9.2781   -4.8590    0.0000 C   0  0  0  0  0  0  0  0  0  0  0  0
    8.3858   -5.0868    0.0000 H   0  0  0  0  0  0  0  0  0  0  0  0
  1  2  1  0  0  0  0
  2  3  1  0  0  0  0
  3  4  1  0  0  0  0
  4  5  1  0  0  0  0
  5  6  1  0  0  0  0
  6  7  1  0  0  0  0
  7  8  1  0  0  0  0
  8  9  1  0  0  0  0
  9 10  2  0  0  0  0
  1 10  1  0  0  0  0
  4 10  1  0  0  0  0
 11 12  2  0  0  0  0
 12 13  1  0  0  0  0
  6 12  1  1  0  0  0
  9 14  1  0  0  0  0
  3 15  1  1  0  0  0
  4 16  1  6  0  0  0
M  END
>  <cdx:groupId>
51

>  <cdx:fragmentId>
5

$$$$
