94272.cdx
  Mrv1902 05222410262D          

 17 19  0  0  0  0            999 V2000
    8.4112   -8.4455    0.0000 C   0  0  0  0  0  0  0  0  0  0  0  0
    8.9632   -9.0586    0.0000 N   0  0  0  0  0  0  0  0  0  0  0  0
    8.7083   -9.8432    0.0000 C   0  0  0  0  0  0  0  0  0  0  0  0
    7.9013  -10.0147    0.0000 C   0  0  0  0  0  0  0  0  0  0  0  0
    7.3493   -9.4016    0.0000 C   0  0  0  0  0  0  0  0  0  0  0  0
    6.5243   -9.4016    0.0000 C   0  0  0  0  0  0  0  0  0  0  0  0
    5.9722  -10.0147    0.0000 C   0  0  0  0  0  0  0  0  0  0  0  0
    5.1653   -9.8432    0.0000 C   0  0  0  0  0  0  0  0  0  0  0  0
    4.9103   -9.0586    0.0000 C   0  0  0  0  0  0  0  0  0  0  0  0
    5.4623   -8.4455    0.0000 C   0  0  0  0  0  0  0  0  0  0  0  0
    6.2693   -8.6170    0.0000 C   0  0  0  0  0  0  0  0  0  0  0  0
    6.9368   -8.1321    0.0000 N   0  0  0  0  0  0  0  0  0  0  0  0
    7.6042   -8.6170    0.0000 C   0  0  0  0  0  0  0  0  0  0  0  0
    6.9368   -7.3071    0.0000 O   0  0  0  0  0  0  0  0  0  0  0  0
    7.6512   -6.8946    0.0000 C   0  0  0  0  0  0  0  0  0  0  0  0
    8.6661   -7.6609    0.0000 C   0  0  0  0  0  0  0  0  0  0  0  0
    9.4731   -7.4893    0.0000 C   0  0  0  0  0  0  0  0  0  0  0  0
  1  2  2  0  0  0  0
  2  3  1  0  0  0  0
  3  4  2  0  0  0  0
  4  5  1  0  0  0  0
  5  6  1  0  0  0  0
  6  7  1  0  0  0  0
  7  8  2  0  0  0  0
  8  9  1  0  0  0  0
  9 10  2  0  0  0  0
 10 11  1  0  0  0  0
  6 11  2  0  0  0  0
 11 12  1  0  0  0  0
 12 13  1  0  0  0  0
  5 13  2  0  0  0  0
  1 13  1  0  0  0  0
 14 15  1  0  0  0  0
 12 14  1  0  0  0  0
 16 17  2  0  0  0  0
  1 16  1  0  0  0  0
M  END
>  <cdx:groupId>
55

>  <cdx:fragmentId>
5

$$$$
