94270.cdx
  Mrv1902 05222410262D          

 17 19  0  0  0  0            999 V2000
    8.4112   -7.6716    0.0000 C   0  0  0  0  0  0  0  0  0  0  0  0
    8.9632   -8.2847    0.0000 N   0  0  0  0  0  0  0  0  0  0  0  0
    8.7083   -9.0693    0.0000 C   0  0  0  0  0  0  0  0  0  0  0  0
    7.9013   -9.2409    0.0000 C   0  0  0  0  0  0  0  0  0  0  0  0
    7.3493   -8.6278    0.0000 C   0  0  0  0  0  0  0  0  0  0  0  0
    6.5243   -8.6278    0.0000 C   0  0  0  0  0  0  0  0  0  0  0  0
    5.9722   -9.2409    0.0000 C   0  0  0  0  0  0  0  0  0  0  0  0
    5.1653   -9.0693    0.0000 C   0  0  0  0  0  0  0  0  0  0  0  0
    4.9103   -8.2847    0.0000 C   0  0  0  0  0  0  0  0  0  0  0  0
    5.4623   -7.6716    0.0000 C   0  0  0  0  0  0  0  0  0  0  0  0
    6.2693   -7.8432    0.0000 C   0  0  0  0  0  0  0  0  0  0  0  0
    6.9368   -7.3582    0.0000 N   0  0  0  0  0  0  0  0  0  0  0  0
    7.6042   -7.8432    0.0000 C   0  0  0  0  0  0  0  0  0  0  0  0
    7.6463  -10.0255    0.0000 O   0  0  0  0  0  0  0  0  0  0  0  0
    6.8394  -10.1970    0.0000 C   0  0  0  0  0  0  0  0  0  0  0  0
    8.6661   -6.8870    0.0000 C   0  0  0  0  0  0  0  0  0  0  0  0
    9.4731   -6.7155    0.0000 C   0  0  0  0  0  0  0  0  0  0  0  0
  1  2  2  0  0  0  0
  2  3  1  0  0  0  0
  3  4  2  0  0  0  0
  4  5  1  0  0  0  0
  5  6  1  0  0  0  0
  6  7  1  0  0  0  0
  7  8  2  0  0  0  0
  8  9  1  0  0  0  0
  9 10  2  0  0  0  0
 10 11  1  0  0  0  0
  6 11  2  0  0  0  0
 11 12  1  0  0  0  0
 12 13  1  0  0  0  0
  5 13  2  0  0  0  0
  1 13  1  0  0  0  0
 14 15  1  0  0  0  0
  4 14  1  0  0  0  0
 16 17  2  0  0  0  0
  1 16  1  0  0  0  0
M  END
>  <cdx:groupId>
55

>  <cdx:fragmentId>
5

$$$$
