94276.cdx
  Mrv1902 05222410282D          

 19 21  0  0  0  0            999 V2000
    7.8905   -8.1497    0.0000 C   0  0  0  0  0  0  0  0  0  0  0  0
    8.4425   -8.7628    0.0000 N   0  0  0  0  0  0  0  0  0  0  0  0
    8.1876   -9.5474    0.0000 C   0  0  0  0  0  0  0  0  0  0  0  0
    7.3806   -9.7189    0.0000 C   0  0  0  0  0  0  0  0  0  0  0  0
    6.8286   -9.1059    0.0000 C   0  0  0  0  0  0  0  0  0  0  0  0
    6.0036   -9.1059    0.0000 C   0  0  0  0  0  0  0  0  0  0  0  0
    5.4516   -9.7189    0.0000 C   0  0  0  0  0  0  0  0  0  0  0  0
    4.6446   -9.5474    0.0000 C   0  0  0  0  0  0  0  0  0  0  0  0
    4.3896   -8.7628    0.0000 C   0  0  0  0  0  0  0  0  0  0  0  0
    4.9417   -8.1497    0.0000 C   0  0  0  0  0  0  0  0  0  0  0  0
    5.7487   -8.3212    0.0000 C   0  0  0  0  0  0  0  0  0  0  0  0
    6.4161   -7.8363    0.0000 N   0  0  0  0  0  0  0  0  0  0  0  0
    7.0835   -8.3212    0.0000 C   0  0  0  0  0  0  0  0  0  0  0  0
    7.1257  -10.5036    0.0000 O   0  0  0  0  0  0  0  0  0  0  0  0
    6.3187  -10.6751    0.0000 C   0  0  0  0  0  0  0  0  0  0  0  0
    8.1454   -7.3651    0.0000 C   0  0  0  0  0  0  0  0  0  0  0  0
    8.9524   -7.1936    0.0000 O   0  0  0  0  0  0  0  0  0  0  0  0
    9.2074   -6.4089    0.0000 C   0  0  0  0  0  0  0  0  0  0  0  0
   10.0143   -6.2374    0.0000 C   0  0  0  0  0  0  0  0  0  0  0  0
  1  2  2  0  0  0  0
  2  3  1  0  0  0  0
  3  4  2  0  0  0  0
  4  5  1  0  0  0  0
  5  6  1  0  0  0  0
  6  7  1  0  0  0  0
  7  8  2  0  0  0  0
  8  9  1  0  0  0  0
  9 10  2  0  0  0  0
 10 11  1  0  0  0  0
  6 11  2  0  0  0  0
 11 12  1  0  0  0  0
 12 13  1  0  0  0  0
  5 13  2  0  0  0  0
  1 13  1  0  0  0  0
 14 15  1  0  0  0  0
  4 14  1  0  0  0  0
 18 19  1  0  0  0  0
 17 18  1  0  0  0  0
 16 17  1  0  0  0  0
  1 16  1  0  0  0  0
M  END
>  <cdx:groupId>
61

>  <cdx:fragmentId>
5

$$$$
