94284.cdx
  Mrv1902 05222410182D          

 18 20  0  0  0  0            999 V2000
    8.2889   -8.0968    0.0000 C   0  0  0  0  0  0  0  0  0  0  0  0
    8.8409   -8.7099    0.0000 N   0  0  0  0  0  0  0  0  0  0  0  0
    8.5860   -9.4945    0.0000 C   0  0  0  0  0  0  0  0  0  0  0  0
    7.7790   -9.6661    0.0000 C   0  0  0  0  0  0  0  0  0  0  0  0
    7.2270   -9.0530    0.0000 C   0  0  0  0  0  0  0  0  0  0  0  0
    6.4020   -9.0530    0.0000 C   0  0  0  0  0  0  0  0  0  0  0  0
    5.8499   -9.6661    0.0000 C   0  0  0  0  0  0  0  0  0  0  0  0
    5.0430   -9.4945    0.0000 C   0  0  0  0  0  0  0  0  0  0  0  0
    4.7880   -8.7099    0.0000 C   0  0  0  0  0  0  0  0  0  0  0  0
    5.3401   -8.0968    0.0000 C   0  0  0  0  0  0  0  0  0  0  0  0
    6.1470   -8.2684    0.0000 C   0  0  0  0  0  0  0  0  0  0  0  0
    6.8145   -7.7834    0.0000 N   0  0  0  0  0  0  0  0  0  0  0  0
    7.4819   -8.2684    0.0000 C   0  0  0  0  0  0  0  0  0  0  0  0
    5.0851   -7.3122    0.0000 O   0  0  0  0  0  0  0  0  0  0  0  0
    7.5241  -10.4507    0.0000 O   0  0  0  0  0  0  0  0  0  0  0  0
    8.5438   -7.3122    0.0000 C   0  0  0  0  0  0  0  0  0  0  0  0
    9.3508   -7.1407    0.0000 C   0  0  0  0  0  0  0  0  0  0  0  0
    9.6057   -6.3561    0.0000 C   0  0  0  0  0  0  0  0  0  0  0  0
  1  2  2  0  0  0  0
  2  3  1  0  0  0  0
  3  4  2  0  0  0  0
  4  5  1  0  0  0  0
  5  6  1  0  0  0  0
  6  7  1  0  0  0  0
  7  8  2  0  0  0  0
  8  9  1  0  0  0  0
  9 10  2  0  0  0  0
 10 11  1  0  0  0  0
  6 11  2  0  0  0  0
 11 12  1  0  0  0  0
 12 13  1  0  0  0  0
  5 13  2  0  0  0  0
  1 13  1  0  0  0  0
 10 14  1  0  0  0  0
  4 15  1  0  0  0  0
 16 17  2  0  0  0  0
 17 18  1  0  0  0  0
  1 16  1  0  0  0  0
M  END
>  <cdx:groupId>
58

>  <cdx:fragmentId>
5

$$$$
