94281.cdx
  Mrv1902 05222410202D          

 16 18  0  0  0  0            999 V2000
    8.2700   -7.8187    0.0000 C   0  0  0  0  0  0  0  0  0  0  0  0
    8.8220   -8.4318    0.0000 N   0  0  0  0  0  0  0  0  0  0  0  0
    8.5671   -9.2165    0.0000 C   0  0  0  0  0  0  0  0  0  0  0  0
    7.7601   -9.3880    0.0000 C   0  0  0  0  0  0  0  0  0  0  0  0
    7.2081   -8.7749    0.0000 C   0  0  0  0  0  0  0  0  0  0  0  0
    6.3831   -8.7749    0.0000 C   0  0  0  0  0  0  0  0  0  0  0  0
    5.8310   -9.3880    0.0000 C   0  0  0  0  0  0  0  0  0  0  0  0
    5.0240   -9.2165    0.0000 C   0  0  0  0  0  0  0  0  0  0  0  0
    4.7691   -8.4318    0.0000 C   0  0  0  0  0  0  0  0  0  0  0  0
    5.3211   -7.8187    0.0000 C   0  0  0  0  0  0  0  0  0  0  0  0
    6.1281   -7.9903    0.0000 C   0  0  0  0  0  0  0  0  0  0  0  0
    6.7956   -7.5054    0.0000 N   0  0  0  0  0  0  0  0  0  0  0  0
    7.4630   -7.9903    0.0000 C   0  0  0  0  0  0  0  0  0  0  0  0
    7.5051  -10.1726    0.0000 C   0  0  0  0  0  0  0  0  0  0  0  0
    8.5249   -7.0341    0.0000 C   0  0  0  0  0  0  0  0  0  0  0  0
    9.3319   -6.8626    0.0000 O   0  0  0  0  0  0  0  0  0  0  0  0
  1  2  2  0  0  0  0
  2  3  1  0  0  0  0
  3  4  2  0  0  0  0
  4  5  1  0  0  0  0
  5  6  1  0  0  0  0
  6  7  1  0  0  0  0
  7  8  2  0  0  0  0
  8  9  1  0  0  0  0
  9 10  2  0  0  0  0
 10 11  1  0  0  0  0
  6 11  2  0  0  0  0
 11 12  1  0  0  0  0
 12 13  1  0  0  0  0
  5 13  2  0  0  0  0
  1 13  1  0  0  0  0
  4 14  1  0  0  0  0
 15 16  1  0  0  0  0
  1 15  1  0  0  0  0
M  END
>  <cdx:groupId>
52

>  <cdx:fragmentId>
5

$$$$
