94282.cdx
  Mrv1902 05222410202D          

 19 21  0  0  0  0            999 V2000
    7.7579   -9.0147    0.0000 C   0  0  0  0  0  0  0  0  0  0  0  0
    8.3100   -9.6278    0.0000 N   0  0  0  0  0  0  0  0  0  0  0  0
    8.0550  -10.4124    0.0000 C   0  0  0  0  0  0  0  0  0  0  0  0
    7.2480  -10.5839    0.0000 C   0  0  0  0  0  0  0  0  0  0  0  0
    6.6960   -9.9708    0.0000 C   0  0  0  0  0  0  0  0  0  0  0  0
    5.8710   -9.9708    0.0000 C   0  0  0  0  0  0  0  0  0  0  0  0
    5.3190  -10.5839    0.0000 C   0  0  0  0  0  0  0  0  0  0  0  0
    4.5120  -10.4124    0.0000 C   0  0  0  0  0  0  0  0  0  0  0  0
    4.2571   -9.6278    0.0000 C   0  0  0  0  0  0  0  0  0  0  0  0
    4.8091   -9.0147    0.0000 C   0  0  0  0  0  0  0  0  0  0  0  0
    5.6161   -9.1862    0.0000 C   0  0  0  0  0  0  0  0  0  0  0  0
    6.2835   -8.7013    0.0000 N   0  0  0  0  0  0  0  0  0  0  0  0
    6.9510   -9.1862    0.0000 C   0  0  0  0  0  0  0  0  0  0  0  0
    8.0129   -8.2300    0.0000 C   0  0  0  0  0  0  0  0  0  0  0  0
    7.4608   -7.6169    0.0000 O   0  0  0  0  0  0  0  0  0  0  0  0
    8.8198   -8.0585    0.0000 C   0  0  0  0  0  0  0  0  0  0  0  0
    9.0748   -7.2739    0.0000 C   0  0  0  0  0  0  0  0  0  0  0  0
    9.8817   -7.1024    0.0000 O   0  0  0  0  0  0  0  0  0  0  0  0
   10.1367   -6.3177    0.0000 C   0  0  0  0  0  0  0  0  0  0  0  0
  1  2  2  0  0  0  0
  2  3  1  0  0  0  0
  3  4  2  0  0  0  0
  4  5  1  0  0  0  0
  5  6  1  0  0  0  0
  6  7  1  0  0  0  0
  7  8  2  0  0  0  0
  8  9  1  0  0  0  0
  9 10  2  0  0  0  0
 10 11  1  0  0  0  0
  6 11  2  0  0  0  0
 11 12  1  0  0  0  0
 12 13  1  0  0  0  0
  5 13  2  0  0  0  0
  1 13  1  0  0  0  0
 14 15  2  0  0  0  0
 14 16  1  0  0  0  0
 16 17  1  0  0  0  0
 18 19  1  0  0  0  0
 17 18  1  0  0  0  0
  1 14  1  0  0  0  0
M  END
>  <cdx:groupId>
61

>  <cdx:fragmentId>
5

$$$$
