94285.cdx
  Mrv1902 05222410182D          

 18 21  0  0  0  0            999 V2000
    7.8665   -9.8690    0.0000 C   0  0  0  0  0  0  0  0  0  0  0  0
    8.6734   -9.6975    0.0000 C   0  0  0  0  0  0  0  0  0  0  0  0
    8.9284   -8.9129    0.0000 N   0  0  0  0  0  0  0  0  0  0  0  0
    8.3764   -8.2998    0.0000 C   0  0  0  0  0  0  0  0  0  0  0  0
    8.5132   -7.4861    0.0000 C   0  0  0  0  0  0  0  0  0  0  0  0
    7.8929   -6.9421    0.0000 C   0  0  0  0  0  0  0  0  0  0  0  0
    7.1050   -7.1868    0.0000 C   0  0  0  0  0  0  0  0  0  0  0  0
    6.9019   -7.9864    0.0000 N   0  0  0  0  0  0  0  0  0  0  0  0
    6.2345   -8.4713    0.0000 C   0  0  0  0  0  0  0  0  0  0  0  0
    5.4275   -8.2998    0.0000 C   0  0  0  0  0  0  0  0  0  0  0  0
    4.8755   -8.9129    0.0000 C   0  0  0  0  0  0  0  0  0  0  0  0
    5.1304   -9.6975    0.0000 C   0  0  0  0  0  0  0  0  0  0  0  0
    5.9374   -9.8690    0.0000 C   0  0  0  0  0  0  0  0  0  0  0  0
    6.4894   -9.2559    0.0000 C   0  0  0  0  0  0  0  0  0  0  0  0
    7.3144   -9.2559    0.0000 C   0  0  0  0  0  0  0  0  0  0  0  0
    7.5694   -8.4713    0.0000 C   0  0  0  0  0  0  0  0  0  0  0  0
    6.5066   -6.6189    0.0000 O   0  0  0  0  0  0  0  0  0  0  0  0
    9.2255  -10.3106    0.0000 O   0  0  0  0  0  0  0  0  0  0  0  0
  1  2  1  0  0  0  0
  2  3  2  0  0  0  0
  3  4  1  0  0  0  0
  4  5  1  0  0  0  0
  5  6  2  0  0  0  0
  6  7  1  0  0  0  0
  7  8  1  0  0  0  0
  8  9  1  0  0  0  0
  9 10  1  0  0  0  0
 10 11  2  0  0  0  0
 11 12  1  0  0  0  0
 12 13  2  0  0  0  0
 13 14  1  0  0  0  0
  9 14  2  0  0  0  0
 14 15  1  0  0  0  0
  1 15  2  0  0  0  0
 15 16  1  0  0  0  0
  4 16  2  0  0  0  0
  8 16  1  0  0  0  0
  7 17  2  0  0  0  0
  2 18  1  0  0  0  0
M  END
>  <cdx:groupId>
59

>  <cdx:fragmentId>
5

$$$$
