94289.cdx
  Mrv1902 05222410282D          

 21 24  0  0  0  0            999 V2000
    8.1277  -10.1814    0.0000 C   0  0  0  0  0  0  0  0  0  0  0  0
    8.9347  -10.0099    0.0000 C   0  0  0  0  0  0  0  0  0  0  0  0
    9.1897   -9.2253    0.0000 N   0  0  0  0  0  0  0  0  0  0  0  0
    8.6376   -8.6122    0.0000 C   0  0  0  0  0  0  0  0  0  0  0  0
    8.7744   -7.7985    0.0000 C   0  0  0  0  0  0  0  0  0  0  0  0
    8.1542   -7.2545    0.0000 C   0  0  0  0  0  0  0  0  0  0  0  0
    7.3663   -7.4992    0.0000 C   0  0  0  0  0  0  0  0  0  0  0  0
    7.1632   -8.2988    0.0000 N   0  0  0  0  0  0  0  0  0  0  0  0
    6.4958   -8.7837    0.0000 C   0  0  0  0  0  0  0  0  0  0  0  0
    5.6888   -8.6122    0.0000 C   0  0  0  0  0  0  0  0  0  0  0  0
    5.1368   -9.2253    0.0000 C   0  0  0  0  0  0  0  0  0  0  0  0
    5.3917  -10.0099    0.0000 C   0  0  0  0  0  0  0  0  0  0  0  0
    6.1987  -10.1814    0.0000 C   0  0  0  0  0  0  0  0  0  0  0  0
    6.7507   -9.5683    0.0000 C   0  0  0  0  0  0  0  0  0  0  0  0
    7.5757   -9.5683    0.0000 C   0  0  0  0  0  0  0  0  0  0  0  0
    7.8306   -8.7837    0.0000 C   0  0  0  0  0  0  0  0  0  0  0  0
    6.7679   -6.9313    0.0000 O   0  0  0  0  0  0  0  0  0  0  0  0
    8.3257   -6.4475    0.0000 O   0  0  0  0  0  0  0  0  0  0  0  0
    9.1103   -6.1926    0.0000 C   0  0  0  0  0  0  0  0  0  0  0  0
    4.8397  -10.6230    0.0000 O   0  0  0  0  0  0  0  0  0  0  0  0
    9.5516   -7.5217    0.0000 O   0  0  0  0  0  0  0  0  0  0  0  0
  1  2  1  0  0  0  0
  2  3  2  0  0  0  0
  3  4  1  0  0  0  0
  4  5  1  0  0  0  0
  5  6  2  0  0  0  0
  6  7  1  0  0  0  0
  7  8  1  0  0  0  0
  8  9  1  0  0  0  0
  9 10  1  0  0  0  0
 10 11  2  0  0  0  0
 11 12  1  0  0  0  0
 12 13  2  0  0  0  0
 13 14  1  0  0  0  0
  9 14  2  0  0  0  0
 14 15  1  0  0  0  0
  1 15  2  0  0  0  0
 15 16  1  0  0  0  0
  4 16  2  0  0  0  0
  8 16  1  0  0  0  0
  7 17  2  0  0  0  0
 18 19  1  0  0  0  0
  6 18  1  0  0  0  0
 12 20  1  0  0  0  0
  5 21  1  0  0  0  0
M  END
>  <cdx:groupId>
68

>  <cdx:fragmentId>
5

$$$$
