94288.cdx
  Mrv1902 05222410282D          

 21 24  0  0  0  0            999 V2000
    7.9619  -10.4908    0.0000 C   0  0  0  0  0  0  0  0  0  0  0  0
    8.7689  -10.3193    0.0000 C   0  0  0  0  0  0  0  0  0  0  0  0
    9.0238   -9.5346    0.0000 N   0  0  0  0  0  0  0  0  0  0  0  0
    8.4718   -8.9215    0.0000 C   0  0  0  0  0  0  0  0  0  0  0  0
    8.6086   -8.1078    0.0000 C   0  0  0  0  0  0  0  0  0  0  0  0
    7.9883   -7.5639    0.0000 C   0  0  0  0  0  0  0  0  0  0  0  0
    7.2005   -7.8085    0.0000 C   0  0  0  0  0  0  0  0  0  0  0  0
    6.9974   -8.6081    0.0000 N   0  0  0  0  0  0  0  0  0  0  0  0
    6.3299   -9.0931    0.0000 C   0  0  0  0  0  0  0  0  0  0  0  0
    5.5230   -8.9215    0.0000 C   0  0  0  0  0  0  0  0  0  0  0  0
    4.9709   -9.5346    0.0000 C   0  0  0  0  0  0  0  0  0  0  0  0
    5.2259  -10.3193    0.0000 C   0  0  0  0  0  0  0  0  0  0  0  0
    6.0328  -10.4908    0.0000 C   0  0  0  0  0  0  0  0  0  0  0  0
    6.5849   -9.8777    0.0000 C   0  0  0  0  0  0  0  0  0  0  0  0
    7.4099   -9.8777    0.0000 C   0  0  0  0  0  0  0  0  0  0  0  0
    7.6648   -9.0931    0.0000 C   0  0  0  0  0  0  0  0  0  0  0  0
    6.6020   -7.2406    0.0000 O   0  0  0  0  0  0  0  0  0  0  0  0
    4.6738  -10.9324    0.0000 O   0  0  0  0  0  0  0  0  0  0  0  0
    8.1599   -6.7569    0.0000 O   0  0  0  0  0  0  0  0  0  0  0  0
    9.3858   -7.8311    0.0000 O   0  0  0  0  0  0  0  0  0  0  0  0
    9.8308   -9.3631    0.0000 C   0  0  0  0  0  0  0  0  0  0  0  0
  1  2  2  0  0  0  0
  2  3  1  0  0  0  0
  3  4  1  0  0  0  0
  4  5  2  0  0  0  0
  5  6  1  0  0  0  0
  6  7  1  0  0  0  0
  7  8  1  0  0  0  0
  8  9  1  0  0  0  0
  9 10  1  0  0  0  0
 10 11  2  0  0  0  0
 11 12  1  0  0  0  0
 12 13  2  0  0  0  0
 13 14  1  0  0  0  0
  9 14  2  0  0  0  0
 14 15  1  0  0  0  0
  1 15  1  0  0  0  0
 15 16  2  0  0  0  0
  4 16  1  0  0  0  0
  8 16  1  0  0  0  0
  7 17  2  0  0  0  0
 12 18  1  0  0  0  0
  6 19  2  0  0  0  0
  5 20  1  0  0  0  0
  3 21  1  0  0  0  0
M  END
>  <cdx:fragmentId>
88

$$$$
