94283.cdx
  Mrv1902 05222410192D          

 16 18  0  0  0  0            999 V2000
    8.6280   -7.5813    0.0000 C   0  0  0  0  0  0  0  0  0  0  0  0
    9.1801   -8.1944    0.0000 N   0  0  0  0  0  0  0  0  0  0  0  0
    8.9251   -8.9790    0.0000 C   0  0  0  0  0  0  0  0  0  0  0  0
    8.1181   -9.1505    0.0000 C   0  0  0  0  0  0  0  0  0  0  0  0
    7.5661   -8.5374    0.0000 C   0  0  0  0  0  0  0  0  0  0  0  0
    6.7411   -8.5374    0.0000 C   0  0  0  0  0  0  0  0  0  0  0  0
    6.1891   -9.1505    0.0000 C   0  0  0  0  0  0  0  0  0  0  0  0
    5.3821   -8.9790    0.0000 C   0  0  0  0  0  0  0  0  0  0  0  0
    5.1272   -8.1944    0.0000 C   0  0  0  0  0  0  0  0  0  0  0  0
    5.6792   -7.5813    0.0000 C   0  0  0  0  0  0  0  0  0  0  0  0
    6.4862   -7.7528    0.0000 C   0  0  0  0  0  0  0  0  0  0  0  0
    7.1536   -7.2679    0.0000 N   0  0  0  0  0  0  0  0  0  0  0  0
    7.8211   -7.7528    0.0000 C   0  0  0  0  0  0  0  0  0  0  0  0
    7.8632   -9.9351    0.0000 O   0  0  0  0  0  0  0  0  0  0  0  0
    7.0562  -10.1067    0.0000 C   0  0  0  0  0  0  0  0  0  0  0  0
    8.8830   -6.7966    0.0000 C   0  0  0  0  0  0  0  0  0  0  0  0
  1  2  2  0  0  0  0
  2  3  1  0  0  0  0
  3  4  2  0  0  0  0
  4  5  1  0  0  0  0
  5  6  1  0  0  0  0
  6  7  1  0  0  0  0
  7  8  2  0  0  0  0
  8  9  1  0  0  0  0
  9 10  2  0  0  0  0
 10 11  1  0  0  0  0
  6 11  2  0  0  0  0
 11 12  1  0  0  0  0
 12 13  1  0  0  0  0
  5 13  2  0  0  0  0
  1 13  1  0  0  0  0
 14 15  1  0  0  0  0
  4 14  1  0  0  0  0
  1 16  1  0  0  0  0
M  END
>  <cdx:groupId>
52

>  <cdx:fragmentId>
5

$$$$
