94286.cdx
  Mrv1902 05222410182D          

 18 20  0  0  0  0            999 V2000
    7.8292   -7.6801    0.0000 C   0  0  0  0  0  0  0  0  0  0  0  0
    8.3813   -8.2932    0.0000 N   0  0  0  0  0  0  0  0  0  0  0  0
    8.1263   -9.0778    0.0000 C   0  0  0  0  0  0  0  0  0  0  0  0
    7.3194   -9.2494    0.0000 C   0  0  0  0  0  0  0  0  0  0  0  0
    6.7673   -8.6363    0.0000 C   0  0  0  0  0  0  0  0  0  0  0  0
    5.9423   -8.6363    0.0000 C   0  0  0  0  0  0  0  0  0  0  0  0
    5.3903   -9.2494    0.0000 C   0  0  0  0  0  0  0  0  0  0  0  0
    4.5833   -9.0778    0.0000 C   0  0  0  0  0  0  0  0  0  0  0  0
    4.3284   -8.2932    0.0000 C   0  0  0  0  0  0  0  0  0  0  0  0
    4.8804   -7.6801    0.0000 C   0  0  0  0  0  0  0  0  0  0  0  0
    5.6874   -7.8516    0.0000 C   0  0  0  0  0  0  0  0  0  0  0  0
    6.3548   -7.3667    0.0000 N   0  0  0  0  0  0  0  0  0  0  0  0
    7.0223   -7.8516    0.0000 C   0  0  0  0  0  0  0  0  0  0  0  0
    7.0644  -10.0340    0.0000 O   0  0  0  0  0  0  0  0  0  0  0  0
    8.0842   -6.8955    0.0000 O   0  0  0  0  0  0  0  0  0  0  0  0
    8.6784   -9.6909    0.0000 O   0  0  0  0  0  0  0  0  0  0  0  0
    9.4853   -9.5194    0.0000 C   0  0  0  0  0  0  0  0  0  0  0  0
   10.0687  -10.1028    0.0000 C   0  0  0  0  0  0  0  0  0  0  0  0
  1  2  1  0  0  0  0
  2  3  1  0  0  0  0
  3  4  1  0  0  0  0
  4  5  1  0  0  0  0
  5  6  1  0  0  0  0
  6  7  1  0  0  0  0
  7  8  2  0  0  0  0
  8  9  1  0  0  0  0
  9 10  2  0  0  0  0
 10 11  1  0  0  0  0
  6 11  2  0  0  0  0
 11 12  1  0  0  0  0
 12 13  1  0  0  0  0
  5 13  2  0  0  0  0
  1 13  1  0  0  0  0
  4 14  2  0  0  0  0
  1 15  2  0  0  0  0
 17 18  1  0  0  0  0
 16 17  1  0  0  0  0
  3 16  1  0  0  0  0
M  END
>  <cdx:groupId>
58

>  <cdx:fragmentId>
5

$$$$
