94295.cdx
  Mrv1902 05222410202D          

 18 20  0  0  0  0            999 V2000
    8.2700   -7.9492    0.0000 C   0  0  0  0  0  0  0  0  0  0  0  0
    8.8220   -8.5623    0.0000 N   0  0  0  0  0  0  0  0  0  0  0  0
    8.5671   -9.3469    0.0000 C   0  0  0  0  0  0  0  0  0  0  0  0
    7.7601   -9.5184    0.0000 C   0  0  0  0  0  0  0  0  0  0  0  0
    7.2081   -8.9053    0.0000 C   0  0  0  0  0  0  0  0  0  0  0  0
    6.3831   -8.9053    0.0000 C   0  0  0  0  0  0  0  0  0  0  0  0
    5.8310   -9.5184    0.0000 C   0  0  0  0  0  0  0  0  0  0  0  0
    5.0240   -9.3469    0.0000 C   0  0  0  0  0  0  0  0  0  0  0  0
    4.7691   -8.5623    0.0000 C   0  0  0  0  0  0  0  0  0  0  0  0
    5.3211   -7.9492    0.0000 C   0  0  0  0  0  0  0  0  0  0  0  0
    6.1281   -8.1207    0.0000 C   0  0  0  0  0  0  0  0  0  0  0  0
    6.7956   -7.6358    0.0000 N   0  0  0  0  0  0  0  0  0  0  0  0
    7.4630   -8.1207    0.0000 C   0  0  0  0  0  0  0  0  0  0  0  0
    8.5249   -7.1645    0.0000 C   0  0  0  0  0  0  0  0  0  0  0  0
    7.9729   -6.5514    0.0000 O   0  0  0  0  0  0  0  0  0  0  0  0
    9.3319   -6.9930    0.0000 O   0  0  0  0  0  0  0  0  0  0  0  0
    7.5051  -10.3030    0.0000 O   0  0  0  0  0  0  0  0  0  0  0  0
    6.6982  -10.4746    0.0000 C   0  0  0  0  0  0  0  0  0  0  0  0
  1  2  2  0  0  0  0
  2  3  1  0  0  0  0
  3  4  2  0  0  0  0
  4  5  1  0  0  0  0
  5  6  1  0  0  0  0
  6  7  1  0  0  0  0
  7  8  2  0  0  0  0
  8  9  1  0  0  0  0
  9 10  2  0  0  0  0
 10 11  1  0  0  0  0
  6 11  2  0  0  0  0
 11 12  1  0  0  0  0
 12 13  1  0  0  0  0
  5 13  2  0  0  0  0
  1 13  1  0  0  0  0
 14 15  2  0  0  0  0
 14 16  1  0  0  0  0
  1 14  1  0  0  0  0
 17 18  1  0  0  0  0
  4 17  1  0  0  0  0
M  END
>  <cdx:groupId>
58

>  <cdx:fragmentId>
5

$$$$
