94296.cdx
  Mrv1902 05222410202D          

 20 22  0  0  0  0            999 V2000
    8.5396   -7.9903    0.0000 C   0  0  0  0  0  0  0  0  0  0  0  0
    9.0917   -8.6034    0.0000 N   0  0  0  0  0  0  0  0  0  0  0  0
    8.8367   -9.3880    0.0000 C   0  0  0  0  0  0  0  0  0  0  0  0
    8.0298   -9.5595    0.0000 C   0  0  0  0  0  0  0  0  0  0  0  0
    7.4777   -8.9464    0.0000 C   0  0  0  0  0  0  0  0  0  0  0  0
    6.6527   -8.9464    0.0000 C   0  0  0  0  0  0  0  0  0  0  0  0
    6.1007   -9.5595    0.0000 C   0  0  0  0  0  0  0  0  0  0  0  0
    5.2937   -9.3880    0.0000 C   0  0  0  0  0  0  0  0  0  0  0  0
    5.0388   -8.6034    0.0000 C   0  0  0  0  0  0  0  0  0  0  0  0
    5.5908   -7.9903    0.0000 C   0  0  0  0  0  0  0  0  0  0  0  0
    6.3978   -8.1618    0.0000 C   0  0  0  0  0  0  0  0  0  0  0  0
    7.0652   -7.6769    0.0000 N   0  0  0  0  0  0  0  0  0  0  0  0
    7.7327   -8.1618    0.0000 C   0  0  0  0  0  0  0  0  0  0  0  0
    9.6016   -7.0341    0.0000 C   0  0  0  0  0  0  0  0  0  0  0  0
    8.7946   -7.2057    0.0000 O   0  0  0  0  0  0  0  0  0  0  0  0
    9.8565   -6.2495    0.0000 O   0  0  0  0  0  0  0  0  0  0  0  0
   10.1536   -7.6472    0.0000 C   0  0  0  0  0  0  0  0  0  0  0  0
    4.7417  -10.0011    0.0000 C   0  0  0  0  0  0  0  0  0  0  0  0
    4.9966  -10.7857    0.0000 C   0  0  0  0  0  0  0  0  0  0  0  0
    3.9347   -9.8296    0.0000 C   0  0  0  0  0  0  0  0  0  0  0  0
  1  2  2  0  0  0  0
  2  3  1  0  0  0  0
  3  4  2  0  0  0  0
  4  5  1  0  0  0  0
  5  6  1  0  0  0  0
  6  7  1  0  0  0  0
  7  8  2  0  0  0  0
  8  9  1  0  0  0  0
  9 10  2  0  0  0  0
 10 11  1  0  0  0  0
  6 11  2  0  0  0  0
 11 12  1  0  0  0  0
 12 13  1  0  0  0  0
  5 13  2  0  0  0  0
  1 13  1  0  0  0  0
 14 15  1  0  0  0  0
 14 16  2  0  0  0  0
 14 17  1  0  0  0  0
  1 15  1  0  0  0  0
 18 19  1  0  0  0  0
 18 20  1  0  0  0  0
  8 18  1  0  0  0  0
M  END
>  <cdx:fragmentId>
5

$$$$
