94299.cdx
  Mrv1902 05222410262D          

 19 21  0  0  0  0            999 V2000
    8.2877   -8.9045    0.0000 C   0  0  0  0  0  0  0  0  0  0  0  0
    8.8397   -9.5176    0.0000 N   0  0  0  0  0  0  0  0  0  0  0  0
    8.5847  -10.3022    0.0000 C   0  0  0  0  0  0  0  0  0  0  0  0
    7.7778  -10.4737    0.0000 C   0  0  0  0  0  0  0  0  0  0  0  0
    7.2257   -9.8606    0.0000 C   0  0  0  0  0  0  0  0  0  0  0  0
    6.4007   -9.8606    0.0000 C   0  0  0  0  0  0  0  0  0  0  0  0
    5.8487  -10.4737    0.0000 C   0  0  0  0  0  0  0  0  0  0  0  0
    5.0417  -10.3022    0.0000 C   0  0  0  0  0  0  0  0  0  0  0  0
    4.7868   -9.5176    0.0000 C   0  0  0  0  0  0  0  0  0  0  0  0
    5.3388   -8.9045    0.0000 C   0  0  0  0  0  0  0  0  0  0  0  0
    6.1458   -9.0760    0.0000 C   0  0  0  0  0  0  0  0  0  0  0  0
    6.8132   -8.5911    0.0000 N   0  0  0  0  0  0  0  0  0  0  0  0
    7.4807   -9.0760    0.0000 C   0  0  0  0  0  0  0  0  0  0  0  0
    9.6045   -7.1637    0.0000 C   0  0  0  0  0  0  0  0  0  0  0  0
    9.3496   -7.9483    0.0000 C   0  0  0  0  0  0  0  0  0  0  0  0
    8.5426   -8.1199    0.0000 C   0  0  0  0  0  0  0  0  0  0  0  0
    9.0525   -6.5506    0.0000 O   0  0  0  0  0  0  0  0  0  0  0  0
   10.4115   -6.9922    0.0000 O   0  0  0  0  0  0  0  0  0  0  0  0
    3.9798   -9.3461    0.0000 O   0  0  0  0  0  0  0  0  0  0  0  0
  1  2  2  0  0  0  0
  2  3  1  0  0  0  0
  3  4  2  0  0  0  0
  4  5  1  0  0  0  0
  5  6  1  0  0  0  0
  6  7  1  0  0  0  0
  7  8  2  0  0  0  0
  8  9  1  0  0  0  0
  9 10  2  0  0  0  0
 10 11  1  0  0  0  0
  6 11  2  0  0  0  0
 11 12  1  0  0  0  0
 12 13  1  0  0  0  0
  5 13  2  0  0  0  0
  1 13  1  0  0  0  0
 14 15  1  0  0  0  0
 15 16  1  0  0  0  0
 14 17  2  0  0  0  0
 14 18  1  0  0  0  0
  1 16  1  0  0  0  0
  9 19  1  0  0  0  0
M  END
>  <cdx:groupId>
61

>  <cdx:fragmentId>
5

$$$$
