94294.cdx
  Mrv1902 05222410202D          

 19 21  0  0  0  0            999 V2000
    7.9939   -8.1207    0.0000 C   0  0  0  0  0  0  0  0  0  0  0  0
    8.5460   -8.7338    0.0000 N   0  0  0  0  0  0  0  0  0  0  0  0
    8.2910   -9.5184    0.0000 C   0  0  0  0  0  0  0  0  0  0  0  0
    7.4841   -9.6899    0.0000 C   0  0  0  0  0  0  0  0  0  0  0  0
    6.9320   -9.0768    0.0000 C   0  0  0  0  0  0  0  0  0  0  0  0
    6.1070   -9.0768    0.0000 C   0  0  0  0  0  0  0  0  0  0  0  0
    5.5550   -9.6899    0.0000 C   0  0  0  0  0  0  0  0  0  0  0  0
    4.7480   -9.5184    0.0000 C   0  0  0  0  0  0  0  0  0  0  0  0
    4.4931   -8.7338    0.0000 C   0  0  0  0  0  0  0  0  0  0  0  0
    5.0451   -8.1207    0.0000 C   0  0  0  0  0  0  0  0  0  0  0  0
    5.8521   -8.2922    0.0000 C   0  0  0  0  0  0  0  0  0  0  0  0
    6.5195   -7.8073    0.0000 N   0  0  0  0  0  0  0  0  0  0  0  0
    7.1870   -8.2922    0.0000 C   0  0  0  0  0  0  0  0  0  0  0  0
    9.0559   -7.1645    0.0000 C   0  0  0  0  0  0  0  0  0  0  0  0
    8.2489   -7.3361    0.0000 O   0  0  0  0  0  0  0  0  0  0  0  0
    9.3108   -6.3799    0.0000 O   0  0  0  0  0  0  0  0  0  0  0  0
    9.6079   -7.7776    0.0000 C   0  0  0  0  0  0  0  0  0  0  0  0
    7.2291  -10.4746    0.0000 O   0  0  0  0  0  0  0  0  0  0  0  0
    6.4222  -10.6461    0.0000 C   0  0  0  0  0  0  0  0  0  0  0  0
  1  2  2  0  0  0  0
  2  3  1  0  0  0  0
  3  4  2  0  0  0  0
  4  5  1  0  0  0  0
  5  6  1  0  0  0  0
  6  7  1  0  0  0  0
  7  8  2  0  0  0  0
  8  9  1  0  0  0  0
  9 10  2  0  0  0  0
 10 11  1  0  0  0  0
  6 11  2  0  0  0  0
 11 12  1  0  0  0  0
 12 13  1  0  0  0  0
  5 13  2  0  0  0  0
  1 13  1  0  0  0  0
 14 15  1  0  0  0  0
 14 16  2  0  0  0  0
 14 17  1  0  0  0  0
  1 15  1  0  0  0  0
 18 19  1  0  0  0  0
  4 18  1  0  0  0  0
M  END
>  <cdx:fragmentId>
5

$$$$
