94298.cdx
  Mrv1902 05222410262D          

 17 19  0  0  0  0            999 V2000
    8.8186   -8.4264    0.0000 C   0  0  0  0  0  0  0  0  0  0  0  0
    9.3706   -9.0395    0.0000 N   0  0  0  0  0  0  0  0  0  0  0  0
    9.1157   -9.8241    0.0000 C   0  0  0  0  0  0  0  0  0  0  0  0
    8.3087   -9.9957    0.0000 C   0  0  0  0  0  0  0  0  0  0  0  0
    7.7567   -9.3826    0.0000 C   0  0  0  0  0  0  0  0  0  0  0  0
    6.9317   -9.3826    0.0000 C   0  0  0  0  0  0  0  0  0  0  0  0
    6.3797   -9.9957    0.0000 C   0  0  0  0  0  0  0  0  0  0  0  0
    5.5727   -9.8241    0.0000 C   0  0  0  0  0  0  0  0  0  0  0  0
    5.3178   -9.0395    0.0000 C   0  0  0  0  0  0  0  0  0  0  0  0
    5.8698   -8.4264    0.0000 C   0  0  0  0  0  0  0  0  0  0  0  0
    6.6768   -8.5979    0.0000 C   0  0  0  0  0  0  0  0  0  0  0  0
    7.3442   -8.1130    0.0000 N   0  0  0  0  0  0  0  0  0  0  0  0
    8.0116   -8.5979    0.0000 C   0  0  0  0  0  0  0  0  0  0  0  0
    9.0735   -7.6418    0.0000 C   0  0  0  0  0  0  0  0  0  0  0  0
    8.5215   -7.0287    0.0000 O   0  0  0  0  0  0  0  0  0  0  0  0
    9.8805   -7.4703    0.0000 O   0  0  0  0  0  0  0  0  0  0  0  0
    4.5108   -8.8680    0.0000 O   0  0  0  0  0  0  0  0  0  0  0  0
  1  2  2  0  0  0  0
  2  3  1  0  0  0  0
  3  4  2  0  0  0  0
  4  5  1  0  0  0  0
  5  6  1  0  0  0  0
  6  7  1  0  0  0  0
  7  8  2  0  0  0  0
  8  9  1  0  0  0  0
  9 10  2  0  0  0  0
 10 11  1  0  0  0  0
  6 11  2  0  0  0  0
 11 12  1  0  0  0  0
 12 13  1  0  0  0  0
  5 13  2  0  0  0  0
  1 13  1  0  0  0  0
 14 15  2  0  0  0  0
 14 16  1  0  0  0  0
  1 14  1  0  0  0  0
  9 17  1  0  0  0  0
M  END
>  <cdx:groupId>
55

>  <cdx:fragmentId>
5

$$$$
