94292.cdx
  Mrv1902 05222410182D          

  6  5  0  0  0  0            999 V2000
    5.2840   -3.6221    0.0000 C   0  0  0  0  0  0  0  0  0  0  0  0
    4.5695   -3.2096    0.0000 C   0  0  0  0  0  0  0  0  0  0  0  0
    3.8550   -3.6221    0.0000 C   0  0  0  0  0  0  0  0  0  0  0  0
    3.1406   -3.2096    0.0000 C   0  0  0  0  0  0  0  0  0  0  0  0
    5.9985   -3.2096    0.0000 O   0  0  0  0  0  0  0  0  0  0  0  0
    4.5695   -2.3846    0.0000 C   0  0  0  0  0  0  0  0  0  0  0  0
  1  2  1  0  0  0  0
  2  3  1  0  0  0  0
  3  4  2  0  0  0  0
  1  5  1  0  0  0  0
  2  6  1  0  0  0  0
M  END
>  <cdx:groupId>
19

>  <cdx:fragmentId>
5

$$$$
