94291.cdx
  Mrv1902 05222410182D          

 22 25  0  0  0  0            999 V2000
    8.3452  -10.3791    0.0000 C   0  0  0  0  0  0  0  0  0  0  0  0
    9.1522  -10.2076    0.0000 C   0  0  0  0  0  0  0  0  0  0  0  0
    9.4071   -9.4230    0.0000 N   0  0  0  0  0  0  0  0  0  0  0  0
    8.8551   -8.8099    0.0000 C   0  0  0  0  0  0  0  0  0  0  0  0
    8.9919   -7.9962    0.0000 C   0  0  0  0  0  0  0  0  0  0  0  0
    8.3716   -7.4522    0.0000 C   0  0  0  0  0  0  0  0  0  0  0  0
    7.5837   -7.6969    0.0000 C   0  0  0  0  0  0  0  0  0  0  0  0
    7.3807   -8.4965    0.0000 N   0  0  0  0  0  0  0  0  0  0  0  0
    6.7132   -8.9814    0.0000 C   0  0  0  0  0  0  0  0  0  0  0  0
    5.9063   -8.8099    0.0000 C   0  0  0  0  0  0  0  0  0  0  0  0
    5.3542   -9.4230    0.0000 C   0  0  0  0  0  0  0  0  0  0  0  0
    5.6092  -10.2076    0.0000 C   0  0  0  0  0  0  0  0  0  0  0  0
    6.4161  -10.3791    0.0000 C   0  0  0  0  0  0  0  0  0  0  0  0
    6.9682   -9.7660    0.0000 C   0  0  0  0  0  0  0  0  0  0  0  0
    7.7932   -9.7660    0.0000 C   0  0  0  0  0  0  0  0  0  0  0  0
    8.0481   -8.9814    0.0000 C   0  0  0  0  0  0  0  0  0  0  0  0
    6.9853   -7.1290    0.0000 O   0  0  0  0  0  0  0  0  0  0  0  0
    8.5432   -6.6452    0.0000 O   0  0  0  0  0  0  0  0  0  0  0  0
    4.5473   -9.2514    0.0000 O   0  0  0  0  0  0  0  0  0  0  0  0
    3.9952   -9.8645    0.0000 C   0  0  0  0  0  0  0  0  0  0  0  0
    9.7691   -7.7194    0.0000 O   0  0  0  0  0  0  0  0  0  0  0  0
   10.3974   -8.2541    0.0000 C   0  0  0  0  0  0  0  0  0  0  0  0
  1  2  1  0  0  0  0
  2  3  2  0  0  0  0
  3  4  1  0  0  0  0
  4  5  1  0  0  0  0
  5  6  2  0  0  0  0
  6  7  1  0  0  0  0
  7  8  1  0  0  0  0
  8  9  1  0  0  0  0
  9 10  1  0  0  0  0
 10 11  2  0  0  0  0
 11 12  1  0  0  0  0
 12 13  2  0  0  0  0
 13 14  1  0  0  0  0
  9 14  2  0  0  0  0
 14 15  1  0  0  0  0
  1 15  2  0  0  0  0
 15 16  1  0  0  0  0
  4 16  2  0  0  0  0
  8 16  1  0  0  0  0
  7 17  2  0  0  0  0
  6 18  1  0  0  0  0
 19 20  1  0  0  0  0
 11 19  1  0  0  0  0
 21 22  1  0  0  0  0
  5 21  1  0  0  0  0
M  END
>  <cdx:groupId>
71

>  <cdx:fragmentId>
5

$$$$
