94305.cdx
  Mrv1902 05222410272D          

 42 46  0  0  0  0            999 V2000
   10.4248   -8.0294    0.0000 C   0  0  0  0  0  0  0  0  0  0  0  0
   10.4248   -8.8544    0.0000 C   0  0  0  0  0  0  0  0  0  0  0  0
   11.1393   -9.2669    0.0000 C   0  0  0  0  0  0  0  0  0  0  0  0
   11.8537   -8.8544    0.0000 C   0  0  0  0  0  0  0  0  0  0  0  0
   11.8537   -8.0294    0.0000 C   0  0  0  0  0  0  0  0  0  0  0  0
   11.1393   -7.6169    0.0000 C   0  0  0  0  0  0  0  0  0  0  0  0
   12.5682   -9.2669    0.0000 C   0  0  0  0  0  0  0  0  0  0  0  0
   13.2827   -8.8544    0.0000 C   0  0  0  0  0  0  0  0  0  0  0  0
   13.2827   -8.0294    0.0000 C   0  0  0  0  0  0  0  0  0  0  0  0
   12.5682   -7.6169    0.0000 O   0  0  0  0  0  0  0  0  0  0  0  0
   14.7116   -8.0294    0.0000 C   0  0  0  0  0  0  0  0  0  0  0  0
   13.9971   -7.6169    0.0000 C   0  0  0  0  0  0  0  0  0  0  0  0
   15.4261   -7.6169    0.0000 C   0  0  0  0  0  0  0  0  0  0  0  0
   15.4261   -6.7919    0.0000 C   0  0  0  0  0  0  0  0  0  0  0  0
   14.7116   -6.3794    0.0000 C   0  0  0  0  0  0  0  0  0  0  0  0
   13.9971   -6.7919    0.0000 C   0  0  0  0  0  0  0  0  0  0  0  0
    9.7103   -7.6169    0.0000 O   0  0  0  0  0  0  0  0  0  0  0  0
   11.1393  -10.0919    0.0000 O   0  0  0  0  0  0  0  0  0  0  0  0
   12.5682  -10.0919    0.0000 O   0  0  0  0  0  0  0  0  0  0  0  0
   16.1406   -6.3794    0.0000 O   0  0  0  0  0  0  0  0  0  0  0  0
    8.9958   -8.0294    0.0000 C   0  0  2  0  0  0  0  0  0  0  0  0
    8.2814   -7.6169    0.0000 O   0  0  0  0  0  0  0  0  0  0  0  0
    7.5669   -8.0294    0.0000 C   0  0  1  0  0  0  0  0  0  0  0  0
    7.5669   -8.8544    0.0000 C   0  0  2  0  0  0  0  0  0  0  0  0
    8.2814   -9.2669    0.0000 C   0  0  1  0  0  0  0  0  0  0  0  0
    8.9958   -8.8544    0.0000 C   0  0  1  0  0  0  0  0  0  0  0  0
    6.8524   -7.6169    0.0000 C   0  0  0  0  0  0  0  0  0  0  0  0
    8.2814  -10.0919    0.0000 O   0  0  0  0  0  0  0  0  0  0  0  0
    6.8524   -9.2669    0.0000 O   0  0  0  0  0  0  0  0  0  0  0  0
    9.7103   -9.2669    0.0000 O   0  0  0  0  0  0  0  0  0  0  0  0
    6.1380   -8.0294    0.0000 O   0  0  0  0  0  0  0  0  0  0  0  0
    1.8196   -8.7334    0.0000 C   0  0  0  0  0  0  0  0  0  0  0  0
    2.5223   -9.1656    0.0000 C   0  0  0  0  0  0  0  0  0  0  0  0
    3.2480   -8.7731    0.0000 C   0  0  0  0  0  0  0  0  0  0  0  0
    3.2708   -7.9484    0.0000 C   0  0  0  0  0  0  0  0  0  0  0  0
    2.5681   -7.5162    0.0000 C   0  0  0  0  0  0  0  0  0  0  0  0
    1.8425   -7.9087    0.0000 C   0  0  0  0  0  0  0  0  0  0  0  0
    1.0939   -9.1259    0.0000 O   0  0  0  0  0  0  0  0  0  0  0  0
    3.9965   -7.5559    0.0000 C   0  0  0  0  0  0  0  0  0  0  0  0
    4.6992   -7.9880    0.0000 C   0  0  0  0  0  0  0  0  0  0  0  0
    5.4249   -7.5955    0.0000 C   0  0  0  0  0  0  0  0  0  0  0  0
    5.4478   -6.7708    0.0000 O   0  0  0  0  0  0  0  0  0  0  0  0
  1  2  2  0  0  0  0
  2  3  1  0  0  0  0
  3  4  2  0  0  0  0
  4  5  1  0  0  0  0
  5  6  2  0  0  0  0
  6  1  1  0  0  0  0
  4  7  1  0  0  0  0
  7  8  1  0  0  0  0
  8  9  2  0  0  0  0
  9 10  1  0  0  0  0
 10  5  1  0  0  0  0
 11 12  2  0  0  0  0
 12  9  1  0  0  0  0
 11 13  1  0  0  0  0
 13 14  2  0  0  0  0
 14 15  1  0  0  0  0
 15 16  2  0  0  0  0
 16 12  1  0  0  0  0
  1 17  1  0  0  0  0
  3 18  1  0  0  0  0
  7 19  2  0  0  0  0
 14 20  1  0  0  0  0
 21 17  1  1  0  0  0
 21 22  1  0  0  0  0
 22 23  1  0  0  0  0
 23 24  1  0  0  0  0
 24 25  1  0  0  0  0
 25 26  1  0  0  0  0
 26 21  1  0  0  0  0
 23 27  1  1  0  0  0
 25 28  1  1  0  0  0
 24 29  1  6  0  0  0
 26 30  1  6  0  0  0
 27 31  1  0  0  0  0
 32 33  2  0  0  0  0
 33 34  1  0  0  0  0
 34 35  2  0  0  0  0
 35 36  1  0  0  0  0
 36 37  2  0  0  0  0
 37 32  1  0  0  0  0
 32 38  1  0  0  0  0
 35 39  1  0  0  0  0
 39 40  2  0  0  0  0
 40 41  1  0  0  0  0
 41 42  2  0  0  0  0
 41 31  1  0  0  0  0
M  END
>  <cdx:fragmentId>
5

$$$$
