94303.cdx
  Mrv1902 05222410282D          

 45 49  0  0  0  0            999 V2000
    9.9999   -8.6710    0.0000 O   0  0  0  0  0  0  0  0  0  0  0  0
    7.1420   -9.4960    0.0000 O   0  0  0  0  0  0  0  0  0  0  0  0
    5.7130   -7.0210    0.0000 O   0  0  0  0  0  0  0  0  0  0  0  0
   10.7143   -4.9585    0.0000 O   0  0  0  0  0  0  0  0  0  0  0  0
   12.1433   -5.7835    0.0000 O   0  0  0  0  0  0  0  0  0  0  0  0
   12.1433   -7.4335    0.0000 O   0  0  0  0  0  0  0  0  0  0  0  0
   10.7143   -7.4335    0.0000 C   0  0  0  0  0  0  0  0  0  0  0  0
   11.4288   -7.0210    0.0000 C   0  0  0  0  0  0  0  0  0  0  0  0
   11.4288   -6.1960    0.0000 C   0  0  0  0  0  0  0  0  0  0  0  0
   10.7143   -5.7835    0.0000 C   0  0  0  0  0  0  0  0  0  0  0  0
    9.9999   -6.1960    0.0000 C   0  0  0  0  0  0  0  0  0  0  0  0
    9.9999   -7.0210    0.0000 C   0  0  0  0  0  0  0  0  0  0  0  0
    8.5709   -9.4960    0.0000 O   0  0  0  0  0  0  0  0  0  0  0  0
    8.5709   -7.0210    0.0000 O   0  0  0  0  0  0  0  0  0  0  0  0
    7.8564   -7.4335    0.0000 C   0  0  0  0  0  0  0  0  0  0  0  0
    7.1420   -7.0210    0.0000 C   0  0  0  0  0  0  0  0  0  0  0  0
    6.4275   -7.4335    0.0000 C   0  0  0  0  0  0  0  0  0  0  0  0
    6.4275   -8.2585    0.0000 C   0  0  0  0  0  0  0  0  0  0  0  0
    7.1420   -8.6710    0.0000 C   0  0  0  0  0  0  0  0  0  0  0  0
    7.8564   -8.2585    0.0000 C   0  0  0  0  0  0  0  0  0  0  0  0
    8.5709   -8.6710    0.0000 C   0  0  0  0  0  0  0  0  0  0  0  0
    9.2854   -8.2585    0.0000 C   0  0  0  0  0  0  0  0  0  0  0  0
    9.2854   -7.4335    0.0000 C   0  0  0  0  0  0  0  0  0  0  0  0
    9.2779  -10.7336    0.0000 C   0  0  2  0  0  0  0  0  0  0  0  0
    9.9904  -11.1495    0.0000 C   0  0  2  0  0  0  0  0  0  0  0  0
   10.7069  -10.7404    0.0000 C   0  0  1  0  0  0  0  0  0  0  0  0
   10.7108   -9.9154    0.0000 C   0  0  2  0  0  0  0  0  0  0  0  0
    9.9983   -9.4995    0.0000 C   0  0  1  0  0  0  0  0  0  0  0  0
    9.2819   -9.9086    0.0000 O   0  0  0  0  0  0  0  0  0  0  0  0
    8.5615  -11.1427    0.0000 C   0  0  0  0  0  0  0  0  0  0  0  0
   11.4193  -11.1563    0.0000 O   0  0  0  0  0  0  0  0  0  0  0  0
    9.9865  -11.9745    0.0000 O   0  0  0  0  0  0  0  0  0  0  0  0
   11.4272   -9.5064    0.0000 O   0  0  0  0  0  0  0  0  0  0  0  0
    8.5576  -11.9677    0.0000 O   0  0  0  0  0  0  0  0  0  0  0  0
    3.5728   -7.4335    0.0000 C   0  0  2  0  0  0  0  0  0  0  0  0
    3.5728   -8.2585    0.0000 C   0  0  2  0  0  0  0  0  0  0  0  0
    4.2873   -8.6710    0.0000 C   0  0  1  0  0  0  0  0  0  0  0  0
    5.0017   -8.2585    0.0000 C   0  0  2  0  0  0  0  0  0  0  0  0
    5.0017   -7.4335    0.0000 C   0  0  1  0  0  0  0  0  0  0  0  0
    4.2873   -7.0210    0.0000 O   0  0  0  0  0  0  0  0  0  0  0  0
    2.8583   -7.0210    0.0000 C   0  0  0  0  0  0  0  0  0  0  0  0
    4.2873   -9.4960    0.0000 O   0  0  0  0  0  0  0  0  0  0  0  0
    2.8583   -8.6710    0.0000 O   0  0  0  0  0  0  0  0  0  0  0  0
    5.7162   -8.6710    0.0000 O   0  0  0  0  0  0  0  0  0  0  0  0
    2.1438   -7.4335    0.0000 O   0  0  0  0  0  0  0  0  0  0  0  0
 22  1  1  0  0  0  0
 19  2  1  0  0  0  0
 17  3  1  0  0  0  0
 23 12  1  0  0  0  0
 10  4  1  0  0  0  0
  9  5  1  0  0  0  0
  8  6  1  0  0  0  0
 12  7  2  0  0  0  0
  8  7  1  0  0  0  0
  9  8  2  0  0  0  0
 10  9  1  0  0  0  0
 11 10  2  0  0  0  0
 12 11  1  0  0  0  0
 21 13  2  0  0  0  0
 23 14  1  0  0  0  0
 15 14  1  0  0  0  0
 20 15  2  0  0  0  0
 16 15  1  0  0  0  0
 17 16  2  0  0  0  0
 18 17  1  0  0  0  0
 19 18  2  0  0  0  0
 20 19  1  0  0  0  0
 21 20  1  0  0  0  0
 22 21  1  0  0  0  0
 23 22  2  0  0  0  0
 24 25  1  0  0  0  0
 25 26  1  0  0  0  0
 26 27  1  0  0  0  0
 27 28  1  0  0  0  0
 28 29  1  0  0  0  0
 29 24  1  0  0  0  0
 24 30  1  1  0  0  0
 26 31  1  1  0  0  0
 25 32  1  6  0  0  0
 27 33  1  6  0  0  0
 30 34  1  0  0  0  0
 35 36  1  0  0  0  0
 36 37  1  0  0  0  0
 37 38  1  0  0  0  0
 38 39  1  0  0  0  0
 39 40  1  0  0  0  0
 40 35  1  0  0  0  0
 35 41  1  1  0  0  0
 37 42  1  1  0  0  0
 36 43  1  6  0  0  0
 38 44  1  6  0  0  0
 41 45  1  0  0  0  0
 28  1  1  1  0  0  0
 39  3  1  1  0  0  0
M  END
>  <cdx:groupId>
73

>  <cdx:fragmentId>
5

$$$$
