94301.cdx
  Mrv1902 05222410272D          

 17 19  0  0  0  0            999 V2000
    8.2653   -8.6056    0.0000 C   0  0  0  0  0  0  0  0  0  0  0  0
    8.8174   -9.2187    0.0000 N   0  0  0  0  0  0  0  0  0  0  0  0
    8.5624  -10.0033    0.0000 C   0  0  0  0  0  0  0  0  0  0  0  0
    7.7555  -10.1748    0.0000 C   0  0  0  0  0  0  0  0  0  0  0  0
    7.2034   -9.5617    0.0000 C   0  0  0  0  0  0  0  0  0  0  0  0
    6.3784   -9.5617    0.0000 C   0  0  0  0  0  0  0  0  0  0  0  0
    5.8264  -10.1748    0.0000 C   0  0  0  0  0  0  0  0  0  0  0  0
    5.0194  -10.0033    0.0000 C   0  0  0  0  0  0  0  0  0  0  0  0
    4.7645   -9.2187    0.0000 C   0  0  0  0  0  0  0  0  0  0  0  0
    5.3165   -8.6056    0.0000 C   0  0  0  0  0  0  0  0  0  0  0  0
    6.1235   -8.7771    0.0000 C   0  0  0  0  0  0  0  0  0  0  0  0
    6.7909   -8.2922    0.0000 N   0  0  0  0  0  0  0  0  0  0  0  0
    7.4584   -8.7771    0.0000 C   0  0  0  0  0  0  0  0  0  0  0  0
    9.3272   -7.6494    0.0000 C   0  0  0  0  0  0  0  0  0  0  0  0
    8.5203   -7.8210    0.0000 C   0  0  0  0  0  0  0  0  0  0  0  0
    9.5822   -6.8648    0.0000 O   0  0  0  0  0  0  0  0  0  0  0  0
    5.0616   -7.8210    0.0000 O   0  0  0  0  0  0  0  0  0  0  0  0
  1  2  2  0  0  0  0
  2  3  1  0  0  0  0
  3  4  2  0  0  0  0
  4  5  1  0  0  0  0
  5  6  1  0  0  0  0
  6  7  1  0  0  0  0
  7  8  2  0  0  0  0
  8  9  1  0  0  0  0
  9 10  2  0  0  0  0
 10 11  1  0  0  0  0
  6 11  2  0  0  0  0
 11 12  1  0  0  0  0
 12 13  1  0  0  0  0
  5 13  2  0  0  0  0
  1 13  1  0  0  0  0
 14 15  1  0  0  0  0
 14 16  2  0  0  0  0
  1 15  1  0  0  0  0
 10 17  1  0  0  0  0
M  END
>  <cdx:fragmentId>
5

$$$$
