94311.cdx
  Mrv1902 05222410272D          

 23 24  0  0  0  0            999 V2000
   10.1282   -9.2404    0.0000 C   0  0  0  0  0  0  0  0  0  0  0  0
    9.4137   -8.8279    0.0000 C   0  0  0  0  0  0  0  0  0  0  0  0
    8.6992   -9.2404    0.0000 C   0  0  0  0  0  0  0  0  0  0  0  0
    7.9848   -8.8279    0.0000 C   0  0  0  0  0  0  0  0  0  0  0  0
    7.2703   -9.2404    0.0000 C   0  0  0  0  0  0  0  0  0  0  0  0
    6.5558   -8.8279    0.0000 C   0  0  0  0  0  0  0  0  0  0  0  0
    5.8413   -9.2404    0.0000 C   0  0  0  0  0  0  0  0  0  0  0  0
    5.1269   -8.8279    0.0000 C   0  0  0  0  0  0  0  0  0  0  0  0
    4.4124   -9.2404    0.0000 C   0  0  0  0  0  0  0  0  0  0  0  0
    3.6979   -8.8279    0.0000 C   0  0  0  0  0  0  0  0  0  0  0  0
    2.9835   -9.2404    0.0000 C   0  0  0  0  0  0  0  0  0  0  0  0
    2.2690   -8.8279    0.0000 C   0  0  0  0  0  0  0  0  0  0  0  0
    1.5545   -9.2404    0.0000 C   0  0  0  0  0  0  0  0  0  0  0  0
    0.8400   -8.8279    0.0000 C   0  0  0  0  0  0  0  0  0  0  0  0
   10.8426   -8.8279    0.0000 C   0  0  0  0  0  0  0  0  0  0  0  0
   11.5571   -9.2404    0.0000 C   0  0  0  0  0  0  0  0  0  0  0  0
   12.2716   -8.8279    0.0000 C   0  0  0  0  0  0  0  0  0  0  0  0
   12.2716   -8.0029    0.0000 C   0  0  0  0  0  0  0  0  0  0  0  0
   11.5571   -7.5904    0.0000 C   0  0  0  0  0  0  0  0  0  0  0  0
   10.8426   -8.0029    0.0000 C   0  0  0  0  0  0  0  0  0  0  0  0
   13.5411   -8.4154    0.0000 C   0  0  0  0  0  0  0  0  0  0  0  0
   13.0562   -9.0828    0.0000 O   0  0  0  0  0  0  0  0  0  0  0  0
   13.0562   -7.7479    0.0000 O   0  0  0  0  0  0  0  0  0  0  0  0
  1  2  2  0  0  0  0
  2  3  1  0  0  0  0
  3  4  1  0  0  0  0
  4  5  1  0  0  0  0
  5  6  1  0  0  0  0
  6  7  1  0  0  0  0
  7  8  1  0  0  0  0
  8  9  1  0  0  0  0
  9 10  1  0  0  0  0
 10 11  1  0  0  0  0
 11 12  1  0  0  0  0
 12 13  1  0  0  0  0
 13 14  1  0  0  0  0
 15 16  2  0  0  0  0
 16 17  1  0  0  0  0
 17 18  2  0  0  0  0
 18 19  1  0  0  0  0
 19 20  2  0  0  0  0
 15 20  1  0  0  0  0
 21 22  1  0  0  0  0
 21 23  1  0  0  0  0
 17 22  1  0  0  0  0
 18 23  1  0  0  0  0
  1 15  1  0  0  0  0
M  END
>  <cdx:fragmentId>
5

$$$$
