94313.cdx
  Mrv1902 05222410262D          

 24 25  0  0  0  0            999 V2000
   10.0535   -8.6710    0.0000 C   0  0  2  0  0  0  0  0  0  0  0  0
    9.3391   -9.0835    0.0000 C   0  0  0  0  0  0  0  0  0  0  0  0
    8.6246   -8.6710    0.0000 C   0  0  2  0  0  0  0  0  0  0  0  0
    8.6246   -7.8460    0.0000 C   0  0  2  0  0  0  0  0  0  0  0  0
    9.3391   -7.4335    0.0000 C   0  0  1  0  0  0  0  0  0  0  0  0
   10.0535   -7.8460    0.0000 C   0  0  0  0  0  0  0  0  0  0  0  0
   10.7680   -9.0835    0.0000 C   0  0  0  0  0  0  0  0  0  0  0  0
   10.7680   -9.9085    0.0000 O   0  0  0  0  0  0  0  0  0  0  0  0
   11.4825   -8.6710    0.0000 O   0  0  0  0  0  0  0  0  0  0  0  0
    9.3391   -6.6085    0.0000 O   0  0  0  0  0  0  0  0  0  0  0  0
    7.9101   -7.4335    0.0000 O   0  0  0  0  0  0  0  0  0  0  0  0
   10.0535   -9.4960    0.0000 O   0  0  0  0  0  0  0  0  0  0  0  0
    7.9101   -9.0835    0.0000 O   0  0  0  0  0  0  0  0  0  0  0  0
    7.1956   -8.6710    0.0000 C   0  0  0  0  0  0  0  0  0  0  0  0
    6.4812   -9.0835    0.0000 C   0  0  0  0  0  0  0  0  0  0  0  0
    5.7667   -8.6710    0.0000 C   0  0  0  0  0  0  0  0  0  0  0  0
    5.0522   -9.0835    0.0000 C   0  0  0  0  0  0  0  0  0  0  0  0
    4.3378   -8.6710    0.0000 C   0  0  0  0  0  0  0  0  0  0  0  0
    3.6233   -9.0835    0.0000 C   0  0  0  0  0  0  0  0  0  0  0  0
    3.6233   -9.9085    0.0000 C   0  0  0  0  0  0  0  0  0  0  0  0
    4.3378  -10.3210    0.0000 C   0  0  0  0  0  0  0  0  0  0  0  0
    5.0522   -9.9085    0.0000 C   0  0  0  0  0  0  0  0  0  0  0  0
    2.9088  -10.3210    0.0000 O   0  0  0  0  0  0  0  0  0  0  0  0
    2.9088   -8.6710    0.0000 O   0  0  0  0  0  0  0  0  0  0  0  0
  1  2  1  0  0  0  0
  2  3  1  0  0  0  0
  3  4  1  0  0  0  0
  4  5  1  0  0  0  0
  5  6  1  0  0  0  0
  1  6  1  0  0  0  0
  7  8  2  0  0  0  0
  7  9  1  0  0  0  0
  1  7  1  0  0  0  0
  5 10  1  6  0  0  0
  4 11  1  1  0  0  0
  1 12  1  1  0  0  0
 14 15  1  0  0  0  0
 15 16  1  0  0  0  0
 13 14  1  0  0  0  0
 17 18  1  0  0  0  0
 18 19  2  0  0  0  0
 19 20  1  0  0  0  0
 20 21  2  0  0  0  0
 21 22  1  0  0  0  0
 17 22  2  0  0  0  0
 20 23  1  0  0  0  0
 19 24  1  0  0  0  0
 16 17  1  0  0  0  0
  3 13  1  1  0  0  0
M  END
>  <cdx:groupId>
75

>  <cdx:fragmentId>
37

$$$$
