94312.cdx
  Mrv1902 05222410262D          

 42 44  0  0  0  0            999 V2000
    6.8384  -10.1147    0.0000 O   0  0  0  0  0  0  0  0  0  0  0  0
    6.1239  -10.5272    0.0000 C   0  0  1  0  0  0  0  0  0  0  0  0
    6.1239  -11.3522    0.0000 C   0  0  2  0  0  0  0  0  0  0  0  0
    6.8384  -11.7647    0.0000 O   0  0  0  0  0  0  0  0  0  0  0  0
    5.4095  -11.7647    0.0000 C   0  0  1  0  0  0  0  0  0  0  0  0
    5.4095  -12.5897    0.0000 O   0  0  0  0  0  0  0  0  0  0  0  0
    4.6950  -11.3522    0.0000 C   0  0  2  0  0  0  0  0  0  0  0  0
    3.9805  -11.7647    0.0000 O   0  0  0  0  0  0  0  0  0  0  0  0
    4.6950  -10.5272    0.0000 C   0  0  2  0  0  0  0  0  0  0  0  0
    5.4095  -10.1147    0.0000 O   0  0  0  0  0  0  0  0  0  0  0  0
    3.9805  -10.1147    0.0000 C   0  0  0  0  0  0  0  0  0  0  0  0
    3.2661  -10.5272    0.0000 O   0  0  0  0  0  0  0  0  0  0  0  0
    6.8384   -9.2897    0.0000 C   0  0  0  0  0  0  0  0  0  0  0  0
    7.5529   -8.8772    0.0000 C   0  0  0  0  0  0  0  0  0  0  0  0
    8.2674   -9.2897    0.0000 C   0  0  0  0  0  0  0  0  0  0  0  0
    7.5529   -8.0522    0.0000 O   0  0  0  0  0  0  0  0  0  0  0  0
    8.2674   -7.6397    0.0000 C   0  0  0  0  0  0  0  0  0  0  0  0
    8.2674   -6.8147    0.0000 C   0  0  0  0  0  0  0  0  0  0  0  0
    8.9818   -6.4022    0.0000 C   0  0  0  0  0  0  0  0  0  0  0  0
    9.6963   -6.8147    0.0000 C   0  0  0  0  0  0  0  0  0  0  0  0
    9.6963   -7.6397    0.0000 C   0  0  0  0  0  0  0  0  0  0  0  0
    8.9818   -8.0522    0.0000 C   0  0  0  0  0  0  0  0  0  0  0  0
    8.9818   -8.8772    0.0000 O   0  0  0  0  0  0  0  0  0  0  0  0
    9.6963   -9.2897    0.0000 C   0  0  0  0  0  0  0  0  0  0  0  0
    7.5529   -6.4022    0.0000 O   0  0  0  0  0  0  0  0  0  0  0  0
    7.5529   -5.5772    0.0000 C   0  0  0  0  0  0  0  0  0  0  0  0
   10.4108   -6.4022    0.0000 C   0  0  0  0  0  0  0  0  0  0  0  0
   10.4108   -5.5772    0.0000 C   0  0  0  0  0  0  0  0  0  0  0  0
   11.1252   -5.1647    0.0000 C   0  0  0  0  0  0  0  0  0  0  0  0
   11.1252   -4.3397    0.0000 O   0  0  0  0  0  0  0  0  0  0  0  0
    6.1239   -8.8772    0.0000 C   0  0  0  0  0  0  0  0  0  0  0  0
    5.4095   -9.2897    0.0000 C   0  0  0  0  0  0  0  0  0  0  0  0
    4.6950   -8.8772    0.0000 C   0  0  0  0  0  0  0  0  0  0  0  0
    4.6950   -8.0522    0.0000 C   0  0  0  0  0  0  0  0  0  0  0  0
    5.4095   -7.6397    0.0000 C   0  0  0  0  0  0  0  0  0  0  0  0
    6.1239   -8.0522    0.0000 C   0  0  0  0  0  0  0  0  0  0  0  0
    5.4095   -6.8147    0.0000 O   0  0  0  0  0  0  0  0  0  0  0  0
    6.1239   -6.4022    0.0000 C   0  0  0  0  0  0  0  0  0  0  0  0
    3.9805   -9.2897    0.0000 O   0  0  0  0  0  0  0  0  0  0  0  0
    3.2661   -8.8772    0.0000 C   0  0  0  0  0  0  0  0  0  0  0  0
    3.9805   -7.6397    0.0000 O   0  0  0  0  0  0  0  0  0  0  0  0
    8.2674  -10.1147    0.0000 O   0  0  0  0  0  0  0  0  0  0  0  0
  2  1  1  1  0  0  0
  2  3  1  0  0  0  0
  3  4  1  6  0  0  0
  3  5  1  0  0  0  0
  5  6  1  1  0  0  0
  5  7  1  0  0  0  0
  7  8  1  6  0  0  0
  7  9  1  0  0  0  0
  9 10  1  0  0  0  0
  9 11  1  1  0  0  0
 11 12  1  0  0  0  0
  2 10  1  0  0  0  0
 13 14  1  0  0  0  0
 14 15  1  0  0  0  0
 17 18  1  0  0  0  0
 18 19  2  0  0  0  0
 19 20  1  0  0  0  0
 20 21  2  0  0  0  0
 21 22  1  0  0  0  0
 17 22  2  0  0  0  0
 16 17  1  0  0  0  0
 23 24  1  0  0  0  0
 22 23  1  0  0  0  0
 25 26  1  0  0  0  0
 18 25  1  0  0  0  0
 27 28  2  0  0  0  0
 28 29  1  0  0  0  0
 29 30  1  0  0  0  0
 20 27  1  0  0  0  0
 14 16  1  0  0  0  0
 31 32  1  0  0  0  0
 32 33  2  0  0  0  0
 33 34  1  0  0  0  0
 34 35  2  0  0  0  0
 35 36  1  0  0  0  0
 31 36  2  0  0  0  0
 37 38  1  0  0  0  0
 35 37  1  0  0  0  0
 39 40  1  0  0  0  0
 33 39  1  0  0  0  0
 34 41  1  0  0  0  0
 13 31  1  0  0  0  0
 15 42  1  0  0  0  0
  1 13  1  0  0  0  0
M  END
>  <cdx:fragmentId>
37

$$$$
