94317.cdx
  Mrv1902 05222410282D          

 41 45  0  0  0  0            999 V2000
    5.6631   -6.6413    0.0000 C   0  0  0  0  0  0  0  0  0  0  0  0
    5.6631   -7.4663    0.0000 C   0  0  0  0  0  0  0  0  0  0  0  0
    6.3775   -7.8788    0.0000 C   0  0  0  0  0  0  0  0  0  0  0  0
    7.0920   -7.4663    0.0000 C   0  0  0  0  0  0  0  0  0  0  0  0
    7.0920   -6.6413    0.0000 C   0  0  0  0  0  0  0  0  0  0  0  0
    6.3775   -6.2287    0.0000 C   0  0  0  0  0  0  0  0  0  0  0  0
    7.8065   -7.8788    0.0000 C   0  0  0  0  0  0  0  0  0  0  0  0
    8.5209   -7.4663    0.0000 C   0  0  0  0  0  0  0  0  0  0  0  0
    8.5209   -6.6413    0.0000 C   0  0  0  0  0  0  0  0  0  0  0  0
    7.8065   -6.2287    0.0000 O   0  0  0  0  0  0  0  0  0  0  0  0
    6.3775   -8.7037    0.0000 O   0  0  0  0  0  0  0  0  0  0  0  0
    7.8065   -8.7037    0.0000 O   0  0  0  0  0  0  0  0  0  0  0  0
    9.9499   -6.6413    0.0000 C   0  0  0  0  0  0  0  0  0  0  0  0
    9.2354   -6.2287    0.0000 C   0  0  0  0  0  0  0  0  0  0  0  0
   10.6644   -6.2287    0.0000 C   0  0  0  0  0  0  0  0  0  0  0  0
   10.6644   -5.4037    0.0000 C   0  0  0  0  0  0  0  0  0  0  0  0
    9.9499   -4.9913    0.0000 C   0  0  0  0  0  0  0  0  0  0  0  0
    9.2354   -5.4037    0.0000 C   0  0  0  0  0  0  0  0  0  0  0  0
    4.9486   -6.2287    0.0000 O   0  0  0  0  0  0  0  0  0  0  0  0
   11.3788   -4.9913    0.0000 O   0  0  0  0  0  0  0  0  0  0  0  0
    5.6985   -9.1090    0.0000 O   0  0  0  0  0  0  0  0  0  0  0  0
    4.2684   -9.9320    0.0000 O   0  0  0  0  0  0  0  0  0  0  0  0
    2.8406   -9.1051    0.0000 O   0  0  0  0  0  0  0  0  0  0  0  0
    4.9846   -8.6955    0.0000 C   0  0  1  0  0  0  0  0  0  0  0  0
    4.9857   -7.8705    0.0000 C   0  0  1  0  0  0  0  0  0  0  0  0
    4.2718   -7.4570    0.0000 O   0  0  0  0  0  0  0  0  0  0  0  0
    3.5568   -7.8686    0.0000 C   0  0  0  0  0  0  0  0  0  0  0  0
    3.5556   -8.6936    0.0000 C   0  0  1  0  0  0  0  0  0  0  0  0
    4.2695   -9.1070    0.0000 C   0  0  2  0  0  0  0  0  0  0  0  0
    5.6985   -9.9340    0.0000 C   0  0  2  0  0  0  0  0  0  0  0  0
    4.9840  -10.3465    0.0000 O   0  0  0  0  0  0  0  0  0  0  0  0
    4.9840  -11.1715    0.0000 C   0  0  1  0  0  0  0  0  0  0  0  0
    5.6985  -11.5840    0.0000 C   0  0  2  0  0  0  0  0  0  0  0  0
    6.4129  -11.1715    0.0000 C   0  0  1  0  0  0  0  0  0  0  0  0
    6.4129  -10.3465    0.0000 C   0  0  1  0  0  0  0  0  0  0  0  0
    4.2695  -11.5840    0.0000 C   0  0  0  0  0  0  0  0  0  0  0  0
    7.1274  -11.5840    0.0000 O   0  0  0  0  0  0  0  0  0  0  0  0
    7.1274   -9.9340    0.0000 O   0  0  0  0  0  0  0  0  0  0  0  0
    5.6985  -12.4090    0.0000 O   0  0  0  0  0  0  0  0  0  0  0  0
    4.2695  -12.4090    0.0000 O   0  0  0  0  0  0  0  0  0  0  0  0
    4.9857   -7.0455    0.0000 H   0  0  0  0  0  0  0  0  0  0  0  0
  1  2  2  0  0  0  0
  2  3  1  0  0  0  0
  3  4  2  0  0  0  0
  4  5  1  0  0  0  0
  5  6  2  0  0  0  0
  6  1  1  0  0  0  0
  4  7  1  0  0  0  0
  7  8  1  0  0  0  0
  8  9  2  0  0  0  0
  9 10  1  0  0  0  0
 10  5  1  0  0  0  0
  3 11  1  0  0  0  0
 12  7  2  0  0  0  0
 13 14  2  0  0  0  0
 14  9  1  0  0  0  0
 13 15  1  0  0  0  0
 15 16  2  0  0  0  0
 16 17  1  0  0  0  0
 17 18  2  0  0  0  0
 18 14  1  0  0  0  0
  1 19  1  0  0  0  0
 16 20  1  0  0  0  0
 24 21  1  6  0  0  0
 29 22  1  1  0  0  0
 28 23  1  1  0  0  0
 24 29  1  0  0  0  0
 25 24  1  0  0  0  0
 26 25  1  0  0  0  0
 27 26  1  0  0  0  0
 28 27  1  0  0  0  0
 29 28  1  0  0  0  0
 25  2  1  0  0  0  0
 30 21  1  1  0  0  0
 30 31  1  0  0  0  0
 31 32  1  0  0  0  0
 32 33  1  0  0  0  0
 33 34  1  0  0  0  0
 34 35  1  0  0  0  0
 35 30  1  0  0  0  0
 32 36  1  1  0  0  0
 34 37  1  1  0  0  0
 35 38  1  6  0  0  0
 33 39  1  6  0  0  0
 36 40  1  0  0  0  0
 25 41  1  6  0  0  0
M  END
>  <cdx:fragmentId>
133

$$$$
