94329.cdx
  Mrv1902 05222410272D          

 31 35  0  0  0  0            999 V2000
    4.0406   -6.3937    0.0000 C   0  0  0  0  0  0  0  0  0  0  0  0
    4.0406   -7.2188    0.0000 C   0  0  0  0  0  0  0  0  0  0  0  0
    4.7550   -7.6313    0.0000 C   0  0  0  0  0  0  0  0  0  0  0  0
    5.4695   -7.2188    0.0000 C   0  0  0  0  0  0  0  0  0  0  0  0
    5.4695   -6.3937    0.0000 C   0  0  0  0  0  0  0  0  0  0  0  0
    4.7550   -5.9813    0.0000 C   0  0  0  0  0  0  0  0  0  0  0  0
    6.1840   -7.6313    0.0000 C   0  0  1  0  0  0  0  0  0  0  0  0
    6.8984   -7.2188    0.0000 C   0  0  2  0  0  0  0  0  0  0  0  0
    6.8984   -6.3937    0.0000 C   0  0  2  0  0  0  0  0  0  0  0  0
    6.1840   -5.9813    0.0000 O   0  0  0  0  0  0  0  0  0  0  0  0
    7.6129   -5.9813    0.0000 C   0  0  0  0  0  0  0  0  0  0  0  0
    7.6129   -5.1563    0.0000 C   0  0  0  0  0  0  0  0  0  0  0  0
    8.3274   -6.3937    0.0000 C   0  0  0  0  0  0  0  0  0  0  0  0
    9.0419   -5.9813    0.0000 C   0  0  0  0  0  0  0  0  0  0  0  0
    9.0419   -5.1563    0.0000 C   0  0  0  0  0  0  0  0  0  0  0  0
    8.3274   -4.7438    0.0000 C   0  0  0  0  0  0  0  0  0  0  0  0
    3.3261   -5.9813    0.0000 O   0  0  0  0  0  0  0  0  0  0  0  0
    4.7550   -8.4563    0.0000 O   0  0  0  0  0  0  0  0  0  0  0  0
    8.3274   -3.9188    0.0000 O   0  0  0  0  0  0  0  0  0  0  0  0
    9.7563   -4.7438    0.0000 O   0  0  0  0  0  0  0  0  0  0  0  0
    9.7563   -6.3937    0.0000 O   0  0  0  0  0  0  0  0  0  0  0  0
    6.8984   -8.0437    0.0000 C   0  0  0  0  0  0  0  0  0  0  0  0
    7.6129   -6.8062    0.0000 O   0  0  0  0  0  0  0  0  0  0  0  0
    6.8984   -8.8688    0.0000 C   0  0  0  0  0  0  0  0  0  0  0  0
    7.6129   -9.2813    0.0000 C   0  0  0  0  0  0  0  0  0  0  0  0
    8.3274   -8.8688    0.0000 C   0  0  0  0  0  0  0  0  0  0  0  0
    8.3274   -8.0437    0.0000 C   0  0  0  0  0  0  0  0  0  0  0  0
    7.6129   -7.6313    0.0000 C   0  0  0  0  0  0  0  0  0  0  0  0
    6.1840   -9.2813    0.0000 O   0  0  0  0  0  0  0  0  0  0  0  0
    9.0419   -9.2813    0.0000 O   0  0  0  0  0  0  0  0  0  0  0  0
    7.2697   -7.4525    0.0000 O   0  0  0  0  0  0  0  0  0  0  0  0
  1  2  2  0  0  0  0
  2  3  1  0  0  0  0
  3  4  2  0  0  0  0
  4  5  1  0  0  0  0
  5  6  2  0  0  0  0
  6  1  1  0  0  0  0
  4  7  1  0  0  0  0
  7  8  1  0  0  0  0
  8  9  1  0  0  0  0
  9 10  1  0  0  0  0
 10  5  1  0  0  0  0
  9 11  1  6  0  0  0
 11 12  2  0  0  0  0
 11 13  1  0  0  0  0
 13 14  2  0  0  0  0
 14 15  1  0  0  0  0
 15 16  2  0  0  0  0
 16 12  1  0  0  0  0
  1 17  1  0  0  0  0
  3 18  1  0  0  0  0
 16 19  1  0  0  0  0
 15 20  1  0  0  0  0
 14 21  1  0  0  0  0
  7 22  1  1  0  0  0
  9 23  1  1  0  0  0
 22 24  2  0  0  0  0
 24 25  1  0  0  0  0
 25 26  2  0  0  0  0
 26 27  1  0  0  0  0
 27 28  2  0  0  0  0
 28 22  1  0  0  0  0
 23 28  1  0  0  0  0
 24 29  1  0  0  0  0
 26 30  1  0  0  0  0
  8 31  1  6  0  0  0
M  END
>  <cdx:fragmentId>
5

$$$$
