94324.cdx
  Mrv1902 05222410192D          

  7  6  0  0  0  0            999 V2000
    4.9532   -6.8168    0.0000 C   0  0  0  0  0  0  0  0  0  0  0  0
    5.6677   -7.2293    0.0000 C   0  0  0  0  0  0  0  0  0  0  0  0
    6.3822   -6.8168    0.0000 C   0  0  0  0  0  0  0  0  0  0  0  0
    9.2401   -6.8168    0.0000 C   0  0  0  0  0  0  0  0  0  0  0  0
    8.5256   -7.2293    0.0000 C   0  0  0  0  0  0  0  0  0  0  0  0
    7.8111   -6.8168    0.0000 C   0  0  0  0  0  0  0  0  0  0  0  0
    7.0966   -7.2293    0.0000 S   0  0  0  0  0  0  0  0  0  0  0  0
  7  3  1  0  0  0  0
  2  1  2  0  0  0  0
  3  2  1  0  0  0  0
  7  6  1  0  0  0  0
  5  4  1  0  0  0  0
  6  5  2  0  0  0  0
M  END
>  <cdx:groupId>
95

>  <cdx:fragmentId>
80

$$$$
