94328.cdx
  Mrv1902 05222410272D          

  7  6  0  0  0  0            999 V2000
    5.3953   -7.9209    0.0000 C   0  0  0  0  0  0  0  0  0  0  0  0
    8.9911   -9.0887    0.0000 C   0  0  0  0  0  0  0  0  0  0  0  0
    8.9750   -8.2638    0.0000 C   0  0  0  0  0  0  0  0  0  0  0  0
    8.2527   -7.8653    0.0000 C   0  0  0  0  0  0  0  0  0  0  0  0
    6.1177   -8.3194    0.0000 S   0  0  0  0  0  0  0  0  0  0  0  0
    7.5464   -8.2916    0.0000 S   0  0  0  0  0  0  0  0  0  0  0  0
    6.8240   -7.8931    0.0000 S   0  0  0  0  0  0  0  0  0  0  0  0
  5  1  1  0  0  0  0
  6  4  1  0  0  0  0
  3  2  1  0  0  0  0
  4  3  2  0  0  0  0
  7  5  1  0  0  0  0
  7  6  1  0  0  0  0
M  END
>  <cdx:groupId>
22

>  <cdx:fragmentId>
11

$$$$
