94327.cdx
  Mrv1902 05222410182D          

  7  6  0  0  0  0            999 V2000
    5.0529   -8.2575    0.0000 C   0  0  0  0  0  0  0  0  0  0  0  0
    9.3397   -8.2665    0.0000 C   0  0  0  0  0  0  0  0  0  0  0  0
    8.6244   -8.6775    0.0000 C   0  0  0  0  0  0  0  0  0  0  0  0
    7.9108   -8.2635    0.0000 C   0  0  0  0  0  0  0  0  0  0  0  0
    5.7665   -8.6715    0.0000 S   0  0  0  0  0  0  0  0  0  0  0  0
    7.1955   -8.6745    0.0000 S   0  0  0  0  0  0  0  0  0  0  0  0
    6.4819   -8.2605    0.0000 S   0  0  0  0  0  0  0  0  0  0  0  0
  5  1  1  0  0  0  0
  6  4  1  0  0  0  0
  3  2  1  0  0  0  0
  4  3  2  0  0  0  0
  7  5  1  0  0  0  0
  7  6  1  0  0  0  0
M  END
>  <cdx:groupId>
22

>  <cdx:fragmentId>
11

$$$$
