94320.cdx
  Mrv1902 05222410192D          

 40 44  0  0  0  0            999 V2000
    5.8143   -7.9888    0.0000 C   0  0  0  0  0  0  0  0  0  0  0  0
    5.8143   -8.8138    0.0000 C   0  0  0  0  0  0  0  0  0  0  0  0
    6.5288   -9.2263    0.0000 C   0  0  0  0  0  0  0  0  0  0  0  0
    7.2432   -8.8138    0.0000 C   0  0  0  0  0  0  0  0  0  0  0  0
    7.2432   -7.9888    0.0000 C   0  0  0  0  0  0  0  0  0  0  0  0
    6.5288   -7.5762    0.0000 C   0  0  0  0  0  0  0  0  0  0  0  0
    7.9577   -9.2263    0.0000 C   0  0  0  0  0  0  0  0  0  0  0  0
    8.6722   -8.8138    0.0000 C   0  0  0  0  0  0  0  0  0  0  0  0
    8.6722   -7.9888    0.0000 C   0  0  0  0  0  0  0  0  0  0  0  0
    7.9577   -7.5762    0.0000 O   0  0  0  0  0  0  0  0  0  0  0  0
    6.5288  -10.0512    0.0000 O   0  0  0  0  0  0  0  0  0  0  0  0
    7.9577  -10.0512    0.0000 O   0  0  0  0  0  0  0  0  0  0  0  0
   10.1011   -7.9888    0.0000 C   0  0  0  0  0  0  0  0  0  0  0  0
    9.3867   -7.5762    0.0000 C   0  0  0  0  0  0  0  0  0  0  0  0
   10.8156   -7.5762    0.0000 C   0  0  0  0  0  0  0  0  0  0  0  0
   10.8156   -6.7512    0.0000 C   0  0  0  0  0  0  0  0  0  0  0  0
   10.1011   -6.3388    0.0000 C   0  0  0  0  0  0  0  0  0  0  0  0
    9.3867   -6.7512    0.0000 C   0  0  0  0  0  0  0  0  0  0  0  0
    5.0998   -7.5762    0.0000 O   0  0  0  0  0  0  0  0  0  0  0  0
   11.5301   -6.3388    0.0000 O   0  0  0  0  0  0  0  0  0  0  0  0
    5.8497  -10.4565    0.0000 O   0  0  0  0  0  0  0  0  0  0  0  0
    4.4196  -11.2795    0.0000 O   0  0  0  0  0  0  0  0  0  0  0  0
    2.9918  -10.4526    0.0000 O   0  0  0  0  0  0  0  0  0  0  0  0
    5.1358  -10.0430    0.0000 C   0  0  1  0  0  0  0  0  0  0  0  0
    5.1370   -9.2180    0.0000 C   0  0  1  0  0  0  0  0  0  0  0  0
    4.4231   -8.8045    0.0000 O   0  0  0  0  0  0  0  0  0  0  0  0
    3.7080   -9.2161    0.0000 C   0  0  0  0  0  0  0  0  0  0  0  0
    3.7069  -10.0411    0.0000 C   0  0  2  0  0  0  0  0  0  0  0  0
    4.4208  -10.4545    0.0000 C   0  0  2  0  0  0  0  0  0  0  0  0
    6.5441   -5.1414    0.0000 C   0  0  2  0  0  0  0  0  0  0  0  0
    5.8260   -5.5475    0.0000 C   0  0  1  0  0  0  0  0  0  0  0  0
    5.8186   -6.3725    0.0000 C   0  0  2  0  0  0  0  0  0  0  0  0
    6.5293   -6.7914    0.0000 C   0  0  1  0  0  0  0  0  0  0  0  0
    7.2475   -6.3853    0.0000 O   0  0  0  0  0  0  0  0  0  0  0  0
    7.2548   -5.5603    0.0000 C   0  0  0  0  0  0  0  0  0  0  0  0
    5.1152   -5.1287    0.0000 O   0  0  0  0  0  0  0  0  0  0  0  0
    6.5515   -4.3165    0.0000 O   0  0  0  0  0  0  0  0  0  0  0  0
    5.1005   -6.7786    0.0000 O   0  0  0  0  0  0  0  0  0  0  0  0
    7.2438   -7.2039    0.0000 H   0  0  0  0  0  0  0  0  0  0  0  0
    5.1370   -8.3930    0.0000 H   0  0  0  0  0  0  0  0  0  0  0  0
  1  2  2  0  0  0  0
  2  3  1  0  0  0  0
  3  4  2  0  0  0  0
  4  5  1  0  0  0  0
  5  6  2  0  0  0  0
  6  1  1  0  0  0  0
  4  7  1  0  0  0  0
  7  8  1  0  0  0  0
  8  9  2  0  0  0  0
  9 10  1  0  0  0  0
 10  5  1  0  0  0  0
  3 11  1  0  0  0  0
 12  7  2  0  0  0  0
 13 14  2  0  0  0  0
 14  9  1  0  0  0  0
 13 15  1  0  0  0  0
 15 16  2  0  0  0  0
 16 17  1  0  0  0  0
 17 18  2  0  0  0  0
 18 14  1  0  0  0  0
  1 19  1  0  0  0  0
 16 20  1  0  0  0  0
 24 21  1  6  0  0  0
 29 22  1  1  0  0  0
 28 23  1  6  0  0  0
 24 29  1  0  0  0  0
 25 24  1  0  0  0  0
 26 25  1  0  0  0  0
 27 26  1  0  0  0  0
 28 27  1  0  0  0  0
 29 28  1  0  0  0  0
 25  2  1  0  0  0  0
 30 31  1  0  0  0  0
 31 32  1  0  0  0  0
 32 33  1  0  0  0  0
 33 34  1  0  0  0  0
 34 35  1  0  0  0  0
 35 30  1  0  0  0  0
 31 36  1  1  0  0  0
 30 37  1  1  0  0  0
 32 38  1  6  0  0  0
 33  6  1  0  0  0  0
 33 39  1  6  0  0  0
 25 40  1  6  0  0  0
M  END
>  <cdx:fragmentId>
133

$$$$
