94321.cdx
  Mrv1902 05222410192D          

 18 17  0  0  0  0            999 V2000
   12.7076   -3.1064    0.0000 C   0  0  0  0  0  0  0  0  0  0  0  0
   11.9932   -3.5189    0.0000 C   0  0  0  0  0  0  0  0  0  0  0  0
   11.2787   -3.1064    0.0000 C   0  0  0  0  0  0  0  0  0  0  0  0
   10.5642   -3.5189    0.0000 C   0  0  0  0  0  0  0  0  0  0  0  0
    9.8498   -3.1064    0.0000 C   0  0  0  0  0  0  0  0  0  0  0  0
    9.1353   -3.5189    0.0000 C   0  0  0  0  0  0  0  0  0  0  0  0
    8.4208   -3.1064    0.0000 C   0  0  0  0  0  0  0  0  0  0  0  0
    7.7063   -3.5189    0.0000 C   0  0  0  0  0  0  0  0  0  0  0  0
    6.9919   -3.1064    0.0000 C   0  0  0  0  0  0  0  0  0  0  0  0
    6.2774   -3.5189    0.0000 C   0  0  0  0  0  0  0  0  0  0  0  0
    5.5629   -3.1064    0.0000 C   0  0  0  0  0  0  0  0  0  0  0  0
    4.8485   -3.5189    0.0000 C   0  0  0  0  0  0  0  0  0  0  0  0
    4.1340   -3.1064    0.0000 C   0  0  0  0  0  0  0  0  0  0  0  0
    3.4195   -3.5189    0.0000 C   0  0  0  0  0  0  0  0  0  0  0  0
    2.7050   -3.1064    0.0000 C   0  0  0  0  0  0  0  0  0  0  0  0
    1.9906   -3.5189    0.0000 C   0  0  0  0  0  0  0  0  0  0  0  0
    1.2761   -3.1064    0.0000 C   0  0  0  0  0  0  0  0  0  0  0  0
   11.2787   -2.2814    0.0000 C   0  0  0  0  0  0  0  0  0  0  0  0
  1  2  1  0  0  0  0
  2  3  1  0  0  0  0
  3  4  1  0  0  0  0
  4  5  1  0  0  0  0
  5  6  1  0  0  0  0
  6  7  1  0  0  0  0
  7  8  1  0  0  0  0
  8  9  1  0  0  0  0
  9 10  1  0  0  0  0
 10 11  1  0  0  0  0
 11 12  1  0  0  0  0
 12 13  1  0  0  0  0
 13 14  1  0  0  0  0
 14 15  1  0  0  0  0
 15 16  1  0  0  0  0
 16 17  1  0  0  0  0
  3 18  1  0  0  0  0
M  END
>  <cdx:groupId>
55

>  <cdx:fragmentId>
5

$$$$
