94325.cdx
  Mrv1902 05222410192D          

  9  8  0  0  0  0            999 V2000
    4.3625   -8.2585    0.0000 C   0  0  0  0  0  0  0  0  0  0  0  0
    5.0770   -8.6710    0.0000 C   0  0  0  0  0  0  0  0  0  0  0  0
    5.7915   -8.2585    0.0000 C   0  0  0  0  0  0  0  0  0  0  0  0
   10.0783   -8.2585    0.0000 C   0  0  0  0  0  0  0  0  0  0  0  0
    9.3638   -8.6710    0.0000 C   0  0  0  0  0  0  0  0  0  0  0  0
    8.6493   -8.2585    0.0000 C   0  0  0  0  0  0  0  0  0  0  0  0
    6.5059   -8.6710    0.0000 S   0  0  0  0  0  0  0  0  0  0  0  0
    7.9349   -8.6710    0.0000 S   0  0  0  0  0  0  0  0  0  0  0  0
    7.2204   -8.2585    0.0000 S   0  0  0  0  0  0  0  0  0  0  0  0
  7  3  1  0  0  0  0
  2  1  2  0  0  0  0
  3  2  1  0  0  0  0
  8  6  1  0  0  0  0
  5  4  1  0  0  0  0
  6  5  2  0  0  0  0
  9  7  1  0  0  0  0
  9  8  1  0  0  0  0
M  END
>  <cdx:groupId>
28

>  <cdx:fragmentId>
11

$$$$
