9432.cdx
  Mrv1902 05222410192D          

 17 19  0  0  0  0            999 V2000
    7.1968   -6.1600    0.0000 C   0  0  1  0  0  0  0  0  0  0  0  0
    7.1968   -6.9850    0.0000 C   0  0  0  0  0  0  0  0  0  0  0  0
    7.8418   -7.4994    0.0000 C   0  0  0  0  0  0  0  0  0  0  0  0
    8.6461   -7.3158    0.0000 C   0  0  1  0  0  0  0  0  0  0  0  0
    9.0041   -6.5725    0.0000 C   0  0  0  0  0  0  0  0  0  0  0  0
    8.6461   -5.8292    0.0000 C   0  0  0  0  0  0  0  0  0  0  0  0
    7.8418   -5.6456    0.0000 C   0  0  1  0  0  0  0  0  0  0  0  0
    6.4122   -5.9051    0.0000 C   0  0  0  0  0  0  0  0  0  0  0  0
    5.9273   -6.5725    0.0000 C   0  0  0  0  0  0  0  0  0  0  0  0
    6.4122   -7.2399    0.0000 C   0  0  0  0  0  0  0  0  0  0  0  0
    6.1987   -8.0368    0.0000 C   0  0  0  0  0  0  0  0  0  0  0  0
    9.8291   -6.5725    0.0000 O   0  0  0  0  0  0  0  0  0  0  0  0
    5.1023   -6.5725    0.0000 O   0  0  0  0  0  0  0  0  0  0  0  0
    7.9937   -6.3735    0.0000 C   0  0  0  0  0  0  0  0  0  0  0  0
    8.0481   -5.9477    0.0000 C   0  0  0  0  0  0  0  0  0  0  0  0
    7.5739   -6.6342    0.0000 C   0  0  0  0  0  0  0  0  0  0  0  0
    7.8418   -4.8206    0.0000 C   0  0  0  0  0  0  0  0  0  0  0  0
  1  2  1  0  0  0  0
  2  3  1  0  0  0  0
  3  4  1  0  0  0  0
  4  5  1  0  0  0  0
  5  6  1  0  0  0  0
  6  7  1  0  0  0  0
  7  1  1  0  0  0  0
  1  8  1  0  0  0  0
  8  9  1  0  0  0  0
  9 10  1  0  0  0  0
 10  2  2  0  0  0  0
 10 11  1  0  0  0  0
  5 12  2  0  0  0  0
  9 13  2  0  0  0  0
  1 14  1  1  0  0  0
  4 14  1  1  0  0  0
 14 15  1  0  0  0  0
 14 16  1  0  0  0  0
  7 17  1  6  0  0  0
M  END
>  <cdx:fragmentId>
5

$$$$
