94336.cdx
  Mrv1902 05222410202D          

 31 34  0  0  0  0            999 V2000
    4.3568   -5.5000    0.0000 C   0  0  0  0  0  0  0  0  0  0  0  0
    4.3568   -6.3250    0.0000 C   0  0  0  0  0  0  0  0  0  0  0  0
    5.0713   -6.7375    0.0000 C   0  0  0  0  0  0  0  0  0  0  0  0
    5.7857   -6.3250    0.0000 C   0  0  0  0  0  0  0  0  0  0  0  0
    5.7857   -5.5000    0.0000 C   0  0  0  0  0  0  0  0  0  0  0  0
    5.0713   -5.0875    0.0000 C   0  0  0  0  0  0  0  0  0  0  0  0
    5.0713   -7.5625    0.0000 O   0  0  0  0  0  0  0  0  0  0  0  0
    5.7857   -7.9750    0.0000 O   0  0  0  0  0  0  0  0  0  0  0  0
    6.5002   -7.5625    0.0000 C   0  0  1  0  0  0  0  0  0  0  0  0
    6.5002   -6.7375    0.0000 C   0  0  2  0  0  0  0  0  0  0  0  0
    7.2147   -7.9750    0.0000 C   0  0  0  0  0  0  0  0  0  0  0  0
    7.9292   -7.5625    0.0000 C   0  0  0  0  0  0  0  0  0  0  0  0
    7.9292   -6.7375    0.0000 C   0  0  0  0  0  0  0  0  0  0  0  0
    7.2147   -6.3250    0.0000 O   0  0  0  0  0  0  0  0  0  0  0  0
    8.6436   -7.9750    0.0000 C   0  0  0  0  0  0  0  0  0  0  0  0
    9.3581   -7.5625    0.0000 C   0  0  0  0  0  0  0  0  0  0  0  0
    9.3581   -6.7375    0.0000 C   0  0  0  0  0  0  0  0  0  0  0  0
    8.6436   -6.3250    0.0000 C   0  0  0  0  0  0  0  0  0  0  0  0
    7.2147   -8.8000    0.0000 C   0  0  0  0  0  0  0  0  0  0  0  0
    7.9292   -9.2125    0.0000 C   0  0  0  0  0  0  0  0  0  0  0  0
    8.6436   -8.8000    0.0000 O   0  0  0  0  0  0  0  0  0  0  0  0
    6.5002   -9.2125    0.0000 C   0  0  0  0  0  0  0  0  0  0  0  0
    6.5002  -10.0375    0.0000 C   0  0  0  0  0  0  0  0  0  0  0  0
    7.2147  -10.4500    0.0000 C   0  0  0  0  0  0  0  0  0  0  0  0
    7.9292  -10.0375    0.0000 C   0  0  0  0  0  0  0  0  0  0  0  0
    5.7857  -10.4500    0.0000 O   0  0  0  0  0  0  0  0  0  0  0  0
    7.2147  -11.2750    0.0000 O   0  0  0  0  0  0  0  0  0  0  0  0
    8.6436  -10.4500    0.0000 O   0  0  0  0  0  0  0  0  0  0  0  0
   10.0726   -6.3250    0.0000 O   0  0  0  0  0  0  0  0  0  0  0  0
    3.6423   -5.0875    0.0000 O   0  0  0  0  0  0  0  0  0  0  0  0
    6.5002   -5.0875    0.0000 O   0  0  0  0  0  0  0  0  0  0  0  0
  1  2  2  0  0  0  0
  2  3  1  0  0  0  0
  3  4  2  0  0  0  0
  4  5  1  0  0  0  0
  5  6  2  0  0  0  0
  6  1  1  0  0  0  0
  3  7  1  0  0  0  0
  9  8  1  1  0  0  0
  9 10  1  0  0  0  0
 10  4  1  1  0  0  0
  9 11  1  0  0  0  0
 11 12  1  0  0  0  0
 12 13  2  0  0  0  0
 13 14  1  0  0  0  0
 14 10  1  0  0  0  0
 12 15  1  0  0  0  0
 15 16  2  0  0  0  0
 16 17  1  0  0  0  0
 17 18  2  0  0  0  0
 18 13  1  0  0  0  0
 19 11  1  6  0  0  0
 19 20  2  0  0  0  0
 21 15  1  0  0  0  0
 19 22  1  0  0  0  0
 22 23  2  0  0  0  0
 23 24  1  0  0  0  0
 24 25  2  0  0  0  0
 25 20  1  0  0  0  0
 23 26  1  0  0  0  0
 24 27  1  0  0  0  0
 25 28  1  0  0  0  0
 17 29  1  0  0  0  0
  1 30  1  0  0  0  0
  5 31  1  0  0  0  0
M  END
>  <cdx:fragmentId>
5

$$$$
