94330.cdx
  Mrv1902 05222410192D          

 70 79  0  0  0  0            999 V2000
    4.3843   -3.5062    0.0000 C   0  0  0  0  0  0  0  0  0  0  0  0
    4.3843   -4.3313    0.0000 C   0  0  0  0  0  0  0  0  0  0  0  0
    5.0988   -4.7438    0.0000 C   0  0  0  0  0  0  0  0  0  0  0  0
    5.8132   -4.3313    0.0000 C   0  0  0  0  0  0  0  0  0  0  0  0
    5.8132   -3.5062    0.0000 C   0  0  0  0  0  0  0  0  0  0  0  0
    5.0988   -3.0938    0.0000 C   0  0  0  0  0  0  0  0  0  0  0  0
    6.5277   -4.7438    0.0000 C   0  0  1  0  0  0  0  0  0  0  0  0
    7.2422   -4.3313    0.0000 C   0  0  2  0  0  0  0  0  0  0  0  0
    7.2422   -3.5062    0.0000 C   0  0  2  0  0  0  0  0  0  0  0  0
    6.5277   -3.0938    0.0000 O   0  0  0  0  0  0  0  0  0  0  0  0
    7.9567   -3.0938    0.0000 C   0  0  0  0  0  0  0  0  0  0  0  0
    7.9567   -2.2688    0.0000 C   0  0  0  0  0  0  0  0  0  0  0  0
    8.6711   -3.5062    0.0000 C   0  0  0  0  0  0  0  0  0  0  0  0
    9.3856   -3.0938    0.0000 C   0  0  0  0  0  0  0  0  0  0  0  0
    9.3856   -2.2688    0.0000 C   0  0  0  0  0  0  0  0  0  0  0  0
    8.6711   -1.8563    0.0000 C   0  0  0  0  0  0  0  0  0  0  0  0
    3.6698   -3.0938    0.0000 O   0  0  0  0  0  0  0  0  0  0  0  0
    5.0988   -5.5687    0.0000 O   0  0  0  0  0  0  0  0  0  0  0  0
    8.6711   -1.0313    0.0000 O   0  0  0  0  0  0  0  0  0  0  0  0
   10.1001   -1.8563    0.0000 O   0  0  0  0  0  0  0  0  0  0  0  0
   10.1001   -3.5062    0.0000 O   0  0  0  0  0  0  0  0  0  0  0  0
    7.2422   -5.1563    0.0000 C   0  0  0  0  0  0  0  0  0  0  0  0
    7.9567   -3.9188    0.0000 O   0  0  0  0  0  0  0  0  0  0  0  0
    7.2422   -5.9813    0.0000 C   0  0  0  0  0  0  0  0  0  0  0  0
    7.9567   -6.3937    0.0000 C   0  0  0  0  0  0  0  0  0  0  0  0
    8.6711   -5.9813    0.0000 C   0  0  0  0  0  0  0  0  0  0  0  0
    8.6711   -5.1563    0.0000 C   0  0  0  0  0  0  0  0  0  0  0  0
    7.9567   -4.7438    0.0000 C   0  0  0  0  0  0  0  0  0  0  0  0
    9.3856   -6.3937    0.0000 O   0  0  0  0  0  0  0  0  0  0  0  0
    7.6134   -4.5650    0.0000 O   0  0  0  0  0  0  0  0  0  0  0  0
    6.5277   -6.3937    0.0000 O   0  0  0  0  0  0  0  0  0  0  0  0
    6.5277   -7.2188    0.0000 C   0  0  1  0  0  0  0  0  0  0  0  0
    7.2422   -7.6313    0.0000 C   0  0  1  0  0  0  0  0  0  0  0  0
    7.9567   -7.2188    0.0000 C   0  0  1  0  0  0  0  0  0  0  0  0
    7.2422   -8.4563    0.0000 O   0  0  0  0  0  0  0  0  0  0  0  0
    5.8132   -7.6313    0.0000 C   0  0  0  0  0  0  0  0  0  0  0  0
    5.0988   -7.2188    0.0000 C   0  0  0  0  0  0  0  0  0  0  0  0
    4.3843   -7.6313    0.0000 C   0  0  0  0  0  0  0  0  0  0  0  0
    4.3843   -8.4563    0.0000 C   0  0  0  0  0  0  0  0  0  0  0  0
    5.0988   -8.8688    0.0000 C   0  0  0  0  0  0  0  0  0  0  0  0
    5.8132   -8.4563    0.0000 C   0  0  0  0  0  0  0  0  0  0  0  0
    3.6698   -7.2188    0.0000 O   0  0  0  0  0  0  0  0  0  0  0  0
    3.6698   -8.8688    0.0000 O   0  0  0  0  0  0  0  0  0  0  0  0
    5.0988   -9.6937    0.0000 O   0  0  0  0  0  0  0  0  0  0  0  0
    9.4411   -8.0575    0.0000 C   0  0  0  0  0  0  0  0  0  0  0  0
    9.4488   -8.8825    0.0000 C   0  0  0  0  0  0  0  0  0  0  0  0
   10.1671   -9.2883    0.0000 C   0  0  0  0  0  0  0  0  0  0  0  0
   10.8777   -8.8825    0.0000 C   0  0  0  0  0  0  0  0  0  0  0  0
   10.8777   -8.0575    0.0000 C   0  0  0  0  0  0  0  0  0  0  0  0
   10.1671   -7.6517    0.0000 C   0  0  0  0  0  0  0  0  0  0  0  0
    8.7382   -9.2883    0.0000 O   0  0  0  0  0  0  0  0  0  0  0  0
    8.7382  -10.1133    0.0000 C   0  0  1  0  0  0  0  0  0  0  0  0
    9.4488  -10.5191    0.0000 C   0  0  1  0  0  0  0  0  0  0  0  0
   10.1671  -10.1133    0.0000 C   0  0  1  0  0  0  0  0  0  0  0  0
    8.0314  -10.5191    0.0000 C   0  0  0  0  0  0  0  0  0  0  0  0
    8.0314  -11.3374    0.0000 C   0  0  0  0  0  0  0  0  0  0  0  0
    9.4488  -11.3374    0.0000 O   0  0  0  0  0  0  0  0  0  0  0  0
    7.3227  -10.1099    0.0000 C   0  0  0  0  0  0  0  0  0  0  0  0
    6.6141  -10.5191    0.0000 C   0  0  0  0  0  0  0  0  0  0  0  0
    6.6141  -11.3374    0.0000 C   0  0  0  0  0  0  0  0  0  0  0  0
    7.3227  -11.7466    0.0000 C   0  0  0  0  0  0  0  0  0  0  0  0
   10.1709   -6.8267    0.0000 O   0  0  0  0  0  0  0  0  0  0  0  0
   11.5912   -9.2966    0.0000 O   0  0  0  0  0  0  0  0  0  0  0  0
    5.8996  -10.1066    0.0000 O   0  0  0  0  0  0  0  0  0  0  0  0
    5.8996  -11.7499    0.0000 O   0  0  0  0  0  0  0  0  0  0  0  0
    7.3227  -12.5716    0.0000 O   0  0  0  0  0  0  0  0  0  0  0  0
   10.8796  -10.5291    0.0000 S   0  0  0  0  0  0  0  0  0  0  0  0
   10.8796  -11.3541    0.0000 C   0  0  0  0  0  0  0  0  0  0  0  0
   11.5941  -11.7666    0.0000 C   0  0  0  0  0  0  0  0  0  0  0  0
   12.3086  -11.3541    0.0000 O   0  0  0  0  0  0  0  0  0  0  0  0
  1  2  2  0  0  0  0
  2  3  1  0  0  0  0
  3  4  2  0  0  0  0
  4  5  1  0  0  0  0
  5  6  2  0  0  0  0
  6  1  1  0  0  0  0
  4  7  1  0  0  0  0
  7  8  1  0  0  0  0
  8  9  1  0  0  0  0
  9 10  1  0  0  0  0
 10  5  1  0  0  0  0
  9 11  1  6  0  0  0
 11 12  2  0  0  0  0
 11 13  1  0  0  0  0
 13 14  2  0  0  0  0
 14 15  1  0  0  0  0
 15 16  2  0  0  0  0
 16 12  1  0  0  0  0
  1 17  1  0  0  0  0
  3 18  1  0  0  0  0
 16 19  1  0  0  0  0
 15 20  1  0  0  0  0
 14 21  1  0  0  0  0
  7 22  1  1  0  0  0
  9 23  1  1  0  0  0
 22 24  2  0  0  0  0
 24 25  1  0  0  0  0
 25 26  2  0  0  0  0
 26 27  1  0  0  0  0
 27 28  2  0  0  0  0
 28 22  1  0  0  0  0
 23 28  1  0  0  0  0
 26 29  1  0  0  0  0
  8 30  1  6  0  0  0
 24 31  1  0  0  0  0
 31 32  1  0  0  0  0
 32 33  1  0  0  0  0
 33 34  1  0  0  0  0
 34 25  1  0  0  0  0
 33 35  1  1  0  0  0
 32 36  1  1  0  0  0
 36 37  2  0  0  0  0
 37 38  1  0  0  0  0
 38 39  2  0  0  0  0
 39 40  1  0  0  0  0
 40 41  2  0  0  0  0
 41 36  1  0  0  0  0
 38 42  1  0  0  0  0
 39 43  1  0  0  0  0
 40 44  1  0  0  0  0
 34 45  1  6  0  0  0
 45 46  2  0  0  0  0
 46 47  1  0  0  0  0
 47 48  2  0  0  0  0
 48 49  1  0  0  0  0
 49 50  2  0  0  0  0
 50 45  1  0  0  0  0
 46 51  1  0  0  0  0
 51 52  1  0  0  0  0
 52 53  1  0  0  0  0
 53 54  1  0  0  0  0
 54 47  1  0  0  0  0
 52 55  1  1  0  0  0
 55 56  2  0  0  0  0
 53 57  1  1  0  0  0
 55 58  1  0  0  0  0
 58 59  2  0  0  0  0
 59 60  1  0  0  0  0
 60 61  2  0  0  0  0
 61 56  1  0  0  0  0
 50 62  1  0  0  0  0
 48 63  1  0  0  0  0
 59 64  1  0  0  0  0
 60 65  1  0  0  0  0
 61 66  1  0  0  0  0
 54 67  1  6  0  0  0
 67 68  1  0  0  0  0
 68 69  1  0  0  0  0
 69 70  1  0  0  0  0
M  END
>  <cdx:fragmentId>
5

$$$$
