94337.cdx
  Mrv1902 05222410202D          

 37 40  0  0  0  0            999 V2000
   10.0020   -6.8326    0.0000 C   0  0  1  0  0  0  0  0  0  0  0  0
   10.7165   -6.4201    0.0000 C   0  0  1  0  0  0  0  0  0  0  0  0
   10.7165   -5.5951    0.0000 C   0  0  1  0  0  0  0  0  0  0  0  0
   10.0020   -5.1826    0.0000 C   0  0  0  0  0  0  0  0  0  0  0  0
    9.2875   -5.5951    0.0000 C   0  0  0  0  0  0  0  0  0  0  0  0
    9.2875   -6.4201    0.0000 O   0  0  0  0  0  0  0  0  0  0  0  0
   11.5011   -5.3402    0.0000 C   0  0  1  0  0  0  0  0  0  0  0  0
   11.9860   -6.0076    0.0000 C   0  0  0  0  0  0  0  0  0  0  0  0
   11.5011   -6.6751    0.0000 C   0  0  2  0  0  0  0  0  0  0  0  0
   10.7165   -4.7701    0.0000 O   0  0  0  0  0  0  0  0  0  0  0  0
   11.7560   -4.5556    0.0000 O   0  0  0  0  0  0  0  0  0  0  0  0
   12.1142   -7.2271    0.0000 O   0  0  0  0  0  0  0  0  0  0  0  0
   10.0020   -7.6576    0.0000 O   0  0  0  0  0  0  0  0  0  0  0  0
    8.5730   -7.6576    0.0000 O   0  0  0  0  0  0  0  0  0  0  0  0
    9.2875   -8.0701    0.0000 C   0  0  2  0  0  0  0  0  0  0  0  0
    9.2875   -8.8951    0.0000 C   0  0  1  0  0  0  0  0  0  0  0  0
    8.5730   -9.3076    0.0000 C   0  0  2  0  0  0  0  0  0  0  0  0
    7.8586   -8.8951    0.0000 C   0  0  1  0  0  0  0  0  0  0  0  0
    7.8586   -8.0701    0.0000 C   0  0  1  0  0  0  0  0  0  0  0  0
    7.1441   -7.6576    0.0000 C   0  0  0  0  0  0  0  0  0  0  0  0
    6.4296   -8.0701    0.0000 O   0  0  0  0  0  0  0  0  0  0  0  0
    7.1441   -9.3076    0.0000 O   0  0  0  0  0  0  0  0  0  0  0  0
    8.5730  -10.1326    0.0000 O   0  0  0  0  0  0  0  0  0  0  0  0
   10.0020   -9.3076    0.0000 O   0  0  0  0  0  0  0  0  0  0  0  0
   11.3295   -7.4820    0.0000 C   0  0  0  0  0  0  0  0  0  0  0  0
   10.7165   -7.2451    0.0000 H   0  0  0  0  0  0  0  0  0  0  0  0
    5.7152   -7.6576    0.0000 C   0  0  0  0  0  0  0  0  0  0  0  0
    5.0007   -8.0701    0.0000 C   0  0  0  0  0  0  0  0  0  0  0  0
    5.7152   -6.8326    0.0000 O   0  0  0  0  0  0  0  0  0  0  0  0
    4.2862   -7.6576    0.0000 C   0  0  0  0  0  0  0  0  0  0  0  0
    3.5717   -8.0701    0.0000 C   0  0  0  0  0  0  0  0  0  0  0  0
    2.8573   -7.6576    0.0000 C   0  0  0  0  0  0  0  0  0  0  0  0
    2.1428   -8.0701    0.0000 C   0  0  0  0  0  0  0  0  0  0  0  0
    2.1428   -8.8951    0.0000 C   0  0  0  0  0  0  0  0  0  0  0  0
    2.8573   -9.3076    0.0000 C   0  0  0  0  0  0  0  0  0  0  0  0
    3.5717   -8.8951    0.0000 C   0  0  0  0  0  0  0  0  0  0  0  0
    1.4283   -9.3076    0.0000 O   0  0  0  0  0  0  0  0  0  0  0  0
  1  2  1  0  0  0  0
  2  3  1  0  0  0  0
  3  4  1  0  0  0  0
  4  5  2  0  0  0  0
  5  6  1  0  0  0  0
  1  6  1  0  0  0  0
  7  8  1  0  0  0  0
  8  9  1  0  0  0  0
  9  2  1  0  0  0  0
  7  3  1  0  0  0  0
  3 10  1  6  0  0  0
  7 11  1  6  0  0  0
  9 12  1  6  0  0  0
 14 15  1  0  0  0  0
 15 16  1  0  0  0  0
 16 17  1  0  0  0  0
 17 18  1  0  0  0  0
 18 19  1  0  0  0  0
 14 19  1  0  0  0  0
 20 21  1  0  0  0  0
 19 20  1  1  0  0  0
 18 22  1  6  0  0  0
 17 23  1  1  0  0  0
 16 24  1  6  0  0  0
 15 13  1  1  0  0  0
  1 13  1  6  0  0  0
  9 25  1  0  0  0  0
  2 26  1  6  0  0  0
 21 27  1  0  0  0  0
 27 28  1  0  0  0  0
 27 29  2  0  0  0  0
 28 30  2  0  0  0  0
 30 31  1  0  0  0  0
 31 32  2  0  0  0  0
 32 33  1  0  0  0  0
 33 34  2  0  0  0  0
 34 35  1  0  0  0  0
 35 36  2  0  0  0  0
 36 31  1  0  0  0  0
 34 37  1  0  0  0  0
M  END
>  <cdx:fragmentId>
5

$$$$
