94335.cdx
  Mrv1902 05222410192D          

 26 28  0  0  0  0            999 V2000
    4.0131   -6.6962    0.0000 C   0  0  0  0  0  0  0  0  0  0  0  0
    4.0131   -7.5213    0.0000 C   0  0  0  0  0  0  0  0  0  0  0  0
    4.7275   -7.9337    0.0000 C   0  0  0  0  0  0  0  0  0  0  0  0
    5.4420   -7.5213    0.0000 C   0  0  0  0  0  0  0  0  0  0  0  0
    5.4420   -6.6962    0.0000 C   0  0  0  0  0  0  0  0  0  0  0  0
    4.7275   -6.2837    0.0000 C   0  0  0  0  0  0  0  0  0  0  0  0
    6.1565   -7.9337    0.0000 C   0  0  1  0  0  0  0  0  0  0  0  0
    6.8709   -7.5213    0.0000 C   0  0  1  0  0  0  0  0  0  0  0  0
    6.8709   -6.6962    0.0000 C   0  0  2  0  0  0  0  0  0  0  0  0
    6.1565   -6.2837    0.0000 O   0  0  0  0  0  0  0  0  0  0  0  0
    7.5854   -6.2837    0.0000 C   0  0  0  0  0  0  0  0  0  0  0  0
    7.5854   -5.4588    0.0000 C   0  0  0  0  0  0  0  0  0  0  0  0
    8.2999   -6.6962    0.0000 C   0  0  0  0  0  0  0  0  0  0  0  0
    9.0144   -6.2837    0.0000 C   0  0  0  0  0  0  0  0  0  0  0  0
    9.0144   -5.4588    0.0000 C   0  0  0  0  0  0  0  0  0  0  0  0
    8.2999   -5.0462    0.0000 C   0  0  0  0  0  0  0  0  0  0  0  0
    3.2986   -6.2837    0.0000 O   0  0  0  0  0  0  0  0  0  0  0  0
    4.7275   -8.7588    0.0000 O   0  0  0  0  0  0  0  0  0  0  0  0
    8.2999   -4.2213    0.0000 O   0  0  0  0  0  0  0  0  0  0  0  0
    9.7288   -5.0462    0.0000 O   0  0  0  0  0  0  0  0  0  0  0  0
    9.7288   -6.6962    0.0000 O   0  0  0  0  0  0  0  0  0  0  0  0
    7.5854   -7.9337    0.0000 O   0  0  0  0  0  0  0  0  0  0  0  0
    6.1565   -8.7588    0.0000 S   0  0  0  0  0  0  0  0  0  0  0  0
    6.8709   -9.1713    0.0000 C   0  0  0  0  0  0  0  0  0  0  0  0
    6.8709   -9.9962    0.0000 C   0  0  0  0  0  0  0  0  0  0  0  0
    7.5854  -10.4087    0.0000 O   0  0  0  0  0  0  0  0  0  0  0  0
  1  2  2  0  0  0  0
  2  3  1  0  0  0  0
  3  4  2  0  0  0  0
  4  5  1  0  0  0  0
  5  6  2  0  0  0  0
  6  1  1  0  0  0  0
  4  7  1  0  0  0  0
  7  8  1  0  0  0  0
  8  9  1  0  0  0  0
  9 10  1  0  0  0  0
 10  5  1  0  0  0  0
  9 11  1  6  0  0  0
 11 12  2  0  0  0  0
 11 13  1  0  0  0  0
 13 14  2  0  0  0  0
 14 15  1  0  0  0  0
 15 16  2  0  0  0  0
 16 12  1  0  0  0  0
  1 17  1  0  0  0  0
  3 18  1  0  0  0  0
 16 19  1  0  0  0  0
 15 20  1  0  0  0  0
 14 21  1  0  0  0  0
  8 22  1  1  0  0  0
  7 23  1  1  0  0  0
 23 24  1  0  0  0  0
 24 25  1  0  0  0  0
 25 26  1  0  0  0  0
M  END
>  <cdx:fragmentId>
230

$$$$
