94334.cdx
  Mrv1902 05222410192D          

 16 17  0  0  0  0            999 V2000
    5.3878   -4.1975    0.0000 C   0  0  0  0  0  0  0  0  0  0  0  0
    5.3878   -3.3725    0.0000 C   0  0  2  0  0  0  0  0  0  0  0  0
    6.0328   -2.8581    0.0000 C   0  0  0  0  0  0  0  0  0  0  0  0
    6.8371   -3.0417    0.0000 C   0  0  0  0  0  0  0  0  0  0  0  0
    7.1951   -3.7850    0.0000 C   0  0  1  0  0  0  0  0  0  0  0  0
    6.8371   -4.5283    0.0000 C   0  0  0  0  0  0  0  0  0  0  0  0
    6.0328   -4.7118    0.0000 C   0  0  0  0  0  0  0  0  0  0  0  0
    4.6733   -2.9600    0.0000 C   0  0  0  0  0  0  0  0  0  0  0  0
    3.9589   -3.3725    0.0000 C   0  0  0  0  0  0  0  0  0  0  0  0
    3.9589   -4.1975    0.0000 C   0  0  0  0  0  0  0  0  0  0  0  0
    4.6733   -4.6100    0.0000 C   0  0  0  0  0  0  0  0  0  0  0  0
    7.9095   -3.3725    0.0000 O   0  0  0  0  0  0  0  0  0  0  0  0
    5.3878   -2.5475    0.0000 C   0  0  0  0  0  0  0  0  0  0  0  0
    7.9095   -4.1975    0.0000 C   0  0  0  0  0  0  0  0  0  0  0  0
    5.0858   -5.3244    0.0000 C   0  0  0  0  0  0  0  0  0  0  0  0
    4.2608   -5.3244    0.0000 C   0  0  0  0  0  0  0  0  0  0  0  0
  1  2  1  0  0  0  0
  2  3  1  0  0  0  0
  3  4  1  0  0  0  0
  4  5  1  0  0  0  0
  5  6  1  0  0  0  0
  6  7  1  0  0  0  0
  1  7  2  0  0  0  0
  8  9  1  0  0  0  0
  9 10  1  0  0  0  0
 10 11  1  0  0  0  0
 11  1  1  0  0  0  0
  8  2  1  0  0  0  0
  5 12  1  6  0  0  0
  2 13  1  6  0  0  0
  5 14  1  1  0  0  0
 11 15  1  0  0  0  0
 11 16  1  0  0  0  0
M  END
>  <cdx:groupId>
51

>  <cdx:fragmentId>
5

$$$$
