94333.cdx
  Mrv1902 05222410182D          

 48 53  0  0  0  0            999 V2000
    3.6143   -5.4450    0.0000 C   0  0  0  0  0  0  0  0  0  0  0  0
    3.6143   -6.2700    0.0000 C   0  0  0  0  0  0  0  0  0  0  0  0
    4.3288   -6.6825    0.0000 C   0  0  0  0  0  0  0  0  0  0  0  0
    5.0432   -6.2700    0.0000 C   0  0  0  0  0  0  0  0  0  0  0  0
    5.0432   -5.4450    0.0000 C   0  0  0  0  0  0  0  0  0  0  0  0
    4.3288   -5.0325    0.0000 C   0  0  0  0  0  0  0  0  0  0  0  0
    5.7577   -6.6825    0.0000 C   0  0  2  0  0  0  0  0  0  0  0  0
    6.4722   -6.2700    0.0000 C   0  0  1  0  0  0  0  0  0  0  0  0
    6.4722   -5.4450    0.0000 C   0  0  2  0  0  0  0  0  0  0  0  0
    5.7577   -5.0325    0.0000 O   0  0  0  0  0  0  0  0  0  0  0  0
    7.1867   -5.0325    0.0000 C   0  0  0  0  0  0  0  0  0  0  0  0
    7.1867   -4.2075    0.0000 C   0  0  0  0  0  0  0  0  0  0  0  0
    7.9011   -5.4450    0.0000 C   0  0  0  0  0  0  0  0  0  0  0  0
    8.6156   -5.0325    0.0000 C   0  0  0  0  0  0  0  0  0  0  0  0
    8.6156   -4.2075    0.0000 C   0  0  0  0  0  0  0  0  0  0  0  0
    7.9011   -3.7950    0.0000 C   0  0  0  0  0  0  0  0  0  0  0  0
    2.8998   -5.0325    0.0000 O   0  0  0  0  0  0  0  0  0  0  0  0
    4.3288   -7.5075    0.0000 O   0  0  0  0  0  0  0  0  0  0  0  0
    7.9011   -2.9700    0.0000 O   0  0  0  0  0  0  0  0  0  0  0  0
    9.3301   -3.7950    0.0000 O   0  0  0  0  0  0  0  0  0  0  0  0
    9.3301   -5.4450    0.0000 O   0  0  0  0  0  0  0  0  0  0  0  0
    6.4933  -11.0471    0.0000 C   0  0  0  0  0  0  0  0  0  0  0  0
    6.4793  -11.8653    0.0000 C   0  0  0  0  0  0  0  0  0  0  0  0
    7.1886  -12.2865    0.0000 O   0  0  0  0  0  0  0  0  0  0  0  0
    7.2129  -10.6301    0.0000 S   0  0  0  0  0  0  0  0  0  0  0  0
   10.7679   -8.6026    0.0000 O   0  0  0  0  0  0  0  0  0  0  0  0
   10.7882   -6.9527    0.0000 O   0  0  0  0  0  0  0  0  0  0  0  0
    9.3696   -6.1102    0.0000 O   0  0  0  0  0  0  0  0  0  0  0  0
    9.3391   -8.5850    0.0000 C   0  0  0  0  0  0  0  0  0  0  0  0
   10.0586   -8.1813    0.0000 C   0  0  0  0  0  0  0  0  0  0  0  0
   10.0687   -7.3564    0.0000 C   0  0  0  0  0  0  0  0  0  0  0  0
    9.3594   -6.9351    0.0000 C   0  0  0  0  0  0  0  0  0  0  0  0
    8.6399   -7.3388    0.0000 C   0  0  0  0  0  0  0  0  0  0  0  0
    8.6297   -8.1637    0.0000 C   0  0  0  0  0  0  0  0  0  0  0  0
    8.6094   -9.8136    0.0000 O   0  0  0  0  0  0  0  0  0  0  0  0
    7.1806   -9.7960    0.0000 C   0  0  2  0  0  0  0  0  0  0  0  0
    7.9001   -9.3923    0.0000 C   0  0  2  0  0  0  0  0  0  0  0  0
    7.9102   -8.5674    0.0000 C   0  0  2  0  0  0  0  0  0  0  0  0
    7.2009   -8.1461    0.0000 O   0  0  0  0  0  0  0  0  0  0  0  0
    5.7416  -10.6033    0.0000 O   0  0  0  0  0  0  0  0  0  0  0  0
    5.0526   -8.5321    0.0000 C   0  0  0  0  0  0  0  0  0  0  0  0
    5.0424   -9.3571    0.0000 C   0  0  0  0  0  0  0  0  0  0  0  0
    5.7517   -9.7783    0.0000 C   0  0  0  0  0  0  0  0  0  0  0  0
    6.4712   -9.3747    0.0000 C   0  0  0  0  0  0  0  0  0  0  0  0
    6.4814   -8.5497    0.0000 C   0  0  0  0  0  0  0  0  0  0  0  0
    4.3432   -8.1109    0.0000 O   0  0  0  0  0  0  0  0  0  0  0  0
    5.7721   -8.1285    0.0000 C   0  0  0  0  0  0  0  0  0  0  0  0
    7.1867   -6.6825    0.0000 O   0  0  0  0  0  0  0  0  0  0  0  0
 22 25  1  0  0  0  0
  1  2  2  0  0  0  0
  2  3  1  0  0  0  0
  3  4  2  0  0  0  0
  4  5  1  0  0  0  0
  5  6  2  0  0  0  0
  6  1  1  0  0  0  0
  4  7  1  0  0  0  0
  7  8  1  0  0  0  0
  8  9  1  0  0  0  0
  9 10  1  0  0  0  0
 10  5  1  0  0  0  0
  9 11  1  6  0  0  0
 11 12  2  0  0  0  0
 11 13  1  0  0  0  0
 13 14  2  0  0  0  0
 14 15  1  0  0  0  0
 15 16  2  0  0  0  0
 16 12  1  0  0  0  0
  1 17  1  0  0  0  0
  3 18  1  0  0  0  0
 16 19  1  0  0  0  0
 15 20  1  0  0  0  0
 14 21  1  0  0  0  0
 23 22  1  0  0  0  0
 24 23  1  0  0  0  0
 36 25  1  1  0  0  0
 30 26  1  0  0  0  0
 31 27  1  0  0  0  0
 32 28  1  0  0  0  0
 29 34  1  0  0  0  0
 30 29  2  0  0  0  0
 31 30  1  0  0  0  0
 32 31  2  0  0  0  0
 33 32  1  0  0  0  0
 34 33  2  0  0  0  0
 38 34  1  6  0  0  0
 37 35  1  6  0  0  0
 36 44  1  0  0  0  0
 37 36  1  0  0  0  0
 38 37  1  0  0  0  0
 39 38  1  0  0  0  0
 45 39  1  0  0  0  0
 43 40  1  0  0  0  0
 46 41  1  0  0  0  0
 41 47  1  0  0  0  0
 42 41  2  0  0  0  0
 43 42  1  0  0  0  0
 44 43  2  0  0  0  0
 45 44  1  0  0  0  0
 47 45  2  0  0  0  0
  8 48  1  1  0  0  0
  7 47  1  6  0  0  0
M  END
>  <cdx:fragmentId>
5

$$$$
