94332.cdx
  Mrv1902 05222410182D          

 48 54  0  0  0  0            999 V2000
    4.0681   -5.3900    0.0000 C   0  0  0  0  0  0  0  0  0  0  0  0
    4.0681   -6.2150    0.0000 C   0  0  0  0  0  0  0  0  0  0  0  0
    4.7825   -6.6275    0.0000 C   0  0  0  0  0  0  0  0  0  0  0  0
    5.4970   -6.2150    0.0000 C   0  0  0  0  0  0  0  0  0  0  0  0
    5.4970   -5.3900    0.0000 C   0  0  0  0  0  0  0  0  0  0  0  0
    4.7825   -4.9775    0.0000 C   0  0  0  0  0  0  0  0  0  0  0  0
    6.2115   -6.6275    0.0000 C   0  0  2  0  0  0  0  0  0  0  0  0
    6.9259   -6.2150    0.0000 C   0  0  1  0  0  0  0  0  0  0  0  0
    6.9259   -5.3900    0.0000 C   0  0  1  0  0  0  0  0  0  0  0  0
    6.2115   -4.9775    0.0000 O   0  0  0  0  0  0  0  0  0  0  0  0
    7.6404   -4.9775    0.0000 C   0  0  0  0  0  0  0  0  0  0  0  0
    7.6404   -4.1525    0.0000 C   0  0  0  0  0  0  0  0  0  0  0  0
    8.3549   -5.3900    0.0000 C   0  0  0  0  0  0  0  0  0  0  0  0
    9.0694   -4.9775    0.0000 C   0  0  0  0  0  0  0  0  0  0  0  0
    9.0694   -4.1525    0.0000 C   0  0  0  0  0  0  0  0  0  0  0  0
    8.3549   -3.7400    0.0000 C   0  0  0  0  0  0  0  0  0  0  0  0
    3.3536   -4.9775    0.0000 O   0  0  0  0  0  0  0  0  0  0  0  0
    4.7825   -7.4525    0.0000 O   0  0  0  0  0  0  0  0  0  0  0  0
    8.3549   -2.9150    0.0000 O   0  0  0  0  0  0  0  0  0  0  0  0
    9.7838   -3.7400    0.0000 O   0  0  0  0  0  0  0  0  0  0  0  0
    9.7838   -5.3900    0.0000 O   0  0  0  0  0  0  0  0  0  0  0  0
    6.9259   -7.0400    0.0000 C   0  0  0  0  0  0  0  0  0  0  0  0
    7.6404   -5.8025    0.0000 O   0  0  0  0  0  0  0  0  0  0  0  0
    6.9259   -7.8650    0.0000 C   0  0  0  0  0  0  0  0  0  0  0  0
    7.6404   -8.2775    0.0000 C   0  0  0  0  0  0  0  0  0  0  0  0
    8.3549   -7.8650    0.0000 C   0  0  0  0  0  0  0  0  0  0  0  0
    8.3549   -7.0400    0.0000 C   0  0  0  0  0  0  0  0  0  0  0  0
    7.6404   -6.6275    0.0000 C   0  0  0  0  0  0  0  0  0  0  0  0
    9.0694   -8.2775    0.0000 O   0  0  0  0  0  0  0  0  0  0  0  0
    7.2972   -6.4487    0.0000 O   0  0  0  0  0  0  0  0  0  0  0  0
    6.2115   -8.2775    0.0000 O   0  0  0  0  0  0  0  0  0  0  0  0
    6.2115   -9.1025    0.0000 C   0  0  1  0  0  0  0  0  0  0  0  0
    6.9259   -9.5150    0.0000 C   0  0  2  0  0  0  0  0  0  0  0  0
    7.6404   -9.1025    0.0000 C   0  0  1  0  0  0  0  0  0  0  0  0
    6.9259  -10.3400    0.0000 O   0  0  0  0  0  0  0  0  0  0  0  0
    5.4970   -9.5150    0.0000 C   0  0  0  0  0  0  0  0  0  0  0  0
    4.7825   -9.1025    0.0000 C   0  0  0  0  0  0  0  0  0  0  0  0
    4.0681   -9.5150    0.0000 C   0  0  0  0  0  0  0  0  0  0  0  0
    4.0681  -10.3400    0.0000 C   0  0  0  0  0  0  0  0  0  0  0  0
    4.7825  -10.7525    0.0000 C   0  0  0  0  0  0  0  0  0  0  0  0
    5.4970  -10.3400    0.0000 C   0  0  0  0  0  0  0  0  0  0  0  0
    3.3536   -9.1025    0.0000 O   0  0  0  0  0  0  0  0  0  0  0  0
    3.3536  -10.7525    0.0000 O   0  0  0  0  0  0  0  0  0  0  0  0
    4.7825  -11.5775    0.0000 O   0  0  0  0  0  0  0  0  0  0  0  0
    8.3411   -9.5563    0.0000 S   0  0  0  0  0  0  0  0  0  0  0  0
    9.7777  -10.3812    0.0000 O   0  0  0  0  0  0  0  0  0  0  0  0
    9.7777   -9.5563    0.0000 C   0  0  0  0  0  0  0  0  0  0  0  0
    9.0671   -9.1504    0.0000 C   0  0  0  0  0  0  0  0  0  0  0  0
  1  2  2  0  0  0  0
  2  3  1  0  0  0  0
  3  4  2  0  0  0  0
  4  5  1  0  0  0  0
  5  6  2  0  0  0  0
  6  1  1  0  0  0  0
  4  7  1  0  0  0  0
  7  8  1  0  0  0  0
  8  9  1  0  0  0  0
  9 10  1  0  0  0  0
 10  5  1  0  0  0  0
  9 11  1  1  0  0  0
 11 12  2  0  0  0  0
 11 13  1  0  0  0  0
 13 14  2  0  0  0  0
 14 15  1  0  0  0  0
 15 16  2  0  0  0  0
 16 12  1  0  0  0  0
  1 17  1  0  0  0  0
  3 18  1  0  0  0  0
 16 19  1  0  0  0  0
 15 20  1  0  0  0  0
 14 21  1  0  0  0  0
  7 22  1  6  0  0  0
  9 23  1  6  0  0  0
 22 24  2  0  0  0  0
 24 25  1  0  0  0  0
 25 26  2  0  0  0  0
 26 27  1  0  0  0  0
 27 28  2  0  0  0  0
 28 22  1  0  0  0  0
 23 28  1  0  0  0  0
 26 29  1  0  0  0  0
  8 30  1  1  0  0  0
 24 31  1  0  0  0  0
 31 32  1  0  0  0  0
 32 33  1  0  0  0  0
 33 34  1  0  0  0  0
 34 25  1  0  0  0  0
 33 35  1  6  0  0  0
 32 36  1  1  0  0  0
 36 37  2  0  0  0  0
 37 38  1  0  0  0  0
 38 39  2  0  0  0  0
 39 40  1  0  0  0  0
 40 41  2  0  0  0  0
 41 36  1  0  0  0  0
 38 42  1  0  0  0  0
 39 43  1  0  0  0  0
 40 44  1  0  0  0  0
 34 45  1  6  0  0  0
 46 47  1  0  0  0  0
 47 48  1  0  0  0  0
 48 45  1  0  0  0  0
M  END
>  <cdx:fragmentId>
5

$$$$
