94342.cdx
  Mrv1902 05222410222D          

 37 40  0  0  0  0            999 V2000
    6.3821   -8.3108    0.0000 C   0  0  0  0  0  0  0  0  0  0  0  0
    7.8111   -8.3108    0.0000 O   0  0  0  0  0  0  0  0  0  0  0  0
    7.0966   -8.7233    0.0000 C   0  0  1  0  0  0  0  0  0  0  0  0
    7.0966   -9.5483    0.0000 C   0  0  2  0  0  0  0  0  0  0  0  0
    7.8111   -9.9608    0.0000 C   0  0  1  0  0  0  0  0  0  0  0  0
    8.5255   -9.5483    0.0000 C   0  0  2  0  0  0  0  0  0  0  0  0
    8.5255   -8.7233    0.0000 C   0  0  2  0  0  0  0  0  0  0  0  0
    9.2400   -9.9608    0.0000 O   0  0  0  0  0  0  0  0  0  0  0  0
    7.8111  -10.7858    0.0000 O   0  0  0  0  0  0  0  0  0  0  0  0
    6.3821   -9.9608    0.0000 O   0  0  0  0  0  0  0  0  0  0  0  0
    9.2400   -8.3108    0.0000 O   0  0  0  0  0  0  0  0  0  0  0  0
    9.2400   -7.4858    0.0000 C   0  0  1  0  0  0  0  0  0  0  0  0
    9.9545   -7.0733    0.0000 C   0  0  1  0  0  0  0  0  0  0  0  0
    9.9545   -6.2483    0.0000 C   0  0  1  0  0  0  0  0  0  0  0  0
    9.2400   -5.8358    0.0000 C   0  0  0  0  0  0  0  0  0  0  0  0
    8.5255   -6.2483    0.0000 C   0  0  0  0  0  0  0  0  0  0  0  0
    8.5255   -7.0733    0.0000 O   0  0  0  0  0  0  0  0  0  0  0  0
   10.7391   -5.9933    0.0000 C   0  0  1  0  0  0  0  0  0  0  0  0
   11.2240   -6.6608    0.0000 C   0  0  0  0  0  0  0  0  0  0  0  0
   10.7391   -7.3282    0.0000 C   0  0  0  0  0  0  0  0  0  0  0  0
   10.9940   -8.1128    0.0000 C   0  0  0  0  0  0  0  0  0  0  0  0
   11.8010   -8.2843    0.0000 O   0  0  0  0  0  0  0  0  0  0  0  0
   10.9940   -5.2087    0.0000 O   0  0  0  0  0  0  0  0  0  0  0  0
   10.0407   -5.4278    0.0000 H   0  0  0  0  0  0  0  0  0  0  0  0
   10.0407   -7.8937    0.0000 H   0  0  0  0  0  0  0  0  0  0  0  0
    5.6676   -8.7233    0.0000 O   0  0  0  0  0  0  0  0  0  0  0  0
    3.4605   -5.8842    0.0000 O   0  0  0  0  0  0  0  0  0  0  0  0
    4.1839   -6.2807    0.0000 C   0  0  0  0  0  0  0  0  0  0  0  0
    2.7737   -7.1373    0.0000 O   0  0  0  0  0  0  0  0  0  0  0  0
    2.8105   -8.7869    0.0000 O   0  0  0  0  0  0  0  0  0  0  0  0
    4.2574   -9.5799    0.0000 O   0  0  0  0  0  0  0  0  0  0  0  0
    4.2023   -7.1055    0.0000 C   0  0  2  0  0  0  0  0  0  0  0  0
    3.4972   -7.5338    0.0000 C   0  0  2  0  0  0  0  0  0  0  0  0
    3.5156   -8.3586    0.0000 C   0  0  1  0  0  0  0  0  0  0  0  0
    4.2391   -8.7551    0.0000 C   0  0  2  0  0  0  0  0  0  0  0  0
    4.9442   -8.3268    0.0000 C   0  0  1  0  0  0  0  0  0  0  0  0
    4.9258   -7.5020    0.0000 O   0  0  0  0  0  0  0  0  0  0  0  0
 36 26  1  1  0  0  0
 32 28  1  1  0  0  0
 28 27  1  0  0  0  0
 33 29  1  6  0  0  0
 34 30  1  1  0  0  0
 35 31  1  6  0  0  0
 37 32  1  0  0  0  0
 33 32  1  0  0  0  0
 34 33  1  0  0  0  0
 35 34  1  0  0  0  0
 36 35  1  0  0  0  0
 37 36  1  0  0  0  0
 26  1  1  0  0  0  0
  2  3  1  0  0  0  0
  3  4  1  0  0  0  0
  4  5  1  0  0  0  0
  5  6  1  0  0  0  0
  6  7  1  0  0  0  0
  2  7  1  0  0  0  0
  6  8  1  6  0  0  0
  5  9  1  1  0  0  0
  4 10  1  6  0  0  0
 12 13  1  0  0  0  0
 13 14  1  0  0  0  0
 14 15  1  0  0  0  0
 15 16  2  0  0  0  0
 16 17  1  0  0  0  0
 12 17  1  0  0  0  0
 18 19  1  0  0  0  0
 19 20  2  0  0  0  0
 20 13  1  0  0  0  0
 18 14  1  0  0  0  0
 21 22  1  0  0  0  0
 20 21  1  0  0  0  0
 18 23  1  6  0  0  0
 12 11  1  6  0  0  0
  7 11  1  1  0  0  0
  3  1  1  1  0  0  0
 14 24  1  6  0  0  0
 13 25  1  6  0  0  0
M  END
>  <cdx:groupId>
116

>  <cdx:fragmentId>
51

$$$$
