94341.cdx
  Mrv1902 05222410232D          

 47 51  0  0  0  0            999 V2000
    7.4067   -7.9679    0.0000 O   0  0  0  0  0  0  0  0  0  0  0  0
    6.6874   -8.3720    0.0000 C   0  0  2  0  0  0  0  0  0  0  0  0
    5.9778   -7.9511    0.0000 O   0  0  0  0  0  0  0  0  0  0  0  0
    5.2586   -8.3552    0.0000 C   0  0  1  0  0  0  0  0  0  0  0  0
    5.2488   -9.1801    0.0000 C   0  0  2  0  0  0  0  0  0  0  0  0
    5.9584   -9.6010    0.0000 C   0  0  1  0  0  0  0  0  0  0  0  0
    6.6777   -9.1969    0.0000 C   0  0  1  0  0  0  0  0  0  0  0  0
    4.5490   -7.9343    0.0000 C   0  0  0  0  0  0  0  0  0  0  0  0
    5.9487  -10.4259    0.0000 O   0  0  0  0  0  0  0  0  0  0  0  0
    7.3873   -9.6178    0.0000 O   0  0  0  0  0  0  0  0  0  0  0  0
    4.5296   -9.5842    0.0000 O   0  0  0  0  0  0  0  0  0  0  0  0
    3.8297   -8.3384    0.0000 O   0  0  0  0  0  0  0  0  0  0  0  0
   12.4781   -8.2228    0.0000 C   0  0  0  0  0  0  0  0  0  0  0  0
   13.1927   -8.6354    0.0000 C   0  0  0  0  0  0  0  0  0  0  0  0
   13.9071   -8.2228    0.0000 C   0  0  0  0  0  0  0  0  0  0  0  0
   13.9071   -7.3978    0.0000 C   0  0  0  0  0  0  0  0  0  0  0  0
   13.1927   -6.9853    0.0000 C   0  0  0  0  0  0  0  0  0  0  0  0
   12.4781   -7.3978    0.0000 C   0  0  0  0  0  0  0  0  0  0  0  0
   11.7637   -6.9853    0.0000 C   0  0  0  0  0  0  0  0  0  0  0  0
   10.3347   -6.1603    0.0000 O   0  0  0  0  0  0  0  0  0  0  0  0
   11.0492   -7.3978    0.0000 C   0  0  0  0  0  0  0  0  0  0  0  0
   10.3347   -6.9853    0.0000 C   0  0  0  0  0  0  0  0  0  0  0  0
    9.6203   -7.3978    0.0000 O   0  0  0  0  0  0  0  0  0  0  0  0
    9.1607   -4.8658    0.0000 O   0  0  0  0  0  0  0  0  0  0  0  0
    8.1212   -5.0804    0.0000 O   0  0  0  0  0  0  0  0  0  0  0  0
    8.1212   -7.5554    0.0000 H   0  0  0  0  0  0  0  0  0  0  0  0
    8.6922   -7.7822    0.0000 C   0  0  0  0  0  0  0  0  0  0  0  0
    8.9058   -6.9853    0.0000 C   0  0  1  0  0  0  0  0  0  0  0  0
    9.3907   -6.3179    0.0000 C   0  0  0  0  0  0  0  0  0  0  0  0
    8.9058   -5.6505    0.0000 C   0  0  2  0  0  0  0  0  0  0  0  0
    7.4067   -7.1429    0.0000 C   0  0  1  0  0  0  0  0  0  0  0  0
    8.1212   -6.7304    0.0000 C   0  0  1  0  0  0  0  0  0  0  0  0
    8.1212   -5.9054    0.0000 C   0  0  2  0  0  0  0  0  0  0  0  0
    7.4067   -5.4929    0.0000 C   0  0  0  0  0  0  0  0  0  0  0  0
    6.6922   -5.9054    0.0000 C   0  0  0  0  0  0  0  0  0  0  0  0
    6.6922   -6.7304    0.0000 O   0  0  0  0  0  0  0  0  0  0  0  0
    3.1213   -7.9285    0.0000 C   0  0  2  0  0  0  0  0  0  0  0  0
    3.1213   -7.1035    0.0000 O   0  0  0  0  0  0  0  0  0  0  0  0
    2.4068   -6.6910    0.0000 C   0  0  1  0  0  0  0  0  0  0  0  0
    1.6924   -7.1035    0.0000 C   0  0  2  0  0  0  0  0  0  0  0  0
    1.6924   -7.9285    0.0000 C   0  0  1  0  0  0  0  0  0  0  0  0
    2.4068   -8.3410    0.0000 C   0  0  1  0  0  0  0  0  0  0  0  0
    0.9779   -6.6910    0.0000 O   0  0  0  0  0  0  0  0  0  0  0  0
    2.4068   -9.1660    0.0000 O   0  0  0  0  0  0  0  0  0  0  0  0
    0.9779   -8.3410    0.0000 O   0  0  0  0  0  0  0  0  0  0  0  0
    2.4068   -5.8660    0.0000 C   0  0  0  0  0  0  0  0  0  0  0  0
    1.6924   -5.4535    0.0000 O   0  0  0  0  0  0  0  0  0  0  0  0
 31  1  1  6  0  0  0
 13 18  1  0  0  0  0
 14 13  2  0  0  0  0
 15 14  1  0  0  0  0
 16 15  2  0  0  0  0
 17 16  1  0  0  0  0
 18 17  2  0  0  0  0
 19 18  1  0  0  0  0
 21 19  2  0  0  0  0
 22 20  2  0  0  0  0
 22 21  1  0  0  0  0
 23 22  1  0  0  0  0
 28 23  1  6  0  0  0
 30 24  1  6  0  0  0
 33 25  1  6  0  0  0
 32 26  1  6  0  0  0
 28 27  1  0  0  0  0
 28 32  1  0  0  0  0
 29 28  1  0  0  0  0
 30 29  1  0  0  0  0
 33 30  1  0  0  0  0
 31 36  1  0  0  0  0
 32 31  1  0  0  0  0
 33 32  1  0  0  0  0
 34 33  1  0  0  0  0
 35 34  2  0  0  0  0
 36 35  1  0  0  0  0
  2  1  1  1  0  0  0
  2  3  1  0  0  0  0
  3  4  1  0  0  0  0
  4  5  1  0  0  0  0
  5  6  1  0  0  0  0
  6  7  1  0  0  0  0
  7  2  1  0  0  0  0
  4  8  1  1  0  0  0
  6  9  1  1  0  0  0
  7 10  1  6  0  0  0
  5 11  1  6  0  0  0
  8 12  1  0  0  0  0
 37 38  1  0  0  0  0
 38 39  1  0  0  0  0
 39 40  1  0  0  0  0
 40 41  1  0  0  0  0
 41 42  1  0  0  0  0
 42 37  1  0  0  0  0
 40 43  1  6  0  0  0
 42 44  1  6  0  0  0
 41 45  1  1  0  0  0
 39 46  1  1  0  0  0
 46 47  1  0  0  0  0
 37 12  1  1  0  0  0
M  END
>  <cdx:fragmentId>
3

$$$$
