94346.cdx
  Mrv1902 05222410212D          

 58 62  0  0  0  0            999 V2000
    6.8084   -8.8882    0.0000 C   0  0  1  0  0  0  0  0  0  0  0  0
    7.5239   -9.2989    0.0000 C   0  0  1  0  0  0  0  0  0  0  0  0
    8.2373   -8.8846    0.0000 C   0  0  2  0  0  0  0  0  0  0  0  0
    8.2352   -8.0596    0.0000 C   0  0  1  0  0  0  0  0  0  0  0  0
    7.5197   -7.6489    0.0000 O   0  0  0  0  0  0  0  0  0  0  0  0
    6.8063   -8.0632    0.0000 C   0  0  2  0  0  0  0  0  0  0  0  0
    6.0908   -7.6525    0.0000 C   0  0  0  0  0  0  0  0  0  0  0  0
   11.0931   -8.0523    0.0000 C   0  0  0  0  0  0  0  0  0  0  0  0
    7.5260  -10.1239    0.0000 O   0  0  0  0  0  0  0  0  0  0  0  0
   11.0952   -8.8773    0.0000 C   0  0  0  0  0  0  0  0  0  0  0  0
   11.8107   -9.2880    0.0000 C   0  0  0  0  0  0  0  0  0  0  0  0
   12.5241   -8.8737    0.0000 C   0  0  0  0  0  0  0  0  0  0  0  0
   12.5220   -8.0487    0.0000 C   0  0  0  0  0  0  0  0  0  0  0  0
   11.8065   -7.6380    0.0000 C   0  0  0  0  0  0  0  0  0  0  0  0
   13.2354   -7.6343    0.0000 O   0  0  0  0  0  0  0  0  0  0  0  0
   13.2396   -9.2843    0.0000 O   0  0  0  0  0  0  0  0  0  0  0  0
   13.9541   -8.8718    0.0000 C   0  0  0  0  0  0  0  0  0  0  0  0
   10.3776   -7.6416    0.0000 C   0  0  0  0  0  0  0  0  0  0  0  0
    9.6642   -8.0559    0.0000 C   0  0  0  0  0  0  0  0  0  0  0  0
    8.9486   -7.6453    0.0000 O   0  0  0  0  0  0  0  0  0  0  0  0
    6.0887   -6.8275    0.0000 O   0  0  0  0  0  0  0  0  0  0  0  0
    6.8126  -10.5382    0.0000 C   0  0  2  0  0  0  0  0  0  0  0  0
    8.9528   -9.2952    0.0000 O   0  0  0  0  0  0  0  0  0  0  0  0
    6.0950   -9.3025    0.0000 O   0  0  0  0  0  0  0  0  0  0  0  0
    5.3731   -6.4168    0.0000 C   0  0  2  0  0  0  0  0  0  0  0  0
    5.3710   -5.5918    0.0000 O   0  0  0  0  0  0  0  0  0  0  0  0
    4.6555   -5.1812    0.0000 C   0  0  0  0  0  0  0  0  0  0  0  0
    3.9421   -5.5955    0.0000 C   0  0  1  0  0  0  0  0  0  0  0  0
    3.9442   -6.4205    0.0000 C   0  0  1  0  0  0  0  0  0  0  0  0
    4.6597   -6.8312    0.0000 C   0  0  1  0  0  0  0  0  0  0  0  0
    4.6618   -7.6562    0.0000 O   0  0  0  0  0  0  0  0  0  0  0  0
    3.2308   -6.8348    0.0000 O   0  0  0  0  0  0  0  0  0  0  0  0
    3.2266   -5.1848    0.0000 O   0  0  0  0  0  0  0  0  0  0  0  0
    6.0971  -10.1275    0.0000 O   0  0  0  0  0  0  0  0  0  0  0  0
    5.3836  -10.5418    0.0000 C   0  0  2  0  0  0  0  0  0  0  0  0
    5.3857  -11.3668    0.0000 C   0  0  1  0  0  0  0  0  0  0  0  0
    6.1013  -11.7775    0.0000 C   0  0  2  0  0  0  0  0  0  0  0  0
    6.8147  -11.3632    0.0000 C   0  0  1  0  0  0  0  0  0  0  0  0
    4.6681  -10.1312    0.0000 C   0  0  0  0  0  0  0  0  0  0  0  0
    6.1034  -12.6025    0.0000 O   0  0  0  0  0  0  0  0  0  0  0  0
    7.5302  -11.7739    0.0000 O   0  0  0  0  0  0  0  0  0  0  0  0
    4.6723  -11.7811    0.0000 O   0  0  0  0  0  0  0  0  0  0  0  0
    5.3794   -8.8918    0.0000 C   0  0  0  0  0  0  0  0  0  0  0  0
    4.6660   -9.3062    0.0000 C   0  0  0  0  0  0  0  0  0  0  0  0
    5.3773   -8.0668    0.0000 O   0  0  0  0  0  0  0  0  0  0  0  0
    3.9505   -8.8955    0.0000 C   0  0  0  0  0  0  0  0  0  0  0  0
    3.2371   -9.3098    0.0000 C   0  0  0  0  0  0  0  0  0  0  0  0
    2.5216   -8.8991    0.0000 C   0  0  0  0  0  0  0  0  0  0  0  0
    1.8081   -9.3134    0.0000 C   0  0  0  0  0  0  0  0  0  0  0  0
    1.8102  -10.1384    0.0000 C   0  0  0  0  0  0  0  0  0  0  0  0
    2.5258  -10.5491    0.0000 C   0  0  0  0  0  0  0  0  0  0  0  0
    3.2392  -10.1348    0.0000 C   0  0  0  0  0  0  0  0  0  0  0  0
    1.0968  -10.5527    0.0000 O   0  0  0  0  0  0  0  0  0  0  0  0
    1.0926   -8.9027    0.0000 O   0  0  0  0  0  0  0  0  0  0  0  0
    0.3792   -9.3171    0.0000 C   0  0  0  0  0  0  0  0  0  0  0  0
    7.5323  -12.5989    0.0000 C   0  0  0  0  0  0  0  0  0  0  0  0
    6.8189  -13.0132    0.0000 C   0  0  0  0  0  0  0  0  0  0  0  0
    8.2478  -13.0096    0.0000 O   0  0  0  0  0  0  0  0  0  0  0  0
  1  2  1  0  0  0  0
  2  3  1  0  0  0  0
  3  4  1  0  0  0  0
  4  5  1  0  0  0  0
  5  6  1  0  0  0  0
  6  1  1  0  0  0  0
  6  7  1  1  0  0  0
  4 20  1  1  0  0  0
  2  9  1  1  0  0  0
  8 10  2  0  0  0  0
 10 11  1  0  0  0  0
 11 12  2  0  0  0  0
 12 13  1  0  0  0  0
 13 14  2  0  0  0  0
 14  8  1  0  0  0  0
 13 15  1  0  0  0  0
 12 16  1  0  0  0  0
 18  8  1  0  0  0  0
 16 17  1  0  0  0  0
 19 18  1  0  0  0  0
 20 19  1  0  0  0  0
  7 21  1  0  0  0  0
 22  9  1  1  0  0  0
  3 23  1  6  0  0  0
  1 24  1  6  0  0  0
 25 21  1  1  0  0  0
 25 26  1  0  0  0  0
 26 27  1  0  0  0  0
 27 28  1  0  0  0  0
 28 29  1  0  0  0  0
 29 30  1  0  0  0  0
 30 25  1  0  0  0  0
 30 31  1  6  0  0  0
 29 32  1  1  0  0  0
 28 33  1  1  0  0  0
 22 34  1  0  0  0  0
 34 35  1  0  0  0  0
 35 36  1  0  0  0  0
 36 37  1  0  0  0  0
 37 38  1  0  0  0  0
 38 22  1  0  0  0  0
 35 39  1  6  0  0  0
 37 40  1  6  0  0  0
 38 41  1  6  0  0  0
 36 42  1  1  0  0  0
 24 43  1  0  0  0  0
 43 44  1  0  0  0  0
 43 45  2  0  0  0  0
 44 46  2  0  0  0  0
 46 47  1  0  0  0  0
 47 48  2  0  0  0  0
 48 49  1  0  0  0  0
 49 50  2  0  0  0  0
 50 51  1  0  0  0  0
 51 52  2  0  0  0  0
 52 47  1  0  0  0  0
 50 53  1  0  0  0  0
 49 54  1  0  0  0  0
 54 55  1  0  0  0  0
 41 56  1  0  0  0  0
 56 57  1  0  0  0  0
 56 58  2  0  0  0  0
M  END
>  <cdx:fragmentId>
5

$$$$
