94349.cdx
  Mrv1902 05222410252D          

 26 27  0  0  0  0            999 V2000
    3.6611   -9.1325    0.0000 C   0  0  0  0  0  0  0  0  0  0  0  0
    4.3756   -8.7200    0.0000 C   0  0  0  0  0  0  0  0  0  0  0  0
    5.0900   -9.1325    0.0000 C   0  0  0  0  0  0  0  0  0  0  0  0
    5.8045   -8.7200    0.0000 C   0  0  0  0  0  0  0  0  0  0  0  0
    5.8045   -7.8950    0.0000 C   0  0  0  0  0  0  0  0  0  0  0  0
    5.0900   -7.4825    0.0000 C   0  0  0  0  0  0  0  0  0  0  0  0
    4.3756   -7.8950    0.0000 C   0  0  0  0  0  0  0  0  0  0  0  0
    2.9466   -8.7200    0.0000 O   0  0  0  0  0  0  0  0  0  0  0  0
    6.5190   -9.1325    0.0000 O   0  0  0  0  0  0  0  0  0  0  0  0
    6.5190   -9.9575    0.0000 C   0  0  0  0  0  0  0  0  0  0  0  0
    6.5190   -7.4825    0.0000 O   0  0  0  0  0  0  0  0  0  0  0  0
    7.2335   -7.8950    0.0000 C   0  0  0  0  0  0  0  0  0  0  0  0
    7.9479   -7.4825    0.0000 C   0  0  0  0  0  0  0  0  0  0  0  0
    7.2335   -8.7200    0.0000 C   0  0  0  0  0  0  0  0  0  0  0  0
    7.9479   -9.1325    0.0000 O   0  0  0  0  0  0  0  0  0  0  0  0
    7.9479   -6.6575    0.0000 O   0  0  0  0  0  0  0  0  0  0  0  0
    8.6624   -7.8950    0.0000 C   0  0  0  0  0  0  0  0  0  0  0  0
    8.6624   -8.7200    0.0000 C   0  0  0  0  0  0  0  0  0  0  0  0
    9.3769   -9.1325    0.0000 C   0  0  0  0  0  0  0  0  0  0  0  0
   10.0913   -8.7200    0.0000 C   0  0  0  0  0  0  0  0  0  0  0  0
   10.0913   -7.8950    0.0000 C   0  0  0  0  0  0  0  0  0  0  0  0
    9.3769   -7.4825    0.0000 C   0  0  0  0  0  0  0  0  0  0  0  0
   10.8058   -7.4825    0.0000 O   0  0  0  0  0  0  0  0  0  0  0  0
   11.5203   -7.8950    0.0000 C   0  0  0  0  0  0  0  0  0  0  0  0
    9.3769   -9.9575    0.0000 O   0  0  0  0  0  0  0  0  0  0  0  0
   10.0913  -10.3700    0.0000 C   0  0  0  0  0  0  0  0  0  0  0  0
  1  2  1  0  0  0  0
  2  3  1  0  0  0  0
  3  4  2  0  0  0  0
  4  5  1  0  0  0  0
  5  6  2  0  0  0  0
  6  7  1  0  0  0  0
  2  7  2  0  0  0  0
  1  8  2  0  0  0  0
  9 10  1  0  0  0  0
  4  9  1  0  0  0  0
 12 13  1  0  0  0  0
 11 12  1  0  0  0  0
 14 15  1  0  0  0  0
 12 14  1  0  0  0  0
 13 16  1  0  0  0  0
 17 18  1  0  0  0  0
 18 19  2  0  0  0  0
 19 20  1  0  0  0  0
 20 21  2  0  0  0  0
 21 22  1  0  0  0  0
 17 22  2  0  0  0  0
 23 24  1  0  0  0  0
 21 23  1  0  0  0  0
 25 26  1  0  0  0  0
 19 25  1  0  0  0  0
 13 17  1  0  0  0  0
  5 11  1  0  0  0  0
M  END
>  <cdx:groupId>
81

>  <cdx:fragmentId>
37

$$$$
