94343.cdx
  Mrv1902 05222410222D          

 37 40  0  0  0  0            999 V2000
    3.1784  -10.9645    0.0000 C   0  0  0  0  0  0  0  0  0  0  0  0
    4.6073  -10.9645    0.0000 O   0  0  0  0  0  0  0  0  0  0  0  0
    3.8928  -11.3770    0.0000 C   0  0  1  0  0  0  0  0  0  0  0  0
    3.8928  -12.2020    0.0000 C   0  0  2  0  0  0  0  0  0  0  0  0
    4.6073  -12.6145    0.0000 C   0  0  1  0  0  0  0  0  0  0  0  0
    5.3218  -12.2020    0.0000 C   0  0  2  0  0  0  0  0  0  0  0  0
    5.3218  -11.3770    0.0000 C   0  0  2  0  0  0  0  0  0  0  0  0
    6.0363  -12.6145    0.0000 O   0  0  0  0  0  0  0  0  0  0  0  0
    4.6073  -13.4395    0.0000 O   0  0  0  0  0  0  0  0  0  0  0  0
    3.1784  -12.6145    0.0000 O   0  0  0  0  0  0  0  0  0  0  0  0
    6.0363  -10.9645    0.0000 O   0  0  0  0  0  0  0  0  0  0  0  0
    6.0363  -10.1395    0.0000 C   0  0  1  0  0  0  0  0  0  0  0  0
    6.7507   -9.7270    0.0000 C   0  0  1  0  0  0  0  0  0  0  0  0
    6.7507   -8.9020    0.0000 C   0  0  1  0  0  0  0  0  0  0  0  0
    6.0363   -8.4895    0.0000 C   0  0  0  0  0  0  0  0  0  0  0  0
    5.3218   -8.9020    0.0000 C   0  0  0  0  0  0  0  0  0  0  0  0
    5.3218   -9.7270    0.0000 O   0  0  0  0  0  0  0  0  0  0  0  0
    7.5353   -8.6471    0.0000 C   0  0  1  0  0  0  0  0  0  0  0  0
    8.0203   -9.3145    0.0000 C   0  0  0  0  0  0  0  0  0  0  0  0
    7.5353   -9.9819    0.0000 C   0  0  0  0  0  0  0  0  0  0  0  0
    7.7903  -10.7666    0.0000 C   0  0  0  0  0  0  0  0  0  0  0  0
    8.5973  -10.9381    0.0000 O   0  0  0  0  0  0  0  0  0  0  0  0
    7.7903   -7.8624    0.0000 O   0  0  0  0  0  0  0  0  0  0  0  0
    6.8370   -8.0815    0.0000 H   0  0  0  0  0  0  0  0  0  0  0  0
    6.8370  -10.5475    0.0000 H   0  0  0  0  0  0  0  0  0  0  0  0
    2.4639  -11.3770    0.0000 O   0  0  0  0  0  0  0  0  0  0  0  0
   11.3521   -7.3808    0.0000 O   0  0  0  0  0  0  0  0  0  0  0  0
   10.6454   -7.8065    0.0000 C   0  0  0  0  0  0  0  0  0  0  0  0
   10.6149   -6.1567    0.0000 O   0  0  0  0  0  0  0  0  0  0  0  0
    9.1709   -5.3583    0.0000 O   0  0  0  0  0  0  0  0  0  0  0  0
    7.7575   -6.2096    0.0000 O   0  0  0  0  0  0  0  0  0  0  0  0
    9.9234   -7.4072    0.0000 C   0  0  2  0  0  0  0  0  0  0  0  0
    9.9081   -6.5824    0.0000 C   0  0  2  0  0  0  0  0  0  0  0  0
    9.1862   -6.1832    0.0000 C   0  0  1  0  0  0  0  0  0  0  0  0
    8.4794   -6.6088    0.0000 C   0  0  2  0  0  0  0  0  0  0  0  0
    8.4947   -7.4337    0.0000 C   0  0  1  0  0  0  0  0  0  0  0  0
    9.2167   -7.8329    0.0000 O   0  0  0  0  0  0  0  0  0  0  0  0
 26  1  1  0  0  0  0
  2  3  1  0  0  0  0
  3  4  1  0  0  0  0
  4  5  1  0  0  0  0
  5  6  1  0  0  0  0
  6  7  1  0  0  0  0
  2  7  1  0  0  0  0
  6  8  1  6  0  0  0
  5  9  1  1  0  0  0
  4 10  1  6  0  0  0
 12 13  1  0  0  0  0
 13 14  1  0  0  0  0
 14 15  1  0  0  0  0
 15 16  2  0  0  0  0
 16 17  1  0  0  0  0
 12 17  1  0  0  0  0
 18 19  1  0  0  0  0
 19 20  2  0  0  0  0
 20 13  1  0  0  0  0
 18 14  1  0  0  0  0
 21 22  1  0  0  0  0
 20 21  1  0  0  0  0
 18 23  1  6  0  0  0
 12 11  1  6  0  0  0
  7 11  1  1  0  0  0
  3  1  1  1  0  0  0
 14 24  1  6  0  0  0
 13 25  1  6  0  0  0
 32 28  1  1  0  0  0
 28 27  1  0  0  0  0
 33 29  1  6  0  0  0
 34 30  1  1  0  0  0
 35 31  1  6  0  0  0
 37 32  1  0  0  0  0
 33 32  1  0  0  0  0
 34 33  1  0  0  0  0
 35 34  1  0  0  0  0
 36 35  1  0  0  0  0
 37 36  1  0  0  0  0
 36 23  1  1  0  0  0
M  END
>  <cdx:groupId>
116

>  <cdx:fragmentId>
51

$$$$
