94344.cdx
  Mrv1902 05222410212D          

 37 40  0  0  0  0            999 V2000
    5.9826   -7.3117    0.0000 C   0  0  1  0  0  0  0  0  0  0  0  0
    6.6971   -6.8992    0.0000 C   0  0  1  0  0  0  0  0  0  0  0  0
    6.6971   -6.0742    0.0000 C   0  0  1  0  0  0  0  0  0  0  0  0
    5.9826   -5.6617    0.0000 C   0  0  0  0  0  0  0  0  0  0  0  0
    5.2681   -6.0742    0.0000 C   0  0  0  0  0  0  0  0  0  0  0  0
    5.2681   -6.8992    0.0000 O   0  0  0  0  0  0  0  0  0  0  0  0
    7.4817   -5.8193    0.0000 C   0  0  1  0  0  0  0  0  0  0  0  0
    7.9666   -6.4867    0.0000 C   0  0  0  0  0  0  0  0  0  0  0  0
    7.4817   -7.1541    0.0000 C   0  0  2  0  0  0  0  0  0  0  0  0
    6.6971   -5.2492    0.0000 O   0  0  0  0  0  0  0  0  0  0  0  0
    7.7366   -5.0346    0.0000 O   0  0  0  0  0  0  0  0  0  0  0  0
    8.0948   -7.7062    0.0000 O   0  0  0  0  0  0  0  0  0  0  0  0
    5.9826   -8.1367    0.0000 O   0  0  0  0  0  0  0  0  0  0  0  0
    4.5536   -8.1367    0.0000 O   0  0  0  0  0  0  0  0  0  0  0  0
    5.2681   -8.5492    0.0000 C   0  0  2  0  0  0  0  0  0  0  0  0
    5.2681   -9.3742    0.0000 C   0  0  1  0  0  0  0  0  0  0  0  0
    4.5536   -9.7867    0.0000 C   0  0  2  0  0  0  0  0  0  0  0  0
    3.8392   -9.3742    0.0000 C   0  0  1  0  0  0  0  0  0  0  0  0
    3.8392   -8.5492    0.0000 C   0  0  1  0  0  0  0  0  0  0  0  0
    3.1247   -8.1367    0.0000 C   0  0  0  0  0  0  0  0  0  0  0  0
    2.4102   -8.5492    0.0000 O   0  0  0  0  0  0  0  0  0  0  0  0
    3.1247   -9.7867    0.0000 O   0  0  0  0  0  0  0  0  0  0  0  0
    4.5536  -10.6117    0.0000 O   0  0  0  0  0  0  0  0  0  0  0  0
    5.9826   -9.7867    0.0000 O   0  0  0  0  0  0  0  0  0  0  0  0
    7.3101   -7.9611    0.0000 C   0  0  0  0  0  0  0  0  0  0  0  0
    6.6971   -7.7242    0.0000 H   0  0  0  0  0  0  0  0  0  0  0  0
    8.5436   -4.8631    0.0000 C   0  0  2  0  0  0  0  0  0  0  0  0
    9.0956   -5.4762    0.0000 O   0  0  0  0  0  0  0  0  0  0  0  0
    9.9026   -5.3047    0.0000 C   0  0  1  0  0  0  0  0  0  0  0  0
   10.1575   -4.5201    0.0000 C   0  0  2  0  0  0  0  0  0  0  0  0
    9.6055   -3.9070    0.0000 C   0  0  1  0  0  0  0  0  0  0  0  0
    8.7985   -4.0785    0.0000 C   0  0  1  0  0  0  0  0  0  0  0  0
   10.4546   -5.9178    0.0000 C   0  0  0  0  0  0  0  0  0  0  0  0
   10.9645   -4.3485    0.0000 O   0  0  0  0  0  0  0  0  0  0  0  0
    9.8604   -3.1223    0.0000 O   0  0  0  0  0  0  0  0  0  0  0  0
    8.2465   -3.4654    0.0000 O   0  0  0  0  0  0  0  0  0  0  0  0
   11.2616   -5.7463    0.0000 O   0  0  0  0  0  0  0  0  0  0  0  0
  1  2  1  0  0  0  0
  2  3  1  0  0  0  0
  3  4  1  0  0  0  0
  4  5  2  0  0  0  0
  5  6  1  0  0  0  0
  1  6  1  0  0  0  0
  7  8  1  0  0  0  0
  8  9  1  0  0  0  0
  9  2  1  0  0  0  0
  7  3  1  0  0  0  0
  3 10  1  6  0  0  0
  7 11  1  6  0  0  0
  9 12  1  6  0  0  0
 14 15  1  0  0  0  0
 15 16  1  0  0  0  0
 16 17  1  0  0  0  0
 17 18  1  0  0  0  0
 18 19  1  0  0  0  0
 14 19  1  0  0  0  0
 20 21  1  0  0  0  0
 19 20  1  1  0  0  0
 18 22  1  6  0  0  0
 17 23  1  1  0  0  0
 16 24  1  6  0  0  0
 15 13  1  1  0  0  0
  1 13  1  6  0  0  0
  9 25  1  0  0  0  0
  2 26  1  6  0  0  0
 27 11  1  1  0  0  0
 27 28  1  0  0  0  0
 28 29  1  0  0  0  0
 29 30  1  0  0  0  0
 30 31  1  0  0  0  0
 31 32  1  0  0  0  0
 32 27  1  0  0  0  0
 29 33  1  1  0  0  0
 30 34  1  6  0  0  0
 31 35  1  1  0  0  0
 32 36  1  6  0  0  0
 33 37  1  0  0  0  0
M  END
>  <cdx:fragmentId>
185

$$$$
