94348.cdx
  Mrv1902 05222410252D          

 44 48  0  0  0  0            999 V2000
    8.3071   -7.1585    0.0000 O   0  0  0  0  0  0  0  0  0  0  0  0
    5.4492   -7.9835    0.0000 O   0  0  0  0  0  0  0  0  0  0  0  0
    4.0203   -5.5085    0.0000 O   0  0  0  0  0  0  0  0  0  0  0  0
   11.1650   -4.6835    0.0000 C   0  0  0  0  0  0  0  0  0  0  0  0
   10.4505   -4.2710    0.0000 O   0  0  0  0  0  0  0  0  0  0  0  0
    8.3071   -4.6835    0.0000 C   0  0  0  0  0  0  0  0  0  0  0  0
    9.0216   -4.2710    0.0000 C   0  0  0  0  0  0  0  0  0  0  0  0
    9.7360   -4.6835    0.0000 C   0  0  0  0  0  0  0  0  0  0  0  0
    9.7360   -5.5085    0.0000 C   0  0  0  0  0  0  0  0  0  0  0  0
    9.0216   -5.9210    0.0000 C   0  0  0  0  0  0  0  0  0  0  0  0
    8.3071   -5.5085    0.0000 C   0  0  0  0  0  0  0  0  0  0  0  0
    6.8782   -7.9835    0.0000 O   0  0  0  0  0  0  0  0  0  0  0  0
    6.8782   -5.5085    0.0000 O   0  0  0  0  0  0  0  0  0  0  0  0
    6.1637   -5.9210    0.0000 C   0  0  0  0  0  0  0  0  0  0  0  0
    5.4492   -5.5085    0.0000 C   0  0  0  0  0  0  0  0  0  0  0  0
    4.7348   -5.9210    0.0000 C   0  0  0  0  0  0  0  0  0  0  0  0
    4.7348   -6.7460    0.0000 C   0  0  0  0  0  0  0  0  0  0  0  0
    5.4492   -7.1585    0.0000 C   0  0  0  0  0  0  0  0  0  0  0  0
    6.1637   -6.7460    0.0000 C   0  0  0  0  0  0  0  0  0  0  0  0
    6.8782   -7.1585    0.0000 C   0  0  0  0  0  0  0  0  0  0  0  0
    7.5926   -6.7460    0.0000 C   0  0  0  0  0  0  0  0  0  0  0  0
    7.5926   -5.9210    0.0000 C   0  0  0  0  0  0  0  0  0  0  0  0
    8.3071   -7.9835    0.0000 C   0  0  2  0  0  0  0  0  0  0  0  0
    7.5926   -8.3960    0.0000 O   0  0  0  0  0  0  0  0  0  0  0  0
    7.5926   -9.2210    0.0000 C   0  0  1  0  0  0  0  0  0  0  0  0
    8.3071   -9.6335    0.0000 C   0  0  2  0  0  0  0  0  0  0  0  0
    9.0216   -9.2210    0.0000 C   0  0  1  0  0  0  0  0  0  0  0  0
    9.0216   -8.3960    0.0000 C   0  0  1  0  0  0  0  0  0  0  0  0
    6.8782   -9.6335    0.0000 C   0  0  0  0  0  0  0  0  0  0  0  0
    9.7360   -9.6335    0.0000 O   0  0  0  0  0  0  0  0  0  0  0  0
    9.7360   -7.9835    0.0000 O   0  0  0  0  0  0  0  0  0  0  0  0
    8.3071  -10.4585    0.0000 O   0  0  0  0  0  0  0  0  0  0  0  0
    6.8782  -10.4585    0.0000 O   0  0  0  0  0  0  0  0  0  0  0  0
    6.1637  -10.8710    0.0000 C   0  0  2  0  0  0  0  0  0  0  0  0
    5.4492  -10.4585    0.0000 O   0  0  0  0  0  0  0  0  0  0  0  0
    4.7348  -10.8710    0.0000 C   0  0  1  0  0  0  0  0  0  0  0  0
    4.7348  -11.6960    0.0000 C   0  0  2  0  0  0  0  0  0  0  0  0
    5.4492  -12.1085    0.0000 C   0  0  1  0  0  0  0  0  0  0  0  0
    6.1637  -11.6960    0.0000 C   0  0  1  0  0  0  0  0  0  0  0  0
    4.0203  -10.4585    0.0000 C   0  0  0  0  0  0  0  0  0  0  0  0
    5.4492  -12.9335    0.0000 O   0  0  0  0  0  0  0  0  0  0  0  0
    4.0203  -12.1085    0.0000 O   0  0  0  0  0  0  0  0  0  0  0  0
    6.8782  -12.1085    0.0000 O   0  0  0  0  0  0  0  0  0  0  0  0
    3.3058  -10.8710    0.0000 O   0  0  0  0  0  0  0  0  0  0  0  0
 21  1  1  0  0  0  0
 18  2  1  0  0  0  0
 16  3  1  0  0  0  0
 22 11  1  0  0  0  0
  8  5  1  0  0  0  0
  5  4  1  0  0  0  0
 11  6  2  0  0  0  0
  7  6  1  0  0  0  0
  8  7  2  0  0  0  0
  9  8  1  0  0  0  0
 10  9  2  0  0  0  0
 11 10  1  0  0  0  0
 20 12  2  0  0  0  0
 22 13  1  0  0  0  0
 14 13  1  0  0  0  0
 19 14  2  0  0  0  0
 15 14  1  0  0  0  0
 16 15  2  0  0  0  0
 17 16  1  0  0  0  0
 18 17  2  0  0  0  0
 19 18  1  0  0  0  0
 20 19  1  0  0  0  0
 21 20  1  0  0  0  0
 22 21  2  0  0  0  0
 23  1  1  1  0  0  0
 23 24  1  0  0  0  0
 24 25  1  0  0  0  0
 25 26  1  0  0  0  0
 26 27  1  0  0  0  0
 27 28  1  0  0  0  0
 28 23  1  0  0  0  0
 25 29  1  1  0  0  0
 27 30  1  1  0  0  0
 28 31  1  6  0  0  0
 26 32  1  6  0  0  0
 29 33  1  0  0  0  0
 34 33  1  1  0  0  0
 34 35  1  0  0  0  0
 35 36  1  0  0  0  0
 36 37  1  0  0  0  0
 37 38  1  0  0  0  0
 38 39  1  0  0  0  0
 39 34  1  0  0  0  0
 36 40  1  1  0  0  0
 38 41  1  1  0  0  0
 37 42  1  6  0  0  0
 39 43  1  6  0  0  0
 40 44  1  0  0  0  0
M  END
>  <cdx:groupId>
70

>  <cdx:fragmentId>
5

$$$$
