94353.cdx
  Mrv1902 05222410212D          

 26 32  0  0  0  0            999 V2000
    4.1781   -8.0162    0.0000 C   0  0  0  0  0  0  0  0  0  0  0  0
    4.1781   -8.8413    0.0000 C   0  0  0  0  0  0  0  0  0  0  0  0
    4.8925   -9.2538    0.0000 C   0  0  0  0  0  0  0  0  0  0  0  0
    5.6070   -8.8413    0.0000 C   0  0  0  0  0  0  0  0  0  0  0  0
    5.6070   -8.0162    0.0000 C   0  0  0  0  0  0  0  0  0  0  0  0
    4.8925   -7.6037    0.0000 C   0  0  0  0  0  0  0  0  0  0  0  0
    6.3916   -9.0962    0.0000 N   0  0  0  0  0  0  0  0  0  0  0  0
    6.8765   -8.4288    0.0000 C   0  0  0  0  0  0  0  0  0  0  0  0
    6.3916   -7.7613    0.0000 C   0  0  0  0  0  0  0  0  0  0  0  0
    7.6970   -8.3425    0.0000 C   0  0  0  0  0  0  0  0  0  0  0  0
    8.0326   -7.5888    0.0000 C   0  0  0  0  0  0  0  0  0  0  0  0
    7.5477   -6.9214    0.0000 C   0  0  0  0  0  0  0  0  0  0  0  0
    6.7272   -7.0076    0.0000 C   0  0  0  0  0  0  0  0  0  0  0  0
    8.0771   -9.0748    0.0000 C   0  0  0  0  0  0  0  0  0  0  0  0
    8.8865   -9.2342    0.0000 O   0  0  0  0  0  0  0  0  0  0  0  0
    9.5158   -8.7008    0.0000 C   0  0  0  0  0  0  0  0  0  0  0  0
    9.4912   -7.8761    0.0000 C   0  0  0  0  0  0  0  0  0  0  0  0
    8.8310   -7.3813    0.0000 C   0  0  0  0  0  0  0  0  0  0  0  0
    6.9750   -9.6796    0.0000 C   0  0  0  0  0  0  0  0  0  0  0  0
    7.8000   -9.6796    0.0000 C   0  0  0  0  0  0  0  0  0  0  0  0
    6.6593  -10.4418    0.0000 O   0  0  0  0  0  0  0  0  0  0  0  0
    8.8310   -6.5563    0.0000 C   0  0  0  0  0  0  0  0  0  0  0  0
    8.1166   -6.1438    0.0000 N   0  3  0  0  0  0  0  0  0  0  0  0
    5.8396   -7.1482    0.0000 C   0  0  0  0  0  0  0  0  0  0  0  0
    6.0531   -6.3513    0.0000 C   0  0  0  0  0  0  0  0  0  0  0  0
    8.6999   -5.5604    0.0000 C   0  0  0  0  0  0  0  0  0  0  0  0
  1  2  2  0  0  0  0
  2  3  1  0  0  0  0
  3  4  2  0  0  0  0
  4  5  1  0  0  0  0
  5  6  2  0  0  0  0
  6  1  1  0  0  0  0
  4  7  1  0  0  0  0
  7  8  1  0  0  0  0
  8  9  1  0  0  0  0
  9  5  1  0  0  0  0
  8 10  1  0  0  0  0
 10 11  1  0  0  0  0
 11 12  1  0  0  0  0
 12 13  1  0  0  0  0
 13  9  1  0  0  0  0
 10 14  1  0  0  0  0
 14 15  1  0  0  0  0
 15 16  1  0  0  0  0
 16 17  1  0  0  0  0
 17 18  2  0  0  0  0
 18 11  1  0  0  0  0
  7 19  1  0  0  0  0
 19 20  1  0  0  0  0
 20 14  1  0  0  0  0
 19 21  2  0  0  0  0
 18 22  1  0  0  0  0
 22 23  1  0  0  0  0
 13 23  1  0  0  0  0
  9 24  1  0  0  0  0
 24 25  1  0  0  0  0
 25 23  1  0  0  0  0
 23 26  1  0  0  0  0
M  CHG  1  23   1
M  END
>  <cdx:fragmentId>
5

$$$$
