94358.cdx
  Mrv1902 05222410232D          

 32 34  0  0  0  0            999 V2000
    7.9038   -6.6005    0.0000 C   0  0  0  0  0  0  0  0  0  0  0  0
    7.4913   -5.8861    0.0000 C   0  0  0  0  0  0  0  0  0  0  0  0
    4.1913   -5.8861    0.0000 O   0  0  0  0  0  0  0  0  0  0  0  0
    6.2538   -6.6005    0.0000 C   0  0  0  0  0  0  0  0  0  0  0  0
    6.6663   -5.8861    0.0000 C   0  0  0  0  0  0  0  0  0  0  0  0
    6.2538   -5.1716    0.0000 C   0  0  0  0  0  0  0  0  0  0  0  0
    5.4288   -5.1716    0.0000 C   0  0  0  0  0  0  0  0  0  0  0  0
    5.0163   -5.8861    0.0000 C   0  0  0  0  0  0  0  0  0  0  0  0
    5.4288   -6.6005    0.0000 C   0  0  0  0  0  0  0  0  0  0  0  0
    8.7288   -6.6005    0.0000 C   0  0  0  0  0  0  0  0  0  0  0  0
    9.1413   -7.3150    0.0000 C   0  0  0  0  0  0  0  0  0  0  0  0
    9.9663   -7.3150    0.0000 C   0  0  0  0  0  0  0  0  0  0  0  0
   10.3788   -6.6005    0.0000 C   0  0  0  0  0  0  0  0  0  0  0  0
    9.9663   -5.8861    0.0000 C   0  0  0  0  0  0  0  0  0  0  0  0
    9.1413   -5.8861    0.0000 C   0  0  0  0  0  0  0  0  0  0  0  0
   10.3788   -5.1716    0.0000 O   0  0  0  0  0  0  0  0  0  0  0  0
    8.7288   -8.0295    0.0000 O   0  0  0  0  0  0  0  0  0  0  0  0
   10.3788   -8.0295    0.0000 O   0  0  0  0  0  0  0  0  0  0  0  0
    8.0149   -8.4430    0.0000 C   0  0  2  0  0  0  0  0  0  0  0  0
    7.2998   -8.0315    0.0000 O   0  0  0  0  0  0  0  0  0  0  0  0
    6.5860   -8.4451    0.0000 C   0  0  1  0  0  0  0  0  0  0  0  0
    6.5872   -9.2701    0.0000 C   0  0  2  0  0  0  0  0  0  0  0  0
    7.3022   -9.6815    0.0000 C   0  0  1  0  0  0  0  0  0  0  0  0
    8.0161   -9.2680    0.0000 C   0  0  1  0  0  0  0  0  0  0  0  0
    5.8709   -8.0336    0.0000 C   0  0  0  0  0  0  0  0  0  0  0  0
    7.3034  -10.5065    0.0000 O   0  0  0  0  0  0  0  0  0  0  0  0
    8.7312   -9.6795    0.0000 O   0  0  0  0  0  0  0  0  0  0  0  0
    5.8733   -9.6836    0.0000 O   0  0  0  0  0  0  0  0  0  0  0  0
    5.1570   -8.4472    0.0000 O   0  0  0  0  0  0  0  0  0  0  0  0
    4.4420   -8.0357    0.0000 C   0  0  0  0  0  0  0  0  0  0  0  0
    3.7281   -8.4492    0.0000 C   0  0  0  0  0  0  0  0  0  0  0  0
    4.4408   -7.2107    0.0000 O   0  0  0  0  0  0  0  0  0  0  0  0
  2  1  2  0  0  0  0
  5  2  1  0  0  0  0
  8  3  1  0  0  0  0
  4  9  1  0  0  0  0
  5  4  2  0  0  0  0
  6  5  1  0  0  0  0
  7  6  2  0  0  0  0
  8  7  1  0  0  0  0
  9  8  2  0  0  0  0
  1 10  1  0  0  0  0
 10 11  2  0  0  0  0
 11 12  1  0  0  0  0
 12 13  2  0  0  0  0
 13 14  1  0  0  0  0
 14 15  2  0  0  0  0
 15 10  1  0  0  0  0
 14 16  1  0  0  0  0
 11 17  1  0  0  0  0
 12 18  1  0  0  0  0
 19 17  1  1  0  0  0
 19 20  1  0  0  0  0
 20 21  1  0  0  0  0
 21 22  1  0  0  0  0
 22 23  1  0  0  0  0
 23 24  1  0  0  0  0
 24 19  1  0  0  0  0
 21 25  1  1  0  0  0
 23 26  1  1  0  0  0
 24 27  1  6  0  0  0
 22 28  1  6  0  0  0
 25 29  1  0  0  0  0
 29 30  1  0  0  0  0
 30 31  1  0  0  0  0
 30 32  2  0  0  0  0
M  END
>  <cdx:fragmentId>
5

$$$$
