94355.cdx
  Mrv1902 05222410232D          

 24 27  0  0  0  0            999 V2000
    6.1718   -7.6224    0.0000 C   0  0  0  0  0  0  0  0  0  0  0  0
    6.1731   -6.7974    0.0000 O   0  0  0  0  0  0  0  0  0  0  0  0
    6.8876   -6.3849    0.0000 C   0  0  0  0  0  0  0  0  0  0  0  0
    7.6007   -6.7974    0.0000 C   0  0  0  0  0  0  0  0  0  0  0  0
    8.3152   -6.3849    0.0000 C   0  0  0  0  0  0  0  0  0  0  0  0
    9.0297   -6.7974    0.0000 C   0  0  0  0  0  0  0  0  0  0  0  0
    9.0297   -7.6224    0.0000 C   0  0  0  0  0  0  0  0  0  0  0  0
    8.3152   -8.0349    0.0000 C   0  0  0  0  0  0  0  0  0  0  0  0
    8.3152   -8.8599    0.0000 O   0  0  0  0  0  0  0  0  0  0  0  0
    7.6007   -9.2724    0.0000 C   0  0  0  0  0  0  0  0  0  0  0  0
    6.8863   -8.8599    0.0000 C   0  0  0  0  0  0  0  0  0  0  0  0
    6.1718   -9.2724    0.0000 C   0  0  0  0  0  0  0  0  0  0  0  0
    5.4573   -8.8599    0.0000 C   0  0  0  0  0  0  0  0  0  0  0  0
    5.4573   -8.0349    0.0000 C   0  0  0  0  0  0  0  0  0  0  0  0
    6.8863   -8.0349    0.0000 C   0  0  0  0  0  0  0  0  0  0  0  0
    7.6007   -7.6224    0.0000 C   0  0  0  0  0  0  0  0  0  0  0  0
    6.8876   -5.5599    0.0000 O   0  0  0  0  0  0  0  0  0  0  0  0
    7.6007  -10.0974    0.0000 O   0  0  0  0  0  0  0  0  0  0  0  0
    4.7429   -7.6224    0.0000 O   0  0  0  0  0  0  0  0  0  0  0  0
    4.0284   -8.0349    0.0000 C   0  0  0  0  0  0  0  0  0  0  0  0
    9.7441   -8.0349    0.0000 O   0  0  0  0  0  0  0  0  0  0  0  0
   10.4586   -7.6224    0.0000 C   0  0  0  0  0  0  0  0  0  0  0  0
    4.7429   -9.2724    0.0000 O   0  0  0  0  0  0  0  0  0  0  0  0
    9.7441   -6.3849    0.0000 O   0  0  0  0  0  0  0  0  0  0  0  0
  1  2  1  0  0  0  0
  2  3  1  0  0  0  0
  3  4  1  0  0  0  0
  4  5  2  0  0  0  0
  5  6  1  0  0  0  0
  6  7  2  0  0  0  0
  7  8  1  0  0  0  0
  8  9  1  0  0  0  0
  9 10  1  0  0  0  0
 10 11  1  0  0  0  0
 11 12  2  0  0  0  0
 12 13  1  0  0  0  0
 13 14  2  0  0  0  0
 15 16  1  0  0  0  0
  1 14  1  0  0  0  0
  1 15  2  0  0  0  0
 16  8  2  0  0  0  0
 11 15  1  0  0  0  0
  4 16  1  0  0  0  0
  3 17  2  0  0  0  0
 10 18  2  0  0  0  0
 19 20  1  0  0  0  0
 14 19  1  0  0  0  0
 21 22  1  0  0  0  0
  7 21  1  0  0  0  0
 13 23  1  0  0  0  0
  6 24  1  0  0  0  0
M  END
>  <cdx:fragmentId>
5962

$$$$
