94354.cdx
  Mrv1902 05222410232D          

 30 36  0  0  0  0            999 V2000
    4.5493   -8.2225    0.0000 C   0  0  0  0  0  0  0  0  0  0  0  0
    4.5493   -9.0475    0.0000 C   0  0  0  0  0  0  0  0  0  0  0  0
    5.2638   -9.4600    0.0000 C   0  0  0  0  0  0  0  0  0  0  0  0
    5.9782   -9.0475    0.0000 C   0  0  0  0  0  0  0  0  0  0  0  0
    5.9782   -8.2225    0.0000 C   0  0  0  0  0  0  0  0  0  0  0  0
    5.2638   -7.8100    0.0000 C   0  0  0  0  0  0  0  0  0  0  0  0
    6.7629   -9.3024    0.0000 N   0  0  0  0  0  0  0  0  0  0  0  0
    7.2478   -8.6350    0.0000 C   0  0  0  0  0  0  0  0  0  0  0  0
    6.7629   -7.9676    0.0000 C   0  0  0  0  0  0  0  0  0  0  0  0
    8.0683   -8.5488    0.0000 C   0  0  0  0  0  0  0  0  0  0  0  0
    8.4038   -7.7951    0.0000 C   0  0  0  0  0  0  0  0  0  0  0  0
    7.9189   -7.1276    0.0000 C   0  0  0  0  0  0  0  0  0  0  0  0
    7.0984   -7.2139    0.0000 C   0  0  0  0  0  0  0  0  0  0  0  0
    8.4483   -9.2810    0.0000 C   0  0  0  0  0  0  0  0  0  0  0  0
    9.2577   -9.4405    0.0000 O   0  0  0  0  0  0  0  0  0  0  0  0
    9.8871   -8.9070    0.0000 C   0  0  0  0  0  0  0  0  0  0  0  0
    9.8624   -8.0824    0.0000 C   0  0  0  0  0  0  0  0  0  0  0  0
    9.2023   -7.5875    0.0000 C   0  0  0  0  0  0  0  0  0  0  0  0
    7.3462   -9.8858    0.0000 C   0  0  0  0  0  0  0  0  0  0  0  0
    8.1712   -9.8858    0.0000 C   0  0  0  0  0  0  0  0  0  0  0  0
    7.0305  -10.6480    0.0000 O   0  0  0  0  0  0  0  0  0  0  0  0
    9.2023   -6.7625    0.0000 C   0  0  0  0  0  0  0  0  0  0  0  0
    8.4878   -6.3500    0.0000 N   0  3  0  0  0  0  0  0  0  0  0  0
    6.2108   -7.3545    0.0000 C   0  0  0  0  0  0  0  0  0  0  0  0
    6.4244   -6.5576    0.0000 C   0  0  0  0  0  0  0  0  0  0  0  0
    9.0712   -5.7667    0.0000 C   0  0  0  0  0  0  0  0  0  0  0  0
    3.8348   -7.8100    0.0000 O   0  0  0  0  0  0  0  0  0  0  0  0
    3.1204   -8.2225    0.0000 C   0  0  0  0  0  0  0  0  0  0  0  0
    3.8348   -9.4600    0.0000 O   0  0  0  0  0  0  0  0  0  0  0  0
    3.8348  -10.2850    0.0000 C   0  0  0  0  0  0  0  0  0  0  0  0
  1  2  2  0  0  0  0
  2  3  1  0  0  0  0
  3  4  2  0  0  0  0
  4  5  1  0  0  0  0
  5  6  2  0  0  0  0
  6  1  1  0  0  0  0
  4  7  1  0  0  0  0
  7  8  1  0  0  0  0
  8  9  1  0  0  0  0
  9  5  1  0  0  0  0
  8 10  1  0  0  0  0
 10 11  1  0  0  0  0
 11 12  1  0  0  0  0
 12 13  1  0  0  0  0
 13  9  1  0  0  0  0
 10 14  1  0  0  0  0
 14 15  1  0  0  0  0
 15 16  1  0  0  0  0
 16 17  1  0  0  0  0
 17 18  2  0  0  0  0
 18 11  1  0  0  0  0
  7 19  1  0  0  0  0
 19 20  1  0  0  0  0
 20 14  1  0  0  0  0
 19 21  2  0  0  0  0
 18 22  1  0  0  0  0
 22 23  1  0  0  0  0
 13 23  1  0  0  0  0
  9 24  1  0  0  0  0
 24 25  1  0  0  0  0
 25 23  1  0  0  0  0
 23 26  1  0  0  0  0
  1 27  1  0  0  0  0
 27 28  1  0  0  0  0
  2 29  1  0  0  0  0
 29 30  1  0  0  0  0
M  CHG  1  23   1
M  END
>  <cdx:fragmentId>
5

$$$$
