94351.cdx
  Mrv1902 05222410212D          

 12 11  0  0  0  0            999 V2000
    9.8458   -8.6710    0.0000 C   0  0  0  0  0  0  0  0  0  0  0  0
    9.1313   -8.2585    0.0000 C   0  0  0  0  0  0  0  0  0  0  0  0
    8.4168   -8.6710    0.0000 C   0  0  0  0  0  0  0  0  0  0  0  0
    7.7024   -8.2585    0.0000 C   0  0  0  0  0  0  0  0  0  0  0  0
    6.9879   -8.6710    0.0000 C   0  0  0  0  0  0  0  0  0  0  0  0
    6.2734   -8.2585    0.0000 C   0  0  0  0  0  0  0  0  0  0  0  0
    5.5590   -8.6710    0.0000 C   0  0  0  0  0  0  0  0  0  0  0  0
    9.1313   -7.4335    0.0000 O   0  0  0  0  0  0  0  0  0  0  0  0
    8.4168   -9.4960    0.0000 O   0  0  0  0  0  0  0  0  0  0  0  0
    4.8445   -8.2585    0.0000 O   0  0  0  0  0  0  0  0  0  0  0  0
    6.2734   -7.4335    0.0000 O   0  0  0  0  0  0  0  0  0  0  0  0
    6.9879   -9.4960    0.0000 O   0  0  0  0  0  0  0  0  0  0  0  0
  1  2  1  0  0  0  0
  2  3  1  0  0  0  0
  3  4  1  0  0  0  0
  4  5  1  0  0  0  0
  5  6  1  0  0  0  0
  6  7  1  0  0  0  0
  2  8  2  0  0  0  0
  3  9  2  0  0  0  0
  7 10  1  0  0  0  0
  6 11  1  0  0  0  0
  5 12  1  0  0  0  0
M  END
>  <cdx:groupId>
37

>  <cdx:fragmentId>
5

$$$$
