94352.cdx
  Mrv1902 05222410212D          

 10  9  0  0  0  0            999 V2000
    8.6246   -8.2585    0.0000 C   0  0  0  0  0  0  0  0  0  0  0  0
    7.9101   -8.6710    0.0000 C   0  0  0  0  0  0  0  0  0  0  0  0
    7.1956   -8.2585    0.0000 C   0  0  0  0  0  0  0  0  0  0  0  0
    6.4812   -8.6710    0.0000 C   0  0  0  0  0  0  0  0  0  0  0  0
    5.7667   -8.2585    0.0000 C   0  0  0  0  0  0  0  0  0  0  0  0
    8.6246   -7.4335    0.0000 O   0  0  0  0  0  0  0  0  0  0  0  0
    9.3391   -8.6710    0.0000 O   0  0  0  0  0  0  0  0  0  0  0  0
    5.7667   -7.4335    0.0000 O   0  0  0  0  0  0  0  0  0  0  0  0
    5.0522   -8.6710    0.0000 O   0  0  0  0  0  0  0  0  0  0  0  0
    7.9101   -9.4960    0.0000 O   0  0  0  0  0  0  0  0  0  0  0  0
  1  2  1  0  0  0  0
  2  3  1  0  0  0  0
  3  4  1  0  0  0  0
  4  5  1  0  0  0  0
  1  6  2  0  0  0  0
  1  7  1  0  0  0  0
  5  8  2  0  0  0  0
  5  9  1  0  0  0  0
  2 10  1  0  0  0  0
M  END
>  <cdx:groupId>
125

>  <cdx:fragmentId>
99

$$$$
