94350.cdx
  Mrv1902 05222410212D          

 13 13  0  0  0  0            999 V2000
    4.6912   -8.1750    0.0000 C   0  0  0  0  0  0  0  0  0  0  0  0
    5.4057   -8.5875    0.0000 C   0  0  0  0  0  0  0  0  0  0  0  0
    6.1202   -8.1750    0.0000 C   0  0  0  0  0  0  0  0  0  0  0  0
    6.8347   -8.5875    0.0000 C   0  0  0  0  0  0  0  0  0  0  0  0
    7.5491   -8.1750    0.0000 C   0  0  0  0  0  0  0  0  0  0  0  0
    3.9768   -8.5875    0.0000 O   0  0  0  0  0  0  0  0  0  0  0  0
    7.5491   -7.3500    0.0000 O   0  0  0  0  0  0  0  0  0  0  0  0
    9.1568   -9.5795    0.0000 O   0  0  0  0  0  0  0  0  0  0  0  0
    8.3498   -9.4080    0.0000 C   0  0  0  0  0  0  0  0  0  0  0  0
    8.2636   -8.5875    0.0000 C   0  0  0  0  0  0  0  0  0  0  0  0
    9.0173   -8.2519    0.0000 C   0  0  0  0  0  0  0  0  0  0  0  0
    9.5693   -8.8650    0.0000 C   0  0  0  0  0  0  0  0  0  0  0  0
   10.3898   -8.7788    0.0000 O   0  0  0  0  0  0  0  0  0  0  0  0
  1  2  1  0  0  0  0
  2  3  2  0  0  0  0
  3  4  1  0  0  0  0
  4  5  1  0  0  0  0
  1  6  2  0  0  0  0
  5  7  1  0  0  0  0
  8  9  1  0  0  0  0
  9 10  1  0  0  0  0
 10 11  2  0  0  0  0
 11 12  1  0  0  0  0
  8 12  1  0  0  0  0
 12 13  2  0  0  0  0
  5 10  1  0  0  0  0
M  END
>  <cdx:groupId>
41

>  <cdx:fragmentId>
5

$$$$
