94362.cdx
  Mrv1902 05222410252D          

 22 24  0  0  0  0            999 V2000
    5.4568   -6.7925    0.0000 C   0  0  0  0  0  0  0  0  0  0  0  0
    5.4568   -7.6175    0.0000 C   0  0  0  0  0  0  0  0  0  0  0  0
    6.1713   -8.0300    0.0000 C   0  0  0  0  0  0  0  0  0  0  0  0
    6.8857   -7.6175    0.0000 C   0  0  0  0  0  0  0  0  0  0  0  0
    6.8857   -6.7925    0.0000 C   0  0  0  0  0  0  0  0  0  0  0  0
    6.1713   -6.3800    0.0000 C   0  0  0  0  0  0  0  0  0  0  0  0
    7.6002   -8.0300    0.0000 C   0  0  0  0  0  0  0  0  0  0  0  0
    8.3147   -7.6175    0.0000 C   0  0  0  0  0  0  0  0  0  0  0  0
    8.3147   -6.7925    0.0000 C   0  0  0  0  0  0  0  0  0  0  0  0
    7.6002   -6.3800    0.0000 C   0  0  0  0  0  0  0  0  0  0  0  0
    9.0292   -8.0300    0.0000 C   0  0  0  0  0  0  0  0  0  0  0  0
    9.7436   -7.6175    0.0000 C   0  0  0  0  0  0  0  0  0  0  0  0
    9.7436   -6.7925    0.0000 C   0  0  0  0  0  0  0  0  0  0  0  0
    9.0292   -6.3800    0.0000 C   0  0  0  0  0  0  0  0  0  0  0  0
    4.7423   -8.0300    0.0000 C   0  0  0  0  0  0  0  0  0  0  0  0
    6.1713   -5.5550    0.0000 O   0  0  0  0  0  0  0  0  0  0  0  0
    7.6002   -5.5550    0.0000 O   0  0  0  0  0  0  0  0  0  0  0  0
    7.6002   -8.8550    0.0000 O   0  0  0  0  0  0  0  0  0  0  0  0
    9.0292   -5.5550    0.0000 O   0  0  0  0  0  0  0  0  0  0  0  0
   10.4581   -8.0300    0.0000 O   0  0  0  0  0  0  0  0  0  0  0  0
    4.0279   -7.6175    0.0000 O   0  0  0  0  0  0  0  0  0  0  0  0
    4.7423   -8.8550    0.0000 O   0  0  0  0  0  0  0  0  0  0  0  0
  1  2  2  0  0  0  0
  2  3  1  0  0  0  0
  3  4  2  0  0  0  0
  4  5  1  0  0  0  0
  5  6  2  0  0  0  0
  6  1  1  0  0  0  0
  4  7  1  0  0  0  0
  7  8  1  0  0  0  0
  8  9  2  0  0  0  0
  9 10  1  0  0  0  0
 10  5  1  0  0  0  0
  8 11  1  0  0  0  0
 11 12  2  0  0  0  0
 12 13  1  0  0  0  0
 13 14  2  0  0  0  0
 14  9  1  0  0  0  0
  2 15  1  0  0  0  0
  6 16  1  0  0  0  0
 10 17  2  0  0  0  0
  7 18  2  0  0  0  0
 14 19  1  0  0  0  0
 12 20  1  0  0  0  0
 15 21  1  0  0  0  0
 15 22  2  0  0  0  0
M  END
>  <cdx:fragmentId>
5

$$$$
