94369.cdx
  Mrv1902 05222410232D          

 53 57  0  0  0  0            999 V2000
   14.3954  -10.6749    0.0000 C   0  0  0  0  0  0  0  0  0  0  0  0
   14.3954  -11.4999    0.0000 C   0  0  1  0  0  0  0  0  0  0  0  0
   15.1099  -11.9124    0.0000 C   0  0  0  0  0  0  0  0  0  0  0  0
   15.8243  -11.4999    0.0000 C   0  0  2  0  0  0  0  0  0  0  0  0
   15.8243  -10.6749    0.0000 C   0  0  2  0  0  0  0  0  0  0  0  0
   15.1099  -10.2624    0.0000 C   0  0  1  0  0  0  0  0  0  0  0  0
   16.5388  -11.9124    0.0000 C   0  0  0  0  0  0  0  0  0  0  0  0
   17.2533  -11.4999    0.0000 C   0  0  0  0  0  0  0  0  0  0  0  0
   17.2533  -10.6749    0.0000 C   0  0  2  0  0  0  0  0  0  0  0  0
   16.5388  -10.2624    0.0000 C   0  0  2  0  0  0  0  0  0  0  0  0
   17.9677  -10.2624    0.0000 C   0  0  2  0  0  0  0  0  0  0  0  0
   17.9677   -9.4374    0.0000 C   0  0  2  0  0  0  0  0  0  0  0  0
   17.2533   -9.0249    0.0000 C   0  0  1  0  0  0  0  0  0  0  0  0
   16.5388   -9.4374    0.0000 C   0  0  0  0  0  0  0  0  0  0  0  0
   18.7524  -10.5173    0.0000 C   0  0  0  0  0  0  0  0  0  0  0  0
   19.2373   -9.8499    0.0000 C   0  0  2  0  0  0  0  0  0  0  0  0
   18.7524   -9.1825    0.0000 C   0  0  2  0  0  0  0  0  0  0  0  0
   19.0073   -8.3978    0.0000 C   0  0  0  0  0  0  0  0  0  0  0  0
   19.8143   -8.2263    0.0000 C   0  0  0  0  0  0  0  0  0  0  0  0
   18.4553   -7.7847    0.0000 C   0  0  0  0  0  0  0  0  0  0  0  0
   20.0692   -7.4417    0.0000 C   0  0  0  0  0  0  0  0  0  0  0  0
   18.7102   -7.0001    0.0000 O   0  0  0  0  0  0  0  0  0  0  0  0
   19.5172   -6.8286    0.0000 C   0  0  0  0  0  0  0  0  0  0  0  0
   19.7721   -6.0440    0.0000 O   0  0  0  0  0  0  0  0  0  0  0  0
   13.6809  -11.9124    0.0000 O   0  0  0  0  0  0  0  0  0  0  0  0
   15.8243   -9.8499    0.0000 C   0  0  0  0  0  0  0  0  0  0  0  0
   15.8243  -12.3249    0.0000 H   0  0  0  0  0  0  0  0  0  0  0  0
   17.2533   -8.1999    0.0000 O   0  0  0  0  0  0  0  0  0  0  0  0
   18.0540   -8.6169    0.0000 C   0  0  0  0  0  0  0  0  0  0  0  0
   20.0623   -9.8499    0.0000 H   0  0  0  0  0  0  0  0  0  0  0  0
   18.0540  -11.0829    0.0000 O   0  0  0  0  0  0  0  0  0  0  0  0
   15.8243   -9.0249    0.0000 O   0  0  0  0  0  0  0  0  0  0  0  0
   15.1099   -9.4374    0.0000 H   0  0  0  0  0  0  0  0  0  0  0  0
   12.9664  -11.4999    0.0000 C   0  0  0  0  0  0  0  0  0  0  0  0
   12.2520  -11.9124    0.0000 C   0  0  0  0  0  0  0  0  0  0  0  0
   12.9664  -10.6749    0.0000 O   0  0  0  0  0  0  0  0  0  0  0  0
   11.5375  -11.4999    0.0000 C   0  0  0  0  0  0  0  0  0  0  0  0
   10.8230  -11.9124    0.0000 C   0  0  0  0  0  0  0  0  0  0  0  0
   10.1086  -11.4999    0.0000 N   0  0  0  0  0  0  0  0  0  0  0  0
   10.8230  -12.7374    0.0000 O   0  0  0  0  0  0  0  0  0  0  0  0
    9.3941  -11.9124    0.0000 C   0  0  2  0  0  0  0  0  0  0  0  0
    8.6796  -11.4999    0.0000 C   0  0  0  0  0  0  0  0  0  0  0  0
    7.9651  -11.9124    0.0000 O   0  0  0  0  0  0  0  0  0  0  0  0
    8.6796  -10.6749    0.0000 O   0  0  0  0  0  0  0  0  0  0  0  0
    9.3941  -12.7374    0.0000 C   0  0  0  0  0  0  0  0  0  0  0  0
    8.6796  -13.1499    0.0000 C   0  0  0  0  0  0  0  0  0  0  0  0
    8.6796  -13.9749    0.0000 C   0  0  0  0  0  0  0  0  0  0  0  0
    7.9651  -14.3874    0.0000 N   0  0  0  0  0  0  0  0  0  0  0  0
    7.9651  -15.2124    0.0000 C   0  0  0  0  0  0  0  0  0  0  0  0
    8.6796  -15.6249    0.0000 N   0  0  0  0  0  0  0  0  0  0  0  0
    7.2507  -15.6249    0.0000 N   0  0  0  0  0  0  0  0  0  0  0  0
   16.5388  -11.0874    0.0000 H   0  0  0  0  0  0  0  0  0  0  0  0
   17.2533   -9.8499    0.0000 H   0  0  0  0  0  0  0  0  0  0  0  0
  1  2  1  0  0  0  0
  2  3  1  0  0  0  0
  3  4  1  0  0  0  0
  4  5  1  0  0  0  0
  5  6  1  0  0  0  0
  6  1  1  0  0  0  0
  4  7  1  0  0  0  0
  7  8  1  0  0  0  0
  8  9  1  0  0  0  0
  9 10  1  0  0  0  0
 10  5  1  0  0  0  0
  9 11  1  0  0  0  0
 11 12  1  0  0  0  0
 12 13  1  0  0  0  0
 13 14  1  0  0  0  0
 14 10  1  0  0  0  0
 11 15  1  0  0  0  0
 15 16  1  0  0  0  0
 16 17  1  0  0  0  0
 17 12  1  0  0  0  0
 17 18  1  1  0  0  0
 18 19  1  0  0  0  0
 18 20  2  0  0  0  0
 19 21  2  0  0  0  0
 20 22  1  0  0  0  0
 21 23  1  0  0  0  0
 22 23  1  0  0  0  0
 23 24  2  0  0  0  0
  2 25  1  1  0  0  0
  5 26  1  1  0  0  0
  4 27  1  1  0  0  0
 12 29  1  1  0  0  0
 16 30  1  1  0  0  0
 11 31  1  1  0  0  0
 14 32  2  0  0  0  0
 13 28  1  1  0  0  0
  6 33  1  1  0  0  0
 25 34  1  0  0  0  0
 34 35  1  0  0  0  0
 34 36  2  0  0  0  0
 35 37  1  0  0  0  0
 37 38  1  0  0  0  0
 38 39  1  0  0  0  0
 38 40  2  0  0  0  0
 41 39  1  1  0  0  0
 41 42  1  0  0  0  0
 42 43  1  0  0  0  0
 42 44  2  0  0  0  0
 41 45  1  0  0  0  0
 45 46  1  0  0  0  0
 46 47  1  0  0  0  0
 47 48  1  0  0  0  0
 48 49  2  0  0  0  0
 49 50  1  0  0  0  0
 49 51  1  0  0  0  0
 10 52  1  6  0  0  0
  9 53  1  1  0  0  0
M  END
>  <cdx:fragmentId>
5

$$$$
