94361.cdx
  Mrv1902 05222410252D          

 30 32  0  0  0  0            999 V2000
    5.8002   -9.0911    0.0000 O   0  0  0  0  0  0  0  0  0  0  0  0
    5.1076   -7.8413    0.0000 C   0  0  0  0  0  0  0  0  0  0  0  0
    5.8147   -8.2663    0.0000 C   0  0  0  0  0  0  0  0  0  0  0  0
    5.8438   -6.6165    0.0000 C   0  0  0  0  0  0  0  0  0  0  0  0
    7.2290   -9.1162    0.0000 O   0  0  0  0  0  0  0  0  0  0  0  0
    8.6577   -9.1414    0.0000 O   0  0  0  0  0  0  0  0  0  0  0  0
   10.8370   -7.1169    0.0000 C   0  0  0  0  0  0  0  0  0  0  0  0
   10.1299   -6.6919    0.0000 O   0  0  0  0  0  0  0  0  0  0  0  0
    8.7157   -5.8419    0.0000 O   0  0  0  0  0  0  0  0  0  0  0  0
    7.2725   -6.6416    0.0000 C   0  0  0  0  0  0  0  0  0  0  0  0
    6.5509   -7.0415    0.0000 C   0  0  0  0  0  0  0  0  0  0  0  0
    6.5364   -7.8664    0.0000 C   0  0  0  0  0  0  0  0  0  0  0  0
    7.2435   -8.2914    0.0000 C   0  0  0  0  0  0  0  0  0  0  0  0
    8.7012   -6.6668    0.0000 C   0  0  0  0  0  0  0  0  0  0  0  0
    7.9796   -7.0666    0.0000 C   0  0  0  0  0  0  0  0  0  0  0  0
    7.9651   -7.8915    0.0000 C   0  0  0  0  0  0  0  0  0  0  0  0
    8.6722   -8.3165    0.0000 C   0  0  0  0  0  0  0  0  0  0  0  0
    9.3938   -7.9166    0.0000 C   0  0  0  0  0  0  0  0  0  0  0  0
    9.4083   -7.0917    0.0000 C   0  0  0  0  0  0  0  0  0  0  0  0
    6.8057   -9.8244    0.0000 C   0  0  2  0  0  0  0  0  0  0  0  0
    5.9808   -9.8120    0.0000 O   0  0  0  0  0  0  0  0  0  0  0  0
    5.5576  -10.5202    0.0000 C   0  0  1  0  0  0  0  0  0  0  0  0
    5.9593  -11.2408    0.0000 C   0  0  2  0  0  0  0  0  0  0  0  0
    6.7842  -11.2532    0.0000 C   0  0  1  0  0  0  0  0  0  0  0  0
    7.2074  -10.5450    0.0000 C   0  0  1  0  0  0  0  0  0  0  0  0
    4.7327  -10.5077    0.0000 C   0  0  0  0  0  0  0  0  0  0  0  0
    7.1859  -11.9738    0.0000 O   0  0  0  0  0  0  0  0  0  0  0  0
    8.0323  -10.5575    0.0000 O   0  0  0  0  0  0  0  0  0  0  0  0
    5.5361  -11.9489    0.0000 O   0  0  0  0  0  0  0  0  0  0  0  0
    4.3095  -11.2159    0.0000 O   0  0  0  0  0  0  0  0  0  0  0  0
  3  1  2  0  0  0  0
  3  2  1  0  0  0  0
 12  3  1  0  0  0  0
 11  4  1  0  0  0  0
 13  5  1  0  0  0  0
 17  6  2  0  0  0  0
  8  7  1  0  0  0  0
 19  8  1  0  0  0  0
 14  9  2  0  0  0  0
 10 15  1  0  0  0  0
 11 10  2  0  0  0  0
 12 11  1  0  0  0  0
 13 12  2  0  0  0  0
 16 13  1  0  0  0  0
 14 19  1  0  0  0  0
 15 14  1  0  0  0  0
 16 15  2  0  0  0  0
 17 16  1  0  0  0  0
 18 17  1  0  0  0  0
 19 18  2  0  0  0  0
 20  5  1  1  0  0  0
 20 21  1  0  0  0  0
 21 22  1  0  0  0  0
 22 23  1  0  0  0  0
 23 24  1  0  0  0  0
 24 25  1  0  0  0  0
 25 20  1  0  0  0  0
 22 26  1  1  0  0  0
 24 27  1  1  0  0  0
 25 28  1  6  0  0  0
 23 29  1  6  0  0  0
 26 30  1  0  0  0  0
M  END
>  <cdx:fragmentId>
5

$$$$
