94363.cdx
  Mrv1902 05222410252D          

 75 80  0  0  0  0            999 V2000
    2.5424   -9.3415    0.0000 C   0  0  1  0  0  0  0  0  0  0  0  0
    2.5385  -10.0015    0.0000 C   0  0  1  0  0  0  0  0  0  0  0  0
    3.1081  -10.3348    0.0000 C   0  0  2  0  0  0  0  0  0  0  0  0
    3.6816  -10.0082    0.0000 C   0  0  1  0  0  0  0  0  0  0  0  0
    3.6855   -9.3482    0.0000 C   0  0  2  0  0  0  0  0  0  0  0  0
    3.1159   -9.0149    0.0000 O   0  0  0  0  0  0  0  0  0  0  0  0
    4.2512  -10.3416    0.0000 O   0  0  0  0  0  0  0  0  0  0  0  0
    4.8286   -9.3549    0.0000 O   0  0  0  0  0  0  0  0  0  0  0  0
    4.2590   -9.0216    0.0000 C   0  0  0  0  0  0  0  0  0  0  0  0
    3.1198   -8.3549    0.0000 C   0  0  0  0  0  0  0  0  0  0  0  0
    2.5501   -8.0215    0.0000 C   0  0  0  0  0  0  0  0  0  0  0  0
    1.9766   -8.3481    0.0000 C   0  0  1  0  0  0  0  0  0  0  0  0
    1.9727   -9.0081    0.0000 O   0  0  0  0  0  0  0  0  0  0  0  0
    2.5540   -7.3615    0.0000 C   0  0  1  0  0  0  0  0  0  0  0  0
    1.9844   -7.0282    0.0000 C   0  0  0  0  0  0  0  0  0  0  0  0
    1.4109   -7.3548    0.0000 C   0  0  0  0  0  0  0  0  0  0  0  0
    1.4070   -8.0148    0.0000 O   0  0  0  0  0  0  0  0  0  0  0  0
    3.6933   -8.0282    0.0000 C   0  0  0  0  0  0  0  0  0  0  0  0
    3.1275   -7.0349    0.0000 C   0  0  0  0  0  0  0  0  0  0  0  0
    3.7875   -7.0388    0.0000 C   0  0  0  0  0  0  0  0  0  0  0  0
    4.1141   -7.6123    0.0000 O   0  0  0  0  0  0  0  0  0  0  0  0
    3.7914   -6.3788    0.0000 O   0  0  0  0  0  0  0  0  0  0  0  0
    4.3649   -6.0522    0.0000 C   0  0  0  0  0  0  0  0  0  0  0  0
    4.9345   -6.3855    0.0000 C   0  0  0  0  0  0  0  0  0  0  0  0
    5.5080   -6.0589    0.0000 C   0  0  0  0  0  0  0  0  0  0  0  0
    5.5119   -5.3989    0.0000 C   0  0  0  0  0  0  0  0  0  0  0  0
    4.9423   -5.0655    0.0000 C   0  0  0  0  0  0  0  0  0  0  0  0
    4.3688   -5.3922    0.0000 C   0  0  0  0  0  0  0  0  0  0  0  0
    6.6550   -5.4056    0.0000 C   0  0  0  0  0  0  0  0  0  0  0  0
    6.0854   -5.0723    0.0000 C   0  0  0  0  0  0  0  0  0  0  0  0
    7.2208   -6.3990    0.0000 O   0  0  0  0  0  0  0  0  0  0  0  0
    7.7943   -6.0723    0.0000 C   0  0  1  0  0  0  0  0  0  0  0  0
    7.7982   -5.4123    0.0000 C   0  0  2  0  0  0  0  0  0  0  0  0
    7.2286   -5.0790    0.0000 O   0  0  0  0  0  0  0  0  0  0  0  0
    8.3639   -6.4057    0.0000 C   0  0  2  0  0  0  0  0  0  0  0  0
    8.9374   -6.0791    0.0000 C   0  0  1  0  0  0  0  0  0  0  0  0
    8.9413   -5.4191    0.0000 C   0  0  2  0  0  0  0  0  0  0  0  0
    8.3717   -5.0857    0.0000 O   0  0  0  0  0  0  0  0  0  0  0  0
    9.5071   -6.4124    0.0000 O   0  0  0  0  0  0  0  0  0  0  0  0
   10.0844   -5.4258    0.0000 O   0  0  0  0  0  0  0  0  0  0  0  0
    9.5148   -5.0924    0.0000 C   0  0  0  0  0  0  0  0  0  0  0  0
   10.6462   -5.7350    0.0000 C   0  0  0  0  0  0  0  0  0  0  0  0
   10.6423   -6.3950    0.0000 C   0  0  0  0  0  0  0  0  0  0  0  0
   11.2197   -5.4084    0.0000 O   0  0  0  0  0  0  0  0  0  0  0  0
   11.2119   -6.7283    0.0000 C   0  0  2  0  0  0  0  0  0  0  0  0
   11.7854   -6.4017    0.0000 C   0  0  0  0  0  0  0  0  0  0  0  0
   11.7893   -5.7417    0.0000 C   0  0  0  0  0  0  0  0  0  0  0  0
   11.2081   -7.3883    0.0000 C   0  0  0  0  0  0  0  0  0  0  0  0
   11.7777   -7.7217    0.0000 C   0  0  1  0  0  0  0  0  0  0  0  0
   12.3512   -7.3951    0.0000 O   0  0  0  0  0  0  0  0  0  0  0  0
   12.3551   -6.7351    0.0000 C   0  0  0  0  0  0  0  0  0  0  0  0
   10.0649   -7.3816    0.0000 C   0  0  0  0  0  0  0  0  0  0  0  0
   10.6346   -7.7150    0.0000 C   0  0  0  0  0  0  0  0  0  0  0  0
   10.6307   -8.3750    0.0000 O   0  0  0  0  0  0  0  0  0  0  0  0
   11.2003   -8.7083    0.0000 C   0  0  1  0  0  0  0  0  0  0  0  0
   11.7738   -8.3817    0.0000 O   0  0  0  0  0  0  0  0  0  0  0  0
   10.0572   -8.7016    0.0000 C   0  0  1  0  0  0  0  0  0  0  0  0
   10.0533   -9.3616    0.0000 C   0  0  2  0  0  0  0  0  0  0  0  0
   10.6229   -9.6949    0.0000 C   0  0  1  0  0  0  0  0  0  0  0  0
   11.1964   -9.3683    0.0000 C   0  0  1  0  0  0  0  0  0  0  0  0
    9.4875   -8.3682    0.0000 C   0  0  0  0  0  0  0  0  0  0  0  0
    8.9140   -8.6949    0.0000 O   0  0  0  0  0  0  0  0  0  0  0  0
    9.4798   -9.6882    0.0000 O   0  0  0  0  0  0  0  0  0  0  0  0
    1.9650  -10.3281    0.0000 O   0  0  0  0  0  0  0  0  0  0  0  0
   10.6190  -10.3549    0.0000 O   0  0  0  0  0  0  0  0  0  0  0  0
    3.1042  -10.9948    0.0000 O   0  0  0  0  0  0  0  0  0  0  0  0
    8.3600   -7.0657    0.0000 O   0  0  0  0  0  0  0  0  0  0  0  0
   11.7660   -9.7017    0.0000 O   0  0  0  0  0  0  0  0  0  0  0  0
    1.9883   -6.3682    0.0000 C   0  0  0  0  0  0  0  0  0  0  0  0
    1.4186   -6.0348    0.0000 O   0  0  0  0  0  0  0  0  0  0  0  0
    2.5618   -6.0416    0.0000 O   0  0  0  0  0  0  0  0  0  0  0  0
    2.5657   -5.3816    0.0000 C   0  0  0  0  0  0  0  0  0  0  0  0
   12.3628   -5.4151    0.0000 O   0  0  0  0  0  0  0  0  0  0  0  0
   11.4824   -5.1574    0.0000 O   0  0  0  0  0  0  0  0  0  0  0  0
   12.9208   -5.7676    0.0000 C   0  0  0  0  0  0  0  0  0  0  0  0
  1  2  1  0  0  0  0
  2  3  1  0  0  0  0
  3  4  1  0  0  0  0
  4  5  1  0  0  0  0
  5  6  1  0  0  0  0
  6  1  1  0  0  0  0
  4  7  1  1  0  0  0
  8  9  1  0  0  0  0
  5  9  1  6  0  0  0
 10 11  2  0  0  0  0
 11 12  1  0  0  0  0
 12 13  1  1  0  0  0
  1 13  1  6  0  0  0
 11 14  1  0  0  0  0
 14 15  1  0  0  0  0
 15 16  2  0  0  0  0
 16 17  1  0  0  0  0
 17 12  1  0  0  0  0
 10 18  1  0  0  0  0
 14 19  1  1  0  0  0
 19 20  1  0  0  0  0
 20 21  2  0  0  0  0
 20 22  1  0  0  0  0
 22 23  1  0  0  0  0
 23 24  2  0  0  0  0
 24 25  1  0  0  0  0
 25 26  2  0  0  0  0
 26 27  1  0  0  0  0
 27 28  2  0  0  0  0
 28 23  1  0  0  0  0
 29 30  1  0  0  0  0
 30 26  1  0  0  0  0
 32 31  1  1  0  0  0
 32 33  1  0  0  0  0
 33 34  1  6  0  0  0
 34 29  1  0  0  0  0
 32 35  1  0  0  0  0
 35 36  1  0  0  0  0
 36 37  1  0  0  0  0
 37 38  1  0  0  0  0
 38 33  1  0  0  0  0
 36 39  1  1  0  0  0
 40 41  1  0  0  0  0
 37 41  1  6  0  0  0
 42 43  1  0  0  0  0
 42 44  2  0  0  0  0
 45 43  1  6  0  0  0
 45 46  1  0  0  0  0
 46 47  1  0  0  0  0
 45 48  1  0  0  0  0
 48 49  1  0  0  0  0
 49 50  1  0  0  0  0
 50 51  1  0  0  0  0
 51 46  2  0  0  0  0
 52 53  1  0  0  0  0
 53 48  2  0  0  0  0
 54 55  1  0  0  0  0
 55 56  1  1  0  0  0
 49 56  1  1  0  0  0
 54 57  1  0  0  0  0
 57 58  1  0  0  0  0
 58 59  1  0  0  0  0
 59 60  1  0  0  0  0
 60 55  1  0  0  0  0
 57 61  1  1  0  0  0
 61 62  1  0  0  0  0
 58 63  1  6  0  0  0
  2 64  1  1  0  0  0
 59 65  1  1  0  0  0
  3 66  1  6  0  0  0
 35 67  1  6  0  0  0
 60 68  1  6  0  0  0
 15 69  1  0  0  0  0
 69 70  2  0  0  0  0
 69 71  1  0  0  0  0
 71 72  1  0  0  0  0
 47 73  1  0  0  0  0
 47 74  2  0  0  0  0
 73 75  1  0  0  0  0
 42 40  1  0  0  0  0
M  END
>  <cdx:fragmentId>
5

$$$$
