94368.cdx
  Mrv1902 05222410232D          

 24 26  0  0  0  0            999 V2000
    7.7135   -4.3103    0.0000 C   0  0  0  0  0  0  0  0  0  0  0  0
    7.7135   -5.1353    0.0000 C   0  0  0  0  0  0  0  0  0  0  0  0
    6.9990   -5.5478    0.0000 C   0  0  0  0  0  0  0  0  0  0  0  0
    6.9990   -6.3728    0.0000 O   0  0  0  0  0  0  0  0  0  0  0  0
    6.2845   -5.1353    0.0000 C   0  0  0  0  0  0  0  0  0  0  0  0
    5.5701   -5.5478    0.0000 C   0  0  0  0  0  0  0  0  0  0  0  0
    4.8556   -5.1353    0.0000 C   0  0  0  0  0  0  0  0  0  0  0  0
    4.8556   -4.3103    0.0000 C   0  0  0  0  0  0  0  0  0  0  0  0
    5.5701   -3.8978    0.0000 C   0  0  0  0  0  0  0  0  0  0  0  0
    6.2845   -4.3103    0.0000 C   0  0  0  0  0  0  0  0  0  0  0  0
    6.9990   -3.8978    0.0000 O   0  0  0  0  0  0  0  0  0  0  0  0
    8.4280   -3.8978    0.0000 C   0  0  0  0  0  0  0  0  0  0  0  0
    9.1424   -4.3103    0.0000 C   0  0  0  0  0  0  0  0  0  0  0  0
    9.8569   -3.8978    0.0000 C   0  0  0  0  0  0  0  0  0  0  0  0
    9.8569   -3.0728    0.0000 C   0  0  0  0  0  0  0  0  0  0  0  0
    9.1424   -2.6603    0.0000 C   0  0  0  0  0  0  0  0  0  0  0  0
    8.4280   -3.0728    0.0000 C   0  0  0  0  0  0  0  0  0  0  0  0
    4.1411   -5.5478    0.0000 O   0  0  0  0  0  0  0  0  0  0  0  0
    3.4267   -5.1353    0.0000 C   0  0  0  0  0  0  0  0  0  0  0  0
   10.5714   -4.3103    0.0000 O   0  0  0  0  0  0  0  0  0  0  0  0
   11.2858   -3.8978    0.0000 C   0  0  0  0  0  0  0  0  0  0  0  0
    4.1411   -3.8978    0.0000 O   0  0  0  0  0  0  0  0  0  0  0  0
    5.5701   -6.3728    0.0000 O   0  0  0  0  0  0  0  0  0  0  0  0
   10.5714   -2.6603    0.0000 O   0  0  0  0  0  0  0  0  0  0  0  0
  1  2  2  0  0  0  0
  2  3  1  0  0  0  0
  3  4  2  0  0  0  0
  3  5  1  0  0  0  0
  5  6  1  0  0  0  0
  6  7  2  0  0  0  0
  7  8  1  0  0  0  0
  8  9  2  0  0  0  0
  9 10  1  0  0  0  0
  5 10  2  0  0  0  0
 10 11  1  0  0  0  0
  1 11  1  0  0  0  0
  1 12  1  0  0  0  0
 12 13  1  0  0  0  0
 13 14  2  0  0  0  0
 14 15  1  0  0  0  0
 15 16  2  0  0  0  0
 16 17  1  0  0  0  0
 12 17  2  0  0  0  0
 18 19  1  0  0  0  0
  7 18  1  0  0  0  0
 20 21  1  0  0  0  0
 14 20  1  0  0  0  0
  8 22  1  0  0  0  0
  6 23  1  0  0  0  0
 15 24  1  0  0  0  0
M  END
>  <cdx:fragmentId>
32901

$$$$
