94365.cdx
  Mrv1902 05222410232D          

 12 13  0  0  0  0            999 V2000
    6.2681   -5.2250    0.0000 C   0  0  0  0  0  0  0  0  0  0  0  0
    6.2681   -6.0500    0.0000 C   0  0  0  0  0  0  0  0  0  0  0  0
    6.9825   -6.4625    0.0000 C   0  0  0  0  0  0  0  0  0  0  0  0
    7.6970   -6.0500    0.0000 C   0  0  0  0  0  0  0  0  0  0  0  0
    7.6970   -5.2250    0.0000 C   0  0  0  0  0  0  0  0  0  0  0  0
    6.9825   -4.8125    0.0000 C   0  0  0  0  0  0  0  0  0  0  0  0
    8.4816   -6.3049    0.0000 O   0  0  0  0  0  0  0  0  0  0  0  0
    8.9665   -5.6375    0.0000 C   0  0  0  0  0  0  0  0  0  0  0  0
    8.4816   -4.9701    0.0000 O   0  0  0  0  0  0  0  0  0  0  0  0
    5.5536   -6.4625    0.0000 C   0  0  0  0  0  0  0  0  0  0  0  0
    4.8391   -6.0500    0.0000 C   0  0  0  0  0  0  0  0  0  0  0  0
    4.1246   -6.4625    0.0000 C   0  0  0  0  0  0  0  0  0  0  0  0
  1  2  2  0  0  0  0
  2  3  1  0  0  0  0
  3  4  2  0  0  0  0
  4  5  1  0  0  0  0
  5  6  2  0  0  0  0
  6  1  1  0  0  0  0
  4  7  1  0  0  0  0
  7  8  1  0  0  0  0
  8  9  1  0  0  0  0
  9  5  1  0  0  0  0
  2 10  1  0  0  0  0
 10 11  2  0  0  0  0
 11 12  1  0  0  0  0
M  END
>  <cdx:fragmentId>
5

$$$$
