94364.cdx
  Mrv1902 05222410232D          

 10  9  0  0  0  0            999 V2000
    6.9172   -6.2304    0.0000 N   0  0  0  0  0  0  0  0  0  0  0  0
    6.2057   -7.4695    0.0000 O   0  0  0  0  0  0  0  0  0  0  0  0
    5.4883   -6.2337    0.0000 C   0  0  0  0  0  0  0  0  0  0  0  0
    6.2037   -6.6445    0.0000 C   0  0  0  0  0  0  0  0  0  0  0  0
    8.3501   -7.8770    0.0000 S   0  0  0  0  0  0  0  0  0  0  0  0
    9.0616   -6.6378    0.0000 O   0  0  0  0  0  0  0  0  0  0  0  0
    8.3442   -5.4020    0.0000 O   0  0  0  0  0  0  0  0  0  0  0  0
    7.6346   -7.4662    0.0000 C   0  0  0  0  0  0  0  0  0  0  0  0
    7.6327   -6.6412    0.0000 C   0  0  1  0  0  0  0  0  0  0  0  0
    8.3462   -6.2270    0.0000 C   0  0  0  0  0  0  0  0  0  0  0  0
  9  1  1  6  0  0  0
  4  1  1  0  0  0  0
  4  2  2  0  0  0  0
  4  3  1  0  0  0  0
  8  5  1  0  0  0  0
 10  6  1  0  0  0  0
 10  7  2  0  0  0  0
  9  8  1  0  0  0  0
 10  9  1  0  0  0  0
M  END
>  <cdx:fragmentId>
5

$$$$
