94370.cdx
  Mrv1902 05222410232D          

 34 36  0  0  0  0            999 V2000
    5.4095   -8.6710    0.0000 C   0  0  0  0  0  0  0  0  0  0  0  0
    4.6950   -9.0835    0.0000 C   0  0  0  0  0  0  0  0  0  0  0  0
    3.9805   -8.6710    0.0000 C   0  0  0  0  0  0  0  0  0  0  0  0
    5.4095   -7.8460    0.0000 O   0  0  0  0  0  0  0  0  0  0  0  0
    6.1239   -9.0835    0.0000 O   0  0  0  0  0  0  0  0  0  0  0  0
    3.2661   -9.0835    0.0000 C   0  0  0  0  0  0  0  0  0  0  0  0
    2.5516   -8.6710    0.0000 C   0  0  0  0  0  0  0  0  0  0  0  0
    1.8371   -9.0835    0.0000 C   0  0  0  0  0  0  0  0  0  0  0  0
    1.8371   -9.9085    0.0000 C   0  0  0  0  0  0  0  0  0  0  0  0
    2.5516  -10.3210    0.0000 C   0  0  0  0  0  0  0  0  0  0  0  0
    3.2661   -9.9085    0.0000 C   0  0  0  0  0  0  0  0  0  0  0  0
    1.1226  -10.3210    0.0000 O   0  0  0  0  0  0  0  0  0  0  0  0
    1.1226   -8.6710    0.0000 O   0  0  0  0  0  0  0  0  0  0  0  0
    7.5529   -7.4335    0.0000 O   0  0  0  0  0  0  0  0  0  0  0  0
    6.8384   -7.8460    0.0000 C   0  0  1  0  0  0  0  0  0  0  0  0
    6.8384   -8.6710    0.0000 C   0  0  2  0  0  0  0  0  0  0  0  0
    7.5529   -9.0835    0.0000 C   0  0  1  0  0  0  0  0  0  0  0  0
    8.2674   -8.6710    0.0000 C   0  0  2  0  0  0  0  0  0  0  0  0
    8.2674   -7.8460    0.0000 C   0  0  2  0  0  0  0  0  0  0  0  0
    6.1239   -7.4335    0.0000 C   0  0  0  0  0  0  0  0  0  0  0  0
    6.1239   -6.6085    0.0000 O   0  0  0  0  0  0  0  0  0  0  0  0
    8.9818   -9.0835    0.0000 O   0  0  0  0  0  0  0  0  0  0  0  0
    7.5529   -9.9085    0.0000 O   0  0  0  0  0  0  0  0  0  0  0  0
    8.9818   -7.4335    0.0000 O   0  0  0  0  0  0  0  0  0  0  0  0
    9.6963   -7.8460    0.0000 C   0  0  0  0  0  0  0  0  0  0  0  0
   10.4108   -7.4335    0.0000 C   0  0  0  0  0  0  0  0  0  0  0  0
   11.1252   -7.8460    0.0000 C   0  0  0  0  0  0  0  0  0  0  0  0
   11.8397   -7.4335    0.0000 C   0  0  0  0  0  0  0  0  0  0  0  0
   12.5542   -7.8460    0.0000 C   0  0  0  0  0  0  0  0  0  0  0  0
   12.5542   -8.6710    0.0000 C   0  0  0  0  0  0  0  0  0  0  0  0
   11.8397   -9.0835    0.0000 C   0  0  0  0  0  0  0  0  0  0  0  0
   11.1252   -8.6710    0.0000 C   0  0  0  0  0  0  0  0  0  0  0  0
   13.2687   -9.0835    0.0000 O   0  0  0  0  0  0  0  0  0  0  0  0
   13.2687   -7.4335    0.0000 O   0  0  0  0  0  0  0  0  0  0  0  0
  1  2  1  0  0  0  0
  2  3  2  0  0  0  0
  1  4  2  0  0  0  0
  1  5  1  0  0  0  0
  6  7  1  0  0  0  0
  7  8  2  0  0  0  0
  8  9  1  0  0  0  0
  9 10  2  0  0  0  0
 10 11  1  0  0  0  0
  6 11  2  0  0  0  0
  9 12  1  0  0  0  0
  8 13  1  0  0  0  0
  3  6  1  0  0  0  0
 14 15  1  0  0  0  0
 15 16  1  0  0  0  0
 16 17  1  0  0  0  0
 17 18  1  0  0  0  0
 18 19  1  0  0  0  0
 14 19  1  0  0  0  0
 20 21  1  0  0  0  0
 15 20  1  1  0  0  0
 18 22  1  6  0  0  0
 17 23  1  1  0  0  0
 25 26  1  0  0  0  0
 24 25  1  0  0  0  0
 27 28  1  0  0  0  0
 28 29  2  0  0  0  0
 29 30  1  0  0  0  0
 30 31  2  0  0  0  0
 31 32  1  0  0  0  0
 27 32  2  0  0  0  0
 30 33  1  0  0  0  0
 29 34  1  0  0  0  0
 26 27  1  0  0  0  0
 19 24  1  1  0  0  0
 16  5  1  6  0  0  0
M  END
>  <cdx:groupId>
106

>  <cdx:fragmentId>
57

$$$$
