94375.cdx
  Mrv1902 05222410252D          

 23 26  0  0  0  0            999 V2000
    9.8534   -9.3287    0.0000 C   0  0  0  0  0  0  0  0  0  0  0  0
   10.5111   -9.8268    0.0000 C   0  0  0  0  0  0  0  0  0  0  0  0
   11.1881   -9.3553    0.0000 C   0  0  0  0  0  0  0  0  0  0  0  0
   10.9488   -8.5657    0.0000 N   0  0  0  0  0  0  0  0  0  0  0  0
   10.1239   -8.5493    0.0000 C   0  0  0  0  0  0  0  0  0  0  0  0
    9.6524   -7.8724    0.0000 C   0  0  0  0  0  0  0  0  0  0  0  0
    8.8304   -7.9423    0.0000 C   0  0  0  0  0  0  0  0  0  0  0  0
    8.2906   -7.3183    0.0000 N   0  0  0  0  0  0  0  0  0  0  0  0
    7.5304   -7.6388    0.0000 C   0  0  0  0  0  0  0  0  0  0  0  0
    7.6003   -8.4609    0.0000 C   0  0  0  0  0  0  0  0  0  0  0  0
    8.4037   -8.6484    0.0000 C   0  0  0  0  0  0  0  0  0  0  0  0
    6.8243   -7.2122    0.0000 C   0  0  0  0  0  0  0  0  0  0  0  0
    6.1018   -7.6104    0.0000 C   0  0  0  0  0  0  0  0  0  0  0  0
    5.3549   -7.2599    0.0000 N   0  0  0  0  0  0  0  0  0  0  0  0
    4.7908   -7.8619    0.0000 C   0  0  0  0  0  0  0  0  0  0  0  0
    5.1890   -8.5845    0.0000 C   0  0  0  0  0  0  0  0  0  0  0  0
    5.9992   -8.4290    0.0000 C   0  0  0  0  0  0  0  0  0  0  0  0
    3.9722   -7.7594    0.0000 C   0  0  0  0  0  0  0  0  0  0  0  0
    3.5479   -8.4669    0.0000 C   0  0  0  0  0  0  0  0  0  0  0  0
    2.7261   -8.5396    0.0000 N   0  0  0  0  0  0  0  0  0  0  0  0
    2.5413   -9.3436    0.0000 C   0  0  0  0  0  0  0  0  0  0  0  0
    3.2488   -9.7679    0.0000 C   0  0  0  0  0  0  0  0  0  0  0  0
    3.8710   -9.2261    0.0000 C   0  0  0  0  0  0  0  0  0  0  0  0
  1  2  2  0  0  0  0
  2  3  1  0  0  0  0
  3  4  2  0  0  0  0
  4  5  1  0  0  0  0
  5  1  1  0  0  0  0
  5  6  2  0  0  0  0
  6  7  1  0  0  0  0
  7  8  1  0  0  0  0
  8  9  1  0  0  0  0
  9 10  2  0  0  0  0
 10 11  1  0  0  0  0
 11  7  2  0  0  0  0
  9 12  1  0  0  0  0
 12 13  2  0  0  0  0
 13 14  1  0  0  0  0
 14 15  2  0  0  0  0
 15 16  1  0  0  0  0
 16 17  2  0  0  0  0
 17 13  1  0  0  0  0
 15 18  1  0  0  0  0
 18 19  2  0  0  0  0
 19 20  1  0  0  0  0
 20 21  2  0  0  0  0
 21 22  1  0  0  0  0
 22 23  2  0  0  0  0
 23 19  1  0  0  0  0
M  END
>  <cdx:fragmentId>
5

$$$$
