94371.cdx
  Mrv1902 05222410232D          

 24 26  0  0  0  0            999 V2000
    3.5043   -6.3388    0.0000 C   0  0  0  0  0  0  0  0  0  0  0  0
    3.5043   -7.1638    0.0000 C   0  0  0  0  0  0  0  0  0  0  0  0
    4.2188   -7.5762    0.0000 C   0  0  0  0  0  0  0  0  0  0  0  0
    4.9332   -7.1638    0.0000 C   0  0  0  0  0  0  0  0  0  0  0  0
    4.9332   -6.3388    0.0000 C   0  0  0  0  0  0  0  0  0  0  0  0
    4.2188   -5.9262    0.0000 C   0  0  0  0  0  0  0  0  0  0  0  0
    5.6477   -7.5762    0.0000 C   0  0  0  0  0  0  0  0  0  0  0  0
    6.3622   -7.1638    0.0000 C   0  0  0  0  0  0  0  0  0  0  0  0
    6.3622   -6.3388    0.0000 C   0  0  0  0  0  0  0  0  0  0  0  0
    5.6477   -5.9262    0.0000 O   0  0  0  0  0  0  0  0  0  0  0  0
    7.0767   -7.5762    0.0000 O   0  0  0  0  0  0  0  0  0  0  0  0
    7.7911   -6.3388    0.0000 C   0  0  0  0  0  0  0  0  0  0  0  0
    7.0767   -5.9262    0.0000 C   0  0  0  0  0  0  0  0  0  0  0  0
    8.5056   -5.9262    0.0000 C   0  0  0  0  0  0  0  0  0  0  0  0
    8.5056   -5.1013    0.0000 C   0  0  0  0  0  0  0  0  0  0  0  0
    7.7911   -4.6888    0.0000 C   0  0  0  0  0  0  0  0  0  0  0  0
    7.0767   -5.1013    0.0000 C   0  0  0  0  0  0  0  0  0  0  0  0
    4.2188   -8.4013    0.0000 O   0  0  0  0  0  0  0  0  0  0  0  0
    5.6477   -8.4013    0.0000 O   0  0  0  0  0  0  0  0  0  0  0  0
    7.0767   -8.4013    0.0000 C   0  0  0  0  0  0  0  0  0  0  0  0
    9.2201   -4.6888    0.0000 O   0  0  0  0  0  0  0  0  0  0  0  0
    9.9345   -5.1013    0.0000 C   0  0  0  0  0  0  0  0  0  0  0  0
    2.7898   -5.9262    0.0000 O   0  0  0  0  0  0  0  0  0  0  0  0
    9.2201   -6.3388    0.0000 O   0  0  0  0  0  0  0  0  0  0  0  0
  1  2  2  0  0  0  0
  2  3  1  0  0  0  0
  3  4  2  0  0  0  0
  4  5  1  0  0  0  0
  5  6  2  0  0  0  0
  6  1  1  0  0  0  0
  4  7  1  0  0  0  0
  7  8  1  0  0  0  0
  8  9  2  0  0  0  0
  9 10  1  0  0  0  0
 10  5  1  0  0  0  0
  8 11  1  0  0  0  0
 12 13  2  0  0  0  0
 13  9  1  0  0  0  0
 12 14  1  0  0  0  0
 14 15  2  0  0  0  0
 15 16  1  0  0  0  0
 16 17  2  0  0  0  0
 17 13  1  0  0  0  0
  3 18  1  0  0  0  0
  7 19  2  0  0  0  0
 11 20  1  0  0  0  0
 15 21  1  0  0  0  0
 21 22  1  0  0  0  0
  1 23  1  0  0  0  0
 14 24  1  0  0  0  0
M  END
>  <cdx:fragmentId>
5

$$$$
