94379.cdx
  Mrv1902 05222410212D          

 30 35  0  0  0  0            999 V2000
    4.6809   -7.3959    0.0000 C   0  0  0  0  0  0  0  0  0  0  0  0
    4.6833   -8.2209    0.0000 C   0  0  0  0  0  0  0  0  0  0  0  0
    5.3989   -8.6313    0.0000 C   0  0  0  0  0  0  0  0  0  0  0  0
    6.1122   -8.2168    0.0000 C   0  0  0  0  0  0  0  0  0  0  0  0
    6.1098   -7.3918    0.0000 C   0  0  0  0  0  0  0  0  0  0  0  0
    5.3942   -6.9814    0.0000 C   0  0  0  0  0  0  0  0  0  0  0  0
    6.8279   -8.6272    0.0000 C   0  0  0  0  0  0  0  0  0  0  0  0
    7.5411   -8.2127    0.0000 N   0  0  0  0  0  0  0  0  0  0  0  0
    7.5388   -7.3877    0.0000 C   0  0  2  0  0  0  0  0  0  0  0  0
    6.8231   -6.9772    0.0000 C   0  0  2  0  0  0  0  0  0  0  0  0
    8.9677   -7.3836    0.0000 C   0  0  0  0  0  0  0  0  0  0  0  0
    8.2521   -6.9731    0.0000 C   0  0  0  0  0  0  0  0  0  0  0  0
    9.6810   -6.9690    0.0000 C   0  0  0  0  0  0  0  0  0  0  0  0
    9.6786   -6.1440    0.0000 C   0  0  0  0  0  0  0  0  0  0  0  0
    8.9630   -5.7336    0.0000 C   0  0  0  0  0  0  0  0  0  0  0  0
    8.2497   -6.1481    0.0000 C   0  0  0  0  0  0  0  0  0  0  0  0
    6.8207   -6.1522    0.0000 C   0  0  2  0  0  0  0  0  0  0  0  0
    4.0718   -8.7747    0.0000 O   0  0  0  0  0  0  0  0  0  0  0  0
    4.4095   -9.5274    0.0000 C   0  0  0  0  0  0  0  0  0  0  0  0
    5.2297   -9.4388    0.0000 O   0  0  0  0  0  0  0  0  0  0  0  0
    7.5340   -5.7377    0.0000 C   0  0  0  0  0  0  0  0  0  0  0  0
   10.4663   -7.2217    0.0000 O   0  0  0  0  0  0  0  0  0  0  0  0
   10.9493   -6.5529    0.0000 C   0  0  0  0  0  0  0  0  0  0  0  0
   10.4625   -5.8868    0.0000 O   0  0  0  0  0  0  0  0  0  0  0  0
    8.2544   -7.7981    0.0000 H   0  0  0  0  0  0  0  0  0  0  0  0
    6.1075   -6.5668    0.0000 C   0  0  0  0  0  0  0  0  0  0  0  0
    6.1051   -5.7418    0.0000 O   0  0  0  0  0  0  0  0  0  0  0  0
    6.1038   -4.9168    0.0000 C   0  0  0  0  0  0  0  0  0  0  0  0
    5.3887   -4.5054    0.0000 C   0  0  0  0  0  0  0  0  0  0  0  0
    6.8176   -4.5032    0.0000 O   0  0  0  0  0  0  0  0  0  0  0  0
  1  2  2  0  0  0  0
  2  3  1  0  0  0  0
  3  4  2  0  0  0  0
  4  5  1  0  0  0  0
  5  6  2  0  0  0  0
  6  1  1  0  0  0  0
  4  7  1  0  0  0  0
  7  8  2  0  0  0  0
  8  9  1  0  0  0  0
  9 10  1  0  0  0  0
 10  5  1  0  0  0  0
 11 12  2  0  0  0  0
 12  9  1  0  0  0  0
 11 13  1  0  0  0  0
 13 14  2  0  0  0  0
 14 15  1  0  0  0  0
 15 16  2  0  0  0  0
 16 12  1  0  0  0  0
 10 17  1  0  0  0  0
  2 18  1  0  0  0  0
 18 19  1  0  0  0  0
 19 20  1  0  0  0  0
 20  3  1  0  0  0  0
 17 21  1  0  0  0  0
 21 16  1  0  0  0  0
 13 22  1  0  0  0  0
 22 23  1  0  0  0  0
 23 24  1  0  0  0  0
 24 14  1  0  0  0  0
  9 25  1  1  0  0  0
 10 26  1  6  0  0  0
 17 27  1  1  0  0  0
 27 28  1  0  0  0  0
 28 29  1  0  0  0  0
 28 30  2  0  0  0  0
M  END
>  <cdx:fragmentId>
5

$$$$
