94377.cdx
  Mrv1902 05222410252D          

 27 30  0  0  0  0            999 V2000
    4.2193   -6.8750    0.0000 C   0  0  0  0  0  0  0  0  0  0  0  0
    4.2193   -7.7000    0.0000 C   0  0  0  0  0  0  0  0  0  0  0  0
    4.9338   -8.1125    0.0000 C   0  0  0  0  0  0  0  0  0  0  0  0
    5.6482   -7.7000    0.0000 C   0  0  0  0  0  0  0  0  0  0  0  0
    5.6482   -6.8750    0.0000 C   0  0  0  0  0  0  0  0  0  0  0  0
    4.9338   -6.4625    0.0000 C   0  0  0  0  0  0  0  0  0  0  0  0
    6.3627   -8.1125    0.0000 C   0  0  0  0  0  0  0  0  0  0  0  0
    7.0772   -7.7000    0.0000 N   0  3  0  0  0  0  0  0  0  0  0  0
    7.0772   -6.8750    0.0000 C   0  0  0  0  0  0  0  0  0  0  0  0
    6.3627   -6.4625    0.0000 C   0  0  0  0  0  0  0  0  0  0  0  0
    7.7917   -8.1125    0.0000 C   0  0  0  0  0  0  0  0  0  0  0  0
    8.5061   -7.7000    0.0000 C   0  0  0  0  0  0  0  0  0  0  0  0
    8.5061   -6.8750    0.0000 C   0  0  0  0  0  0  0  0  0  0  0  0
    7.7917   -6.4625    0.0000 C   0  0  0  0  0  0  0  0  0  0  0  0
    9.2206   -6.4625    0.0000 C   0  0  0  0  0  0  0  0  0  0  0  0
    9.2206   -5.6375    0.0000 C   0  0  0  0  0  0  0  0  0  0  0  0
    8.5061   -5.2250    0.0000 C   0  0  0  0  0  0  0  0  0  0  0  0
    7.7917   -5.6375    0.0000 C   0  0  0  0  0  0  0  0  0  0  0  0
    3.5048   -8.1125    0.0000 O   0  0  0  0  0  0  0  0  0  0  0  0
    3.5048   -8.9375    0.0000 C   0  0  0  0  0  0  0  0  0  0  0  0
    4.9338   -8.9375    0.0000 O   0  0  0  0  0  0  0  0  0  0  0  0
    5.6482   -9.3500    0.0000 C   0  0  0  0  0  0  0  0  0  0  0  0
    8.5061   -4.4000    0.0000 O   0  0  0  0  0  0  0  0  0  0  0  0
    7.7917   -3.9875    0.0000 C   0  0  0  0  0  0  0  0  0  0  0  0
    9.9351   -5.2250    0.0000 O   0  0  0  0  0  0  0  0  0  0  0  0
    9.9351   -4.4000    0.0000 C   0  0  0  0  0  0  0  0  0  0  0  0
    6.3627   -5.6375    0.0000 C   0  0  0  0  0  0  0  0  0  0  0  0
  1  2  1  0  0  0  0
  2  3  2  0  0  0  0
  3  4  1  0  0  0  0
  4  5  1  0  0  0  0
  5  6  1  0  0  0  0
  6  1  2  0  0  0  0
  4  7  2  0  0  0  0
  7  8  1  0  0  0  0
  8  9  2  0  0  0  0
  9 10  1  0  0  0  0
 10  5  2  0  0  0  0
  8 11  1  0  0  0  0
 11 12  1  0  0  0  0
 12 13  1  0  0  0  0
 13 14  2  0  0  0  0
 14  9  1  0  0  0  0
 13 15  1  0  0  0  0
 15 16  2  0  0  0  0
 16 17  1  0  0  0  0
 17 18  2  0  0  0  0
 18 14  1  0  0  0  0
  2 19  1  0  0  0  0
 19 20  1  0  0  0  0
  3 21  1  0  0  0  0
 21 22  1  0  0  0  0
 17 23  1  0  0  0  0
 23 24  1  0  0  0  0
 16 25  1  0  0  0  0
 25 26  1  0  0  0  0
 10 27  1  0  0  0  0
M  CHG  1   8   1
M  END
>  <cdx:fragmentId>
5

$$$$
