94372.cdx
  Mrv1902 05222410242D          

 28 33  0  0  0  0            999 V2000
    4.5356   -6.2150    0.0000 C   0  0  0  0  0  0  0  0  0  0  0  0
    4.5356   -7.0400    0.0000 C   0  0  0  0  0  0  0  0  0  0  0  0
    5.2500   -7.4525    0.0000 C   0  0  0  0  0  0  0  0  0  0  0  0
    5.9645   -7.0400    0.0000 C   0  0  0  0  0  0  0  0  0  0  0  0
    5.9645   -6.2150    0.0000 C   0  0  0  0  0  0  0  0  0  0  0  0
    5.2500   -5.8025    0.0000 C   0  0  0  0  0  0  0  0  0  0  0  0
    6.6790   -7.4525    0.0000 C   0  0  0  0  0  0  0  0  0  0  0  0
    7.3934   -7.0400    0.0000 N   0  0  0  0  0  0  0  0  0  0  0  0
    7.3934   -6.2150    0.0000 C   0  0  1  0  0  0  0  0  0  0  0  0
    6.6790   -5.8025    0.0000 C   0  0  2  0  0  0  0  0  0  0  0  0
    8.1079   -5.8025    0.0000 C   0  0  0  0  0  0  0  0  0  0  0  0
    8.1079   -4.9775    0.0000 C   0  0  0  0  0  0  0  0  0  0  0  0
    7.3934   -4.5650    0.0000 C   0  0  0  0  0  0  0  0  0  0  0  0
    6.6790   -4.9775    0.0000 C   0  0  1  0  0  0  0  0  0  0  0  0
    8.8224   -6.2150    0.0000 C   0  0  0  0  0  0  0  0  0  0  0  0
    9.5369   -5.8025    0.0000 C   0  0  0  0  0  0  0  0  0  0  0  0
    9.5369   -4.9775    0.0000 C   0  0  0  0  0  0  0  0  0  0  0  0
    8.8224   -4.5650    0.0000 C   0  0  0  0  0  0  0  0  0  0  0  0
    3.9225   -7.5920    0.0000 O   0  0  0  0  0  0  0  0  0  0  0  0
    4.2580   -8.3457    0.0000 C   0  0  0  0  0  0  0  0  0  0  0  0
    5.0785   -8.2595    0.0000 O   0  0  0  0  0  0  0  0  0  0  0  0
   10.3215   -6.0574    0.0000 O   0  0  0  0  0  0  0  0  0  0  0  0
   10.8064   -5.3900    0.0000 C   0  0  0  0  0  0  0  0  0  0  0  0
   10.3215   -4.7226    0.0000 O   0  0  0  0  0  0  0  0  0  0  0  0
    5.9645   -4.5650    0.0000 O   0  0  0  0  0  0  0  0  0  0  0  0
    5.9645   -5.3900    0.0000 C   0  0  0  0  0  0  0  0  0  0  0  0
    8.1079   -6.6275    0.0000 H   0  0  0  0  0  0  0  0  0  0  0  0
    8.1079   -7.4525    0.0000 C   0  0  0  0  0  0  0  0  0  0  0  0
  1  2  2  0  0  0  0
  2  3  1  0  0  0  0
  3  4  2  0  0  0  0
  4  5  1  0  0  0  0
  5  6  2  0  0  0  0
  6  1  1  0  0  0  0
  4  7  1  0  0  0  0
  7  8  1  0  0  0  0
  8  9  1  0  0  0  0
  9 10  1  0  0  0  0
 10  5  1  0  0  0  0
  9 11  1  0  0  0  0
 11 12  2  0  0  0  0
 12 13  1  0  0  0  0
 13 14  1  0  0  0  0
 14 10  1  0  0  0  0
 11 15  1  0  0  0  0
 15 16  2  0  0  0  0
 16 17  1  0  0  0  0
 17 18  2  0  0  0  0
 18 12  1  0  0  0  0
  2 19  1  0  0  0  0
 19 20  1  0  0  0  0
 20 21  1  0  0  0  0
 21  3  1  0  0  0  0
 16 22  1  0  0  0  0
 22 23  1  0  0  0  0
 23 24  1  0  0  0  0
 24 17  1  0  0  0  0
 14 25  1  6  0  0  0
 10 26  1  6  0  0  0
  9 27  1  6  0  0  0
  8 28  1  0  0  0  0
M  END
>  <cdx:fragmentId>
5

$$$$
