94378.cdx
  Mrv1902 05222410212D          

 20 20  0  0  0  0            999 V2000
    4.9194   -2.3796    0.0000 C   0  0  0  0  0  0  0  0  0  0  0  0
    5.6339   -2.7921    0.0000 C   0  0  0  0  0  0  0  0  0  0  0  0
    6.3484   -2.3796    0.0000 C   0  0  0  0  0  0  0  0  0  0  0  0
    7.0628   -2.7921    0.0000 C   0  0  0  0  0  0  0  0  0  0  0  0
    7.7773   -2.3796    0.0000 C   0  0  0  0  0  0  0  0  0  0  0  0
    8.4918   -2.7921    0.0000 C   0  0  0  0  0  0  0  0  0  0  0  0
    9.2063   -2.3796    0.0000 C   0  0  0  0  0  0  0  0  0  0  0  0
    9.9207   -2.7921    0.0000 C   0  0  0  0  0  0  0  0  0  0  0  0
   10.6352   -2.3796    0.0000 C   0  0  0  0  0  0  0  0  0  0  0  0
   11.3497   -2.7921    0.0000 C   0  0  0  0  0  0  0  0  0  0  0  0
    6.3484   -1.5546    0.0000 O   0  0  0  0  0  0  0  0  0  0  0  0
    4.2050   -2.7921    0.0000 C   0  0  0  0  0  0  0  0  0  0  0  0
    3.4905   -2.3796    0.0000 C   0  0  0  0  0  0  0  0  0  0  0  0
    2.7760   -2.7921    0.0000 C   0  0  0  0  0  0  0  0  0  0  0  0
    2.7760   -3.6171    0.0000 C   0  0  0  0  0  0  0  0  0  0  0  0
    3.4905   -4.0296    0.0000 C   0  0  0  0  0  0  0  0  0  0  0  0
    4.2050   -3.6171    0.0000 C   0  0  0  0  0  0  0  0  0  0  0  0
    2.0615   -2.3796    0.0000 O   0  0  0  0  0  0  0  0  0  0  0  0
    1.3471   -2.7921    0.0000 C   0  0  0  0  0  0  0  0  0  0  0  0
    2.0615   -4.0296    0.0000 O   0  0  0  0  0  0  0  0  0  0  0  0
  1  2  1  0  0  0  0
  2  3  1  0  0  0  0
  3  4  1  0  0  0  0
  4  5  1  0  0  0  0
  5  6  1  0  0  0  0
  6  7  1  0  0  0  0
  7  8  1  0  0  0  0
  8  9  1  0  0  0  0
  9 10  1  0  0  0  0
  3 11  2  0  0  0  0
 12 13  1  0  0  0  0
 13 14  2  0  0  0  0
 14 15  1  0  0  0  0
 15 16  2  0  0  0  0
 16 17  1  0  0  0  0
 12 17  2  0  0  0  0
 18 19  1  0  0  0  0
 14 18  1  0  0  0  0
 15 20  1  0  0  0  0
  1 12  1  0  0  0  0
M  END
>  <cdx:groupId>
62

>  <cdx:fragmentId>
5

$$$$
