94374.cdx
  Mrv1902 05222410252D          

 30 35  0  0  0  0            999 V2000
    4.4256   -7.6863    0.0000 C   0  0  0  0  0  0  0  0  0  0  0  0
    4.4256   -8.5113    0.0000 C   0  0  0  0  0  0  0  0  0  0  0  0
    5.1400   -8.9238    0.0000 C   0  0  0  0  0  0  0  0  0  0  0  0
    5.8545   -8.5113    0.0000 C   0  0  0  0  0  0  0  0  0  0  0  0
    5.8545   -7.6863    0.0000 C   0  0  0  0  0  0  0  0  0  0  0  0
    5.1400   -7.2738    0.0000 C   0  0  0  0  0  0  0  0  0  0  0  0
    6.5690   -8.9238    0.0000 C   0  0  0  0  0  0  0  0  0  0  0  0
    7.2834   -8.5113    0.0000 N   0  0  0  0  0  0  0  0  0  0  0  0
    7.2834   -7.6863    0.0000 C   0  0  0  0  0  0  0  0  0  0  0  0
    6.5690   -7.2738    0.0000 C   0  0  1  0  0  0  0  0  0  0  0  0
    7.9979   -7.2738    0.0000 C   0  0  0  0  0  0  0  0  0  0  0  0
    7.9979   -6.4487    0.0000 C   0  0  0  0  0  0  0  0  0  0  0  0
    7.2834   -6.0362    0.0000 C   0  0  0  0  0  0  0  0  0  0  0  0
    6.5690   -6.4487    0.0000 C   0  0  0  0  0  0  0  0  0  0  0  0
    8.7124   -7.6863    0.0000 C   0  0  0  0  0  0  0  0  0  0  0  0
    9.4269   -7.2738    0.0000 C   0  0  0  0  0  0  0  0  0  0  0  0
    9.4269   -6.4487    0.0000 C   0  0  0  0  0  0  0  0  0  0  0  0
    8.7124   -6.0362    0.0000 C   0  0  0  0  0  0  0  0  0  0  0  0
    3.8125   -9.0633    0.0000 O   0  0  0  0  0  0  0  0  0  0  0  0
    4.1480   -9.8170    0.0000 C   0  0  0  0  0  0  0  0  0  0  0  0
    4.9685   -9.7307    0.0000 O   0  0  0  0  0  0  0  0  0  0  0  0
   10.2115   -7.5287    0.0000 O   0  0  0  0  0  0  0  0  0  0  0  0
   10.6964   -6.8613    0.0000 C   0  0  0  0  0  0  0  0  0  0  0  0
   10.2115   -6.1938    0.0000 O   0  0  0  0  0  0  0  0  0  0  0  0
    5.8545   -6.0362    0.0000 O   0  0  0  0  0  0  0  0  0  0  0  0
    5.8545   -6.8613    0.0000 H   0  0  0  0  0  0  0  0  0  0  0  0
    7.9979   -8.9238    0.0000 C   0  0  0  0  0  0  0  0  0  0  0  0
    5.8545   -5.2113    0.0000 C   0  0  0  0  0  0  0  0  0  0  0  0
    5.1400   -4.7988    0.0000 O   0  0  0  0  0  0  0  0  0  0  0  0
    6.5690   -4.7988    0.0000 C   0  0  0  0  0  0  0  0  0  0  0  0
  1  2  2  0  0  0  0
  2  3  1  0  0  0  0
  3  4  2  0  0  0  0
  4  5  1  0  0  0  0
  5  6  2  0  0  0  0
  6  1  1  0  0  0  0
  4  7  1  0  0  0  0
  7  8  1  0  0  0  0
  8  9  1  0  0  0  0
  9 10  1  0  0  0  0
 10  5  1  0  0  0  0
  9 11  1  0  0  0  0
 11 12  2  0  0  0  0
 12 13  1  0  0  0  0
 13 14  1  0  0  0  0
 14 10  1  0  0  0  0
 11 15  1  0  0  0  0
 15 16  2  0  0  0  0
 16 17  1  0  0  0  0
 17 18  2  0  0  0  0
 18 12  1  0  0  0  0
  2 19  1  0  0  0  0
 19 20  1  0  0  0  0
 20 21  1  0  0  0  0
 21  3  1  0  0  0  0
 16 22  1  0  0  0  0
 22 23  1  0  0  0  0
 23 24  1  0  0  0  0
 24 17  1  0  0  0  0
 14 25  1  0  0  0  0
 10 26  1  1  0  0  0
  8 27  1  0  0  0  0
 25 28  1  0  0  0  0
 28 29  2  0  0  0  0
 28 30  1  0  0  0  0
M  END
>  <cdx:fragmentId>
5

$$$$
