94382.cdx
  Mrv1902 05222410232D          

 22 24  0  0  0  0            999 V2000
    8.8724   -7.5160    0.0000 O   0  0  0  0  0  0  0  0  0  0  0  0
    6.0145   -8.3410    0.0000 O   0  0  0  0  0  0  0  0  0  0  0  0
    4.5855   -5.8660    0.0000 O   0  0  0  0  0  0  0  0  0  0  0  0
   11.0158   -4.6285    0.0000 O   0  0  0  0  0  0  0  0  0  0  0  0
    8.8724   -5.0410    0.0000 C   0  0  0  0  0  0  0  0  0  0  0  0
    9.5868   -4.6285    0.0000 C   0  0  0  0  0  0  0  0  0  0  0  0
   10.3013   -5.0410    0.0000 C   0  0  0  0  0  0  0  0  0  0  0  0
   10.3013   -5.8660    0.0000 C   0  0  0  0  0  0  0  0  0  0  0  0
    9.5868   -6.2785    0.0000 C   0  0  0  0  0  0  0  0  0  0  0  0
    8.8724   -5.8660    0.0000 C   0  0  0  0  0  0  0  0  0  0  0  0
    7.4434   -8.3410    0.0000 O   0  0  0  0  0  0  0  0  0  0  0  0
    7.4434   -5.8660    0.0000 O   0  0  0  0  0  0  0  0  0  0  0  0
    6.7289   -6.2785    0.0000 C   0  0  0  0  0  0  0  0  0  0  0  0
    6.0145   -5.8660    0.0000 C   0  0  0  0  0  0  0  0  0  0  0  0
    5.3000   -6.2785    0.0000 C   0  0  0  0  0  0  0  0  0  0  0  0
    5.3000   -7.1035    0.0000 C   0  0  0  0  0  0  0  0  0  0  0  0
    6.0145   -7.5160    0.0000 C   0  0  0  0  0  0  0  0  0  0  0  0
    6.7289   -7.1035    0.0000 C   0  0  0  0  0  0  0  0  0  0  0  0
    7.4434   -7.5160    0.0000 C   0  0  0  0  0  0  0  0  0  0  0  0
    8.1579   -7.1035    0.0000 C   0  0  0  0  0  0  0  0  0  0  0  0
    8.1579   -6.2785    0.0000 C   0  0  0  0  0  0  0  0  0  0  0  0
    3.8711   -6.2785    0.0000 C   0  0  0  0  0  0  0  0  0  0  0  0
 20  1  1  0  0  0  0
 17  2  1  0  0  0  0
 15  3  1  0  0  0  0
 21 10  1  0  0  0  0
  7  4  1  0  0  0  0
 10  5  2  0  0  0  0
  6  5  1  0  0  0  0
  7  6  2  0  0  0  0
  8  7  1  0  0  0  0
  9  8  2  0  0  0  0
 10  9  1  0  0  0  0
 19 11  2  0  0  0  0
 21 12  1  0  0  0  0
 13 12  1  0  0  0  0
 18 13  2  0  0  0  0
 14 13  1  0  0  0  0
 15 14  2  0  0  0  0
 16 15  1  0  0  0  0
 17 16  2  0  0  0  0
 18 17  1  0  0  0  0
 19 18  1  0  0  0  0
 20 19  1  0  0  0  0
 21 20  2  0  0  0  0
  3 22  1  0  0  0  0
M  END
>  <cdx:fragmentId>
5

$$$$
