94380.cdx
  Mrv1902 05222410222D          

 44 47  0  0  0  0            999 V2000
    7.3790  -10.3826    0.0000 C   0  0  0  0  0  0  0  0  0  0  0  0
    7.3967  -11.2074    0.0000 C   0  0  0  0  0  0  0  0  0  0  0  0
    4.5750  -12.9185    0.0000 O   0  0  0  0  0  0  0  0  0  0  0  0
    6.0214  -13.7126    0.0000 O   0  0  0  0  0  0  0  0  0  0  0  0
    6.7091  -12.4600    0.0000 C   0  0  0  0  0  0  0  0  0  0  0  0
    6.6913  -11.6352    0.0000 C   0  0  0  0  0  0  0  0  0  0  0  0
    5.9681  -11.2381    0.0000 C   0  0  0  0  0  0  0  0  0  0  0  0
    5.2627  -11.6659    0.0000 C   0  0  0  0  0  0  0  0  0  0  0  0
    5.2804  -12.4907    0.0000 C   0  0  0  0  0  0  0  0  0  0  0  0
    6.0036  -12.8878    0.0000 C   0  0  0  0  0  0  0  0  0  0  0  0
    8.0844   -9.9548    0.0000 C   0  0  0  0  0  0  0  0  0  0  0  0
    8.8076  -10.3518    0.0000 O   0  0  0  0  0  0  0  0  0  0  0  0
    8.0667   -9.1300    0.0000 O   0  0  0  0  0  0  0  0  0  0  0  0
    7.3522   -8.7175    0.0000 C   0  0  1  0  0  0  0  0  0  0  0  0
    7.3522   -7.8925    0.0000 C   0  0  1  0  0  0  0  0  0  0  0  0
    6.6377   -7.4800    0.0000 O   0  0  0  0  0  0  0  0  0  0  0  0
    5.9232   -7.8925    0.0000 C   0  0  1  0  0  0  0  0  0  0  0  0
    5.9232   -8.7175    0.0000 C   0  0  2  0  0  0  0  0  0  0  0  0
    6.6377   -9.1300    0.0000 C   0  0  2  0  0  0  0  0  0  0  0  0
    5.2088   -9.1300    0.0000 O   0  0  0  0  0  0  0  0  0  0  0  0
    6.6377   -9.9550    0.0000 O   0  0  0  0  0  0  0  0  0  0  0  0
    8.0667   -7.4800    0.0000 O   0  0  0  0  0  0  0  0  0  0  0  0
    5.2088   -7.4800    0.0000 C   0  0  0  0  0  0  0  0  0  0  0  0
    5.2088   -6.6550    0.0000 O   0  0  0  0  0  0  0  0  0  0  0  0
    8.7811   -7.8925    0.0000 C   0  0  0  0  0  0  0  0  0  0  0  0
    9.4956   -7.4800    0.0000 C   0  0  0  0  0  0  0  0  0  0  0  0
   10.2101   -7.8925    0.0000 C   0  0  0  0  0  0  0  0  0  0  0  0
   10.2101   -8.7175    0.0000 C   0  0  0  0  0  0  0  0  0  0  0  0
   10.9245   -9.1300    0.0000 C   0  0  0  0  0  0  0  0  0  0  0  0
   11.6390   -8.7175    0.0000 C   0  0  0  0  0  0  0  0  0  0  0  0
   11.6390   -7.8925    0.0000 C   0  0  0  0  0  0  0  0  0  0  0  0
   10.9245   -7.4800    0.0000 C   0  0  0  0  0  0  0  0  0  0  0  0
   12.3535   -7.4800    0.0000 O   0  0  0  0  0  0  0  0  0  0  0  0
   12.3535   -9.1300    0.0000 O   0  0  0  0  0  0  0  0  0  0  0  0
    4.4943   -6.2425    0.0000 C   0  0  2  0  0  0  0  0  0  0  0  0
    4.4943   -5.4175    0.0000 O   0  0  0  0  0  0  0  0  0  0  0  0
    3.7798   -5.0050    0.0000 C   0  0  2  0  0  0  0  0  0  0  0  0
    3.0654   -5.4175    0.0000 C   0  0  1  0  0  0  0  0  0  0  0  0
    3.0654   -6.2425    0.0000 C   0  0  2  0  0  0  0  0  0  0  0  0
    3.7798   -6.6550    0.0000 C   0  0  1  0  0  0  0  0  0  0  0  0
    2.3509   -5.0050    0.0000 O   0  0  0  0  0  0  0  0  0  0  0  0
    2.3509   -6.6550    0.0000 O   0  0  0  0  0  0  0  0  0  0  0  0
    3.7798   -7.4800    0.0000 O   0  0  0  0  0  0  0  0  0  0  0  0
    3.7798   -4.1800    0.0000 C   0  0  0  0  0  0  0  0  0  0  0  0
  2  1  2  0  0  0  0
  6  2  1  0  0  0  0
  9  3  1  0  0  0  0
 10  4  1  0  0  0  0
  5 10  1  0  0  0  0
  6  5  2  0  0  0  0
  7  6  1  0  0  0  0
  8  7  2  0  0  0  0
  9  8  1  0  0  0  0
 10  9  2  0  0  0  0
  1 11  1  0  0  0  0
 11 12  2  0  0  0  0
 11 13  1  0  0  0  0
 14 13  1  6  0  0  0
 14 15  1  0  0  0  0
 15 16  1  0  0  0  0
 16 17  1  0  0  0  0
 17 18  1  0  0  0  0
 18 19  1  0  0  0  0
 19 14  1  0  0  0  0
 18 20  1  6  0  0  0
 19 21  1  1  0  0  0
 15 22  1  1  0  0  0
 17 23  1  1  0  0  0
 23 24  1  0  0  0  0
 22 25  1  0  0  0  0
 25 26  1  0  0  0  0
 26 27  1  0  0  0  0
 27 28  2  0  0  0  0
 28 29  1  0  0  0  0
 29 30  2  0  0  0  0
 30 31  1  0  0  0  0
 31 32  2  0  0  0  0
 32 27  1  0  0  0  0
 31 33  1  0  0  0  0
 30 34  1  0  0  0  0
 35 24  1  1  0  0  0
 35 36  1  0  0  0  0
 36 37  1  0  0  0  0
 37 38  1  0  0  0  0
 38 39  1  0  0  0  0
 39 40  1  0  0  0  0
 40 35  1  0  0  0  0
 38 41  1  1  0  0  0
 39 42  1  6  0  0  0
 40 43  1  6  0  0  0
 37 44  1  6  0  0  0
M  END
>  <cdx:fragmentId>
5

$$$$
