94381.cdx
  Mrv1902 05222410222D          

 44 47  0  0  0  0            999 V2000
    8.7404   -8.2775    0.0000 O   0  0  0  0  0  0  0  0  0  0  0  0
    8.0259   -7.8650    0.0000 C   0  0  1  0  0  0  0  0  0  0  0  0
    8.0259   -7.0400    0.0000 C   0  0  1  0  0  0  0  0  0  0  0  0
    7.3115   -6.6275    0.0000 O   0  0  0  0  0  0  0  0  0  0  0  0
    6.5970   -7.0400    0.0000 C   0  0  1  0  0  0  0  0  0  0  0  0
    6.5970   -7.8650    0.0000 C   0  0  2  0  0  0  0  0  0  0  0  0
    7.3115   -8.2775    0.0000 C   0  0  2  0  0  0  0  0  0  0  0  0
    5.8825   -8.2775    0.0000 O   0  0  0  0  0  0  0  0  0  0  0  0
    8.7404   -6.6275    0.0000 O   0  0  0  0  0  0  0  0  0  0  0  0
    5.8825   -6.6275    0.0000 C   0  0  0  0  0  0  0  0  0  0  0  0
    5.8825   -5.8025    0.0000 O   0  0  0  0  0  0  0  0  0  0  0  0
    9.4549   -7.0400    0.0000 C   0  0  0  0  0  0  0  0  0  0  0  0
   10.1694   -6.6275    0.0000 C   0  0  0  0  0  0  0  0  0  0  0  0
   10.8838   -7.0400    0.0000 C   0  0  0  0  0  0  0  0  0  0  0  0
   10.8838   -7.8650    0.0000 C   0  0  0  0  0  0  0  0  0  0  0  0
   11.5983   -8.2775    0.0000 C   0  0  0  0  0  0  0  0  0  0  0  0
   12.3128   -7.8650    0.0000 C   0  0  0  0  0  0  0  0  0  0  0  0
   12.3128   -7.0400    0.0000 C   0  0  0  0  0  0  0  0  0  0  0  0
   11.5983   -6.6275    0.0000 C   0  0  0  0  0  0  0  0  0  0  0  0
   13.0272   -6.6275    0.0000 O   0  0  0  0  0  0  0  0  0  0  0  0
   13.0272   -8.2775    0.0000 O   0  0  0  0  0  0  0  0  0  0  0  0
    5.1681   -5.3900    0.0000 C   0  0  2  0  0  0  0  0  0  0  0  0
    5.1681   -4.5650    0.0000 O   0  0  0  0  0  0  0  0  0  0  0  0
    4.4536   -4.1525    0.0000 C   0  0  2  0  0  0  0  0  0  0  0  0
    3.7391   -4.5650    0.0000 C   0  0  1  0  0  0  0  0  0  0  0  0
    3.7391   -5.3900    0.0000 C   0  0  2  0  0  0  0  0  0  0  0  0
    4.4536   -5.8025    0.0000 C   0  0  1  0  0  0  0  0  0  0  0  0
    3.0246   -4.1525    0.0000 O   0  0  0  0  0  0  0  0  0  0  0  0
    3.0246   -5.8025    0.0000 O   0  0  0  0  0  0  0  0  0  0  0  0
    4.4536   -6.6275    0.0000 O   0  0  0  0  0  0  0  0  0  0  0  0
    4.4536   -3.3275    0.0000 C   0  0  0  0  0  0  0  0  0  0  0  0
    5.8856   -9.1243    0.0000 C   0  0  0  0  0  0  0  0  0  0  0  0
    5.1790   -9.5503    0.0000 C   0  0  0  0  0  0  0  0  0  0  0  0
    2.2904   -7.9547    0.0000 O   0  0  0  0  0  0  0  0  0  0  0  0
    2.3217   -9.6044    0.0000 O   0  0  0  0  0  0  0  0  0  0  0  0
    3.7504   -9.5773    0.0000 C   0  0  0  0  0  0  0  0  0  0  0  0
    4.4569   -9.1514    0.0000 C   0  0  0  0  0  0  0  0  0  0  0  0
    4.4413   -8.3265    0.0000 C   0  0  0  0  0  0  0  0  0  0  0  0
    3.7191   -7.9276    0.0000 C   0  0  0  0  0  0  0  0  0  0  0  0
    3.0126   -8.3536    0.0000 C   0  0  0  0  0  0  0  0  0  0  0  0
    3.0282   -9.1784    0.0000 C   0  0  0  0  0  0  0  0  0  0  0  0
    6.6077   -9.5232    0.0000 C   0  0  0  0  0  0  0  0  0  0  0  0
    6.6233  -10.3480    0.0000 O   0  0  0  0  0  0  0  0  0  0  0  0
    7.3142   -9.0972    0.0000 O   0  0  0  0  0  0  0  0  0  0  0  0
  2  1  1  6  0  0  0
  2  3  1  0  0  0  0
  3  4  1  0  0  0  0
  4  5  1  0  0  0  0
  5  6  1  0  0  0  0
  6  7  1  0  0  0  0
  7  2  1  0  0  0  0
  6  8  1  6  0  0  0
  3  9  1  1  0  0  0
  5 10  1  1  0  0  0
 10 11  1  0  0  0  0
  9 12  1  0  0  0  0
 12 13  1  0  0  0  0
 13 14  1  0  0  0  0
 14 15  2  0  0  0  0
 15 16  1  0  0  0  0
 16 17  2  0  0  0  0
 17 18  1  0  0  0  0
 18 19  2  0  0  0  0
 19 14  1  0  0  0  0
 18 20  1  0  0  0  0
 17 21  1  0  0  0  0
 22 11  1  1  0  0  0
 22 23  1  0  0  0  0
 23 24  1  0  0  0  0
 24 25  1  0  0  0  0
 25 26  1  0  0  0  0
 26 27  1  0  0  0  0
 27 22  1  0  0  0  0
 25 28  1  1  0  0  0
 26 29  1  6  0  0  0
 27 30  1  6  0  0  0
 24 31  1  6  0  0  0
 33 32  2  0  0  0  0
 37 33  1  0  0  0  0
 40 34  1  0  0  0  0
 41 35  1  0  0  0  0
 36 41  1  0  0  0  0
 37 36  2  0  0  0  0
 38 37  1  0  0  0  0
 39 38  2  0  0  0  0
 40 39  1  0  0  0  0
 41 40  2  0  0  0  0
 32 42  1  0  0  0  0
 42 43  2  0  0  0  0
 42 44  1  0  0  0  0
  7 44  1  1  0  0  0
M  END
>  <cdx:fragmentId>
5

$$$$
