94383.cdx
  Mrv1902 05222410222D          

 35 39  0  0  0  0            999 V2000
    4.2107   -8.4028    0.0000 C   0  0  0  0  0  0  0  0  0  0  0  0
    4.2107   -9.2278    0.0000 C   0  0  1  0  0  0  0  0  0  0  0  0
    4.9252   -9.6403    0.0000 C   0  0  0  0  0  0  0  0  0  0  0  0
    5.6396   -9.2278    0.0000 C   0  0  2  0  0  0  0  0  0  0  0  0
    5.6396   -8.4028    0.0000 C   0  0  2  0  0  0  0  0  0  0  0  0
    4.9252   -7.9903    0.0000 C   0  0  1  0  0  0  0  0  0  0  0  0
    6.3541   -9.6403    0.0000 C   0  0  0  0  0  0  0  0  0  0  0  0
    7.0686   -9.2278    0.0000 C   0  0  0  0  0  0  0  0  0  0  0  0
    7.0686   -8.4028    0.0000 C   0  0  2  0  0  0  0  0  0  0  0  0
    6.3541   -7.9903    0.0000 C   0  0  2  0  0  0  0  0  0  0  0  0
    7.7830   -7.9903    0.0000 C   0  0  2  0  0  0  0  0  0  0  0  0
    7.7830   -7.1653    0.0000 C   0  0  2  0  0  0  0  0  0  0  0  0
    7.0686   -6.7528    0.0000 C   0  0  1  0  0  0  0  0  0  0  0  0
    6.3541   -7.1653    0.0000 C   0  0  2  0  0  0  0  0  0  0  0  0
    8.5677   -8.2453    0.0000 C   0  0  0  0  0  0  0  0  0  0  0  0
    9.0526   -7.5778    0.0000 C   0  0  2  0  0  0  0  0  0  0  0  0
    8.5677   -6.9104    0.0000 C   0  0  2  0  0  0  0  0  0  0  0  0
    8.8226   -6.1258    0.0000 C   0  0  0  0  0  0  0  0  0  0  0  0
    9.6296   -5.9542    0.0000 C   0  0  0  0  0  0  0  0  0  0  0  0
    9.8845   -5.1696    0.0000 C   0  0  0  0  0  0  0  0  0  0  0  0
    9.3325   -4.5565    0.0000 C   0  0  0  0  0  0  0  0  0  0  0  0
    8.5255   -4.7280    0.0000 O   0  0  0  0  0  0  0  0  0  0  0  0
    8.2706   -5.5127    0.0000 C   0  0  0  0  0  0  0  0  0  0  0  0
    3.4962   -9.6403    0.0000 O   0  0  0  0  0  0  0  0  0  0  0  0
    4.9252   -7.1653    0.0000 H   0  0  0  0  0  0  0  0  0  0  0  0
    5.6396   -7.5778    0.0000 C   0  0  0  0  0  0  0  0  0  0  0  0
    5.6396  -10.0528    0.0000 H   0  0  0  0  0  0  0  0  0  0  0  0
    7.8693   -6.3448    0.0000 C   0  0  0  0  0  0  0  0  0  0  0  0
    7.8693   -8.8108    0.0000 O   0  0  0  0  0  0  0  0  0  0  0  0
    9.8776   -7.5778    0.0000 H   0  0  0  0  0  0  0  0  0  0  0  0
    7.0686   -5.9278    0.0000 O   0  0  0  0  0  0  0  0  0  0  0  0
    9.5874   -3.7719    0.0000 O   0  0  0  0  0  0  0  0  0  0  0  0
    5.6396   -6.7528    0.0000 H   0  0  0  0  0  0  0  0  0  0  0  0
    6.3541   -8.8153    0.0000 H   0  0  0  0  0  0  0  0  0  0  0  0
    7.0686   -7.5778    0.0000 H   0  0  0  0  0  0  0  0  0  0  0  0
  1  2  1  0  0  0  0
  2  3  1  0  0  0  0
  3  4  1  0  0  0  0
  4  5  1  0  0  0  0
  5  6  1  0  0  0  0
  6  1  1  0  0  0  0
  4  7  1  0  0  0  0
  7  8  1  0  0  0  0
  8  9  1  0  0  0  0
  9 10  1  0  0  0  0
 10  5  1  0  0  0  0
  9 11  1  0  0  0  0
 11 12  1  0  0  0  0
 12 13  1  0  0  0  0
 13 14  1  0  0  0  0
 14 10  1  0  0  0  0
 11 15  1  0  0  0  0
 15 16  1  0  0  0  0
 16 17  1  0  0  0  0
 17 12  1  0  0  0  0
 17 18  1  1  0  0  0
 18 19  1  0  0  0  0
 19 20  2  0  0  0  0
 20 21  1  0  0  0  0
 21 22  1  0  0  0  0
 22 23  1  0  0  0  0
 23 18  2  0  0  0  0
  2 24  1  1  0  0  0
  6 25  1  1  0  0  0
  5 26  1  1  0  0  0
  4 27  1  1  0  0  0
 12 28  1  1  0  0  0
 11 29  1  1  0  0  0
 16 30  1  1  0  0  0
 13 31  1  1  0  0  0
 21 32  2  0  0  0  0
 14 33  1  6  0  0  0
 10 34  1  6  0  0  0
  9 35  1  1  0  0  0
M  END
>  <cdx:fragmentId>
5

$$$$
