94398.cdx
  Mrv1902 05222410242D          

 54 58  0  0  0  0            999 V2000
   14.3954   -9.9049    0.0000 C   0  0  0  0  0  0  0  0  0  0  0  0
   14.3954  -10.7299    0.0000 C   0  0  1  0  0  0  0  0  0  0  0  0
   15.1099  -11.1424    0.0000 C   0  0  0  0  0  0  0  0  0  0  0  0
   15.8243  -10.7299    0.0000 C   0  0  2  0  0  0  0  0  0  0  0  0
   15.8243   -9.9049    0.0000 C   0  0  2  0  0  0  0  0  0  0  0  0
   15.1099   -9.4924    0.0000 C   0  0  1  0  0  0  0  0  0  0  0  0
   16.5388  -11.1424    0.0000 C   0  0  0  0  0  0  0  0  0  0  0  0
   17.2533  -10.7299    0.0000 C   0  0  0  0  0  0  0  0  0  0  0  0
   17.2533   -9.9049    0.0000 C   0  0  2  0  0  0  0  0  0  0  0  0
   16.5388   -9.4924    0.0000 C   0  0  2  0  0  0  0  0  0  0  0  0
   17.9677   -9.4924    0.0000 C   0  0  2  0  0  0  0  0  0  0  0  0
   17.9677   -8.6674    0.0000 C   0  0  2  0  0  0  0  0  0  0  0  0
   17.2533   -8.2549    0.0000 C   0  0  0  0  0  0  0  0  0  0  0  0
   16.5388   -8.6674    0.0000 C   0  0  2  0  0  0  0  0  0  0  0  0
   18.7524   -9.7473    0.0000 C   0  0  0  0  0  0  0  0  0  0  0  0
   19.2373   -9.0799    0.0000 C   0  0  2  0  0  0  0  0  0  0  0  0
   18.7524   -8.4125    0.0000 C   0  0  2  0  0  0  0  0  0  0  0  0
   19.0073   -7.6278    0.0000 C   0  0  0  0  0  0  0  0  0  0  0  0
   19.8143   -7.4563    0.0000 C   0  0  0  0  0  0  0  0  0  0  0  0
   18.4553   -7.0147    0.0000 C   0  0  0  0  0  0  0  0  0  0  0  0
   20.0692   -6.6717    0.0000 C   0  0  0  0  0  0  0  0  0  0  0  0
   18.7102   -6.2301    0.0000 O   0  0  0  0  0  0  0  0  0  0  0  0
   19.5172   -6.0586    0.0000 C   0  0  0  0  0  0  0  0  0  0  0  0
   19.7721   -5.2740    0.0000 O   0  0  0  0  0  0  0  0  0  0  0  0
   13.6809  -11.1424    0.0000 O   0  0  0  0  0  0  0  0  0  0  0  0
   15.8243   -9.0799    0.0000 C   0  0  0  0  0  0  0  0  0  0  0  0
   15.8243  -11.5549    0.0000 O   0  0  0  0  0  0  0  0  0  0  0  0
   18.0540   -7.8469    0.0000 C   0  0  0  0  0  0  0  0  0  0  0  0
   20.0623   -9.0799    0.0000 H   0  0  0  0  0  0  0  0  0  0  0  0
   18.0540  -10.3129    0.0000 O   0  0  0  0  0  0  0  0  0  0  0  0
   15.8243   -8.2549    0.0000 H   0  0  0  0  0  0  0  0  0  0  0  0
   15.1099  -10.3174    0.0000 H   0  0  0  0  0  0  0  0  0  0  0  0
   15.1099   -8.6674    0.0000 O   0  0  0  0  0  0  0  0  0  0  0  0
   12.9664  -10.7299    0.0000 C   0  0  0  0  0  0  0  0  0  0  0  0
   12.2520  -11.1424    0.0000 C   0  0  0  0  0  0  0  0  0  0  0  0
   12.9664   -9.9049    0.0000 O   0  0  0  0  0  0  0  0  0  0  0  0
   11.5375  -10.7299    0.0000 C   0  0  0  0  0  0  0  0  0  0  0  0
   10.8230  -11.1424    0.0000 C   0  0  0  0  0  0  0  0  0  0  0  0
    6.5423   -7.0189    0.0000 N   0  0  0  0  0  0  0  0  0  0  0  0
    7.9712   -7.0189    0.0000 N   0  0  0  0  0  0  0  0  0  0  0  0
    7.2568   -7.4314    0.0000 C   0  0  0  0  0  0  0  0  0  0  0  0
    7.2568   -8.2564    0.0000 N   0  0  0  0  0  0  0  0  0  0  0  0
    7.9712   -8.6689    0.0000 C   0  0  0  0  0  0  0  0  0  0  0  0
    7.9712   -9.4939    0.0000 C   0  0  0  0  0  0  0  0  0  0  0  0
    7.9712  -11.9689    0.0000 O   0  0  0  0  0  0  0  0  0  0  0  0
    7.2568  -10.7314    0.0000 O   0  0  0  0  0  0  0  0  0  0  0  0
    8.6857   -9.9064    0.0000 C   0  0  0  0  0  0  0  0  0  0  0  0
    7.9712  -11.1439    0.0000 C   0  0  0  0  0  0  0  0  0  0  0  0
    8.6857  -10.7314    0.0000 C   0  0  1  0  0  0  0  0  0  0  0  0
   10.1147   -9.9064    0.0000 O   0  0  0  0  0  0  0  0  0  0  0  0
    9.4002  -11.1439    0.0000 N   0  0  0  0  0  0  0  0  0  0  0  0
   10.1147  -10.7314    0.0000 C   0  0  0  0  0  0  0  0  0  0  0  0
   16.5388  -10.3174    0.0000 H   0  0  0  0  0  0  0  0  0  0  0  0
   17.2533   -9.0799    0.0000 H   0  0  0  0  0  0  0  0  0  0  0  0
  1  2  1  0  0  0  0
  2  3  1  0  0  0  0
  3  4  1  0  0  0  0
  4  5  1  0  0  0  0
  5  6  1  0  0  0  0
  6  1  1  0  0  0  0
  4  7  1  0  0  0  0
  7  8  1  0  0  0  0
  8  9  1  0  0  0  0
  9 10  1  0  0  0  0
 10  5  1  0  0  0  0
  9 11  1  0  0  0  0
 11 12  1  0  0  0  0
 12 13  1  0  0  0  0
 13 14  1  0  0  0  0
 14 10  1  0  0  0  0
 11 15  1  0  0  0  0
 15 16  1  0  0  0  0
 16 17  1  0  0  0  0
 17 12  1  0  0  0  0
 17 18  1  1  0  0  0
 18 19  1  0  0  0  0
 18 20  2  0  0  0  0
 19 21  2  0  0  0  0
 20 22  1  0  0  0  0
 21 23  1  0  0  0  0
 22 23  1  0  0  0  0
 23 24  2  0  0  0  0
  2 25  1  1  0  0  0
  5 26  1  1  0  0  0
  4 27  1  1  0  0  0
 12 28  1  1  0  0  0
 16 29  1  1  0  0  0
 11 30  1  1  0  0  0
 14 31  1  6  0  0  0
  6 32  1  1  0  0  0
 26 33  2  0  0  0  0
 25 34  1  0  0  0  0
 34 35  1  0  0  0  0
 34 36  2  0  0  0  0
 35 37  1  0  0  0  0
 37 38  1  0  0  0  0
 41 39  1  0  0  0  0
 41 40  1  0  0  0  0
 42 41  2  0  0  0  0
 43 42  1  0  0  0  0
 44 43  1  0  0  0  0
 47 44  1  0  0  0  0
 48 45  2  0  0  0  0
 48 46  1  0  0  0  0
 49 47  1  0  0  0  0
 49 48  1  0  0  0  0
 49 51  1  6  0  0  0
 52 50  2  0  0  0  0
 52 51  1  0  0  0  0
 38 52  1  0  0  0  0
 10 53  1  6  0  0  0
  9 54  1  1  0  0  0
M  END
>  <cdx:fragmentId>
5

$$$$
