94394.cdx
  Mrv1902 05222410222D          

 54 58  0  0  0  0            999 V2000
   14.3954   -9.5199    0.0000 C   0  0  0  0  0  0  0  0  0  0  0  0
   14.3954  -10.3449    0.0000 C   0  0  1  0  0  0  0  0  0  0  0  0
   15.1099  -10.7574    0.0000 C   0  0  0  0  0  0  0  0  0  0  0  0
   15.8243  -10.3449    0.0000 C   0  0  2  0  0  0  0  0  0  0  0  0
   15.8243   -9.5199    0.0000 C   0  0  2  0  0  0  0  0  0  0  0  0
   15.1099   -9.1074    0.0000 C   0  0  1  0  0  0  0  0  0  0  0  0
   16.5388  -10.7574    0.0000 C   0  0  0  0  0  0  0  0  0  0  0  0
   17.2533  -10.3449    0.0000 C   0  0  0  0  0  0  0  0  0  0  0  0
   17.2533   -9.5199    0.0000 C   0  0  2  0  0  0  0  0  0  0  0  0
   16.5388   -9.1074    0.0000 C   0  0  2  0  0  0  0  0  0  0  0  0
   17.9677   -9.1074    0.0000 C   0  0  2  0  0  0  0  0  0  0  0  0
   17.9677   -8.2824    0.0000 C   0  0  2  0  0  0  0  0  0  0  0  0
   17.2533   -7.8699    0.0000 C   0  0  0  0  0  0  0  0  0  0  0  0
   16.5388   -8.2824    0.0000 C   0  0  2  0  0  0  0  0  0  0  0  0
   18.7524   -9.3623    0.0000 C   0  0  0  0  0  0  0  0  0  0  0  0
   19.2373   -8.6949    0.0000 C   0  0  2  0  0  0  0  0  0  0  0  0
   18.7524   -8.0275    0.0000 C   0  0  2  0  0  0  0  0  0  0  0  0
   19.0073   -7.2428    0.0000 C   0  0  0  0  0  0  0  0  0  0  0  0
   19.8143   -7.0713    0.0000 C   0  0  0  0  0  0  0  0  0  0  0  0
   18.4553   -6.6297    0.0000 C   0  0  0  0  0  0  0  0  0  0  0  0
   20.0692   -6.2867    0.0000 C   0  0  0  0  0  0  0  0  0  0  0  0
   18.7102   -5.8451    0.0000 O   0  0  0  0  0  0  0  0  0  0  0  0
   19.5172   -5.6736    0.0000 C   0  0  0  0  0  0  0  0  0  0  0  0
   19.7721   -4.8890    0.0000 O   0  0  0  0  0  0  0  0  0  0  0  0
   13.6809  -10.7574    0.0000 O   0  0  0  0  0  0  0  0  0  0  0  0
   15.8243   -8.6949    0.0000 C   0  0  0  0  0  0  0  0  0  0  0  0
   15.8243  -11.1699    0.0000 O   0  0  0  0  0  0  0  0  0  0  0  0
   18.0540   -7.4619    0.0000 C   0  0  0  0  0  0  0  0  0  0  0  0
   20.0623   -8.6949    0.0000 H   0  0  0  0  0  0  0  0  0  0  0  0
   18.0540   -9.9279    0.0000 O   0  0  0  0  0  0  0  0  0  0  0  0
   15.8243   -7.8699    0.0000 H   0  0  0  0  0  0  0  0  0  0  0  0
   15.1099   -8.2824    0.0000 H   0  0  0  0  0  0  0  0  0  0  0  0
   12.9664  -10.3449    0.0000 C   0  0  0  0  0  0  0  0  0  0  0  0
   12.2520  -10.7574    0.0000 C   0  0  0  0  0  0  0  0  0  0  0  0
   12.9664   -9.5199    0.0000 O   0  0  0  0  0  0  0  0  0  0  0  0
   11.5375  -10.3449    0.0000 C   0  0  0  0  0  0  0  0  0  0  0  0
   10.8230  -10.7574    0.0000 C   0  0  0  0  0  0  0  0  0  0  0  0
   10.1086  -10.3449    0.0000 C   0  0  0  0  0  0  0  0  0  0  0  0
    9.3941  -10.7574    0.0000 C   0  0  0  0  0  0  0  0  0  0  0  0
    8.6796  -10.3449    0.0000 N   0  0  0  0  0  0  0  0  0  0  0  0
    9.3941  -11.5824    0.0000 O   0  0  0  0  0  0  0  0  0  0  0  0
    7.9651  -10.7574    0.0000 C   0  0  2  0  0  0  0  0  0  0  0  0
    7.2507  -10.3449    0.0000 C   0  0  0  0  0  0  0  0  0  0  0  0
    6.5362  -10.7574    0.0000 O   0  0  0  0  0  0  0  0  0  0  0  0
    7.2507   -9.5199    0.0000 O   0  0  0  0  0  0  0  0  0  0  0  0
    7.9651  -11.5824    0.0000 C   0  0  0  0  0  0  0  0  0  0  0  0
    7.2507  -11.9949    0.0000 C   0  0  0  0  0  0  0  0  0  0  0  0
    7.2507  -12.8199    0.0000 C   0  0  0  0  0  0  0  0  0  0  0  0
    6.5362  -13.2324    0.0000 N   0  0  0  0  0  0  0  0  0  0  0  0
    6.5362  -14.0574    0.0000 C   0  0  0  0  0  0  0  0  0  0  0  0
    7.2507  -14.4699    0.0000 N   0  0  0  0  0  0  0  0  0  0  0  0
    5.8217  -14.4699    0.0000 N   0  0  0  0  0  0  0  0  0  0  0  0
   16.5388   -9.9324    0.0000 H   0  0  0  0  0  0  0  0  0  0  0  0
   17.2533   -8.6949    0.0000 H   0  0  0  0  0  0  0  0  0  0  0  0
  1  2  1  0  0  0  0
  2  3  1  0  0  0  0
  3  4  1  0  0  0  0
  4  5  1  0  0  0  0
  5  6  1  0  0  0  0
  6  1  1  0  0  0  0
  4  7  1  0  0  0  0
  7  8  1  0  0  0  0
  8  9  1  0  0  0  0
  9 10  1  0  0  0  0
 10  5  1  0  0  0  0
  9 11  1  0  0  0  0
 11 12  1  0  0  0  0
 12 13  1  0  0  0  0
 13 14  1  0  0  0  0
 14 10  1  0  0  0  0
 11 15  1  0  0  0  0
 15 16  1  0  0  0  0
 16 17  1  0  0  0  0
 17 12  1  0  0  0  0
 17 18  1  1  0  0  0
 18 19  1  0  0  0  0
 18 20  2  0  0  0  0
 19 21  2  0  0  0  0
 20 22  1  0  0  0  0
 21 23  1  0  0  0  0
 22 23  1  0  0  0  0
 23 24  2  0  0  0  0
  2 25  1  1  0  0  0
  5 26  1  1  0  0  0
  4 27  1  1  0  0  0
 12 28  1  1  0  0  0
 16 29  1  1  0  0  0
 11 30  1  1  0  0  0
 14 31  1  6  0  0  0
  6 32  1  1  0  0  0
 25 33  1  0  0  0  0
 33 34  1  0  0  0  0
 33 35  2  0  0  0  0
 34 36  1  0  0  0  0
 36 37  1  0  0  0  0
 37 38  1  0  0  0  0
 38 39  1  0  0  0  0
 39 40  1  0  0  0  0
 39 41  2  0  0  0  0
 42 40  1  1  0  0  0
 42 43  1  0  0  0  0
 43 44  1  0  0  0  0
 43 45  2  0  0  0  0
 42 46  1  0  0  0  0
 46 47  1  0  0  0  0
 47 48  1  0  0  0  0
 48 49  1  0  0  0  0
 49 50  2  0  0  0  0
 50 51  1  0  0  0  0
 50 52  1  0  0  0  0
 10 53  1  6  0  0  0
  9 54  1  1  0  0  0
M  END
>  <cdx:fragmentId>
5

$$$$
