94393.cdx
  Mrv1902 05222410212D          

 53 58  0  0  0  0            999 V2000
   14.3748   -9.4786    0.0000 C   0  0  0  0  0  0  0  0  0  0  0  0
   14.3748  -10.3036    0.0000 C   0  0  1  0  0  0  0  0  0  0  0  0
   15.0892  -10.7161    0.0000 C   0  0  0  0  0  0  0  0  0  0  0  0
   15.8037  -10.3036    0.0000 C   0  0  2  0  0  0  0  0  0  0  0  0
   15.8037   -9.4786    0.0000 C   0  0  2  0  0  0  0  0  0  0  0  0
   15.0892   -9.0661    0.0000 C   0  0  0  0  0  0  0  0  0  0  0  0
   16.5182  -10.7161    0.0000 C   0  0  0  0  0  0  0  0  0  0  0  0
   17.2326  -10.3036    0.0000 C   0  0  0  0  0  0  0  0  0  0  0  0
   17.2326   -9.4786    0.0000 C   0  0  2  0  0  0  0  0  0  0  0  0
   16.5182   -9.0661    0.0000 C   0  0  2  0  0  0  0  0  0  0  0  0
   17.9471   -9.0661    0.0000 C   0  0  2  0  0  0  0  0  0  0  0  0
   17.9471   -8.2411    0.0000 C   0  0  2  0  0  0  0  0  0  0  0  0
   17.2326   -7.8286    0.0000 C   0  0  2  0  0  0  0  0  0  0  0  0
   16.5182   -8.2411    0.0000 C   0  0  0  0  0  0  0  0  0  0  0  0
   18.7317   -9.3211    0.0000 C   0  0  1  0  0  0  0  0  0  0  0  0
   19.2167   -8.6536    0.0000 C   0  0  2  0  0  0  0  0  0  0  0  0
   18.7317   -7.9862    0.0000 C   0  0  2  0  0  0  0  0  0  0  0  0
   18.9867   -7.2016    0.0000 C   0  0  0  0  0  0  0  0  0  0  0  0
   19.7936   -7.0301    0.0000 C   0  0  0  0  0  0  0  0  0  0  0  0
   18.4346   -6.5885    0.0000 C   0  0  0  0  0  0  0  0  0  0  0  0
   20.0486   -6.2454    0.0000 C   0  0  0  0  0  0  0  0  0  0  0  0
   18.6896   -5.8039    0.0000 O   0  0  0  0  0  0  0  0  0  0  0  0
   19.4965   -5.6323    0.0000 C   0  0  0  0  0  0  0  0  0  0  0  0
   19.7515   -4.8477    0.0000 O   0  0  0  0  0  0  0  0  0  0  0  0
   13.6603  -10.7161    0.0000 O   0  0  0  0  0  0  0  0  0  0  0  0
   15.8037   -8.6536    0.0000 C   0  0  0  0  0  0  0  0  0  0  0  0
   15.8037  -11.1286    0.0000 O   0  0  0  0  0  0  0  0  0  0  0  0
   17.2326   -7.0036    0.0000 H   0  0  0  0  0  0  0  0  0  0  0  0
   18.0333   -7.4207    0.0000 C   0  0  0  0  0  0  0  0  0  0  0  0
   20.0417   -8.6536    0.0000 H   0  0  0  0  0  0  0  0  0  0  0  0
   18.0333   -9.8866    0.0000 O   0  0  0  0  0  0  0  0  0  0  0  0
   12.9458  -10.3036    0.0000 C   0  0  0  0  0  0  0  0  0  0  0  0
   12.2313  -10.7161    0.0000 C   0  0  0  0  0  0  0  0  0  0  0  0
   12.9458   -9.4786    0.0000 O   0  0  0  0  0  0  0  0  0  0  0  0
   11.5169  -10.3036    0.0000 C   0  0  0  0  0  0  0  0  0  0  0  0
   10.8024  -10.7161    0.0000 C   0  0  0  0  0  0  0  0  0  0  0  0
   10.0879  -10.3036    0.0000 C   0  0  0  0  0  0  0  0  0  0  0  0
    9.3735  -10.7161    0.0000 C   0  0  0  0  0  0  0  0  0  0  0  0
    8.6590  -10.3036    0.0000 N   0  0  0  0  0  0  0  0  0  0  0  0
    9.3735  -11.5411    0.0000 O   0  0  0  0  0  0  0  0  0  0  0  0
    7.9445  -10.7161    0.0000 C   0  0  2  0  0  0  0  0  0  0  0  0
    7.2300  -10.3036    0.0000 C   0  0  0  0  0  0  0  0  0  0  0  0
    6.5156  -10.7161    0.0000 O   0  0  0  0  0  0  0  0  0  0  0  0
    7.2300   -9.4786    0.0000 O   0  0  0  0  0  0  0  0  0  0  0  0
    7.9445  -11.5411    0.0000 C   0  0  0  0  0  0  0  0  0  0  0  0
    7.2300  -11.9536    0.0000 C   0  0  0  0  0  0  0  0  0  0  0  0
    7.2300  -12.7786    0.0000 C   0  0  0  0  0  0  0  0  0  0  0  0
    6.5156  -13.1911    0.0000 N   0  0  0  0  0  0  0  0  0  0  0  0
    6.5156  -14.0161    0.0000 C   0  0  0  0  0  0  0  0  0  0  0  0
    7.2300  -14.4286    0.0000 N   0  0  0  0  0  0  0  0  0  0  0  0
    5.8011  -14.4286    0.0000 N   0  0  0  0  0  0  0  0  0  0  0  0
   16.5182   -9.8911    0.0000 H   0  0  0  0  0  0  0  0  0  0  0  0
   17.2326   -8.6536    0.0000 H   0  0  0  0  0  0  0  0  0  0  0  0
  1  2  1  0  0  0  0
  2  3  1  0  0  0  0
  3  4  1  0  0  0  0
  4  5  1  0  0  0  0
  5  6  1  0  0  0  0
  6  1  1  0  0  0  0
  4  7  1  0  0  0  0
  7  8  1  0  0  0  0
  8  9  1  0  0  0  0
  9 10  1  0  0  0  0
 10  5  1  0  0  0  0
  9 11  1  0  0  0  0
 11 12  1  0  0  0  0
 12 13  1  0  0  0  0
 13 14  1  0  0  0  0
 14 10  1  0  0  0  0
 11 15  1  0  0  0  0
 15 16  1  0  0  0  0
 16 17  1  0  0  0  0
 17 12  1  0  0  0  0
 17 18  1  1  0  0  0
 18 19  1  0  0  0  0
 18 20  2  0  0  0  0
 19 21  2  0  0  0  0
 20 22  1  0  0  0  0
 21 23  1  0  0  0  0
 22 23  1  0  0  0  0
 23 24  2  0  0  0  0
  2 25  1  1  0  0  0
  5 26  1  1  0  0  0
  4 27  1  1  0  0  0
 13 28  1  1  0  0  0
 12 29  1  1  0  0  0
 16 30  1  1  0  0  0
 11 31  1  1  0  0  0
 15 31  1  1  0  0  0
 25 32  1  0  0  0  0
 32 33  1  0  0  0  0
 32 34  2  0  0  0  0
 33 35  1  0  0  0  0
 35 36  1  0  0  0  0
 36 37  1  0  0  0  0
 37 38  1  0  0  0  0
 38 39  1  0  0  0  0
 38 40  2  0  0  0  0
 41 39  1  1  0  0  0
 41 42  1  0  0  0  0
 42 43  1  0  0  0  0
 42 44  2  0  0  0  0
 41 45  1  0  0  0  0
 45 46  1  0  0  0  0
 46 47  1  0  0  0  0
 47 48  1  0  0  0  0
 48 49  2  0  0  0  0
 49 50  1  0  0  0  0
 49 51  1  0  0  0  0
 10 52  1  6  0  0  0
  9 53  1  1  0  0  0
M  END
>  <cdx:fragmentId>
206

$$$$
