94396.cdx
  Mrv1902 05222410232D          

 56 61  0  0  0  0            999 V2000
   14.4023  -10.0011    0.0000 C   0  0  0  0  0  0  0  0  0  0  0  0
   14.4023  -10.8261    0.0000 C   0  0  1  0  0  0  0  0  0  0  0  0
   15.1167  -11.2386    0.0000 C   0  0  0  0  0  0  0  0  0  0  0  0
   15.8312  -10.8261    0.0000 C   0  0  2  0  0  0  0  0  0  0  0  0
   15.8312  -10.0011    0.0000 C   0  0  2  0  0  0  0  0  0  0  0  0
   15.1167   -9.5886    0.0000 C   0  0  0  0  0  0  0  0  0  0  0  0
   16.5457  -11.2386    0.0000 C   0  0  0  0  0  0  0  0  0  0  0  0
   17.2601  -10.8261    0.0000 C   0  0  0  0  0  0  0  0  0  0  0  0
   17.2601  -10.0011    0.0000 C   0  0  2  0  0  0  0  0  0  0  0  0
   16.5457   -9.5886    0.0000 C   0  0  2  0  0  0  0  0  0  0  0  0
   17.9746   -9.5886    0.0000 C   0  0  2  0  0  0  0  0  0  0  0  0
   17.9746   -8.7636    0.0000 C   0  0  2  0  0  0  0  0  0  0  0  0
   17.2601   -8.3511    0.0000 C   0  0  2  0  0  0  0  0  0  0  0  0
   16.5457   -8.7636    0.0000 C   0  0  0  0  0  0  0  0  0  0  0  0
   18.7592   -9.8436    0.0000 C   0  0  1  0  0  0  0  0  0  0  0  0
   19.2442   -9.1761    0.0000 C   0  0  2  0  0  0  0  0  0  0  0  0
   18.7592   -8.5087    0.0000 C   0  0  2  0  0  0  0  0  0  0  0  0
   19.0142   -7.7241    0.0000 C   0  0  0  0  0  0  0  0  0  0  0  0
   19.8211   -7.5526    0.0000 C   0  0  0  0  0  0  0  0  0  0  0  0
   18.4621   -7.1110    0.0000 C   0  0  0  0  0  0  0  0  0  0  0  0
   20.0761   -6.7679    0.0000 C   0  0  0  0  0  0  0  0  0  0  0  0
   18.7171   -6.3264    0.0000 O   0  0  0  0  0  0  0  0  0  0  0  0
   19.5240   -6.1548    0.0000 C   0  0  0  0  0  0  0  0  0  0  0  0
   19.7790   -5.3702    0.0000 O   0  0  0  0  0  0  0  0  0  0  0  0
   13.6878  -11.2386    0.0000 O   0  0  0  0  0  0  0  0  0  0  0  0
   15.8312   -9.1761    0.0000 C   0  0  0  0  0  0  0  0  0  0  0  0
   15.8312  -11.6511    0.0000 H   0  0  0  0  0  0  0  0  0  0  0  0
   17.2601   -7.5261    0.0000 H   0  0  0  0  0  0  0  0  0  0  0  0
   18.0608   -7.9432    0.0000 C   0  0  0  0  0  0  0  0  0  0  0  0
   20.0692   -9.1761    0.0000 H   0  0  0  0  0  0  0  0  0  0  0  0
   18.0608  -10.4091    0.0000 O   0  0  0  0  0  0  0  0  0  0  0  0
   12.9733  -10.8261    0.0000 C   0  0  0  0  0  0  0  0  0  0  0  0
   12.2588  -11.2386    0.0000 C   0  0  0  0  0  0  0  0  0  0  0  0
   12.9733  -10.0011    0.0000 O   0  0  0  0  0  0  0  0  0  0  0  0
    3.6881   -7.1152    0.0000 N   0  0  0  0  0  0  0  0  0  0  0  0
    5.1171   -7.1152    0.0000 N   0  0  0  0  0  0  0  0  0  0  0  0
    4.4026   -7.5277    0.0000 C   0  0  0  0  0  0  0  0  0  0  0  0
    4.4026   -8.3527    0.0000 N   0  0  0  0  0  0  0  0  0  0  0  0
    5.1171   -8.7652    0.0000 C   0  0  0  0  0  0  0  0  0  0  0  0
    5.1171   -9.5902    0.0000 C   0  0  0  0  0  0  0  0  0  0  0  0
    5.8315  -10.0027    0.0000 C   0  0  0  0  0  0  0  0  0  0  0  0
    5.1171  -12.0652    0.0000 O   0  0  0  0  0  0  0  0  0  0  0  0
    4.4026  -10.8277    0.0000 O   0  0  0  0  0  0  0  0  0  0  0  0
    5.1171  -11.2402    0.0000 C   0  0  0  0  0  0  0  0  0  0  0  0
    5.8315  -10.8277    0.0000 C   0  0  1  0  0  0  0  0  0  0  0  0
    7.2605  -10.0027    0.0000 O   0  0  0  0  0  0  0  0  0  0  0  0
    6.5460  -11.2402    0.0000 N   0  0  0  0  0  0  0  0  0  0  0  0
    7.2605  -10.8277    0.0000 C   0  0  0  0  0  0  0  0  0  0  0  0
   11.5444  -10.8261    0.0000 C   0  0  0  0  0  0  0  0  0  0  0  0
    7.9699  -11.2386    0.0000 C   0  0  0  0  0  0  0  0  0  0  0  0
   10.8299  -11.2386    0.0000 C   0  0  0  0  0  0  0  0  0  0  0  0
   10.1154  -10.8261    0.0000 C   0  0  0  0  0  0  0  0  0  0  0  0
    9.4010  -11.2386    0.0000 C   0  0  0  0  0  0  0  0  0  0  0  0
    8.6865  -10.8261    0.0000 C   0  0  0  0  0  0  0  0  0  0  0  0
   16.5457  -10.4136    0.0000 H   0  0  0  0  0  0  0  0  0  0  0  0
   17.2601   -9.1761    0.0000 H   0  0  0  0  0  0  0  0  0  0  0  0
  1  2  1  0  0  0  0
  2  3  1  0  0  0  0
  3  4  1  0  0  0  0
  4  5  1  0  0  0  0
  5  6  1  0  0  0  0
  6  1  1  0  0  0  0
  4  7  1  0  0  0  0
  7  8  1  0  0  0  0
  8  9  1  0  0  0  0
  9 10  1  0  0  0  0
 10  5  1  0  0  0  0
  9 11  1  0  0  0  0
 11 12  1  0  0  0  0
 12 13  1  0  0  0  0
 13 14  1  0  0  0  0
 14 10  1  0  0  0  0
 11 15  1  0  0  0  0
 15 16  1  0  0  0  0
 16 17  1  0  0  0  0
 17 12  1  0  0  0  0
 17 18  1  1  0  0  0
 18 19  1  0  0  0  0
 18 20  2  0  0  0  0
 19 21  2  0  0  0  0
 20 22  1  0  0  0  0
 21 23  1  0  0  0  0
 22 23  1  0  0  0  0
 23 24  2  0  0  0  0
  2 25  1  1  0  0  0
  5 26  1  1  0  0  0
  4 27  1  1  0  0  0
 13 28  1  1  0  0  0
 12 29  1  1  0  0  0
 16 30  1  1  0  0  0
 11 31  1  1  0  0  0
 15 31  1  1  0  0  0
 25 32  1  0  0  0  0
 32 33  1  0  0  0  0
 32 34  2  0  0  0  0
 37 35  1  0  0  0  0
 37 36  1  0  0  0  0
 38 37  2  0  0  0  0
 39 38  1  0  0  0  0
 40 39  1  0  0  0  0
 41 40  1  0  0  0  0
 45 41  1  0  0  0  0
 44 42  2  0  0  0  0
 44 43  1  0  0  0  0
 45 44  1  0  0  0  0
 45 47  1  6  0  0  0
 48 46  2  0  0  0  0
 48 47  1  0  0  0  0
 33 49  1  0  0  0  0
 50 48  1  0  0  0  0
 49 51  1  0  0  0  0
 51 52  1  0  0  0  0
 52 53  1  0  0  0  0
 53 54  1  0  0  0  0
 50 54  1  0  0  0  0
 10 55  1  6  0  0  0
  9 56  1  1  0  0  0
M  END
>  <cdx:fragmentId>
206

$$$$
