94419.cdx
  Mrv1902 05222410222D          

 56 61  0  0  0  0            999 V2000
   14.3748   -9.2311    0.0000 C   0  0  0  0  0  0  0  0  0  0  0  0
   14.3748  -10.0561    0.0000 C   0  0  1  0  0  0  0  0  0  0  0  0
   15.0892  -10.4686    0.0000 C   0  0  0  0  0  0  0  0  0  0  0  0
   15.8037  -10.0561    0.0000 C   0  0  2  0  0  0  0  0  0  0  0  0
   15.8037   -9.2311    0.0000 C   0  0  2  0  0  0  0  0  0  0  0  0
   15.0892   -8.8186    0.0000 C   0  0  0  0  0  0  0  0  0  0  0  0
   16.5182  -10.4686    0.0000 C   0  0  0  0  0  0  0  0  0  0  0  0
   17.2326  -10.0561    0.0000 C   0  0  0  0  0  0  0  0  0  0  0  0
   17.2326   -9.2311    0.0000 C   0  0  2  0  0  0  0  0  0  0  0  0
   16.5182   -8.8186    0.0000 C   0  0  2  0  0  0  0  0  0  0  0  0
   17.9471   -8.8186    0.0000 C   0  0  2  0  0  0  0  0  0  0  0  0
   17.9471   -7.9936    0.0000 C   0  0  2  0  0  0  0  0  0  0  0  0
   17.2326   -7.5811    0.0000 C   0  0  2  0  0  0  0  0  0  0  0  0
   16.5182   -7.9936    0.0000 C   0  0  0  0  0  0  0  0  0  0  0  0
   18.7317   -9.0736    0.0000 C   0  0  1  0  0  0  0  0  0  0  0  0
   19.2167   -8.4061    0.0000 C   0  0  2  0  0  0  0  0  0  0  0  0
   18.7317   -7.7387    0.0000 C   0  0  2  0  0  0  0  0  0  0  0  0
   18.9867   -6.9541    0.0000 C   0  0  0  0  0  0  0  0  0  0  0  0
   19.7936   -6.7826    0.0000 C   0  0  0  0  0  0  0  0  0  0  0  0
   18.4346   -6.3410    0.0000 C   0  0  0  0  0  0  0  0  0  0  0  0
   20.0486   -5.9979    0.0000 C   0  0  0  0  0  0  0  0  0  0  0  0
   18.6896   -5.5564    0.0000 O   0  0  0  0  0  0  0  0  0  0  0  0
   19.4965   -5.3848    0.0000 C   0  0  0  0  0  0  0  0  0  0  0  0
   19.7515   -4.6002    0.0000 O   0  0  0  0  0  0  0  0  0  0  0  0
   13.6603  -10.4686    0.0000 O   0  0  0  0  0  0  0  0  0  0  0  0
   15.8037   -8.4061    0.0000 C   0  0  0  0  0  0  0  0  0  0  0  0
   15.8037  -10.8811    0.0000 H   0  0  0  0  0  0  0  0  0  0  0  0
   17.2326   -6.7561    0.0000 H   0  0  0  0  0  0  0  0  0  0  0  0
   18.0333   -7.1732    0.0000 C   0  0  0  0  0  0  0  0  0  0  0  0
   20.0417   -8.4061    0.0000 H   0  0  0  0  0  0  0  0  0  0  0  0
   18.0333   -9.6391    0.0000 O   0  0  0  0  0  0  0  0  0  0  0  0
   15.0892   -7.9936    0.0000 O   0  0  0  0  0  0  0  0  0  0  0  0
   12.9458  -10.0561    0.0000 C   0  0  0  0  0  0  0  0  0  0  0  0
   12.2313  -10.4686    0.0000 C   0  0  0  0  0  0  0  0  0  0  0  0
   12.9458   -9.2311    0.0000 O   0  0  0  0  0  0  0  0  0  0  0  0
   11.5169  -10.0561    0.0000 C   0  0  0  0  0  0  0  0  0  0  0  0
   10.8024  -10.4686    0.0000 C   0  0  0  0  0  0  0  0  0  0  0  0
   10.0879  -10.0561    0.0000 C   0  0  0  0  0  0  0  0  0  0  0  0
    9.3735  -10.4686    0.0000 C   0  0  0  0  0  0  0  0  0  0  0  0
    8.6590  -10.0561    0.0000 C   0  0  0  0  0  0  0  0  0  0  0  0
    7.9445  -10.4686    0.0000 C   0  0  0  0  0  0  0  0  0  0  0  0
    7.2300  -10.0561    0.0000 N   0  0  0  0  0  0  0  0  0  0  0  0
    7.9445  -11.2936    0.0000 O   0  0  0  0  0  0  0  0  0  0  0  0
    6.5156  -10.4686    0.0000 C   0  0  2  0  0  0  0  0  0  0  0  0
    5.8011  -10.0561    0.0000 C   0  0  0  0  0  0  0  0  0  0  0  0
    5.0866  -10.4686    0.0000 O   0  0  0  0  0  0  0  0  0  0  0  0
    5.8011   -9.2311    0.0000 O   0  0  0  0  0  0  0  0  0  0  0  0
    6.5156  -11.2936    0.0000 C   0  0  0  0  0  0  0  0  0  0  0  0
    5.8011  -11.7061    0.0000 C   0  0  0  0  0  0  0  0  0  0  0  0
    5.8011  -12.5311    0.0000 C   0  0  0  0  0  0  0  0  0  0  0  0
    5.0866  -12.9436    0.0000 N   0  0  0  0  0  0  0  0  0  0  0  0
    5.0866  -13.7686    0.0000 C   0  0  0  0  0  0  0  0  0  0  0  0
    5.8011  -14.1811    0.0000 N   0  0  0  0  0  0  0  0  0  0  0  0
    4.3722  -14.1811    0.0000 N   0  0  0  0  0  0  0  0  0  0  0  0
   16.5182   -9.6436    0.0000 H   0  0  0  0  0  0  0  0  0  0  0  0
   17.2326   -8.4061    0.0000 H   0  0  0  0  0  0  0  0  0  0  0  0
  1  2  1  0  0  0  0
  2  3  1  0  0  0  0
  3  4  1  0  0  0  0
  4  5  1  0  0  0  0
  5  6  1  0  0  0  0
  6  1  1  0  0  0  0
  4  7  1  0  0  0  0
  7  8  1  0  0  0  0
  8  9  1  0  0  0  0
  9 10  1  0  0  0  0
 10  5  1  0  0  0  0
  9 11  1  0  0  0  0
 11 12  1  0  0  0  0
 12 13  1  0  0  0  0
 13 14  1  0  0  0  0
 14 10  1  0  0  0  0
 11 15  1  0  0  0  0
 15 16  1  0  0  0  0
 16 17  1  0  0  0  0
 17 12  1  0  0  0  0
 17 18  1  1  0  0  0
 18 19  1  0  0  0  0
 18 20  2  0  0  0  0
 19 21  2  0  0  0  0
 20 22  1  0  0  0  0
 21 23  1  0  0  0  0
 22 23  1  0  0  0  0
 23 24  2  0  0  0  0
  2 25  1  1  0  0  0
  5 26  1  1  0  0  0
  4 27  1  1  0  0  0
 13 28  1  1  0  0  0
 12 29  1  1  0  0  0
 16 30  1  1  0  0  0
 11 31  1  1  0  0  0
 15 31  1  1  0  0  0
 26 32  2  0  0  0  0
 25 33  1  0  0  0  0
 33 34  1  0  0  0  0
 33 35  2  0  0  0  0
 34 36  1  0  0  0  0
 36 37  1  0  0  0  0
 37 38  1  0  0  0  0
 38 39  1  0  0  0  0
 39 40  1  0  0  0  0
 40 41  1  0  0  0  0
 41 42  1  0  0  0  0
 41 43  2  0  0  0  0
 44 42  1  1  0  0  0
 44 45  1  0  0  0  0
 45 46  1  0  0  0  0
 45 47  2  0  0  0  0
 44 48  1  0  0  0  0
 48 49  1  0  0  0  0
 49 50  1  0  0  0  0
 50 51  1  0  0  0  0
 51 52  2  0  0  0  0
 52 53  1  0  0  0  0
 52 54  1  0  0  0  0
 10 55  1  6  0  0  0
  9 56  1  1  0  0  0
M  END
>  <cdx:fragmentId>
206

$$$$
