94417.cdx
  Mrv1902 05222410232D          

 57 61  0  0  0  0            999 V2000
   14.3679  -10.5924    0.0000 C   0  0  0  0  0  0  0  0  0  0  0  0
   14.3679  -11.4174    0.0000 C   0  0  1  0  0  0  0  0  0  0  0  0
   15.0824  -11.8299    0.0000 C   0  0  0  0  0  0  0  0  0  0  0  0
   15.7968  -11.4174    0.0000 C   0  0  2  0  0  0  0  0  0  0  0  0
   15.7968  -10.5924    0.0000 C   0  0  2  0  0  0  0  0  0  0  0  0
   15.0824  -10.1799    0.0000 C   0  0  1  0  0  0  0  0  0  0  0  0
   16.5113  -11.8299    0.0000 C   0  0  0  0  0  0  0  0  0  0  0  0
   17.2258  -11.4174    0.0000 C   0  0  0  0  0  0  0  0  0  0  0  0
   17.2258  -10.5924    0.0000 C   0  0  2  0  0  0  0  0  0  0  0  0
   16.5113  -10.1799    0.0000 C   0  0  2  0  0  0  0  0  0  0  0  0
   17.9402  -10.1799    0.0000 C   0  0  2  0  0  0  0  0  0  0  0  0
   17.9402   -9.3549    0.0000 C   0  0  2  0  0  0  0  0  0  0  0  0
   17.2258   -8.9424    0.0000 C   0  0  0  0  0  0  0  0  0  0  0  0
   16.5113   -9.3549    0.0000 C   0  0  2  0  0  0  0  0  0  0  0  0
   18.7249  -10.4348    0.0000 C   0  0  0  0  0  0  0  0  0  0  0  0
   19.2098   -9.7674    0.0000 C   0  0  2  0  0  0  0  0  0  0  0  0
   18.7249   -9.1000    0.0000 C   0  0  2  0  0  0  0  0  0  0  0  0
   18.9798   -8.3153    0.0000 C   0  0  0  0  0  0  0  0  0  0  0  0
   19.7868   -8.1438    0.0000 C   0  0  0  0  0  0  0  0  0  0  0  0
   18.4278   -7.7022    0.0000 C   0  0  0  0  0  0  0  0  0  0  0  0
   20.0417   -7.3592    0.0000 C   0  0  0  0  0  0  0  0  0  0  0  0
   18.6827   -6.9176    0.0000 O   0  0  0  0  0  0  0  0  0  0  0  0
   19.4897   -6.7461    0.0000 C   0  0  0  0  0  0  0  0  0  0  0  0
   19.7446   -5.9615    0.0000 O   0  0  0  0  0  0  0  0  0  0  0  0
   13.6534  -11.8299    0.0000 O   0  0  0  0  0  0  0  0  0  0  0  0
   15.7968   -9.7674    0.0000 C   0  0  0  0  0  0  0  0  0  0  0  0
   15.7968  -12.2424    0.0000 O   0  0  0  0  0  0  0  0  0  0  0  0
   18.0265   -8.5344    0.0000 C   0  0  0  0  0  0  0  0  0  0  0  0
   20.0348   -9.7674    0.0000 H   0  0  0  0  0  0  0  0  0  0  0  0
   18.0265  -11.0004    0.0000 O   0  0  0  0  0  0  0  0  0  0  0  0
   15.7968   -8.9424    0.0000 H   0  0  0  0  0  0  0  0  0  0  0  0
   15.0824  -11.0104    0.0000 H   0  0  0  0  0  0  0  0  0  0  0  0
   15.0824   -9.3549    0.0000 O   0  0  0  0  0  0  0  0  0  0  0  0
   12.9389  -11.4174    0.0000 C   0  0  0  0  0  0  0  0  0  0  0  0
   12.2245  -11.8299    0.0000 C   0  0  0  0  0  0  0  0  0  0  0  0
   12.9389  -10.5924    0.0000 O   0  0  0  0  0  0  0  0  0  0  0  0
   11.5100  -11.4174    0.0000 C   0  0  0  0  0  0  0  0  0  0  0  0
   10.7955  -11.8299    0.0000 C   0  0  0  0  0  0  0  0  0  0  0  0
   10.0811  -11.4174    0.0000 C   0  0  0  0  0  0  0  0  0  0  0  0
    9.3666  -11.8299    0.0000 C   0  0  0  0  0  0  0  0  0  0  0  0
    8.6521  -11.4174    0.0000 C   0  0  0  0  0  0  0  0  0  0  0  0
    7.9376  -11.8299    0.0000 C   0  0  0  0  0  0  0  0  0  0  0  0
    7.2232  -11.4174    0.0000 N   0  0  0  0  0  0  0  0  0  0  0  0
    7.9376  -12.6549    0.0000 O   0  0  0  0  0  0  0  0  0  0  0  0
    6.5087  -11.8299    0.0000 C   0  0  2  0  0  0  0  0  0  0  0  0
    5.7942  -11.4174    0.0000 C   0  0  0  0  0  0  0  0  0  0  0  0
    5.0798  -11.8299    0.0000 O   0  0  0  0  0  0  0  0  0  0  0  0
    5.7942  -10.5924    0.0000 O   0  0  0  0  0  0  0  0  0  0  0  0
    6.5087  -12.6549    0.0000 C   0  0  0  0  0  0  0  0  0  0  0  0
    5.7942  -13.0674    0.0000 C   0  0  0  0  0  0  0  0  0  0  0  0
    5.7942  -13.8924    0.0000 C   0  0  0  0  0  0  0  0  0  0  0  0
    5.0798  -14.3049    0.0000 N   0  0  0  0  0  0  0  0  0  0  0  0
    5.0798  -15.1299    0.0000 C   0  0  0  0  0  0  0  0  0  0  0  0
    5.7942  -15.5424    0.0000 N   0  0  0  0  0  0  0  0  0  0  0  0
    4.3653  -15.5424    0.0000 N   0  0  0  0  0  0  0  0  0  0  0  0
   16.5113  -11.0049    0.0000 H   0  0  0  0  0  0  0  0  0  0  0  0
   17.2258   -9.7674    0.0000 H   0  0  0  0  0  0  0  0  0  0  0  0
  1  2  1  0  0  0  0
  2  3  1  0  0  0  0
  3  4  1  0  0  0  0
  4  5  1  0  0  0  0
  5  6  1  0  0  0  0
  6  1  1  0  0  0  0
  4  7  1  0  0  0  0
  7  8  1  0  0  0  0
  8  9  1  0  0  0  0
  9 10  1  0  0  0  0
 10  5  1  0  0  0  0
  9 11  1  0  0  0  0
 11 12  1  0  0  0  0
 12 13  1  0  0  0  0
 13 14  1  0  0  0  0
 14 10  1  0  0  0  0
 11 15  1  0  0  0  0
 15 16  1  0  0  0  0
 16 17  1  0  0  0  0
 17 12  1  0  0  0  0
 17 18  1  1  0  0  0
 18 19  1  0  0  0  0
 18 20  2  0  0  0  0
 19 21  2  0  0  0  0
 20 22  1  0  0  0  0
 21 23  1  0  0  0  0
 22 23  1  0  0  0  0
 23 24  2  0  0  0  0
  2 25  1  1  0  0  0
  5 26  1  1  0  0  0
  4 27  1  1  0  0  0
 12 28  1  1  0  0  0
 16 29  1  1  0  0  0
 11 30  1  1  0  0  0
 14 31  1  6  0  0  0
  6 32  1  1  0  0  0
 26 33  1  0  0  0  0
 25 34  1  0  0  0  0
 34 35  1  0  0  0  0
 34 36  2  0  0  0  0
 35 37  1  0  0  0  0
 37 38  1  0  0  0  0
 38 39  1  0  0  0  0
 39 40  1  0  0  0  0
 40 41  1  0  0  0  0
 41 42  1  0  0  0  0
 42 43  1  0  0  0  0
 42 44  2  0  0  0  0
 45 43  1  1  0  0  0
 45 46  1  0  0  0  0
 46 47  1  0  0  0  0
 46 48  2  0  0  0  0
 45 49  1  0  0  0  0
 49 50  1  0  0  0  0
 50 51  1  0  0  0  0
 51 52  1  0  0  0  0
 52 53  2  0  0  0  0
 53 54  1  0  0  0  0
 53 55  1  0  0  0  0
 10 56  1  6  0  0  0
  9 57  1  1  0  0  0
M  END
>  <cdx:fragmentId>
5

$$$$
