94429.cdx
  Mrv1902 05222410242D          

 35 39  0  0  0  0            999 V2000
    3.7656   -8.3875    0.0000 C   0  0  0  0  0  0  0  0  0  0  0  0
    3.7656   -9.2125    0.0000 C   0  0  0  0  0  0  0  0  0  0  0  0
    4.4800   -9.6250    0.0000 C   0  0  0  0  0  0  0  0  0  0  0  0
    5.1945   -9.2125    0.0000 C   0  0  2  0  0  0  0  0  0  0  0  0
    5.1945   -8.3875    0.0000 C   0  0  2  0  0  0  0  0  0  0  0  0
    4.4800   -7.9750    0.0000 C   0  0  1  0  0  0  0  0  0  0  0  0
    5.9090   -9.6250    0.0000 C   0  0  0  0  0  0  0  0  0  0  0  0
    6.6234   -9.2125    0.0000 C   0  0  0  0  0  0  0  0  0  0  0  0
    6.6234   -8.3875    0.0000 C   0  0  2  0  0  0  0  0  0  0  0  0
    5.9090   -7.9750    0.0000 C   0  0  2  0  0  0  0  0  0  0  0  0
    7.3379   -7.9750    0.0000 C   0  0  2  0  0  0  0  0  0  0  0  0
    7.3379   -7.1500    0.0000 C   0  0  2  0  0  0  0  0  0  0  0  0
    6.6234   -6.7375    0.0000 C   0  0  0  0  0  0  0  0  0  0  0  0
    5.9090   -7.1500    0.0000 C   0  0  1  0  0  0  0  0  0  0  0  0
    8.1225   -8.2299    0.0000 C   0  0  0  0  0  0  0  0  0  0  0  0
    8.6075   -7.5625    0.0000 C   0  0  2  0  0  0  0  0  0  0  0  0
    8.1225   -6.8951    0.0000 C   0  0  2  0  0  0  0  0  0  0  0  0
    3.0511   -9.6250    0.0000 O   0  0  0  0  0  0  0  0  0  0  0  0
    5.1945   -6.7375    0.0000 O   0  0  0  0  0  0  0  0  0  0  0  0
    6.6234   -5.9125    0.0000 O   0  0  0  0  0  0  0  0  0  0  0  0
    8.3775   -6.1104    0.0000 C   0  0  0  0  0  0  0  0  0  0  0  0
    9.1844   -5.9389    0.0000 C   0  0  0  0  0  0  0  0  0  0  0  0
    9.4394   -5.1543    0.0000 C   0  0  0  0  0  0  0  0  0  0  0  0
    8.8873   -4.5412    0.0000 C   0  0  0  0  0  0  0  0  0  0  0  0
    8.0804   -4.7127    0.0000 O   0  0  0  0  0  0  0  0  0  0  0  0
    7.8254   -5.4973    0.0000 C   0  0  0  0  0  0  0  0  0  0  0  0
    9.1423   -3.7566    0.0000 O   0  0  0  0  0  0  0  0  0  0  0  0
    5.1945   -7.5625    0.0000 C   0  0  0  0  0  0  0  0  0  0  0  0
    7.4241   -6.3295    0.0000 C   0  0  0  0  0  0  0  0  0  0  0  0
    7.4241   -8.7955    0.0000 O   0  0  0  0  0  0  0  0  0  0  0  0
    9.4325   -7.5625    0.0000 H   0  0  0  0  0  0  0  0  0  0  0  0
    4.4800   -7.1500    0.0000 H   0  0  0  0  0  0  0  0  0  0  0  0
    5.1945  -10.0375    0.0000 H   0  0  0  0  0  0  0  0  0  0  0  0
    5.9090   -8.8000    0.0000 H   0  0  0  0  0  0  0  0  0  0  0  0
    6.6234   -7.5625    0.0000 H   0  0  0  0  0  0  0  0  0  0  0  0
  1  2  1  0  0  0  0
  2  3  1  0  0  0  0
  3  4  1  0  0  0  0
  4  5  1  0  0  0  0
  5  6  1  0  0  0  0
  6  1  1  0  0  0  0
  4  7  1  0  0  0  0
  7  8  1  0  0  0  0
  8  9  1  0  0  0  0
  9 10  1  0  0  0  0
 10  5  1  0  0  0  0
  9 11  1  0  0  0  0
 11 12  1  0  0  0  0
 12 13  1  0  0  0  0
 13 14  1  0  0  0  0
 14 10  1  0  0  0  0
 11 15  1  0  0  0  0
 15 16  1  0  0  0  0
 16 17  1  0  0  0  0
 17 12  1  0  0  0  0
  2 18  2  0  0  0  0
 14 19  1  6  0  0  0
 13 20  2  0  0  0  0
 17 21  1  1  0  0  0
 21 22  1  0  0  0  0
 22 23  2  0  0  0  0
 23 24  1  0  0  0  0
 24 25  1  0  0  0  0
 25 26  1  0  0  0  0
 26 21  2  0  0  0  0
 24 27  2  0  0  0  0
  5 28  1  1  0  0  0
 12 29  1  1  0  0  0
 11 30  1  1  0  0  0
 16 31  1  1  0  0  0
  6 32  1  1  0  0  0
  4 33  1  1  0  0  0
 10 34  1  6  0  0  0
  9 35  1  1  0  0  0
M  END
>  <cdx:fragmentId>
5

$$$$
