94439.cdx
  Mrv1902 05222410252D          

 25 28  0  0  0  0            999 V2000
    4.9068   -5.7338    0.0000 C   0  0  0  0  0  0  0  0  0  0  0  0
    4.9068   -6.5587    0.0000 C   0  0  0  0  0  0  0  0  0  0  0  0
    5.6213   -6.9712    0.0000 N   0  0  0  0  0  0  0  0  0  0  0  0
    6.3357   -6.5587    0.0000 C   0  0  2  0  0  0  0  0  0  0  0  0
    6.3357   -5.7338    0.0000 C   0  0  2  0  0  0  0  0  0  0  0  0
    5.6213   -5.3213    0.0000 C   0  0  1  0  0  0  0  0  0  0  0  0
    7.0502   -6.9712    0.0000 C   0  0  1  0  0  0  0  0  0  0  0  0
    7.7647   -6.5587    0.0000 C   0  0  0  0  0  0  0  0  0  0  0  0
    7.7647   -5.7338    0.0000 C   0  0  0  0  0  0  0  0  0  0  0  0
    7.0502   -5.3213    0.0000 C   0  0  0  0  0  0  0  0  0  0  0  0
    5.6213   -7.7963    0.0000 C   0  0  0  0  0  0  0  0  0  0  0  0
    6.3357   -8.2088    0.0000 C   0  0  0  0  0  0  0  0  0  0  0  0
    7.0502   -7.7963    0.0000 C   0  0  0  0  0  0  0  0  0  0  0  0
    7.0502   -4.4962    0.0000 C   0  0  1  0  0  0  0  0  0  0  0  0
    6.2252   -4.4962    0.0000 C   0  0  2  0  0  0  0  0  0  0  0  0
    5.6213   -6.1463    0.0000 C   0  0  0  0  0  0  0  0  0  0  0  0
    5.7526   -3.8200    0.0000 C   0  0  0  0  0  0  0  0  0  0  0  0
    7.6336   -3.9129    0.0000 O   0  0  0  0  0  0  0  0  0  0  0  0
    5.0379   -4.7379    0.0000 O   0  0  0  0  0  0  0  0  0  0  0  0
    6.3357   -4.9088    0.0000 H   0  0  0  0  0  0  0  0  0  0  0  0
    7.4627   -7.6857    0.0000 H   0  0  0  0  0  0  0  0  0  0  0  0
    8.4792   -6.9712    0.0000 O   0  0  0  0  0  0  0  0  0  0  0  0
    4.2410   -4.5244    0.0000 C   0  0  0  0  0  0  0  0  0  0  0  0
    4.0275   -3.7275    0.0000 C   0  0  0  0  0  0  0  0  0  0  0  0
    3.6577   -5.1077    0.0000 O   0  0  0  0  0  0  0  0  0  0  0  0
  1  2  1  0  0  0  0
  2  3  1  0  0  0  0
  3  4  1  0  0  0  0
  4  5  1  0  0  0  0
  5  6  1  0  0  0  0
  6  1  1  0  0  0  0
  4  7  1  0  0  0  0
  7  8  1  0  0  0  0
  8  9  1  0  0  0  0
  9 10  1  0  0  0  0
 10  5  1  0  0  0  0
  3 11  1  0  0  0  0
 11 12  1  0  0  0  0
 12 13  1  0  0  0  0
 13  7  1  0  0  0  0
 10 14  1  0  0  0  0
 14 15  1  0  0  0  0
  4 16  1  1  0  0  0
 15 16  1  0  0  0  0
 15 17  1  6  0  0  0
 14 18  1  1  0  0  0
  6 19  1  6  0  0  0
  5 20  1  1  0  0  0
  7 21  1  6  0  0  0
  8 22  2  0  0  0  0
 19 23  1  0  0  0  0
 23 24  1  0  0  0  0
 23 25  2  0  0  0  0
M  END
>  <cdx:fragmentId>
5

$$$$
