94432.cdx
  Mrv1902 05222410232D          

 20 19  0  0  0  0            999 V2000
   10.6009   -8.9699    0.0000 O   0  0  0  0  0  0  0  0  0  0  0  0
    9.8864   -8.5574    0.0000 C   0  0  0  0  0  0  0  0  0  0  0  0
    9.1720   -8.9699    0.0000 C   0  0  0  0  0  0  0  0  0  0  0  0
    9.8864   -7.7324    0.0000 O   0  0  0  0  0  0  0  0  0  0  0  0
    8.4575   -8.5574    0.0000 C   0  0  0  0  0  0  0  0  0  0  0  0
    7.7430   -8.9699    0.0000 C   0  0  0  0  0  0  0  0  0  0  0  0
    3.4623   -4.8464    0.0000 N   0  0  0  0  0  0  0  0  0  0  0  0
    4.8912   -4.8464    0.0000 N   0  0  0  0  0  0  0  0  0  0  0  0
    4.1768   -5.2589    0.0000 C   0  0  0  0  0  0  0  0  0  0  0  0
    4.1768   -6.0839    0.0000 N   0  0  0  0  0  0  0  0  0  0  0  0
    4.8912   -6.4964    0.0000 C   0  0  0  0  0  0  0  0  0  0  0  0
    4.8912   -7.3214    0.0000 C   0  0  0  0  0  0  0  0  0  0  0  0
    5.6057   -7.7339    0.0000 C   0  0  0  0  0  0  0  0  0  0  0  0
    4.8912   -9.7964    0.0000 O   0  0  0  0  0  0  0  0  0  0  0  0
    4.1768   -8.5589    0.0000 O   0  0  0  0  0  0  0  0  0  0  0  0
    4.8912   -8.9714    0.0000 C   0  0  0  0  0  0  0  0  0  0  0  0
    5.6057   -8.5589    0.0000 C   0  0  1  0  0  0  0  0  0  0  0  0
    7.0347   -7.7339    0.0000 O   0  0  0  0  0  0  0  0  0  0  0  0
    6.3202   -8.9714    0.0000 N   0  0  0  0  0  0  0  0  0  0  0  0
    7.0347   -8.5589    0.0000 C   0  0  0  0  0  0  0  0  0  0  0  0
  1  2  1  0  0  0  0
  2  3  1  0  0  0  0
  2  4  2  0  0  0  0
  3  5  1  0  0  0  0
  5  6  1  0  0  0  0
  9  7  1  0  0  0  0
  9  8  1  0  0  0  0
 10  9  2  0  0  0  0
 11 10  1  0  0  0  0
 12 11  1  0  0  0  0
 13 12  1  0  0  0  0
 17 13  1  0  0  0  0
 16 14  2  0  0  0  0
 16 15  1  0  0  0  0
 17 16  1  0  0  0  0
 17 19  1  6  0  0  0
 20 18  2  0  0  0  0
 20 19  1  0  0  0  0
  6 20  1  0  0  0  0
M  END
>  <cdx:fragmentId>
84

$$$$
