94438.cdx
  Mrv1902 05222410252D          

 21 24  0  0  0  0            999 V2000
    5.8143   -9.2125    0.0000 N   0  0  0  0  0  0  0  0  0  0  0  0
    5.8143  -10.0375    0.0000 C   0  0  0  0  0  0  0  0  0  0  0  0
    6.5288  -10.4500    0.0000 C   0  0  0  0  0  0  0  0  0  0  0  0
    7.2432  -10.0375    0.0000 C   0  0  0  0  0  0  0  0  0  0  0  0
    7.2432   -9.2125    0.0000 C   0  0  1  0  0  0  0  0  0  0  0  0
    6.5288   -8.8000    0.0000 C   0  0  1  0  0  0  0  0  0  0  0  0
    7.9577   -8.8000    0.0000 C   0  0  0  0  0  0  0  0  0  0  0  0
    7.9577   -7.9750    0.0000 C   0  0  0  0  0  0  0  0  0  0  0  0
    7.2432   -7.5625    0.0000 C   0  0  0  0  0  0  0  0  0  0  0  0
    6.5288   -7.9750    0.0000 C   0  0  1  0  0  0  0  0  0  0  0  0
    5.8143   -7.5625    0.0000 C   0  0  0  0  0  0  0  0  0  0  0  0
    5.0998   -7.9750    0.0000 C   0  0  0  0  0  0  0  0  0  0  0  0
    5.0998   -8.8000    0.0000 C   0  0  0  0  0  0  0  0  0  0  0  0
    8.6722   -9.2125    0.0000 O   0  0  0  0  0  0  0  0  0  0  0  0
    7.2432   -6.7375    0.0000 C   0  0  1  0  0  0  0  0  0  0  0  0
    5.8143   -8.3875    0.0000 C   0  0  0  0  0  0  0  0  0  0  0  0
    6.4182   -6.7375    0.0000 C   0  0  2  0  0  0  0  0  0  0  0  0
    5.9457   -6.0613    0.0000 C   0  0  0  0  0  0  0  0  0  0  0  0
    7.8266   -6.1541    0.0000 O   0  0  0  0  0  0  0  0  0  0  0  0
    6.5288   -7.1500    0.0000 H   0  0  0  0  0  0  0  0  0  0  0  0
    7.9577   -9.6250    0.0000 O   0  0  0  0  0  0  0  0  0  0  0  0
  1  2  1  0  0  0  0
  2  3  1  0  0  0  0
  3  4  1  0  0  0  0
  4  5  1  0  0  0  0
  5  6  1  0  0  0  0
  6  1  1  0  0  0  0
  5  7  1  0  0  0  0
  7  8  1  0  0  0  0
  8  9  1  0  0  0  0
  9 10  1  0  0  0  0
 10  6  1  0  0  0  0
 10 11  1  0  0  0  0
 11 12  1  0  0  0  0
 12 13  1  0  0  0  0
 13  1  1  0  0  0  0
  7 14  2  0  0  0  0
  9 15  1  0  0  0  0
  6 16  1  1  0  0  0
 15 17  1  0  0  0  0
 16 17  1  0  0  0  0
 17 18  1  6  0  0  0
 15 19  1  1  0  0  0
 10 20  1  1  0  0  0
  5 21  1  6  0  0  0
M  END
>  <cdx:fragmentId>
5

$$$$
