94436.cdx
  Mrv1902 05222410212D          

 20 22  0  0  0  0            999 V2000
    6.4881   -8.8413    0.0000 N   0  0  0  0  0  0  0  0  0  0  0  0
    6.4881   -9.6662    0.0000 C   0  0  0  0  0  0  0  0  0  0  0  0
    7.2025  -10.0787    0.0000 C   0  0  0  0  0  0  0  0  0  0  0  0
    7.9170   -9.6662    0.0000 C   0  0  0  0  0  0  0  0  0  0  0  0
    7.9170   -8.8413    0.0000 C   0  0  0  0  0  0  0  0  0  0  0  0
    7.2025   -8.4288    0.0000 C   0  0  0  0  0  0  0  0  0  0  0  0
    7.2025   -7.6037    0.0000 C   0  0  2  0  0  0  0  0  0  0  0  0
    6.4881   -7.1913    0.0000 C   0  0  0  0  0  0  0  0  0  0  0  0
    5.7736   -7.6037    0.0000 C   0  0  0  0  0  0  0  0  0  0  0  0
    5.7736   -8.4288    0.0000 C   0  0  0  0  0  0  0  0  0  0  0  0
    8.6315   -8.4288    0.0000 C   0  0  2  0  0  0  0  0  0  0  0  0
    8.6315   -7.6037    0.0000 C   0  0  0  0  0  0  0  0  0  0  0  0
    7.9170   -7.1913    0.0000 C   0  0  0  0  0  0  0  0  0  0  0  0
    5.7736   -9.2538    0.0000 C   0  0  0  0  0  0  0  0  0  0  0  0
    7.9170   -6.3662    0.0000 C   0  0  0  0  0  0  0  0  0  0  0  0
    7.0920   -6.3662    0.0000 C   0  0  2  0  0  0  0  0  0  0  0  0
    6.4881   -8.0162    0.0000 C   0  0  0  0  0  0  0  0  0  0  0  0
    6.6795   -5.6518    0.0000 C   0  0  0  0  0  0  0  0  0  0  0  0
    9.3459   -8.8413    0.0000 O   0  0  0  0  0  0  0  0  0  0  0  0
    7.2025   -9.2538    0.0000 O   0  0  0  0  0  0  0  0  0  0  0  0
  1  2  1  0  0  0  0
  2  3  1  0  0  0  0
  3  4  1  0  0  0  0
  4  5  2  0  0  0  0
  6  7  1  0  0  0  0
  8  9  1  0  0  0  0
  9 10  1  0  0  0  0
 10  1  1  0  0  0  0
  5 11  1  0  0  0  0
 11 12  1  0  0  0  0
 12 13  1  0  0  0  0
 13  7  1  0  0  0  0
  1 14  1  0  0  0  0
 13 15  1  0  0  0  0
 15 16  1  0  0  0  0
  7  5  1  0  0  0  0
  6 17  1  1  0  0  0
  7  8  1  6  0  0  0
 16 18  1  6  0  0  0
 11 19  1  6  0  0  0
 17 16  1  0  0  0  0
  6 20  2  0  0  0  0
M  END
>  <cdx:fragmentId>
5

$$$$
