94433.cdx
  Mrv1902 05222410232D          

 37 42  0  0  0  0            999 V2000
    4.7556   -8.7450    0.0000 C   0  0  0  0  0  0  0  0  0  0  0  0
    4.7556   -9.5700    0.0000 C   0  0  1  0  0  0  0  0  0  0  0  0
    5.4700   -9.9825    0.0000 C   0  0  0  0  0  0  0  0  0  0  0  0
    6.1845   -9.5700    0.0000 C   0  0  2  0  0  0  0  0  0  0  0  0
    6.1845   -8.7450    0.0000 C   0  0  2  0  0  0  0  0  0  0  0  0
    5.4700   -8.3325    0.0000 C   0  0  0  0  0  0  0  0  0  0  0  0
    6.8990   -9.9825    0.0000 C   0  0  0  0  0  0  0  0  0  0  0  0
    7.6134   -9.5700    0.0000 C   0  0  0  0  0  0  0  0  0  0  0  0
    7.6134   -8.7450    0.0000 C   0  0  2  0  0  0  0  0  0  0  0  0
    6.8990   -8.3325    0.0000 C   0  0  2  0  0  0  0  0  0  0  0  0
    8.3279   -8.3325    0.0000 C   0  0  2  0  0  0  0  0  0  0  0  0
    8.3279   -7.5075    0.0000 C   0  0  2  0  0  0  0  0  0  0  0  0
    7.6134   -7.0950    0.0000 C   0  0  0  0  0  0  0  0  0  0  0  0
    6.8990   -7.5075    0.0000 C   0  0  0  0  0  0  0  0  0  0  0  0
    9.1125   -8.5874    0.0000 C   0  0  1  0  0  0  0  0  0  0  0  0
    9.5975   -7.9200    0.0000 C   0  0  0  0  0  0  0  0  0  0  0  0
    9.1125   -7.2526    0.0000 C   0  0  2  0  0  0  0  0  0  0  0  0
    4.0411   -9.9825    0.0000 O   0  0  0  0  0  0  0  0  0  0  0  0
    6.1845  -10.3950    0.0000 H   0  0  0  0  0  0  0  0  0  0  0  0
    6.1845   -7.9200    0.0000 C   0  0  0  0  0  0  0  0  0  0  0  0
    8.5414   -9.1294    0.0000 O   0  0  0  0  0  0  0  0  0  0  0  0
    8.4141   -6.6870    0.0000 C   0  0  0  0  0  0  0  0  0  0  0  0
    9.3675   -6.4679    0.0000 C   0  0  0  0  0  0  0  0  0  0  0  0
   10.4225   -7.9200    0.0000 O   0  0  0  0  0  0  0  0  0  0  0  0
    7.6134   -6.2700    0.0000 O   0  0  0  0  0  0  0  0  0  0  0  0
   10.1744   -6.2964    0.0000 C   0  0  0  0  0  0  0  0  0  0  0  0
   10.4294   -5.5118    0.0000 C   0  0  0  0  0  0  0  0  0  0  0  0
    9.8773   -4.8987    0.0000 C   0  0  0  0  0  0  0  0  0  0  0  0
    9.0704   -5.0702    0.0000 O   0  0  0  0  0  0  0  0  0  0  0  0
    8.8154   -5.8548    0.0000 C   0  0  0  0  0  0  0  0  0  0  0  0
   10.1323   -4.1141    0.0000 O   0  0  0  0  0  0  0  0  0  0  0  0
   10.8350   -8.6345    0.0000 C   0  0  0  0  0  0  0  0  0  0  0  0
   11.6600   -8.6345    0.0000 C   0  0  0  0  0  0  0  0  0  0  0  0
   10.4225   -9.3489    0.0000 O   0  0  0  0  0  0  0  0  0  0  0  0
   12.0725   -9.3489    0.0000 C   0  0  0  0  0  0  0  0  0  0  0  0
    6.8990   -9.1575    0.0000 H   0  0  0  0  0  0  0  0  0  0  0  0
    7.6134   -7.9200    0.0000 H   0  0  0  0  0  0  0  0  0  0  0  0
  1  2  1  0  0  0  0
  2  3  1  0  0  0  0
  3  4  1  0  0  0  0
  4  5  1  0  0  0  0
  5  6  1  0  0  0  0
  6  1  1  0  0  0  0
  4  7  1  0  0  0  0
  7  8  1  0  0  0  0
  8  9  1  0  0  0  0
  9 10  1  0  0  0  0
 10  5  1  0  0  0  0
  9 11  1  0  0  0  0
 11 12  1  0  0  0  0
 12 13  1  0  0  0  0
 13 14  1  0  0  0  0
 14 10  1  0  0  0  0
 11 15  1  0  0  0  0
 15 16  1  0  0  0  0
 16 17  1  0  0  0  0
 17 12  1  0  0  0  0
  2 18  1  1  0  0  0
  4 19  1  1  0  0  0
  5 20  1  1  0  0  0
 11 21  1  1  0  0  0
 15 21  1  1  0  0  0
 12 22  1  1  0  0  0
 17 23  1  1  0  0  0
 16 24  1  0  0  0  0
 13 25  1  0  0  0  0
 23 26  1  0  0  0  0
 26 27  2  0  0  0  0
 27 28  1  0  0  0  0
 28 29  1  0  0  0  0
 29 30  1  0  0  0  0
 30 23  2  0  0  0  0
 28 31  2  0  0  0  0
 24 32  1  0  0  0  0
 32 33  1  0  0  0  0
 32 34  2  0  0  0  0
 33 35  1  0  0  0  0
 10 36  1  6  0  0  0
  9 37  1  1  0  0  0
M  END
>  <cdx:fragmentId>
5

$$$$
