94444.cdx
  Mrv1902 05222410202D          

 33 36  0  0  0  0            999 V2000
    3.7656   -8.4150    0.0000 C   0  0  0  0  0  0  0  0  0  0  0  0
    3.7656   -9.2400    0.0000 C   0  0  1  0  0  0  0  0  0  0  0  0
    4.4800   -9.6525    0.0000 C   0  0  1  0  0  0  0  0  0  0  0  0
    5.1945   -9.2400    0.0000 C   0  0  0  0  0  0  0  0  0  0  0  0
    5.1945   -8.4150    0.0000 C   0  0  2  0  0  0  0  0  0  0  0  0
    4.4800   -8.0025    0.0000 C   0  0  0  0  0  0  0  0  0  0  0  0
    5.8395   -9.7544    0.0000 C   0  0  0  0  0  0  0  0  0  0  0  0
    6.6438   -9.5708    0.0000 C   0  0  0  0  0  0  0  0  0  0  0  0
    7.0018   -8.8275    0.0000 C   0  0  0  0  0  0  0  0  0  0  0  0
    6.6438   -8.0842    0.0000 O   0  0  0  0  0  0  0  0  0  0  0  0
    5.8395   -7.9006    0.0000 C   0  0  2  0  0  0  0  0  0  0  0  0
    7.8268   -8.8275    0.0000 O   0  0  0  0  0  0  0  0  0  0  0  0
    5.8395   -7.0756    0.0000 C   0  0  0  0  0  0  0  0  0  0  0  0
    6.6364   -6.8621    0.0000 C   0  0  0  0  0  0  0  0  0  0  0  0
    7.4333   -7.0756    0.0000 C   0  0  0  0  0  0  0  0  0  0  0  0
    7.4333   -7.9006    0.0000 C   0  0  0  0  0  0  0  0  0  0  0  0
    8.1478   -8.3131    0.0000 C   0  0  0  0  0  0  0  0  0  0  0  0
    8.8622   -7.9006    0.0000 C   0  0  0  0  0  0  0  0  0  0  0  0
    8.8622   -7.0756    0.0000 C   0  0  0  0  0  0  0  0  0  0  0  0
    8.1478   -6.6631    0.0000 C   0  0  2  0  0  0  0  0  0  0  0  0
    9.5767   -6.6631    0.0000 C   0  0  1  0  0  0  0  0  0  0  0  0
    9.5767   -5.8381    0.0000 C   0  0  2  0  0  0  0  0  0  0  0  0
    8.8622   -5.4256    0.0000 C   0  0  0  0  0  0  0  0  0  0  0  0
    8.1478   -5.8381    0.0000 C   0  0  0  0  0  0  0  0  0  0  0  0
    7.0763   -8.3681    0.0000 C   0  0  0  0  0  0  0  0  0  0  0  0
    3.0511   -9.6525    0.0000 O   0  0  0  0  0  0  0  0  0  0  0  0
    4.0675  -10.3670    0.0000 C   0  0  0  0  0  0  0  0  0  0  0  0
    5.1945   -7.5900    0.0000 C   0  0  0  0  0  0  0  0  0  0  0  0
   10.4017   -6.6631    0.0000 C   0  0  0  0  0  0  0  0  0  0  0  0
   10.2912   -5.4256    0.0000 O   0  0  0  0  0  0  0  0  0  0  0  0
    9.9892   -7.3776    0.0000 C   0  0  0  0  0  0  0  0  0  0  0  0
    8.1478   -7.4881    0.0000 C   0  0  0  0  0  0  0  0  0  0  0  0
    4.8925  -10.3670    0.0000 C   0  0  0  0  0  0  0  0  0  0  0  0
  1  2  1  0  0  0  0
  2  3  1  0  0  0  0
  3  4  1  0  0  0  0
  4  5  1  0  0  0  0
  5  6  1  0  0  0  0
  6  1  1  0  0  0  0
  4  7  1  0  0  0  0
  7  8  1  0  0  0  0
  8  9  1  0  0  0  0
  9 10  1  0  0  0  0
 10 11  1  0  0  0  0
 11  5  1  0  0  0  0
  9 12  2  0  0  0  0
 11 13  1  1  0  0  0
 13 14  1  0  0  0  0
 14 15  1  0  0  0  0
 15 16  1  0  0  0  0
 16 17  1  0  0  0  0
 17 18  1  0  0  0  0
 18 19  1  0  0  0  0
 19 20  1  0  0  0  0
 20 15  1  0  0  0  0
 19 21  1  0  0  0  0
 21 22  1  0  0  0  0
 22 23  1  0  0  0  0
 23 24  1  0  0  0  0
 24 20  1  0  0  0  0
 16 25  2  0  0  0  0
  2 26  1  1  0  0  0
  3 27  1  1  0  0  0
  5 28  1  1  0  0  0
 21 29  1  1  0  0  0
 22 30  1  6  0  0  0
 21 31  1  6  0  0  0
 20 32  1  6  0  0  0
  3 33  1  6  0  0  0
M  END
>  <cdx:fragmentId>
5

$$$$
