94448.cdx
  Mrv1902 05222410262D          

 34 39  0  0  0  0            999 V2000
    3.3118   -7.5900    0.0000 C   0  0  1  0  0  0  0  0  0  0  0  0
    3.3118   -8.4150    0.0000 C   0  0  1  0  0  0  0  0  0  0  0  0
    4.0263   -8.8275    0.0000 C   0  0  2  0  0  0  0  0  0  0  0  0
    4.7407   -8.4150    0.0000 C   0  0  0  0  0  0  0  0  0  0  0  0
    4.7407   -7.5900    0.0000 C   0  0  2  0  0  0  0  0  0  0  0  0
    4.0263   -7.1775    0.0000 C   0  0  0  0  0  0  0  0  0  0  0  0
    5.4552   -8.8275    0.0000 C   0  0  0  0  0  0  0  0  0  0  0  0
    6.1697   -8.4150    0.0000 C   0  0  0  0  0  0  0  0  0  0  0  0
    6.1697   -7.5900    0.0000 C   0  0  2  0  0  0  0  0  0  0  0  0
    5.4552   -7.1775    0.0000 C   0  0  0  0  0  0  0  0  0  0  0  0
    6.8842   -7.1775    0.0000 C   0  0  1  0  0  0  0  0  0  0  0  0
    6.8842   -6.3525    0.0000 C   0  0  1  0  0  0  0  0  0  0  0  0
    6.1697   -5.9400    0.0000 C   0  0  0  0  0  0  0  0  0  0  0  0
    5.4552   -6.3525    0.0000 C   0  0  0  0  0  0  0  0  0  0  0  0
    7.5986   -7.5900    0.0000 C   0  0  0  0  0  0  0  0  0  0  0  0
    8.3131   -7.1775    0.0000 C   0  0  0  0  0  0  0  0  0  0  0  0
    8.3131   -6.3525    0.0000 C   0  0  2  0  0  0  0  0  0  0  0  0
    7.5986   -5.9400    0.0000 C   0  0  0  0  0  0  0  0  0  0  0  0
    9.0276   -5.9400    0.0000 C   0  0  0  0  0  0  0  0  0  0  0  0
    9.0276   -5.1150    0.0000 C   0  0  0  0  0  0  0  0  0  0  0  0
    8.3131   -4.7025    0.0000 C   0  0  2  0  0  0  0  0  0  0  0  0
    7.5986   -5.1150    0.0000 C   0  0  2  0  0  0  0  0  0  0  0  0
    2.5973   -7.1775    0.0000 O   0  0  0  0  0  0  0  0  0  0  0  0
    8.3131   -3.8775    0.0000 C   0  0  0  0  0  0  0  0  0  0  0  0
    3.6138   -9.5420    0.0000 C   0  0  0  0  0  0  0  0  0  0  0  0
    4.4388   -9.5420    0.0000 C   0  0  0  0  0  0  0  0  0  0  0  0
    4.7407   -6.7650    0.0000 C   0  0  0  0  0  0  0  0  0  0  0  0
    6.1697   -6.7650    0.0000 C   0  0  0  0  0  0  0  0  0  0  0  0
    9.0276   -6.7650    0.0000 C   0  0  0  0  0  0  0  0  0  0  0  0
    6.8842   -4.7025    0.0000 C   0  0  0  0  0  0  0  0  0  0  0  0
    2.5973   -8.8275    0.0000 O   0  0  0  0  0  0  0  0  0  0  0  0
    9.7420   -6.3525    0.0000 O   0  0  0  0  0  0  0  0  0  0  0  0
    9.0276   -7.5900    0.0000 O   0  0  0  0  0  0  0  0  0  0  0  0
    7.5986   -6.7650    0.0000 C   0  0  0  0  0  0  0  0  0  0  0  0
  1  2  1  0  0  0  0
  2  3  1  0  0  0  0
  3  4  1  0  0  0  0
  4  5  1  0  0  0  0
  5  6  1  0  0  0  0
  6  1  1  0  0  0  0
  4  7  1  0  0  0  0
  7  8  1  0  0  0  0
  8  9  1  0  0  0  0
  9 10  1  0  0  0  0
 10  5  1  0  0  0  0
  9 11  1  0  0  0  0
 11 12  1  0  0  0  0
 12 13  1  0  0  0  0
 13 14  2  0  0  0  0
 14 10  1  0  0  0  0
 11 15  1  0  0  0  0
 15 16  1  0  0  0  0
 16 17  1  0  0  0  0
 17 18  1  0  0  0  0
 18 12  1  0  0  0  0
 17 19  1  0  0  0  0
 19 20  1  0  0  0  0
 20 21  1  0  0  0  0
 21 22  1  0  0  0  0
 22 18  1  0  0  0  0
  1 23  1  6  0  0  0
 21 24  1  6  0  0  0
  3 25  1  6  0  0  0
  3 26  1  1  0  0  0
  5 27  1  1  0  0  0
  9 28  1  1  0  0  0
 17 29  1  1  0  0  0
 22 30  1  1  0  0  0
  2 31  1  1  0  0  0
 29 32  1  0  0  0  0
 29 33  2  0  0  0  0
 12 34  1  6  0  0  0
 11 34  1  6  0  0  0
M  END
>  <cdx:fragmentId>
5

$$$$
