94443.cdx
  Mrv1902 05222410192D          

 33 37  0  0  0  0            999 V2000
    4.0956   -8.8000    0.0000 C   0  0  0  0  0  0  0  0  0  0  0  0
    4.0956   -9.6250    0.0000 C   0  0  0  0  0  0  0  0  0  0  0  0
    4.8100  -10.0375    0.0000 C   0  0  1  0  0  0  0  0  0  0  0  0
    5.5245   -9.6250    0.0000 C   0  0  0  0  0  0  0  0  0  0  0  0
    5.5245   -8.8000    0.0000 C   0  0  2  0  0  0  0  0  0  0  0  0
    4.8100   -8.3875    0.0000 C   0  0  0  0  0  0  0  0  0  0  0  0
    6.2390  -10.0375    0.0000 C   0  0  0  0  0  0  0  0  0  0  0  0
    6.9534   -9.6250    0.0000 C   0  0  0  0  0  0  0  0  0  0  0  0
    6.9534   -8.8000    0.0000 C   0  0  2  0  0  0  0  0  0  0  0  0
    6.2390   -8.3875    0.0000 C   0  0  0  0  0  0  0  0  0  0  0  0
    7.7214   -8.4986    0.0000 C   0  0  0  0  0  0  0  0  0  0  0  0
    7.9646   -7.7102    0.0000 C   0  0  0  0  0  0  0  0  0  0  0  0
    7.4998   -7.0286    0.0000 C   0  0  0  0  0  0  0  0  0  0  0  0
    6.6771   -6.9669    0.0000 C   0  0  0  0  0  0  0  0  0  0  0  0
    6.1160   -7.5717    0.0000 C   0  0  0  0  0  0  0  0  0  0  0  0
    8.7873   -7.6486    0.0000 C   0  0  0  0  0  0  0  0  0  0  0  0
    9.1452   -6.9053    0.0000 C   0  0  0  0  0  0  0  0  0  0  0  0
    8.6805   -6.2236    0.0000 C   0  0  0  0  0  0  0  0  0  0  0  0
    7.8578   -6.2853    0.0000 C   0  0  2  0  0  0  0  0  0  0  0  0
    9.0384   -5.4803    0.0000 C   0  0  1  0  0  0  0  0  0  0  0  0
    8.5737   -4.7987    0.0000 C   0  0  1  0  0  0  0  0  0  0  0  0
    7.7510   -4.8604    0.0000 C   0  0  0  0  0  0  0  0  0  0  0  0
    7.3931   -5.6037    0.0000 C   0  0  0  0  0  0  0  0  0  0  0  0
    4.3975  -10.7520    0.0000 C   0  0  0  0  0  0  0  0  0  0  0  0
    5.5245   -7.9750    0.0000 C   0  0  0  0  0  0  0  0  0  0  0  0
    7.0151   -7.9773    0.0000 C   0  0  0  0  0  0  0  0  0  0  0  0
    8.9317   -4.0554    0.0000 O   0  0  0  0  0  0  0  0  0  0  0  0
    9.7529   -5.0678    0.0000 C   0  0  0  0  0  0  0  0  0  0  0  0
    9.7529   -5.8928    0.0000 C   0  0  0  0  0  0  0  0  0  0  0  0
    8.2703   -6.9998    0.0000 C   0  0  0  0  0  0  0  0  0  0  0  0
    5.2225  -10.7520    0.0000 C   0  0  0  0  0  0  0  0  0  0  0  0
    3.3811  -10.0375    0.0000 O   0  0  0  0  0  0  0  0  0  0  0  0
    4.8100  -11.4664    0.0000 O   0  0  0  0  0  0  0  0  0  0  0  0
  1  2  1  0  0  0  0
  2  3  1  0  0  0  0
  3  4  1  0  0  0  0
  4  5  1  0  0  0  0
  5  6  1  0  0  0  0
  6  1  1  0  0  0  0
  4  7  1  0  0  0  0
  7  8  1  0  0  0  0
  8  9  1  0  0  0  0
  9 10  1  0  0  0  0
 10  5  1  0  0  0  0
  9 11  1  0  0  0  0
 11 12  1  0  0  0  0
 12 13  1  0  0  0  0
 13 14  1  0  0  0  0
 14 15  1  0  0  0  0
 15 10  1  0  0  0  0
 12 16  2  0  0  0  0
 16 17  1  0  0  0  0
 17 18  1  0  0  0  0
 18 19  1  0  0  0  0
 19 13  1  0  0  0  0
 18 20  1  0  0  0  0
 20 21  1  0  0  0  0
 21 22  1  0  0  0  0
 22 23  1  0  0  0  0
 23 19  1  0  0  0  0
  3 24  1  1  0  0  0
  5 25  1  1  0  0  0
  9 26  1  1  0  0  0
 21 27  1  1  0  0  0
 20 28  1  1  0  0  0
 20 29  1  6  0  0  0
 19 30  1  6  0  0  0
  3 31  1  6  0  0  0
  2 32  2  0  0  0  0
 24 33  1  0  0  0  0
M  END
>  <cdx:fragmentId>
5

$$$$
