94447.cdx
  Mrv1902 05222410192D          

 35 39  0  0  0  0            999 V2000
    4.4393   -8.5663    0.0000 C   0  0  1  0  0  0  0  0  0  0  0  0
    4.4393   -9.3913    0.0000 C   0  0  2  0  0  0  0  0  0  0  0  0
    5.1538   -9.8038    0.0000 C   0  0  2  0  0  0  0  0  0  0  0  0
    5.8682   -9.3913    0.0000 C   0  0  0  0  0  0  0  0  0  0  0  0
    5.8682   -8.5663    0.0000 C   0  0  2  0  0  0  0  0  0  0  0  0
    5.1538   -8.1538    0.0000 C   0  0  0  0  0  0  0  0  0  0  0  0
    6.5827   -9.8038    0.0000 C   0  0  0  0  0  0  0  0  0  0  0  0
    7.2972   -9.3913    0.0000 C   0  0  0  0  0  0  0  0  0  0  0  0
    7.2972   -8.5663    0.0000 C   0  0  2  0  0  0  0  0  0  0  0  0
    6.5827   -8.1538    0.0000 C   0  0  0  0  0  0  0  0  0  0  0  0
    8.0117   -8.1538    0.0000 C   0  0  1  0  0  0  0  0  0  0  0  0
    8.0117   -7.3287    0.0000 C   0  0  0  0  0  0  0  0  0  0  0  0
    7.2972   -6.9162    0.0000 C   0  0  0  0  0  0  0  0  0  0  0  0
    6.5827   -7.3287    0.0000 C   0  0  0  0  0  0  0  0  0  0  0  0
    8.7261   -8.5663    0.0000 C   0  0  0  0  0  0  0  0  0  0  0  0
    9.4406   -8.1538    0.0000 C   0  0  0  0  0  0  0  0  0  0  0  0
    9.4406   -7.3287    0.0000 C   0  0  2  0  0  0  0  0  0  0  0  0
    8.7261   -6.9162    0.0000 C   0  0  0  0  0  0  0  0  0  0  0  0
   10.1551   -6.9162    0.0000 C   0  0  0  0  0  0  0  0  0  0  0  0
   10.1551   -6.0912    0.0000 C   0  0  0  0  0  0  0  0  0  0  0  0
    9.4406   -5.6788    0.0000 C   0  0  0  0  0  0  0  0  0  0  0  0
    8.7261   -6.0912    0.0000 C   0  0  2  0  0  0  0  0  0  0  0  0
    3.7248   -8.1538    0.0000 O   0  0  0  0  0  0  0  0  0  0  0  0
    9.4406   -4.8538    0.0000 C   0  0  0  0  0  0  0  0  0  0  0  0
    4.7413  -10.5182    0.0000 C   0  0  0  0  0  0  0  0  0  0  0  0
    5.5663  -10.5182    0.0000 C   0  0  0  0  0  0  0  0  0  0  0  0
    5.8682   -7.7413    0.0000 C   0  0  0  0  0  0  0  0  0  0  0  0
    7.2972   -7.7413    0.0000 C   0  0  0  0  0  0  0  0  0  0  0  0
   10.1551   -7.7413    0.0000 C   0  0  0  0  0  0  0  0  0  0  0  0
    8.0117   -5.6788    0.0000 C   0  0  0  0  0  0  0  0  0  0  0  0
    5.1538  -11.2327    0.0000 O   0  0  0  0  0  0  0  0  0  0  0  0
    3.7248   -9.8038    0.0000 O   0  0  0  0  0  0  0  0  0  0  0  0
   10.8695   -7.3287    0.0000 O   0  0  0  0  0  0  0  0  0  0  0  0
   10.1551   -8.5663    0.0000 O   0  0  0  0  0  0  0  0  0  0  0  0
    8.0117   -8.9788    0.0000 C   0  0  0  0  0  0  0  0  0  0  0  0
  1  2  1  0  0  0  0
  2  3  1  0  0  0  0
  3  4  1  0  0  0  0
  4  5  1  0  0  0  0
  5  6  1  0  0  0  0
  6  1  1  0  0  0  0
  4  7  1  0  0  0  0
  7  8  1  0  0  0  0
  8  9  1  0  0  0  0
  9 10  1  0  0  0  0
 10  5  1  0  0  0  0
  9 11  1  0  0  0  0
 11 12  1  0  0  0  0
 12 13  2  0  0  0  0
 13 14  1  0  0  0  0
 14 10  1  0  0  0  0
 11 15  1  0  0  0  0
 15 16  1  0  0  0  0
 16 17  1  0  0  0  0
 17 18  1  0  0  0  0
 18 12  1  0  0  0  0
 17 19  1  0  0  0  0
 19 20  1  0  0  0  0
 20 21  1  0  0  0  0
 21 22  1  0  0  0  0
 22 18  1  0  0  0  0
  1 23  1  6  0  0  0
 21 24  2  0  0  0  0
  3 25  1  6  0  0  0
  3 26  1  1  0  0  0
  5 27  1  1  0  0  0
  9 28  1  1  0  0  0
 17 29  1  1  0  0  0
 22 30  1  1  0  0  0
 25 31  1  0  0  0  0
  2 32  1  6  0  0  0
 29 33  1  0  0  0  0
 29 34  2  0  0  0  0
 11 35  1  6  0  0  0
M  END
>  <cdx:fragmentId>
5

$$$$
