94456.cdx
  Mrv1902 05222410192D          

 16 17  0  0  0  0            999 V2000
    4.7418   -7.9200    0.0000 C   0  0  0  0  0  0  0  0  0  0  0  0
    4.7418   -8.7450    0.0000 C   0  0  0  0  0  0  0  0  0  0  0  0
    5.4563   -9.1575    0.0000 C   0  0  0  0  0  0  0  0  0  0  0  0
    6.1707   -8.7450    0.0000 C   0  0  0  0  0  0  0  0  0  0  0  0
    6.1707   -7.9200    0.0000 C   0  0  0  0  0  0  0  0  0  0  0  0
    5.4563   -7.5075    0.0000 C   0  0  0  0  0  0  0  0  0  0  0  0
    4.7418   -9.5700    0.0000 C   0  0  0  0  0  0  0  0  0  0  0  0
    5.0438   -6.7930    0.0000 C   0  0  0  0  0  0  0  0  0  0  0  0
    5.8688   -6.7930    0.0000 C   0  0  0  0  0  0  0  0  0  0  0  0
    6.8852   -9.1575    0.0000 O   0  0  0  0  0  0  0  0  0  0  0  0
    6.8852   -7.5075    0.0000 C   0  0  0  0  0  0  0  0  0  0  0  0
    7.5997   -7.9200    0.0000 C   0  0  0  0  0  0  0  0  0  0  0  0
    8.3142   -7.5075    0.0000 C   0  0  0  0  0  0  0  0  0  0  0  0
    9.0286   -7.9200    0.0000 C   0  0  0  0  0  0  0  0  0  0  0  0
    8.3142   -6.6825    0.0000 C   0  0  0  0  0  0  0  0  0  0  0  0
    6.1707   -7.0950    0.0000 C   0  0  0  0  0  0  0  0  0  0  0  0
  1  2  1  0  0  0  0
  2  3  1  0  0  0  0
  3  4  1  0  0  0  0
  4  5  1  0  0  0  0
  5  6  1  0  0  0  0
  6  1  1  0  0  0  0
  2  7  1  0  0  0  0
  7  3  1  0  0  0  0
  6  8  1  0  0  0  0
  6  9  1  0  0  0  0
  4 10  2  0  0  0  0
  5 11  1  0  0  0  0
 11 12  2  0  0  0  0
 12 13  1  0  0  0  0
 13 14  2  0  0  0  0
 13 15  1  0  0  0  0
  5 16  1  0  0  0  0
M  END
>  <cdx:fragmentId>
5

$$$$
