94453.cdx
  Mrv1902 05222410192D          

 17 19  0  0  0  0            999 V2000
    4.0773   -7.3150    0.0000 C   0  0  0  0  0  0  0  0  0  0  0  0
    4.0773   -8.1400    0.0000 C   0  0  0  0  0  0  0  0  0  0  0  0
    4.8619   -8.3949    0.0000 C   0  0  0  0  0  0  0  0  0  0  0  0
    5.3468   -7.7275    0.0000 C   0  0  0  0  0  0  0  0  0  0  0  0
    4.8619   -7.0601    0.0000 C   0  0  0  0  0  0  0  0  0  0  0  0
    6.1314   -7.4726    0.0000 C   0  0  0  0  0  0  0  0  0  0  0  0
    6.1314   -6.6476    0.0000 C   0  0  0  0  0  0  0  0  0  0  0  0
    5.3468   -6.3926    0.0000 C   0  0  0  0  0  0  0  0  0  0  0  0
    3.4098   -6.8301    0.0000 O   0  0  0  0  0  0  0  0  0  0  0  0
    3.2804   -8.3535    0.0000 C   0  0  0  0  0  0  0  0  0  0  0  0
    4.0773   -8.9650    0.0000 C   0  0  0  0  0  0  0  0  0  0  0  0
    6.7989   -6.1626    0.0000 O   0  0  0  0  0  0  0  0  0  0  0  0
    4.6323   -5.9801    0.0000 C   0  0  0  0  0  0  0  0  0  0  0  0
    5.5603   -5.5957    0.0000 C   0  0  0  0  0  0  0  0  0  0  0  0
    6.2748   -5.1832    0.0000 C   0  0  0  0  0  0  0  0  0  0  0  0
    6.2748   -4.3582    0.0000 C   0  0  0  0  0  0  0  0  0  0  0  0
    6.9893   -5.5957    0.0000 C   0  0  0  0  0  0  0  0  0  0  0  0
  1  2  1  0  0  0  0
  2  3  1  0  0  0  0
  3  4  1  0  0  0  0
  4  5  1  0  0  0  0
  5  1  1  0  0  0  0
  4  6  1  0  0  0  0
  6  7  1  0  0  0  0
  7  8  1  0  0  0  0
  8  5  1  0  0  0  0
  1  9  2  0  0  0  0
  2 10  1  0  0  0  0
  2 11  1  0  0  0  0
  3  6  1  0  0  0  0
  7 12  2  0  0  0  0
  8 13  1  0  0  0  0
  8 14  1  0  0  0  0
 14 15  1  0  0  0  0
 15 16  1  0  0  0  0
 15 17  2  0  0  0  0
M  END
>  <cdx:fragmentId>
5

$$$$
