94451.cdx
  Mrv1902 05222410202D          

 14 14  0  0  0  0            999 V2000
    4.7006   -6.9025    0.0000 C   0  0  0  0  0  0  0  0  0  0  0  0
    4.7006   -7.7275    0.0000 C   0  0  0  0  0  0  0  0  0  0  0  0
    5.4150   -8.1400    0.0000 C   0  0  0  0  0  0  0  0  0  0  0  0
    6.1295   -7.7275    0.0000 C   0  0  0  0  0  0  0  0  0  0  0  0
    6.1295   -6.9025    0.0000 C   0  0  0  0  0  0  0  0  0  0  0  0
    5.4150   -6.4900    0.0000 C   0  0  0  0  0  0  0  0  0  0  0  0
    5.4150   -5.6650    0.0000 C   0  0  0  0  0  0  0  0  0  0  0  0
    6.8440   -6.4900    0.0000 C   0  0  0  0  0  0  0  0  0  0  0  0
    7.5584   -6.9025    0.0000 C   0  0  0  0  0  0  0  0  0  0  0  0
    8.2729   -6.4900    0.0000 C   0  0  0  0  0  0  0  0  0  0  0  0
    8.9874   -6.9025    0.0000 C   0  0  0  0  0  0  0  0  0  0  0  0
    8.2729   -5.6650    0.0000 O   0  0  0  0  0  0  0  0  0  0  0  0
    6.5420   -8.4420    0.0000 C   0  0  0  0  0  0  0  0  0  0  0  0
    6.9264   -7.5140    0.0000 C   0  0  0  0  0  0  0  0  0  0  0  0
  1  2  1  0  0  0  0
  2  3  1  0  0  0  0
  3  4  1  0  0  0  0
  4  5  1  0  0  0  0
  5  6  1  0  0  0  0
  6  1  2  0  0  0  0
  6  7  1  0  0  0  0
  5  8  2  0  0  0  0
  8  9  1  0  0  0  0
  9 10  1  0  0  0  0
 10 11  1  0  0  0  0
 10 12  2  0  0  0  0
  4 13  1  0  0  0  0
  4 14  1  0  0  0  0
M  END
>  <cdx:fragmentId>
5

$$$$
