94454.cdx
  Mrv1902 05222410182D          

 18 19  0  0  0  0            999 V2000
    4.9343   -7.2188    0.0000 C   0  0  0  0  0  0  0  0  0  0  0  0
    4.9343   -8.0437    0.0000 C   0  0  0  0  0  0  0  0  0  0  0  0
    5.6488   -8.4563    0.0000 C   0  0  0  0  0  0  0  0  0  0  0  0
    6.3632   -8.0437    0.0000 C   0  0  0  0  0  0  0  0  0  0  0  0
    6.3632   -7.2188    0.0000 C   0  0  0  0  0  0  0  0  0  0  0  0
    5.6488   -6.8062    0.0000 C   0  0  0  0  0  0  0  0  0  0  0  0
    7.0777   -8.4563    0.0000 C   0  0  0  0  0  0  0  0  0  0  0  0
    7.7922   -8.0437    0.0000 C   0  0  0  0  0  0  0  0  0  0  0  0
    7.7922   -7.2188    0.0000 C   0  0  0  0  0  0  0  0  0  0  0  0
    7.0777   -6.8062    0.0000 C   0  0  0  0  0  0  0  0  0  0  0  0
    7.0777   -9.2813    0.0000 O   0  0  0  0  0  0  0  0  0  0  0  0
    7.7922   -9.6937    0.0000 C   0  0  0  0  0  0  0  0  0  0  0  0
    8.5067   -9.2813    0.0000 C   0  0  0  0  0  0  0  0  0  0  0  0
    8.5067   -8.4563    0.0000 C   0  0  0  0  0  0  0  0  0  0  0  0
    5.6488   -5.9813    0.0000 C   0  0  0  0  0  0  0  0  0  0  0  0
    6.3632   -6.3937    0.0000 C   0  0  0  0  0  0  0  0  0  0  0  0
    6.3632   -8.8688    0.0000 C   0  0  0  0  0  0  0  0  0  0  0  0
    7.7922  -10.5187    0.0000 O   0  0  0  0  0  0  0  0  0  0  0  0
  1  2  1  0  0  0  0
  2  3  1  0  0  0  0
  3  4  1  0  0  0  0
  4  5  1  0  0  0  0
  5  6  1  0  0  0  0
  6  1  2  0  0  0  0
  4  7  1  0  0  0  0
  7  8  1  0  0  0  0
  8  9  1  0  0  0  0
  9 10  1  0  0  0  0
 10  5  1  0  0  0  0
  7 11  1  0  0  0  0
 11 12  1  0  0  0  0
 12 13  1  0  0  0  0
 14  8  1  0  0  0  0
  6 15  1  0  0  0  0
  5 16  1  0  0  0  0
  4 17  1  0  0  0  0
 12 18  2  0  0  0  0
M  END
>  <cdx:fragmentId>
5

$$$$
