94455.cdx
  Mrv1902 05222410182D          

 16 18  0  0  0  0            999 V2000
    4.7418   -7.9200    0.0000 C   0  0  0  0  0  0  0  0  0  0  0  0
    4.7418   -8.7450    0.0000 C   0  0  0  0  0  0  0  0  0  0  0  0
    5.4563   -9.1575    0.0000 C   0  0  0  0  0  0  0  0  0  0  0  0
    6.1707   -8.7450    0.0000 C   0  0  0  0  0  0  0  0  0  0  0  0
    6.1707   -7.9200    0.0000 C   0  0  0  0  0  0  0  0  0  0  0  0
    5.4563   -7.5075    0.0000 C   0  0  0  0  0  0  0  0  0  0  0  0
    6.9554   -8.9999    0.0000 O   0  0  0  0  0  0  0  0  0  0  0  0
    7.4403   -8.3325    0.0000 C   0  0  0  0  0  0  0  0  0  0  0  0
    6.9554   -7.6651    0.0000 C   0  0  0  0  0  0  0  0  0  0  0  0
    4.7418   -9.5700    0.0000 C   0  0  0  0  0  0  0  0  0  0  0  0
    5.0438   -6.7930    0.0000 C   0  0  0  0  0  0  0  0  0  0  0  0
    5.8688   -6.7930    0.0000 C   0  0  0  0  0  0  0  0  0  0  0  0
    6.2570   -9.5655    0.0000 C   0  0  0  0  0  0  0  0  0  0  0  0
    8.2653   -8.3325    0.0000 C   0  0  0  0  0  0  0  0  0  0  0  0
    8.6778   -7.6180    0.0000 C   0  0  0  0  0  0  0  0  0  0  0  0
    8.6778   -9.0470    0.0000 C   0  0  0  0  0  0  0  0  0  0  0  0
  1  2  1  0  0  0  0
  2  3  1  0  0  0  0
  3  4  1  0  0  0  0
  4  5  1  0  0  0  0
  5  6  1  0  0  0  0
  6  1  1  0  0  0  0
  4  7  1  0  0  0  0
  7  8  1  0  0  0  0
  8  9  1  0  0  0  0
  9  5  2  0  0  0  0
  2 10  1  0  0  0  0
 10  3  1  0  0  0  0
  6 11  1  0  0  0  0
  6 12  1  0  0  0  0
  4 13  1  0  0  0  0
  8 14  1  0  0  0  0
 14 15  1  0  0  0  0
 14 16  2  0  0  0  0
M  END
>  <cdx:fragmentId>
5

$$$$
