94450.cdx
  Mrv1902 05222410202D          

 62 70  0  0  0  0            999 V2000
    6.8186   -6.7788    0.0000 C   0  0  0  0  0  0  0  0  0  0  0  0
    6.8186   -7.4387    0.0000 C   0  0  1  0  0  0  0  0  0  0  0  0
    7.3902   -7.7687    0.0000 C   0  0  0  0  0  0  0  0  0  0  0  0
    7.9617   -7.4387    0.0000 C   0  0  0  0  0  0  0  0  0  0  0  0
    7.9617   -6.7788    0.0000 C   0  0  2  0  0  0  0  0  0  0  0  0
    7.3902   -6.4487    0.0000 C   0  0  0  0  0  0  0  0  0  0  0  0
    8.5333   -7.7687    0.0000 C   0  0  0  0  0  0  0  0  0  0  0  0
    9.1049   -7.4387    0.0000 C   0  0  0  0  0  0  0  0  0  0  0  0
    9.1049   -6.7788    0.0000 C   0  0  0  0  0  0  0  0  0  0  0  0
    8.5333   -6.4487    0.0000 C   0  0  0  0  0  0  0  0  0  0  0  0
    9.6765   -6.4487    0.0000 C   0  0  1  0  0  0  0  0  0  0  0  0
    9.6765   -5.7888    0.0000 C   0  0  2  0  0  0  0  0  0  0  0  0
    9.1049   -5.4588    0.0000 C   0  0  0  0  0  0  0  0  0  0  0  0
    8.5333   -5.7888    0.0000 C   0  0  0  0  0  0  0  0  0  0  0  0
   10.8196   -6.4487    0.0000 C   0  0  0  0  0  0  0  0  0  0  0  0
   10.8196   -5.7888    0.0000 C   0  0  0  0  0  0  0  0  0  0  0  0
   10.2480   -5.4588    0.0000 C   0  0  0  0  0  0  0  0  0  0  0  0
   11.3912   -5.4588    0.0000 O   0  0  0  0  0  0  0  0  0  0  0  0
   11.3912   -4.7988    0.0000 C   0  0  1  0  0  0  0  0  0  0  0  0
   10.2480   -4.7988    0.0000 C   0  0  1  0  0  0  0  0  0  0  0  0
   11.9628   -5.1287    0.0000 C   0  0  0  0  0  0  0  0  0  0  0  0
   12.5344   -4.7988    0.0000 C   0  0  0  0  0  0  0  0  0  0  0  0
   12.5344   -4.1387    0.0000 C   0  0  2  0  0  0  0  0  0  0  0  0
   11.9628   -3.8087    0.0000 C   0  0  0  0  0  0  0  0  0  0  0  0
   11.3912   -4.1387    0.0000 O   0  0  0  0  0  0  0  0  0  0  0  0
    6.2470   -7.7687    0.0000 O   0  0  0  0  0  0  0  0  0  0  0  0
    7.9617   -6.1188    0.0000 C   0  0  0  0  0  0  0  0  0  0  0  0
    9.6765   -5.1287    0.0000 C   0  0  0  0  0  0  0  0  0  0  0  0
    9.7814   -4.3321    0.0000 C   0  0  0  0  0  0  0  0  0  0  0  0
   13.1059   -3.8087    0.0000 C   0  0  0  0  0  0  0  0  0  0  0  0
    9.8473   -7.0863    0.0000 O   0  0  0  0  0  0  0  0  0  0  0  0
    4.5361   -8.1070    0.0000 C   0  0  2  0  0  0  0  0  0  0  0  0
    4.5361   -8.7670    0.0000 C   0  0  2  0  0  0  0  0  0  0  0  0
    5.1077   -9.0970    0.0000 C   0  0  1  0  0  0  0  0  0  0  0  0
    5.6792   -8.7670    0.0000 C   0  0  2  0  0  0  0  0  0  0  0  0
    5.6792   -8.1070    0.0000 C   0  0  1  0  0  0  0  0  0  0  0  0
    5.1077   -7.7770    0.0000 O   0  0  0  0  0  0  0  0  0  0  0  0
    3.9645   -7.7770    0.0000 C   0  0  0  0  0  0  0  0  0  0  0  0
    5.1077   -9.7570    0.0000 O   0  0  0  0  0  0  0  0  0  0  0  0
    3.9645   -9.0970    0.0000 O   0  0  0  0  0  0  0  0  0  0  0  0
    6.2508   -9.0970    0.0000 O   0  0  0  0  0  0  0  0  0  0  0  0
    3.3929   -8.1070    0.0000 O   0  0  0  0  0  0  0  0  0  0  0  0
    6.2508   -9.7570    0.0000 C   0  0  2  0  0  0  0  0  0  0  0  0
    5.6792  -10.0870    0.0000 O   0  0  0  0  0  0  0  0  0  0  0  0
    5.6792  -10.7470    0.0000 C   0  0  2  0  0  0  0  0  0  0  0  0
    6.2508  -11.0770    0.0000 C   0  0  1  0  0  0  0  0  0  0  0  0
    6.8224  -10.7470    0.0000 C   0  0  2  0  0  0  0  0  0  0  0  0
    6.8224  -10.0870    0.0000 C   0  0  1  0  0  0  0  0  0  0  0  0
    7.3940   -9.7570    0.0000 O   0  0  0  0  0  0  0  0  0  0  0  0
    7.3940  -11.0770    0.0000 O   0  0  0  0  0  0  0  0  0  0  0  0
    5.1077  -11.0770    0.0000 C   0  0  0  0  0  0  0  0  0  0  0  0
    6.2508  -11.7370    0.0000 O   0  0  0  0  0  0  0  0  0  0  0  0
    3.3929   -9.4270    0.0000 C   0  0  2  0  0  0  0  0  0  0  0  0
    2.8214   -9.0970    0.0000 O   0  0  0  0  0  0  0  0  0  0  0  0
    2.2498   -9.4270    0.0000 C   0  0  2  0  0  0  0  0  0  0  0  0
    2.2498  -10.0870    0.0000 C   0  0  1  0  0  0  0  0  0  0  0  0
    2.8214  -10.4170    0.0000 C   0  0  2  0  0  0  0  0  0  0  0  0
    3.3929  -10.0870    0.0000 C   0  0  1  0  0  0  0  0  0  0  0  0
    3.9645  -10.4170    0.0000 O   0  0  0  0  0  0  0  0  0  0  0  0
    2.8214  -11.0770    0.0000 O   0  0  0  0  0  0  0  0  0  0  0  0
    1.6782   -9.0970    0.0000 C   0  0  0  0  0  0  0  0  0  0  0  0
    1.6782  -10.4170    0.0000 O   0  0  0  0  0  0  0  0  0  0  0  0
  1  2  1  0  0  0  0
  2  3  1  0  0  0  0
  3  4  1  0  0  0  0
  4  5  1  0  0  0  0
  5  6  1  0  0  0  0
  6  1  1  0  0  0  0
  4  7  2  0  0  0  0
  7  8  1  0  0  0  0
  8  9  1  0  0  0  0
  9 10  1  0  0  0  0
 10  5  1  0  0  0  0
  9 11  1  0  0  0  0
 11 12  1  0  0  0  0
 12 13  1  0  0  0  0
 13 14  1  0  0  0  0
 14 10  1  0  0  0  0
 15 16  1  0  0  0  0
 16 17  1  0  0  0  0
 17 12  1  0  0  0  0
 16 18  1  0  0  0  0
 18 19  1  0  0  0  0
 20 17  1  0  0  0  0
 19 21  1  1  0  0  0
 21 22  1  0  0  0  0
 22 23  1  0  0  0  0
 23 24  1  0  0  0  0
 24 25  1  0  0  0  0
 19 25  1  6  0  0  0
 20 19  1  0  0  0  0
 11 15  1  0  0  0  0
  2 26  1  1  0  0  0
  5 27  1  1  0  0  0
 12 28  1  1  0  0  0
 20 29  1  6  0  0  0
 23 30  1  6  0  0  0
 11 31  1  6  0  0  0
 32 33  1  0  0  0  0
 33 34  1  0  0  0  0
 34 35  1  0  0  0  0
 35 36  1  0  0  0  0
 36 37  1  0  0  0  0
 37 32  1  0  0  0  0
 32 38  1  1  0  0  0
 34 39  1  1  0  0  0
 33 40  1  6  0  0  0
 35 41  1  6  0  0  0
 38 42  1  0  0  0  0
 43 41  1  1  0  0  0
 43 44  1  0  0  0  0
 44 45  1  0  0  0  0
 45 46  1  0  0  0  0
 46 47  1  0  0  0  0
 47 48  1  0  0  0  0
 48 43  1  0  0  0  0
 48 49  1  6  0  0  0
 47 50  1  6  0  0  0
 45 51  1  6  0  0  0
 46 52  1  1  0  0  0
 53 40  1  1  0  0  0
 53 54  1  0  0  0  0
 54 55  1  0  0  0  0
 55 56  1  0  0  0  0
 56 57  1  0  0  0  0
 57 58  1  0  0  0  0
 58 53  1  0  0  0  0
 58 59  1  6  0  0  0
 57 60  1  6  0  0  0
 55 61  1  6  0  0  0
 56 62  1  1  0  0  0
 36 26  1  1  0  0  0
M  END
>  <cdx:fragmentId>
5

$$$$
