94452.cdx
  Mrv1902 05222410192D          

 16 16  0  0  0  0            999 V2000
    6.4056   -5.9400    0.0000 C   0  0  0  0  0  0  0  0  0  0  0  0
    6.4056   -6.7650    0.0000 C   0  0  0  0  0  0  0  0  0  0  0  0
    7.1200   -7.1775    0.0000 C   0  0  0  0  0  0  0  0  0  0  0  0
    7.8345   -6.7650    0.0000 C   0  0  0  0  0  0  0  0  0  0  0  0
    7.8345   -5.9400    0.0000 C   0  0  0  0  0  0  0  0  0  0  0  0
    7.1200   -5.5275    0.0000 C   0  0  0  0  0  0  0  0  0  0  0  0
    5.6911   -7.1775    0.0000 C   0  0  0  0  0  0  0  0  0  0  0  0
    4.9766   -7.5900    0.0000 O   0  0  0  0  0  0  0  0  0  0  0  0
    4.9766   -6.7650    0.0000 C   0  0  0  0  0  0  0  0  0  0  0  0
    5.6911   -8.0025    0.0000 C   0  0  0  0  0  0  0  0  0  0  0  0
    8.2470   -5.2255    0.0000 C   0  0  0  0  0  0  0  0  0  0  0  0
    8.6314   -6.1535    0.0000 C   0  0  0  0  0  0  0  0  0  0  0  0
    9.2147   -5.5702    0.0000 C   0  0  0  0  0  0  0  0  0  0  0  0
    8.5490   -7.1775    0.0000 C   0  0  0  0  0  0  0  0  0  0  0  0
    9.2634   -6.7650    0.0000 C   0  0  0  0  0  0  0  0  0  0  0  0
    8.5490   -8.0025    0.0000 C   0  0  0  0  0  0  0  0  0  0  0  0
  1  2  1  0  0  0  0
  2  3  1  0  0  0  0
  3  4  1  0  0  0  0
  4  5  1  0  0  0  0
  5  6  1  0  0  0  0
  6  1  1  0  0  0  0
  2  7  1  0  0  0  0
  7  8  1  0  0  0  0
  7  9  1  0  0  0  0
  7 10  1  0  0  0  0
  5 11  1  0  0  0  0
  5 12  1  0  0  0  0
 12 13  2  0  0  0  0
  4 14  1  0  0  0  0
 14 15  1  0  0  0  0
 14 16  2  0  0  0  0
M  END
>  <cdx:fragmentId>
5

$$$$
