94459.cdx
  Mrv1902 05222410282D          

 10 10  0  0  0  0            999 V2000
    6.0618   -8.0300    0.0000 C   0  0  0  0  0  0  0  0  0  0  0  0
    6.0618   -8.8550    0.0000 C   0  0  0  0  0  0  0  0  0  0  0  0
    6.7763   -9.2675    0.0000 C   0  0  0  0  0  0  0  0  0  0  0  0
    7.4907   -8.8550    0.0000 C   0  0  0  0  0  0  0  0  0  0  0  0
    7.4907   -8.0300    0.0000 C   0  0  0  0  0  0  0  0  0  0  0  0
    6.7763   -7.6175    0.0000 C   0  0  0  0  0  0  0  0  0  0  0  0
    6.7763   -6.7925    0.0000 C   0  0  0  0  0  0  0  0  0  0  0  0
    7.4907   -6.3800    0.0000 C   0  0  0  0  0  0  0  0  0  0  0  0
    7.4907   -5.5550    0.0000 N   0  0  0  0  0  0  0  0  0  0  0  0
    8.2052   -6.7925    0.0000 O   0  0  0  0  0  0  0  0  0  0  0  0
  1  2  2  0  0  0  0
  2  3  1  0  0  0  0
  3  4  2  0  0  0  0
  4  5  1  0  0  0  0
  5  6  2  0  0  0  0
  6  1  1  0  0  0  0
  6  7  1  0  0  0  0
  7  8  1  0  0  0  0
  8  9  1  0  0  0  0
  8 10  2  0  0  0  0
M  END
>  <cdx:fragmentId>
5

$$$$
