94465.cdx
  Mrv1902 05222410282D          

 31 34  0  0  0  0            999 V2000
    6.4743   -6.8613    0.0000 C   0  0  0  0  0  0  0  0  0  0  0  0
    6.4743   -7.6863    0.0000 C   0  0  0  0  0  0  0  0  0  0  0  0
    7.1888   -8.0987    0.0000 C   0  0  0  0  0  0  0  0  0  0  0  0
    7.9032   -7.6863    0.0000 C   0  0  0  0  0  0  0  0  0  0  0  0
    7.9032   -6.8613    0.0000 C   0  0  0  0  0  0  0  0  0  0  0  0
    7.1888   -6.4487    0.0000 C   0  0  0  0  0  0  0  0  0  0  0  0
    8.6177   -8.0987    0.0000 C   0  0  0  0  0  0  0  0  0  0  0  0
    9.3322   -7.6863    0.0000 C   0  0  0  0  0  0  0  0  0  0  0  0
    9.3322   -6.8613    0.0000 C   0  0  0  0  0  0  0  0  0  0  0  0
    8.6177   -6.4487    0.0000 O   0  0  0  0  0  0  0  0  0  0  0  0
   10.7611   -6.8613    0.0000 C   0  0  0  0  0  0  0  0  0  0  0  0
   10.0467   -6.4487    0.0000 C   0  0  0  0  0  0  0  0  0  0  0  0
   11.4756   -6.4487    0.0000 C   0  0  0  0  0  0  0  0  0  0  0  0
   11.4756   -5.6238    0.0000 C   0  0  0  0  0  0  0  0  0  0  0  0
   10.7611   -5.2113    0.0000 C   0  0  0  0  0  0  0  0  0  0  0  0
   10.0467   -5.6238    0.0000 C   0  0  0  0  0  0  0  0  0  0  0  0
    5.7598   -6.4487    0.0000 O   0  0  0  0  0  0  0  0  0  0  0  0
    7.1888   -8.9238    0.0000 O   0  0  0  0  0  0  0  0  0  0  0  0
    8.6177   -8.9238    0.0000 O   0  0  0  0  0  0  0  0  0  0  0  0
   12.1901   -5.2113    0.0000 O   0  0  0  0  0  0  0  0  0  0  0  0
    5.0454   -6.8613    0.0000 C   0  0  2  0  0  0  0  0  0  0  0  0
    4.3309   -6.4487    0.0000 O   0  0  0  0  0  0  0  0  0  0  0  0
    3.6164   -6.8613    0.0000 C   0  0  1  0  0  0  0  0  0  0  0  0
    3.6164   -7.6863    0.0000 C   0  0  2  0  0  0  0  0  0  0  0  0
    4.3309   -8.0987    0.0000 C   0  0  1  0  0  0  0  0  0  0  0  0
    5.0454   -7.6863    0.0000 C   0  0  1  0  0  0  0  0  0  0  0  0
    2.9019   -6.4487    0.0000 C   0  0  0  0  0  0  0  0  0  0  0  0
    4.3309   -8.9237    0.0000 O   0  0  0  0  0  0  0  0  0  0  0  0
    2.9019   -8.0987    0.0000 O   0  0  0  0  0  0  0  0  0  0  0  0
    5.7598   -8.0987    0.0000 O   0  0  0  0  0  0  0  0  0  0  0  0
    2.1875   -6.8613    0.0000 O   0  0  0  0  0  0  0  0  0  0  0  0
  1  2  2  0  0  0  0
  2  3  1  0  0  0  0
  3  4  2  0  0  0  0
  4  5  1  0  0  0  0
  5  6  2  0  0  0  0
  6  1  1  0  0  0  0
  4  7  1  0  0  0  0
  7  8  1  0  0  0  0
  8  9  2  0  0  0  0
  9 10  1  0  0  0  0
 10  5  1  0  0  0  0
 11 12  2  0  0  0  0
 12  9  1  0  0  0  0
 11 13  1  0  0  0  0
 13 14  2  0  0  0  0
 14 15  1  0  0  0  0
 15 16  2  0  0  0  0
 16 12  1  0  0  0  0
  1 17  1  0  0  0  0
  3 18  1  0  0  0  0
  7 19  2  0  0  0  0
 14 20  1  0  0  0  0
 21 17  1  1  0  0  0
 21 22  1  0  0  0  0
 22 23  1  0  0  0  0
 23 24  1  0  0  0  0
 24 25  1  0  0  0  0
 25 26  1  0  0  0  0
 26 21  1  0  0  0  0
 23 27  1  1  0  0  0
 25 28  1  1  0  0  0
 24 29  1  6  0  0  0
 26 30  1  6  0  0  0
 27 31  1  0  0  0  0
M  END
>  <cdx:fragmentId>
5

$$$$
