94463.cdx
  Mrv1902 05222410272D          

 25 26  0  0  0  0            999 V2000
    4.4388   -6.3668    0.0000 C   0  0  0  0  0  0  0  0  0  0  0  0
    4.0263   -7.0812    0.0000 C   0  0  0  0  0  0  0  0  0  0  0  0
    4.4388   -7.7957    0.0000 C   0  0  0  0  0  0  0  0  0  0  0  0
    5.2638   -7.7957    0.0000 C   0  0  0  0  0  0  0  0  0  0  0  0
    5.6763   -7.0812    0.0000 C   0  0  0  0  0  0  0  0  0  0  0  0
    5.2638   -6.3668    0.0000 C   0  0  0  0  0  0  0  0  0  0  0  0
    3.2013   -7.0812    0.0000 O   0  0  0  0  0  0  0  0  0  0  0  0
    4.0263   -5.6523    0.0000 O   0  0  0  0  0  0  0  0  0  0  0  0
    4.0263   -8.5102    0.0000 O   0  0  0  0  0  0  0  0  0  0  0  0
    6.5013   -7.0812    0.0000 C   0  0  0  0  0  0  0  0  0  0  0  0
    6.9138   -6.3668    0.0000 O   0  0  0  0  0  0  0  0  0  0  0  0
    6.9138   -7.7957    0.0000 O   0  0  0  0  0  0  0  0  0  0  0  0
    7.7388   -6.3668    0.0000 C   0  0  0  0  0  0  0  0  0  0  0  0
    8.2237   -7.0342    0.0000 C   0  0  0  0  0  0  0  0  0  0  0  0
    9.0083   -6.7793    0.0000 O   0  0  0  0  0  0  0  0  0  0  0  0
    9.0083   -5.9543    0.0000 C   0  0  0  0  0  0  0  0  0  0  0  0
    8.2237   -5.6993    0.0000 C   0  0  0  0  0  0  0  0  0  0  0  0
    7.5092   -5.2868    0.0000 O   0  0  0  0  0  0  0  0  0  0  0  0
    8.4372   -4.9025    0.0000 H   0  0  0  0  0  0  0  0  0  0  0  0
    9.6758   -5.4694    0.0000 O   0  0  0  0  0  0  0  0  0  0  0  0
    7.9688   -7.8188    0.0000 C   0  0  0  0  0  0  0  0  0  0  0  0
    8.5208   -8.4319    0.0000 C   0  0  0  0  0  0  0  0  0  0  0  0
    7.3680   -8.1141    0.0000 O   0  0  0  0  0  0  0  0  0  0  0  0
    8.2659   -9.2166    0.0000 O   0  0  0  0  0  0  0  0  0  0  0  0
    9.3278   -8.2604    0.0000 O   0  0  0  0  0  0  0  0  0  0  0  0
  1  2  2  0  0  0  0
  2  3  1  0  0  0  0
  3  4  2  0  0  0  0
  4  5  1  0  0  0  0
  5  6  2  0  0  0  0
  6  1  1  0  0  0  0
  2  7  1  0  0  0  0
  1  8  1  0  0  0  0
  3  9  1  0  0  0  0
  5 10  1  0  0  0  0
 10 11  1  0  0  0  0
 10 12  2  0  0  0  0
 11 13  1  0  0  0  0
 13 14  1  0  0  0  0
 14 15  1  0  0  0  0
 15 16  1  0  0  0  0
 16 17  1  0  0  0  0
 17 13  1  0  0  0  0
 17 18  1  0  0  0  0
 17 19  1  0  0  0  0
 16 20  2  0  0  0  0
 14 21  1  0  0  0  0
 21 22  1  0  0  0  0
 21 23  1  0  0  0  0
 22 24  2  0  0  0  0
 22 25  1  0  0  0  0
M  END
>  <cdx:fragmentId>
5

$$$$
