94464.cdx
  Mrv1902 05222410282D          

 15 15  0  0  0  0            999 V2000
    5.6081   -7.7413    0.0000 C   0  0  0  0  0  0  0  0  0  0  0  0
    5.6081   -8.5663    0.0000 C   0  0  1  0  0  0  0  0  0  0  0  0
    6.3225   -8.9788    0.0000 C   0  0  0  0  0  0  0  0  0  0  0  0
    7.0370   -8.5663    0.0000 C   0  0  0  0  0  0  0  0  0  0  0  0
    7.0370   -7.7413    0.0000 C   0  0  2  0  0  0  0  0  0  0  0  0
    6.3225   -7.3287    0.0000 C   0  0  2  0  0  0  0  0  0  0  0  0
    7.7515   -8.9788    0.0000 C   0  0  0  0  0  0  0  0  0  0  0  0
    7.7515   -7.3287    0.0000 C   0  0  0  0  0  0  0  0  0  0  0  0
    8.4659   -7.7412    0.0000 C   0  0  0  0  0  0  0  0  0  0  0  0
    9.1804   -7.3287    0.0000 C   0  0  0  0  0  0  0  0  0  0  0  0
    9.8949   -7.7412    0.0000 C   0  0  0  0  0  0  0  0  0  0  0  0
    9.1804   -6.5037    0.0000 O   0  0  0  0  0  0  0  0  0  0  0  0
    4.8936   -8.9788    0.0000 O   0  0  0  0  0  0  0  0  0  0  0  0
    5.7392   -6.7454    0.0000 C   0  0  0  0  0  0  0  0  0  0  0  0
    6.9059   -6.7454    0.0000 C   0  0  0  0  0  0  0  0  0  0  0  0
  1  2  1  0  0  0  0
  2  3  1  0  0  0  0
  3  4  2  0  0  0  0
  4  5  1  0  0  0  0
  5  6  1  0  0  0  0
  6  1  1  0  0  0  0
  4  7  1  0  0  0  0
  5  8  1  6  0  0  0
  8  9  2  0  0  0  0
  9 10  1  0  0  0  0
 10 11  1  0  0  0  0
 10 12  2  0  0  0  0
  2 13  1  1  0  0  0
  6 14  1  1  0  0  0
  6 15  1  6  0  0  0
M  END
>  <cdx:fragmentId>
5

$$$$
