94466.cdx
  Mrv1902 05222410272D          

 26 27  0  0  0  0            999 V2000
    2.3218   -6.9850    0.0000 C   0  0  0  0  0  0  0  0  0  0  0  0
    2.3218   -7.8100    0.0000 C   0  0  0  0  0  0  0  0  0  0  0  0
    3.0363   -8.2225    0.0000 C   0  0  0  0  0  0  0  0  0  0  0  0
    3.7507   -7.8100    0.0000 C   0  0  0  0  0  0  0  0  0  0  0  0
    3.7507   -6.9850    0.0000 C   0  0  0  0  0  0  0  0  0  0  0  0
    3.0363   -6.5725    0.0000 C   0  0  0  0  0  0  0  0  0  0  0  0
    4.4652   -6.5725    0.0000 C   0  0  0  0  0  0  0  0  0  0  0  0
    5.1797   -6.9850    0.0000 O   0  0  0  0  0  0  0  0  0  0  0  0
    4.4652   -5.7475    0.0000 O   0  0  0  0  0  0  0  0  0  0  0  0
    5.8942   -6.5725    0.0000 C   0  0  0  0  0  0  0  0  0  0  0  0
    6.6086   -6.9850    0.0000 C   0  0  0  0  0  0  0  0  0  0  0  0
    7.3231   -6.5725    0.0000 C   0  0  0  0  0  0  0  0  0  0  0  0
    8.0376   -6.9850    0.0000 C   0  0  0  0  0  0  0  0  0  0  0  0
    7.3231   -5.7475    0.0000 C   0  0  0  0  0  0  0  0  0  0  0  0
    8.7520   -6.5725    0.0000 O   0  0  0  0  0  0  0  0  0  0  0  0
    9.4665   -6.9850    0.0000 C   0  0  1  0  0  0  0  0  0  0  0  0
    9.4665   -7.8100    0.0000 C   0  0  1  0  0  0  0  0  0  0  0  0
   10.1810   -8.2225    0.0000 C   0  0  2  0  0  0  0  0  0  0  0  0
   10.8955   -7.8100    0.0000 C   0  0  1  0  0  0  0  0  0  0  0  0
   10.8955   -6.9850    0.0000 C   0  0  2  0  0  0  0  0  0  0  0  0
   10.1810   -6.5725    0.0000 O   0  0  0  0  0  0  0  0  0  0  0  0
   11.6099   -6.5725    0.0000 C   0  0  0  0  0  0  0  0  0  0  0  0
   10.1810   -9.0475    0.0000 O   0  0  0  0  0  0  0  0  0  0  0  0
    8.7520   -8.2225    0.0000 O   0  0  0  0  0  0  0  0  0  0  0  0
   11.6099   -8.2225    0.0000 O   0  0  0  0  0  0  0  0  0  0  0  0
   11.6099   -5.7475    0.0000 O   0  0  0  0  0  0  0  0  0  0  0  0
  1  2  2  0  0  0  0
  2  3  1  0  0  0  0
  3  4  2  0  0  0  0
  4  5  1  0  0  0  0
  5  6  2  0  0  0  0
  6  1  1  0  0  0  0
  5  7  1  0  0  0  0
  7  8  1  0  0  0  0
  7  9  2  0  0  0  0
  8 10  1  0  0  0  0
 10 11  1  0  0  0  0
 11 12  2  0  0  0  0
 12 13  1  0  0  0  0
 12 14  1  0  0  0  0
 13 15  1  0  0  0  0
 16 15  1  6  0  0  0
 16 17  1  0  0  0  0
 17 18  1  0  0  0  0
 18 19  1  0  0  0  0
 19 20  1  0  0  0  0
 20 21  1  0  0  0  0
 21 16  1  0  0  0  0
 20 22  1  6  0  0  0
 18 23  1  6  0  0  0
 17 24  1  1  0  0  0
 19 25  1  1  0  0  0
 22 26  1  0  0  0  0
M  END
>  <cdx:fragmentId>
5

$$$$
