94460.cdx
  Mrv1902 05222410262D          

 15 17  0  0  0  0            999 V2000
    7.8295   -9.0658    0.0000 C   0  0  0  0  0  0  0  0  0  0  0  0
    8.5440   -8.6533    0.0000 C   0  0  0  0  0  0  0  0  0  0  0  0
    8.5440   -7.8283    0.0000 C   0  0  0  0  0  0  0  0  0  0  0  0
    7.8295   -7.4158    0.0000 C   0  0  0  0  0  0  0  0  0  0  0  0
    7.1150   -7.8283    0.0000 C   0  0  0  0  0  0  0  0  0  0  0  0
    6.4006   -7.4158    0.0000 C   0  0  0  0  0  0  0  0  0  0  0  0
    5.6861   -7.8283    0.0000 C   0  0  0  0  0  0  0  0  0  0  0  0
    5.6861   -8.6533    0.0000 C   0  0  0  0  0  0  0  0  0  0  0  0
    6.4006   -9.0658    0.0000 C   0  0  0  0  0  0  0  0  0  0  0  0
    7.1150   -8.6533    0.0000 C   0  0  0  0  0  0  0  0  0  0  0  0
    7.9976   -7.9504    0.0000 C   0  0  0  0  0  0  0  0  0  0  0  0
    7.9976   -7.1254    0.0000 C   0  0  0  0  0  0  0  0  0  0  0  0
    8.7121   -7.5379    0.0000 C   0  0  0  0  0  0  0  0  0  0  0  0
    6.8131   -9.7803    0.0000 C   0  0  0  0  0  0  0  0  0  0  0  0
    5.9881   -9.7803    0.0000 C   0  0  0  0  0  0  0  0  0  0  0  0
  1  2  1  0  0  0  0
  2  3  1  0  0  0  0
  3  4  1  0  0  0  0
  4  5  1  0  0  0  0
  5  6  1  0  0  0  0
  6  7  2  0  0  0  0
  7  8  1  0  0  0  0
  8  9  1  0  0  0  0
  9 10  1  0  0  0  0
  1 10  2  0  0  0  0
  5 10  1  0  0  0  0
  2 11  1  0  0  0  0
  5 11  1  0  0  0  0
 11 12  1  0  0  0  0
 11 13  1  0  0  0  0
  9 14  1  0  0  0  0
  9 15  1  0  0  0  0
M  END
>  <cdx:groupId>
49

>  <cdx:fragmentId>
5

$$$$
