94467.cdx
  Mrv1902 05222410272D          

 27 28  0  0  0  0            999 V2000
    3.3531   -6.3525    0.0000 C   0  0  0  0  0  0  0  0  0  0  0  0
    3.3531   -7.1775    0.0000 C   0  0  0  0  0  0  0  0  0  0  0  0
    4.0675   -7.5900    0.0000 C   0  0  0  0  0  0  0  0  0  0  0  0
    4.7820   -7.1775    0.0000 C   0  0  0  0  0  0  0  0  0  0  0  0
    4.7820   -6.3525    0.0000 C   0  0  0  0  0  0  0  0  0  0  0  0
    4.0675   -5.9400    0.0000 C   0  0  0  0  0  0  0  0  0  0  0  0
    5.4965   -7.5900    0.0000 O   0  0  0  0  0  0  0  0  0  0  0  0
    5.4965   -5.9400    0.0000 C   0  0  0  0  0  0  0  0  0  0  0  0
    6.2109   -6.3525    0.0000 O   0  0  0  0  0  0  0  0  0  0  0  0
    5.4965   -5.1150    0.0000 O   0  0  0  0  0  0  0  0  0  0  0  0
    6.9254   -5.9400    0.0000 C   0  0  0  0  0  0  0  0  0  0  0  0
    7.6399   -6.3525    0.0000 C   0  0  0  0  0  0  0  0  0  0  0  0
    8.3544   -5.9400    0.0000 C   0  0  0  0  0  0  0  0  0  0  0  0
    9.0688   -6.3525    0.0000 C   0  0  0  0  0  0  0  0  0  0  0  0
    8.3544   -5.1150    0.0000 C   0  0  0  0  0  0  0  0  0  0  0  0
    9.7833   -5.9400    0.0000 O   0  0  0  0  0  0  0  0  0  0  0  0
   11.2141   -7.5721    0.0000 C   0  0  2  0  0  0  0  0  0  0  0  0
   11.9272   -7.1573    0.0000 C   0  0  2  0  0  0  0  0  0  0  0  0
   11.9246   -6.3323    0.0000 C   0  0  1  0  0  0  0  0  0  0  0  0
   11.2088   -5.9221    0.0000 C   0  0  2  0  0  0  0  0  0  0  0  0
   10.4956   -6.3369    0.0000 C   0  0  1  0  0  0  0  0  0  0  0  0
   10.4983   -7.1619    0.0000 O   0  0  0  0  0  0  0  0  0  0  0  0
   11.2168   -8.3971    0.0000 C   0  0  0  0  0  0  0  0  0  0  0  0
   12.6377   -5.9175    0.0000 O   0  0  0  0  0  0  0  0  0  0  0  0
   12.6430   -7.5675    0.0000 O   0  0  0  0  0  0  0  0  0  0  0  0
   11.2061   -5.0971    0.0000 O   0  0  0  0  0  0  0  0  0  0  0  0
   11.9326   -8.8073    0.0000 O   0  0  0  0  0  0  0  0  0  0  0  0
  1  2  2  0  0  0  0
  2  3  1  0  0  0  0
  3  4  2  0  0  0  0
  4  5  1  0  0  0  0
  5  6  2  0  0  0  0
  6  1  1  0  0  0  0
  4  7  1  0  0  0  0
  5  8  1  0  0  0  0
  8  9  1  0  0  0  0
  8 10  2  0  0  0  0
  9 11  1  0  0  0  0
 11 12  1  0  0  0  0
 12 13  2  0  0  0  0
 13 14  1  0  0  0  0
 13 15  1  0  0  0  0
 14 16  1  0  0  0  0
 17 18  1  0  0  0  0
 18 19  1  0  0  0  0
 19 20  1  0  0  0  0
 20 21  1  0  0  0  0
 21 22  1  0  0  0  0
 22 17  1  0  0  0  0
 17 23  1  1  0  0  0
 19 24  1  1  0  0  0
 18 25  1  6  0  0  0
 20 26  1  6  0  0  0
 23 27  1  0  0  0  0
 21 16  1  1  0  0  0
M  END
>  <cdx:fragmentId>
5

$$$$
