94468.cdx
  Mrv1902 05222410182D          

 13 13  0  0  0  0            999 V2000
    3.4218   -6.1463    0.0000 C   0  0  0  0  0  0  0  0  0  0  0  0
    3.4218   -6.9712    0.0000 C   0  0  0  0  0  0  0  0  0  0  0  0
    4.1363   -7.3838    0.0000 C   0  0  0  0  0  0  0  0  0  0  0  0
    4.8507   -6.9712    0.0000 C   0  0  0  0  0  0  0  0  0  0  0  0
    4.8507   -6.1463    0.0000 C   0  0  0  0  0  0  0  0  0  0  0  0
    4.1363   -5.7338    0.0000 C   0  0  0  0  0  0  0  0  0  0  0  0
    2.7073   -7.3838    0.0000 O   0  0  0  0  0  0  0  0  0  0  0  0
    5.5652   -5.7337    0.0000 C   0  0  0  0  0  0  0  0  0  0  0  0
    6.2797   -6.1462    0.0000 C   0  0  0  0  0  0  0  0  0  0  0  0
    6.9942   -5.7337    0.0000 N   0  0  0  0  0  0  0  0  0  0  0  0
    7.7086   -6.1462    0.0000 C   0  0  0  0  0  0  0  0  0  0  0  0
    8.4231   -5.7337    0.0000 C   0  0  0  0  0  0  0  0  0  0  0  0
    7.7086   -6.9712    0.0000 O   0  0  0  0  0  0  0  0  0  0  0  0
  1  2  2  0  0  0  0
  2  3  1  0  0  0  0
  3  4  2  0  0  0  0
  4  5  1  0  0  0  0
  5  6  2  0  0  0  0
  6  1  1  0  0  0  0
  2  7  1  0  0  0  0
  5  8  1  0  0  0  0
  8  9  1  0  0  0  0
  9 10  1  0  0  0  0
 10 11  1  0  0  0  0
 11 12  1  0  0  0  0
 11 13  2  0  0  0  0
M  END
>  <cdx:fragmentId>
5

$$$$
