94462.cdx
  Mrv1902 05222410272D          

 66 74  0  0  0  0            999 V2000
    3.2700   -2.1868    0.0000 C   0  0  0  0  0  0  0  0  0  0  0  0
    2.8575   -2.9013    0.0000 C   0  0  0  0  0  0  0  0  0  0  0  0
    3.2700   -3.6157    0.0000 C   0  0  0  0  0  0  0  0  0  0  0  0
    4.0950   -3.6157    0.0000 C   0  0  0  0  0  0  0  0  0  0  0  0
    4.5075   -2.9012    0.0000 C   0  0  0  0  0  0  0  0  0  0  0  0
    4.0950   -2.1868    0.0000 C   0  0  0  0  0  0  0  0  0  0  0  0
    5.3325   -2.9012    0.0000 C   0  0  0  0  0  0  0  0  0  0  0  0
    5.7450   -2.1868    0.0000 O   0  0  0  0  0  0  0  0  0  0  0  0
    5.7450   -3.6157    0.0000 O   0  0  0  0  0  0  0  0  0  0  0  0
    6.5700   -3.6157    0.0000 C   0  0  0  0  0  0  0  0  0  0  0  0
    6.5700   -5.0447    0.0000 C   0  0  0  0  0  0  0  0  0  0  0  0
    6.9825   -4.3302    0.0000 C   0  0  0  0  0  0  0  0  0  0  0  0
    6.9825   -5.7591    0.0000 C   0  0  0  0  0  0  0  0  0  0  0  0
    7.8075   -5.7591    0.0000 C   0  0  0  0  0  0  0  0  0  0  0  0
    8.2200   -5.0447    0.0000 C   0  0  0  0  0  0  0  0  0  0  0  0
    7.8075   -4.3302    0.0000 O   0  0  0  0  0  0  0  0  0  0  0  0
    9.0450   -5.0447    0.0000 O   0  0  0  0  0  0  0  0  0  0  0  0
    9.4575   -4.3302    0.0000 C   0  0  0  0  0  0  0  0  0  0  0  0
    9.0450   -3.6157    0.0000 O   0  0  0  0  0  0  0  0  0  0  0  0
   10.2825   -4.3302    0.0000 C   0  0  0  0  0  0  0  0  0  0  0  0
   10.6950   -5.0447    0.0000 C   0  0  0  0  0  0  0  0  0  0  0  0
   11.5200   -5.0447    0.0000 C   0  0  0  0  0  0  0  0  0  0  0  0
   11.9325   -4.3302    0.0000 C   0  0  0  0  0  0  0  0  0  0  0  0
   11.5200   -3.6157    0.0000 C   0  0  0  0  0  0  0  0  0  0  0  0
   10.6950   -3.6157    0.0000 C   0  0  0  0  0  0  0  0  0  0  0  0
   11.9325   -2.9012    0.0000 O   0  0  0  0  0  0  0  0  0  0  0  0
   12.7575   -4.3302    0.0000 O   0  0  0  0  0  0  0  0  0  0  0  0
   11.9325   -5.7591    0.0000 O   0  0  0  0  0  0  0  0  0  0  0  0
    2.8575   -1.4723    0.0000 O   0  0  0  0  0  0  0  0  0  0  0  0
    2.0325   -2.9013    0.0000 O   0  0  0  0  0  0  0  0  0  0  0  0
    2.8575   -4.3302    0.0000 O   0  0  0  0  0  0  0  0  0  0  0  0
    4.1363   -5.8157    0.0000 C   0  0  0  0  0  0  0  0  0  0  0  0
    3.3113   -5.8112    0.0000 C   0  0  0  0  0  0  0  0  0  0  0  0
    2.8949   -6.5234    0.0000 C   0  0  0  0  0  0  0  0  0  0  0  0
    3.3035   -7.2401    0.0000 C   0  0  0  0  0  0  0  0  0  0  0  0
    4.1285   -7.2446    0.0000 C   0  0  0  0  0  0  0  0  0  0  0  0
    4.5449   -6.5324    0.0000 C   0  0  0  0  0  0  0  0  0  0  0  0
    2.9027   -5.0945    0.0000 O   0  0  0  0  0  0  0  0  0  0  0  0
    2.0699   -6.5189    0.0000 O   0  0  0  0  0  0  0  0  0  0  0  0
    2.8871   -7.9523    0.0000 O   0  0  0  0  0  0  0  0  0  0  0  0
    5.3699   -6.5369    0.0000 C   0  0  0  0  0  0  0  0  0  0  0  0
    5.7824   -7.2514    0.0000 O   0  0  0  0  0  0  0  0  0  0  0  0
    6.9825   -4.9341    0.0000 O   0  0  0  0  0  0  0  0  0  0  0  0
    6.5700   -8.0697    0.0000 O   0  0  0  0  0  0  0  0  0  0  0  0
    7.8213   -8.0141    0.0000 O   0  0  0  0  0  0  0  0  0  0  0  0
    8.5357   -8.4266    0.0000 C   0  0  0  0  0  0  0  0  0  0  0  0
    8.5220   -9.3204    0.0000 C   0  0  0  0  0  0  0  0  0  0  0  0
    9.2502   -8.0141    0.0000 O   0  0  0  0  0  0  0  0  0  0  0  0
    5.8556   -8.4822    0.0000 C   0  0  0  0  0  0  0  0  0  0  0  0
    5.8556   -9.3072    0.0000 C   0  0  0  0  0  0  0  0  0  0  0  0
    5.1411   -8.0697    0.0000 O   0  0  0  0  0  0  0  0  0  0  0  0
    5.1411   -9.7197    0.0000 C   0  0  0  0  0  0  0  0  0  0  0  0
    5.1411  -10.5447    0.0000 C   0  0  0  0  0  0  0  0  0  0  0  0
    5.8556  -10.9572    0.0000 C   0  0  0  0  0  0  0  0  0  0  0  0
    6.5700  -10.5447    0.0000 C   0  0  0  0  0  0  0  0  0  0  0  0
    6.5700   -9.7197    0.0000 C   0  0  0  0  0  0  0  0  0  0  0  0
    7.8075   -9.7329    0.0000 C   0  0  0  0  0  0  0  0  0  0  0  0
    7.8075  -10.5579    0.0000 C   0  0  0  0  0  0  0  0  0  0  0  0
    8.5220  -10.9704    0.0000 C   0  0  0  0  0  0  0  0  0  0  0  0
    9.2365  -10.5579    0.0000 C   0  0  0  0  0  0  0  0  0  0  0  0
    9.2365   -9.7329    0.0000 C   0  0  0  0  0  0  0  0  0  0  0  0
    4.4266  -10.9572    0.0000 O   0  0  0  0  0  0  0  0  0  0  0  0
    5.8556  -11.7822    0.0000 O   0  0  0  0  0  0  0  0  0  0  0  0
    7.1946  -11.0180    0.0000 O   0  0  0  0  0  0  0  0  0  0  0  0
    8.5220  -11.7954    0.0000 O   0  0  0  0  0  0  0  0  0  0  0  0
    9.9509  -10.9704    0.0000 O   0  0  0  0  0  0  0  0  0  0  0  0
  1  2  2  0  0  0  0
  2  3  1  0  0  0  0
  3  4  2  0  0  0  0
  4  5  1  0  0  0  0
  5  6  2  0  0  0  0
  6  1  1  0  0  0  0
  5  7  1  0  0  0  0
  7  8  2  0  0  0  0
  7  9  1  0  0  0  0
  9 10  1  0  0  0  0
 11 12  1  0  0  0  0
 12 10  1  0  0  0  0
 11 13  1  0  0  0  0
 13 14  1  0  0  0  0
 14 15  1  0  0  0  0
 15 16  1  0  0  0  0
 16 12  1  0  0  0  0
 15 17  1  0  0  0  0
 17 18  1  0  0  0  0
 18 19  2  0  0  0  0
 18 20  1  0  0  0  0
 20 21  2  0  0  0  0
 21 22  1  0  0  0  0
 22 23  2  0  0  0  0
 23 24  1  0  0  0  0
 24 25  2  0  0  0  0
 25 20  1  0  0  0  0
 24 26  1  0  0  0  0
 23 27  1  0  0  0  0
 22 28  1  0  0  0  0
  1 29  1  0  0  0  0
  2 30  1  0  0  0  0
  3 31  1  0  0  0  0
  4 32  1  0  0  0  0
 32 33  2  0  0  0  0
 33 34  1  0  0  0  0
 34 35  2  0  0  0  0
 35 36  1  0  0  0  0
 36 37  2  0  0  0  0
 37 32  1  0  0  0  0
 33 38  1  0  0  0  0
 34 39  1  0  0  0  0
 35 40  1  0  0  0  0
 37 41  1  0  0  0  0
 41 42  2  0  0  0  0
 13 43  1  0  0  0  0
 11 44  1  0  0  0  0
 43 41  1  0  0  0  0
 14 45  1  0  0  0  0
 45 46  1  0  0  0  0
 46 47  1  0  0  0  0
 46 48  2  0  0  0  0
 44 49  1  0  0  0  0
 49 50  1  0  0  0  0
 49 51  2  0  0  0  0
 50 52  2  0  0  0  0
 52 53  1  0  0  0  0
 53 54  2  0  0  0  0
 54 55  1  0  0  0  0
 55 56  2  0  0  0  0
 56 50  1  0  0  0  0
 47 57  2  0  0  0  0
 57 58  1  0  0  0  0
 58 59  2  0  0  0  0
 59 60  1  0  0  0  0
 60 61  2  0  0  0  0
 61 47  1  0  0  0  0
 56 57  1  0  0  0  0
 53 62  1  0  0  0  0
 54 63  1  0  0  0  0
 55 64  1  0  0  0  0
 64 58  1  0  0  0  0
 59 65  1  0  0  0  0
 60 66  1  0  0  0  0
M  END
>  <cdx:fragmentId>
5

$$$$
