944602.cdx
  Mrv1902 05222410252D          

 39 43  0  0  0  0            999 V2000
    8.5530  -10.9757    0.0000 C   0  0  2  0  0  0  0  0  0  0  0  0
    9.3377  -11.2307    0.0000 C   0  0  1  0  0  0  0  0  0  0  0  0
   10.1581  -11.3169    0.0000 O   0  0  0  0  0  0  0  0  0  0  0  0
    9.8226  -10.5632    0.0000 C   0  0  1  0  0  0  0  0  0  0  0  0
    9.3377   -9.8958    0.0000 C   0  0  2  0  0  0  0  0  0  0  0  0
    8.5530  -10.1507    0.0000 C   0  0  2  0  0  0  0  0  0  0  0  0
    7.8386   -9.7382    0.0000 C   0  0  0  0  0  0  0  0  0  0  0  0
    7.1241  -10.1507    0.0000 C   0  0  0  0  0  0  0  0  0  0  0  0
    7.1241  -10.9757    0.0000 O   0  0  0  0  0  0  0  0  0  0  0  0
    7.8386  -11.3882    0.0000 C   0  0  1  0  0  0  0  0  0  0  0  0
    7.8386  -12.2132    0.0000 O   0  0  0  0  0  0  0  0  0  0  0  0
    6.4096  -12.2132    0.0000 O   0  0  0  0  0  0  0  0  0  0  0  0
    7.1241  -12.6257    0.0000 C   0  0  2  0  0  0  0  0  0  0  0  0
    7.1241  -13.4507    0.0000 C   0  0  1  0  0  0  0  0  0  0  0  0
    6.4096  -13.8632    0.0000 C   0  0  2  0  0  0  0  0  0  0  0  0
    5.6951  -13.4507    0.0000 C   0  0  1  0  0  0  0  0  0  0  0  0
    5.6951  -12.6257    0.0000 C   0  0  1  0  0  0  0  0  0  0  0  0
    4.9807  -12.2132    0.0000 C   0  0  0  0  0  0  0  0  0  0  0  0
    4.2662  -12.6257    0.0000 O   0  0  0  0  0  0  0  0  0  0  0  0
    4.9807  -13.8632    0.0000 O   0  0  0  0  0  0  0  0  0  0  0  0
    6.4096  -14.6882    0.0000 O   0  0  0  0  0  0  0  0  0  0  0  0
    7.8386  -13.8632    0.0000 O   0  0  0  0  0  0  0  0  0  0  0  0
    9.1661  -12.0376    0.0000 C   0  0  0  0  0  0  0  0  0  0  0  0
    9.7495  -12.6210    0.0000 O   0  0  0  0  0  0  0  0  0  0  0  0
    8.5530  -11.8007    0.0000 H   0  0  0  0  0  0  0  0  0  0  0  0
   10.5370  -10.1507    0.0000 H   0  0  0  0  0  0  0  0  0  0  0  0
    8.6393   -9.3302    0.0000 H   0  0  0  0  0  0  0  0  0  0  0  0
   11.4193   -5.8012    0.0000 O   0  0  0  0  0  0  0  0  0  0  0  0
   12.7783   -6.2427    0.0000 C   0  0  0  0  0  0  0  0  0  0  0  0
   12.5234   -7.0273    0.0000 O   0  0  0  0  0  0  0  0  0  0  0  0
    9.5926   -9.1112    0.0000 O   0  0  0  0  0  0  0  0  0  0  0  0
   10.9516   -9.5527    0.0000 O   0  0  0  0  0  0  0  0  0  0  0  0
   10.1025   -7.5419    0.0000 C   0  0  0  0  0  0  0  0  0  0  0  0
   10.3574   -6.7573    0.0000 C   0  0  0  0  0  0  0  0  0  0  0  0
   11.1644   -6.5858    0.0000 C   0  0  0  0  0  0  0  0  0  0  0  0
   11.7164   -7.1989    0.0000 C   0  0  0  0  0  0  0  0  0  0  0  0
   11.4615   -7.9835    0.0000 C   0  0  0  0  0  0  0  0  0  0  0  0
   10.6545   -8.1550    0.0000 C   0  0  0  0  0  0  0  0  0  0  0  0
   10.3996   -8.9396    0.0000 C   0  0  0  0  0  0  0  0  0  0  0  0
 35 28  1  0  0  0  0
 36 30  1  0  0  0  0
 30 29  1  0  0  0  0
 39 31  1  0  0  0  0
 39 32  2  0  0  0  0
 38 33  2  0  0  0  0
 34 33  1  0  0  0  0
 35 34  2  0  0  0  0
 36 35  1  0  0  0  0
 37 36  2  0  0  0  0
 38 37  1  0  0  0  0
 39 38  1  0  0  0  0
  1  2  1  0  0  0  0
  2  3  1  0  0  0  0
  3  4  1  0  0  0  0
  4  5  1  0  0  0  0
  5  6  1  0  0  0  0
  6  7  1  0  0  0  0
  7  8  2  0  0  0  0
  8  9  1  0  0  0  0
  9 10  1  0  0  0  0
  1 10  1  0  0  0  0
  1  6  1  0  0  0  0
  2  4  1  0  0  0  0
 12 13  1  0  0  0  0
 13 14  1  0  0  0  0
 14 15  1  0  0  0  0
 15 16  1  0  0  0  0
 16 17  1  0  0  0  0
 12 17  1  0  0  0  0
 18 19  1  0  0  0  0
 17 18  1  1  0  0  0
 16 20  1  6  0  0  0
 15 21  1  1  0  0  0
 14 22  1  6  0  0  0
 13 11  1  1  0  0  0
 10 11  1  6  0  0  0
 23 24  1  0  0  0  0
  2 23  1  1  0  0  0
  5 31  1  6  0  0  0
  1 25  1  6  0  0  0
  4 26  1  1  0  0  0
  6 27  1  6  0  0  0
M  END
>  <cdx:groupId>
82996

>  <cdx:fragmentId>
82924

$$$$
