944851.cdx
  Mrv1902 05222410272D          

 36 35  0  0  0  0            999 V2000
   11.2319   -7.4464    0.0000 C   0  0  0  0  0  0  0  0  0  0  0  0
   11.2319   -6.6214    0.0000 C   0  0  0  0  0  0  0  0  0  0  0  0
   11.9464   -6.2089    0.0000 C   0  0  0  0  0  0  0  0  0  0  0  0
   10.5174   -3.7339    0.0000 C   0  0  0  0  0  0  0  0  0  0  0  0
    9.8030   -4.1464    0.0000 C   0  0  0  0  0  0  0  0  0  0  0  0
    9.0885   -3.7339    0.0000 C   0  0  0  0  0  0  0  0  0  0  0  0
    6.9451   -7.4464    0.0000 O   0  0  0  0  0  0  0  0  0  0  0  0
    7.6596   -8.6839    0.0000 O   0  0  0  0  0  0  0  0  0  0  0  0
    1.9438  -16.1089    0.0000 C   0  0  0  0  0  0  0  0  0  0  0  0
    1.9438  -15.2839    0.0000 C   0  0  0  0  0  0  0  0  0  0  0  0
    2.6583  -14.8714    0.0000 C   0  0  0  0  0  0  0  0  0  0  0  0
    2.6583  -14.0464    0.0000 C   0  0  0  0  0  0  0  0  0  0  0  0
    3.3727  -13.6339    0.0000 C   0  0  0  0  0  0  0  0  0  0  0  0
    3.3727  -12.8089    0.0000 C   0  0  0  0  0  0  0  0  0  0  0  0
    4.0872  -12.3964    0.0000 C   0  0  0  0  0  0  0  0  0  0  0  0
    4.0872  -11.5714    0.0000 C   0  0  0  0  0  0  0  0  0  0  0  0
    4.8017  -11.1589    0.0000 C   0  0  0  0  0  0  0  0  0  0  0  0
    4.8017  -10.3339    0.0000 C   0  0  0  0  0  0  0  0  0  0  0  0
    5.5161   -9.9214    0.0000 C   0  0  0  0  0  0  0  0  0  0  0  0
    5.5161   -9.0964    0.0000 C   0  0  0  0  0  0  0  0  0  0  0  0
    6.2306   -8.6839    0.0000 C   0  0  0  0  0  0  0  0  0  0  0  0
    6.2306   -7.8589    0.0000 C   0  0  0  0  0  0  0  0  0  0  0  0
    6.9451   -7.4464    0.0000 C   0  0  0  0  0  0  0  0  0  0  0  0
    6.9451   -6.6214    0.0000 C   0  0  0  0  0  0  0  0  0  0  0  0
    7.6596   -6.2089    0.0000 C   0  0  0  0  0  0  0  0  0  0  0  0
    7.6596   -5.3839    0.0000 C   0  0  0  0  0  0  0  0  0  0  0  0
    8.3740   -4.9714    0.0000 C   0  0  0  0  0  0  0  0  0  0  0  0
    8.3740   -4.1464    0.0000 C   0  0  0  0  0  0  0  0  0  0  0  0
   11.2319   -4.1464    0.0000 C   0  0  0  0  0  0  0  0  0  0  0  0
   11.2319   -4.9714    0.0000 C   0  0  0  0  0  0  0  0  0  0  0  0
   11.9464   -5.3839    0.0000 C   0  0  0  0  0  0  0  0  0  0  0  0
   10.5174   -7.8589    0.0000 C   0  0  0  0  0  0  0  0  0  0  0  0
    9.8030   -7.4464    0.0000 C   0  0  0  0  0  0  0  0  0  0  0  0
    9.0885   -7.8589    0.0000 C   0  0  0  0  0  0  0  0  0  0  0  0
    8.3740   -7.4464    0.0000 C   0  0  0  0  0  0  0  0  0  0  0  0
    7.6596   -7.8589    0.0000 C   0  0  0  0  0  0  0  0  0  0  0  0
 36  7  1  0  0  0  0
 36  8  2  0  0  0  0
 10  9  1  0  0  0  0
 11 10  1  0  0  0  0
 12 11  1  0  0  0  0
 13 12  1  0  0  0  0
 14 13  1  0  0  0  0
 15 14  1  0  0  0  0
 16 15  1  0  0  0  0
 17 16  1  0  0  0  0
 18 17  1  0  0  0  0
 19 18  1  0  0  0  0
 20 19  1  0  0  0  0
 21 20  1  0  0  0  0
 22 21  1  0  0  0  0
 23 22  1  0  0  0  0
 24 23  1  0  0  0  0
 25 24  1  0  0  0  0
 26 25  1  0  0  0  0
 27 26  1  0  0  0  0
 28 27  1  0  0  0  0
 29  4  2  0  0  0  0
 30 29  1  0  0  0  0
 31 30  1  0  0  0  0
 32  1  2  0  0  0  0
 33 32  1  0  0  0  0
 34 33  1  0  0  0  0
 35 34  1  0  0  0  0
 36 35  1  0  0  0  0
  1  2  1  0  0  0  0
  2  3  1  0  0  0  0
  3 31  2  0  0  0  0
  4  5  1  0  0  0  0
  5  6  1  0  0  0  0
  6 28  2  0  0  0  0
M  END
>  <cdx:fragmentId>
5

$$$$
