94489.cdx
  Mrv1902 05222410272D          

 26 27  0  0  0  0            999 V2000
    6.8968   -9.0269    0.0000 C   0  0  0  0  0  0  0  0  0  0  0  0
    6.1901   -8.6012    0.0000 C   0  0  0  0  0  0  0  0  0  0  0  0
    3.3058  -10.2047    0.0000 O   0  0  0  0  0  0  0  0  0  0  0  0
    5.4557   -9.8270    0.0000 C   0  0  0  0  0  0  0  0  0  0  0  0
    5.4690   -9.0021    0.0000 C   0  0  0  0  0  0  0  0  0  0  0  0
    4.7613   -8.5781    0.0000 C   0  0  0  0  0  0  0  0  0  0  0  0
    4.0403   -8.9790    0.0000 C   0  0  0  0  0  0  0  0  0  0  0  0
    4.0269   -9.8039    0.0000 C   0  0  0  0  0  0  0  0  0  0  0  0
    4.7346  -10.2279    0.0000 C   0  0  0  0  0  0  0  0  0  0  0  0
    7.6113   -8.6144    0.0000 C   0  0  0  0  0  0  0  0  0  0  0  0
    8.3257   -9.0269    0.0000 O   0  0  0  0  0  0  0  0  0  0  0  0
    7.6113   -7.7894    0.0000 O   0  0  0  0  0  0  0  0  0  0  0  0
    9.0402   -8.6144    0.0000 C   0  0  1  0  0  0  0  0  0  0  0  0
    9.7547   -9.0269    0.0000 C   0  0  1  0  0  0  0  0  0  0  0  0
   10.4691   -8.6144    0.0000 C   0  0  1  0  0  0  0  0  0  0  0  0
   10.4691   -7.7894    0.0000 C   0  0  0  0  0  0  0  0  0  0  0  0
    9.7547   -7.3769    0.0000 C   0  0  1  0  0  0  0  0  0  0  0  0
    9.0402   -7.7894    0.0000 C   0  0  0  0  0  0  0  0  0  0  0  0
    9.7547   -9.8519    0.0000 O   0  0  0  0  0  0  0  0  0  0  0  0
   11.1836   -9.0269    0.0000 O   0  0  0  0  0  0  0  0  0  0  0  0
    9.3422   -6.6624    0.0000 O   0  0  0  0  0  0  0  0  0  0  0  0
   10.1672   -6.6624    0.0000 C   0  0  0  0  0  0  0  0  0  0  0  0
   10.9922   -6.6624    0.0000 O   0  0  0  0  0  0  0  0  0  0  0  0
    9.7547   -5.9479    0.0000 O   0  0  0  0  0  0  0  0  0  0  0  0
    3.3326   -8.5550    0.0000 O   0  0  0  0  0  0  0  0  0  0  0  0
    2.6115   -8.9558    0.0000 C   0  0  0  0  0  0  0  0  0  0  0  0
  2  1  2  0  0  0  0
  5  2  1  0  0  0  0
  8  3  1  0  0  0  0
  4  9  1  0  0  0  0
  5  4  2  0  0  0  0
  6  5  1  0  0  0  0
  7  6  2  0  0  0  0
  8  7  1  0  0  0  0
  9  8  2  0  0  0  0
  1 10  1  0  0  0  0
 10 11  1  0  0  0  0
 10 12  2  0  0  0  0
 13 11  1  6  0  0  0
 13 14  1  0  0  0  0
 14 15  1  0  0  0  0
 15 16  1  0  0  0  0
 16 17  1  0  0  0  0
 17 18  1  0  0  0  0
 18 13  1  0  0  0  0
 14 19  1  1  0  0  0
 15 20  1  1  0  0  0
 17 21  1  1  0  0  0
 17 22  1  0  0  0  0
 22 23  1  0  0  0  0
 22 24  2  0  0  0  0
  7 25  1  0  0  0  0
 25 26  1  0  0  0  0
M  END
>  <cdx:fragmentId>
5

$$$$
