94485.cdx
  Mrv1902 05222410192D          

 36 35  0  0  0  0            999 V2000
    1.5826   -7.9964    0.0000 O   0  0  0  0  0  0  0  0  0  0  0  0
    2.2971   -9.2339    0.0000 O   0  0  0  0  0  0  0  0  0  0  0  0
   25.8746   -7.9964    0.0000 C   0  0  0  0  0  0  0  0  0  0  0  0
   25.1601   -8.4089    0.0000 C   0  0  0  0  0  0  0  0  0  0  0  0
   24.4457   -7.9964    0.0000 C   0  0  0  0  0  0  0  0  0  0  0  0
   23.7312   -8.4089    0.0000 C   0  0  0  0  0  0  0  0  0  0  0  0
   23.0167   -7.9964    0.0000 C   0  0  0  0  0  0  0  0  0  0  0  0
   22.3022   -8.4089    0.0000 C   0  0  0  0  0  0  0  0  0  0  0  0
   21.5878   -7.9964    0.0000 C   0  0  0  0  0  0  0  0  0  0  0  0
   20.8733   -8.4089    0.0000 C   0  0  0  0  0  0  0  0  0  0  0  0
   20.1588   -7.9964    0.0000 C   0  0  0  0  0  0  0  0  0  0  0  0
   19.4444   -8.4089    0.0000 C   0  0  0  0  0  0  0  0  0  0  0  0
   18.7299   -7.9964    0.0000 C   0  0  0  0  0  0  0  0  0  0  0  0
   18.0154   -8.4089    0.0000 C   0  0  0  0  0  0  0  0  0  0  0  0
   17.3010   -7.9964    0.0000 C   0  0  0  0  0  0  0  0  0  0  0  0
   16.5865   -8.4089    0.0000 C   0  0  0  0  0  0  0  0  0  0  0  0
   15.8720   -7.9964    0.0000 C   0  0  0  0  0  0  0  0  0  0  0  0
   15.1575   -8.4089    0.0000 C   0  0  0  0  0  0  0  0  0  0  0  0
   14.4431   -7.9964    0.0000 C   0  0  0  0  0  0  0  0  0  0  0  0
   13.7286   -8.4089    0.0000 C   0  0  0  0  0  0  0  0  0  0  0  0
   13.0141   -7.9964    0.0000 C   0  0  0  0  0  0  0  0  0  0  0  0
   12.2997   -8.4089    0.0000 C   0  0  0  0  0  0  0  0  0  0  0  0
   11.5852   -7.9964    0.0000 C   0  0  0  0  0  0  0  0  0  0  0  0
   10.8707   -8.4089    0.0000 C   0  0  0  0  0  0  0  0  0  0  0  0
   10.1562   -7.9964    0.0000 C   0  0  0  0  0  0  0  0  0  0  0  0
    9.4418   -8.4089    0.0000 C   0  0  0  0  0  0  0  0  0  0  0  0
    8.7273   -7.9964    0.0000 C   0  0  0  0  0  0  0  0  0  0  0  0
    8.0128   -8.4089    0.0000 C   0  0  0  0  0  0  0  0  0  0  0  0
    7.2984   -7.9964    0.0000 C   0  0  0  0  0  0  0  0  0  0  0  0
    6.5839   -8.4089    0.0000 C   0  0  0  0  0  0  0  0  0  0  0  0
    5.8694   -7.9964    0.0000 C   0  0  0  0  0  0  0  0  0  0  0  0
    5.1549   -8.4089    0.0000 C   0  0  0  0  0  0  0  0  0  0  0  0
    4.4405   -7.9964    0.0000 C   0  0  0  0  0  0  0  0  0  0  0  0
    3.7260   -8.4089    0.0000 C   0  0  0  0  0  0  0  0  0  0  0  0
    3.0115   -7.9964    0.0000 C   0  0  0  0  0  0  0  0  0  0  0  0
    2.2971   -8.4089    0.0000 C   0  0  0  0  0  0  0  0  0  0  0  0
 36  1  1  0  0  0  0
 36  2  2  0  0  0  0
  4  3  1  0  0  0  0
  5  4  1  0  0  0  0
  6  5  1  0  0  0  0
  7  6  1  0  0  0  0
  8  7  1  0  0  0  0
  9  8  1  0  0  0  0
 10  9  1  0  0  0  0
 11 10  1  0  0  0  0
 12 11  1  0  0  0  0
 13 12  1  0  0  0  0
 14 13  1  0  0  0  0
 15 14  1  0  0  0  0
 16 15  1  0  0  0  0
 17 16  1  0  0  0  0
 18 17  1  0  0  0  0
 19 18  1  0  0  0  0
 20 19  1  0  0  0  0
 21 20  1  0  0  0  0
 22 21  1  0  0  0  0
 23 22  1  0  0  0  0
 24 23  1  0  0  0  0
 25 24  1  0  0  0  0
 26 25  1  0  0  0  0
 27 26  1  0  0  0  0
 28 27  1  0  0  0  0
 29 28  1  0  0  0  0
 30 29  1  0  0  0  0
 31 30  1  0  0  0  0
 32 31  1  0  0  0  0
 33 32  1  0  0  0  0
 34 33  1  0  0  0  0
 35 34  1  0  0  0  0
 36 35  1  0  0  0  0
M  END
>  <cdx:fragmentId>
5

$$$$
