94486.cdx
  Mrv1902 05222410202D          

 24 25  0  0  0  0            999 V2000
    8.1123   -8.2507    0.0000 C   0  0  2  0  0  0  0  0  0  0  0  0
    8.8290   -8.6593    0.0000 C   0  0  0  0  0  0  0  0  0  0  0  0
    8.8335   -9.4843    0.0000 C   0  0  2  0  0  0  0  0  0  0  0  0
    8.1213   -9.9007    0.0000 C   0  0  1  0  0  0  0  0  0  0  0  0
    7.4046   -9.4921    0.0000 C   0  0  1  0  0  0  0  0  0  0  0  0
    7.4001   -8.6671    0.0000 C   0  0  0  0  0  0  0  0  0  0  0  0
    6.6924   -9.9085    0.0000 O   0  0  0  0  0  0  0  0  0  0  0  0
    5.9779   -9.4960    0.0000 C   0  0  0  0  0  0  0  0  0  0  0  0
    5.2634   -9.9085    0.0000 C   0  0  0  0  0  0  0  0  0  0  0  0
    4.5490   -9.4960    0.0000 C   0  0  0  0  0  0  0  0  0  0  0  0
    5.9779   -8.6710    0.0000 O   0  0  0  0  0  0  0  0  0  0  0  0
    4.5490   -8.6710    0.0000 C   0  0  0  0  0  0  0  0  0  0  0  0
    3.8345   -8.2585    0.0000 C   0  0  0  0  0  0  0  0  0  0  0  0
    3.8345   -7.4335    0.0000 C   0  0  0  0  0  0  0  0  0  0  0  0
    4.5490   -7.0210    0.0000 C   0  0  0  0  0  0  0  0  0  0  0  0
    5.2634   -7.4335    0.0000 C   0  0  0  0  0  0  0  0  0  0  0  0
    5.2634   -8.2585    0.0000 C   0  0  0  0  0  0  0  0  0  0  0  0
    4.5490   -6.1960    0.0000 O   0  0  0  0  0  0  0  0  0  0  0  0
    8.1258  -10.7257    0.0000 O   0  0  0  0  0  0  0  0  0  0  0  0
    9.5502   -9.8929    0.0000 O   0  0  0  0  0  0  0  0  0  0  0  0
    7.6998   -7.5362    0.0000 O   0  0  0  0  0  0  0  0  0  0  0  0
    8.5248   -7.5362    0.0000 C   0  0  0  0  0  0  0  0  0  0  0  0
    8.1123   -6.8218    0.0000 O   0  0  0  0  0  0  0  0  0  0  0  0
    9.3498   -7.5362    0.0000 O   0  0  0  0  0  0  0  0  0  0  0  0
  1  2  1  0  0  0  0
  2  3  1  0  0  0  0
  3  4  1  0  0  0  0
  4  5  1  0  0  0  0
  5  6  1  0  0  0  0
  1  6  1  0  0  0  0
  8  9  1  0  0  0  0
  9 10  2  0  0  0  0
  8 11  2  0  0  0  0
 12 13  1  0  0  0  0
 13 14  2  0  0  0  0
 14 15  1  0  0  0  0
 15 16  2  0  0  0  0
 16 17  1  0  0  0  0
 12 17  2  0  0  0  0
 15 18  1  0  0  0  0
 10 12  1  0  0  0  0
  7  8  1  0  0  0  0
  5  7  1  6  0  0  0
  4 19  1  6  0  0  0
  3 20  1  1  0  0  0
  1 21  1  6  0  0  0
  1 22  1  0  0  0  0
 22 23  2  0  0  0  0
 22 24  1  0  0  0  0
M  END
>  <cdx:groupId>
75

>  <cdx:fragmentId>
33

$$$$
