94498.cdx
  Mrv1902 05222410272D          

 21 23  0  0  0  0            999 V2000
    5.5326   -5.7475    0.0000 C   0  0  2  0  0  0  0  0  0  0  0  0
    5.7232   -6.5502    0.0000 C   0  0  2  0  0  0  0  0  0  0  0  0
    6.4695   -6.9017    0.0000 C   0  0  0  0  0  0  0  0  0  0  0  0
    7.2097   -6.5373    0.0000 C   0  0  1  0  0  0  0  0  0  0  0  0
    7.3863   -5.7315    0.0000 C   0  0  2  0  0  0  0  0  0  0  0  0
    6.8664   -5.0909    0.0000 C   0  0  0  0  0  0  0  0  0  0  0  0
    6.0414   -5.0981    0.0000 C   0  0  1  0  0  0  0  0  0  0  0  0
    4.7104   -5.6807    0.0000 C   0  0  0  0  0  0  0  0  0  0  0  0
    4.3927   -6.4421    0.0000 C   0  0  0  0  0  0  0  0  0  0  0  0
    5.0186   -6.9795    0.0000 C   0  0  2  0  0  0  0  0  0  0  0  0
    7.9216   -6.9543    0.0000 C   0  0  0  0  0  0  0  0  0  0  0  0
    8.5381   -6.4062    0.0000 C   0  0  0  0  0  0  0  0  0  0  0  0
    8.2073   -5.6504    0.0000 O   0  0  0  0  0  0  0  0  0  0  0  0
    8.0026   -7.7754    0.0000 C   0  0  0  0  0  0  0  0  0  0  0  0
    9.3440   -6.5828    0.0000 O   0  0  0  0  0  0  0  0  0  0  0  0
    4.9518   -7.8018    0.0000 O   0  0  0  0  0  0  0  0  0  0  0  0
    5.7232   -7.3752    0.0000 C   0  0  0  0  0  0  0  0  0  0  0  0
    7.7988   -5.0170    0.0000 H   0  0  0  0  0  0  0  0  0  0  0  0
    5.1201   -5.0331    0.0000 H   0  0  0  0  0  0  0  0  0  0  0  0
    5.6770   -4.3579    0.0000 C   0  0  0  0  0  0  0  0  0  0  0  0
    7.2097   -7.3623    0.0000 H   0  0  0  0  0  0  0  0  0  0  0  0
  1  2  1  0  0  0  0
  2  3  1  0  0  0  0
  3  4  1  0  0  0  0
  4  5  1  0  0  0  0
  5  6  1  0  0  0  0
  6  7  1  0  0  0  0
  7  1  1  0  0  0  0
  1  8  1  0  0  0  0
  8  9  1  0  0  0  0
  9 10  1  0  0  0  0
 10  2  1  0  0  0  0
  4 11  1  0  0  0  0
 11 12  1  0  0  0  0
 12 13  1  0  0  0  0
 13  5  1  0  0  0  0
 11 14  2  0  0  0  0
 12 15  2  0  0  0  0
 10 16  1  1  0  0  0
  2 17  1  1  0  0  0
  5 18  1  1  0  0  0
  1 19  1  6  0  0  0
  7 20  1  6  0  0  0
  4 21  1  6  0  0  0
M  END
>  <cdx:fragmentId>
5

$$$$
