94494.cdx
  Mrv1902 05222410192D          

 41 46  0  0  0  0            999 V2000
    1.8818   -6.7375    0.0000 C   0  0  0  0  0  0  0  0  0  0  0  0
    1.8818   -7.5625    0.0000 C   0  0  0  0  0  0  0  0  0  0  0  0
    2.5963   -7.9750    0.0000 C   0  0  0  0  0  0  0  0  0  0  0  0
    3.3107   -7.5625    0.0000 C   0  0  0  0  0  0  0  0  0  0  0  0
    3.3107   -6.7375    0.0000 C   0  0  0  0  0  0  0  0  0  0  0  0
    2.5963   -6.3250    0.0000 C   0  0  0  0  0  0  0  0  0  0  0  0
    4.0252   -7.9750    0.0000 C   0  0  0  0  0  0  0  0  0  0  0  0
    4.7397   -7.5625    0.0000 C   0  0  0  0  0  0  0  0  0  0  0  0
    4.7397   -6.7375    0.0000 C   0  0  0  0  0  0  0  0  0  0  0  0
    4.0252   -6.3250    0.0000 O   0  0  0  0  0  0  0  0  0  0  0  0
    6.1686   -6.7375    0.0000 C   0  0  0  0  0  0  0  0  0  0  0  0
    5.4542   -6.3250    0.0000 C   0  0  0  0  0  0  0  0  0  0  0  0
    6.8831   -6.3250    0.0000 C   0  0  0  0  0  0  0  0  0  0  0  0
    6.8831   -5.5000    0.0000 C   0  0  0  0  0  0  0  0  0  0  0  0
    6.1686   -5.0875    0.0000 C   0  0  0  0  0  0  0  0  0  0  0  0
    5.4542   -5.5000    0.0000 C   0  0  0  0  0  0  0  0  0  0  0  0
    7.5976   -6.7375    0.0000 C   0  0  0  0  0  0  0  0  0  0  0  0
    8.3120   -6.3250    0.0000 C   0  0  0  0  0  0  0  0  0  0  0  0
    8.3120   -5.5000    0.0000 O   0  0  0  0  0  0  0  0  0  0  0  0
    7.5976   -5.0875    0.0000 O   0  0  0  0  0  0  0  0  0  0  0  0
    7.5976   -7.5625    0.0000 C   0  0  0  0  0  0  0  0  0  0  0  0
    8.3120   -7.9750    0.0000 C   0  0  0  0  0  0  0  0  0  0  0  0
    9.0265   -7.5625    0.0000 C   0  0  0  0  0  0  0  0  0  0  0  0
    9.0265   -6.7375    0.0000 C   0  0  0  0  0  0  0  0  0  0  0  0
    9.7410   -7.9750    0.0000 O   0  0  0  0  0  0  0  0  0  0  0  0
   10.4555   -7.5625    0.0000 C   0  0  0  0  0  0  0  0  0  0  0  0
   10.4555   -6.7375    0.0000 C   0  0  0  0  0  0  0  0  0  0  0  0
    9.7410   -6.3250    0.0000 C   0  0  0  0  0  0  0  0  0  0  0  0
   11.1699   -8.8000    0.0000 C   0  0  0  0  0  0  0  0  0  0  0  0
   11.1699   -7.9750    0.0000 C   0  0  0  0  0  0  0  0  0  0  0  0
   11.8844   -9.2125    0.0000 C   0  0  0  0  0  0  0  0  0  0  0  0
   12.5989   -8.8000    0.0000 C   0  0  0  0  0  0  0  0  0  0  0  0
   12.5989   -7.9750    0.0000 C   0  0  0  0  0  0  0  0  0  0  0  0
   11.8844   -7.5625    0.0000 C   0  0  0  0  0  0  0  0  0  0  0  0
    1.1673   -6.3250    0.0000 O   0  0  0  0  0  0  0  0  0  0  0  0
    2.5963   -8.8000    0.0000 O   0  0  0  0  0  0  0  0  0  0  0  0
    4.0252   -8.8000    0.0000 O   0  0  0  0  0  0  0  0  0  0  0  0
    6.8831   -7.9750    0.0000 O   0  0  0  0  0  0  0  0  0  0  0  0
    9.7410   -5.5000    0.0000 O   0  0  0  0  0  0  0  0  0  0  0  0
   13.3133   -9.2125    0.0000 O   0  0  0  0  0  0  0  0  0  0  0  0
    7.5976   -4.2625    0.0000 C   0  0  0  0  0  0  0  0  0  0  0  0
  1  2  2  0  0  0  0
  2  3  1  0  0  0  0
  3  4  2  0  0  0  0
  4  5  1  0  0  0  0
  5  6  2  0  0  0  0
  6  1  1  0  0  0  0
  4  7  1  0  0  0  0
  7  8  1  0  0  0  0
  8  9  2  0  0  0  0
  9 10  1  0  0  0  0
 10  5  1  0  0  0  0
 11 12  2  0  0  0  0
 12  9  1  0  0  0  0
 11 13  1  0  0  0  0
 13 14  2  0  0  0  0
 14 15  1  0  0  0  0
 15 16  2  0  0  0  0
 16 12  1  0  0  0  0
 13 17  1  0  0  0  0
 17 18  2  0  0  0  0
 18 19  1  0  0  0  0
 20 14  1  0  0  0  0
 17 21  1  0  0  0  0
 21 22  2  0  0  0  0
 22 23  1  0  0  0  0
 23 24  2  0  0  0  0
 24 18  1  0  0  0  0
 23 25  1  0  0  0  0
 25 26  1  0  0  0  0
 26 27  2  0  0  0  0
 27 28  1  0  0  0  0
 28 24  1  0  0  0  0
 29 30  2  0  0  0  0
 30 26  1  0  0  0  0
 29 31  1  0  0  0  0
 31 32  2  0  0  0  0
 32 33  1  0  0  0  0
 33 34  2  0  0  0  0
 34 30  1  0  0  0  0
  1 35  1  0  0  0  0
  3 36  1  0  0  0  0
  7 37  2  0  0  0  0
 21 38  1  0  0  0  0
 28 39  2  0  0  0  0
 32 40  1  0  0  0  0
 20 41  1  0  0  0  0
M  END
>  <cdx:fragmentId>
5

$$$$
