9449.cdx
  Mrv1902 05222410242D          

 19 21  0  0  0  0            999 V2000
    5.0977   -6.6688    0.0000 C   0  0  0  0  0  0  0  0  0  0  0  0
    5.0977   -5.8438    0.0000 C   0  0  0  0  0  0  0  0  0  0  0  0
    5.8121   -5.4313    0.0000 C   0  0  0  0  0  0  0  0  0  0  0  0
    6.5266   -5.8438    0.0000 C   0  0  0  0  0  0  0  0  0  0  0  0
    6.5266   -6.6688    0.0000 C   0  0  0  0  0  0  0  0  0  0  0  0
    5.8121   -7.0812    0.0000 C   0  0  0  0  0  0  0  0  0  0  0  0
    7.2411   -5.4313    0.0000 O   0  0  0  0  0  0  0  0  0  0  0  0
    7.9555   -5.8438    0.0000 C   0  0  0  0  0  0  0  0  0  0  0  0
    7.9555   -6.6688    0.0000 C   0  0  0  0  0  0  0  0  0  0  0  0
    7.2411   -7.0812    0.0000 C   0  0  0  0  0  0  0  0  0  0  0  0
    8.6700   -7.0812    0.0000 C   0  0  0  0  0  0  0  0  0  0  0  0
    8.6700   -7.9063    0.0000 C   0  0  0  0  0  0  0  0  0  0  0  0
    9.3845   -6.6688    0.0000 C   0  0  0  0  0  0  0  0  0  0  0  0
   10.0990   -7.0812    0.0000 C   0  0  0  0  0  0  0  0  0  0  0  0
   10.0990   -7.9063    0.0000 C   0  0  0  0  0  0  0  0  0  0  0  0
    9.3845   -8.3187    0.0000 C   0  0  0  0  0  0  0  0  0  0  0  0
    4.3832   -5.4313    0.0000 O   0  0  0  0  0  0  0  0  0  0  0  0
    7.2411   -7.9063    0.0000 O   0  0  0  0  0  0  0  0  0  0  0  0
   10.8134   -8.3187    0.0000 O   0  0  0  0  0  0  0  0  0  0  0  0
  1  2  1  0  0  0  0
  2  3  2  0  0  0  0
  3  4  1  0  0  0  0
  4  5  2  0  0  0  0
  5  6  1  0  0  0  0
  6  1  2  0  0  0  0
  4  7  1  0  0  0  0
  7  8  1  0  0  0  0
  8  9  2  0  0  0  0
  9 10  1  0  0  0  0
 10  5  1  0  0  0  0
  9 11  1  0  0  0  0
 11 12  1  0  0  0  0
 11 13  2  0  0  0  0
 13 14  1  0  0  0  0
 14 15  2  0  0  0  0
 15 16  1  0  0  0  0
 16 12  2  0  0  0  0
  2 17  1  0  0  0  0
 10 18  2  0  0  0  0
 15 19  1  0  0  0  0
M  END
>  <cdx:fragmentId>
5

$$$$
