94492.cdx
  Mrv1902 05222410202D          

 38 41  0  0  0  0            999 V2000
    3.5472   -9.3533    0.0000 C   0  0  0  0  0  0  0  0  0  0  0  0
    4.2649   -8.9466    0.0000 C   0  0  0  0  0  0  0  0  0  0  0  0
    4.9761   -9.3648    0.0000 C   0  0  0  0  0  0  0  0  0  0  0  0
    3.5405  -10.1783    0.0000 O   0  0  0  0  0  0  0  0  0  0  0  0
    2.8360   -8.9350    0.0000 O   0  0  0  0  0  0  0  0  0  0  0  0
    4.9694  -10.1898    0.0000 O   0  0  0  0  0  0  0  0  0  0  0  0
    5.6938   -8.9581    0.0000 O   0  0  0  0  0  0  0  0  0  0  0  0
    4.9893   -7.7148    0.0000 O   0  0  0  0  0  0  0  0  0  0  0  0
    3.5804   -5.2284    0.0000 O   0  0  0  0  0  0  0  0  0  0  0  0
   10.0204   -4.0428    0.0000 O   0  0  0  0  0  0  0  0  0  0  0  0
    7.8737   -4.4380    0.0000 C   0  0  0  0  0  0  0  0  0  0  0  0
    8.5915   -4.0312    0.0000 C   0  0  0  0  0  0  0  0  0  0  0  0
    9.3026   -4.4495    0.0000 C   0  0  0  0  0  0  0  0  0  0  0  0
    9.2960   -5.2745    0.0000 C   0  0  0  0  0  0  0  0  0  0  0  0
    8.5782   -5.6812    0.0000 C   0  0  0  0  0  0  0  0  0  0  0  0
    7.8671   -5.2629    0.0000 C   0  0  0  0  0  0  0  0  0  0  0  0
    6.4182   -7.7264    0.0000 O   0  0  0  0  0  0  0  0  0  0  0  0
    6.4382   -5.2514    0.0000 O   0  0  0  0  0  0  0  0  0  0  0  0
    5.7204   -5.6582    0.0000 C   0  0  0  0  0  0  0  0  0  0  0  0
    5.0093   -5.2399    0.0000 C   0  0  0  0  0  0  0  0  0  0  0  0
    4.2915   -5.6467    0.0000 C   0  0  0  0  0  0  0  0  0  0  0  0
    4.2849   -6.4716    0.0000 C   0  0  0  0  0  0  0  0  0  0  0  0
    4.9960   -6.8899    0.0000 C   0  0  0  0  0  0  0  0  0  0  0  0
    5.7138   -6.4831    0.0000 C   0  0  0  0  0  0  0  0  0  0  0  0
    6.4249   -6.9014    0.0000 C   0  0  0  0  0  0  0  0  0  0  0  0
    7.1427   -6.4947    0.0000 C   0  0  0  0  0  0  0  0  0  0  0  0
    7.1493   -5.6697    0.0000 C   0  0  0  0  0  0  0  0  0  0  0  0
    7.8538   -6.9129    0.0000 O   0  0  0  0  0  0  0  0  0  0  0  0
    7.8272  -10.2128    0.0000 O   0  0  0  0  0  0  0  0  0  0  0  0
    9.2627   -9.3993    0.0000 O   0  0  0  0  0  0  0  0  0  0  0  0
    9.2760   -7.7494    0.0000 O   0  0  0  0  0  0  0  0  0  0  0  0
    7.8471   -7.7379    0.0000 C   0  0  0  0  0  0  0  0  0  0  0  0
    8.5583   -8.1561    0.0000 C   0  0  0  0  0  0  0  0  0  0  0  0
    8.5516   -8.9811    0.0000 C   0  0  0  0  0  0  0  0  0  0  0  0
    7.8338   -9.3878    0.0000 C   0  0  0  0  0  0  0  0  0  0  0  0
    7.1227   -8.9696    0.0000 C   0  0  0  0  0  0  0  0  0  0  0  0
    7.1294   -8.1446    0.0000 O   0  0  0  0  0  0  0  0  0  0  0  0
    6.4050   -9.3763    0.0000 C   0  0  0  0  0  0  0  0  0  0  0  0
 36 38  1  0  0  0  0
 32 28  1  0  0  0  0
 28 26  1  0  0  0  0
 23  8  1  0  0  0  0
 21  9  1  0  0  0  0
 27 16  1  0  0  0  0
 13 10  1  0  0  0  0
 16 11  2  0  0  0  0
 12 11  1  0  0  0  0
 13 12  2  0  0  0  0
 14 13  1  0  0  0  0
 15 14  2  0  0  0  0
 16 15  1  0  0  0  0
 25 17  2  0  0  0  0
 27 18  1  0  0  0  0
 19 18  1  0  0  0  0
 24 19  2  0  0  0  0
 20 19  1  0  0  0  0
 21 20  2  0  0  0  0
 22 21  1  0  0  0  0
 23 22  2  0  0  0  0
 24 23  1  0  0  0  0
 25 24  1  0  0  0  0
 26 25  1  0  0  0  0
 27 26  2  0  0  0  0
 35 29  1  0  0  0  0
 34 30  1  0  0  0  0
 33 31  1  0  0  0  0
 37 32  1  0  0  0  0
 33 32  1  0  0  0  0
 34 33  1  0  0  0  0
 35 34  1  0  0  0  0
 36 35  1  0  0  0  0
 37 36  1  0  0  0  0
  1  2  1  0  0  0  0
  2  3  1  0  0  0  0
  1  4  2  0  0  0  0
  1  5  1  0  0  0  0
  3  6  2  0  0  0  0
  7 38  1  0  0  0  0
  3  7  1  0  0  0  0
M  END
>  <cdx:groupId>
119

>  <cdx:fragmentId>
41

$$$$
