94497.cdx
  Mrv1902 05222410182D          

 16 16  0  0  0  0            999 V2000
    5.3468   -7.3838    0.0000 C   0  0  0  0  0  0  0  0  0  0  0  0
    5.3468   -8.2088    0.0000 C   0  0  0  0  0  0  0  0  0  0  0  0
    6.0613   -8.6212    0.0000 C   0  0  0  0  0  0  0  0  0  0  0  0
    6.7757   -8.2088    0.0000 C   0  0  0  0  0  0  0  0  0  0  0  0
    6.7757   -7.3838    0.0000 C   0  0  2  0  0  0  0  0  0  0  0  0
    6.0613   -6.9712    0.0000 C   0  0  0  0  0  0  0  0  0  0  0  0
    4.6323   -8.6212    0.0000 O   0  0  0  0  0  0  0  0  0  0  0  0
    6.0613   -6.1463    0.0000 C   0  0  0  0  0  0  0  0  0  0  0  0
    7.1882   -8.9232    0.0000 C   0  0  0  0  0  0  0  0  0  0  0  0
    7.5726   -7.9952    0.0000 C   0  0  0  0  0  0  0  0  0  0  0  0
    7.4902   -6.9712    0.0000 C   0  0  0  0  0  0  0  0  0  0  0  0
    8.2047   -7.3838    0.0000 C   0  0  0  0  0  0  0  0  0  0  0  0
    8.9192   -6.9712    0.0000 C   0  0  0  0  0  0  0  0  0  0  0  0
    9.6336   -7.3838    0.0000 C   0  0  0  0  0  0  0  0  0  0  0  0
    8.9192   -6.1463    0.0000 O   0  0  0  0  0  0  0  0  0  0  0  0
    7.5726   -7.5973    0.0000 O   0  0  0  0  0  0  0  0  0  0  0  0
  1  2  1  0  0  0  0
  2  3  1  0  0  0  0
  3  4  1  0  0  0  0
  4  5  1  0  0  0  0
  5  6  1  0  0  0  0
  6  1  2  0  0  0  0
  2  7  2  0  0  0  0
  6  8  1  0  0  0  0
  4  9  1  0  0  0  0
  4 10  1  0  0  0  0
  5 11  1  0  0  0  0
 11 12  2  0  0  0  0
 12 13  1  0  0  0  0
 13 14  1  0  0  0  0
 13 15  1  0  0  0  0
  5 16  1  1  0  0  0
M  END
>  <cdx:fragmentId>
5

$$$$
