94495.cdx
  Mrv1902 05222410192D          

 29 32  0  0  0  0            999 V2000
    9.5999   -8.1750    0.0000 C   0  0  2  0  0  0  0  0  0  0  0  0
    9.5999   -7.3500    0.0000 C   0  0  0  0  0  0  0  0  0  0  0  0
    8.8854   -6.9375    0.0000 C   0  0  2  0  0  0  0  0  0  0  0  0
    8.1709   -7.3500    0.0000 C   0  0  0  0  0  0  0  0  0  0  0  0
    8.1709   -8.1750    0.0000 C   0  0  1  0  0  0  0  0  0  0  0  0
    7.4565   -8.5875    0.0000 C   0  0  2  0  0  0  0  0  0  0  0  0
    6.7420   -8.1750    0.0000 C   0  0  0  0  0  0  0  0  0  0  0  0
    6.0275   -8.5875    0.0000 C   0  0  0  0  0  0  0  0  0  0  0  0
    6.0275   -9.4125    0.0000 C   0  0  2  0  0  0  0  0  0  0  0  0
    6.7420   -9.8250    0.0000 C   0  0  0  0  0  0  0  0  0  0  0  0
    7.4565   -9.4125    0.0000 C   0  0  0  0  0  0  0  0  0  0  0  0
    8.1709   -9.8250    0.0000 C   0  0  0  0  0  0  0  0  0  0  0  0
    8.8854   -9.4125    0.0000 C   0  0  0  0  0  0  0  0  0  0  0  0
    8.8854   -8.5875    0.0000 C   0  0  2  0  0  0  0  0  0  0  0  0
   10.4249   -8.1750    0.0000 C   0  0  0  0  0  0  0  0  0  0  0  0
   10.8374   -7.4605    0.0000 O   0  0  0  0  0  0  0  0  0  0  0  0
    6.0275  -10.2375    0.0000 C   0  0  0  0  0  0  0  0  0  0  0  0
    8.1709   -9.0000    0.0000 C   0  0  0  0  0  0  0  0  0  0  0  0
   10.0124   -8.8894    0.0000 C   0  0  0  0  0  0  0  0  0  0  0  0
    8.8854   -6.1125    0.0000 O   0  0  0  0  0  0  0  0  0  0  0  0
    4.4198  -10.8170    0.0000 O   0  0  0  0  0  0  0  0  0  0  0  0
    4.0073  -10.1025    0.0000 C   0  0  0  0  0  0  0  0  0  0  0  0
    4.5594   -9.4894    0.0000 O   0  0  0  0  0  0  0  0  0  0  0  0
    5.3131   -9.8250    0.0000 C   0  0  0  0  0  0  0  0  0  0  0  0
    5.2268  -10.6455    0.0000 C   0  0  0  0  0  0  0  0  0  0  0  0
    3.2537  -10.4381    0.0000 C   0  0  0  0  0  0  0  0  0  0  0  0
    3.3399   -9.6176    0.0000 C   0  0  0  0  0  0  0  0  0  0  0  0
    7.4565   -7.7625    0.0000 H   0  0  0  0  0  0  0  0  0  0  0  0
    9.5999   -9.0000    0.0000 H   0  0  0  0  0  0  0  0  0  0  0  0
  1  2  1  0  0  0  0
  2  3  1  0  0  0  0
  3  4  1  0  0  0  0
  4  5  1  0  0  0  0
  5  6  1  0  0  0  0
  6  7  1  0  0  0  0
  7  8  1  0  0  0  0
  8  9  1  0  0  0  0
  9 10  1  0  0  0  0
 10 11  2  0  0  0  0
  6 11  1  0  0  0  0
 11 12  1  0  0  0  0
 12 13  1  0  0  0  0
 13 14  1  0  0  0  0
  1 14  1  0  0  0  0
  5 14  1  0  0  0  0
 15 16  1  0  0  0  0
  1 15  1  1  0  0  0
  9 17  1  6  0  0  0
  5 18  1  1  0  0  0
  1 19  1  6  0  0  0
  3 20  1  6  0  0  0
 21 22  1  0  0  0  0
 22 23  1  0  0  0  0
 23 24  1  0  0  0  0
 24 25  1  0  0  0  0
 21 25  1  0  0  0  0
 22 26  1  0  0  0  0
 22 27  1  0  0  0  0
  9 24  1  0  0  0  0
  6 28  1  6  0  0  0
 14 29  1  6  0  0  0
M  END
>  <cdx:groupId>
92

>  <cdx:fragmentId>
5

$$$$
