94496.cdx
  Mrv1902 05222410182D          

 21 23  0  0  0  0            999 V2000
    9.3415   -9.1416    0.0000 O   0  0  0  0  0  0  0  0  0  0  0  0
    9.8264   -8.4741    0.0000 C   0  0  0  0  0  0  0  0  0  0  0  0
    9.3415   -7.8067    0.0000 C   0  0  0  0  0  0  0  0  0  0  0  0
    8.5569   -8.0616    0.0000 C   0  0  2  0  0  0  0  0  0  0  0  0
    8.5569   -8.8866    0.0000 C   0  0  1  0  0  0  0  0  0  0  0  0
    7.8424   -7.6491    0.0000 C   0  0  0  0  0  0  0  0  0  0  0  0
    7.1279   -8.0616    0.0000 C   0  0  2  0  0  0  0  0  0  0  0  0
    7.1279   -8.8866    0.0000 C   0  0  2  0  0  0  0  0  0  0  0  0
    7.8424   -9.2991    0.0000 C   0  0  0  0  0  0  0  0  0  0  0  0
    6.4135   -8.4741    0.0000 C   0  0  1  0  0  0  0  0  0  0  0  0
   10.6514   -8.4741    0.0000 O   0  0  0  0  0  0  0  0  0  0  0  0
    9.5964   -7.0221    0.0000 C   0  0  0  0  0  0  0  0  0  0  0  0
    6.7154   -9.6011    0.0000 C   0  0  0  0  0  0  0  0  0  0  0  0
    5.5885   -8.4741    0.0000 C   0  0  0  0  0  0  0  0  0  0  0  0
    5.1760   -9.1886    0.0000 C   0  0  0  0  0  0  0  0  0  0  0  0
    4.3510   -9.1886    0.0000 C   0  0  0  0  0  0  0  0  0  0  0  0
    3.9385   -9.9031    0.0000 C   0  0  0  0  0  0  0  0  0  0  0  0
    3.9385   -8.4741    0.0000 O   0  0  0  0  0  0  0  0  0  0  0  0
    8.6431   -7.2412    0.0000 H   0  0  0  0  0  0  0  0  0  0  0  0
    6.7154   -7.3472    0.0000 H   0  0  0  0  0  0  0  0  0  0  0  0
    8.6431   -9.7071    0.0000 H   0  0  0  0  0  0  0  0  0  0  0  0
  1  2  1  0  0  0  0
  2  3  1  0  0  0  0
  3  4  1  0  0  0  0
  4  5  1  0  0  0  0
  1  5  1  0  0  0  0
  6  7  1  0  0  0  0
  7  8  1  0  0  0  0
  8  9  1  0  0  0  0
  9  5  1  0  0  0  0
  6  4  1  0  0  0  0
 10  7  1  0  0  0  0
 10  8  1  0  0  0  0
  2 11  2  0  0  0  0
  3 12  2  0  0  0  0
  8 13  1  1  0  0  0
 14 15  1  0  0  0  0
 15 16  1  0  0  0  0
 16 17  1  0  0  0  0
 16 18  1  0  0  0  0
 10 14  1  1  0  0  0
  4 19  1  1  0  0  0
  7 20  1  1  0  0  0
  5 21  1  1  0  0  0
M  END
>  <cdx:groupId>
67

>  <cdx:fragmentId>
5

$$$$
