94506.cdx
  Mrv1902 05222410272D          

 39 44  0  0  0  0            999 V2000
    4.3156   -8.9788    0.0000 C   0  0  0  0  0  0  0  0  0  0  0  0
    4.3156   -9.8038    0.0000 C   0  0  1  0  0  0  0  0  0  0  0  0
    5.0300  -10.2163    0.0000 C   0  0  0  0  0  0  0  0  0  0  0  0
    5.7445   -9.8038    0.0000 C   0  0  1  0  0  0  0  0  0  0  0  0
    5.7445   -8.9788    0.0000 C   0  0  2  0  0  0  0  0  0  0  0  0
    5.0300   -8.5663    0.0000 C   0  0  0  0  0  0  0  0  0  0  0  0
    6.4590  -10.2163    0.0000 C   0  0  0  0  0  0  0  0  0  0  0  0
    7.1734   -9.8038    0.0000 C   0  0  0  0  0  0  0  0  0  0  0  0
    7.1734   -8.9788    0.0000 C   0  0  2  0  0  0  0  0  0  0  0  0
    6.4590   -8.5663    0.0000 C   0  0  2  0  0  0  0  0  0  0  0  0
    3.6011  -10.2163    0.0000 O   0  0  0  0  0  0  0  0  0  0  0  0
    5.7445   -8.1538    0.0000 C   0  0  0  0  0  0  0  0  0  0  0  0
    5.7445  -10.6288    0.0000 H   0  0  0  0  0  0  0  0  0  0  0  0
    6.4590   -9.3913    0.0000 H   0  0  0  0  0  0  0  0  0  0  0  0
    6.4590  -11.0412    0.0000 O   0  0  0  0  0  0  0  0  0  0  0  0
    7.7865   -8.4267    0.0000 C   0  0  1  0  0  0  0  0  0  0  0  0
    7.4510   -7.6730    0.0000 C   0  0  1  0  0  0  0  0  0  0  0  0
    6.6305   -7.7593    0.0000 C   0  0  0  0  0  0  0  0  0  0  0  0
    8.6070   -8.5130    0.0000 C   0  0  0  0  0  0  0  0  0  0  0  0
    9.0919   -7.8455    0.0000 C   0  0  0  0  0  0  0  0  0  0  0  0
    8.7564   -7.0918    0.0000 C   0  0  2  0  0  0  0  0  0  0  0  0
    7.9359   -7.0056    0.0000 C   0  0  1  0  0  0  0  0  0  0  0  0
    9.2413   -6.4244    0.0000 C   0  0  1  0  0  0  0  0  0  0  0  0
    8.9057   -5.6707    0.0000 C   0  0  1  0  0  0  0  0  0  0  0  0
    8.0853   -5.5845    0.0000 N   0  0  0  0  0  0  0  0  0  0  0  0
    7.6003   -6.2519    0.0000 C   0  0  0  0  0  0  0  0  0  0  0  0
    9.3907   -5.0033    0.0000 C   0  0  0  0  0  0  0  0  0  0  0  0
    9.0551   -4.2496    0.0000 C   0  0  0  0  0  0  0  0  0  0  0  0
    8.2346   -4.1634    0.0000 C   0  0  2  0  0  0  0  0  0  0  0  0
    7.7497   -4.8308    0.0000 C   0  0  0  0  0  0  0  0  0  0  0  0
    7.7568   -9.5621    0.0000 H   0  0  0  0  0  0  0  0  0  0  0  0
    8.1990   -9.1412    0.0000 H   0  0  0  0  0  0  0  0  0  0  0  0
    7.0385   -6.9586    0.0000 H   0  0  0  0  0  0  0  0  0  0  0  0
    8.3484   -7.7201    0.0000 H   0  0  0  0  0  0  0  0  0  0  0  0
    8.3439   -6.3774    0.0000 H   0  0  0  0  0  0  0  0  0  0  0  0
    9.9558   -6.0119    0.0000 O   0  0  0  0  0  0  0  0  0  0  0  0
    9.9558   -6.8369    0.0000 C   0  0  0  0  0  0  0  0  0  0  0  0
    8.4932   -4.9563    0.0000 H   0  0  0  0  0  0  0  0  0  0  0  0
    7.8991   -3.4097    0.0000 C   0  0  0  0  0  0  0  0  0  0  0  0
  1  2  1  0  0  0  0
  2  3  1  0  0  0  0
  3  4  1  0  0  0  0
  4  5  1  0  0  0  0
  5  6  1  0  0  0  0
  6  1  1  0  0  0  0
  4  7  1  0  0  0  0
  7  8  1  0  0  0  0
  8  9  1  0  0  0  0
  9 10  1  0  0  0  0
 10  5  1  0  0  0  0
  2 11  1  1  0  0  0
  5 12  1  1  0  0  0
  4 13  1  6  0  0  0
 10 14  1  6  0  0  0
  7 15  2  0  0  0  0
  9 16  1  0  0  0  0
 16 17  1  0  0  0  0
 17 18  1  0  0  0  0
 18 10  1  0  0  0  0
 16 19  1  0  0  0  0
 19 20  1  0  0  0  0
 20 21  1  0  0  0  0
 21 22  1  0  0  0  0
 22 17  1  0  0  0  0
 21 23  1  0  0  0  0
 23 24  1  0  0  0  0
 24 25  1  0  0  0  0
 25 26  1  0  0  0  0
 26 22  1  0  0  0  0
 24 27  1  0  0  0  0
 27 28  1  0  0  0  0
 28 29  1  0  0  0  0
 29 30  1  0  0  0  0
 30 25  1  0  0  0  0
  9 31  1  1  0  0  0
 16 32  1  6  0  0  0
 17 33  1  6  0  0  0
 22 34  1  1  0  0  0
 21 35  1  1  0  0  0
 23 36  1  1  0  0  0
 23 37  1  6  0  0  0
 24 38  1  6  0  0  0
 29 39  1  6  0  0  0
M  END
>  <cdx:fragmentId>
5

$$$$
