94504.cdx
  Mrv1902 05222410282D          

 52 57  0  0  0  0            999 V2000
    5.9243   -9.3775    0.0000 C   0  0  0  0  0  0  0  0  0  0  0  0
    5.9243  -10.2025    0.0000 C   0  0  0  0  0  0  0  0  0  0  0  0
    6.6388  -10.6150    0.0000 C   0  0  0  0  0  0  0  0  0  0  0  0
    7.3532  -10.2025    0.0000 C   0  0  0  0  0  0  0  0  0  0  0  0
    7.3532   -9.3775    0.0000 C   0  0  0  0  0  0  0  0  0  0  0  0
    6.6388   -8.9650    0.0000 C   0  0  0  0  0  0  0  0  0  0  0  0
    8.0677  -10.6150    0.0000 C   0  0  0  0  0  0  0  0  0  0  0  0
    8.7822  -10.2025    0.0000 C   0  0  0  0  0  0  0  0  0  0  0  0
    8.7822   -9.3775    0.0000 C   0  0  0  0  0  0  0  0  0  0  0  0
    8.0677   -8.9650    0.0000 O   0  0  0  0  0  0  0  0  0  0  0  0
   10.6236  -11.1380    0.0000 C   0  0  0  0  0  0  0  0  0  0  0  0
   10.2111   -9.3775    0.0000 C   0  0  0  0  0  0  0  0  0  0  0  0
    9.4967   -8.9650    0.0000 C   0  0  0  0  0  0  0  0  0  0  0  0
   10.9256   -8.9650    0.0000 C   0  0  0  0  0  0  0  0  0  0  0  0
   10.9256   -8.1400    0.0000 C   0  0  0  0  0  0  0  0  0  0  0  0
   10.2111   -7.7275    0.0000 C   0  0  0  0  0  0  0  0  0  0  0  0
    9.4967   -8.1400    0.0000 C   0  0  0  0  0  0  0  0  0  0  0  0
    6.6388  -11.4400    0.0000 O   0  0  0  0  0  0  0  0  0  0  0  0
    8.0677  -11.4400    0.0000 O   0  0  0  0  0  0  0  0  0  0  0  0
    6.6388   -7.6175    0.0000 C   0  0  1  0  0  0  0  0  0  0  0  0
    5.9243   -7.2050    0.0000 C   0  0  2  0  0  0  0  0  0  0  0  0
    4.9073   -7.7275    0.0000 C   0  0  0  0  0  0  0  0  0  0  0  0
    4.9073   -8.5525    0.0000 O   0  0  0  0  0  0  0  0  0  0  0  0
    7.3532   -7.2050    0.0000 C   0  0  0  0  0  0  0  0  0  0  0  0
    7.3532   -6.3800    0.0000 C   0  0  0  0  0  0  0  0  0  0  0  0
    6.6388   -5.9675    0.0000 C   0  0  0  0  0  0  0  0  0  0  0  0
    5.9243   -6.3800    0.0000 C   0  0  2  0  0  0  0  0  0  0  0  0
    4.1929   -6.4900    0.0000 C   0  0  0  0  0  0  0  0  0  0  0  0
    4.1929   -7.3150    0.0000 C   0  0  0  0  0  0  0  0  0  0  0  0
    3.4784   -6.0775    0.0000 C   0  0  0  0  0  0  0  0  0  0  0  0
    2.7639   -6.4900    0.0000 C   0  0  0  0  0  0  0  0  0  0  0  0
    2.7639   -7.3150    0.0000 C   0  0  0  0  0  0  0  0  0  0  0  0
    3.4784   -7.7275    0.0000 C   0  0  0  0  0  0  0  0  0  0  0  0
    5.2098   -8.9650    0.0000 O   0  0  0  0  0  0  0  0  0  0  0  0
    8.7822   -7.7275    0.0000 O   0  0  0  0  0  0  0  0  0  0  0  0
   11.6401   -7.7275    0.0000 O   0  0  0  0  0  0  0  0  0  0  0  0
    9.7986  -12.5670    0.0000 C   0  0  0  0  0  0  0  0  0  0  0  0
   10.9256  -12.2650    0.0000 O   0  0  0  0  0  0  0  0  0  0  0  0
   10.2111  -11.8525    0.0000 C   0  0  0  0  0  0  0  0  0  0  0  0
    9.4967  -11.4400    0.0000 C   0  0  0  0  0  0  0  0  0  0  0  0
    9.4967  -10.6150    0.0000 C   0  0  0  0  0  0  0  0  0  0  0  0
    2.0494   -6.0775    0.0000 O   0  0  0  0  0  0  0  0  0  0  0  0
    3.4784   -8.5525    0.0000 O   0  0  0  0  0  0  0  0  0  0  0  0
    8.0677   -5.9675    0.0000 C   0  0  0  0  0  0  0  0  0  0  0  0
    5.2098   -5.9675    0.0000 C   0  0  0  0  0  0  0  0  0  0  0  0
    5.2098   -5.1425    0.0000 C   0  0  0  0  0  0  0  0  0  0  0  0
    4.4954   -4.7300    0.0000 C   0  0  0  0  0  0  0  0  0  0  0  0
    3.7809   -5.1425    0.0000 C   0  0  0  0  0  0  0  0  0  0  0  0
    3.7809   -5.9675    0.0000 C   0  0  0  0  0  0  0  0  0  0  0  0
    4.4954   -6.3800    0.0000 C   0  0  0  0  0  0  0  0  0  0  0  0
    3.0664   -4.7300    0.0000 O   0  0  0  0  0  0  0  0  0  0  0  0
    5.9243   -4.7300    0.0000 O   0  0  0  0  0  0  0  0  0  0  0  0
  1  2  2  0  0  0  0
  2  3  1  0  0  0  0
  3  4  2  0  0  0  0
  4  5  1  0  0  0  0
  5  6  2  0  0  0  0
  6  1  1  0  0  0  0
  4  7  1  0  0  0  0
  7  8  1  0  0  0  0
  8  9  2  0  0  0  0
  9 10  1  0  0  0  0
 10  5  1  0  0  0  0
 39 11  1  0  0  0  0
  8 41  1  0  0  0  0
 39 37  1  0  0  0  0
 12 13  2  0  0  0  0
 13  9  1  0  0  0  0
 12 14  1  0  0  0  0
 14 15  2  0  0  0  0
 15 16  1  0  0  0  0
 16 17  2  0  0  0  0
 17 13  1  0  0  0  0
  3 18  1  0  0  0  0
 19  7  2  0  0  0  0
 20  6  1  1  0  0  0
 20 21  1  0  0  0  0
 21 22  1  6  0  0  0
 22 23  2  0  0  0  0
 20 24  1  0  0  0  0
 24 25  2  0  0  0  0
 25 26  1  0  0  0  0
 26 27  1  0  0  0  0
 27 21  1  0  0  0  0
 28 29  2  0  0  0  0
 29 22  1  0  0  0  0
 28 30  1  0  0  0  0
 30 31  2  0  0  0  0
 31 32  1  0  0  0  0
 32 33  2  0  0  0  0
 33 29  1  0  0  0  0
  1 34  1  0  0  0  0
 17 35  1  0  0  0  0
 15 36  1  0  0  0  0
 39 38  1  0  0  0  0
 40 39  1  0  0  0  0
 41 40  1  0  0  0  0
 31 42  1  0  0  0  0
 33 43  1  0  0  0  0
 25 44  1  0  0  0  0
 27 45  1  1  0  0  0
 45 46  2  0  0  0  0
 46 47  1  0  0  0  0
 47 48  2  0  0  0  0
 48 49  1  0  0  0  0
 49 50  2  0  0  0  0
 50 45  1  0  0  0  0
 48 51  1  0  0  0  0
 46 52  1  0  0  0  0
M  END
>  <cdx:fragmentId>
5

$$$$
