94508.cdx
  Mrv1902 05222410182D          

 10  9  0  0  0  0            999 V2000
    3.4763   -8.4838    0.0000 C   0  0  0  0  0  0  0  0  0  0  0  0
    4.1907   -8.0713    0.0000 O   0  0  0  0  0  0  0  0  0  0  0  0
    4.9052   -8.4838    0.0000 C   0  0  0  0  0  0  0  0  0  0  0  0
    5.6197   -8.0713    0.0000 C   0  0  0  0  0  0  0  0  0  0  0  0
    6.3342   -8.4838    0.0000 C   0  0  0  0  0  0  0  0  0  0  0  0
    7.0486   -8.0713    0.0000 C   0  0  0  0  0  0  0  0  0  0  0  0
    7.7631   -8.4838    0.0000 C   0  0  0  0  0  0  0  0  0  0  0  0
    8.4776   -8.0713    0.0000 C   0  0  0  0  0  0  0  0  0  0  0  0
    4.9052   -9.3087    0.0000 O   0  0  0  0  0  0  0  0  0  0  0  0
    7.0486   -7.2462    0.0000 C   0  0  0  0  0  0  0  0  0  0  0  0
  1  2  1  0  0  0  0
  2  3  1  0  0  0  0
  3  4  1  0  0  0  0
  4  5  1  0  0  0  0
  5  6  1  0  0  0  0
  6  7  1  0  0  0  0
  7  8  1  0  0  0  0
  3  9  2  0  0  0  0
  6 10  2  0  0  0  0
M  END
>  <cdx:fragmentId>
3

$$$$
