94502.cdx
  Mrv1902 05222410262D          

 13 13  0  0  0  0            999 V2000
    6.4738   -6.6005    0.0000 C   0  0  0  0  0  0  0  0  0  0  0  0
    6.0613   -7.3150    0.0000 C   0  0  0  0  0  0  0  0  0  0  0  0
    6.4738   -8.0295    0.0000 C   0  0  0  0  0  0  0  0  0  0  0  0
    7.2988   -8.0295    0.0000 C   0  0  0  0  0  0  0  0  0  0  0  0
    7.7113   -7.3150    0.0000 C   0  0  0  0  0  0  0  0  0  0  0  0
    7.2988   -6.6005    0.0000 C   0  0  0  0  0  0  0  0  0  0  0  0
    6.0613   -5.8861    0.0000 O   0  0  0  0  0  0  0  0  0  0  0  0
    6.0613   -8.7439    0.0000 O   0  0  0  0  0  0  0  0  0  0  0  0
    8.5363   -7.3150    0.0000 C   0  0  0  0  0  0  0  0  0  0  0  0
    7.7113   -8.7439    0.0000 C   0  0  0  0  0  0  0  0  0  0  0  0
    7.2988   -9.4584    0.0000 O   0  0  0  0  0  0  0  0  0  0  0  0
    7.7113  -10.1729    0.0000 C   0  0  0  0  0  0  0  0  0  0  0  0
    8.5363   -8.7439    0.0000 O   0  0  0  0  0  0  0  0  0  0  0  0
  1  2  2  0  0  0  0
  2  3  1  0  0  0  0
  3  4  2  0  0  0  0
  4  5  1  0  0  0  0
  5  6  2  0  0  0  0
  6  1  1  0  0  0  0
  1  7  1  0  0  0  0
  3  8  1  0  0  0  0
  5  9  1  0  0  0  0
  4 10  1  0  0  0  0
 10 11  1  0  0  0  0
 11 12  1  0  0  0  0
 10 13  2  0  0  0  0
M  END
>  <cdx:fragmentId>
5

$$$$
