9450.cdx
  Mrv1902 05222410222D          

 30 33  0  0  0  0            999 V2000
    3.6677   -5.8231    0.0000 C   0  0  0  0  0  0  0  0  0  0  0  0
    3.6677   -6.6481    0.0000 C   0  0  0  0  0  0  0  0  0  0  0  0
    4.3821   -7.0606    0.0000 C   0  0  0  0  0  0  0  0  0  0  0  0
    5.0966   -6.6481    0.0000 C   0  0  0  0  0  0  0  0  0  0  0  0
    5.0966   -5.8231    0.0000 C   0  0  0  0  0  0  0  0  0  0  0  0
    4.3821   -5.4106    0.0000 C   0  0  0  0  0  0  0  0  0  0  0  0
    5.8111   -7.0606    0.0000 C   0  0  0  0  0  0  0  0  0  0  0  0
    6.5255   -6.6481    0.0000 C   0  0  0  0  0  0  0  0  0  0  0  0
    6.5255   -5.8231    0.0000 C   0  0  0  0  0  0  0  0  0  0  0  0
    5.8111   -5.4106    0.0000 O   0  0  0  0  0  0  0  0  0  0  0  0
    7.2400   -7.0606    0.0000 C   0  0  0  0  0  0  0  0  0  0  0  0
    7.2400   -7.8856    0.0000 C   0  0  0  0  0  0  0  0  0  0  0  0
    7.9545   -8.2981    0.0000 C   0  0  0  0  0  0  0  0  0  0  0  0
    8.6690   -7.8856    0.0000 C   0  0  0  0  0  0  0  0  0  0  0  0
    8.6690   -7.0606    0.0000 C   0  0  0  0  0  0  0  0  0  0  0  0
    7.9545   -6.6481    0.0000 C   0  0  0  0  0  0  0  0  0  0  0  0
    2.9532   -5.4106    0.0000 O   0  0  0  0  0  0  0  0  0  0  0  0
    5.8111   -7.8856    0.0000 O   0  0  0  0  0  0  0  0  0  0  0  0
    9.3834   -8.2981    0.0000 O   0  0  0  0  0  0  0  0  0  0  0  0
    8.6671  -10.3473    0.0000 C   0  0  2  0  0  0  0  0  0  0  0  0
    9.3771  -10.7674    0.0000 C   0  0  2  0  0  0  0  0  0  0  0  0
   10.0959  -10.3626    0.0000 C   0  0  1  0  0  0  0  0  0  0  0  0
   10.1047   -9.5376    0.0000 C   0  0  2  0  0  0  0  0  0  0  0  0
    9.3947   -9.1175    0.0000 C   0  0  1  0  0  0  0  0  0  0  0  0
    8.6758   -9.5224    0.0000 O   0  0  0  0  0  0  0  0  0  0  0  0
    7.9482  -10.7522    0.0000 C   0  0  0  0  0  0  0  0  0  0  0  0
   10.8060  -10.7827    0.0000 O   0  0  0  0  0  0  0  0  0  0  0  0
    9.3683  -11.5924    0.0000 O   0  0  0  0  0  0  0  0  0  0  0  0
   10.8235   -9.1328    0.0000 O   0  0  0  0  0  0  0  0  0  0  0  0
    7.9394  -11.5772    0.0000 O   0  0  0  0  0  0  0  0  0  0  0  0
  1  2  2  0  0  0  0
  2  3  1  0  0  0  0
  3  4  2  0  0  0  0
  4  5  1  0  0  0  0
  5  6  2  0  0  0  0
  6  1  1  0  0  0  0
  4  7  1  0  0  0  0
  7  8  1  0  0  0  0
  8  9  2  0  0  0  0
  9 10  1  0  0  0  0
 10  5  1  0  0  0  0
  8 11  1  0  0  0  0
 11 12  2  0  0  0  0
 12 13  1  0  0  0  0
 13 14  2  0  0  0  0
 14 15  1  0  0  0  0
 15 16  2  0  0  0  0
 16 11  1  0  0  0  0
  1 17  1  0  0  0  0
  7 18  2  0  0  0  0
 14 19  1  0  0  0  0
 20 21  1  0  0  0  0
 21 22  1  0  0  0  0
 22 23  1  0  0  0  0
 23 24  1  0  0  0  0
 24 25  1  0  0  0  0
 25 20  1  0  0  0  0
 20 26  1  1  0  0  0
 22 27  1  1  0  0  0
 21 28  1  6  0  0  0
 23 29  1  6  0  0  0
 26 30  1  0  0  0  0
 24 19  1  1  0  0  0
M  END
>  <cdx:fragmentId>
5

$$$$
