94505.cdx
  Mrv1902 05222410282D          

 38 40  0  0  0  0            999 V2000
    1.7575   -7.8105    0.0000 C   0  0  0  0  0  0  0  0  0  0  0  0
    2.1700   -8.5250    0.0000 C   0  0  0  0  0  0  0  0  0  0  0  0
    2.8845   -8.1125    0.0000 C   0  0  0  0  0  0  0  0  0  0  0  0
    2.8845   -7.2875    0.0000 O   0  0  0  0  0  0  0  0  0  0  0  0
    3.5990   -8.5250    0.0000 C   0  0  0  0  0  0  0  0  0  0  0  0
    4.3134   -8.1125    0.0000 C   0  0  0  0  0  0  0  0  0  0  0  0
    5.0279   -8.5250    0.0000 C   0  0  0  0  0  0  0  0  0  0  0  0
    5.7424   -8.1125    0.0000 C   0  0  0  0  0  0  0  0  0  0  0  0
    6.4569   -8.5250    0.0000 C   0  0  0  0  0  0  0  0  0  0  0  0
    7.1713   -8.1125    0.0000 C   0  0  0  0  0  0  0  0  0  0  0  0
    7.1713   -7.2875    0.0000 C   0  0  0  0  0  0  0  0  0  0  0  0
    6.4569   -6.8750    0.0000 O   0  0  0  0  0  0  0  0  0  0  0  0
    7.8858   -8.5250    0.0000 C   0  0  0  0  0  0  0  0  0  0  0  0
    8.6003   -8.1125    0.0000 C   0  0  0  0  0  0  0  0  0  0  0  0
    8.6003   -7.2875    0.0000 C   0  0  0  0  0  0  0  0  0  0  0  0
    7.8858   -6.8750    0.0000 C   0  0  0  0  0  0  0  0  0  0  0  0
    9.3147   -8.5250    0.0000 C   0  0  0  0  0  0  0  0  0  0  0  0
   10.0292   -8.1125    0.0000 C   0  0  0  0  0  0  0  0  0  0  0  0
   10.0292   -7.2875    0.0000 C   0  0  0  0  0  0  0  0  0  0  0  0
    9.3147   -6.8750    0.0000 O   0  0  0  0  0  0  0  0  0  0  0  0
   11.4581   -7.2875    0.0000 C   0  0  0  0  0  0  0  0  0  0  0  0
   10.7437   -6.8750    0.0000 C   0  0  0  0  0  0  0  0  0  0  0  0
   12.1726   -6.8750    0.0000 C   0  0  0  0  0  0  0  0  0  0  0  0
   12.1726   -6.0500    0.0000 C   0  0  0  0  0  0  0  0  0  0  0  0
   11.4581   -5.6375    0.0000 C   0  0  0  0  0  0  0  0  0  0  0  0
   10.7437   -6.0500    0.0000 C   0  0  0  0  0  0  0  0  0  0  0  0
   12.8871   -5.6375    0.0000 O   0  0  0  0  0  0  0  0  0  0  0  0
    9.3147   -9.3500    0.0000 O   0  0  0  0  0  0  0  0  0  0  0  0
    7.8858   -9.3500    0.0000 O   0  0  0  0  0  0  0  0  0  0  0  0
    5.0279   -9.3500    0.0000 C   0  0  0  0  0  0  0  0  0  0  0  0
    2.5825   -9.2395    0.0000 C   0  0  0  0  0  0  0  0  0  0  0  0
    1.4556   -8.9375    0.0000 O   0  0  0  0  0  0  0  0  0  0  0  0
   10.0292   -5.6375    0.0000 O   0  0  0  0  0  0  0  0  0  0  0  0
   10.7437   -8.5250    0.0000 C   0  0  0  0  0  0  0  0  0  0  0  0
   10.7437   -9.3500    0.0000 C   0  0  0  0  0  0  0  0  0  0  0  0
   11.4581   -9.7625    0.0000 C   0  0  0  0  0  0  0  0  0  0  0  0
   12.1726   -9.3500    0.0000 C   0  0  0  0  0  0  0  0  0  0  0  0
   11.4581  -10.5875    0.0000 C   0  0  0  0  0  0  0  0  0  0  0  0
  1  2  1  0  0  0  0
  2  3  1  0  0  0  0
  3  4  1  0  0  0  0
  3  5  1  0  0  0  0
  5  6  1  0  0  0  0
  6  7  1  0  0  0  0
  7  8  2  0  0  0  0
  8  9  1  0  0  0  0
  9 10  1  0  0  0  0
 10 11  2  0  0  0  0
 11 12  1  0  0  0  0
 10 13  1  0  0  0  0
 13 14  2  0  0  0  0
 14 15  1  0  0  0  0
 15 16  2  0  0  0  0
 16 11  1  0  0  0  0
 14 17  1  0  0  0  0
 17 18  1  0  0  0  0
 18 19  2  0  0  0  0
 19 20  1  0  0  0  0
 20 15  1  0  0  0  0
 21 22  2  0  0  0  0
 22 19  1  0  0  0  0
 21 23  1  0  0  0  0
 23 24  2  0  0  0  0
 24 25  1  0  0  0  0
 25 26  2  0  0  0  0
 26 22  1  0  0  0  0
 24 27  1  0  0  0  0
 17 28  2  0  0  0  0
 13 29  1  0  0  0  0
  7 30  1  0  0  0  0
  2 31  1  0  0  0  0
  2 32  1  0  0  0  0
 26 33  1  0  0  0  0
 18 34  1  0  0  0  0
 34 35  1  0  0  0  0
 35 36  2  0  0  0  0
 36 37  1  0  0  0  0
 36 38  1  0  0  0  0
M  END
>  <cdx:fragmentId>
5

$$$$
