94501.cdx
  Mrv1902 05222410262D          

 28 31  0  0  0  0            999 V2000
    4.3431   -7.4387    0.0000 C   0  0  0  0  0  0  0  0  0  0  0  0
    4.3431   -8.2637    0.0000 C   0  0  0  0  0  0  0  0  0  0  0  0
    5.0575   -8.6762    0.0000 C   0  0  1  0  0  0  0  0  0  0  0  0
    5.7720   -8.2637    0.0000 C   0  0  2  0  0  0  0  0  0  0  0  0
    5.7720   -7.4387    0.0000 C   0  0  1  0  0  0  0  0  0  0  0  0
    5.0575   -7.0263    0.0000 C   0  0  0  0  0  0  0  0  0  0  0  0
    6.4865   -8.6762    0.0000 C   0  0  0  0  0  0  0  0  0  0  0  0
    7.2009   -8.2637    0.0000 C   0  0  0  0  0  0  0  0  0  0  0  0
    7.2009   -7.4387    0.0000 C   0  0  2  0  0  0  0  0  0  0  0  0
    6.4865   -7.0263    0.0000 C   0  0  1  0  0  0  0  0  0  0  0  0
    7.9154   -7.0263    0.0000 C   0  0  1  0  0  0  0  0  0  0  0  0
    7.9154   -6.2012    0.0000 C   0  0  0  0  0  0  0  0  0  0  0  0
    7.2009   -5.7888    0.0000 C   0  0  0  0  0  0  0  0  0  0  0  0
    6.4865   -6.2012    0.0000 C   0  0  2  0  0  0  0  0  0  0  0  0
    5.7720   -5.7888    0.0000 O   0  0  0  0  0  0  0  0  0  0  0  0
    7.2009   -4.9637    0.0000 O   0  0  0  0  0  0  0  0  0  0  0  0
    8.6299   -5.7888    0.0000 C   0  0  0  0  0  0  0  0  0  0  0  0
    9.3444   -6.2012    0.0000 C   0  0  0  0  0  0  0  0  0  0  0  0
    8.6299   -4.9637    0.0000 C   0  0  0  0  0  0  0  0  0  0  0  0
    7.9154   -4.5512    0.0000 O   0  0  0  0  0  0  0  0  0  0  0  0
    9.3444   -4.5512    0.0000 O   0  0  0  0  0  0  0  0  0  0  0  0
    7.9154   -3.7262    0.0000 C   0  0  0  0  0  0  0  0  0  0  0  0
    4.6450   -9.3907    0.0000 C   0  0  0  0  0  0  0  0  0  0  0  0
    5.7720   -9.0887    0.0000 H   0  0  0  0  0  0  0  0  0  0  0  0
    6.4865   -7.8513    0.0000 H   0  0  0  0  0  0  0  0  0  0  0  0
    7.9154   -7.8513    0.0000 O   0  0  0  0  0  0  0  0  0  0  0  0
    5.4700   -9.3907    0.0000 C   0  0  0  0  0  0  0  0  0  0  0  0
    5.7720   -6.6137    0.0000 C   0  0  0  0  0  0  0  0  0  0  0  0
  1  2  1  0  0  0  0
  2  3  1  0  0  0  0
  3  4  1  0  0  0  0
  4  5  1  0  0  0  0
  5  6  1  0  0  0  0
  6  1  1  0  0  0  0
  4  7  1  0  0  0  0
  7  8  1  0  0  0  0
  8  9  1  0  0  0  0
  9 10  1  0  0  0  0
 10  5  1  0  0  0  0
  9 11  1  0  0  0  0
 11 12  1  0  0  0  0
 12 13  1  0  0  0  0
 13 14  1  0  0  0  0
 14 10  1  0  0  0  0
 14 15  1  1  0  0  0
 13 16  2  0  0  0  0
 12 17  2  0  0  0  0
 17 18  1  0  0  0  0
 17 19  1  0  0  0  0
 19 20  1  0  0  0  0
 19 21  2  0  0  0  0
 20 22  1  0  0  0  0
  3 23  1  1  0  0  0
  4 24  1  1  0  0  0
 10 25  1  1  0  0  0
  9 26  1  1  0  0  0
 11 26  1  1  0  0  0
  3 27  1  6  0  0  0
  5 28  1  6  0  0  0
M  END
>  <cdx:fragmentId>
5

$$$$
