94500.cdx
  Mrv1902 05222410262D          

 25 28  0  0  0  0            999 V2000
    4.6181   -9.4875    0.0000 C   0  0  0  0  0  0  0  0  0  0  0  0
    4.6181  -10.3125    0.0000 C   0  0  0  0  0  0  0  0  0  0  0  0
    5.3325  -10.7250    0.0000 C   0  0  1  0  0  0  0  0  0  0  0  0
    6.0470  -10.3125    0.0000 C   0  0  2  0  0  0  0  0  0  0  0  0
    6.0470   -9.4875    0.0000 C   0  0  1  0  0  0  0  0  0  0  0  0
    5.3325   -9.0750    0.0000 C   0  0  0  0  0  0  0  0  0  0  0  0
    6.7615  -10.7250    0.0000 C   0  0  0  0  0  0  0  0  0  0  0  0
    7.4759  -10.3125    0.0000 C   0  0  0  0  0  0  0  0  0  0  0  0
    7.4759   -9.4875    0.0000 C   0  0  0  0  0  0  0  0  0  0  0  0
    6.7615   -9.0750    0.0000 C   0  0  1  0  0  0  0  0  0  0  0  0
    8.1904   -9.0750    0.0000 C   0  0  0  0  0  0  0  0  0  0  0  0
    8.1904   -8.2500    0.0000 C   0  0  0  0  0  0  0  0  0  0  0  0
    7.4759   -7.8375    0.0000 C   0  0  1  0  0  0  0  0  0  0  0  0
    6.7615   -8.2500    0.0000 C   0  0  2  0  0  0  0  0  0  0  0  0
    8.8035   -7.6980    0.0000 C   0  0  0  0  0  0  0  0  0  0  0  0
    8.4679   -6.9443    0.0000 C   0  0  0  0  0  0  0  0  0  0  0  0
    7.6475   -7.0305    0.0000 O   0  0  0  0  0  0  0  0  0  0  0  0
    9.6105   -7.8695    0.0000 C   0  0  0  0  0  0  0  0  0  0  0  0
    8.8804   -6.2298    0.0000 O   0  0  0  0  0  0  0  0  0  0  0  0
    4.9200  -11.4395    0.0000 C   0  0  0  0  0  0  0  0  0  0  0  0
    6.0470  -11.1375    0.0000 H   0  0  0  0  0  0  0  0  0  0  0  0
    6.7615   -9.9000    0.0000 H   0  0  0  0  0  0  0  0  0  0  0  0
    5.7450  -11.4395    0.0000 C   0  0  0  0  0  0  0  0  0  0  0  0
    6.0470   -8.6625    0.0000 C   0  0  0  0  0  0  0  0  0  0  0  0
    6.0470   -7.8375    0.0000 O   0  0  0  0  0  0  0  0  0  0  0  0
  1  2  1  0  0  0  0
  2  3  1  0  0  0  0
  3  4  1  0  0  0  0
  4  5  1  0  0  0  0
  5  6  1  0  0  0  0
  6  1  1  0  0  0  0
  4  7  1  0  0  0  0
  7  8  1  0  0  0  0
  8  9  1  0  0  0  0
  9 10  1  0  0  0  0
 10  5  1  0  0  0  0
  9 11  2  0  0  0  0
 11 12  1  0  0  0  0
 12 13  1  0  0  0  0
 13 14  1  0  0  0  0
 14 10  1  0  0  0  0
 12 15  2  0  0  0  0
 15 16  1  0  0  0  0
 16 17  1  0  0  0  0
 13 17  1  1  0  0  0
 15 18  1  0  0  0  0
 16 19  2  0  0  0  0
  3 20  1  1  0  0  0
  4 21  1  1  0  0  0
 10 22  1  1  0  0  0
  3 23  1  6  0  0  0
  5 24  1  6  0  0  0
 14 25  1  1  0  0  0
M  END
>  <cdx:fragmentId>
5

$$$$
