945058.cdx
  Mrv1902 05222410232D          

 31 34  0  0  0  0            999 V2000
    9.1848   -5.1226    0.0000 C   0  0  0  0  0  0  0  0  0  0  0  0
    8.7794   -4.4041    0.0000 C   0  0  0  0  0  0  0  0  0  0  0  0
    7.9545   -4.3958    0.0000 C   0  0  0  0  0  0  0  0  0  0  0  0
    7.5349   -5.1062    0.0000 C   0  0  0  0  0  0  0  0  0  0  0  0
    6.7099   -5.0979    0.0000 C   0  0  0  0  0  0  0  0  0  0  0  0
    6.2903   -5.8083    0.0000 C   0  0  0  0  0  0  0  0  0  0  0  0
    6.6957   -6.5268    0.0000 C   0  0  0  0  0  0  0  0  0  0  0  0
    7.5206   -6.5350    0.0000 C   0  0  0  0  0  0  0  0  0  0  0  0
    7.9402   -5.8247    0.0000 C   0  0  0  0  0  0  0  0  0  0  0  0
    8.7652   -5.8329    0.0000 O   0  0  0  0  0  0  0  0  0  0  0  0
    6.4329   -7.3089    0.0000 O   0  0  0  0  0  0  0  0  0  0  0  0
    7.7677   -7.3222    0.0000 C   0  0  2  0  0  0  0  0  0  0  0  0
    7.0955   -7.8004    0.0000 C   0  0  1  0  0  0  0  0  0  0  0  0
   10.0098   -5.1309    0.0000 O   0  0  0  0  0  0  0  0  0  0  0  0
    8.5498   -7.5849    0.0000 O   0  0  0  0  0  0  0  0  0  0  0  0
    6.3810   -8.2129    0.0000 H   0  0  0  0  0  0  0  0  0  0  0  0
    7.0873   -8.6254    0.0000 C   0  0  0  0  0  0  0  0  0  0  0  0
    6.2623   -8.6254    0.0000 C   0  0  0  0  0  0  0  0  0  0  0  0
    7.9123   -8.6254    0.0000 C   0  0  0  0  0  0  0  0  0  0  0  0
    7.0790   -9.4503    0.0000 O   0  0  0  0  0  0  0  0  0  0  0  0
    6.3605   -9.8557    0.0000 C   0  0  2  0  0  0  0  0  0  0  0  0
    5.6427   -9.4489    0.0000 O   0  0  0  0  0  0  0  0  0  0  0  0
    4.9316   -9.8671    0.0000 C   0  0  1  0  0  0  0  0  0  0  0  0
    4.9382  -10.6921    0.0000 C   0  0  2  0  0  0  0  0  0  0  0  0
    5.6559  -11.0988    0.0000 C   0  0  1  0  0  0  0  0  0  0  0  0
    6.3671  -10.6807    0.0000 C   0  0  1  0  0  0  0  0  0  0  0  0
    4.2138   -9.4603    0.0000 C   0  0  0  0  0  0  0  0  0  0  0  0
    5.6625  -11.9238    0.0000 O   0  0  0  0  0  0  0  0  0  0  0  0
    3.5027   -9.8785    0.0000 O   0  0  0  0  0  0  0  0  0  0  0  0
    4.2270  -11.1103    0.0000 O   0  0  0  0  0  0  0  0  0  0  0  0
    7.0848  -11.0874    0.0000 O   0  0  0  0  0  0  0  0  0  0  0  0
  1  2  1  0  0  0  0
  2  3  2  0  0  0  0
  3  4  1  0  0  0  0
  4  5  1  0  0  0  0
  5  6  2  0  0  0  0
  6  7  1  0  0  0  0
  7  8  2  0  0  0  0
  8  9  1  0  0  0  0
  4  9  2  0  0  0  0
  9 10  1  0  0  0  0
  1 10  1  0  0  0  0
 12 13  1  0  0  0  0
 11 13  1  0  0  0  0
  7 11  1  0  0  0  0
  8 12  1  0  0  0  0
  1 14  2  0  0  0  0
 12 15  1  1  0  0  0
 13 16  1  6  0  0  0
 13 17  1  0  0  0  0
 17 18  1  0  0  0  0
 17 19  1  0  0  0  0
 17 20  1  0  0  0  0
 21 20  1  1  0  0  0
 21 22  1  0  0  0  0
 22 23  1  0  0  0  0
 23 24  1  0  0  0  0
 24 25  1  0  0  0  0
 25 26  1  0  0  0  0
 26 21  1  0  0  0  0
 23 27  1  1  0  0  0
 25 28  1  1  0  0  0
 27 29  1  0  0  0  0
 24 30  1  6  0  0  0
 26 31  1  6  0  0  0
M  END
>  <cdx:fragmentId>
10598

$$$$
