94507.cdx
  Mrv1902 05222410272D          

 15 16  0  0  0  0            999 V2000
    5.0581   -6.8200    0.0000 C   0  0  0  0  0  0  0  0  0  0  0  0
    5.0581   -7.6450    0.0000 C   0  0  0  0  0  0  0  0  0  0  0  0
    5.7725   -8.0575    0.0000 C   0  0  2  0  0  0  0  0  0  0  0  0
    6.4870   -7.6450    0.0000 C   0  0  0  0  0  0  0  0  0  0  0  0
    6.4870   -6.8200    0.0000 C   0  0  0  0  0  0  0  0  0  0  0  0
    5.7725   -6.4075    0.0000 C   0  0  0  0  0  0  0  0  0  0  0  0
    7.2015   -8.0575    0.0000 C   0  0  0  0  0  0  0  0  0  0  0  0
    7.9159   -7.6450    0.0000 C   0  0  0  0  0  0  0  0  0  0  0  0
    7.9159   -6.8200    0.0000 C   0  0  0  0  0  0  0  0  0  0  0  0
    7.2015   -6.4075    0.0000 C   0  0  0  0  0  0  0  0  0  0  0  0
    5.7725   -5.5825    0.0000 C   0  0  0  0  0  0  0  0  0  0  0  0
    8.6304   -8.0575    0.0000 C   0  0  0  0  0  0  0  0  0  0  0  0
    5.7725   -8.8825    0.0000 C   0  0  0  0  0  0  0  0  0  0  0  0
    6.4870   -9.2950    0.0000 C   0  0  0  0  0  0  0  0  0  0  0  0
    5.0581   -9.2950    0.0000 C   0  0  0  0  0  0  0  0  0  0  0  0
  1  2  1  0  0  0  0
  2  3  1  0  0  0  0
  3  4  1  0  0  0  0
  4  5  2  0  0  0  0
  5  6  1  0  0  0  0
  6  1  2  0  0  0  0
  4  7  1  0  0  0  0
  7  8  2  0  0  0  0
  8  9  1  0  0  0  0
  9 10  2  0  0  0  0
 10  5  1  0  0  0  0
  6 11  1  0  0  0  0
  8 12  1  0  0  0  0
  3 13  1  6  0  0  0
 13 14  1  0  0  0  0
 13 15  1  0  0  0  0
M  END
>  <cdx:fragmentId>
5

$$$$
