94509.cdx
  Mrv1902 05222410182D          

 17 17  0  0  0  0            999 V2000
    4.8656   -6.1600    0.0000 C   0  0  0  0  0  0  0  0  0  0  0  0
    4.8656   -6.9850    0.0000 C   0  0  0  0  0  0  0  0  0  0  0  0
    5.5800   -7.3975    0.0000 C   0  0  1  0  0  0  0  0  0  0  0  0
    6.2945   -6.9850    0.0000 C   0  0  0  0  0  0  0  0  0  0  0  0
    6.2945   -6.1600    0.0000 C   0  0  0  0  0  0  0  0  0  0  0  0
    5.5800   -5.7475    0.0000 C   0  0  0  0  0  0  0  0  0  0  0  0
    7.0090   -7.3975    0.0000 C   0  0  0  0  0  0  0  0  0  0  0  0
    7.7234   -6.9850    0.0000 C   0  0  2  0  0  0  0  0  0  0  0  0
    7.7234   -6.1600    0.0000 C   0  0  0  0  0  0  0  0  0  0  0  0
    7.0090   -5.7475    0.0000 C   0  0  0  0  0  0  0  0  0  0  0  0
    7.0090   -6.5725    0.0000 C   0  0  0  0  0  0  0  0  0  0  0  0
    6.2945   -7.8100    0.0000 O   0  0  0  0  0  0  0  0  0  0  0  0
    8.4379   -5.7475    0.0000 O   0  0  0  0  0  0  0  0  0  0  0  0
    8.4379   -7.3975    0.0000 C   0  0  0  0  0  0  0  0  0  0  0  0
    9.1524   -6.9850    0.0000 C   0  0  0  0  0  0  0  0  0  0  0  0
    8.4379   -8.2225    0.0000 C   0  0  0  0  0  0  0  0  0  0  0  0
    5.5800   -8.2225    0.0000 C   0  0  0  0  0  0  0  0  0  0  0  0
  1  2  1  0  0  0  0
  2  3  1  0  0  0  0
  3  4  1  0  0  0  0
  5  6  2  0  0  0  0
  6  1  1  0  0  0  0
  4  7  1  0  0  0  0
  7  8  1  0  0  0  0
  8  9  1  0  0  0  0
  9 10  1  0  0  0  0
 10  5  1  0  0  0  0
  5 11  1  0  0  0  0
  4 12  2  0  0  0  0
  9 13  2  0  0  0  0
  8 14  1  6  0  0  0
 14 15  1  0  0  0  0
 14 16  1  0  0  0  0
  3 17  1  1  0  0  0
M  END
>  <cdx:fragmentId>
5

$$$$
