94519.cdx
  Mrv1902 05222410202D          

 24 25  0  0  0  0            999 V2000
    8.6281   -8.6519    0.0000 C   0  0  1  0  0  0  0  0  0  0  0  0
    8.6156   -7.8270    0.0000 C   0  0  2  0  0  0  0  0  0  0  0  0
    7.8950   -7.4253    0.0000 O   0  0  0  0  0  0  0  0  0  0  0  0
    9.3238   -7.4037    0.0000 C   0  0  1  0  0  0  0  0  0  0  0  0
    9.3113   -6.5788    0.0000 O   0  0  0  0  0  0  0  0  0  0  0  0
   10.0444   -7.8053    0.0000 C   0  0  2  0  0  0  0  0  0  0  0  0
   10.7525   -7.3820    0.0000 O   0  0  0  0  0  0  0  0  0  0  0  0
   10.0569   -8.6302    0.0000 C   0  0  2  0  0  0  0  0  0  0  0  0
    9.3487   -9.0535    0.0000 O   0  0  0  0  0  0  0  0  0  0  0  0
   10.7775   -9.0319    0.0000 C   0  0  0  0  0  0  0  0  0  0  0  0
   11.4857   -8.6086    0.0000 O   0  0  0  0  0  0  0  0  0  0  0  0
    7.1868   -7.8486    0.0000 O   0  0  0  0  0  0  0  0  0  0  0  0
    5.0749   -9.9434    0.0000 C   0  0  0  0  0  0  0  0  0  0  0  0
    4.3668  -10.3666    0.0000 C   0  0  0  0  0  0  0  0  0  0  0  0
    2.9380  -10.3883    0.0000 O   0  0  0  0  0  0  0  0  0  0  0  0
    3.6461   -9.9650    0.0000 C   0  0  0  0  0  0  0  0  0  0  0  0
    3.6336   -9.1401    0.0000 C   0  0  0  0  0  0  0  0  0  0  0  0
    4.3418   -8.7168    0.0000 C   0  0  0  0  0  0  0  0  0  0  0  0
    5.0624   -9.1184    0.0000 C   0  0  0  0  0  0  0  0  0  0  0  0
    5.7706   -8.6952    0.0000 C   0  0  0  0  0  0  0  0  0  0  0  0
    6.4912   -9.0968    0.0000 C   0  0  0  0  0  0  0  0  0  0  0  0
    7.1993   -8.6735    0.0000 C   0  0  0  0  0  0  0  0  0  0  0  0
    7.9200   -9.0751    0.0000 O   0  0  0  0  0  0  0  0  0  0  0  0
    2.9130   -8.7385    0.0000 O   0  0  0  0  0  0  0  0  0  0  0  0
 23 22  1  0  0  0  0
 22 12  2  0  0  0  0
 19 13  2  0  0  0  0
 14 13  1  0  0  0  0
 16 14  2  0  0  0  0
 16 15  1  0  0  0  0
 17 16  1  0  0  0  0
 18 17  2  0  0  0  0
 19 18  1  0  0  0  0
 20 19  1  0  0  0  0
  1 23  1  1  0  0  0
  1  2  1  0  0  0  0
  2  3  1  6  0  0  0
  2  4  1  0  0  0  0
  4  5  1  1  0  0  0
  4  6  1  0  0  0  0
  6  7  1  6  0  0  0
  6  8  1  0  0  0  0
  8  9  1  0  0  0  0
  8 10  1  1  0  0  0
 10 11  1  0  0  0  0
  1  9  1  0  0  0  0
 21 20  2  0  0  0  0
 22 21  1  0  0  0  0
 17 24  1  0  0  0  0
M  END
>  <cdx:fragmentId>
97

$$$$
