94511.cdx
  Mrv1902 05222410282D          

 25 26  0  0  0  0            999 V2000
    8.9326   -5.7907    0.0000 C   0  0  0  0  0  0  0  0  0  0  0  0
    9.6498   -6.1983    0.0000 C   0  0  0  0  0  0  0  0  0  0  0  0
   10.3615   -5.7810    0.0000 C   0  0  0  0  0  0  0  0  0  0  0  0
   10.3559   -4.9560    0.0000 C   0  0  0  0  0  0  0  0  0  0  0  0
    9.6387   -4.5483    0.0000 C   0  0  0  0  0  0  0  0  0  0  0  0
    8.9270   -4.9657    0.0000 C   0  0  0  0  0  0  0  0  0  0  0  0
   11.0787   -6.1886    0.0000 O   0  0  0  0  0  0  0  0  0  0  0  0
   11.7904   -5.7713    0.0000 C   0  0  0  0  0  0  0  0  0  0  0  0
   11.0676   -4.5387    0.0000 O   0  0  0  0  0  0  0  0  0  0  0  0
    6.0915   -8.2850    0.0000 O   0  0  0  0  0  0  0  0  0  0  0  0
    6.8088   -8.6926    0.0000 C   0  0  2  0  0  0  0  0  0  0  0  0
    6.8144   -9.5176    0.0000 C   0  0  1  0  0  0  0  0  0  0  0  0
    6.1027   -9.9349    0.0000 C   0  0  2  0  0  0  0  0  0  0  0  0
    5.3855   -9.5273    0.0000 C   0  0  1  0  0  0  0  0  0  0  0  0
    5.3799   -8.7023    0.0000 C   0  0  1  0  0  0  0  0  0  0  0  0
    4.6626   -8.2946    0.0000 C   0  0  0  0  0  0  0  0  0  0  0  0
    3.9510   -8.7120    0.0000 O   0  0  0  0  0  0  0  0  0  0  0  0
    4.6738   -9.9446    0.0000 O   0  0  0  0  0  0  0  0  0  0  0  0
    6.1083  -10.7599    0.0000 O   0  0  0  0  0  0  0  0  0  0  0  0
    7.5316   -9.9252    0.0000 O   0  0  0  0  0  0  0  0  0  0  0  0
    7.5205   -8.2753    0.0000 O   0  0  0  0  0  0  0  0  0  0  0  0
    6.7976   -7.0427    0.0000 O   0  0  0  0  0  0  0  0  0  0  0  0
    8.2209   -6.2080    0.0000 C   0  0  0  0  0  0  0  0  0  0  0  0
    8.2265   -7.0330    0.0000 C   0  0  0  0  0  0  0  0  0  0  0  0
    7.5149   -7.4503    0.0000 C   0  0  0  0  0  0  0  0  0  0  0  0
 23  1  1  0  0  0  0
 25 21  1  0  0  0  0
 25 22  2  0  0  0  0
 24 23  2  0  0  0  0
 25 24  1  0  0  0  0
  1  2  1  0  0  0  0
  2  3  2  0  0  0  0
  3  4  1  0  0  0  0
  4  5  2  0  0  0  0
  5  6  1  0  0  0  0
  1  6  2  0  0  0  0
  7  8  1  0  0  0  0
  3  7  1  0  0  0  0
  4  9  1  0  0  0  0
 10 11  1  0  0  0  0
 11 12  1  0  0  0  0
 12 13  1  0  0  0  0
 13 14  1  0  0  0  0
 14 15  1  0  0  0  0
 10 15  1  0  0  0  0
 16 17  1  0  0  0  0
 15 16  1  1  0  0  0
 14 18  1  6  0  0  0
 13 19  1  1  0  0  0
 12 20  1  6  0  0  0
 11 21  1  1  0  0  0
M  END
>  <cdx:fragmentId>
15

$$$$
