9451.cdx
  Mrv1902 05222410222D          

 40 44  0  0  0  0            999 V2000
    4.0045  -10.0031    0.0000 C   0  0  0  0  0  0  0  0  0  0  0  0
    4.0045  -10.8281    0.0000 C   0  0  0  0  0  0  0  0  0  0  0  0
    4.7190  -11.2406    0.0000 C   0  0  0  0  0  0  0  0  0  0  0  0
    5.4335  -10.8281    0.0000 C   0  0  0  0  0  0  0  0  0  0  0  0
    5.4335  -10.0031    0.0000 C   0  0  0  0  0  0  0  0  0  0  0  0
    4.7190   -9.5906    0.0000 C   0  0  0  0  0  0  0  0  0  0  0  0
    6.1479  -11.2406    0.0000 C   0  0  0  0  0  0  0  0  0  0  0  0
    6.8624  -10.8281    0.0000 C   0  0  0  0  0  0  0  0  0  0  0  0
    6.8624  -10.0031    0.0000 C   0  0  0  0  0  0  0  0  0  0  0  0
    6.1479   -9.5906    0.0000 O   0  0  0  0  0  0  0  0  0  0  0  0
    7.5769  -11.2406    0.0000 C   0  0  0  0  0  0  0  0  0  0  0  0
    7.5769  -12.0656    0.0000 C   0  0  0  0  0  0  0  0  0  0  0  0
    8.2914  -12.4781    0.0000 C   0  0  0  0  0  0  0  0  0  0  0  0
    9.0058  -12.0656    0.0000 C   0  0  0  0  0  0  0  0  0  0  0  0
    9.0058  -11.2406    0.0000 C   0  0  0  0  0  0  0  0  0  0  0  0
    8.2914  -10.8281    0.0000 C   0  0  0  0  0  0  0  0  0  0  0  0
    3.2901   -9.5906    0.0000 O   0  0  0  0  0  0  0  0  0  0  0  0
    6.1479  -12.0656    0.0000 O   0  0  0  0  0  0  0  0  0  0  0  0
    9.7203  -12.4781    0.0000 O   0  0  0  0  0  0  0  0  0  0  0  0
    4.7267   -8.6509    0.0000 O   0  0  0  0  0  0  0  0  0  0  0  0
    9.7607   -6.8067    0.0000 C   0  0  2  0  0  0  0  0  0  0  0  0
    9.7166   -5.9829    0.0000 C   0  0  1  0  0  0  0  0  0  0  0  0
    8.9194   -5.7703    0.0000 C   0  0  2  0  0  0  0  0  0  0  0  0
    8.4709   -6.4627    0.0000 C   0  0  1  0  0  0  0  0  0  0  0  0
    8.9909   -7.1033    0.0000 O   0  0  0  0  0  0  0  0  0  0  0  0
   10.4823   -7.2067    0.0000 C   0  0  0  0  0  0  0  0  0  0  0  0
   10.4238   -5.5580    0.0000 O   0  0  0  0  0  0  0  0  0  0  0  0
    7.6461   -6.4771    0.0000 O   0  0  0  0  0  0  0  0  0  0  0  0
    8.6921   -4.9772    0.0000 O   0  0  0  0  0  0  0  0  0  0  0  0
   11.1895   -6.7819    0.0000 O   0  0  0  0  0  0  0  0  0  0  0  0
    6.4019   -7.2077    0.0000 C   0  0  2  0  0  0  0  0  0  0  0  0
    5.9887   -6.4936    0.0000 C   0  0  2  0  0  0  0  0  0  0  0  0
    5.1637   -6.4944    0.0000 C   0  0  1  0  0  0  0  0  0  0  0  0
    4.7519   -7.2092    0.0000 C   0  0  2  0  0  0  0  0  0  0  0  0
    5.1651   -7.9233    0.0000 C   0  0  1  0  0  0  0  0  0  0  0  0
    5.9901   -7.9225    0.0000 O   0  0  0  0  0  0  0  0  0  0  0  0
    7.2269   -7.2069    0.0000 C   0  0  0  0  0  0  0  0  0  0  0  0
    4.7505   -5.7803    0.0000 O   0  0  0  0  0  0  0  0  0  0  0  0
    6.4005   -5.7787    0.0000 O   0  0  0  0  0  0  0  0  0  0  0  0
    3.9269   -7.2100    0.0000 O   0  0  0  0  0  0  0  0  0  0  0  0
  1  2  2  0  0  0  0
  2  3  1  0  0  0  0
  3  4  2  0  0  0  0
  4  5  1  0  0  0  0
  5  6  2  0  0  0  0
  6  1  1  0  0  0  0
  4  7  1  0  0  0  0
  7  8  1  0  0  0  0
  8  9  2  0  0  0  0
  9 10  1  0  0  0  0
 10  5  1  0  0  0  0
  8 11  1  0  0  0  0
 11 12  2  0  0  0  0
 12 13  1  0  0  0  0
 13 14  2  0  0  0  0
 14 15  1  0  0  0  0
 15 16  2  0  0  0  0
 16 11  1  0  0  0  0
  1 17  1  0  0  0  0
  7 18  2  0  0  0  0
 14 19  1  0  0  0  0
  6 20  1  0  0  0  0
 21 22  1  0  0  0  0
 22 23  1  0  0  0  0
 23 24  1  0  0  0  0
 24 25  1  0  0  0  0
 25 21  1  0  0  0  0
 21 26  1  1  0  0  0
 22 27  1  1  0  0  0
 24 28  1  1  0  0  0
 23 29  1  6  0  0  0
 26 30  1  0  0  0  0
 31 32  1  0  0  0  0
 32 33  1  0  0  0  0
 33 34  1  0  0  0  0
 34 35  1  0  0  0  0
 35 36  1  0  0  0  0
 36 31  1  0  0  0  0
 31 37  1  1  0  0  0
 33 38  1  1  0  0  0
 32 39  1  6  0  0  0
 34 40  1  6  0  0  0
 37 28  1  0  0  0  0
 35 20  1  1  0  0  0
M  END
>  <cdx:fragmentId>
5

$$$$
