94518.cdx
  Mrv1902 05222410202D          

 51 56  0  0  0  0            999 V2000
    9.0700   -8.0438    0.0000 H   0  0  0  0  0  0  0  0  0  0  0  0
   10.4173   -8.1516    0.0000 H   0  0  0  0  0  0  0  0  0  0  0  0
    8.5765   -4.8210    0.0000 C   0  0  0  0  0  0  0  0  0  0  0  0
    7.1745   -5.0970    0.0000 O   0  0  0  0  0  0  0  0  0  0  0  0
    7.9552   -5.3637    0.0000 C   0  0  0  0  0  0  0  0  0  0  0  0
    8.1447   -6.1667    0.0000 O   0  0  0  0  0  0  0  0  0  0  0  0
    4.6003   -7.4975    0.0000 C   0  0  0  0  0  0  0  0  0  0  0  0
    5.4085   -7.6630    0.0000 C   0  0  0  0  0  0  0  0  0  0  0  0
    5.5008   -8.4828    0.0000 C   0  0  0  0  0  0  0  0  0  0  0  0
    4.7497   -8.8240    0.0000 C   0  0  0  0  0  0  0  0  0  0  0  0
    4.1931   -8.2150    0.0000 O   0  0  0  0  0  0  0  0  0  0  0  0
    6.2367  -11.3649    0.0000 O   0  0  0  0  0  0  0  0  0  0  0  0
    4.8139  -12.2005    0.0000 O   0  0  0  0  0  0  0  0  0  0  0  0
    3.3789  -11.3862    0.0000 O   0  0  0  0  0  0  0  0  0  0  0  0
    2.6553  -10.1540    0.0000 C   0  0  0  0  0  0  0  0  0  0  0  0
    3.3666   -9.7362    0.0000 O   0  0  0  0  0  0  0  0  0  0  0  0
    4.0842  -10.1434    0.0000 C   0  0  2  0  0  0  0  0  0  0  0  0
    4.0903  -10.9684    0.0000 C   0  0  2  0  0  0  0  0  0  0  0  0
    4.8078  -11.3755    0.0000 C   0  0  1  0  0  0  0  0  0  0  0  0
    5.5192  -10.9578    0.0000 C   0  0  2  0  0  0  0  0  0  0  0  0
    5.5131  -10.1328    0.0000 C   0  0  1  0  0  0  0  0  0  0  0  0
    4.7956   -9.7256    0.0000 O   0  0  0  0  0  0  0  0  0  0  0  0
    6.2245   -9.7150    0.0000 O   0  0  0  0  0  0  0  0  0  0  0  0
    6.2183   -8.8900    0.0000 C   0  0  0  0  0  0  0  0  0  0  0  0
   11.3652   -7.4256    0.0000 C   0  0  0  0  0  0  0  0  0  0  0  0
   10.9289   -8.0503    0.0000 C   0  0  0  0  0  0  0  0  0  0  0  0
    8.3647   -9.2866    0.0000 C   0  0  0  0  0  0  0  0  0  0  0  0
    6.2122   -8.0650    0.0000 C   0  0  0  0  0  0  0  0  0  0  0  0
    8.3464   -6.8117    0.0000 C   0  0  0  0  0  0  0  0  0  0  0  0
   10.7218   -5.1331    0.0000 O   0  0  0  0  0  0  0  0  0  0  0  0
    9.0823   -9.6938    0.0000 O   0  0  0  0  0  0  0  0  0  0  0  0
    8.0551  -11.0961    0.0000 O   0  0  0  0  0  0  0  0  0  0  0  0
    9.1429  -10.1695    0.0000 O   0  0  0  0  0  0  0  0  0  0  0  0
    8.3315  -10.3188    0.0000 C   0  0  0  0  0  0  0  0  0  0  0  0
    7.7965   -9.6908    0.0000 C   0  0  2  0  0  0  0  0  0  0  0  0
    7.0192   -9.4144    0.0000 O   0  0  0  0  0  0  0  0  0  0  0  0
    8.3525   -7.6366    0.0000 C   0  0  1  0  0  0  0  0  0  0  0  0
    7.6350   -7.2294    0.0000 C   0  0  0  0  0  0  0  0  0  0  0  0
    6.9236   -7.6472    0.0000 C   0  0  0  0  0  0  0  0  0  0  0  0
    6.9297   -8.4722    0.0000 C   0  0  2  0  0  0  0  0  0  0  0  0
    7.6472   -8.8794    0.0000 C   0  0  0  0  0  0  0  0  0  0  0  0
    8.3586   -8.4616    0.0000 C   0  0  1  0  0  0  0  0  0  0  0  0
    9.0761   -8.8688    0.0000 C   0  0  0  0  0  0  0  0  0  0  0  0
    9.7875   -8.4510    0.0000 C   0  0  0  0  0  0  0  0  0  0  0  0
   10.3146   -5.8506    0.0000 C   0  0  0  0  0  0  0  0  0  0  0  0
    9.4915   -5.7951    0.0000 C   0  0  0  0  0  0  0  0  0  0  0  0
    8.9349   -6.4040    0.0000 C   0  0  2  0  0  0  0  0  0  0  0  0
    9.0639   -7.2188    0.0000 C   0  0  2  0  0  0  0  0  0  0  0  0
    9.7814   -7.6260    0.0000 C   0  0  2  0  0  0  0  0  0  0  0  0
   10.5471   -7.3189    0.0000 C   0  0  0  0  0  0  0  0  0  0  0  0
   10.7844   -6.5288    0.0000 O   0  0  0  0  0  0  0  0  0  0  0  0
 37  1  1  1  0  0  0
 49  2  1  1  0  0  0
 47  6  1  6  0  0  0
  6  5  1  0  0  0  0
  5  3  1  0  0  0  0
  5  4  2  0  0  0  0
 40 24  1  0  0  0  0
 24  9  1  0  0  0  0
 11  7  1  0  0  0  0
  8  7  2  0  0  0  0
  9  8  1  0  0  0  0
 10  9  2  0  0  0  0
 11 10  1  0  0  0  0
 24 23  1  0  0  0  0
 21 23  1  1  0  0  0
 20 12  1  6  0  0  0
 19 13  1  1  0  0  0
 18 14  1  6  0  0  0
 17 16  1  1  0  0  0
 16 15  1  0  0  0  0
 22 17  1  0  0  0  0
 18 17  1  0  0  0  0
 19 18  1  0  0  0  0
 20 19  1  0  0  0  0
 21 20  1  0  0  0  0
 22 21  1  0  0  0  0
 50 25  1  0  0  0  0
 50 26  1  0  0  0  0
 42 27  1  6  0  0  0
 40 28  1  1  0  0  0
 48 29  1  6  0  0  0
 45 30  2  0  0  0  0
 43 31  2  0  0  0  0
 35 34  1  6  0  0  0
 34 32  1  0  0  0  0
 34 33  2  0  0  0  0
 35 41  1  0  0  0  0
 36 41  1  0  0  0  0
 36 35  1  0  0  0  0
 37 48  1  0  0  0  0
 44 49  1  0  0  0  0
 42 37  1  0  0  0  0
 38 37  1  0  0  0  0
 39 38  1  0  0  0  0
 40 39  1  0  0  0  0
 41 40  1  0  0  0  0
 42 41  1  0  0  0  0
 43 42  1  0  0  0  0
 44 43  1  0  0  0  0
 51 45  1  0  0  0  0
 46 45  1  0  0  0  0
 47 46  1  0  0  0  0
 48 47  1  0  0  0  0
 49 48  1  0  0  0  0
 50 49  1  0  0  0  0
 51 50  1  0  0  0  0
M  END
>  <cdx:fragmentId>
19

$$$$
