94516.cdx
  Mrv1902 05222410262D          

 40 46  0  0  0  0            999 V2000
    5.3743   -9.1987    0.0000 C   0  0  2  0  0  0  0  0  0  0  0  0
    5.3743  -10.0238    0.0000 O   0  0  0  0  0  0  0  0  0  0  0  0
    6.0888  -10.4363    0.0000 C   0  0  0  0  0  0  0  0  0  0  0  0
    6.8032  -10.0238    0.0000 C   0  0  2  0  0  0  0  0  0  0  0  0
    6.8032   -9.1987    0.0000 C   0  0  1  0  0  0  0  0  0  0  0  0
    6.0888   -8.7862    0.0000 C   0  0  1  0  0  0  0  0  0  0  0  0
    7.5177   -8.7862    0.0000 C   0  0  1  0  0  0  0  0  0  0  0  0
    7.5177   -7.9612    0.0000 C   0  0  2  0  0  0  0  0  0  0  0  0
    6.8032   -7.5488    0.0000 C   0  0  0  0  0  0  0  0  0  0  0  0
    6.0888   -7.9612    0.0000 C   0  0  0  0  0  0  0  0  0  0  0  0
    8.2322   -9.1987    0.0000 C   0  0  1  0  0  0  0  0  0  0  0  0
    8.9467   -8.7862    0.0000 C   0  0  0  0  0  0  0  0  0  0  0  0
    8.9467   -7.9612    0.0000 C   0  0  2  0  0  0  0  0  0  0  0  0
    8.2322   -7.5488    0.0000 C   0  0  2  0  0  0  0  0  0  0  0  0
    9.6611   -7.5488    0.0000 C   0  0  0  0  0  0  0  0  0  0  0  0
    9.6611   -6.7237    0.0000 O   0  0  0  0  0  0  0  0  0  0  0  0
    8.2322   -6.7237    0.0000 C   0  0  1  0  0  0  0  0  0  0  0  0
    8.2322  -10.0237    0.0000 O   0  0  0  0  0  0  0  0  0  0  0  0
    8.9467  -10.4362    0.0000 C   0  0  0  0  0  0  0  0  0  0  0  0
    9.6611  -10.0237    0.0000 C   0  0  0  0  0  0  0  0  0  0  0  0
    4.6598   -8.7862    0.0000 C   0  0  0  0  0  0  0  0  0  0  0  0
    6.0888   -9.6112    0.0000 C   0  0  0  0  0  0  0  0  0  0  0  0
    8.2322   -8.3737    0.0000 H   0  0  0  0  0  0  0  0  0  0  0  0
    8.2322   -5.8988    0.0000 H   0  0  0  0  0  0  0  0  0  0  0  0
    8.9467   -7.1362    0.0000 H   0  0  0  0  0  0  0  0  0  0  0  0
   10.0736   -8.2632    0.0000 C   0  0  0  0  0  0  0  0  0  0  0  0
   10.4580   -7.3352    0.0000 C   0  0  0  0  0  0  0  0  0  0  0  0
    8.9467  -11.2612    0.0000 O   0  0  0  0  0  0  0  0  0  0  0  0
    6.0888  -11.2613    0.0000 O   0  0  0  0  0  0  0  0  0  0  0  0
    4.5736   -7.9658    0.0000 C   0  0  0  0  0  0  0  0  0  0  0  0
    3.7666   -7.7942    0.0000 C   0  0  0  0  0  0  0  0  0  0  0  0
    3.3541   -8.5087    0.0000 O   0  0  0  0  0  0  0  0  0  0  0  0
    3.9062   -9.1218    0.0000 C   0  0  0  0  0  0  0  0  0  0  0  0
    7.5177   -6.3113    0.0000 C   0  0  0  0  0  0  0  0  0  0  0  0
    6.8032   -6.7237    0.0000 C   0  0  0  0  0  0  0  0  0  0  0  0
    7.2157   -7.4382    0.0000 O   0  0  0  0  0  0  0  0  0  0  0  0
    7.9302   -7.0257    0.0000 C   0  0  0  0  0  0  0  0  0  0  0  0
    6.0064   -6.5102    0.0000 O   0  0  0  0  0  0  0  0  0  0  0  0
    7.5177   -9.6112    0.0000 O   0  0  0  0  0  0  0  0  0  0  0  0
    7.5177   -9.2395    0.0000 C   0  0  0  0  0  0  0  0  0  0  0  0
  1  2  1  0  0  0  0
  2  3  1  0  0  0  0
  3  4  1  0  0  0  0
  4  5  1  0  0  0  0
  5  6  1  0  0  0  0
  6  1  1  0  0  0  0
  5  7  1  0  0  0  0
  7  8  1  0  0  0  0
  8  9  1  0  0  0  0
  9 10  1  0  0  0  0
 10  6  1  0  0  0  0
  7 11  1  0  0  0  0
 11 12  1  0  0  0  0
 12 13  1  0  0  0  0
 13 14  1  0  0  0  0
 14  8  1  0  0  0  0
 13 15  1  0  0  0  0
 15 16  1  0  0  0  0
 17 14  1  0  0  0  0
 11 18  1  1  0  0  0
 18 19  1  0  0  0  0
 19 20  1  0  0  0  0
  1 21  1  1  0  0  0
  6 22  1  1  0  0  0
  8 23  1  1  0  0  0
 17 24  1  1  0  0  0
 13 25  1  1  0  0  0
 17 16  1  0  0  0  0
 15 26  1  0  0  0  0
 15 27  1  0  0  0  0
 19 28  2  0  0  0  0
  3 29  2  0  0  0  0
 21 30  1  0  0  0  0
 30 31  2  0  0  0  0
 31 32  1  0  0  0  0
 32 33  1  0  0  0  0
 33 21  2  0  0  0  0
 17 34  1  0  0  0  0
 34 35  1  0  0  0  0
 35 36  1  0  0  0  0
 36 37  1  0  0  0  0
 35 38  2  0  0  0  0
 14 37  1  6  0  0  0
  5 39  1  6  0  0  0
  4 39  1  6  0  0  0
  7 40  1  6  0  0  0
M  END
>  <cdx:fragmentId>
5

$$$$
