94523.cdx
  Mrv1902 05222410182D          

 24 25  0  0  0  0            999 V2000
    9.1899   -4.9447    0.0000 O   0  0  0  0  0  0  0  0  0  0  0  0
    8.4755   -5.3572    0.0000 C   0  0  1  0  0  0  0  0  0  0  0  0
    8.4755   -6.1822    0.0000 C   0  0  2  0  0  0  0  0  0  0  0  0
    9.1899   -6.5947    0.0000 O   0  0  0  0  0  0  0  0  0  0  0  0
    7.7610   -6.5947    0.0000 C   0  0  1  0  0  0  0  0  0  0  0  0
    7.7610   -7.4197    0.0000 O   0  0  0  0  0  0  0  0  0  0  0  0
    7.0465   -6.1822    0.0000 C   0  0  2  0  0  0  0  0  0  0  0  0
    6.3320   -6.5947    0.0000 O   0  0  0  0  0  0  0  0  0  0  0  0
    7.0465   -5.3572    0.0000 C   0  0  2  0  0  0  0  0  0  0  0  0
    7.7610   -4.9447    0.0000 O   0  0  0  0  0  0  0  0  0  0  0  0
    6.3320   -4.9447    0.0000 C   0  0  0  0  0  0  0  0  0  0  0  0
    5.6176   -5.3572    0.0000 O   0  0  0  0  0  0  0  0  0  0  0  0
    7.0408   -7.8541    0.0000 C   0  0  0  0  0  0  0  0  0  0  0  0
    7.0491   -8.6790    0.0000 C   0  0  0  0  0  0  0  0  0  0  0  0
    6.3388   -9.0987    0.0000 C   0  0  0  0  0  0  0  0  0  0  0  0
    6.3471   -9.9237    0.0000 C   0  0  0  0  0  0  0  0  0  0  0  0
    5.6368  -10.3433    0.0000 C   0  0  0  0  0  0  0  0  0  0  0  0
    5.6451  -11.1683    0.0000 C   0  0  0  0  0  0  0  0  0  0  0  0
    4.9349  -11.5879    0.0000 O   0  0  0  0  0  0  0  0  0  0  0  0
    6.3637  -11.5736    0.0000 C   0  0  0  0  0  0  0  0  0  0  0  0
    6.3720  -12.3985    0.0000 O   0  0  0  0  0  0  0  0  0  0  0  0
    7.0740  -11.1539    0.0000 C   0  0  0  0  0  0  0  0  0  0  0  0
    7.0657  -10.3290    0.0000 C   0  0  0  0  0  0  0  0  0  0  0  0
    6.3222   -7.4488    0.0000 O   0  0  0  0  0  0  0  0  0  0  0  0
  2  1  1  1  0  0  0
  2  3  1  0  0  0  0
  3  4  1  6  0  0  0
  3  5  1  0  0  0  0
  5  6  1  1  0  0  0
  5  7  1  0  0  0  0
  7  8  1  6  0  0  0
  7  9  1  0  0  0  0
  9 10  1  0  0  0  0
  9 11  1  1  0  0  0
 11 12  1  0  0  0  0
  2 10  1  0  0  0  0
 13 14  1  0  0  0  0
 14 15  2  0  0  0  0
 15 16  1  0  0  0  0
 16 17  1  0  0  0  0
 17 18  2  0  0  0  0
 18 19  1  0  0  0  0
 18 20  1  0  0  0  0
 20 21  1  0  0  0  0
 20 22  2  0  0  0  0
 22 23  1  0  0  0  0
 16 23  2  0  0  0  0
 13 24  2  0  0  0  0
 13  6  1  0  0  0  0
M  END
>  <cdx:fragmentId>
97

$$$$
