94526.cdx
  Mrv1902 05222410192D          

 43 45  0  0  0  0            999 V2000
    4.6221   -8.6028    0.0000 O   0  0  0  0  0  0  0  0  0  0  0  0
    6.7686   -7.3707    0.0000 C   0  0  0  0  0  0  0  0  0  0  0  0
    6.0551   -6.9564    0.0000 C   0  0  2  0  0  0  0  0  0  0  0  0
    5.3396   -7.3671    0.0000 C   0  0  0  0  0  0  0  0  0  0  0  0
    5.3376   -8.1921    0.0000 C   0  0  2  0  0  0  0  0  0  0  0  0
    6.0510   -8.6064    0.0000 C   0  0  1  0  0  0  0  0  0  0  0  0
    6.7665   -8.1957    0.0000 C   0  0  2  0  0  0  0  0  0  0  0  0
    7.4799   -8.6099    0.0000 O   0  0  0  0  0  0  0  0  0  0  0  0
    6.0489   -9.4314    0.0000 O   0  0  0  0  0  0  0  0  0  0  0  0
    3.9302   -8.1915    0.0000 C   0  0  0  0  0  0  0  0  0  0  0  0
    6.4694   -6.2429    0.0000 C   0  0  0  0  0  0  0  0  0  0  0  0
    5.6444   -6.2409    0.0000 O   0  0  0  0  0  0  0  0  0  0  0  0
    6.0587   -5.5274    0.0000 O   0  0  0  0  0  0  0  0  0  0  0  0
    7.2944   -6.2450    0.0000 O   0  0  0  0  0  0  0  0  0  0  0  0
    2.4359   -3.2832    0.0000 C   0  0  0  0  0  0  0  0  0  0  0  0
    2.0067   -3.9878    0.0000 C   0  0  0  0  0  0  0  0  0  0  0  0
    2.4024   -4.7117    0.0000 C   0  0  0  0  0  0  0  0  0  0  0  0
    3.2271   -4.7311    0.0000 C   0  0  0  0  0  0  0  0  0  0  0  0
    3.6563   -4.0265    0.0000 C   0  0  0  0  0  0  0  0  0  0  0  0
    3.2606   -3.3025    0.0000 C   0  0  0  0  0  0  0  0  0  0  0  0
    2.0402   -2.5592    0.0000 O   0  0  0  0  0  0  0  0  0  0  0  0
    3.6898   -2.5979    0.0000 O   0  0  0  0  0  0  0  0  0  0  0  0
    3.6228   -5.4550    0.0000 C   0  0  0  0  0  0  0  0  0  0  0  0
    4.4475   -5.4744    0.0000 C   0  0  0  0  0  0  0  0  0  0  0  0
    4.8432   -6.1983    0.0000 C   0  0  0  0  0  0  0  0  0  0  0  0
    4.4140   -6.9029    0.0000 O   0  0  0  0  0  0  0  0  0  0  0  0
    3.2138   -8.6007    0.0000 C   0  0  0  0  0  0  0  0  0  0  0  0
    2.5013   -8.1848    0.0000 C   0  0  0  0  0  0  0  0  0  0  0  0
    1.7849   -8.5939    0.0000 O   0  0  0  0  0  0  0  0  0  0  0  0
    3.9341   -7.3665    0.0000 O   0  0  0  0  0  0  0  0  0  0  0  0
    2.5052   -7.3598    0.0000 O   0  0  0  0  0  0  0  0  0  0  0  0
   12.4779   -8.2788    0.0000 O   0  0  0  0  0  0  0  0  0  0  0  0
   12.4663   -9.9288    0.0000 O   0  0  0  0  0  0  0  0  0  0  0  0
   11.7606   -8.6863    0.0000 C   0  0  0  0  0  0  0  0  0  0  0  0
   11.0490   -8.2688    0.0000 C   0  0  0  0  0  0  0  0  0  0  0  0
   10.3317   -8.6762    0.0000 C   0  0  0  0  0  0  0  0  0  0  0  0
   10.3259   -9.5012    0.0000 C   0  0  0  0  0  0  0  0  0  0  0  0
   11.0374   -9.9187    0.0000 C   0  0  0  0  0  0  0  0  0  0  0  0
   11.7548   -9.5113    0.0000 C   0  0  0  0  0  0  0  0  0  0  0  0
    9.6201   -8.2587    0.0000 C   0  0  0  0  0  0  0  0  0  0  0  0
    8.9028   -8.6661    0.0000 C   0  0  0  0  0  0  0  0  0  0  0  0
    8.1912   -8.2486    0.0000 C   0  0  0  0  0  0  0  0  0  0  0  0
    8.1970   -7.4236    0.0000 O   0  0  0  0  0  0  0  0  0  0  0  0
 27 10  1  0  0  0  0
  2  3  1  0  0  0  0
  3  4  1  0  0  0  0
  4  5  1  0  0  0  0
  5  6  1  0  0  0  0
  6  7  1  0  0  0  0
  7  2  1  0  0  0  0
  7  8  1  1  0  0  0
  6  9  1  1  0  0  0
  5  1  1  6  0  0  0
  3 11  1  0  0  0  0
  3 12  1  1  0  0  0
 11 13  1  0  0  0  0
 11 14  2  0  0  0  0
 15 16  2  0  0  0  0
 16 17  1  0  0  0  0
 17 18  2  0  0  0  0
 18 19  1  0  0  0  0
 19 20  2  0  0  0  0
 20 15  1  0  0  0  0
 15 21  1  0  0  0  0
 20 22  1  0  0  0  0
 18 23  1  0  0  0  0
 23 24  2  0  0  0  0
 24 25  1  0  0  0  0
 25 26  2  0  0  0  0
 25 12  1  0  0  0  0
 28 27  1  0  0  0  0
 29 28  1  0  0  0  0
 10 30  2  0  0  0  0
 10  1  1  0  0  0  0
 28 31  2  0  0  0  0
 34 32  1  0  0  0  0
 39 33  1  0  0  0  0
 34 39  1  0  0  0  0
 35 34  2  0  0  0  0
 36 35  1  0  0  0  0
 37 36  2  0  0  0  0
 38 37  1  0  0  0  0
 39 38  2  0  0  0  0
 36 40  1  0  0  0  0
 40 41  2  0  0  0  0
 41 42  1  0  0  0  0
 42 43  2  0  0  0  0
 42  8  1  0  0  0  0
M  END
>  <cdx:fragmentId>
5

$$$$
