94525.cdx
  Mrv1902 05222410202D          

 19 21  0  0  0  0            999 V2000
    8.0806   -5.8595    0.0000 C   0  0  0  0  0  0  0  0  0  0  0  0
    8.0806   -6.6845    0.0000 C   0  0  0  0  0  0  0  0  0  0  0  0
    7.3661   -7.0970    0.0000 C   0  0  0  0  0  0  0  0  0  0  0  0
    7.3661   -7.9220    0.0000 O   0  0  0  0  0  0  0  0  0  0  0  0
    6.6517   -6.6845    0.0000 C   0  0  0  0  0  0  0  0  0  0  0  0
    5.9372   -7.0970    0.0000 C   0  0  0  0  0  0  0  0  0  0  0  0
    5.2227   -6.6845    0.0000 C   0  0  0  0  0  0  0  0  0  0  0  0
    5.2227   -5.8595    0.0000 C   0  0  0  0  0  0  0  0  0  0  0  0
    5.9372   -5.4470    0.0000 C   0  0  0  0  0  0  0  0  0  0  0  0
    6.6517   -5.8595    0.0000 C   0  0  0  0  0  0  0  0  0  0  0  0
    7.3661   -5.4470    0.0000 O   0  0  0  0  0  0  0  0  0  0  0  0
    8.7951   -5.4470    0.0000 C   0  0  0  0  0  0  0  0  0  0  0  0
    8.7951   -4.6220    0.0000 C   0  0  0  0  0  0  0  0  0  0  0  0
    9.5096   -4.2095    0.0000 C   0  0  0  0  0  0  0  0  0  0  0  0
   10.2240   -4.6220    0.0000 C   0  0  0  0  0  0  0  0  0  0  0  0
   10.2240   -5.4470    0.0000 C   0  0  0  0  0  0  0  0  0  0  0  0
    9.5096   -5.8595    0.0000 C   0  0  0  0  0  0  0  0  0  0  0  0
    5.9372   -7.9220    0.0000 O   0  0  0  0  0  0  0  0  0  0  0  0
    5.2227   -8.3345    0.0000 C   0  0  0  0  0  0  0  0  0  0  0  0
  1  2  2  0  0  0  0
  2  3  1  0  0  0  0
  3  4  2  0  0  0  0
  3  5  1  0  0  0  0
  5  6  1  0  0  0  0
  6  7  2  0  0  0  0
  7  8  1  0  0  0  0
  8  9  2  0  0  0  0
  9 10  1  0  0  0  0
  5 10  2  0  0  0  0
 10 11  1  0  0  0  0
  1 11  1  0  0  0  0
  1 12  1  0  0  0  0
 12 13  1  0  0  0  0
 13 14  2  0  0  0  0
 14 15  1  0  0  0  0
 15 16  2  0  0  0  0
 16 17  1  0  0  0  0
 12 17  2  0  0  0  0
 18 19  1  0  0  0  0
  6 18  1  0  0  0  0
M  END
>  <cdx:groupId>
61

>  <cdx:fragmentId>
5

$$$$
