94520.cdx
  Mrv1902 05222410182D          

 24 25  0  0  0  0            999 V2000
    7.0862   -5.5497    0.0000 O   0  0  0  0  0  0  0  0  0  0  0  0
    6.3717   -5.9622    0.0000 C   0  0  1  0  0  0  0  0  0  0  0  0
    6.3717   -6.7872    0.0000 C   0  0  2  0  0  0  0  0  0  0  0  0
    7.0862   -7.1997    0.0000 O   0  0  0  0  0  0  0  0  0  0  0  0
    5.6572   -7.1997    0.0000 C   0  0  1  0  0  0  0  0  0  0  0  0
    5.6572   -8.0247    0.0000 O   0  0  0  0  0  0  0  0  0  0  0  0
    4.9428   -6.7872    0.0000 C   0  0  1  0  0  0  0  0  0  0  0  0
    4.2283   -7.1997    0.0000 O   0  0  0  0  0  0  0  0  0  0  0  0
    4.9428   -5.9622    0.0000 C   0  0  2  0  0  0  0  0  0  0  0  0
    5.6572   -5.5497    0.0000 O   0  0  0  0  0  0  0  0  0  0  0  0
    4.2283   -5.5497    0.0000 C   0  0  0  0  0  0  0  0  0  0  0  0
    3.5138   -5.9622    0.0000 O   0  0  0  0  0  0  0  0  0  0  0  0
    7.0730   -8.0431    0.0000 C   0  0  0  0  0  0  0  0  0  0  0  0
    7.7848   -8.4601    0.0000 C   0  0  0  0  0  0  0  0  0  0  0  0
    7.7796   -9.2851    0.0000 C   0  0  0  0  0  0  0  0  0  0  0  0
    8.4915   -9.7021    0.0000 C   0  0  0  0  0  0  0  0  0  0  0  0
    8.4863  -10.5271    0.0000 C   0  0  0  0  0  0  0  0  0  0  0  0
    9.1981  -10.9441    0.0000 C   0  0  0  0  0  0  0  0  0  0  0  0
    9.1929  -11.7691    0.0000 O   0  0  0  0  0  0  0  0  0  0  0  0
    9.9152  -10.5361    0.0000 C   0  0  0  0  0  0  0  0  0  0  0  0
   10.6270  -10.9531    0.0000 O   0  0  0  0  0  0  0  0  0  0  0  0
    9.9204   -9.7112    0.0000 C   0  0  0  0  0  0  0  0  0  0  0  0
    9.2085   -9.2942    0.0000 C   0  0  0  0  0  0  0  0  0  0  0  0
    6.3559   -8.4511    0.0000 O   0  0  0  0  0  0  0  0  0  0  0  0
  2  1  1  1  0  0  0
  2  3  1  0  0  0  0
  3  4  1  6  0  0  0
  3  5  1  0  0  0  0
  5  6  1  1  0  0  0
  5  7  1  0  0  0  0
  7  8  1  1  0  0  0
  7  9  1  0  0  0  0
  9 10  1  0  0  0  0
  9 11  1  1  0  0  0
 11 12  1  0  0  0  0
  2 10  1  0  0  0  0
 13 14  1  0  0  0  0
 14 15  2  0  0  0  0
 15 16  1  0  0  0  0
 16 17  1  0  0  0  0
 17 18  2  0  0  0  0
 18 19  1  0  0  0  0
 18 20  1  0  0  0  0
 20 21  1  0  0  0  0
 20 22  2  0  0  0  0
 22 23  1  0  0  0  0
 16 23  2  0  0  0  0
 13 24  2  0  0  0  0
 13  4  1  0  0  0  0
M  END
>  <cdx:fragmentId>
97

$$$$
