94529.cdx
  Mrv1902 05222410262D          

 33 36  0  0  0  0            999 V2000
    3.2431   -6.8613    0.0000 C   0  0  0  0  0  0  0  0  0  0  0  0
    3.2431   -7.6863    0.0000 C   0  0  0  0  0  0  0  0  0  0  0  0
    3.9575   -8.0987    0.0000 C   0  0  0  0  0  0  0  0  0  0  0  0
    4.6720   -7.6863    0.0000 C   0  0  0  0  0  0  0  0  0  0  0  0
    4.6720   -6.8613    0.0000 C   0  0  0  0  0  0  0  0  0  0  0  0
    3.9575   -6.4487    0.0000 C   0  0  0  0  0  0  0  0  0  0  0  0
    5.3865   -8.0987    0.0000 C   0  0  0  0  0  0  0  0  0  0  0  0
    6.1009   -7.6863    0.0000 C   0  0  0  0  0  0  0  0  0  0  0  0
    6.1009   -6.8613    0.0000 C   0  0  0  0  0  0  0  0  0  0  0  0
    5.3865   -6.4487    0.0000 O   0  0  0  0  0  0  0  0  0  0  0  0
    6.8154   -8.0987    0.0000 O   0  0  0  0  0  0  0  0  0  0  0  0
    7.5299   -6.8613    0.0000 C   0  0  0  0  0  0  0  0  0  0  0  0
    6.8154   -6.4487    0.0000 C   0  0  0  0  0  0  0  0  0  0  0  0
    8.2444   -6.4487    0.0000 C   0  0  0  0  0  0  0  0  0  0  0  0
    8.2444   -5.6238    0.0000 C   0  0  0  0  0  0  0  0  0  0  0  0
    7.5299   -5.2113    0.0000 C   0  0  0  0  0  0  0  0  0  0  0  0
    6.8154   -5.6238    0.0000 C   0  0  0  0  0  0  0  0  0  0  0  0
    8.9588   -6.8613    0.0000 O   0  0  0  0  0  0  0  0  0  0  0  0
    9.6733   -6.4487    0.0000 O   0  0  0  0  0  0  0  0  0  0  0  0
    9.6733   -5.6238    0.0000 C   0  0  0  0  0  0  0  0  0  0  0  0
    8.9588   -5.2113    0.0000 O   0  0  0  0  0  0  0  0  0  0  0  0
   10.3878   -6.8613    0.0000 C   0  0  1  0  0  0  0  0  0  0  0  0
   11.1022   -6.4487    0.0000 C   0  0  2  0  0  0  0  0  0  0  0  0
   11.1022   -5.6238    0.0000 C   0  0  1  0  0  0  0  0  0  0  0  0
   10.3878   -5.2113    0.0000 C   0  0  1  0  0  0  0  0  0  0  0  0
    2.5286   -6.4487    0.0000 O   0  0  0  0  0  0  0  0  0  0  0  0
    3.9575   -8.9238    0.0000 O   0  0  0  0  0  0  0  0  0  0  0  0
    5.3865   -8.9238    0.0000 O   0  0  0  0  0  0  0  0  0  0  0  0
   10.3878   -7.6863    0.0000 C   0  0  0  0  0  0  0  0  0  0  0  0
   11.1022   -8.0987    0.0000 O   0  0  0  0  0  0  0  0  0  0  0  0
   11.8167   -5.2113    0.0000 O   0  0  0  0  0  0  0  0  0  0  0  0
   10.3878   -4.3862    0.0000 O   0  0  0  0  0  0  0  0  0  0  0  0
   11.8167   -6.8613    0.0000 O   0  0  0  0  0  0  0  0  0  0  0  0
  1  2  2  0  0  0  0
  2  3  1  0  0  0  0
  3  4  2  0  0  0  0
  4  5  1  0  0  0  0
  5  6  2  0  0  0  0
  6  1  1  0  0  0  0
  4  7  1  0  0  0  0
  7  8  1  0  0  0  0
  8  9  2  0  0  0  0
  9 10  1  0  0  0  0
 10  5  1  0  0  0  0
  8 11  1  0  0  0  0
 12 13  2  0  0  0  0
 13  9  1  0  0  0  0
 12 14  1  0  0  0  0
 14 15  2  0  0  0  0
 15 16  1  0  0  0  0
 16 17  2  0  0  0  0
 17 13  1  0  0  0  0
 14 18  1  0  0  0  0
 19 20  1  0  0  0  0
 20 21  1  0  0  0  0
 21 15  1  0  0  0  0
 19 22  1  0  0  0  0
 22 23  1  0  0  0  0
 23 24  1  0  0  0  0
 24 25  1  0  0  0  0
 25 20  1  0  0  0  0
  1 26  1  0  0  0  0
  3 27  1  0  0  0  0
  7 28  2  0  0  0  0
 22 29  1  1  0  0  0
 29 30  1  0  0  0  0
 24 31  1  1  0  0  0
 25 32  1  6  0  0  0
 23 33  1  6  0  0  0
M  END
>  <cdx:fragmentId>
5

$$$$
