94524.cdx
  Mrv1902 05222410202D          

 24 26  0  0  0  0            999 V2000
    4.2743   -7.7963    0.0000 C   0  0  0  0  0  0  0  0  0  0  0  0
    4.2743   -8.6212    0.0000 C   0  0  0  0  0  0  0  0  0  0  0  0
    4.9888   -9.0337    0.0000 C   0  0  2  0  0  0  0  0  0  0  0  0
    5.7032   -8.6212    0.0000 C   0  0  2  0  0  0  0  0  0  0  0  0
    5.7032   -7.7963    0.0000 C   0  0  1  0  0  0  0  0  0  0  0  0
    4.9888   -7.3838    0.0000 C   0  0  0  0  0  0  0  0  0  0  0  0
    6.4177   -9.0337    0.0000 C   0  0  0  0  0  0  0  0  0  0  0  0
    7.1322   -8.6212    0.0000 C   0  0  0  0  0  0  0  0  0  0  0  0
    7.1322   -7.7963    0.0000 C   0  0  1  0  0  0  0  0  0  0  0  0
    6.4177   -7.3838    0.0000 C   0  0  0  0  0  0  0  0  0  0  0  0
    7.8467   -7.3838    0.0000 C   0  0  0  0  0  0  0  0  0  0  0  0
    7.8467   -6.5587    0.0000 C   0  0  2  0  0  0  0  0  0  0  0  0
    7.1322   -6.1463    0.0000 C   0  0  0  0  0  0  0  0  0  0  0  0
    6.4177   -6.5587    0.0000 C   0  0  0  0  0  0  0  0  0  0  0  0
    3.5598   -9.0337    0.0000 O   0  0  0  0  0  0  0  0  0  0  0  0
    5.4013   -9.7482    0.0000 C   0  0  0  0  0  0  0  0  0  0  0  0
    4.9888  -10.4627    0.0000 O   0  0  0  0  0  0  0  0  0  0  0  0
    8.6435   -6.3452    0.0000 C   0  0  0  0  0  0  0  0  0  0  0  0
    9.2269   -6.9286    0.0000 C   0  0  0  0  0  0  0  0  0  0  0  0
    5.7032   -6.9712    0.0000 C   0  0  0  0  0  0  0  0  0  0  0  0
    7.8467   -8.2088    0.0000 H   0  0  0  0  0  0  0  0  0  0  0  0
    4.5763   -9.7482    0.0000 C   0  0  0  0  0  0  0  0  0  0  0  0
    5.7032   -9.4462    0.0000 H   0  0  0  0  0  0  0  0  0  0  0  0
    7.8467   -5.7338    0.0000 C   0  0  0  0  0  0  0  0  0  0  0  0
  1  2  1  0  0  0  0
  2  3  1  0  0  0  0
  3  4  1  0  0  0  0
  4  5  1  0  0  0  0
  5  6  1  0  0  0  0
  6  1  1  0  0  0  0
  4  7  1  0  0  0  0
  7  8  1  0  0  0  0
  8  9  1  0  0  0  0
  9 10  1  0  0  0  0
 10  5  1  0  0  0  0
  9 11  1  0  0  0  0
 11 12  1  0  0  0  0
 12 13  1  0  0  0  0
 13 14  1  0  0  0  0
 14 10  2  0  0  0  0
  2 15  2  0  0  0  0
  3 16  1  6  0  0  0
 16 17  1  0  0  0  0
 12 18  1  6  0  0  0
 18 19  2  0  0  0  0
  5 20  1  6  0  0  0
  9 21  1  6  0  0  0
  3 22  1  1  0  0  0
  4 23  1  1  0  0  0
 12 24  1  1  0  0  0
M  END
>  <cdx:fragmentId>
5

$$$$
