94527.cdx
  Mrv1902 05222410192D          

 44 46  0  0  0  0            999 V2000
    7.1095   -8.0558    0.0000 C   0  0  0  0  0  0  0  0  0  0  0  0
    6.3941   -7.6449    0.0000 C   0  0  1  0  0  0  0  0  0  0  0  0
    5.6806   -8.0591    0.0000 C   0  0  0  0  0  0  0  0  0  0  0  0
    5.6825   -8.8841    0.0000 C   0  0  2  0  0  0  0  0  0  0  0  0
    6.3979   -9.2949    0.0000 C   0  0  1  0  0  0  0  0  0  0  0  0
    7.1114   -8.8808    0.0000 C   0  0  2  0  0  0  0  0  0  0  0  0
    7.8269   -9.2917    0.0000 O   0  0  0  0  0  0  0  0  0  0  0  0
    6.3998  -10.1199    0.0000 O   0  0  0  0  0  0  0  0  0  0  0  0
    4.9690   -9.2982    0.0000 O   0  0  0  0  0  0  0  0  0  0  0  0
    5.9800   -6.9314    0.0000 O   0  0  0  0  0  0  0  0  0  0  0  0
    6.3909   -6.2160    0.0000 O   0  0  0  0  0  0  0  0  0  0  0  0
    7.6300   -6.9276    0.0000 O   0  0  0  0  0  0  0  0  0  0  0  0
    6.8050   -6.9295    0.0000 C   0  0  0  0  0  0  0  0  0  0  0  0
    2.7573   -3.9891    0.0000 C   0  0  0  0  0  0  0  0  0  0  0  0
    2.3316   -4.6957    0.0000 C   0  0  0  0  0  0  0  0  0  0  0  0
    2.7307   -5.4178    0.0000 C   0  0  0  0  0  0  0  0  0  0  0  0
    3.5555   -5.4332    0.0000 C   0  0  0  0  0  0  0  0  0  0  0  0
    3.9813   -4.7265    0.0000 C   0  0  0  0  0  0  0  0  0  0  0  0
    3.5822   -4.0045    0.0000 C   0  0  0  0  0  0  0  0  0  0  0  0
    2.3583   -3.2670    0.0000 O   0  0  0  0  0  0  0  0  0  0  0  0
    4.0080   -3.2979    0.0000 O   0  0  0  0  0  0  0  0  0  0  0  0
    3.9546   -6.1552    0.0000 C   0  0  0  0  0  0  0  0  0  0  0  0
    4.7795   -6.1706    0.0000 C   0  0  0  0  0  0  0  0  0  0  0  0
    5.1785   -6.8927    0.0000 C   0  0  0  0  0  0  0  0  0  0  0  0
    4.7528   -7.5993    0.0000 O   0  0  0  0  0  0  0  0  0  0  0  0
    4.2752   -8.8903    0.0000 C   0  0  0  0  0  0  0  0  0  0  0  0
    3.5607   -9.3028    0.0000 C   0  0  0  0  0  0  0  0  0  0  0  0
    2.8462   -8.8903    0.0000 C   0  0  0  0  0  0  0  0  0  0  0  0
    2.1318   -9.3029    0.0000 C   0  0  0  0  0  0  0  0  0  0  0  0
    1.4173   -8.8904    0.0000 O   0  0  0  0  0  0  0  0  0  0  0  0
    2.1318  -10.1279    0.0000 O   0  0  0  0  0  0  0  0  0  0  0  0
    4.2751   -8.0653    0.0000 O   0  0  0  0  0  0  0  0  0  0  0  0
   12.8232   -8.9366    0.0000 O   0  0  0  0  0  0  0  0  0  0  0  0
   12.8195  -10.5866    0.0000 O   0  0  0  0  0  0  0  0  0  0  0  0
   12.1078   -9.3475    0.0000 C   0  0  0  0  0  0  0  0  0  0  0  0
   11.3943   -8.9334    0.0000 C   0  0  0  0  0  0  0  0  0  0  0  0
   10.6789   -9.3443    0.0000 C   0  0  0  0  0  0  0  0  0  0  0  0
   10.6770  -10.1693    0.0000 C   0  0  0  0  0  0  0  0  0  0  0  0
   11.3905  -10.5834    0.0000 C   0  0  0  0  0  0  0  0  0  0  0  0
   12.1059  -10.1725    0.0000 C   0  0  0  0  0  0  0  0  0  0  0  0
    9.9653   -8.9302    0.0000 C   0  0  0  0  0  0  0  0  0  0  0  0
    9.2499   -9.3410    0.0000 C   0  0  0  0  0  0  0  0  0  0  0  0
    8.5364   -8.9269    0.0000 C   0  0  0  0  0  0  0  0  0  0  0  0
    8.5383   -8.1019    0.0000 O   0  0  0  0  0  0  0  0  0  0  0  0
  1  2  1  0  0  0  0
  2  3  1  0  0  0  0
  3  4  1  0  0  0  0
  4  5  1  0  0  0  0
  5  6  1  0  0  0  0
  6  1  1  0  0  0  0
  6  7  1  1  0  0  0
  5  8  1  1  0  0  0
  4  9  1  6  0  0  0
 13 11  2  0  0  0  0
  2 13  1  0  0  0  0
  2 10  1  1  0  0  0
 13 12  1  0  0  0  0
 14 15  2  0  0  0  0
 15 16  1  0  0  0  0
 16 17  2  0  0  0  0
 17 18  1  0  0  0  0
 18 19  2  0  0  0  0
 19 14  1  0  0  0  0
 14 20  1  0  0  0  0
 19 21  1  0  0  0  0
 17 22  1  0  0  0  0
 22 23  2  0  0  0  0
 23 24  1  0  0  0  0
 24 25  2  0  0  0  0
 24 10  1  0  0  0  0
 27 26  1  0  0  0  0
 28 27  1  0  0  0  0
 29 28  1  0  0  0  0
 30 29  1  0  0  0  0
 29 31  2  0  0  0  0
 26 32  2  0  0  0  0
 26  9  1  0  0  0  0
 35 33  1  0  0  0  0
 40 34  1  0  0  0  0
 35 40  1  0  0  0  0
 36 35  2  0  0  0  0
 37 36  1  0  0  0  0
 38 37  2  0  0  0  0
 39 38  1  0  0  0  0
 40 39  2  0  0  0  0
 37 41  1  0  0  0  0
 41 42  2  0  0  0  0
 42 43  1  0  0  0  0
 43 44  2  0  0  0  0
 43  7  1  0  0  0  0
M  END
>  <cdx:fragmentId>
5

$$$$
