9452.cdx
  Mrv1902 05222410232D          

 39 43  0  0  0  0            999 V2000
    4.1764   -9.2331    0.0000 C   0  0  0  0  0  0  0  0  0  0  0  0
    4.1764  -10.0581    0.0000 C   0  0  0  0  0  0  0  0  0  0  0  0
    4.8909  -10.4706    0.0000 C   0  0  0  0  0  0  0  0  0  0  0  0
    5.6053  -10.0581    0.0000 C   0  0  0  0  0  0  0  0  0  0  0  0
    5.6053   -9.2331    0.0000 C   0  0  0  0  0  0  0  0  0  0  0  0
    4.8909   -8.8206    0.0000 C   0  0  0  0  0  0  0  0  0  0  0  0
    6.3198  -10.4706    0.0000 C   0  0  0  0  0  0  0  0  0  0  0  0
    7.0343  -10.0581    0.0000 C   0  0  0  0  0  0  0  0  0  0  0  0
    7.0343   -9.2331    0.0000 C   0  0  0  0  0  0  0  0  0  0  0  0
    6.3198   -8.8206    0.0000 O   0  0  0  0  0  0  0  0  0  0  0  0
    7.7488  -10.4706    0.0000 C   0  0  0  0  0  0  0  0  0  0  0  0
    8.4632  -10.0581    0.0000 C   0  0  0  0  0  0  0  0  0  0  0  0
    7.7488  -11.2956    0.0000 C   0  0  0  0  0  0  0  0  0  0  0  0
    8.4632  -11.7081    0.0000 C   0  0  0  0  0  0  0  0  0  0  0  0
    9.1777  -11.2956    0.0000 C   0  0  0  0  0  0  0  0  0  0  0  0
    9.1777  -10.4706    0.0000 C   0  0  0  0  0  0  0  0  0  0  0  0
    4.8909   -7.9956    0.0000 C   0  0  0  0  0  0  0  0  0  0  0  0
    4.1764   -7.5831    0.0000 C   0  0  2  0  0  0  0  0  0  0  0  0
    3.4619   -7.9956    0.0000 O   0  0  0  0  0  0  0  0  0  0  0  0
    3.4619   -8.8206    0.0000 O   0  0  0  0  0  0  0  0  0  0  0  0
    5.6053   -7.5831    0.0000 O   0  0  0  0  0  0  0  0  0  0  0  0
    5.6053   -6.7581    0.0000 C   0  0  1  0  0  0  0  0  0  0  0  0
    4.8909   -6.3456    0.0000 C   0  0  2  0  0  0  0  0  0  0  0  0
    4.1764   -6.7581    0.0000 C   0  0  2  0  0  0  0  0  0  0  0  0
    6.3198   -6.3456    0.0000 C   0  0  0  0  0  0  0  0  0  0  0  0
    6.3198   -5.5206    0.0000 O   0  0  0  0  0  0  0  0  0  0  0  0
    4.8909   -5.5206    0.0000 O   0  0  0  0  0  0  0  0  0  0  0  0
    9.8922  -11.7081    0.0000 O   0  0  0  0  0  0  0  0  0  0  0  0
    6.3198  -11.2956    0.0000 O   0  0  0  0  0  0  0  0  0  0  0  0
    3.4619   -6.3456    0.0000 O   0  0  0  0  0  0  0  0  0  0  0  0
    7.7694   -5.7124    0.0000 O   0  0  0  0  0  0  0  0  0  0  0  0
    8.4278   -5.2152    0.0000 C   0  0  0  0  0  0  0  0  0  0  0  0
    8.1584   -4.4355    0.0000 C   0  0  2  0  0  0  0  0  0  0  0  0
    7.3335   -4.4507    0.0000 C   0  0  2  0  0  0  0  0  0  0  0  0
    7.0931   -5.2399    0.0000 C   0  0  2  0  0  0  0  0  0  0  0  0
    6.8363   -3.7924    0.0000 O   0  0  0  0  0  0  0  0  0  0  0  0
    8.0570   -3.6167    0.0000 O   0  0  0  0  0  0  0  0  0  0  0  0
    8.8167   -3.9383    0.0000 C   0  0  0  0  0  0  0  0  0  0  0  0
    9.5765   -4.2598    0.0000 O   0  0  0  0  0  0  0  0  0  0  0  0
  1  2  1  0  0  0  0
  2  3  2  0  0  0  0
  3  4  1  0  0  0  0
  4  5  2  0  0  0  0
  5  6  1  0  0  0  0
  6  1  2  0  0  0  0
  4  7  1  0  0  0  0
  7  8  1  0  0  0  0
  8  9  2  0  0  0  0
  9 10  1  0  0  0  0
 10  5  1  0  0  0  0
  8 11  1  0  0  0  0
 11 12  1  0  0  0  0
 11 13  2  0  0  0  0
 13 14  1  0  0  0  0
 14 15  2  0  0  0  0
 15 16  1  0  0  0  0
 16 12  2  0  0  0  0
  6 17  1  0  0  0  0
 17 18  1  0  0  0  0
 18 19  1  6  0  0  0
 20  1  1  0  0  0  0
 17 21  1  0  0  0  0
 21 22  1  0  0  0  0
 22 23  1  0  0  0  0
 23 24  1  0  0  0  0
 24 18  1  0  0  0  0
 22 25  1  1  0  0  0
 25 26  1  0  0  0  0
 23 27  1  6  0  0  0
 15 28  1  0  0  0  0
  7 29  2  0  0  0  0
 24 30  1  1  0  0  0
 31 32  1  0  0  0  0
 32 33  1  0  0  0  0
 33 34  1  0  0  0  0
 34 35  1  0  0  0  0
 35 31  1  0  0  0  0
 34 36  1  6  0  0  0
 33 37  1  6  0  0  0
 33 38  1  0  0  0  0
 38 39  1  0  0  0  0
 35 26  1  1  0  0  0
M  END
>  <cdx:fragmentId>
5

$$$$
