94521.cdx
  Mrv1902 05222410182D          

 24 25  0  0  0  0            999 V2000
    9.3962   -5.1235    0.0000 O   0  0  0  0  0  0  0  0  0  0  0  0
    8.6817   -5.5360    0.0000 C   0  0  1  0  0  0  0  0  0  0  0  0
    8.6817   -6.3610    0.0000 C   0  0  2  0  0  0  0  0  0  0  0  0
    9.3962   -6.7735    0.0000 O   0  0  0  0  0  0  0  0  0  0  0  0
    7.9672   -6.7735    0.0000 C   0  0  1  0  0  0  0  0  0  0  0  0
    7.9672   -7.5985    0.0000 O   0  0  0  0  0  0  0  0  0  0  0  0
    7.2528   -6.3610    0.0000 C   0  0  1  0  0  0  0  0  0  0  0  0
    6.5383   -6.7735    0.0000 O   0  0  0  0  0  0  0  0  0  0  0  0
    7.2528   -5.5360    0.0000 C   0  0  2  0  0  0  0  0  0  0  0  0
    7.9672   -5.1235    0.0000 O   0  0  0  0  0  0  0  0  0  0  0  0
    6.5383   -5.1235    0.0000 C   0  0  0  0  0  0  0  0  0  0  0  0
    5.8238   -5.5360    0.0000 O   0  0  0  0  0  0  0  0  0  0  0  0
    7.2497   -8.0164    0.0000 C   0  0  0  0  0  0  0  0  0  0  0  0
    7.2714   -8.8412    0.0000 C   0  0  0  0  0  0  0  0  0  0  0  0
    6.5680   -9.2723    0.0000 C   0  0  0  0  0  0  0  0  0  0  0  0
    6.5897  -10.0970    0.0000 C   0  0  0  0  0  0  0  0  0  0  0  0
    5.8863  -10.5281    0.0000 C   0  0  0  0  0  0  0  0  0  0  0  0
    5.9079  -11.3528    0.0000 C   0  0  0  0  0  0  0  0  0  0  0  0
    5.2045  -11.7840    0.0000 O   0  0  0  0  0  0  0  0  0  0  0  0
    6.6330  -11.7464    0.0000 C   0  0  0  0  0  0  0  0  0  0  0  0
    6.6547  -12.5711    0.0000 O   0  0  0  0  0  0  0  0  0  0  0  0
    7.3364  -11.3153    0.0000 C   0  0  0  0  0  0  0  0  0  0  0  0
    7.3147  -10.4906    0.0000 C   0  0  0  0  0  0  0  0  0  0  0  0
    6.5247   -7.6229    0.0000 O   0  0  0  0  0  0  0  0  0  0  0  0
  2  1  1  1  0  0  0
  2  3  1  0  0  0  0
  3  4  1  6  0  0  0
  3  5  1  0  0  0  0
  5  6  1  1  0  0  0
  5  7  1  0  0  0  0
  7  8  1  1  0  0  0
  7  9  1  0  0  0  0
  9 10  1  0  0  0  0
  9 11  1  1  0  0  0
 11 12  1  0  0  0  0
  2 10  1  0  0  0  0
 13 14  1  0  0  0  0
 14 15  2  0  0  0  0
 15 16  1  0  0  0  0
 16 17  1  0  0  0  0
 17 18  2  0  0  0  0
 18 19  1  0  0  0  0
 18 20  1  0  0  0  0
 20 21  1  0  0  0  0
 20 22  2  0  0  0  0
 22 23  1  0  0  0  0
 16 23  2  0  0  0  0
 13 24  2  0  0  0  0
 13  6  1  0  0  0  0
M  END
>  <cdx:fragmentId>
97

$$$$
