94539.cdx
  Mrv1902 05222410282D          

  8  7  0  0  0  0            999 V2000
    5.1675   -9.0062    0.0000 C   0  0  0  0  0  0  0  0  0  0  0  0
    5.8820   -8.5938    0.0000 C   0  0  0  0  0  0  0  0  0  0  0  0
    6.5965   -9.0062    0.0000 O   0  0  0  0  0  0  0  0  0  0  0  0
    7.3109   -8.5938    0.0000 C   0  0  0  0  0  0  0  0  0  0  0  0
    8.0254   -9.0062    0.0000 S   0  0  0  0  0  0  0  0  0  0  0  0
    8.7399   -8.5938    0.0000 C   0  0  0  0  0  0  0  0  0  0  0  0
    9.4544   -9.0062    0.0000 C   0  0  0  0  0  0  0  0  0  0  0  0
    7.3109   -7.7687    0.0000 S   0  0  0  0  0  0  0  0  0  0  0  0
  1  2  1  0  0  0  0
  2  3  1  0  0  0  0
  3  4  1  0  0  0  0
  4  5  1  0  0  0  0
  5  6  1  0  0  0  0
  6  7  1  0  0  0  0
  4  8  2  0  0  0  0
M  END
>  <cdx:fragmentId>
3

$$$$
