94534.cdx
  Mrv1902 05222410182D          

 17 17  0  0  0  0            999 V2000
    4.0268   -6.6688    0.0000 C   0  0  0  0  0  0  0  0  0  0  0  0
    4.0268   -7.4937    0.0000 C   0  0  0  0  0  0  0  0  0  0  0  0
    4.7413   -7.9063    0.0000 C   0  0  0  0  0  0  0  0  0  0  0  0
    5.4557   -7.4937    0.0000 C   0  0  0  0  0  0  0  0  0  0  0  0
    5.4557   -6.6688    0.0000 C   0  0  0  0  0  0  0  0  0  0  0  0
    4.7413   -6.2563    0.0000 C   0  0  0  0  0  0  0  0  0  0  0  0
    3.3123   -6.2563    0.0000 O   0  0  0  0  0  0  0  0  0  0  0  0
    3.3123   -7.9063    0.0000 O   0  0  0  0  0  0  0  0  0  0  0  0
    2.5979   -7.4937    0.0000 C   0  0  0  0  0  0  0  0  0  0  0  0
    6.1702   -7.9063    0.0000 C   0  0  0  0  0  0  0  0  0  0  0  0
    6.8847   -7.4937    0.0000 C   0  0  0  0  0  0  0  0  0  0  0  0
    7.5992   -7.9063    0.0000 C   0  0  0  0  0  0  0  0  0  0  0  0
    8.3136   -7.4937    0.0000 O   0  0  0  0  0  0  0  0  0  0  0  0
    9.0281   -7.9063    0.0000 C   0  0  0  0  0  0  0  0  0  0  0  0
    9.7426   -7.4937    0.0000 C   0  0  0  0  0  0  0  0  0  0  0  0
   10.4570   -7.9063    0.0000 C   0  0  0  0  0  0  0  0  0  0  0  0
   11.1715   -7.4937    0.0000 C   0  0  0  0  0  0  0  0  0  0  0  0
  1  2  2  0  0  0  0
  2  3  1  0  0  0  0
  3  4  2  0  0  0  0
  4  5  1  0  0  0  0
  5  6  2  0  0  0  0
  6  1  1  0  0  0  0
  1  7  1  0  0  0  0
  2  8  1  0  0  0  0
  8  9  1  0  0  0  0
  4 10  1  0  0  0  0
 10 11  2  0  0  0  0
 11 12  1  0  0  0  0
 12 13  1  0  0  0  0
 13 14  1  0  0  0  0
 14 15  1  0  0  0  0
 15 16  1  0  0  0  0
 16 17  1  0  0  0  0
M  END
>  <cdx:fragmentId>
5

$$$$
