94536.cdx
  Mrv1902 05222410192D          

 22 23  0  0  0  0            999 V2000
    8.1995   -6.6792    0.0000 C   0  0  0  0  0  0  0  0  0  0  0  0
    8.9140   -7.0917    0.0000 C   0  0  0  0  0  0  0  0  0  0  0  0
    8.1995   -5.8542    0.0000 C   0  0  0  0  0  0  0  0  0  0  0  0
    7.4851   -5.4417    0.0000 C   0  0  0  0  0  0  0  0  0  0  0  0
    7.4851   -4.6167    0.0000 C   0  0  0  0  0  0  0  0  0  0  0  0
    8.1995   -4.2042    0.0000 C   0  0  0  0  0  0  0  0  0  0  0  0
    8.9140   -4.6167    0.0000 C   0  0  0  0  0  0  0  0  0  0  0  0
    8.9140   -5.4417    0.0000 C   0  0  0  0  0  0  0  0  0  0  0  0
    8.1995   -3.3792    0.0000 O   0  0  0  0  0  0  0  0  0  0  0  0
    6.7706   -5.8542    0.0000 O   0  0  0  0  0  0  0  0  0  0  0  0
    6.3419   -3.9567    0.0000 C   0  0  0  0  0  0  0  0  0  0  0  0
    6.3419   -3.1317    0.0000 C   0  0  0  0  0  0  0  0  0  0  0  0
    5.6275   -2.7192    0.0000 C   0  0  0  0  0  0  0  0  0  0  0  0
    4.9130   -3.1317    0.0000 C   0  0  0  0  0  0  0  0  0  0  0  0
    4.9130   -3.9567    0.0000 C   0  0  0  0  0  0  0  0  0  0  0  0
    5.6275   -4.3692    0.0000 C   0  0  0  0  0  0  0  0  0  0  0  0
    5.6275   -5.1942    0.0000 O   0  0  0  0  0  0  0  0  0  0  0  0
    5.6275   -1.8942    0.0000 O   0  0  0  0  0  0  0  0  0  0  0  0
    7.0564   -2.7192    0.0000 C   0  0  0  0  0  0  0  0  0  0  0  0
    7.0564   -1.8942    0.0000 O   0  0  0  0  0  0  0  0  0  0  0  0
    7.7709   -3.1317    0.0000 C   0  0  0  0  0  0  0  0  0  0  0  0
    7.4851   -7.0917    0.0000 O   0  0  0  0  0  0  0  0  0  0  0  0
  1  2  1  0  0  0  0
  3  4  1  0  0  0  0
  4  5  2  0  0  0  0
  5  6  1  0  0  0  0
  6  7  2  0  0  0  0
  7  8  1  0  0  0  0
  3  8  2  0  0  0  0
  6  9  1  0  0  0  0
  4 10  1  0  0  0  0
 11 12  1  0  0  0  0
 12 13  2  0  0  0  0
 13 14  1  0  0  0  0
 14 15  2  0  0  0  0
 15 16  1  0  0  0  0
 11 16  2  0  0  0  0
 16 17  1  0  0  0  0
 13 18  1  0  0  0  0
 19 20  2  0  0  0  0
 19 21  1  0  0  0  0
 12 19  1  0  0  0  0
  5 11  1  0  0  0  0
  1  3  1  0  0  0  0
  1 22  2  0  0  0  0
M  END
>  <cdx:fragmentId>
38644

$$$$
