94532.cdx
  Mrv1902 05222410192D          

 22 22  0  0  0  0            999 V2000
    3.6143   -7.4937    0.0000 O   0  0  0  0  0  0  0  0  0  0  0  0
    4.3288   -7.9063    0.0000 C   0  0  0  0  0  0  0  0  0  0  0  0
    5.0432   -7.4937    0.0000 C   0  0  0  0  0  0  0  0  0  0  0  0
    5.0432   -6.6688    0.0000 C   0  0  0  0  0  0  0  0  0  0  0  0
    4.3288   -8.7313    0.0000 O   0  0  0  0  0  0  0  0  0  0  0  0
    5.7577   -7.9063    0.0000 O   0  0  0  0  0  0  0  0  0  0  0  0
    6.4722   -7.4937    0.0000 C   0  0  0  0  0  0  0  0  0  0  0  0
    6.4722   -6.6688    0.0000 C   0  0  0  0  0  0  0  0  0  0  0  0
    5.7577   -6.2563    0.0000 O   0  0  0  0  0  0  0  0  0  0  0  0
    7.1867   -7.9063    0.0000 C   0  0  0  0  0  0  0  0  0  0  0  0
    7.9011   -7.4937    0.0000 C   0  0  0  0  0  0  0  0  0  0  0  0
    7.9011   -6.6688    0.0000 C   0  0  0  0  0  0  0  0  0  0  0  0
    7.1867   -6.2563    0.0000 C   0  0  0  0  0  0  0  0  0  0  0  0
    7.1867   -8.7313    0.0000 O   0  0  0  0  0  0  0  0  0  0  0  0
    7.9011   -9.1437    0.0000 C   0  0  0  0  0  0  0  0  0  0  0  0
    9.3301   -6.6688    0.0000 C   0  0  0  0  0  0  0  0  0  0  0  0
    8.6156   -6.2563    0.0000 C   0  0  0  0  0  0  0  0  0  0  0  0
   10.7590   -6.6687    0.0000 O   0  0  0  0  0  0  0  0  0  0  0  0
   10.0445   -6.2563    0.0000 C   0  0  0  0  0  0  0  0  0  0  0  0
    2.8998   -7.9063    0.0000 C   0  0  0  0  0  0  0  0  0  0  0  0
    3.6143   -9.1438    0.0000 C   0  0  0  0  0  0  0  0  0  0  0  0
    5.7577   -5.4313    0.0000 C   0  0  0  0  0  0  0  0  0  0  0  0
  1  2  1  0  0  0  0
  2  3  1  0  0  0  0
  3  4  2  0  0  0  0
  2  5  1  0  0  0  0
  6  3  1  0  0  0  0
  6  7  1  0  0  0  0
  7  8  2  0  0  0  0
  8  9  1  0  0  0  0
  7 10  1  0  0  0  0
 10 11  2  0  0  0  0
 11 12  1  0  0  0  0
 12 13  2  0  0  0  0
 13  8  1  0  0  0  0
 10 14  1  0  0  0  0
 14 15  1  0  0  0  0
 16 17  2  0  0  0  0
 17 12  1  0  0  0  0
 19 18  2  0  0  0  0
 16 19  1  0  0  0  0
  1 20  1  0  0  0  0
  5 21  1  0  0  0  0
  9 22  1  0  0  0  0
M  END
>  <cdx:fragmentId>
5

$$$$
