94535.cdx
  Mrv1902 05222410182D          

 33 35  0  0  0  0            999 V2000
    2.9406   -8.2775    0.0000 O   0  0  0  0  0  0  0  0  0  0  0  0
    3.6550   -9.5150    0.0000 O   0  0  0  0  0  0  0  0  0  0  0  0
    4.3695   -9.1025    0.0000 C   0  0  2  0  0  0  0  0  0  0  0  0
    4.3695   -8.2775    0.0000 C   0  0  1  0  0  0  0  0  0  0  0  0
    3.6550   -7.8650    0.0000 C   0  0  0  0  0  0  0  0  0  0  0  0
    5.0840   -9.5150    0.0000 C   0  0  1  0  0  0  0  0  0  0  0  0
    5.7984   -9.1025    0.0000 C   0  0  2  0  0  0  0  0  0  0  0  0
    5.7984   -8.2775    0.0000 C   0  0  1  0  0  0  0  0  0  0  0  0
    5.0840   -7.8650    0.0000 O   0  0  0  0  0  0  0  0  0  0  0  0
    6.5129   -7.8650    0.0000 O   0  0  0  0  0  0  0  0  0  0  0  0
    6.5129   -7.0400    0.0000 C   0  0  1  0  0  0  0  0  0  0  0  0
    5.7984   -6.6275    0.0000 C   0  0  2  0  0  0  0  0  0  0  0  0
    5.0840   -7.0400    0.0000 O   0  0  0  0  0  0  0  0  0  0  0  0
    7.2274   -6.6275    0.0000 C   0  0  2  0  0  0  0  0  0  0  0  0
    7.2274   -5.8025    0.0000 C   0  0  1  0  0  0  0  0  0  0  0  0
    6.5129   -5.3900    0.0000 O   0  0  0  0  0  0  0  0  0  0  0  0
    5.7984   -5.8025    0.0000 C   0  0  2  0  0  0  0  0  0  0  0  0
    5.0840   -5.3900    0.0000 C   0  0  0  0  0  0  0  0  0  0  0  0
    4.3695   -5.8025    0.0000 O   0  0  0  0  0  0  0  0  0  0  0  0
    7.9419   -7.0400    0.0000 O   0  0  0  0  0  0  0  0  0  0  0  0
    8.6563   -6.6275    0.0000 C   0  0  0  0  0  0  0  0  0  0  0  0
    8.6563   -5.8025    0.0000 C   0  0  0  0  0  0  0  0  0  0  0  0
    7.9419   -5.3900    0.0000 O   0  0  0  0  0  0  0  0  0  0  0  0
    9.3708   -7.0400    0.0000 C   0  0  0  0  0  0  0  0  0  0  0  0
   10.0853   -6.6275    0.0000 C   0  0  0  0  0  0  0  0  0  0  0  0
   10.0853   -5.8025    0.0000 C   0  0  0  0  0  0  0  0  0  0  0  0
    9.3708   -5.3900    0.0000 C   0  0  0  0  0  0  0  0  0  0  0  0
   10.0853   -4.1525    0.0000 C   0  0  0  0  0  0  0  0  0  0  0  0
    9.3708   -4.5650    0.0000 C   0  0  0  0  0  0  0  0  0  0  0  0
    8.6563   -4.1525    0.0000 O   0  0  0  0  0  0  0  0  0  0  0  0
    9.3708   -7.8650    0.0000 O   0  0  0  0  0  0  0  0  0  0  0  0
    5.0840  -10.3400    0.0000 O   0  0  0  0  0  0  0  0  0  0  0  0
    6.5129   -9.5150    0.0000 O   0  0  0  0  0  0  0  0  0  0  0  0
  3  2  1  6  0  0  0
  3  4  1  0  0  0  0
  4  5  1  1  0  0  0
  5  1  1  0  0  0  0
  3  6  1  0  0  0  0
  6  7  1  0  0  0  0
  7  8  1  0  0  0  0
  8  9  1  0  0  0  0
  9  4  1  0  0  0  0
  8 10  1  1  0  0  0
 11 10  1  1  0  0  0
 11 12  1  0  0  0  0
 12 13  1  6  0  0  0
 11 14  1  0  0  0  0
 14 15  1  0  0  0  0
 15 16  1  0  0  0  0
 16 17  1  0  0  0  0
 17 12  1  0  0  0  0
 17 18  1  1  0  0  0
 18 19  1  0  0  0  0
 14 20  1  6  0  0  0
 21 22  1  0  0  0  0
 22 23  1  0  0  0  0
 15 23  1  1  0  0  0
 21 24  2  0  0  0  0
 24 25  1  0  0  0  0
 25 26  2  0  0  0  0
 26 27  1  0  0  0  0
 27 22  2  0  0  0  0
 28 29  1  0  0  0  0
 29 27  1  0  0  0  0
 29 30  2  0  0  0  0
 24 31  1  0  0  0  0
  6 32  1  1  0  0  0
  7 33  1  6  0  0  0
M  END
>  <cdx:fragmentId>
5

$$$$
