94546.cdx
  Mrv1902 05222410222D          

 25 26  0  0  0  0            999 V2000
    3.4493   -8.1675    0.0000 C   0  0  0  0  0  0  0  0  0  0  0  0
    3.4493   -8.9925    0.0000 C   0  0  0  0  0  0  0  0  0  0  0  0
    4.1638   -9.4050    0.0000 C   0  0  0  0  0  0  0  0  0  0  0  0
    4.8782   -8.9925    0.0000 C   0  0  0  0  0  0  0  0  0  0  0  0
    4.8782   -8.1675    0.0000 C   0  0  0  0  0  0  0  0  0  0  0  0
    4.1638   -7.7550    0.0000 C   0  0  0  0  0  0  0  0  0  0  0  0
    2.7348   -7.7550    0.0000 O   0  0  0  0  0  0  0  0  0  0  0  0
    2.7348   -9.4050    0.0000 O   0  0  0  0  0  0  0  0  0  0  0  0
    5.5927   -7.7550    0.0000 C   0  0  0  0  0  0  0  0  0  0  0  0
    6.3072   -8.1675    0.0000 C   0  0  0  0  0  0  0  0  0  0  0  0
    7.0217   -7.7550    0.0000 C   0  0  0  0  0  0  0  0  0  0  0  0
    7.7361   -8.1675    0.0000 N   0  0  0  0  0  0  0  0  0  0  0  0
    7.0217   -6.9300    0.0000 O   0  0  0  0  0  0  0  0  0  0  0  0
    8.4506   -7.7550    0.0000 C   0  0  0  0  0  0  0  0  0  0  0  0
    9.1651   -8.1675    0.0000 C   0  0  0  0  0  0  0  0  0  0  0  0
    9.8795   -7.7550    0.0000 C   0  0  0  0  0  0  0  0  0  0  0  0
   10.5940   -8.1675    0.0000 C   0  0  0  0  0  0  0  0  0  0  0  0
   11.3085   -7.7550    0.0000 C   0  0  0  0  0  0  0  0  0  0  0  0
   11.3085   -6.9300    0.0000 C   0  0  0  0  0  0  0  0  0  0  0  0
   10.5940   -6.5175    0.0000 C   0  0  0  0  0  0  0  0  0  0  0  0
    9.8795   -6.9300    0.0000 C   0  0  0  0  0  0  0  0  0  0  0  0
   12.0230   -6.5175    0.0000 O   0  0  0  0  0  0  0  0  0  0  0  0
   12.7374   -6.9300    0.0000 C   0  0  0  0  0  0  0  0  0  0  0  0
   12.0230   -8.1675    0.0000 O   0  0  0  0  0  0  0  0  0  0  0  0
   12.7374   -7.7550    0.0000 C   0  0  0  0  0  0  0  0  0  0  0  0
  1  2  2  0  0  0  0
  2  3  1  0  0  0  0
  3  4  2  0  0  0  0
  4  5  1  0  0  0  0
  5  6  2  0  0  0  0
  6  1  1  0  0  0  0
  1  7  1  0  0  0  0
  2  8  1  0  0  0  0
  5  9  1  0  0  0  0
  9 10  2  0  0  0  0
 10 11  1  0  0  0  0
 11 12  1  0  0  0  0
 11 13  2  0  0  0  0
 12 14  1  0  0  0  0
 14 15  1  0  0  0  0
 15 16  1  0  0  0  0
 16 17  2  0  0  0  0
 17 18  1  0  0  0  0
 18 19  2  0  0  0  0
 19 20  1  0  0  0  0
 20 21  2  0  0  0  0
 21 16  1  0  0  0  0
 19 22  1  0  0  0  0
 22 23  1  0  0  0  0
 18 24  1  0  0  0  0
 24 25  1  0  0  0  0
M  END
>  <cdx:fragmentId>
5

$$$$
