94544.cdx
  Mrv1902 05222410222D          

 24 26  0  0  0  0            999 V2000
    3.1331   -7.5213    0.0000 C   0  0  0  0  0  0  0  0  0  0  0  0
    3.1331   -8.3462    0.0000 C   0  0  0  0  0  0  0  0  0  0  0  0
    3.8475   -8.7588    0.0000 C   0  0  0  0  0  0  0  0  0  0  0  0
    4.5620   -8.3462    0.0000 C   0  0  0  0  0  0  0  0  0  0  0  0
    4.5620   -7.5213    0.0000 C   0  0  0  0  0  0  0  0  0  0  0  0
    3.8475   -7.1088    0.0000 C   0  0  0  0  0  0  0  0  0  0  0  0
    2.4186   -7.1088    0.0000 O   0  0  0  0  0  0  0  0  0  0  0  0
    2.4186   -8.7588    0.0000 O   0  0  0  0  0  0  0  0  0  0  0  0
    5.2765   -7.1087    0.0000 C   0  0  0  0  0  0  0  0  0  0  0  0
    5.9909   -7.5212    0.0000 C   0  0  0  0  0  0  0  0  0  0  0  0
    6.7054   -7.1087    0.0000 C   0  0  0  0  0  0  0  0  0  0  0  0
    7.4199   -7.5212    0.0000 N   0  0  0  0  0  0  0  0  0  0  0  0
    6.7054   -6.2837    0.0000 O   0  0  0  0  0  0  0  0  0  0  0  0
    8.1344   -7.1087    0.0000 C   0  0  0  0  0  0  0  0  0  0  0  0
    8.8488   -7.5212    0.0000 C   0  0  0  0  0  0  0  0  0  0  0  0
    9.5633   -7.1087    0.0000 C   0  0  0  0  0  0  0  0  0  0  0  0
   10.3170   -7.4443    0.0000 C   0  0  0  0  0  0  0  0  0  0  0  0
   10.8690   -6.8312    0.0000 C   0  0  0  0  0  0  0  0  0  0  0  0
   10.4565   -6.1167    0.0000 C   0  0  0  0  0  0  0  0  0  0  0  0
    9.6495   -6.2883    0.0000 N   0  0  0  0  0  0  0  0  0  0  0  0
   11.6940   -6.8312    0.0000 C   0  0  0  0  0  0  0  0  0  0  0  0
   12.1065   -6.1167    0.0000 C   0  0  0  0  0  0  0  0  0  0  0  0
   11.6940   -5.4023    0.0000 C   0  0  0  0  0  0  0  0  0  0  0  0
   10.8690   -5.4023    0.0000 C   0  0  0  0  0  0  0  0  0  0  0  0
  1  2  2  0  0  0  0
  2  3  1  0  0  0  0
  3  4  2  0  0  0  0
  4  5  1  0  0  0  0
  5  6  2  0  0  0  0
  6  1  1  0  0  0  0
  1  7  1  0  0  0  0
  2  8  1  0  0  0  0
  5  9  1  0  0  0  0
  9 10  1  0  0  0  0
 10 11  1  0  0  0  0
 11 12  1  0  0  0  0
 11 13  2  0  0  0  0
 12 14  1  0  0  0  0
 14 15  1  0  0  0  0
 15 16  1  0  0  0  0
 16 17  2  0  0  0  0
 17 18  1  0  0  0  0
 18 19  2  0  0  0  0
 19 20  1  0  0  0  0
 20 16  1  0  0  0  0
 18 21  1  0  0  0  0
 21 22  2  0  0  0  0
 22 23  1  0  0  0  0
 23 24  2  0  0  0  0
 24 19  1  0  0  0  0
M  END
>  <cdx:fragmentId>
5

$$$$
