94540.cdx
  Mrv1902 05222410212D          

  5  4  0  0  0  0            999 V2000
    8.1359   -6.6962    0.0000 C   0  0  0  0  0  0  0  0  0  0  0  0
    7.4215   -6.2837    0.0000 N   0  0  0  0  0  0  0  0  0  0  0  0
    6.7070   -6.6962    0.0000 C   0  0  0  0  0  0  0  0  0  0  0  0
    5.9925   -6.2837    0.0000 C   0  0  0  0  0  0  0  0  0  0  0  0
    6.7070   -7.5213    0.0000 S   0  0  0  0  0  0  0  0  0  0  0  0
  2  1  1  0  0  0  0
  3  2  1  0  0  0  0
  4  3  1  0  0  0  0
  3  5  2  0  0  0  0
M  END
>  <cdx:fragmentId>
3

$$$$
