94551.cdx
  Mrv1902 05222410222D          

 23 24  0  0  0  0            999 V2000
    2.7068   -8.1538    0.0000 C   0  0  0  0  0  0  0  0  0  0  0  0
    2.7068   -8.9788    0.0000 C   0  0  0  0  0  0  0  0  0  0  0  0
    3.4213   -9.3913    0.0000 C   0  0  0  0  0  0  0  0  0  0  0  0
    4.1357   -8.9788    0.0000 C   0  0  0  0  0  0  0  0  0  0  0  0
    4.1357   -8.1538    0.0000 C   0  0  0  0  0  0  0  0  0  0  0  0
    3.4213   -7.7413    0.0000 C   0  0  0  0  0  0  0  0  0  0  0  0
    1.9923   -7.7413    0.0000 O   0  0  0  0  0  0  0  0  0  0  0  0
    1.9923   -9.3913    0.0000 O   0  0  0  0  0  0  0  0  0  0  0  0
    4.8502   -7.7413    0.0000 C   0  0  0  0  0  0  0  0  0  0  0  0
    5.5647   -8.1538    0.0000 C   0  0  0  0  0  0  0  0  0  0  0  0
    6.2792   -7.7413    0.0000 C   0  0  0  0  0  0  0  0  0  0  0  0
    6.9936   -8.1538    0.0000 N   0  0  0  0  0  0  0  0  0  0  0  0
    6.2792   -6.9162    0.0000 O   0  0  0  0  0  0  0  0  0  0  0  0
    7.7081   -7.7413    0.0000 C   0  0  0  0  0  0  0  0  0  0  0  0
    8.4226   -8.1538    0.0000 C   0  0  0  0  0  0  0  0  0  0  0  0
    9.1370   -7.7413    0.0000 C   0  0  0  0  0  0  0  0  0  0  0  0
    1.2779   -8.1537    0.0000 C   0  0  0  0  0  0  0  0  0  0  0  0
    9.8515   -8.1537    0.0000 C   0  0  0  0  0  0  0  0  0  0  0  0
    9.8515   -8.9787    0.0000 C   0  0  0  0  0  0  0  0  0  0  0  0
   10.5660   -9.3912    0.0000 C   0  0  0  0  0  0  0  0  0  0  0  0
   11.2805   -8.9787    0.0000 C   0  0  0  0  0  0  0  0  0  0  0  0
   11.2805   -8.1537    0.0000 C   0  0  0  0  0  0  0  0  0  0  0  0
   10.5660   -7.7413    0.0000 C   0  0  0  0  0  0  0  0  0  0  0  0
  1  2  2  0  0  0  0
  2  3  1  0  0  0  0
  3  4  2  0  0  0  0
  4  5  1  0  0  0  0
  5  6  2  0  0  0  0
  6  1  1  0  0  0  0
  1  7  1  0  0  0  0
  2  8  1  0  0  0  0
  5  9  1  0  0  0  0
  9 10  2  0  0  0  0
 10 11  1  0  0  0  0
 11 12  1  0  0  0  0
 11 13  2  0  0  0  0
 12 14  1  0  0  0  0
 14 15  1  0  0  0  0
 15 16  1  0  0  0  0
  7 17  1  0  0  0  0
 16 18  1  0  0  0  0
 18 19  2  0  0  0  0
 19 20  1  0  0  0  0
 20 21  2  0  0  0  0
 21 22  1  0  0  0  0
 22 23  2  0  0  0  0
 23 18  1  0  0  0  0
M  END
>  <cdx:fragmentId>
5

$$$$
