94553.cdx
  Mrv1902 05222410232D          

 22 24  0  0  0  0            999 V2000
    4.0818   -5.7888    0.0000 C   0  0  0  0  0  0  0  0  0  0  0  0
    4.0818   -6.6137    0.0000 C   0  0  0  0  0  0  0  0  0  0  0  0
    4.7963   -7.0263    0.0000 C   0  0  0  0  0  0  0  0  0  0  0  0
    5.5107   -6.6137    0.0000 C   0  0  0  0  0  0  0  0  0  0  0  0
    5.5107   -5.7888    0.0000 C   0  0  0  0  0  0  0  0  0  0  0  0
    4.7963   -5.3763    0.0000 C   0  0  0  0  0  0  0  0  0  0  0  0
    6.2252   -7.0263    0.0000 C   0  0  0  0  0  0  0  0  0  0  0  0
    6.9397   -6.6137    0.0000 C   0  0  0  0  0  0  0  0  0  0  0  0
    6.9397   -5.7888    0.0000 C   0  0  0  0  0  0  0  0  0  0  0  0
    6.2252   -5.3763    0.0000 O   0  0  0  0  0  0  0  0  0  0  0  0
    8.3686   -5.7888    0.0000 C   0  0  0  0  0  0  0  0  0  0  0  0
    7.6542   -5.3763    0.0000 C   0  0  0  0  0  0  0  0  0  0  0  0
    9.0831   -5.3763    0.0000 C   0  0  0  0  0  0  0  0  0  0  0  0
    9.0831   -4.5512    0.0000 C   0  0  0  0  0  0  0  0  0  0  0  0
    8.3686   -4.1387    0.0000 C   0  0  0  0  0  0  0  0  0  0  0  0
    7.6542   -4.5512    0.0000 C   0  0  0  0  0  0  0  0  0  0  0  0
    6.2252   -7.8513    0.0000 O   0  0  0  0  0  0  0  0  0  0  0  0
    8.3686   -3.3138    0.0000 C   0  0  0  0  0  0  0  0  0  0  0  0
    9.7976   -4.1387    0.0000 C   0  0  0  0  0  0  0  0  0  0  0  0
    7.6542   -7.0263    0.0000 C   0  0  0  0  0  0  0  0  0  0  0  0
    4.7963   -7.8513    0.0000 C   0  0  0  0  0  0  0  0  0  0  0  0
    3.3673   -5.3763    0.0000 C   0  0  0  0  0  0  0  0  0  0  0  0
  1  2  2  0  0  0  0
  2  3  1  0  0  0  0
  3  4  2  0  0  0  0
  4  5  1  0  0  0  0
  5  6  2  0  0  0  0
  6  1  1  0  0  0  0
  4  7  1  0  0  0  0
  7  8  1  0  0  0  0
  8  9  2  0  0  0  0
  9 10  1  0  0  0  0
 10  5  1  0  0  0  0
 11 12  2  0  0  0  0
 12  9  1  0  0  0  0
 11 13  1  0  0  0  0
 13 14  2  0  0  0  0
 14 15  1  0  0  0  0
 15 16  2  0  0  0  0
 16 12  1  0  0  0  0
  7 17  2  0  0  0  0
 15 18  1  0  0  0  0
 14 19  1  0  0  0  0
  8 20  1  0  0  0  0
  3 21  1  0  0  0  0
  1 22  1  0  0  0  0
M  END
>  <cdx:fragmentId>
5

$$$$
