94556.cdx
  Mrv1902 05222410212D          

 18 19  0  0  0  0            999 V2000
    4.3018   -5.8438    0.0000 C   0  0  0  0  0  0  0  0  0  0  0  0
    4.3018   -6.6688    0.0000 C   0  0  0  0  0  0  0  0  0  0  0  0
    5.0163   -7.0812    0.0000 C   0  0  0  0  0  0  0  0  0  0  0  0
    5.7307   -6.6688    0.0000 C   0  0  0  0  0  0  0  0  0  0  0  0
    5.7307   -5.8438    0.0000 C   0  0  0  0  0  0  0  0  0  0  0  0
    5.0163   -5.4313    0.0000 C   0  0  0  0  0  0  0  0  0  0  0  0
    3.5873   -7.0812    0.0000 C   0  0  0  0  0  0  0  0  0  0  0  0
    5.0163   -4.6063    0.0000 O   0  0  0  0  0  0  0  0  0  0  0  0
    6.5154   -6.9237    0.0000 O   0  0  0  0  0  0  0  0  0  0  0  0
    7.0003   -6.2563    0.0000 C   0  0  0  0  0  0  0  0  0  0  0  0
    6.5154   -5.5888    0.0000 C   0  0  0  0  0  0  0  0  0  0  0  0
    6.3018   -4.7919    0.0000 O   0  0  0  0  0  0  0  0  0  0  0  0
    7.0987   -5.0054    0.0000 C   0  0  0  0  0  0  0  0  0  0  0  0
    7.8253   -6.2563    0.0000 C   0  0  0  0  0  0  0  0  0  0  0  0
    8.2378   -6.9707    0.0000 C   0  0  0  0  0  0  0  0  0  0  0  0
    9.0628   -6.9707    0.0000 C   0  0  0  0  0  0  0  0  0  0  0  0
    9.4753   -7.6852    0.0000 C   0  0  0  0  0  0  0  0  0  0  0  0
    9.4753   -6.2563    0.0000 C   0  0  0  0  0  0  0  0  0  0  0  0
  1  2  2  0  0  0  0
  2  3  1  0  0  0  0
  3  4  1  0  0  0  0
  4  5  1  0  0  0  0
  5  6  1  0  0  0  0
  6  1  1  0  0  0  0
  2  7  1  0  0  0  0
  6  8  2  0  0  0  0
  4  9  1  0  0  0  0
  9 10  1  0  0  0  0
 10 11  1  0  0  0  0
 11  5  1  0  0  0  0
 11 12  1  0  0  0  0
 11 13  1  0  0  0  0
 10 14  2  0  0  0  0
 14 15  1  0  0  0  0
 15 16  2  0  0  0  0
 16 17  1  0  0  0  0
 16 18  1  0  0  0  0
M  END
>  <cdx:fragmentId>
5

$$$$
