94559.cdx
  Mrv1902 05222410252D          

 60 66  0  0  0  0            999 V2000
    2.4453   -9.6487    0.0000 C   0  0  1  0  0  0  0  0  0  0  0  0
    2.4453   -8.8237    0.0000 C   0  0  1  0  0  0  0  0  0  0  0  0
    3.1598   -8.4112    0.0000 C   0  0  0  0  0  0  0  0  0  0  0  0
    3.1598  -10.0612    0.0000 C   0  0  2  0  0  0  0  0  0  0  0  0
    3.5723  -10.7756    0.0000 C   0  0  0  0  0  0  0  0  0  0  0  0
    2.7473  -10.7756    0.0000 C   0  0  0  0  0  0  0  0  0  0  0  0
    3.8742   -9.6487    0.0000 C   0  0  2  0  0  0  0  0  0  0  0  0
    3.8742  -10.4737    0.0000 H   0  0  0  0  0  0  0  0  0  0  0  0
    4.5887  -10.0612    0.0000 C   0  0  0  0  0  0  0  0  0  0  0  0
    5.3032   -9.6487    0.0000 C   0  0  0  0  0  0  0  0  0  0  0  0
    5.3032   -8.8237    0.0000 C   0  0  1  0  0  0  0  0  0  0  0  0
    5.3032   -7.9987    0.0000 C   0  0  0  0  0  0  0  0  0  0  0  0
    6.0176   -8.4112    0.0000 C   0  0  2  0  0  0  0  0  0  0  0  0
    6.0176   -9.2362    0.0000 C   0  0  0  0  0  0  0  0  0  0  0  0
    6.7321   -8.8237    0.0000 C   0  0  0  0  0  0  0  0  0  0  0  0
    7.4466   -8.4112    0.0000 C   0  0  0  0  0  0  0  0  0  0  0  0
    7.4466   -7.5862    0.0000 C   0  0  1  0  0  0  0  0  0  0  0  0
    8.1611   -7.9987    0.0000 C   0  0  0  0  0  0  0  0  0  0  0  0
    8.1611   -7.1737    0.0000 C   0  0  0  0  0  0  0  0  0  0  0  0
    8.1611   -6.3487    0.0000 C   0  0  0  0  0  0  0  0  0  0  0  0
    7.4466   -5.9362    0.0000 C   0  0  0  0  0  0  0  0  0  0  0  0
    7.0341   -5.2217    0.0000 C   0  0  0  0  0  0  0  0  0  0  0  0
    7.8591   -5.2217    0.0000 C   0  0  0  0  0  0  0  0  0  0  0  0
    6.7321   -6.3487    0.0000 C   0  0  0  0  0  0  0  0  0  0  0  0
    6.7321   -7.1737    0.0000 C   0  0  1  0  0  0  0  0  0  0  0  0
    6.7321   -7.9987    0.0000 H   0  0  0  0  0  0  0  0  0  0  0  0
    6.0176   -7.5862    0.0000 C   0  0  0  0  0  0  0  0  0  0  0  0
    5.3032   -7.1737    0.0000 C   0  0  0  0  0  0  0  0  0  0  0  0
    4.5887   -7.5862    0.0000 C   0  0  0  0  0  0  0  0  0  0  0  0
    4.5887   -8.4112    0.0000 C   0  0  2  0  0  0  0  0  0  0  0  0
    3.8742   -8.8237    0.0000 C   0  0  1  0  0  0  0  0  0  0  0  0
    3.8742   -7.9987    0.0000 C   0  0  0  0  0  0  0  0  0  0  0  0
    8.1611   -8.8237    0.0000 O   0  0  0  0  0  0  0  0  0  0  0  0
    8.8755   -7.5862    0.0000 O   0  0  0  0  0  0  0  0  0  0  0  0
    3.1598  -11.4901    0.0000 O   0  0  0  0  0  0  0  0  0  0  0  0
    1.7308  -10.0612    0.0000 O   0  0  0  0  0  0  0  0  0  0  0  0
    1.7308   -8.4112    0.0000 O   0  0  0  0  0  0  0  0  0  0  0  0
    9.5898   -7.9899    0.0000 C   0  0  1  0  0  0  0  0  0  0  0  0
   10.3035   -7.5761    0.0000 C   0  0  2  0  0  0  0  0  0  0  0  0
   10.3019   -6.7511    0.0000 O   0  0  0  0  0  0  0  0  0  0  0  0
   11.0188   -7.9872    0.0000 C   0  0  1  0  0  0  0  0  0  0  0  0
   11.7324   -7.5734    0.0000 O   0  0  0  0  0  0  0  0  0  0  0  0
   11.0203   -8.8122    0.0000 C   0  0  2  0  0  0  0  0  0  0  0  0
   11.7356   -9.2234    0.0000 O   0  0  0  0  0  0  0  0  0  0  0  0
   10.3066   -9.2261    0.0000 C   0  0  2  0  0  0  0  0  0  0  0  0
    9.5914   -8.8149    0.0000 O   0  0  0  0  0  0  0  0  0  0  0  0
   10.3082  -10.0511    0.0000 C   0  0  0  0  0  0  0  0  0  0  0  0
    4.5887   -9.2362    0.0000 H   0  0  0  0  0  0  0  0  0  0  0  0
    9.5937  -13.7619    0.0000 O   0  0  0  0  0  0  0  0  0  0  0  0
    9.5939  -12.9369    0.0000 C   0  0  0  0  0  0  0  0  0  0  0  0
   10.3087  -11.6995    0.0000 O   0  0  0  0  0  0  0  0  0  0  0  0
   10.3085  -12.5246    0.0000 C   0  0  1  0  0  0  0  0  0  0  0  0
   11.0226  -13.7622    0.0000 O   0  0  0  0  0  0  0  0  0  0  0  0
   11.0228  -12.9372    0.0000 C   0  0  1  0  0  0  0  0  0  0  0  0
   12.4518  -12.9376    0.0000 O   0  0  0  0  0  0  0  0  0  0  0  0
   11.7374  -12.5249    0.0000 C   0  0  2  0  0  0  0  0  0  0  0  0
   12.4522  -11.2876    0.0000 O   0  0  0  0  0  0  0  0  0  0  0  0
   11.7376  -11.6999    0.0000 C   0  0  1  0  0  0  0  0  0  0  0  0
   11.0232  -11.2872    0.0000 C   0  0  2  0  0  0  0  0  0  0  0  0
   11.0234  -10.4622    0.0000 O   0  0  0  0  0  0  0  0  0  0  0  0
 59 60  1  1  0  0  0
 59 51  1  0  0  0  0
 50 49  1  0  0  0  0
 52 50  1  1  0  0  0
 52 51  1  0  0  0  0
 54 52  1  0  0  0  0
 54 53  1  6  0  0  0
 56 54  1  0  0  0  0
 56 55  1  1  0  0  0
 58 56  1  0  0  0  0
 58 57  1  6  0  0  0
 59 58  1  0  0  0  0
  1  2  1  0  0  0  0
  2  3  1  0  0  0  0
  1  4  1  0  0  0  0
  4  5  1  6  0  0  0
  4  6  1  1  0  0  0
  4  7  1  0  0  0  0
  7  8  1  6  0  0  0
  7  9  1  0  0  0  0
  9 10  1  0  0  0  0
 10 11  1  0  0  0  0
 11 12  1  1  0  0  0
 11 13  1  0  0  0  0
 13 14  1  6  0  0  0
 13 15  1  0  0  0  0
 15 16  1  0  0  0  0
 16 17  1  0  0  0  0
 17 18  1  1  0  0  0
 17 19  1  0  0  0  0
 19 20  1  0  0  0  0
 20 21  1  0  0  0  0
 21 22  1  0  0  0  0
 21 23  1  0  0  0  0
 21 24  1  0  0  0  0
 24 25  1  0  0  0  0
 25 26  1  1  0  0  0
 17 25  1  0  0  0  0
 25 27  1  0  0  0  0
 13 27  1  0  0  0  0
 27 28  2  0  0  0  0
 28 29  1  0  0  0  0
 29 30  1  0  0  0  0
 11 30  1  0  0  0  0
 30 31  1  0  0  0  0
  3 31  1  0  0  0  0
  7 31  1  0  0  0  0
 31 32  1  1  0  0  0
 18 33  2  0  0  0  0
 18 34  1  0  0  0  0
  5 35  1  0  0  0  0
  1 36  1  1  0  0  0
  2 37  1  6  0  0  0
 38 39  1  0  0  0  0
 39 40  1  6  0  0  0
 39 41  1  0  0  0  0
 41 42  1  1  0  0  0
 41 43  1  0  0  0  0
 43 44  1  6  0  0  0
 43 45  1  0  0  0  0
 45 46  1  0  0  0  0
 45 47  1  1  0  0  0
 47 60  1  0  0  0  0
 38 46  1  0  0  0  0
 30 48  1  6  0  0  0
 38 34  1  1  0  0  0
M  END
>  <cdx:fragmentId>
5

$$$$
