94558.cdx
  Mrv1902 05222410242D          

 34 37  0  0  0  0            999 V2000
    3.7931   -8.0437    0.0000 C   0  0  0  0  0  0  0  0  0  0  0  0
    3.7931   -8.8688    0.0000 C   0  0  0  0  0  0  0  0  0  0  0  0
    4.5075   -9.2813    0.0000 C   0  0  1  0  0  0  0  0  0  0  0  0
    5.2220   -8.8688    0.0000 C   0  0  2  0  0  0  0  0  0  0  0  0
    5.2220   -8.0437    0.0000 C   0  0  1  0  0  0  0  0  0  0  0  0
    4.5075   -7.6313    0.0000 C   0  0  0  0  0  0  0  0  0  0  0  0
    5.9365   -9.2813    0.0000 C   0  0  0  0  0  0  0  0  0  0  0  0
    6.6509   -8.8688    0.0000 C   0  0  0  0  0  0  0  0  0  0  0  0
    6.6509   -8.0437    0.0000 C   0  0  1  0  0  0  0  0  0  0  0  0
    5.9365   -7.6313    0.0000 C   0  0  1  0  0  0  0  0  0  0  0  0
    7.3654   -7.6313    0.0000 C   0  0  2  0  0  0  0  0  0  0  0  0
    7.3654   -6.8062    0.0000 C   0  0  1  0  0  0  0  0  0  0  0  0
    6.6509   -6.3937    0.0000 C   0  0  0  0  0  0  0  0  0  0  0  0
    5.9365   -6.8062    0.0000 C   0  0  0  0  0  0  0  0  0  0  0  0
    8.0799   -8.0437    0.0000 C   0  0  0  0  0  0  0  0  0  0  0  0
    8.7944   -7.6313    0.0000 C   0  0  0  0  0  0  0  0  0  0  0  0
    8.7944   -6.8062    0.0000 C   0  0  1  0  0  0  0  0  0  0  0  0
    8.0799   -6.3937    0.0000 C   0  0  0  0  0  0  0  0  0  0  0  0
    4.5075  -10.1063    0.0000 C   0  0  0  0  0  0  0  0  0  0  0  0
    5.2220   -9.6937    0.0000 C   0  0  0  0  0  0  0  0  0  0  0  0
    5.9365   -8.4563    0.0000 C   0  0  0  0  0  0  0  0  0  0  0  0
    7.3654   -8.4563    0.0000 C   0  0  0  0  0  0  0  0  0  0  0  0
    9.2069   -6.0918    0.0000 C   0  0  0  0  0  0  0  0  0  0  0  0
    5.2220   -7.2188    0.0000 H   0  0  0  0  0  0  0  0  0  0  0  0
    6.6509   -7.2188    0.0000 H   0  0  0  0  0  0  0  0  0  0  0  0
    7.3654   -5.9813    0.0000 C   0  0  0  0  0  0  0  0  0  0  0  0
    3.0786   -9.2813    0.0000 O   0  0  0  0  0  0  0  0  0  0  0  0
    9.5912   -7.0198    0.0000 C   0  0  0  0  0  0  0  0  0  0  0  0
    9.8048   -7.8167    0.0000 C   0  0  2  0  0  0  0  0  0  0  0  0
   10.6017   -8.0302    0.0000 C   0  0  0  0  0  0  0  0  0  0  0  0
   10.8152   -8.8271    0.0000 C   0  0  0  0  0  0  0  0  0  0  0  0
   11.1850   -7.4468    0.0000 C   0  0  0  0  0  0  0  0  0  0  0  0
    9.0079   -8.0302    0.0000 H   0  0  0  0  0  0  0  0  0  0  0  0
    9.5912   -8.6136    0.0000 O   0  0  0  0  0  0  0  0  0  0  0  0
  1  2  1  0  0  0  0
  2  3  1  0  0  0  0
  3  4  1  0  0  0  0
  4  5  1  0  0  0  0
  5  6  1  0  0  0  0
  6  1  1  0  0  0  0
  4  7  1  0  0  0  0
  7  8  1  0  0  0  0
  8  9  1  0  0  0  0
  9 10  1  0  0  0  0
 10  5  1  0  0  0  0
  9 11  1  0  0  0  0
 11 12  1  0  0  0  0
 12 13  1  0  0  0  0
 13 14  1  0  0  0  0
 14 10  1  0  0  0  0
 11 15  1  0  0  0  0
 15 16  1  0  0  0  0
 16 17  1  0  0  0  0
 17 18  1  0  0  0  0
 18 12  1  0  0  0  0
  3 19  1  1  0  0  0
  4 20  1  1  0  0  0
 10 21  1  1  0  0  0
 11 22  1  1  0  0  0
 17 23  1  1  0  0  0
  5 24  1  6  0  0  0
  9 25  1  6  0  0  0
 12 26  1  6  0  0  0
  2 27  2  0  0  0  0
 17 28  1  0  0  0  0
 28 29  1  0  0  0  0
 29 30  1  0  0  0  0
 30 31  1  0  0  0  0
 30 32  2  0  0  0  0
 29 33  1  1  0  0  0
 29 34  1  6  0  0  0
M  END
>  <cdx:fragmentId>
5

$$$$
