94554.cdx
  Mrv1902 05222410212D          

 14 15  0  0  0  0            999 V2000
    6.3057   -7.4144    0.0000 C   0  0  0  0  0  0  0  0  0  0  0  0
    7.0112   -7.8422    0.0000 C   0  0  0  0  0  0  0  0  0  0  0  0
    7.7344   -7.4451    0.0000 C   0  0  0  0  0  0  0  0  0  0  0  0
    7.7521   -6.6203    0.0000 C   0  0  0  0  0  0  0  0  0  0  0  0
    7.0466   -6.1925    0.0000 C   0  0  0  0  0  0  0  0  0  0  0  0
    6.3235   -6.5896    0.0000 C   0  0  0  0  0  0  0  0  0  0  0  0
    5.5445   -6.3179    0.0000 O   0  0  0  0  0  0  0  0  0  0  0  0
    5.0454   -6.9747    0.0000 C   0  0  0  0  0  0  0  0  0  0  0  0
    5.5158   -7.6524    0.0000 O   0  0  0  0  0  0  0  0  0  0  0  0
    6.9935   -8.6670    0.0000 O   0  0  0  0  0  0  0  0  0  0  0  0
    6.2703   -9.0640    0.0000 C   0  0  0  0  0  0  0  0  0  0  0  0
    8.4752   -6.2232    0.0000 C   0  0  0  0  0  0  0  0  0  0  0  0
    8.4930   -5.3984    0.0000 C   0  0  0  0  0  0  0  0  0  0  0  0
    9.1807   -6.6510    0.0000 O   0  0  0  0  0  0  0  0  0  0  0  0
  1  2  2  0  0  0  0
  2  3  1  0  0  0  0
  3  4  2  0  0  0  0
  4  5  1  0  0  0  0
  5  6  2  0  0  0  0
  6  1  1  0  0  0  0
  6  7  1  0  0  0  0
  7  8  1  0  0  0  0
  8  9  1  0  0  0  0
  9  1  1  0  0  0  0
  2 10  1  0  0  0  0
 10 11  1  0  0  0  0
  4 12  1  0  0  0  0
 12 13  1  0  0  0  0
 12 14  2  0  0  0  0
M  END
>  <cdx:fragmentId>
5

$$$$
