94557.cdx
  Mrv1902 05222410202D          

 30 33  0  0  0  0            999 V2000
    8.2674   -7.0210    0.0000 C   0  0  0  0  0  0  0  0  0  0  0  0
    8.2674   -7.8460    0.0000 C   0  0  0  0  0  0  0  0  0  0  0  0
    7.5529   -8.2585    0.0000 C   0  0  0  0  0  0  0  0  0  0  0  0
    7.5529   -9.0835    0.0000 O   0  0  0  0  0  0  0  0  0  0  0  0
    6.8384   -7.8460    0.0000 C   0  0  0  0  0  0  0  0  0  0  0  0
    6.1239   -8.2585    0.0000 C   0  0  0  0  0  0  0  0  0  0  0  0
    5.4095   -7.8460    0.0000 C   0  0  0  0  0  0  0  0  0  0  0  0
    5.4095   -7.0210    0.0000 C   0  0  0  0  0  0  0  0  0  0  0  0
    4.6950   -6.6085    0.0000 O   0  0  0  0  0  0  0  0  0  0  0  0
    6.1239   -6.6085    0.0000 C   0  0  0  0  0  0  0  0  0  0  0  0
    6.8384   -7.0210    0.0000 C   0  0  0  0  0  0  0  0  0  0  0  0
    7.5529   -6.6085    0.0000 O   0  0  0  0  0  0  0  0  0  0  0  0
    8.9818   -6.6085    0.0000 C   0  0  0  0  0  0  0  0  0  0  0  0
    8.9818   -5.7835    0.0000 C   0  0  0  0  0  0  0  0  0  0  0  0
    9.6963   -5.3710    0.0000 C   0  0  0  0  0  0  0  0  0  0  0  0
   10.4108   -5.7835    0.0000 C   0  0  0  0  0  0  0  0  0  0  0  0
   11.1252   -5.3710    0.0000 O   0  0  0  0  0  0  0  0  0  0  0  0
   10.4108   -6.6085    0.0000 C   0  0  0  0  0  0  0  0  0  0  0  0
    9.6963   -7.0210    0.0000 C   0  0  0  0  0  0  0  0  0  0  0  0
    6.1239   -9.0835    0.0000 O   0  0  0  0  0  0  0  0  0  0  0  0
    5.4095   -9.4960    0.0000 C   0  0  1  0  0  0  0  0  0  0  0  0
    5.4095  -10.3210    0.0000 C   0  0  2  0  0  0  0  0  0  0  0  0
    6.1239  -10.7335    0.0000 O   0  0  0  0  0  0  0  0  0  0  0  0
    4.6950  -10.7335    0.0000 C   0  0  2  0  0  0  0  0  0  0  0  0
    4.6950  -11.5585    0.0000 O   0  0  0  0  0  0  0  0  0  0  0  0
    3.9805  -10.3210    0.0000 C   0  0  1  0  0  0  0  0  0  0  0  0
    3.2661  -10.7335    0.0000 O   0  0  0  0  0  0  0  0  0  0  0  0
    3.9805   -9.4960    0.0000 C   0  0  1  0  0  0  0  0  0  0  0  0
    4.6950   -9.0835    0.0000 O   0  0  0  0  0  0  0  0  0  0  0  0
    3.2661   -9.0835    0.0000 C   0  0  0  0  0  0  0  0  0  0  0  0
  1  2  2  0  0  0  0
  2  3  1  0  0  0  0
  3  4  2  0  0  0  0
  3  5  1  0  0  0  0
  5  6  1  0  0  0  0
  6  7  2  0  0  0  0
  7  8  1  0  0  0  0
  8  9  1  0  0  0  0
  8 10  2  0  0  0  0
 10 11  1  0  0  0  0
  5 11  2  0  0  0  0
 11 12  1  0  0  0  0
  1 12  1  0  0  0  0
  1 13  1  0  0  0  0
 13 14  1  0  0  0  0
 14 15  2  0  0  0  0
 15 16  1  0  0  0  0
 16 17  1  0  0  0  0
 16 18  2  0  0  0  0
 18 19  1  0  0  0  0
 13 19  2  0  0  0  0
 21 20  1  1  0  0  0
 21 22  1  0  0  0  0
 22 23  1  6  0  0  0
 22 24  1  0  0  0  0
 24 25  1  6  0  0  0
 24 26  1  0  0  0  0
 26 27  1  1  0  0  0
 26 28  1  0  0  0  0
 28 29  1  0  0  0  0
 28 30  1  6  0  0  0
 21 29  1  0  0  0  0
  6 20  1  0  0  0  0
M  END
>  <cdx:fragmentId>
5

$$$$
