9455.cdx
  Mrv1902 05222410212D          

 41 45  0  0  0  0            999 V2000
    1.8802   -5.0944    0.0000 C   0  0  2  0  0  0  0  0  0  0  0  0
    1.8802   -5.9194    0.0000 C   0  0  2  0  0  0  0  0  0  0  0  0
    2.5946   -6.3319    0.0000 C   0  0  1  0  0  0  0  0  0  0  0  0
    3.3091   -5.9194    0.0000 C   0  0  2  0  0  0  0  0  0  0  0  0
    3.3091   -5.0944    0.0000 C   0  0  0  0  0  0  0  0  0  0  0  0
    2.5946   -4.6819    0.0000 O   0  0  0  0  0  0  0  0  0  0  0  0
    4.0236   -6.3319    0.0000 O   0  0  0  0  0  0  0  0  0  0  0  0
    4.7380   -5.9194    0.0000 C   0  0  0  0  0  0  0  0  0  0  0  0
    4.7380   -5.0944    0.0000 C   0  0  0  0  0  0  0  0  0  0  0  0
    4.0236   -4.6819    0.0000 O   0  0  0  0  0  0  0  0  0  0  0  0
    5.4525   -6.3319    0.0000 C   0  0  0  0  0  0  0  0  0  0  0  0
    6.1670   -5.9194    0.0000 C   0  0  0  0  0  0  0  0  0  0  0  0
    6.1670   -5.0944    0.0000 C   0  0  0  0  0  0  0  0  0  0  0  0
    5.4525   -4.6819    0.0000 C   0  0  0  0  0  0  0  0  0  0  0  0
    6.8815   -6.3319    0.0000 C   0  0  0  0  0  0  0  0  0  0  0  0
    7.5959   -5.9194    0.0000 C   0  0  0  0  0  0  0  0  0  0  0  0
    7.5959   -5.0944    0.0000 C   0  0  0  0  0  0  0  0  0  0  0  0
    6.8815   -4.6819    0.0000 O   0  0  0  0  0  0  0  0  0  0  0  0
    8.3104   -6.3319    0.0000 C   0  0  0  0  0  0  0  0  0  0  0  0
    9.0249   -5.9194    0.0000 C   0  0  0  0  0  0  0  0  0  0  0  0
    8.3104   -7.1569    0.0000 C   0  0  0  0  0  0  0  0  0  0  0  0
    9.0249   -7.5694    0.0000 C   0  0  0  0  0  0  0  0  0  0  0  0
    9.7393   -7.1569    0.0000 C   0  0  0  0  0  0  0  0  0  0  0  0
    9.7393   -6.3319    0.0000 C   0  0  0  0  0  0  0  0  0  0  0  0
   10.4538   -7.5694    0.0000 O   0  0  0  0  0  0  0  0  0  0  0  0
   11.1683   -7.1569    0.0000 C   0  0  0  0  0  0  0  0  0  0  0  0
   11.1683   -6.3319    0.0000 C   0  0  2  0  0  0  0  0  0  0  0  0
   10.4538   -5.9194    0.0000 O   0  0  0  0  0  0  0  0  0  0  0  0
   11.8827   -7.5694    0.0000 O   0  0  0  0  0  0  0  0  0  0  0  0
   12.5972   -7.1569    0.0000 C   0  0  1  0  0  0  0  0  0  0  0  0
   12.5972   -6.3319    0.0000 C   0  0  2  0  0  0  0  0  0  0  0  0
   11.8827   -5.9194    0.0000 C   0  0  2  0  0  0  0  0  0  0  0  0
    1.1657   -4.6819    0.0000 C   0  0  0  0  0  0  0  0  0  0  0  0
    0.4512   -5.0944    0.0000 O   0  0  0  0  0  0  0  0  0  0  0  0
    6.8815   -7.1569    0.0000 O   0  0  0  0  0  0  0  0  0  0  0  0
   13.3117   -7.5694    0.0000 C   0  0  0  0  0  0  0  0  0  0  0  0
   14.0262   -7.1569    0.0000 O   0  0  0  0  0  0  0  0  0  0  0  0
    1.1657   -6.3319    0.0000 O   0  0  0  0  0  0  0  0  0  0  0  0
   13.3117   -5.9194    0.0000 O   0  0  0  0  0  0  0  0  0  0  0  0
    2.5946   -7.1569    0.0000 O   0  0  0  0  0  0  0  0  0  0  0  0
   11.8827   -5.0944    0.0000 O   0  0  0  0  0  0  0  0  0  0  0  0
  1  2  1  0  0  0  0
  2  3  1  0  0  0  0
  3  4  1  0  0  0  0
  4  5  1  0  0  0  0
  5  6  1  0  0  0  0
  6  1  1  0  0  0  0
  4  7  1  6  0  0  0
  8  9  1  0  0  0  0
  9 10  1  0  0  0  0
 10  5  1  0  0  0  0
  8 11  2  0  0  0  0
 11 12  1  0  0  0  0
 12 13  2  0  0  0  0
 13 14  1  0  0  0  0
 14  9  2  0  0  0  0
 12 15  1  0  0  0  0
 15 16  1  0  0  0  0
 16 17  2  0  0  0  0
 17 18  1  0  0  0  0
 18 13  1  0  0  0  0
 16 19  1  0  0  0  0
 19 20  1  0  0  0  0
 19 21  2  0  0  0  0
 21 22  1  0  0  0  0
 22 23  2  0  0  0  0
 23 24  1  0  0  0  0
 24 20  2  0  0  0  0
 23 25  1  0  0  0  0
 25 26  1  0  0  0  0
 26 27  1  0  0  0  0
 27 28  1  6  0  0  0
 26 29  1  0  0  0  0
 29 30  1  0  0  0  0
 30 31  1  0  0  0  0
 31 32  1  0  0  0  0
 32 27  1  0  0  0  0
  1 33  1  1  0  0  0
 33 34  1  0  0  0  0
 15 35  2  0  0  0  0
 30 36  1  1  0  0  0
 36 37  1  0  0  0  0
  2 38  1  6  0  0  0
 31 39  1  6  0  0  0
  3 40  1  1  0  0  0
 32 41  1  1  0  0  0
M  END
>  <cdx:fragmentId>
5

$$$$
