94567.cdx
  Mrv1902 05222410252D          

 13 13  0  0  0  0            999 V2000
    5.0283   -6.0816    0.0000 C   0  0  0  0  0  0  0  0  0  0  0  0
    5.2889   -6.8644    0.0000 C   0  0  0  0  0  0  0  0  0  0  0  0
    6.1138   -6.8584    0.0000 C   0  0  0  0  0  0  0  0  0  0  0  0
    6.3631   -6.0720    0.0000 C   0  0  2  0  0  0  0  0  0  0  0  0
    5.6922   -5.5919    0.0000 N   0  0  0  0  0  0  0  0  0  0  0  0
    4.2418   -5.8323    0.0000 O   0  0  0  0  0  0  0  0  0  0  0  0
    7.1459   -5.8114    0.0000 C   0  0  0  0  0  0  0  0  0  0  0  0
    7.3116   -5.0032    0.0000 O   0  0  0  0  0  0  0  0  0  0  0  0
    7.7629   -6.3590    0.0000 O   0  0  0  0  0  0  0  0  0  0  0  0
    8.5457   -6.0984    0.0000 C   0  0  0  0  0  0  0  0  0  0  0  0
    9.1628   -6.6460    0.0000 C   0  0  0  0  0  0  0  0  0  0  0  0
    9.9455   -6.3854    0.0000 C   0  0  0  0  0  0  0  0  0  0  0  0
   10.5626   -6.9330    0.0000 C   0  0  0  0  0  0  0  0  0  0  0  0
  1  2  1  0  0  0  0
  2  3  1  0  0  0  0
  3  4  1  0  0  0  0
  4  5  1  0  0  0  0
  5  1  1  0  0  0  0
  1  6  2  0  0  0  0
  4  7  1  6  0  0  0
  7  8  2  0  0  0  0
  7  9  1  0  0  0  0
  9 10  1  0  0  0  0
 10 11  1  0  0  0  0
 11 12  1  0  0  0  0
 12 13  1  0  0  0  0
M  END
>  <cdx:fragmentId>
5

$$$$
