94564.cdx
  Mrv1902 05222410242D          

 31 34  0  0  0  0            999 V2000
    3.6831   -8.0300    0.0000 C   0  0  0  0  0  0  0  0  0  0  0  0
    3.6831   -8.8550    0.0000 C   0  0  0  0  0  0  0  0  0  0  0  0
    4.3975   -9.2675    0.0000 C   0  0  1  0  0  0  0  0  0  0  0  0
    5.1120   -8.8550    0.0000 C   0  0  2  0  0  0  0  0  0  0  0  0
    5.1120   -8.0300    0.0000 C   0  0  1  0  0  0  0  0  0  0  0  0
    4.3975   -7.6175    0.0000 C   0  0  0  0  0  0  0  0  0  0  0  0
    5.8265   -9.2675    0.0000 C   0  0  0  0  0  0  0  0  0  0  0  0
    6.5409   -8.8550    0.0000 C   0  0  0  0  0  0  0  0  0  0  0  0
    6.5409   -8.0300    0.0000 C   0  0  1  0  0  0  0  0  0  0  0  0
    5.8265   -7.6175    0.0000 C   0  0  1  0  0  0  0  0  0  0  0  0
    7.2554   -7.6175    0.0000 C   0  0  2  0  0  0  0  0  0  0  0  0
    7.2554   -6.7925    0.0000 C   0  0  1  0  0  0  0  0  0  0  0  0
    6.5409   -6.3800    0.0000 C   0  0  0  0  0  0  0  0  0  0  0  0
    5.8265   -6.7925    0.0000 C   0  0  0  0  0  0  0  0  0  0  0  0
    7.9699   -8.0300    0.0000 C   0  0  0  0  0  0  0  0  0  0  0  0
    8.6844   -7.6175    0.0000 C   0  0  0  0  0  0  0  0  0  0  0  0
    8.6844   -6.7925    0.0000 C   0  0  2  0  0  0  0  0  0  0  0  0
    7.9699   -6.3800    0.0000 C   0  0  0  0  0  0  0  0  0  0  0  0
    9.3988   -7.2050    0.0000 C   0  0  0  0  0  0  0  0  0  0  0  0
   10.1133   -6.7925    0.0000 C   0  0  0  0  0  0  0  0  0  0  0  0
    8.6844   -5.9675    0.0000 C   0  0  0  0  0  0  0  0  0  0  0  0
    2.9686   -9.2675    0.0000 O   0  0  0  0  0  0  0  0  0  0  0  0
    4.3975  -10.0925    0.0000 C   0  0  0  0  0  0  0  0  0  0  0  0
    5.1120   -9.6800    0.0000 C   0  0  0  0  0  0  0  0  0  0  0  0
    5.8265   -8.4425    0.0000 C   0  0  0  0  0  0  0  0  0  0  0  0
    7.2554   -8.4425    0.0000 C   0  0  0  0  0  0  0  0  0  0  0  0
    5.1120   -7.2050    0.0000 H   0  0  0  0  0  0  0  0  0  0  0  0
    6.5409   -7.2050    0.0000 H   0  0  0  0  0  0  0  0  0  0  0  0
    7.2554   -5.9675    0.0000 C   0  0  0  0  0  0  0  0  0  0  0  0
   10.8278   -7.2050    0.0000 C   0  0  0  0  0  0  0  0  0  0  0  0
   11.5422   -6.7925    0.0000 O   0  0  0  0  0  0  0  0  0  0  0  0
  1  2  1  0  0  0  0
  2  3  1  0  0  0  0
  3  4  1  0  0  0  0
  4  5  1  0  0  0  0
  5  6  1  0  0  0  0
  6  1  1  0  0  0  0
  4  7  1  0  0  0  0
  7  8  1  0  0  0  0
  8  9  1  0  0  0  0
  9 10  1  0  0  0  0
 10  5  1  0  0  0  0
  9 11  1  0  0  0  0
 11 12  1  0  0  0  0
 12 13  1  0  0  0  0
 13 14  1  0  0  0  0
 14 10  1  0  0  0  0
 11 15  1  0  0  0  0
 15 16  1  0  0  0  0
 16 17  1  0  0  0  0
 17 18  1  0  0  0  0
 18 12  1  0  0  0  0
 17 19  1  0  0  0  0
 19 20  2  0  0  0  0
 17 21  1  1  0  0  0
  2 22  2  0  0  0  0
  3 23  1  1  0  0  0
  4 24  1  1  0  0  0
 10 25  1  1  0  0  0
 11 26  1  1  0  0  0
  5 27  1  6  0  0  0
  9 28  1  6  0  0  0
 12 29  1  6  0  0  0
 20 30  1  0  0  0  0
 30 31  2  0  0  0  0
M  END
>  <cdx:fragmentId>
5

$$$$
