94560.cdx
  Mrv1902 05222410242D          

 60 66  0  0  0  0            999 V2000
    4.2853  -10.7350    0.0000 C   0  0  1  0  0  0  0  0  0  0  0  0
    4.2853   -9.9100    0.0000 C   0  0  2  0  0  0  0  0  0  0  0  0
    4.9998   -9.4975    0.0000 C   0  0  0  0  0  0  0  0  0  0  0  0
    4.9998  -11.1475    0.0000 C   0  0  2  0  0  0  0  0  0  0  0  0
    5.4123  -11.8619    0.0000 C   0  0  0  0  0  0  0  0  0  0  0  0
    4.5873  -11.8619    0.0000 C   0  0  0  0  0  0  0  0  0  0  0  0
    5.7143  -10.7350    0.0000 C   0  0  2  0  0  0  0  0  0  0  0  0
    5.7143  -11.5600    0.0000 H   0  0  0  0  0  0  0  0  0  0  0  0
    6.4287  -11.1475    0.0000 C   0  0  0  0  0  0  0  0  0  0  0  0
    7.1432  -10.7350    0.0000 C   0  0  0  0  0  0  0  0  0  0  0  0
    7.1432   -9.9100    0.0000 C   0  0  1  0  0  0  0  0  0  0  0  0
    7.1432   -9.0850    0.0000 C   0  0  0  0  0  0  0  0  0  0  0  0
    7.8577   -9.4975    0.0000 C   0  0  2  0  0  0  0  0  0  0  0  0
    7.8577  -10.3225    0.0000 C   0  0  0  0  0  0  0  0  0  0  0  0
    8.5721   -9.9100    0.0000 C   0  0  0  0  0  0  0  0  0  0  0  0
    9.2866   -9.4975    0.0000 C   0  0  0  0  0  0  0  0  0  0  0  0
    9.2866   -8.6725    0.0000 C   0  0  1  0  0  0  0  0  0  0  0  0
   10.0011   -9.0850    0.0000 C   0  0  0  0  0  0  0  0  0  0  0  0
   10.0011   -8.2600    0.0000 C   0  0  0  0  0  0  0  0  0  0  0  0
   10.0011   -7.4350    0.0000 C   0  0  0  0  0  0  0  0  0  0  0  0
    9.2866   -7.0225    0.0000 C   0  0  0  0  0  0  0  0  0  0  0  0
    8.8741   -6.3080    0.0000 C   0  0  0  0  0  0  0  0  0  0  0  0
    9.6991   -6.3080    0.0000 C   0  0  0  0  0  0  0  0  0  0  0  0
    8.5721   -7.4350    0.0000 C   0  0  0  0  0  0  0  0  0  0  0  0
    8.5721   -8.2600    0.0000 C   0  0  1  0  0  0  0  0  0  0  0  0
    8.5721   -9.0850    0.0000 H   0  0  0  0  0  0  0  0  0  0  0  0
    7.8577   -8.6725    0.0000 C   0  0  0  0  0  0  0  0  0  0  0  0
    7.1432   -8.2600    0.0000 C   0  0  0  0  0  0  0  0  0  0  0  0
    6.4287   -8.6725    0.0000 C   0  0  0  0  0  0  0  0  0  0  0  0
    6.4287   -9.4975    0.0000 C   0  0  2  0  0  0  0  0  0  0  0  0
    5.7143   -9.9100    0.0000 C   0  0  1  0  0  0  0  0  0  0  0  0
    5.7143   -9.0850    0.0000 C   0  0  0  0  0  0  0  0  0  0  0  0
   10.0011   -9.9100    0.0000 O   0  0  0  0  0  0  0  0  0  0  0  0
   10.7155   -8.6725    0.0000 O   0  0  0  0  0  0  0  0  0  0  0  0
    4.9998  -12.5764    0.0000 O   0  0  0  0  0  0  0  0  0  0  0  0
    3.5708  -11.1475    0.0000 O   0  0  0  0  0  0  0  0  0  0  0  0
    3.5708   -9.4975    0.0000 O   0  0  0  0  0  0  0  0  0  0  0  0
    2.8564  -10.7350    0.0000 C   0  0  1  0  0  0  0  0  0  0  0  0
    2.1419  -11.1475    0.0000 C   0  0  2  0  0  0  0  0  0  0  0  0
    2.1419  -11.9725    0.0000 O   0  0  0  0  0  0  0  0  0  0  0  0
    1.4274  -10.7350    0.0000 C   0  0  1  0  0  0  0  0  0  0  0  0
    0.7130  -11.1475    0.0000 O   0  0  0  0  0  0  0  0  0  0  0  0
    1.4274   -9.9100    0.0000 C   0  0  2  0  0  0  0  0  0  0  0  0
    0.7130   -9.4975    0.0000 O   0  0  0  0  0  0  0  0  0  0  0  0
    2.1419   -9.4975    0.0000 C   0  0  2  0  0  0  0  0  0  0  0  0
    2.8564   -9.9100    0.0000 O   0  0  0  0  0  0  0  0  0  0  0  0
    2.1419   -8.6725    0.0000 C   0  0  0  0  0  0  0  0  0  0  0  0
    1.4274   -8.2600    0.0000 O   0  0  0  0  0  0  0  0  0  0  0  0
   11.4360   -9.0876    0.0000 C   0  0  1  0  0  0  0  0  0  0  0  0
   12.1505   -8.6751    0.0000 C   0  0  2  0  0  0  0  0  0  0  0  0
   12.1505   -7.8501    0.0000 O   0  0  0  0  0  0  0  0  0  0  0  0
   12.8650   -9.0876    0.0000 C   0  0  1  0  0  0  0  0  0  0  0  0
   13.5795   -8.6751    0.0000 O   0  0  0  0  0  0  0  0  0  0  0  0
   12.8650   -9.9126    0.0000 C   0  0  2  0  0  0  0  0  0  0  0  0
   13.5794  -10.3251    0.0000 O   0  0  0  0  0  0  0  0  0  0  0  0
   12.1505  -10.3251    0.0000 C   0  0  2  0  0  0  0  0  0  0  0  0
   11.4360   -9.9126    0.0000 O   0  0  0  0  0  0  0  0  0  0  0  0
   12.1505  -11.1501    0.0000 C   0  0  0  0  0  0  0  0  0  0  0  0
   12.8649  -11.5626    0.0000 O   0  0  0  0  0  0  0  0  0  0  0  0
    6.4287  -10.3225    0.0000 H   0  0  0  0  0  0  0  0  0  0  0  0
  1  2  1  0  0  0  0
  2  3  1  0  0  0  0
  1  4  1  0  0  0  0
  4  5  1  6  0  0  0
  4  6  1  1  0  0  0
  4  7  1  0  0  0  0
  7  8  1  6  0  0  0
  7  9  1  0  0  0  0
  9 10  1  0  0  0  0
 10 11  1  0  0  0  0
 11 12  1  1  0  0  0
 11 13  1  0  0  0  0
 13 14  1  6  0  0  0
 13 15  1  0  0  0  0
 15 16  1  0  0  0  0
 16 17  1  0  0  0  0
 17 18  1  1  0  0  0
 17 19  1  0  0  0  0
 19 20  1  0  0  0  0
 20 21  1  0  0  0  0
 21 22  1  0  0  0  0
 21 23  1  0  0  0  0
 21 24  1  0  0  0  0
 24 25  1  0  0  0  0
 25 26  1  1  0  0  0
 17 25  1  0  0  0  0
 25 27  1  0  0  0  0
 13 27  1  0  0  0  0
 27 28  2  0  0  0  0
 28 29  1  0  0  0  0
 29 30  1  0  0  0  0
 11 30  1  0  0  0  0
 30 31  1  0  0  0  0
  3 31  1  0  0  0  0
  7 31  1  0  0  0  0
 31 32  1  1  0  0  0
 18 33  2  0  0  0  0
 18 34  1  0  0  0  0
  5 35  1  0  0  0  0
  1 36  1  1  0  0  0
  2 37  1  1  0  0  0
 38 39  1  0  0  0  0
 39 40  1  6  0  0  0
 39 41  1  0  0  0  0
 41 42  1  1  0  0  0
 41 43  1  0  0  0  0
 43 44  1  6  0  0  0
 43 45  1  0  0  0  0
 45 46  1  0  0  0  0
 45 47  1  1  0  0  0
 47 48  1  0  0  0  0
 38 46  1  0  0  0  0
 38 36  1  1  0  0  0
 49 50  1  0  0  0  0
 50 51  1  6  0  0  0
 50 52  1  0  0  0  0
 52 53  1  1  0  0  0
 52 54  1  0  0  0  0
 54 55  1  6  0  0  0
 54 56  1  0  0  0  0
 56 57  1  0  0  0  0
 56 58  1  1  0  0  0
 58 59  1  0  0  0  0
 49 57  1  0  0  0  0
 30 60  1  6  0  0  0
 49 34  1  1  0  0  0
M  END
>  <cdx:fragmentId>
5

$$$$
