94565.cdx
  Mrv1902 05222410252D          

 69 76  0  0  0  0            999 V2000
   10.8160  -11.7997    0.0000 C   0  0  1  0  0  0  0  0  0  0  0  0
   10.8160  -10.9750    0.0000 C   0  0  0  0  0  0  0  0  0  0  0  0
   11.5302  -10.5626    0.0000 C   0  0  0  0  0  0  0  0  0  0  0  0
   11.5302  -12.2121    0.0000 C   0  0  2  0  0  0  0  0  0  0  0  0
   11.9426  -12.9264    0.0000 C   0  0  0  0  0  0  0  0  0  0  0  0
   11.1179  -12.9264    0.0000 C   0  0  0  0  0  0  0  0  0  0  0  0
   12.2445  -11.7997    0.0000 C   0  0  2  0  0  0  0  0  0  0  0  0
   12.2445  -12.6245    0.0000 H   0  0  0  0  0  0  0  0  0  0  0  0
   12.9587  -12.2121    0.0000 C   0  0  0  0  0  0  0  0  0  0  0  0
   13.6730  -11.7997    0.0000 C   0  0  0  0  0  0  0  0  0  0  0  0
   13.6730  -10.9750    0.0000 C   0  0  1  0  0  0  0  0  0  0  0  0
   13.6730  -10.1503    0.0000 C   0  0  0  0  0  0  0  0  0  0  0  0
   14.3872  -10.5626    0.0000 C   0  0  2  0  0  0  0  0  0  0  0  0
   14.3872  -11.3874    0.0000 C   0  0  0  0  0  0  0  0  0  0  0  0
   15.1015  -10.9750    0.0000 C   0  0  0  0  0  0  0  0  0  0  0  0
   15.8157  -10.5626    0.0000 C   0  0  0  0  0  0  0  0  0  0  0  0
   15.8157   -9.7379    0.0000 C   0  0  2  0  0  0  0  0  0  0  0  0
   16.5691  -10.0733    0.0000 C   0  0  0  0  0  0  0  0  0  0  0  0
   15.1015   -9.3255    0.0000 C   0  0  2  0  0  0  0  0  0  0  0  0
   14.4794   -8.9664    0.0000 H   0  0  0  0  0  0  0  0  0  0  0  0
   14.3872   -9.7379    0.0000 C   0  0  0  0  0  0  0  0  0  0  0  0
   13.6730   -9.3255    0.0000 C   0  0  0  0  0  0  0  0  0  0  0  0
   12.9587   -9.7379    0.0000 C   0  0  0  0  0  0  0  0  0  0  0  0
   12.9587  -10.5626    0.0000 C   0  0  2  0  0  0  0  0  0  0  0  0
   12.2445  -10.9750    0.0000 C   0  0  1  0  0  0  0  0  0  0  0  0
   12.2445  -10.1503    0.0000 C   0  0  0  0  0  0  0  0  0  0  0  0
   16.5709  -10.8981    0.0000 O   0  0  0  0  0  0  0  0  0  0  0  0
   19.4192  -12.5505    0.0000 O   0  0  0  0  0  0  0  0  0  0  0  0
   19.3920  -13.3748    0.0000 C   0  0  1  0  0  0  0  0  0  0  0  0
   20.0923  -13.8104    0.0000 C   0  0  2  0  0  0  0  0  0  0  0  0
   20.8198  -13.4218    0.0000 O   0  0  0  0  0  0  0  0  0  0  0  0
   20.0652  -14.6347    0.0000 C   0  0  1  0  0  0  0  0  0  0  0  0
   20.7655  -15.0703    0.0000 O   0  0  0  0  0  0  0  0  0  0  0  0
   19.3378  -15.0234    0.0000 C   0  0  1  0  0  0  0  0  0  0  0  0
   18.6375  -14.5877    0.0000 C   0  0  2  0  0  0  0  0  0  0  0  0
   18.6646  -13.7635    0.0000 O   0  0  0  0  0  0  0  0  0  0  0  0
   17.9101  -14.9764    0.0000 C   0  0  0  0  0  0  0  0  0  0  0  0
   17.8830  -15.8007    0.0000 O   0  0  0  0  0  0  0  0  0  0  0  0
   12.9587  -11.3874    0.0000 H   0  0  0  0  0  0  0  0  0  0  0  0
   10.1017  -12.2121    0.0000 O   0  0  0  0  0  0  0  0  0  0  0  0
   19.2057  -18.7027    0.0000 C   0  0  0  0  0  0  0  0  0  0  0  0
   19.2582  -17.2752    0.0000 O   0  0  0  0  0  0  0  0  0  0  0  0
   19.6440  -18.0041    0.0000 C   0  0  2  0  0  0  0  0  0  0  0  0
   20.8541  -18.7633    0.0000 O   0  0  0  0  0  0  0  0  0  0  0  0
   20.4682  -18.0344    0.0000 C   0  0  2  0  0  0  0  0  0  0  0  0
   21.7307  -17.3661    0.0000 O   0  0  0  0  0  0  0  0  0  0  0  0
   20.9066  -17.3358    0.0000 C   0  0  1  0  0  0  0  0  0  0  0  0
   20.9591  -15.9083    0.0000 O   0  0  0  0  0  0  0  0  0  0  0  0
   20.5207  -16.6069    0.0000 C   0  0  1  0  0  0  0  0  0  0  0  0
   19.6965  -16.5766    0.0000 C   0  0  2  0  0  0  0  0  0  0  0  0
   19.3107  -15.8477    0.0000 O   0  0  0  0  0  0  0  0  0  0  0  0
   18.7058  -12.1366    0.0000 C   0  0  0  0  0  0  0  0  0  0  0  0
   17.9941  -10.8980    0.0000 O   0  0  0  0  0  0  0  0  0  0  0  0
   18.7075  -11.3119    0.0000 C   0  0  1  0  0  0  0  0  0  0  0  0
   20.1360  -11.3149    0.0000 O   0  0  0  0  0  0  0  0  0  0  0  0
   19.4226  -10.9010    0.0000 C   0  0  1  0  0  0  0  0  0  0  0  0
   20.1395   -9.6654    0.0000 O   0  0  0  0  0  0  0  0  0  0  0  0
   19.4244  -10.0763    0.0000 C   0  0  2  0  0  0  0  0  0  0  0  0
   18.7127   -8.8377    0.0000 O   0  0  0  0  0  0  0  0  0  0  0  0
   18.7110   -9.6624    0.0000 C   0  0  1  0  0  0  0  0  0  0  0  0
   17.9959  -10.0733    0.0000 C   0  0  2  0  0  0  0  0  0  0  0  0
   17.2825   -9.6594    0.0000 O   0  0  0  0  0  0  0  0  0  0  0  0
   16.5299   -9.3255    0.0000 C   0  0  0  0  0  0  0  0  0  0  0  0
   16.5299   -8.5008    0.0000 C   0  0  0  0  0  0  0  0  0  0  0  0
   15.8157   -8.0884    0.0000 C   0  0  0  0  0  0  0  0  0  0  0  0
   15.1015   -8.5008    0.0000 C   0  0  0  0  0  0  0  0  0  0  0  0
   15.4197   -7.4026    0.0000 C   0  0  0  0  0  0  0  0  0  0  0  0
   16.1866   -7.4461    0.0000 C   0  0  0  0  0  0  0  0  0  0  0  0
   11.5302  -13.6406    0.0000 O   0  0  0  0  0  0  0  0  0  0  0  0
 61 62  1  1  0  0  0
 50 51  1  1  0  0  0
 50 42  1  0  0  0  0
 43 41  1  6  0  0  0
 43 42  1  0  0  0  0
 45 43  1  0  0  0  0
 45 44  1  1  0  0  0
 47 45  1  0  0  0  0
 47 46  1  6  0  0  0
 49 47  1  0  0  0  0
 49 48  1  6  0  0  0
 50 49  1  0  0  0  0
 29 30  1  0  0  0  0
 61 53  1  0  0  0  0
 52 28  1  0  0  0  0
 54 52  1  1  0  0  0
 54 53  1  0  0  0  0
 56 54  1  0  0  0  0
 56 55  1  6  0  0  0
 58 56  1  0  0  0  0
 58 57  1  1  0  0  0
 60 58  1  0  0  0  0
  1  2  1  0  0  0  0
  2  3  1  0  0  0  0
  1  4  1  0  0  0  0
  4  5  1  6  0  0  0
  4  6  1  1  0  0  0
  4  7  1  0  0  0  0
  7  8  1  6  0  0  0
  7  9  1  0  0  0  0
  9 10  1  0  0  0  0
 10 11  1  0  0  0  0
 11 12  1  1  0  0  0
 11 13  1  0  0  0  0
 13 14  1  6  0  0  0
 13 15  1  0  0  0  0
 15 16  1  0  0  0  0
 16 17  1  0  0  0  0
 17 18  1  1  0  0  0
 19 20  1  1  0  0  0
 17 19  1  0  0  0  0
 19 21  1  0  0  0  0
 13 21  1  0  0  0  0
 21 22  2  0  0  0  0
 22 23  1  0  0  0  0
 23 24  1  0  0  0  0
 11 24  1  0  0  0  0
 24 25  1  0  0  0  0
  3 25  1  0  0  0  0
  7 25  1  0  0  0  0
 25 26  1  1  0  0  0
 18 27  2  0  0  0  0
 18 62  1  0  0  0  0
  1 40  1  1  0  0  0
 60 59  1  6  0  0  0
 61 60  1  0  0  0  0
 30 31  1  6  0  0  0
 30 32  1  0  0  0  0
 32 33  1  1  0  0  0
 32 34  1  0  0  0  0
 34 51  1  6  0  0  0
 34 35  1  0  0  0  0
 35 36  1  0  0  0  0
 35 37  1  1  0  0  0
 37 38  1  0  0  0  0
 29 36  1  0  0  0  0
 29 28  1  1  0  0  0
 24 39  1  6  0  0  0
 17 63  1  0  0  0  0
 63 64  1  0  0  0  0
 64 65  1  0  0  0  0
 65 66  1  0  0  0  0
 66 19  1  0  0  0  0
 65 67  1  0  0  0  0
 65 68  1  0  0  0  0
  5 69  1  0  0  0  0
M  END
>  <cdx:groupId>
346

>  <cdx:fragmentId>
95

$$$$
