94568.cdx
  Mrv1902 05222410212D          

 52 57  0  0  0  0            999 V2000
    2.9215   -9.3654    0.0000 O   0  0  0  0  0  0  0  0  0  0  0  0
    1.4926   -8.5404    0.0000 O   0  0  0  0  0  0  0  0  0  0  0  0
    0.7781   -7.3029    0.0000 O   0  0  0  0  0  0  0  0  0  0  0  0
    1.4926   -6.8904    0.0000 C   0  0  0  0  0  0  0  0  0  0  0  0
    3.1359   -9.7366    0.0000 O   0  0  0  0  0  0  0  0  0  0  0  0
    3.1359  -11.3866    0.0000 O   0  0  0  0  0  0  0  0  0  0  0  0
    4.5648  -12.2116    0.0000 O   0  0  0  0  0  0  0  0  0  0  0  0
    5.9937  -11.3866    0.0000 C   0  0  0  0  0  0  0  0  0  0  0  0
    5.2793  -10.9741    0.0000 C   0  0  1  0  0  0  0  0  0  0  0  0
    4.5648  -11.3866    0.0000 C   0  0  1  0  0  0  0  0  0  0  0  0
    3.8503  -10.9741    0.0000 C   0  0  2  0  0  0  0  0  0  0  0  0
    3.8503  -10.1491    0.0000 C   0  0  2  0  0  0  0  0  0  0  0  0
    4.5648   -9.7366    0.0000 C   0  0  1  0  0  0  0  0  0  0  0  0
    5.2793  -10.1491    0.0000 O   0  0  0  0  0  0  0  0  0  0  0  0
    4.5648   -8.6641    0.0000 O   0  0  0  0  0  0  0  0  0  0  0  0
    2.2070   -7.3029    0.0000 C   0  0  2  0  0  0  0  0  0  0  0  0
    2.2070   -8.1279    0.0000 C   0  0  2  0  0  0  0  0  0  0  0  0
    2.9215   -8.5404    0.0000 C   0  0  1  0  0  0  0  0  0  0  0  0
    3.6360   -8.1279    0.0000 C   0  0  2  0  0  0  0  0  0  0  0  0
    3.6360   -7.3029    0.0000 C   0  0  1  0  0  0  0  0  0  0  0  0
    2.9215   -6.8904    0.0000 O   0  0  0  0  0  0  0  0  0  0  0  0
    4.3505   -6.8904    0.0000 O   0  0  0  0  0  0  0  0  0  0  0  0
    5.7794   -9.3654    0.0000 O   0  0  0  0  0  0  0  0  0  0  0  0
   10.7807   -5.6529    0.0000 O   0  0  0  0  0  0  0  0  0  0  0  0
    8.6373   -6.0654    0.0000 C   0  0  0  0  0  0  0  0  0  0  0  0
    9.3518   -5.6529    0.0000 C   0  0  0  0  0  0  0  0  0  0  0  0
   10.0662   -6.0654    0.0000 C   0  0  0  0  0  0  0  0  0  0  0  0
   10.0662   -6.8904    0.0000 C   0  0  0  0  0  0  0  0  0  0  0  0
    9.3518   -7.3029    0.0000 C   0  0  0  0  0  0  0  0  0  0  0  0
    8.6373   -6.8904    0.0000 C   0  0  0  0  0  0  0  0  0  0  0  0
    7.2083   -9.3654    0.0000 O   0  0  0  0  0  0  0  0  0  0  0  0
    7.2083   -6.8904    0.0000 O   0  0  0  0  0  0  0  0  0  0  0  0
    6.4939   -7.3029    0.0000 C   0  0  0  0  0  0  0  0  0  0  0  0
    5.7794   -6.8904    0.0000 C   0  0  0  0  0  0  0  0  0  0  0  0
    5.0649   -7.3029    0.0000 C   0  0  0  0  0  0  0  0  0  0  0  0
    5.0649   -8.1279    0.0000 C   0  0  0  0  0  0  0  0  0  0  0  0
    5.7794   -8.5404    0.0000 C   0  0  0  0  0  0  0  0  0  0  0  0
    6.4939   -8.1279    0.0000 C   0  0  0  0  0  0  0  0  0  0  0  0
    7.2083   -8.5404    0.0000 C   0  0  0  0  0  0  0  0  0  0  0  0
    7.9228   -8.1279    0.0000 C   0  0  0  0  0  0  0  0  0  0  0  0
    7.9228   -7.3029    0.0000 C   0  0  1  0  0  0  0  0  0  0  0  0
   12.2034   -7.2966    0.0000 C   0  0  2  0  0  0  0  0  0  0  0  0
   12.9169   -6.8825    0.0000 C   0  0  2  0  0  0  0  0  0  0  0  0
   12.9151   -6.0575    0.0000 C   0  0  1  0  0  0  0  0  0  0  0  0
   12.1996   -5.6466    0.0000 C   0  0  2  0  0  0  0  0  0  0  0  0
   11.4861   -6.0608    0.0000 C   0  0  1  0  0  0  0  0  0  0  0  0
   11.4880   -6.8857    0.0000 O   0  0  0  0  0  0  0  0  0  0  0  0
   12.2053   -8.1216    0.0000 C   0  0  0  0  0  0  0  0  0  0  0  0
   13.6286   -5.6433    0.0000 O   0  0  0  0  0  0  0  0  0  0  0  0
   12.1978   -4.8216    0.0000 O   0  0  0  0  0  0  0  0  0  0  0  0
   13.6324   -7.2933    0.0000 O   0  0  0  0  0  0  0  0  0  0  0  0
   12.9207   -8.5325    0.0000 O   0  0  0  0  0  0  0  0  0  0  0  0
 35 22  1  0  0  0  0
 20 22  1  1  0  0  0
 18  1  1  1  0  0  0
 17  2  1  6  0  0  0
 16  4  1  1  0  0  0
  4  3  1  0  0  0  0
 19 15  1  6  0  0  0
 13 15  1  6  0  0  0
 12  5  1  1  0  0  0
 11  6  1  1  0  0  0
 10  7  1  6  0  0  0
  9  8  1  1  0  0  0
 14  9  1  0  0  0  0
 10  9  1  0  0  0  0
 11 10  1  0  0  0  0
 12 11  1  0  0  0  0
 13 12  1  0  0  0  0
 14 13  1  0  0  0  0
 21 16  1  0  0  0  0
 17 16  1  0  0  0  0
 18 17  1  0  0  0  0
 19 18  1  0  0  0  0
 20 19  1  0  0  0  0
 21 20  1  0  0  0  0
 37 23  1  0  0  0  0
 41 30  1  6  0  0  0
 27 24  1  0  0  0  0
 30 25  2  0  0  0  0
 26 25  1  0  0  0  0
 27 26  2  0  0  0  0
 28 27  1  0  0  0  0
 29 28  2  0  0  0  0
 30 29  1  0  0  0  0
 39 31  2  0  0  0  0
 41 32  1  0  0  0  0
 33 32  1  0  0  0  0
 38 33  2  0  0  0  0
 34 33  1  0  0  0  0
 35 34  2  0  0  0  0
 36 35  1  0  0  0  0
 37 36  2  0  0  0  0
 38 37  1  0  0  0  0
 39 38  1  0  0  0  0
 40 39  1  0  0  0  0
 41 40  1  0  0  0  0
 42 43  1  0  0  0  0
 43 44  1  0  0  0  0
 44 45  1  0  0  0  0
 45 46  1  0  0  0  0
 46 47  1  0  0  0  0
 47 42  1  0  0  0  0
 42 48  1  1  0  0  0
 44 49  1  1  0  0  0
 45 50  1  6  0  0  0
 43 51  1  6  0  0  0
 48 52  1  0  0  0  0
 46 24  1  1  0  0  0
M  END
>  <cdx:groupId>
129

>  <cdx:fragmentId>
59

$$$$
