94570.cdx
  Mrv1902 05222410242D          

 44 48  0  0  0  0            999 V2000
    7.5478   -7.8464    0.0000 H   0  0  0  0  0  0  0  0  0  0  0  0
    5.4149   -9.1017    0.0000 H   0  0  0  0  0  0  0  0  0  0  0  0
    7.5409   -7.0214    0.0000 O   0  0  0  0  0  0  0  0  0  0  0  0
    6.8299   -7.4399    0.0000 C   0  0  2  0  0  0  0  0  0  0  0  0
    6.1121   -7.0333    0.0000 C   0  0  1  0  0  0  0  0  0  0  0  0
    6.1052   -6.2084    0.0000 C   0  0  2  0  0  0  0  0  0  0  0  0
    6.8161   -5.7899    0.0000 C   0  0  1  0  0  0  0  0  0  0  0  0
    7.5340   -6.1964    0.0000 C   0  0  1  0  0  0  0  0  0  0  0  0
    8.2450   -5.7780    0.0000 C   0  0  0  0  0  0  0  0  0  0  0  0
    8.2381   -4.9530    0.0000 O   0  0  0  0  0  0  0  0  0  0  0  0
    6.8092   -4.9649    0.0000 O   0  0  0  0  0  0  0  0  0  0  0  0
    5.3873   -5.8019    0.0000 O   0  0  0  0  0  0  0  0  0  0  0  0
    5.4011   -7.4518    0.0000 O   0  0  0  0  0  0  0  0  0  0  0  0
    6.8576  -10.7397    0.0000 O   0  0  0  0  0  0  0  0  0  0  0  0
    5.4080   -8.2768    0.0000 O   0  0  0  0  0  0  0  0  0  0  0  0
   11.8276   -6.9855    0.0000 O   0  0  0  0  0  0  0  0  0  0  0  0
    9.6877   -7.4160    0.0000 C   0  0  0  0  0  0  0  0  0  0  0  0
   10.3987   -6.9975    0.0000 C   0  0  0  0  0  0  0  0  0  0  0  0
   11.1166   -7.4040    0.0000 C   0  0  0  0  0  0  0  0  0  0  0  0
   11.1235   -8.2290    0.0000 C   0  0  0  0  0  0  0  0  0  0  0  0
   10.4125   -8.6474    0.0000 C   0  0  0  0  0  0  0  0  0  0  0  0
    9.6946   -8.2409    0.0000 C   0  0  0  0  0  0  0  0  0  0  0  0
    6.1466  -11.1582    0.0000 O   0  0  0  0  0  0  0  0  0  0  0  0
    4.7246  -11.9951    0.0000 O   0  0  0  0  0  0  0  0  0  0  0  0
    3.2888  -11.1821    0.0000 O   0  0  0  0  0  0  0  0  0  0  0  0
    2.5640   -9.9506    0.0000 O   0  0  0  0  0  0  0  0  0  0  0  0
    3.2750   -9.5322    0.0000 C   0  0  0  0  0  0  0  0  0  0  0  0
    3.9929   -9.9387    0.0000 C   0  0  2  0  0  0  0  0  0  0  0  0
    3.9998  -10.7636    0.0000 C   0  0  2  0  0  0  0  0  0  0  0  0
    4.7177  -11.1702    0.0000 C   0  0  1  0  0  0  0  0  0  0  0  0
    5.4287  -10.7517    0.0000 C   0  0  2  0  0  0  0  0  0  0  0  0
    5.4218   -9.9267    0.0000 C   0  0  1  0  0  0  0  0  0  0  0  0
    4.7039   -9.5202    0.0000 O   0  0  0  0  0  0  0  0  0  0  0  0
    8.2864  -10.7278    0.0000 O   0  0  0  0  0  0  0  0  0  0  0  0
    8.2657   -8.2529    0.0000 O   0  0  0  0  0  0  0  0  0  0  0  0
    7.5547   -8.6713    0.0000 C   0  0  0  0  0  0  0  0  0  0  0  0
    6.8369   -8.2648    0.0000 C   0  0  0  0  0  0  0  0  0  0  0  0
    6.1259   -8.6833    0.0000 C   0  0  0  0  0  0  0  0  0  0  0  0
    6.1328   -9.5083    0.0000 C   0  0  0  0  0  0  0  0  0  0  0  0
    6.8507   -9.9148    0.0000 C   0  0  0  0  0  0  0  0  0  0  0  0
    7.5616   -9.4963    0.0000 C   0  0  0  0  0  0  0  0  0  0  0  0
    8.2795   -9.9028    0.0000 C   0  0  0  0  0  0  0  0  0  0  0  0
    8.9905   -9.4844    0.0000 C   0  0  0  0  0  0  0  0  0  0  0  0
    8.9836   -8.6594    0.0000 C   0  0  0  0  0  0  0  0  0  0  0  0
  4  1  1  6  0  0  0
 32  2  1  6  0  0  0
 40 14  1  0  0  0  0
 38 15  1  0  0  0  0
 44 22  1  0  0  0  0
 19 16  1  0  0  0  0
 22 17  2  0  0  0  0
 18 17  1  0  0  0  0
 19 18  2  0  0  0  0
 20 19  1  0  0  0  0
 21 20  2  0  0  0  0
 22 21  1  0  0  0  0
 32 39  1  0  0  0  0
 31 23  1  6  0  0  0
 30 24  1  1  0  0  0
 29 25  1  6  0  0  0
 28 27  1  1  0  0  0
 27 26  1  0  0  0  0
 33 28  1  0  0  0  0
 29 28  1  0  0  0  0
 30 29  1  0  0  0  0
 31 30  1  0  0  0  0
 32 31  1  0  0  0  0
 33 32  1  0  0  0  0
  4 37  1  0  0  0  0
 42 34  2  0  0  0  0
 44 35  1  0  0  0  0
 36 35  1  0  0  0  0
 41 36  2  0  0  0  0
 37 36  1  0  0  0  0
 38 37  2  0  0  0  0
 39 38  1  0  0  0  0
 40 39  2  0  0  0  0
 41 40  1  0  0  0  0
 42 41  1  0  0  0  0
 43 42  1  0  0  0  0
 44 43  2  0  0  0  0
  3  4  1  0  0  0  0
  4  5  1  0  0  0  0
  5  6  1  0  0  0  0
  6  7  1  0  0  0  0
  7  8  1  0  0  0  0
  3  8  1  0  0  0  0
  9 10  1  0  0  0  0
  8  9  1  1  0  0  0
  7 11  1  6  0  0  0
  6 12  1  1  0  0  0
  5 13  1  6  0  0  0
M  END
>  <cdx:fragmentId>
170

$$$$
