94576.cdx
  Mrv1902 05222410232D          

154167  0  0  0  0            999 V2000
   13.6697   -7.2355    0.0000 C   0  0  0  0  0  0  0  0  0  0  0  0
   14.3842   -6.8230    0.0000 C   0  0  0  0  0  0  0  0  0  0  0  0
   15.0987   -7.2355    0.0000 C   0  0  2  0  0  0  0  0  0  0  0  0
   15.0987   -8.0605    0.0000 C   0  0  0  0  0  0  0  0  0  0  0  0
   14.3842   -8.4730    0.0000 C   0  0  2  0  0  0  0  0  0  0  0  0
   14.3842   -9.2980    0.0000 C   0  0  1  0  0  0  0  0  0  0  0  0
   13.6697   -9.7105    0.0000 C   0  0  0  0  0  0  0  0  0  0  0  0
   12.9552   -9.2980    0.0000 C   0  0  1  0  0  0  0  0  0  0  0  0
   12.2408   -9.7105    0.0000 C   0  0  2  0  0  0  0  0  0  0  0  0
   12.2408  -10.5355    0.0000 C   0  0  0  0  0  0  0  0  0  0  0  0
   11.5263  -10.9480    0.0000 C   0  0  0  0  0  0  0  0  0  0  0  0
   10.8118  -10.5355    0.0000 C   0  0  1  0  0  0  0  0  0  0  0  0
   10.0974  -10.9480    0.0000 C   0  0  0  0  0  0  0  0  0  0  0  0
    9.3829  -10.5355    0.0000 C   0  0  2  0  0  0  0  0  0  0  0  0
    9.3829   -9.7105    0.0000 C   0  0  0  0  0  0  0  0  0  0  0  0
   10.0974   -9.2980    0.0000 C   0  0  0  0  0  0  0  0  0  0  0  0
   10.8118   -9.7105    0.0000 C   0  0  2  0  0  0  0  0  0  0  0  0
   11.5263   -9.2980    0.0000 C   0  0  1  0  0  0  0  0  0  0  0  0
   11.5263   -8.4730    0.0000 C   0  0  0  0  0  0  0  0  0  0  0  0
   12.2408   -8.0605    0.0000 C   0  0  0  0  0  0  0  0  0  0  0  0
   12.9552   -8.4730    0.0000 C   0  0  0  0  0  0  0  0  0  0  0  0
   13.6697   -8.0605    0.0000 C   0  0  2  0  0  0  0  0  0  0  0  0
   15.0987   -8.8855    0.0000 C   0  0  0  0  0  0  0  0  0  0  0  0
   15.0987   -9.7105    0.0000 O   0  0  0  0  0  0  0  0  0  0  0  0
   15.8131   -8.4730    0.0000 O   0  0  0  0  0  0  0  0  0  0  0  0
   10.5099  -11.6625    0.0000 C   0  0  0  0  0  0  0  0  0  0  0  0
    9.6849  -11.6625    0.0000 C   0  0  0  0  0  0  0  0  0  0  0  0
   13.9717   -6.1085    0.0000 C   0  0  0  0  0  0  0  0  0  0  0  0
   14.7967   -6.1085    0.0000 C   0  0  0  0  0  0  0  0  0  0  0  0
   15.8131   -6.8230    0.0000 O   0  0  0  0  0  0  0  0  0  0  0  0
   16.5276   -7.2355    0.0000 C   0  0  0  0  0  0  0  0  0  0  0  0
   17.2421   -6.8230    0.0000 C   0  0  0  0  0  0  0  0  0  0  0  0
   17.9565   -7.2355    0.0000 C   0  0  0  0  0  0  0  0  0  0  0  0
   18.6710   -6.8230    0.0000 C   0  0  0  0  0  0  0  0  0  0  0  0
   19.3855   -7.2355    0.0000 C   0  0  0  0  0  0  0  0  0  0  0  0
   20.1000   -6.8230    0.0000 C   0  0  1  0  0  0  0  0  0  0  0  0
   20.1000   -5.9980    0.0000 C   0  0  0  0  0  0  0  0  0  0  0  0
   19.3855   -5.5855    0.0000 C   0  0  0  0  0  0  0  0  0  0  0  0
   16.5276   -8.0605    0.0000 O   0  0  0  0  0  0  0  0  0  0  0  0
   20.8144   -7.2355    0.0000 O   0  0  0  0  0  0  0  0  0  0  0  0
   21.4954   -5.9792    0.0000 O   0  0  0  0  0  0  0  0  0  0  0  0
   21.5175   -6.8039    0.0000 C   0  0  2  0  0  0  0  0  0  0  0  0
   22.2429   -7.1971    0.0000 C   0  0  1  0  0  0  0  0  0  0  0  0
   22.9460   -6.7655    0.0000 C   0  0  2  0  0  0  0  0  0  0  0  0
   22.9238   -5.9408    0.0000 C   0  0  1  0  0  0  0  0  0  0  0  0
   22.1985   -5.5477    0.0000 C   0  0  1  0  0  0  0  0  0  0  0  0
   22.1763   -4.7230    0.0000 C   0  0  0  0  0  0  0  0  0  0  0  0
   22.2632   -8.0169    0.0000 O   0  0  0  0  0  0  0  0  0  0  0  0
   20.1000   -7.6480    0.0000 C   0  0  0  0  0  0  0  0  0  0  0  0
   17.2421   -5.9980    0.0000 C   0  0  0  0  0  0  0  0  0  0  0  0
    8.6684  -10.9480    0.0000 O   0  0  0  0  0  0  0  0  0  0  0  0
    7.2395  -10.9480    0.0000 O   0  0  0  0  0  0  0  0  0  0  0  0
    7.9540  -10.5355    0.0000 C   0  0  2  0  0  0  0  0  0  0  0  0
    7.9540   -9.7105    0.0000 C   0  0  1  0  0  0  0  0  0  0  0  0
    7.2395   -9.2980    0.0000 C   0  0  2  0  0  0  0  0  0  0  0  0
    6.5250   -9.7105    0.0000 C   0  0  1  0  0  0  0  0  0  0  0  0
    6.5250  -10.5355    0.0000 C   0  0  1  0  0  0  0  0  0  0  0  0
    5.8105   -9.2980    0.0000 O   0  0  0  0  0  0  0  0  0  0  0  0
    7.2395   -8.4730    0.0000 O   0  0  0  0  0  0  0  0  0  0  0  0
    8.6684   -9.2980    0.0000 O   0  0  0  0  0  0  0  0  0  0  0  0
    5.8105  -10.9480    0.0000 C   0  0  0  0  0  0  0  0  0  0  0  0
    5.0961  -10.5355    0.0000 O   0  0  0  0  0  0  0  0  0  0  0  0
    3.6671  -10.5355    0.0000 O   0  0  0  0  0  0  0  0  0  0  0  0
    4.3816  -10.9480    0.0000 C   0  0  2  0  0  0  0  0  0  0  0  0
    4.3816  -11.7730    0.0000 C   0  0  1  0  0  0  0  0  0  0  0  0
    3.6671  -12.1855    0.0000 C   0  0  2  0  0  0  0  0  0  0  0  0
    2.9527  -11.7730    0.0000 C   0  0  2  0  0  0  0  0  0  0  0  0
    2.9527  -10.9480    0.0000 C   0  0  1  0  0  0  0  0  0  0  0  0
    5.0961  -12.1855    0.0000 O   0  0  0  0  0  0  0  0  0  0  0  0
    4.3816  -13.4230    0.0000 O   0  0  0  0  0  0  0  0  0  0  0  0
    5.0961  -13.0105    0.0000 C   0  0  2  0  0  0  0  0  0  0  0  0
    5.8105  -13.4230    0.0000 C   0  0  1  0  0  0  0  0  0  0  0  0
    5.8105  -14.2480    0.0000 C   0  0  2  0  0  0  0  0  0  0  0  0
    5.0961  -14.6605    0.0000 C   0  0  1  0  0  0  0  0  0  0  0  0
    4.3816  -14.2480    0.0000 C   0  0  0  0  0  0  0  0  0  0  0  0
    5.0961  -15.4855    0.0000 O   0  0  0  0  0  0  0  0  0  0  0  0
    6.5250  -14.6605    0.0000 O   0  0  0  0  0  0  0  0  0  0  0  0
    6.5250  -13.0105    0.0000 O   0  0  0  0  0  0  0  0  0  0  0  0
    2.2382  -12.1855    0.0000 O   0  0  0  0  0  0  0  0  0  0  0  0
    3.6671  -13.0105    0.0000 O   0  0  0  0  0  0  0  0  0  0  0  0
   10.8118  -11.3605    0.0000 H   0  0  0  0  0  0  0  0  0  0  0  0
   13.6697   -8.8855    0.0000 H   0  0  0  0  0  0  0  0  0  0  0  0
   17.2421   -8.4730    0.0000 O   0  0  0  0  0  0  0  0  0  0  0  0
   16.5276   -8.8855    0.0000 C   0  0  2  0  0  0  0  0  0  0  0  0
   16.5276   -9.7105    0.0000 C   0  0  1  0  0  0  0  0  0  0  0  0
   17.2421  -10.1230    0.0000 C   0  0  2  0  0  0  0  0  0  0  0  0
   17.9565   -9.7105    0.0000 C   0  0  1  0  0  0  0  0  0  0  0  0
   17.9565   -8.8855    0.0000 C   0  0  1  0  0  0  0  0  0  0  0  0
   18.6710   -8.4730    0.0000 C   0  0  0  0  0  0  0  0  0  0  0  0
   19.3855   -8.8855    0.0000 O   0  0  0  0  0  0  0  0  0  0  0  0
   18.6710  -10.1230    0.0000 O   0  0  0  0  0  0  0  0  0  0  0  0
   17.2421  -10.9480    0.0000 O   0  0  0  0  0  0  0  0  0  0  0  0
   14.6088  -10.8903    0.0000 O   0  0  0  0  0  0  0  0  0  0  0  0
   15.4333  -10.8608    0.0000 C   0  0  2  0  0  0  0  0  0  0  0  0
   15.8710  -11.5601    0.0000 C   0  0  1  0  0  0  0  0  0  0  0  0
   15.4842  -12.2889    0.0000 C   0  0  1  0  0  0  0  0  0  0  0  0
   14.6598  -12.3183    0.0000 C   0  0  2  0  0  0  0  0  0  0  0  0
   14.2221  -11.6190    0.0000 C   0  0  2  0  0  0  0  0  0  0  0  0
   15.9418  -13.0534    0.0000 O   0  0  0  0  0  0  0  0  0  0  0  0
   15.2750  -14.3172    0.0000 O   0  0  0  0  0  0  0  0  0  0  0  0
   15.9733  -13.8778    0.0000 C   0  0  2  0  0  0  0  0  0  0  0  0
   16.7029  -14.2628    0.0000 C   0  0  1  0  0  0  0  0  0  0  0  0
   16.7344  -15.0872    0.0000 C   0  0  2  0  0  0  0  0  0  0  0  0
   16.0362  -15.5266    0.0000 C   0  0  1  0  0  0  0  0  0  0  0  0
   15.3065  -15.1416    0.0000 C   0  0  1  0  0  0  0  0  0  0  0  0
   14.6083  -15.5811    0.0000 C   0  0  0  0  0  0  0  0  0  0  0  0
   14.6397  -16.4055    0.0000 O   0  0  0  0  0  0  0  0  0  0  0  0
   16.0676  -16.3510    0.0000 O   0  0  0  0  0  0  0  0  0  0  0  0
   17.4641  -15.4721    0.0000 O   0  0  0  0  0  0  0  0  0  0  0  0
   17.4012  -13.8233    0.0000 O   0  0  0  0  0  0  0  0  0  0  0  0
   13.3976  -11.6484    0.0000 C   0  0  0  0  0  0  0  0  0  0  0  0
   16.6955  -11.5307    0.0000 O   0  0  0  0  0  0  0  0  0  0  0  0
   14.2600  -13.0712    0.0000 O   0  0  0  0  0  0  0  0  0  0  0  0
   12.8083  -12.8390    0.0000 O   0  0  0  0  0  0  0  0  0  0  0  0
   13.4750  -13.3250    0.0000 C   0  0  2  0  0  0  0  0  0  0  0  0
   13.2188  -14.1092    0.0000 C   0  0  1  0  0  0  0  0  0  0  0  0
   12.3938  -14.1079    0.0000 C   0  0  2  0  0  0  0  0  0  0  0  0
   12.1401  -13.3229    0.0000 C   0  0  2  0  0  0  0  0  0  0  0  0
   11.3558  -13.0668    0.0000 C   0  0  0  0  0  0  0  0  0  0  0  0
   10.7419  -13.6178    0.0000 O   0  0  0  0  0  0  0  0  0  0  0  0
   11.9079  -14.7746    0.0000 O   0  0  0  0  0  0  0  0  0  0  0  0
   13.7027  -14.7774    0.0000 O   0  0  0  0  0  0  0  0  0  0  0  0
   10.8118   -8.8855    0.0000 C   0  0  0  0  0  0  0  0  0  0  0  0
   12.2408   -8.8855    0.0000 C   0  0  0  0  0  0  0  0  0  0  0  0
   12.9552  -10.1230    0.0000 C   0  0  0  0  0  0  0  0  0  0  0  0
   11.5263  -10.1230    0.0000 H   0  0  0  0  0  0  0  0  0  0  0  0
   15.8200  -10.1321    0.0000 O   0  0  0  0  0  0  0  0  0  0  0  0
   22.2599   -8.8419    0.0000 C   0  0  0  0  0  0  0  0  0  0  0  0
   21.5438   -9.2515    0.0000 O   0  0  0  0  0  0  0  0  0  0  0  0
   22.9728   -9.2572    0.0000 C   0  0  0  0  0  0  0  0  0  0  0  0
   22.9695  -10.0822    0.0000 C   0  0  0  0  0  0  0  0  0  0  0  0
   23.6872   -8.8447    0.0000 C   0  0  0  0  0  0  0  0  0  0  0  0
   22.2534  -10.4918    0.0000 C   0  0  0  0  0  0  0  0  0  0  0  0
   23.6823  -10.4975    0.0000 C   0  0  0  0  0  0  0  0  0  0  0  0
   23.6790  -11.3225    0.0000 C   0  0  0  0  0  0  0  0  0  0  0  0
   22.9629  -11.7322    0.0000 C   0  0  2  0  0  0  0  0  0  0  0  0
   22.2501  -11.3168    0.0000 C   0  0  0  0  0  0  0  0  0  0  0  0
   22.5504  -12.4467    0.0000 O   0  0  0  0  0  0  0  0  0  0  0  0
   23.3754  -12.4467    0.0000 C   0  0  0  0  0  0  0  0  0  0  0  0
   21.8417  -12.8690    0.0000 C   0  0  2  0  0  0  0  0  0  0  0  0
   21.1216  -12.4664    0.0000 O   0  0  0  0  0  0  0  0  0  0  0  0
   20.4129  -12.8887    0.0000 C   0  0  1  0  0  0  0  0  0  0  0  0
   20.4243  -13.7137    0.0000 C   0  0  2  0  0  0  0  0  0  0  0  0
   21.1444  -14.1162    0.0000 C   0  0  1  0  0  0  0  0  0  0  0  0
   21.8531  -13.6939    0.0000 C   0  0  1  0  0  0  0  0  0  0  0  0
   21.1558  -14.9412    0.0000 O   0  0  0  0  0  0  0  0  0  0  0  0
   19.7156  -14.1360    0.0000 O   0  0  0  0  0  0  0  0  0  0  0  0
   22.5732  -14.0965    0.0000 O   0  0  0  0  0  0  0  0  0  0  0  0
    2.2382  -10.5355    0.0000 C   0  0  0  0  0  0  0  0  0  0  0  0
   19.6928  -12.4862    0.0000 C   0  0  0  0  0  0  0  0  0  0  0  0
   17.9565   -5.5855    0.0000 O   0  0  0  0  0  0  0  0  0  0  0  0
   14.3842  -10.1230    0.0000 O   0  0  0  0  0  0  0  0  0  0  0  0
   23.6713   -7.1586    0.0000 O   0  0  0  0  0  0  0  0  0  0  0  0
   23.6269   -5.5092    0.0000 O   0  0  0  0  0  0  0  0  0  0  0  0
  1  2  1  0  0  0  0
  2  3  1  0  0  0  0
  3  4  1  0  0  0  0
  4  5  1  0  0  0  0
  5  6  1  0  0  0  0
  6  7  1  0  0  0  0
  7  8  1  0  0  0  0
  8  9  1  0  0  0  0
  9 10  1  0  0  0  0
 10 11  1  0  0  0  0
 11 12  1  0  0  0  0
 12 13  1  0  0  0  0
 13 14  1  0  0  0  0
 14 15  1  0  0  0  0
 15 16  1  0  0  0  0
 16 17  1  0  0  0  0
 12 17  1  0  0  0  0
 17 18  1  0  0  0  0
  9 18  1  0  0  0  0
 18 19  1  0  0  0  0
 19 20  1  0  0  0  0
 20 21  2  0  0  0  0
  8 21  1  0  0  0  0
 21 22  1  0  0  0  0
  5 22  1  0  0  0  0
  1 22  1  0  0  0  0
 23 24  2  0  0  0  0
 23 25  1  0  0  0  0
  5 23  1  1  0  0  0
 13 26  1  0  0  0  0
 13 27  1  0  0  0  0
  2 28  1  0  0  0  0
  2 29  1  0  0  0  0
 31 32  1  0  0  0  0
 32 33  2  0  0  0  0
 33 34  1  0  0  0  0
 34 35  1  0  0  0  0
 35 36  1  0  0  0  0
 36 37  1  0  0  0  0
 37 38  2  0  0  0  0
 31 39  2  0  0  0  0
 41 42  1  0  0  0  0
 42 43  1  0  0  0  0
 43 44  1  0  0  0  0
 44 45  1  0  0  0  0
 45 46  1  0  0  0  0
 41 46  1  0  0  0  0
 46 47  1  6  0  0  0
 42 40  1  6  0  0  0
 36 40  1  0  0  0  0
 36 49  1  6  0  0  0
 32 50  1  0  0  0  0
 30 31  1  0  0  0  0
  3 30  1  1  0  0  0
 52 53  1  0  0  0  0
 53 54  1  0  0  0  0
 54 55  1  0  0  0  0
 55 56  1  0  0  0  0
 56 57  1  0  0  0  0
 52 57  1  0  0  0  0
 56 58  1  1  0  0  0
 55 59  1  6  0  0  0
 54 60  1  1  0  0  0
 63 64  1  0  0  0  0
 64 65  1  0  0  0  0
 65 66  1  0  0  0  0
 66 67  1  0  0  0  0
 67 68  1  0  0  0  0
 63 68  1  0  0  0  0
 70 71  1  0  0  0  0
 71 72  1  0  0  0  0
 72 73  1  0  0  0  0
 73 74  1  0  0  0  0
 74 75  1  0  0  0  0
 70 75  1  0  0  0  0
 74 76  1  6  0  0  0
 73 77  1  1  0  0  0
 72 78  1  6  0  0  0
 71 69  1  1  0  0  0
 65 69  1  6  0  0  0
 67 79  1  1  0  0  0
 66 80  1  1  0  0  0
 64 62  1  1  0  0  0
 61 62  1  0  0  0  0
 57 61  1  6  0  0  0
 53 51  1  6  0  0  0
 14 51  1  1  0  0  0
 12 81  1  6  0  0  0
 22 82  1  1  0  0  0
 83 84  1  0  0  0  0
 84 85  1  0  0  0  0
 85 86  1  0  0  0  0
 86 87  1  0  0  0  0
 87 88  1  0  0  0  0
 83 88  1  0  0  0  0
 89 90  1  0  0  0  0
 88 89  1  6  0  0  0
 87 91  1  1  0  0  0
 86 92  1  6  0  0  0
 93 94  1  0  0  0  0
 94 95  1  0  0  0  0
 95 96  1  0  0  0  0
 96 97  1  0  0  0  0
 97 98  1  0  0  0  0
 93 98  1  0  0  0  0
100101  1  0  0  0  0
101102  1  0  0  0  0
102103  1  0  0  0  0
103104  1  0  0  0  0
104105  1  0  0  0  0
100105  1  0  0  0  0
106107  1  0  0  0  0
105106  1  1  0  0  0
104108  1  6  0  0  0
103109  1  1  0  0  0
102110  1  6  0  0  0
101 99  1  1  0  0  0
 96 99  1  6  0  0  0
 98111  1  6  0  0  0
 95112  1  6  0  0  0
114115  1  0  0  0  0
115116  1  0  0  0  0
116117  1  0  0  0  0
117118  1  0  0  0  0
114118  1  0  0  0  0
119120  1  0  0  0  0
118119  1  6  0  0  0
117121  1  1  0  0  0
116122  1  6  0  0  0
115113  1  1  0  0  0
 97113  1  1  0  0  0
 84 25  1  6  0  0  0
 17123  1  1  0  0  0
  9124  1  1  0  0  0
  8125  1  6  0  0  0
 18126  1  6  0  0  0
 94127  1  1  0  0  0
 85127  1  1  0  0  0
 48128  1  0  0  0  0
128129  2  0  0  0  0
128130  1  0  0  0  0
130131  2  0  0  0  0
130132  1  0  0  0  0
131134  1  0  0  0  0
134135  1  0  0  0  0
135136  1  0  0  0  0
136137  1  0  0  0  0
137133  2  0  0  0  0
136138  1  0  0  0  0
136139  1  6  0  0  0
140138  1  1  0  0  0
140141  1  0  0  0  0
141142  1  0  0  0  0
142143  1  0  0  0  0
143144  1  0  0  0  0
144145  1  0  0  0  0
145140  1  0  0  0  0
144146  1  1  0  0  0
143147  1  6  0  0  0
145148  1  6  0  0  0
 68149  1  1  0  0  0
142150  1  1  0  0  0
 50151  1  0  0  0  0
  6152  1  6  0  0  0
 44153  1  6  0  0  0
 45154  1  1  0  0  0
 43 48  1  1  0  0  0
M  END
>  <cdx:fragmentId>
167696

$$$$
