94586.cdx
  Mrv1902 05222410222D          

 28 31  0  0  0  0            999 V2000
    3.0918   -6.9438    0.0000 C   0  0  0  0  0  0  0  0  0  0  0  0
    3.0918   -7.7687    0.0000 C   0  0  0  0  0  0  0  0  0  0  0  0
    3.8063   -8.1813    0.0000 C   0  0  0  0  0  0  0  0  0  0  0  0
    4.5207   -7.7687    0.0000 C   0  0  0  0  0  0  0  0  0  0  0  0
    4.5207   -6.9438    0.0000 C   0  0  0  0  0  0  0  0  0  0  0  0
    3.8063   -6.5313    0.0000 C   0  0  0  0  0  0  0  0  0  0  0  0
    5.2352   -8.1813    0.0000 C   0  0  1  0  0  0  0  0  0  0  0  0
    5.9497   -7.7687    0.0000 C   0  0  1  0  0  0  0  0  0  0  0  0
    5.9497   -6.9438    0.0000 C   0  0  0  0  0  0  0  0  0  0  0  0
    5.2352   -6.5313    0.0000 O   0  0  0  0  0  0  0  0  0  0  0  0
    6.6642   -8.1813    0.0000 C   0  0  1  0  0  0  0  0  0  0  0  0
    7.3786   -7.7687    0.0000 C   0  0  1  0  0  0  0  0  0  0  0  0
    7.3786   -6.9438    0.0000 O   0  0  0  0  0  0  0  0  0  0  0  0
    6.6642   -9.0062    0.0000 C   0  0  0  0  0  0  0  0  0  0  0  0
    7.3786   -9.4187    0.0000 O   0  0  0  0  0  0  0  0  0  0  0  0
    8.0931   -9.0062    0.0000 C   0  0  0  0  0  0  0  0  0  0  0  0
    8.0931   -8.1813    0.0000 C   0  0  0  0  0  0  0  0  0  0  0  0
    8.8076   -9.4187    0.0000 C   0  0  0  0  0  0  0  0  0  0  0  0
    9.5220   -9.0062    0.0000 C   0  0  0  0  0  0  0  0  0  0  0  0
    9.5220   -8.1813    0.0000 C   0  0  0  0  0  0  0  0  0  0  0  0
    8.8076   -7.7687    0.0000 C   0  0  0  0  0  0  0  0  0  0  0  0
    2.3773   -8.1813    0.0000 O   0  0  0  0  0  0  0  0  0  0  0  0
    1.6629   -7.7687    0.0000 C   0  0  0  0  0  0  0  0  0  0  0  0
   10.2365   -7.7687    0.0000 O   0  0  0  0  0  0  0  0  0  0  0  0
   10.9510   -8.1813    0.0000 C   0  0  0  0  0  0  0  0  0  0  0  0
    5.2352   -9.0062    0.0000 O   0  0  0  0  0  0  0  0  0  0  0  0
    5.9497   -8.5938    0.0000 H   0  0  0  0  0  0  0  0  0  0  0  0
    6.6642   -7.3563    0.0000 H   0  0  0  0  0  0  0  0  0  0  0  0
  1  2  2  0  0  0  0
  2  3  1  0  0  0  0
  3  4  2  0  0  0  0
  4  5  1  0  0  0  0
  5  6  2  0  0  0  0
  6  1  1  0  0  0  0
  4  7  1  0  0  0  0
  7  8  1  0  0  0  0
  8  9  1  0  0  0  0
  9 10  1  0  0  0  0
 10  5  1  0  0  0  0
  8 11  1  0  0  0  0
 11 12  1  0  0  0  0
 12 13  1  1  0  0  0
 11 14  1  0  0  0  0
 14 15  1  0  0  0  0
 15 16  1  0  0  0  0
 16 17  2  0  0  0  0
 17 12  1  0  0  0  0
 16 18  1  0  0  0  0
 18 19  2  0  0  0  0
 19 20  1  0  0  0  0
 20 21  2  0  0  0  0
 21 17  1  0  0  0  0
  2 22  1  0  0  0  0
 22 23  1  0  0  0  0
 20 24  1  0  0  0  0
 24 25  1  0  0  0  0
  7 26  1  1  0  0  0
  8 27  1  6  0  0  0
 11 28  1  6  0  0  0
M  END
>  <cdx:fragmentId>
5

$$$$
