94589.cdx
  Mrv1902 05222410232D          

 17 16  0  0  0  0            999 V2000
    4.0910   -9.4056    0.0000 C   0  0  0  0  0  0  0  0  0  0  0  0
    3.8775  -10.2025    0.0000 C   0  0  0  0  0  0  0  0  0  0  0  0
    4.1902  -10.7663    0.0000 C   0  0  1  0  0  0  0  0  0  0  0  0
    4.9047  -10.3537    0.0000 C   0  0  0  0  0  0  0  0  0  0  0  0
    5.6192  -10.7663    0.0000 C   0  0  0  0  0  0  0  0  0  0  0  0
    6.3336  -10.3537    0.0000 C   0  0  0  0  0  0  0  0  0  0  0  0
    7.0481  -10.7663    0.0000 C   0  0  0  0  0  0  0  0  0  0  0  0
    7.7626  -10.3537    0.0000 C   0  0  0  0  0  0  0  0  0  0  0  0
    8.4770  -10.7663    0.0000 C   0  0  0  0  0  0  0  0  0  0  0  0
    9.1915  -10.3537    0.0000 C   0  0  0  0  0  0  0  0  0  0  0  0
    9.9060  -10.7663    0.0000 C   0  0  0  0  0  0  0  0  0  0  0  0
   10.6205  -10.3537    0.0000 C   0  0  0  0  0  0  0  0  0  0  0  0
    4.6027  -11.4807    0.0000 C   0  0  0  0  0  0  0  0  0  0  0  0
    3.4757  -11.1788    0.0000 O   0  0  0  0  0  0  0  0  0  0  0  0
    7.0481  -11.5913    0.0000 C   0  0  0  0  0  0  0  0  0  0  0  0
    9.9060  -11.5913    0.0000 C   0  0  0  0  0  0  0  0  0  0  0  0
    8.4770  -11.5913    0.0000 O   0  0  0  0  0  0  0  0  0  0  0  0
  1  2  2  0  0  0  0
  2  3  1  0  0  0  0
  3  4  1  0  0  0  0
  4  5  1  0  0  0  0
  5  6  1  0  0  0  0
  6  7  2  0  0  0  0
  7  8  1  0  0  0  0
  8  9  1  0  0  0  0
  9 10  1  0  0  0  0
 10 11  2  0  0  0  0
 11 12  1  0  0  0  0
  3 13  1  1  0  0  0
  3 14  1  6  0  0  0
  7 15  1  0  0  0  0
 11 16  1  0  0  0  0
  9 17  2  0  0  0  0
M  END
>  <cdx:fragmentId>
49

$$$$
