945853.cdx
  Mrv1902 05222410222D          

 25 27  0  0  0  0            999 V2000
    9.9818   -7.2651    0.0000 O   0  0  0  0  0  0  0  0  0  0  0  0
    7.0136   -6.9850    0.0000 O   0  0  0  0  0  0  0  0  0  0  0  0
    6.2991   -7.3975    0.0000 C   0  0  2  0  0  0  0  0  0  0  0  0
    5.5846   -6.9850    0.0000 O   0  0  0  0  0  0  0  0  0  0  0  0
    4.8701   -7.3975    0.0000 C   0  0  1  0  0  0  0  0  0  0  0  0
    4.8701   -8.2225    0.0000 C   0  0  2  0  0  0  0  0  0  0  0  0
    5.5846   -8.6350    0.0000 C   0  0  1  0  0  0  0  0  0  0  0  0
    6.2991   -8.2225    0.0000 C   0  0  1  0  0  0  0  0  0  0  0  0
    4.1557   -6.9850    0.0000 C   0  0  0  0  0  0  0  0  0  0  0  0
    5.5846   -9.4600    0.0000 O   0  0  0  0  0  0  0  0  0  0  0  0
    7.0136   -8.6350    0.0000 O   0  0  0  0  0  0  0  0  0  0  0  0
    4.1557   -8.6350    0.0000 O   0  0  0  0  0  0  0  0  0  0  0  0
    3.4412   -7.3975    0.0000 O   0  0  0  0  0  0  0  0  0  0  0  0
    7.9309   -6.9804    0.0000 H   0  0  0  0  0  0  0  0  0  0  0  0
    9.7018   -4.5201    0.0000 C   0  0  0  0  0  0  0  0  0  0  0  0
   10.3388   -5.6510    0.0000 C   0  0  0  0  0  0  0  0  0  0  0  0
    9.7862   -6.4636    0.0000 C   0  0  0  0  0  0  0  0  0  0  0  0
    8.3593   -6.2753    0.0000 C   0  0  2  0  0  0  0  0  0  0  0  0
    7.0346   -6.1529    0.0000 C   0  0  0  0  0  0  0  0  0  0  0  0
    7.1880   -5.1602    0.0000 C   0  0  0  0  0  0  0  0  0  0  0  0
    8.9762   -7.3730    0.0000 C   0  0  0  0  0  0  0  0  0  0  0  0
    7.6834   -5.6201    0.0000 C   0  0  1  0  0  0  0  0  0  0  0  0
    9.5822   -5.2007    0.0000 C   0  0  0  0  0  0  0  0  0  0  0  0
    8.7877   -5.5703    0.0000 C   0  0  1  0  0  0  0  0  0  0  0  0
    8.7877   -4.7453    0.0000 O   0  0  0  0  0  0  0  0  0  0  0  0
 17  1  2  0  0  0  0
  3  2  1  1  0  0  0
  3  4  1  0  0  0  0
  4  5  1  0  0  0  0
  5  6  1  0  0  0  0
  6  7  1  0  0  0  0
  7  8  1  0  0  0  0
  8  3  1  0  0  0  0
  5  9  1  1  0  0  0
  7 10  1  1  0  0  0
  8 11  1  6  0  0  0
  6 12  1  6  0  0  0
  9 13  1  0  0  0  0
 18 14  1  1  0  0  0
 18 21  1  0  0  0  0
 23 15  1  0  0  0  0
 16 23  2  0  0  0  0
 17 16  1  0  0  0  0
 18 17  1  0  0  0  0
 22 18  1  0  0  0  0
 22 19  1  0  0  0  0
 22 20  1  1  0  0  0
 24 21  1  0  0  0  0
 24 22  1  0  0  0  0
 24 23  1  0  0  0  0
  2 19  1  0  0  0  0
 24 25  1  6  0  0  0
M  END
>  <cdx:fragmentId>
197

$$$$
