94587.cdx
  Mrv1902 05222410222D          

 21 20  0  0  0  0            999 V2000
    0.7813   -8.3187    0.0000 O   0  0  0  0  0  0  0  0  0  0  0  0
    1.4957   -7.9063    0.0000 C   0  0  0  0  0  0  0  0  0  0  0  0
    2.2102   -8.3187    0.0000 C   0  0  0  0  0  0  0  0  0  0  0  0
    2.9247   -7.9063    0.0000 C   0  0  0  0  0  0  0  0  0  0  0  0
    3.6392   -8.3187    0.0000 C   0  0  0  0  0  0  0  0  0  0  0  0
    4.3536   -7.9063    0.0000 C   0  0  0  0  0  0  0  0  0  0  0  0
    5.0681   -8.3187    0.0000 C   0  0  0  0  0  0  0  0  0  0  0  0
    5.7826   -7.9063    0.0000 C   0  0  0  0  0  0  0  0  0  0  0  0
    6.4970   -8.3187    0.0000 C   0  0  0  0  0  0  0  0  0  0  0  0
    7.2115   -7.9063    0.0000 C   0  0  0  0  0  0  0  0  0  0  0  0
    7.9260   -8.3187    0.0000 C   0  0  0  0  0  0  0  0  0  0  0  0
    8.6405   -7.9063    0.0000 C   0  0  0  0  0  0  0  0  0  0  0  0
    9.3549   -8.3187    0.0000 C   0  0  0  0  0  0  0  0  0  0  0  0
   10.0694   -7.9063    0.0000 C   0  0  0  0  0  0  0  0  0  0  0  0
   10.7839   -8.3187    0.0000 C   0  0  0  0  0  0  0  0  0  0  0  0
   11.4983   -7.9063    0.0000 C   0  0  0  0  0  0  0  0  0  0  0  0
   12.2128   -8.3187    0.0000 C   0  0  0  0  0  0  0  0  0  0  0  0
   12.9273   -7.9063    0.0000 C   0  0  0  0  0  0  0  0  0  0  0  0
   13.6418   -8.3187    0.0000 C   0  0  0  0  0  0  0  0  0  0  0  0
    1.4957   -7.0812    0.0000 O   0  0  0  0  0  0  0  0  0  0  0  0
   11.4983   -7.0812    0.0000 O   0  0  0  0  0  0  0  0  0  0  0  0
  1  2  1  0  0  0  0
  2  3  1  0  0  0  0
  3  4  1  0  0  0  0
  4  5  1  0  0  0  0
  5  6  1  0  0  0  0
  6  7  1  0  0  0  0
  7  8  1  0  0  0  0
  8  9  1  0  0  0  0
  9 10  1  0  0  0  0
 10 11  1  0  0  0  0
 11 12  1  0  0  0  0
 12 13  1  0  0  0  0
 13 14  1  0  0  0  0
 14 15  1  0  0  0  0
 15 16  1  0  0  0  0
 16 17  1  0  0  0  0
 17 18  1  0  0  0  0
 18 19  1  0  0  0  0
  2 20  2  0  0  0  0
 16 21  2  0  0  0  0
M  END
>  <cdx:fragmentId>
3

$$$$
