94588.cdx
  Mrv1902 05222410242D          

 22 24  0  0  0  0            999 V2000
   10.6226   -7.5900    0.0000 C   0  0  0  0  0  0  0  0  0  0  0  0
    9.9081   -7.1775    0.0000 O   0  0  0  0  0  0  0  0  0  0  0  0
    7.0502   -6.3525    0.0000 O   0  0  0  0  0  0  0  0  0  0  0  0
    8.4792   -9.6525    0.0000 C   0  0  0  0  0  0  0  0  0  0  0  0
    7.0502   -9.6525    0.0000 O   0  0  0  0  0  0  0  0  0  0  0  0
    5.6213   -9.6525    0.0000 O   0  0  0  0  0  0  0  0  0  0  0  0
    3.4779   -7.5900    0.0000 C   0  0  0  0  0  0  0  0  0  0  0  0
    4.1923   -7.1775    0.0000 O   0  0  0  0  0  0  0  0  0  0  0  0
    8.4792   -8.8275    0.0000 C   0  0  0  0  0  0  0  0  0  0  0  0
    9.1936   -8.4150    0.0000 C   0  0  0  0  0  0  0  0  0  0  0  0
    9.1936   -7.5900    0.0000 C   0  0  0  0  0  0  0  0  0  0  0  0
    8.4792   -7.1775    0.0000 C   0  0  0  0  0  0  0  0  0  0  0  0
    7.0502   -8.8275    0.0000 C   0  0  0  0  0  0  0  0  0  0  0  0
    7.7647   -8.4150    0.0000 C   0  0  0  0  0  0  0  0  0  0  0  0
    7.7647   -7.5900    0.0000 C   0  0  0  0  0  0  0  0  0  0  0  0
    7.0502   -7.1775    0.0000 C   0  0  0  0  0  0  0  0  0  0  0  0
    5.6213   -8.8275    0.0000 C   0  0  0  0  0  0  0  0  0  0  0  0
    6.3357   -8.4150    0.0000 C   0  0  0  0  0  0  0  0  0  0  0  0
    6.3357   -7.5900    0.0000 C   0  0  0  0  0  0  0  0  0  0  0  0
    5.6213   -7.1775    0.0000 C   0  0  0  0  0  0  0  0  0  0  0  0
    4.9068   -7.5900    0.0000 C   0  0  0  0  0  0  0  0  0  0  0  0
    4.9068   -8.4150    0.0000 C   0  0  0  0  0  0  0  0  0  0  0  0
  2  1  1  0  0  0  0
 11  2  1  0  0  0  0
 16  3  2  0  0  0  0
  9  4  1  0  0  0  0
 13  5  2  0  0  0  0
 17  6  1  0  0  0  0
  8  7  1  0  0  0  0
 21  8  1  0  0  0  0
  9 14  1  0  0  0  0
 10  9  2  0  0  0  0
 11 10  1  0  0  0  0
 12 11  2  0  0  0  0
 15 12  1  0  0  0  0
 13 18  1  0  0  0  0
 14 13  1  0  0  0  0
 15 14  2  0  0  0  0
 16 15  1  0  0  0  0
 19 16  1  0  0  0  0
 17 22  1  0  0  0  0
 18 17  2  0  0  0  0
 19 18  1  0  0  0  0
 20 19  2  0  0  0  0
 21 20  1  0  0  0  0
 22 21  2  0  0  0  0
M  END
>  <cdx:fragmentId>
5

$$$$
