94596.cdx
  Mrv1902 05222410222D          

 39 42  0  0  0  0            999 V2000
    4.9757   -7.5655    0.0000 O   0  0  0  0  0  0  0  0  0  0  0  0
    3.5629   -5.0813    0.0000 O   0  0  0  0  0  0  0  0  0  0  0  0
   10.0011   -3.8856    0.0000 O   0  0  0  0  0  0  0  0  0  0  0  0
    7.8550   -4.2842    0.0000 C   0  0  0  0  0  0  0  0  0  0  0  0
    8.5722   -3.8763    0.0000 C   0  0  0  0  0  0  0  0  0  0  0  0
    9.2839   -4.2935    0.0000 C   0  0  0  0  0  0  0  0  0  0  0  0
    9.2786   -5.1184    0.0000 C   0  0  0  0  0  0  0  0  0  0  0  0
    8.5614   -5.5263    0.0000 C   0  0  0  0  0  0  0  0  0  0  0  0
    7.8497   -5.1092    0.0000 C   0  0  0  0  0  0  0  0  0  0  0  0
    6.4047   -7.5748    0.0000 O   0  0  0  0  0  0  0  0  0  0  0  0
    6.4207   -5.0999    0.0000 O   0  0  0  0  0  0  0  0  0  0  0  0
    5.7036   -5.5077    0.0000 C   0  0  0  0  0  0  0  0  0  0  0  0
    4.9918   -5.0906    0.0000 C   0  0  0  0  0  0  0  0  0  0  0  0
    4.2747   -5.4984    0.0000 C   0  0  0  0  0  0  0  0  0  0  0  0
    4.2693   -6.3234    0.0000 C   0  0  0  0  0  0  0  0  0  0  0  0
    4.9811   -6.7406    0.0000 C   0  0  0  0  0  0  0  0  0  0  0  0
    5.6982   -6.3327    0.0000 C   0  0  0  0  0  0  0  0  0  0  0  0
    6.4100   -6.7498    0.0000 C   0  0  0  0  0  0  0  0  0  0  0  0
    7.1272   -6.3420    0.0000 C   0  0  0  0  0  0  0  0  0  0  0  0
    7.1325   -5.5170    0.0000 C   0  0  0  0  0  0  0  0  0  0  0  0
    7.8389   -6.7591    0.0000 O   0  0  0  0  0  0  0  0  0  0  0  0
    7.8175  -10.0591    0.0000 O   0  0  0  0  0  0  0  0  0  0  0  0
    9.2518   -9.2434    0.0000 O   0  0  0  0  0  0  0  0  0  0  0  0
    9.2625   -7.5934    0.0000 O   0  0  0  0  0  0  0  0  0  0  0  0
    7.8336   -7.5841    0.0000 C   0  0  1  0  0  0  0  0  0  0  0  0
    8.5453   -8.0012    0.0000 C   0  0  1  0  0  0  0  0  0  0  0  0
    8.5400   -8.8262    0.0000 C   0  0  2  0  0  0  0  0  0  0  0  0
    7.8228   -9.2341    0.0000 C   0  0  1  0  0  0  0  0  0  0  0  0
    7.1111   -8.8169    0.0000 C   0  0  2  0  0  0  0  0  0  0  0  0
    7.1164   -7.9920    0.0000 O   0  0  0  0  0  0  0  0  0  0  0  0
    6.3939   -9.2248    0.0000 C   0  0  0  0  0  0  0  0  0  0  0  0
    6.3886  -10.0498    0.0000 O   0  0  0  0  0  0  0  0  0  0  0  0
    9.9806   -8.8208    0.0000 O   0  0  0  0  0  0  0  0  0  0  0  0
   12.1209   -7.5780    0.0000 O   0  0  0  0  0  0  0  0  0  0  0  0
   11.4095   -8.8173    0.0000 O   0  0  0  0  0  0  0  0  0  0  0  0
    9.9785   -7.9958    0.0000 C   0  0  0  0  0  0  0  0  0  0  0  0
   10.6920   -7.5815    0.0000 C   0  0  0  0  0  0  0  0  0  0  0  0
   11.4075   -7.9923    0.0000 C   0  0  0  0  0  0  0  0  0  0  0  0
    8.5775   -3.0513    0.0000 O   0  0  0  0  0  0  0  0  0  0  0  0
 29 31  1  1  0  0  0
 25 21  1  1  0  0  0
 21 19  1  0  0  0  0
 16  1  1  0  0  0  0
 14  2  1  0  0  0  0
 20  9  1  0  0  0  0
  6  3  1  0  0  0  0
  9  4  2  0  0  0  0
  5  4  1  0  0  0  0
  6  5  2  0  0  0  0
  7  6  1  0  0  0  0
  8  7  2  0  0  0  0
  9  8  1  0  0  0  0
 18 10  2  0  0  0  0
 20 11  1  0  0  0  0
 12 11  1  0  0  0  0
 17 12  2  0  0  0  0
 13 12  1  0  0  0  0
 14 13  2  0  0  0  0
 15 14  1  0  0  0  0
 16 15  2  0  0  0  0
 17 16  1  0  0  0  0
 18 17  1  0  0  0  0
 19 18  1  0  0  0  0
 20 19  2  0  0  0  0
 28 22  1  6  0  0  0
 27 23  1  1  0  0  0
 26 24  1  6  0  0  0
 30 25  1  0  0  0  0
 26 25  1  0  0  0  0
 27 26  1  0  0  0  0
 28 27  1  0  0  0  0
 29 28  1  0  0  0  0
 30 29  1  0  0  0  0
 32 31  1  0  0  0  0
 36 33  2  0  0  0  0
 38 34  1  0  0  0  0
 38 35  2  0  0  0  0
 37 36  1  0  0  0  0
 38 37  1  0  0  0  0
 36 24  1  0  0  0  0
  5 39  1  0  0  0  0
M  END
>  <cdx:groupId>
119

>  <cdx:fragmentId>
41

$$$$
