94593.cdx
  Mrv1902 05222410222D          

 48 52  0  0  0  0            999 V2000
    6.7082   -7.3593    0.0000 O   0  0  0  0  0  0  0  0  0  0  0  0
    5.2954   -4.8751    0.0000 O   0  0  0  0  0  0  0  0  0  0  0  0
   11.7336   -3.6794    0.0000 O   0  0  0  0  0  0  0  0  0  0  0  0
    9.5875   -4.0779    0.0000 C   0  0  0  0  0  0  0  0  0  0  0  0
   10.3047   -3.6701    0.0000 C   0  0  0  0  0  0  0  0  0  0  0  0
   11.0164   -4.0872    0.0000 C   0  0  0  0  0  0  0  0  0  0  0  0
   11.0111   -4.9122    0.0000 C   0  0  0  0  0  0  0  0  0  0  0  0
   10.2939   -5.3200    0.0000 C   0  0  0  0  0  0  0  0  0  0  0  0
    9.5822   -4.9029    0.0000 C   0  0  0  0  0  0  0  0  0  0  0  0
    8.1372   -7.3686    0.0000 O   0  0  0  0  0  0  0  0  0  0  0  0
    8.1532   -4.8936    0.0000 O   0  0  0  0  0  0  0  0  0  0  0  0
    7.4361   -5.3015    0.0000 C   0  0  0  0  0  0  0  0  0  0  0  0
    6.7243   -4.8843    0.0000 C   0  0  0  0  0  0  0  0  0  0  0  0
    6.0072   -5.2922    0.0000 C   0  0  0  0  0  0  0  0  0  0  0  0
    6.0018   -6.1172    0.0000 C   0  0  0  0  0  0  0  0  0  0  0  0
    6.7136   -6.5343    0.0000 C   0  0  0  0  0  0  0  0  0  0  0  0
    7.4307   -6.1265    0.0000 C   0  0  0  0  0  0  0  0  0  0  0  0
    8.1425   -6.5436    0.0000 C   0  0  0  0  0  0  0  0  0  0  0  0
    8.8597   -6.1357    0.0000 C   0  0  0  0  0  0  0  0  0  0  0  0
    8.8650   -5.3108    0.0000 C   0  0  0  0  0  0  0  0  0  0  0  0
    9.5714   -6.5529    0.0000 O   0  0  0  0  0  0  0  0  0  0  0  0
    9.5500   -9.8528    0.0000 O   0  0  0  0  0  0  0  0  0  0  0  0
   10.9843   -9.0371    0.0000 O   0  0  0  0  0  0  0  0  0  0  0  0
   10.9950   -7.3871    0.0000 O   0  0  0  0  0  0  0  0  0  0  0  0
    9.5661   -7.3779    0.0000 C   0  0  1  0  0  0  0  0  0  0  0  0
   10.2778   -7.7950    0.0000 C   0  0  1  0  0  0  0  0  0  0  0  0
   10.2725   -8.6200    0.0000 C   0  0  2  0  0  0  0  0  0  0  0  0
    9.5553   -9.0278    0.0000 C   0  0  1  0  0  0  0  0  0  0  0  0
    8.8436   -8.6107    0.0000 C   0  0  2  0  0  0  0  0  0  0  0  0
    8.8489   -7.7857    0.0000 O   0  0  0  0  0  0  0  0  0  0  0  0
    8.1264   -9.0185    0.0000 C   0  0  0  0  0  0  0  0  0  0  0  0
    8.1211   -9.8435    0.0000 O   0  0  0  0  0  0  0  0  0  0  0  0
    6.6922   -9.8342    0.0000 O   0  0  0  0  0  0  0  0  0  0  0  0
    6.6761  -12.3092    0.0000 O   0  0  0  0  0  0  0  0  0  0  0  0
    5.9697  -11.0671    0.0000 O   0  0  0  0  0  0  0  0  0  0  0  0
    7.4039  -10.2514    0.0000 C   0  0  0  0  0  0  0  0  0  0  0  0
    7.3986  -11.0763    0.0000 C   0  0  0  0  0  0  0  0  0  0  0  0
    6.6814  -11.4842    0.0000 C   0  0  0  0  0  0  0  0  0  0  0  0
    3.1468   -5.2800    0.0000 C   0  0  1  0  0  0  0  0  0  0  0  0
    3.1468   -6.1050    0.0000 C   0  0  1  0  0  0  0  0  0  0  0  0
    3.8613   -6.5175    0.0000 C   0  0  2  0  0  0  0  0  0  0  0  0
    4.5757   -6.1050    0.0000 C   0  0  2  0  0  0  0  0  0  0  0  0
    4.5757   -5.2800    0.0000 C   0  0  1  0  0  0  0  0  0  0  0  0
    3.8613   -4.8675    0.0000 O   0  0  0  0  0  0  0  0  0  0  0  0
    2.4323   -4.8675    0.0000 C   0  0  0  0  0  0  0  0  0  0  0  0
    3.8613   -7.3425    0.0000 O   0  0  0  0  0  0  0  0  0  0  0  0
    5.2902   -6.5175    0.0000 O   0  0  0  0  0  0  0  0  0  0  0  0
    2.4323   -6.5175    0.0000 O   0  0  0  0  0  0  0  0  0  0  0  0
 36 32  1  0  0  0  0
 29 31  1  1  0  0  0
 25 21  1  1  0  0  0
 21 19  1  0  0  0  0
 16  1  1  0  0  0  0
 14  2  1  0  0  0  0
 20  9  1  0  0  0  0
  6  3  1  0  0  0  0
  9  4  2  0  0  0  0
  5  4  1  0  0  0  0
  6  5  2  0  0  0  0
  7  6  1  0  0  0  0
  8  7  2  0  0  0  0
  9  8  1  0  0  0  0
 18 10  2  0  0  0  0
 20 11  1  0  0  0  0
 12 11  1  0  0  0  0
 17 12  2  0  0  0  0
 13 12  1  0  0  0  0
 14 13  2  0  0  0  0
 15 14  1  0  0  0  0
 16 15  2  0  0  0  0
 17 16  1  0  0  0  0
 18 17  1  0  0  0  0
 19 18  1  0  0  0  0
 20 19  2  0  0  0  0
 28 22  1  6  0  0  0
 27 23  1  1  0  0  0
 26 24  1  6  0  0  0
 30 25  1  0  0  0  0
 26 25  1  0  0  0  0
 27 26  1  0  0  0  0
 28 27  1  0  0  0  0
 29 28  1  0  0  0  0
 30 29  1  0  0  0  0
 32 31  1  0  0  0  0
 36 33  2  0  0  0  0
 38 34  1  0  0  0  0
 38 35  2  0  0  0  0
 37 36  1  0  0  0  0
 38 37  1  0  0  0  0
 39 40  1  0  0  0  0
 40 41  1  0  0  0  0
 41 42  1  0  0  0  0
 42 43  1  0  0  0  0
 43 44  1  0  0  0  0
 44 39  1  0  0  0  0
 39 45  1  6  0  0  0
 41 46  1  6  0  0  0
 42 47  1  6  0  0  0
 40 48  1  1  0  0  0
 43  2  1  1  0  0  0
M  END
>  <cdx:fragmentId>
41

$$$$
