94590.cdx
  Mrv1902 05222410232D          

 11 10  0  0  0  0            999 V2000
    4.7550   -8.1538    0.0000 C   0  0  0  0  0  0  0  0  0  0  0  0
    5.4695   -7.7413    0.0000 C   0  0  0  0  0  0  0  0  0  0  0  0
    6.1840   -8.1538    0.0000 C   0  0  0  0  0  0  0  0  0  0  0  0
    6.8984   -7.7413    0.0000 C   0  0  0  0  0  0  0  0  0  0  0  0
    7.6129   -8.1538    0.0000 C   0  0  0  0  0  0  0  0  0  0  0  0
    8.3274   -7.7413    0.0000 C   0  0  0  0  0  0  0  0  0  0  0  0
    9.0419   -8.1538    0.0000 C   0  0  0  0  0  0  0  0  0  0  0  0
    9.7563   -7.7413    0.0000 C   0  0  0  0  0  0  0  0  0  0  0  0
    5.4695   -6.9162    0.0000 O   0  0  0  0  0  0  0  0  0  0  0  0
    7.9149   -7.0268    0.0000 O   0  0  0  0  0  0  0  0  0  0  0  0
    8.7399   -7.0268    0.0000 C   0  0  0  0  0  0  0  0  0  0  0  0
  1  2  1  0  0  0  0
  2  3  1  0  0  0  0
  3  4  1  0  0  0  0
  4  5  2  0  0  0  0
  5  6  1  0  0  0  0
  6  7  1  0  0  0  0
  7  8  2  0  0  0  0
  2  9  2  0  0  0  0
  6 10  1  0  0  0  0
  6 11  1  0  0  0  0
M  END
>  <cdx:fragmentId>
3

$$$$
