94595.cdx
  Mrv1902 05222410212D          

 52 57  0  0  0  0            999 V2000
    6.7082   -7.3593    0.0000 O   0  0  0  0  0  0  0  0  0  0  0  0
    5.2954   -4.8751    0.0000 O   0  0  0  0  0  0  0  0  0  0  0  0
   11.7336   -3.6794    0.0000 O   0  0  0  0  0  0  0  0  0  0  0  0
    9.5875   -4.0779    0.0000 C   0  0  0  0  0  0  0  0  0  0  0  0
   10.3047   -3.6701    0.0000 C   0  0  0  0  0  0  0  0  0  0  0  0
   11.0164   -4.0872    0.0000 C   0  0  0  0  0  0  0  0  0  0  0  0
   11.0111   -4.9122    0.0000 C   0  0  0  0  0  0  0  0  0  0  0  0
   10.2939   -5.3200    0.0000 C   0  0  0  0  0  0  0  0  0  0  0  0
    9.5822   -4.9029    0.0000 C   0  0  0  0  0  0  0  0  0  0  0  0
    8.1372   -7.3686    0.0000 O   0  0  0  0  0  0  0  0  0  0  0  0
    8.1532   -4.8936    0.0000 O   0  0  0  0  0  0  0  0  0  0  0  0
    7.4361   -5.3015    0.0000 C   0  0  0  0  0  0  0  0  0  0  0  0
    6.7243   -4.8843    0.0000 C   0  0  0  0  0  0  0  0  0  0  0  0
    6.0072   -5.2922    0.0000 C   0  0  0  0  0  0  0  0  0  0  0  0
    6.0018   -6.1172    0.0000 C   0  0  0  0  0  0  0  0  0  0  0  0
    6.7136   -6.5343    0.0000 C   0  0  0  0  0  0  0  0  0  0  0  0
    7.4307   -6.1265    0.0000 C   0  0  0  0  0  0  0  0  0  0  0  0
    8.1425   -6.5436    0.0000 C   0  0  0  0  0  0  0  0  0  0  0  0
    8.8597   -6.1357    0.0000 C   0  0  0  0  0  0  0  0  0  0  0  0
    8.8650   -5.3108    0.0000 C   0  0  0  0  0  0  0  0  0  0  0  0
    9.5714   -6.5529    0.0000 O   0  0  0  0  0  0  0  0  0  0  0  0
    3.1468   -5.2800    0.0000 C   0  0  1  0  0  0  0  0  0  0  0  0
    3.1468   -6.1050    0.0000 C   0  0  1  0  0  0  0  0  0  0  0  0
    3.8613   -6.5175    0.0000 C   0  0  2  0  0  0  0  0  0  0  0  0
    4.5757   -6.1050    0.0000 C   0  0  2  0  0  0  0  0  0  0  0  0
    4.5757   -5.2800    0.0000 C   0  0  1  0  0  0  0  0  0  0  0  0
    3.8613   -4.8675    0.0000 O   0  0  0  0  0  0  0  0  0  0  0  0
    2.4323   -4.8675    0.0000 C   0  0  0  0  0  0  0  0  0  0  0  0
    3.8613   -7.3425    0.0000 O   0  0  0  0  0  0  0  0  0  0  0  0
    5.2902   -6.5175    0.0000 O   0  0  0  0  0  0  0  0  0  0  0  0
    2.4323   -6.5175    0.0000 O   0  0  0  0  0  0  0  0  0  0  0  0
    9.5714   -7.3779    0.0000 C   0  0  2  0  0  0  0  0  0  0  0  0
    8.8570   -7.7904    0.0000 O   0  0  0  0  0  0  0  0  0  0  0  0
    8.8570   -8.6154    0.0000 C   0  0  1  0  0  0  0  0  0  0  0  0
    9.5714   -9.0279    0.0000 C   0  0  2  0  0  0  0  0  0  0  0  0
   10.2859   -8.6154    0.0000 C   0  0  1  0  0  0  0  0  0  0  0  0
   10.2859   -7.7904    0.0000 C   0  0  1  0  0  0  0  0  0  0  0  0
    8.1425   -9.0279    0.0000 C   0  0  0  0  0  0  0  0  0  0  0  0
   11.0004   -9.0279    0.0000 O   0  0  0  0  0  0  0  0  0  0  0  0
    9.5714   -9.8529    0.0000 O   0  0  0  0  0  0  0  0  0  0  0  0
   11.0004   -7.3779    0.0000 O   0  0  0  0  0  0  0  0  0  0  0  0
    8.1425   -9.8529    0.0000 O   0  0  0  0  0  0  0  0  0  0  0  0
    7.4280  -10.2654    0.0000 C   0  0  2  0  0  0  0  0  0  0  0  0
    6.7135   -9.8529    0.0000 O   0  0  0  0  0  0  0  0  0  0  0  0
    5.9991  -10.2654    0.0000 C   0  0  2  0  0  0  0  0  0  0  0  0
    5.9991  -11.0904    0.0000 C   0  0  1  0  0  0  0  0  0  0  0  0
    6.7135  -11.5029    0.0000 C   0  0  2  0  0  0  0  0  0  0  0  0
    7.4280  -11.0904    0.0000 C   0  0  1  0  0  0  0  0  0  0  0  0
    5.2846  -11.5029    0.0000 O   0  0  0  0  0  0  0  0  0  0  0  0
    5.2846   -9.8529    0.0000 C   0  0  0  0  0  0  0  0  0  0  0  0
    6.7135  -12.3279    0.0000 O   0  0  0  0  0  0  0  0  0  0  0  0
    8.1425  -11.5029    0.0000 O   0  0  0  0  0  0  0  0  0  0  0  0
 21 19  1  0  0  0  0
 16  1  1  0  0  0  0
 14  2  1  0  0  0  0
 20  9  1  0  0  0  0
  6  3  1  0  0  0  0
  9  4  2  0  0  0  0
  5  4  1  0  0  0  0
  6  5  2  0  0  0  0
  7  6  1  0  0  0  0
  8  7  2  0  0  0  0
  9  8  1  0  0  0  0
 18 10  2  0  0  0  0
 20 11  1  0  0  0  0
 12 11  1  0  0  0  0
 17 12  2  0  0  0  0
 13 12  1  0  0  0  0
 14 13  2  0  0  0  0
 15 14  1  0  0  0  0
 16 15  2  0  0  0  0
 17 16  1  0  0  0  0
 18 17  1  0  0  0  0
 19 18  1  0  0  0  0
 20 19  2  0  0  0  0
 22 23  1  0  0  0  0
 23 24  1  0  0  0  0
 24 25  1  0  0  0  0
 25 26  1  0  0  0  0
 26 27  1  0  0  0  0
 27 22  1  0  0  0  0
 22 28  1  6  0  0  0
 24 29  1  6  0  0  0
 25 30  1  6  0  0  0
 23 31  1  1  0  0  0
 26  2  1  1  0  0  0
 32 21  1  1  0  0  0
 32 33  1  0  0  0  0
 33 34  1  0  0  0  0
 34 35  1  0  0  0  0
 35 36  1  0  0  0  0
 36 37  1  0  0  0  0
 37 32  1  0  0  0  0
 34 38  1  1  0  0  0
 36 39  1  1  0  0  0
 35 40  1  6  0  0  0
 37 41  1  6  0  0  0
 38 42  1  0  0  0  0
 43 42  1  1  0  0  0
 43 44  1  0  0  0  0
 44 45  1  0  0  0  0
 45 46  1  0  0  0  0
 46 47  1  0  0  0  0
 47 48  1  0  0  0  0
 48 43  1  0  0  0  0
 46 49  1  1  0  0  0
 45 50  1  6  0  0  0
 47 51  1  6  0  0  0
 48 52  1  6  0  0  0
M  END
>  <cdx:fragmentId>
41

$$$$
