94598.cdx
  Mrv1902 05222410252D          

 31 34  0  0  0  0            999 V2000
    6.1168   -5.5962    0.0000 C   0  0  0  0  0  0  0  0  0  0  0  0
    6.1168   -6.4213    0.0000 C   0  0  0  0  0  0  0  0  0  0  0  0
    6.8313   -6.8338    0.0000 C   0  0  0  0  0  0  0  0  0  0  0  0
    7.5457   -6.4213    0.0000 C   0  0  0  0  0  0  0  0  0  0  0  0
    7.5457   -5.5962    0.0000 C   0  0  0  0  0  0  0  0  0  0  0  0
    6.8313   -5.1837    0.0000 C   0  0  0  0  0  0  0  0  0  0  0  0
    5.4023   -5.1837    0.0000 O   0  0  0  0  0  0  0  0  0  0  0  0
    4.6879   -5.5962    0.0000 C   0  0  0  0  0  0  0  0  0  0  0  0
    6.8313   -4.3587    0.0000 O   0  0  0  0  0  0  0  0  0  0  0  0
    6.1168   -3.9463    0.0000 C   0  0  0  0  0  0  0  0  0  0  0  0
    8.2602   -5.1837    0.0000 O   0  0  0  0  0  0  0  0  0  0  0  0
    8.2602   -4.3587    0.0000 C   0  0  0  0  0  0  0  0  0  0  0  0
    6.8313   -7.6587    0.0000 C   0  0  1  0  0  0  0  0  0  0  0  0
    6.1638   -8.1437    0.0000 O   0  0  0  0  0  0  0  0  0  0  0  0
    6.4188   -8.9283    0.0000 C   0  0  0  0  0  0  0  0  0  0  0  0
    7.2438   -8.9283    0.0000 C   0  0  1  0  0  0  0  0  0  0  0  0
    7.4987   -8.1437    0.0000 C   0  0  2  0  0  0  0  0  0  0  0  0
    7.9112   -9.4132    0.0000 C   0  0  2  0  0  0  0  0  0  0  0  0
    8.5787   -8.9283    0.0000 O   0  0  0  0  0  0  0  0  0  0  0  0
    8.3237   -8.1437    0.0000 C   0  0  0  0  0  0  0  0  0  0  0  0
    7.7537   -7.3591    0.0000 H   0  0  0  0  0  0  0  0  0  0  0  0
    6.9888   -9.7129    0.0000 H   0  0  0  0  0  0  0  0  0  0  0  0
    7.9112  -10.2382    0.0000 C   0  0  0  0  0  0  0  0  0  0  0  0
    7.1967  -10.6507    0.0000 C   0  0  0  0  0  0  0  0  0  0  0  0
    7.1967  -11.4757    0.0000 C   0  0  0  0  0  0  0  0  0  0  0  0
    7.9112  -11.8882    0.0000 C   0  0  0  0  0  0  0  0  0  0  0  0
    8.6257  -11.4757    0.0000 C   0  0  0  0  0  0  0  0  0  0  0  0
    8.6257  -10.6507    0.0000 C   0  0  0  0  0  0  0  0  0  0  0  0
    7.9112  -12.7132    0.0000 O   0  0  0  0  0  0  0  0  0  0  0  0
    9.3402  -11.8882    0.0000 O   0  0  0  0  0  0  0  0  0  0  0  0
    9.3402  -12.7132    0.0000 C   0  0  0  0  0  0  0  0  0  0  0  0
  1  2  2  0  0  0  0
  2  3  1  0  0  0  0
  3  4  2  0  0  0  0
  4  5  1  0  0  0  0
  5  6  2  0  0  0  0
  6  1  1  0  0  0  0
  1  7  1  0  0  0  0
  7  8  1  0  0  0  0
  6  9  1  0  0  0  0
  9 10  1  0  0  0  0
  5 11  1  0  0  0  0
 11 12  1  0  0  0  0
 13  3  1  6  0  0  0
 13 14  1  0  0  0  0
 14 15  1  0  0  0  0
 15 16  1  0  0  0  0
 16 17  1  0  0  0  0
 17 13  1  0  0  0  0
 16 18  1  0  0  0  0
 18 19  1  0  0  0  0
 19 20  1  0  0  0  0
 20 17  1  0  0  0  0
 17 21  1  6  0  0  0
 16 22  1  6  0  0  0
 18 23  1  6  0  0  0
 23 24  2  0  0  0  0
 24 25  1  0  0  0  0
 25 26  2  0  0  0  0
 26 27  1  0  0  0  0
 27 28  2  0  0  0  0
 28 23  1  0  0  0  0
 26 29  1  0  0  0  0
 27 30  1  0  0  0  0
 30 31  1  0  0  0  0
M  END
>  <cdx:fragmentId>
5

$$$$
