945993.cdx
  Mrv1902 05222410192D          

 66 73  0  0  0  0            999 V2000
    5.3176  -12.0303    0.0000 O   0  0  0  0  0  0  0  0  0  0  0  0
    3.8150  -12.0657    0.0000 O   0  0  0  0  0  0  0  0  0  0  0  0
    4.5251  -12.4857    0.0000 C   0  0  2  0  0  0  0  0  0  0  0  0
    4.5164  -13.3106    0.0000 C   0  0  1  0  0  0  0  0  0  0  0  0
    3.7976  -13.7156    0.0000 C   0  0  2  0  0  0  0  0  0  0  0  0
    3.0875  -13.2956    0.0000 C   0  0  2  0  0  0  0  0  0  0  0  0
    3.0962  -12.4706    0.0000 C   0  0  0  0  0  0  0  0  0  0  0  0
    5.2265  -13.7306    0.0000 O   0  0  0  0  0  0  0  0  0  0  0  0
    4.4990  -14.9605    0.0000 O   0  0  0  0  0  0  0  0  0  0  0  0
    5.2178  -14.5556    0.0000 C   0  0  2  0  0  0  0  0  0  0  0  0
    5.9278  -14.9756    0.0000 C   0  0  1  0  0  0  0  0  0  0  0  0
    5.9191  -15.8006    0.0000 C   0  0  1  0  0  0  0  0  0  0  0  0
    5.2004  -16.2055    0.0000 C   0  0  2  0  0  0  0  0  0  0  0  0
    4.4903  -15.7855    0.0000 C   0  0  2  0  0  0  0  0  0  0  0  0
    3.7715  -16.1904    0.0000 C   0  0  0  0  0  0  0  0  0  0  0  0
    5.1917  -17.0305    0.0000 O   0  0  0  0  0  0  0  0  0  0  0  0
    6.6292  -16.2206    0.0000 O   0  0  0  0  0  0  0  0  0  0  0  0
    6.6466  -14.5707    0.0000 O   0  0  0  0  0  0  0  0  0  0  0  0
    2.3687  -13.7005    0.0000 O   0  0  0  0  0  0  0  0  0  0  0  0
    3.7889  -14.5405    0.0000 O   0  0  0  0  0  0  0  0  0  0  0  0
    8.1757   -9.5557    0.0000 C   0  0  0  0  0  0  0  0  0  0  0  0
    7.4613   -9.9682    0.0000 C   0  0  0  0  0  0  0  0  0  0  0  0
    7.4613  -10.7932    0.0000 C   0  0  1  0  0  0  0  0  0  0  0  0
    8.1757  -11.2057    0.0000 C   0  0  0  0  0  0  0  0  0  0  0  0
    8.8902  -10.7932    0.0000 C   0  0  2  0  0  0  0  0  0  0  0  0
    9.6047  -11.2057    0.0000 C   0  0  0  0  0  0  0  0  0  0  0  0
   10.3192  -10.7932    0.0000 C   0  0  0  0  0  0  0  0  0  0  0  0
   10.3192   -9.9682    0.0000 C   0  0  1  0  0  0  0  0  0  0  0  0
   11.0336   -9.5557    0.0000 C   0  0  2  0  0  0  0  0  0  0  0  0
   11.7481   -9.9682    0.0000 C   0  0  0  0  0  0  0  0  0  0  0  0
   12.4626   -9.5557    0.0000 C   0  0  0  0  0  0  0  0  0  0  0  0
   12.4626   -8.7307    0.0000 C   0  0  1  0  0  0  0  0  0  0  0  0
   13.1770   -8.3182    0.0000 C   0  0  1  0  0  0  0  0  0  0  0  0
   13.1770   -7.4932    0.0000 C   0  0  0  0  0  0  0  0  0  0  0  0
   12.4626   -7.0807    0.0000 C   0  0  0  0  0  0  0  0  0  0  0  0
   11.7481   -7.4932    0.0000 C   0  0  0  0  0  0  0  0  0  0  0  0
   11.7481   -8.3182    0.0000 C   0  0  1  0  0  0  0  0  0  0  0  0
   11.0336   -8.7307    0.0000 C   0  0  0  0  0  0  0  0  0  0  0  0
   10.3192   -8.3182    0.0000 C   0  0  0  0  0  0  0  0  0  0  0  0
    9.6047   -8.7307    0.0000 C   0  0  0  0  0  0  0  0  0  0  0  0
    9.6047   -9.5557    0.0000 C   0  0  2  0  0  0  0  0  0  0  0  0
    8.8902   -9.9682    0.0000 C   0  0  1  0  0  0  0  0  0  0  0  0
    8.8902   -9.1432    0.0000 C   0  0  0  0  0  0  0  0  0  0  0  0
   12.0501   -6.3662    0.0000 C   0  0  0  0  0  0  0  0  0  0  0  0
   12.8751   -6.3662    0.0000 C   0  0  0  0  0  0  0  0  0  0  0  0
   13.1770   -9.1432    0.0000 C   0  0  0  0  0  0  0  0  0  0  0  0
   11.0336  -10.3807    0.0000 C   0  0  0  0  0  0  0  0  0  0  0  0
   10.3192   -9.1432    0.0000 C   0  0  0  0  0  0  0  0  0  0  0  0
    8.5882  -11.9201    0.0000 C   0  0  0  0  0  0  0  0  0  0  0  0
    7.7632  -11.9201    0.0000 C   0  0  0  0  0  0  0  0  0  0  0  0
   13.8915   -8.7307    0.0000 O   0  0  0  0  0  0  0  0  0  0  0  0
    8.8902  -11.6182    0.0000 H   0  0  0  0  0  0  0  0  0  0  0  0
   11.7481   -9.1432    0.0000 H   0  0  0  0  0  0  0  0  0  0  0  0
    9.6047  -10.3807    0.0000 H   0  0  0  0  0  0  0  0  0  0  0  0
    6.7468  -11.2057    0.0000 O   0  0  0  0  0  0  0  0  0  0  0  0
    3.8894   -9.5549    0.0000 O   0  0  0  0  0  0  0  0  0  0  0  0
    3.8889  -11.2049    0.0000 O   0  0  0  0  0  0  0  0  0  0  0  0
    4.6042   -8.3176    0.0000 O   0  0  0  0  0  0  0  0  0  0  0  0
    6.0332   -8.3180    0.0000 O   0  0  0  0  0  0  0  0  0  0  0  0
    5.3186   -8.7303    0.0000 C   0  0  0  0  0  0  0  0  0  0  0  0
    6.0325  -10.7930    0.0000 C   0  0  1  0  0  0  0  0  0  0  0  0
    5.3179  -11.2053    0.0000 C   0  0  1  0  0  0  0  0  0  0  0  0
    4.6035  -10.7926    0.0000 C   0  0  2  0  0  0  0  0  0  0  0  0
    4.6038   -9.9676    0.0000 C   0  0  1  0  0  0  0  0  0  0  0  0
    5.3183   -9.5553    0.0000 C   0  0  2  0  0  0  0  0  0  0  0  0
    6.0327   -9.9680    0.0000 O   0  0  0  0  0  0  0  0  0  0  0  0
 61 55  1  1  0  0  0
 62  1  1  6  0  0  0
  2  3  1  0  0  0  0
 64 56  1  6  0  0  0
 63 57  1  1  0  0  0
 65 60  1  1  0  0  0
 60 58  1  0  0  0  0
 60 59  2  0  0  0  0
 66 61  1  0  0  0  0
 62 61  1  0  0  0  0
 63 62  1  0  0  0  0
 64 63  1  0  0  0  0
 65 64  1  0  0  0  0
 66 65  1  0  0  0  0
  3  4  1  0  0  0  0
  4  5  1  0  0  0  0
  5  6  1  0  0  0  0
  6  7  1  0  0  0  0
  2  7  1  0  0  0  0
  9 10  1  0  0  0  0
 10 11  1  0  0  0  0
 11 12  1  0  0  0  0
 12 13  1  0  0  0  0
 13 14  1  0  0  0  0
  9 14  1  0  0  0  0
 14 15  1  6  0  0  0
 13 16  1  1  0  0  0
 12 17  1  6  0  0  0
 11 18  1  6  0  0  0
 10  8  1  1  0  0  0
  4  8  1  6  0  0  0
  6 19  1  1  0  0  0
  5 20  1  1  0  0  0
  3  1  1  1  0  0  0
 21 22  1  0  0  0  0
 22 23  1  0  0  0  0
 23 24  1  0  0  0  0
 24 25  1  0  0  0  0
 25 26  1  0  0  0  0
 26 27  1  0  0  0  0
 27 28  1  0  0  0  0
 28 29  1  0  0  0  0
 29 30  1  0  0  0  0
 30 31  1  0  0  0  0
 31 32  1  0  0  0  0
 32 33  1  0  0  0  0
 33 34  1  0  0  0  0
 34 35  1  0  0  0  0
 35 36  1  0  0  0  0
 36 37  1  0  0  0  0
 32 37  1  0  0  0  0
 37 38  1  0  0  0  0
 29 38  1  0  0  0  0
 38 39  2  0  0  0  0
 39 40  1  0  0  0  0
 40 41  1  0  0  0  0
 28 41  1  0  0  0  0
 41 42  1  0  0  0  0
 25 42  1  0  0  0  0
 21 42  1  0  0  0  0
 42 43  1  1  0  0  0
 35 44  1  0  0  0  0
 35 45  1  0  0  0  0
 32 46  1  1  0  0  0
 29 47  1  6  0  0  0
 28 48  1  1  0  0  0
 24 49  1  0  0  0  0
 24 50  1  0  0  0  0
 33 51  1  1  0  0  0
 23 55  1  1  0  0  0
 25 52  1  6  0  0  0
 37 53  1  1  0  0  0
 41 54  1  6  0  0  0
M  END
>  <cdx:groupId>
225419

>  <cdx:fragmentId>
225281

$$$$
