94599.cdx
  Mrv1902 05222410262D          

 35 38  0  0  0  0            999 V2000
    8.8720   -6.9171    0.0000 O   0  0  0  0  0  0  0  0  0  0  0  0
   10.7830   -7.9718    0.0000 C   0  0  0  0  0  0  0  0  0  0  0  0
   10.2310   -7.3587    0.0000 C   0  0  2  0  0  0  0  0  0  0  0  0
    9.4240   -7.5302    0.0000 C   0  0  2  0  0  0  0  0  0  0  0  0
    9.1691   -8.3148    0.0000 C   0  0  0  0  0  0  0  0  0  0  0  0
    8.3621   -8.4864    0.0000 C   0  0  1  0  0  0  0  0  0  0  0  0
    7.8101   -7.8733    0.0000 C   0  0  0  0  0  0  0  0  0  0  0  0
    4.4646  -10.3509    0.0000 C   0  0  0  0  0  0  0  0  0  0  0  0
    3.7502  -10.7634    0.0000 C   0  0  0  0  0  0  0  0  0  0  0  0
    3.7502  -11.5884    0.0000 C   0  0  0  0  0  0  0  0  0  0  0  0
    4.4646  -12.0009    0.0000 C   0  0  0  0  0  0  0  0  0  0  0  0
    5.1791  -11.5884    0.0000 C   0  0  2  0  0  0  0  0  0  0  0  0
    5.8936  -12.0009    0.0000 C   0  0  0  0  0  0  0  0  0  0  0  0
    6.6081  -11.5884    0.0000 C   0  0  0  0  0  0  0  0  0  0  0  0
    6.6081  -10.7634    0.0000 C   0  0  2  0  0  0  0  0  0  0  0  0
    7.3225  -10.3509    0.0000 C   0  0  1  0  0  0  0  0  0  0  0  0
    8.1072  -10.6059    0.0000 C   0  0  0  0  0  0  0  0  0  0  0  0
    8.5921   -9.9384    0.0000 C   0  0  0  0  0  0  0  0  0  0  0  0
    8.1072   -9.2710    0.0000 C   0  0  0  0  0  0  0  0  0  0  0  0
    7.3225   -9.5259    0.0000 C   0  0  0  0  0  0  0  0  0  0  0  0
    6.6081   -9.1134    0.0000 C   0  0  0  0  0  0  0  0  0  0  0  0
    5.8936   -9.5259    0.0000 C   0  0  0  0  0  0  0  0  0  0  0  0
    5.8936  -10.3509    0.0000 C   0  0  1  0  0  0  0  0  0  0  0  0
    5.1791  -10.7634    0.0000 C   0  0  1  0  0  0  0  0  0  0  0  0
    3.0357  -12.0009    0.0000 O   0  0  0  0  0  0  0  0  0  0  0  0
    7.3225  -11.1759    0.0000 C   0  0  0  0  0  0  0  0  0  0  0  0
    5.1791   -9.9384    0.0000 C   0  0  0  0  0  0  0  0  0  0  0  0
    6.6081   -9.9384    0.0000 C   0  0  0  0  0  0  0  0  0  0  0  0
    4.8771  -12.7154    0.0000 C   0  0  0  0  0  0  0  0  0  0  0  0
    4.0521  -12.7154    0.0000 C   0  0  0  0  0  0  0  0  0  0  0  0
   10.4859   -6.5741    0.0000 O   0  0  0  0  0  0  0  0  0  0  0  0
    5.1791  -12.4134    0.0000 H   0  0  0  0  0  0  0  0  0  0  0  0
    5.8936  -11.1759    0.0000 H   0  0  0  0  0  0  0  0  0  0  0  0
   10.5281   -8.7564    0.0000 C   0  0  0  0  0  0  0  0  0  0  0  0
   11.5900   -7.8003    0.0000 C   0  0  0  0  0  0  0  0  0  0  0  0
  2  3  1  0  0  0  0
  3  4  1  0  0  0  0
  4  5  1  0  0  0  0
  5  6  1  0  0  0  0
  6  7  1  6  0  0  0
  8  9  1  0  0  0  0
  9 10  1  0  0  0  0
 10 11  1  0  0  0  0
 11 12  1  0  0  0  0
 12 13  1  0  0  0  0
 13 14  1  0  0  0  0
 14 15  1  0  0  0  0
 15 16  1  0  0  0  0
 16 17  1  0  0  0  0
 17 18  1  0  0  0  0
 18 19  1  0  0  0  0
 19 20  2  0  0  0  0
 16 20  1  0  0  0  0
 20 21  1  0  0  0  0
 21 22  1  0  0  0  0
 22 23  1  0  0  0  0
 15 23  1  0  0  0  0
 23 24  1  0  0  0  0
 12 24  1  0  0  0  0
  8 24  1  0  0  0  0
 10 25  2  0  0  0  0
 16 26  1  1  0  0  0
 24 27  1  1  0  0  0
 15 28  1  6  0  0  0
 11 29  1  0  0  0  0
 11 30  1  0  0  0  0
  6 19  1  0  0  0  0
  3 31  1  6  0  0  0
  4  1  1  6  0  0  0
 12 32  1  6  0  0  0
 23 33  1  1  0  0  0
  2 34  1  0  0  0  0
  2 35  2  0  0  0  0
M  END
>  <cdx:fragmentId>
257787

$$$$
