94603.cdx
  Mrv1902 05222410242D          

 40 44  0  0  0  0            999 V2000
    3.7381   -7.9612    0.0000 C   0  0  0  0  0  0  0  0  0  0  0  0
    3.7381   -8.7862    0.0000 C   0  0  0  0  0  0  0  0  0  0  0  0
    4.4525   -9.1987    0.0000 C   0  0  0  0  0  0  0  0  0  0  0  0
    5.1670   -8.7862    0.0000 C   0  0  1  0  0  0  0  0  0  0  0  0
    5.1670   -7.9612    0.0000 C   0  0  2  0  0  0  0  0  0  0  0  0
    4.4525   -7.5488    0.0000 C   0  0  0  0  0  0  0  0  0  0  0  0
    5.8815   -9.1987    0.0000 C   0  0  0  0  0  0  0  0  0  0  0  0
    6.5959   -8.7862    0.0000 C   0  0  0  0  0  0  0  0  0  0  0  0
    6.5959   -7.9612    0.0000 C   0  0  1  0  0  0  0  0  0  0  0  0
    5.8815   -7.5488    0.0000 C   0  0  1  0  0  0  0  0  0  0  0  0
    7.3104   -7.5488    0.0000 C   0  0  2  0  0  0  0  0  0  0  0  0
    7.3104   -6.7237    0.0000 C   0  0  0  0  0  0  0  0  0  0  0  0
    6.5959   -6.3113    0.0000 C   0  0  0  0  0  0  0  0  0  0  0  0
    5.8815   -6.7237    0.0000 C   0  0  2  0  0  0  0  0  0  0  0  0
    8.0950   -7.8037    0.0000 C   0  0  0  0  0  0  0  0  0  0  0  0
    8.5800   -7.1362    0.0000 C   0  0  1  0  0  0  0  0  0  0  0  0
    8.0950   -6.4688    0.0000 C   0  0  0  0  0  0  0  0  0  0  0  0
    3.0236   -9.1987    0.0000 O   0  0  0  0  0  0  0  0  0  0  0  0
    4.8650   -9.9132    0.0000 C   0  0  0  0  0  0  0  0  0  0  0  0
    5.1670   -7.1362    0.0000 C   0  0  0  0  0  0  0  0  0  0  0  0
    7.3104   -8.3737    0.0000 C   0  0  0  0  0  0  0  0  0  0  0  0
    6.5959   -7.1362    0.0000 C   0  0  0  0  0  0  0  0  0  0  0  0
    4.0400   -9.9132    0.0000 C   0  0  0  0  0  0  0  0  0  0  0  0
    5.1670   -6.3113    0.0000 O   0  0  0  0  0  0  0  0  0  0  0  0
    9.4041   -7.1733    0.0000 O   0  0  0  0  0  0  0  0  0  0  0  0
    9.9469   -6.5520    0.0000 C   0  0  2  0  0  0  0  0  0  0  0  0
    9.7996   -5.7402    0.0000 C   0  0  2  0  0  0  0  0  0  0  0  0
    9.0731   -5.3493    0.0000 C   0  0  0  0  0  0  0  0  0  0  0  0
    8.3145   -5.6735    0.0000 C   0  0  1  0  0  0  0  0  0  0  0  0
    7.6932   -5.1307    0.0000 C   0  0  0  0  0  0  0  0  0  0  0  0
   10.4671   -5.2553    0.0000 O   0  0  0  0  0  0  0  0  0  0  0  0
   10.7422   -6.7715    0.0000 C   0  0  0  0  0  0  0  0  0  0  0  0
   10.4671   -4.4303    0.0000 C   0  0  0  0  0  0  0  0  0  0  0  0
   11.1815   -4.0178    0.0000 C   0  0  0  0  0  0  0  0  0  0  0  0
    9.7526   -4.0178    0.0000 O   0  0  0  0  0  0  0  0  0  0  0  0
   11.3299   -6.1925    0.0000 C   0  0  0  0  0  0  0  0  0  0  0  0
   10.9498   -7.5699    0.0000 C   0  0  0  0  0  0  0  0  0  0  0  0
   11.5391   -6.9850    0.0000 O   0  0  0  0  0  0  0  0  0  0  0  0
    5.1670   -9.6112    0.0000 H   0  0  0  0  0  0  0  0  0  0  0  0
    5.8815   -8.3737    0.0000 H   0  0  0  0  0  0  0  0  0  0  0  0
  1  2  1  0  0  0  0
  2  3  1  0  0  0  0
  3  4  1  0  0  0  0
  4  5  1  0  0  0  0
  5  6  1  0  0  0  0
  6  1  1  0  0  0  0
  4  7  1  0  0  0  0
  7  8  1  0  0  0  0
  8  9  1  0  0  0  0
  9 10  1  0  0  0  0
 10  5  1  0  0  0  0
  9 11  1  0  0  0  0
 11 12  1  0  0  0  0
 12 13  1  0  0  0  0
 13 14  1  0  0  0  0
 14 10  1  0  0  0  0
 11 15  1  0  0  0  0
 15 16  1  0  0  0  0
 16 17  1  0  0  0  0
 17 12  2  0  0  0  0
  2 18  2  0  0  0  0
  3 19  1  0  0  0  0
  5 20  1  1  0  0  0
 11 21  1  1  0  0  0
  9 22  1  6  0  0  0
  3 23  1  0  0  0  0
 14 24  1  1  0  0  0
 16 25  1  1  0  0  0
 25 26  1  0  0  0  0
 26 27  1  0  0  0  0
 27 28  1  0  0  0  0
 28 29  1  0  0  0  0
 29 17  1  0  0  0  0
 29 30  1  6  0  0  0
 27 31  1  6  0  0  0
 26 32  1  6  0  0  0
 31 33  1  0  0  0  0
 33 34  1  0  0  0  0
 33 35  2  0  0  0  0
 32 36  1  0  0  0  0
 32 37  1  0  0  0  0
 32 38  1  0  0  0  0
  4 39  1  6  0  0  0
 10 40  1  1  0  0  0
M  END
>  <cdx:fragmentId>
5

$$$$
