94606.cdx
  Mrv1902 05222410252D          

 29 32  0  0  0  0            999 V2000
    3.4356   -9.1987    0.0000 C   0  0  0  0  0  0  0  0  0  0  0  0
    3.4356  -10.0238    0.0000 C   0  0  0  0  0  0  0  0  0  0  0  0
    4.1500  -10.4363    0.0000 C   0  0  0  0  0  0  0  0  0  0  0  0
    4.8645  -10.0238    0.0000 C   0  0  1  0  0  0  0  0  0  0  0  0
    4.8645   -9.1987    0.0000 C   0  0  2  0  0  0  0  0  0  0  0  0
    4.1500   -8.7862    0.0000 C   0  0  0  0  0  0  0  0  0  0  0  0
    5.5790  -10.4363    0.0000 C   0  0  0  0  0  0  0  0  0  0  0  0
    6.2934  -10.0238    0.0000 C   0  0  0  0  0  0  0  0  0  0  0  0
    6.2934   -9.1987    0.0000 C   0  0  1  0  0  0  0  0  0  0  0  0
    5.5790   -8.7862    0.0000 C   0  0  1  0  0  0  0  0  0  0  0  0
    7.0079   -8.7862    0.0000 C   0  0  2  0  0  0  0  0  0  0  0  0
    7.0079   -7.9612    0.0000 C   0  0  0  0  0  0  0  0  0  0  0  0
    6.2934   -7.5488    0.0000 C   0  0  0  0  0  0  0  0  0  0  0  0
    5.5790   -7.9612    0.0000 C   0  0  0  0  0  0  0  0  0  0  0  0
    7.7925   -9.0412    0.0000 C   0  0  0  0  0  0  0  0  0  0  0  0
    8.2775   -8.3737    0.0000 C   0  0  0  0  0  0  0  0  0  0  0  0
    7.7925   -7.7063    0.0000 C   0  0  0  0  0  0  0  0  0  0  0  0
    2.7211  -10.4363    0.0000 O   0  0  0  0  0  0  0  0  0  0  0  0
    4.5625  -11.1507    0.0000 C   0  0  0  0  0  0  0  0  0  0  0  0
    4.8645   -8.3737    0.0000 C   0  0  0  0  0  0  0  0  0  0  0  0
    7.0079   -9.6112    0.0000 C   0  0  0  0  0  0  0  0  0  0  0  0
    6.2934   -8.3737    0.0000 C   0  0  0  0  0  0  0  0  0  0  0  0
    3.7375  -11.1507    0.0000 C   0  0  0  0  0  0  0  0  0  0  0  0
    8.0120   -6.9110    0.0000 C   0  0  0  0  0  0  0  0  0  0  0  0
    7.4330   -6.3233    0.0000 C   0  0  0  0  0  0  0  0  0  0  0  0
    8.8105   -6.7035    0.0000 O   0  0  0  0  0  0  0  0  0  0  0  0
    9.1025   -8.3737    0.0000 O   0  0  0  0  0  0  0  0  0  0  0  0
    4.8645  -10.8488    0.0000 H   0  0  0  0  0  0  0  0  0  0  0  0
    5.5790   -9.6112    0.0000 H   0  0  0  0  0  0  0  0  0  0  0  0
  1  2  1  0  0  0  0
  2  3  1  0  0  0  0
  3  4  1  0  0  0  0
  4  5  1  0  0  0  0
  5  6  1  0  0  0  0
  6  1  1  0  0  0  0
  4  7  1  0  0  0  0
  7  8  1  0  0  0  0
  8  9  1  0  0  0  0
  9 10  1  0  0  0  0
 10  5  1  0  0  0  0
  9 11  1  0  0  0  0
 11 12  1  0  0  0  0
 12 13  1  0  0  0  0
 13 14  2  0  0  0  0
 14 10  1  0  0  0  0
 11 15  1  0  0  0  0
 15 16  1  0  0  0  0
 16 17  1  0  0  0  0
 17 12  2  0  0  0  0
  2 18  2  0  0  0  0
  3 19  1  0  0  0  0
  5 20  1  1  0  0  0
 11 21  1  1  0  0  0
  9 22  1  6  0  0  0
  3 23  1  0  0  0  0
 24 17  1  0  0  0  0
 24 25  1  0  0  0  0
 24 26  2  0  0  0  0
 16 27  2  0  0  0  0
  4 28  1  6  0  0  0
 10 29  1  1  0  0  0
M  END
>  <cdx:fragmentId>
5

$$$$
