94605.cdx
  Mrv1902 05222410252D          

 42 45  0  0  0  0            999 V2000
    3.4356   -9.1987    0.0000 C   0  0  0  0  0  0  0  0  0  0  0  0
    3.4356  -10.0238    0.0000 C   0  0  0  0  0  0  0  0  0  0  0  0
    4.1500  -10.4363    0.0000 C   0  0  0  0  0  0  0  0  0  0  0  0
    4.8645  -10.0238    0.0000 C   0  0  1  0  0  0  0  0  0  0  0  0
    4.8645   -9.1987    0.0000 C   0  0  2  0  0  0  0  0  0  0  0  0
    4.1500   -8.7862    0.0000 C   0  0  0  0  0  0  0  0  0  0  0  0
    5.5790  -10.4363    0.0000 C   0  0  0  0  0  0  0  0  0  0  0  0
    6.2934  -10.0238    0.0000 C   0  0  0  0  0  0  0  0  0  0  0  0
    6.2934   -9.1987    0.0000 C   0  0  1  0  0  0  0  0  0  0  0  0
    5.5790   -8.7862    0.0000 C   0  0  1  0  0  0  0  0  0  0  0  0
    7.0079   -8.7862    0.0000 C   0  0  2  0  0  0  0  0  0  0  0  0
    7.0079   -7.9612    0.0000 C   0  0  0  0  0  0  0  0  0  0  0  0
    6.2934   -7.5488    0.0000 C   0  0  0  0  0  0  0  0  0  0  0  0
    5.5790   -7.9612    0.0000 C   0  0  2  0  0  0  0  0  0  0  0  0
    7.7925   -9.0412    0.0000 C   0  0  0  0  0  0  0  0  0  0  0  0
    8.2775   -8.3737    0.0000 C   0  0  0  0  0  0  0  0  0  0  0  0
    7.7925   -7.7063    0.0000 C   0  0  0  0  0  0  0  0  0  0  0  0
    2.7211  -10.4363    0.0000 O   0  0  0  0  0  0  0  0  0  0  0  0
    4.5625  -11.1507    0.0000 C   0  0  0  0  0  0  0  0  0  0  0  0
    4.8645   -8.3737    0.0000 C   0  0  0  0  0  0  0  0  0  0  0  0
    7.0941   -9.6067    0.0000 C   0  0  0  0  0  0  0  0  0  0  0  0
    6.2934   -8.3737    0.0000 C   0  0  0  0  0  0  0  0  0  0  0  0
    3.7375  -11.1507    0.0000 C   0  0  0  0  0  0  0  0  0  0  0  0
    8.0120   -6.9110    0.0000 C   0  0  2  0  0  0  0  0  0  0  0  0
    7.4330   -6.3233    0.0000 C   0  0  0  0  0  0  0  0  0  0  0  0
   11.0062   -2.8851    0.0000 C   0  0  0  0  0  0  0  0  0  0  0  0
   10.9939   -3.7100    0.0000 C   0  0  0  0  0  0  0  0  0  0  0  0
    9.3895   -7.2912    0.0000 O   0  0  0  0  0  0  0  0  0  0  0  0
   10.7669   -7.6713    0.0000 C   0  0  0  0  0  0  0  0  0  0  0  0
   10.1879   -7.0836    0.0000 C   0  0  0  0  0  0  0  0  0  0  0  0
    8.4510   -5.3205    0.0000 O   0  0  0  0  0  0  0  0  0  0  0  0
   10.2733   -4.1118    0.0000 O   0  0  0  0  0  0  0  0  0  0  0  0
   10.8448   -5.1189    0.0000 C   0  0  0  0  0  0  0  0  0  0  0  0
    4.8645   -7.5488    0.0000 O   0  0  0  0  0  0  0  0  0  0  0  0
    9.2510   -4.6919    0.0000 C   0  0  0  0  0  0  0  0  0  0  0  0
   10.4074   -6.2884    0.0000 O   0  0  0  0  0  0  0  0  0  0  0  0
   10.0479   -4.9054    0.0000 C   0  0  0  0  0  0  0  0  0  0  0  0
    9.8284   -5.7007    0.0000 C   0  0  1  0  0  0  0  0  0  0  0  0
    9.0300   -5.9082    0.0000 C   0  0  2  0  0  0  0  0  0  0  0  0
    8.8105   -6.7035    0.0000 C   0  0  0  0  0  0  0  0  0  0  0  0
    4.8645  -10.8488    0.0000 H   0  0  0  0  0  0  0  0  0  0  0  0
    5.5790   -9.6112    0.0000 H   0  0  0  0  0  0  0  0  0  0  0  0
  1  2  1  0  0  0  0
  2  3  1  0  0  0  0
  3  4  1  0  0  0  0
  4  5  1  0  0  0  0
  5  6  1  0  0  0  0
  6  1  1  0  0  0  0
  4  7  1  0  0  0  0
  7  8  1  0  0  0  0
  8  9  1  0  0  0  0
  9 10  1  0  0  0  0
 10  5  1  0  0  0  0
  9 11  1  0  0  0  0
 11 12  1  0  0  0  0
 12 13  1  0  0  0  0
 13 14  1  0  0  0  0
 14 10  1  0  0  0  0
 11 15  1  0  0  0  0
 15 16  1  0  0  0  0
 16 17  1  0  0  0  0
 17 12  2  0  0  0  0
  2 18  2  0  0  0  0
  3 19  1  0  0  0  0
  5 20  1  1  0  0  0
 11 21  1  1  0  0  0
  9 22  1  6  0  0  0
  3 23  1  0  0  0  0
 24 17  1  0  0  0  0
 24 25  1  6  0  0  0
 27 26  1  0  0  0  0
 24 40  1  0  0  0  0
 32 27  1  0  0  0  0
 30 28  2  0  0  0  0
 30 29  1  0  0  0  0
 36 30  1  0  0  0  0
 39 31  1  6  0  0  0
 37 32  1  0  0  0  0
 37 33  1  0  0  0  0
 37 35  1  0  0  0  0
 14 34  1  1  0  0  0
 38 36  1  6  0  0  0
 38 37  1  0  0  0  0
 39 38  1  0  0  0  0
 40 39  1  0  0  0  0
  4 41  1  6  0  0  0
 10 42  1  1  0  0  0
M  END
>  <cdx:fragmentId>
5

$$$$
