94600.cdx
  Mrv1902 05222410232D          

 18 19  0  0  0  0            999 V2000
    6.3735   -7.9888    0.0000 C   0  0  1  0  0  0  0  0  0  0  0  0
    6.3735   -8.8138    0.0000 C   0  0  1  0  0  0  0  0  0  0  0  0
    7.0185   -9.3281    0.0000 C   0  0  0  0  0  0  0  0  0  0  0  0
    7.8228   -9.1445    0.0000 C   0  0  0  0  0  0  0  0  0  0  0  0
    8.1807   -8.4013    0.0000 C   0  0  0  0  0  0  0  0  0  0  0  0
    7.8228   -7.6580    0.0000 C   0  0  0  0  0  0  0  0  0  0  0  0
    7.0185   -7.4744    0.0000 C   0  0  0  0  0  0  0  0  0  0  0  0
    5.5888   -7.7338    0.0000 C   0  0  0  0  0  0  0  0  0  0  0  0
    5.1039   -8.4013    0.0000 C   0  0  0  0  0  0  0  0  0  0  0  0
    5.5888   -9.0687    0.0000 C   0  0  2  0  0  0  0  0  0  0  0  0
    8.3372   -9.7896    0.0000 C   0  0  0  0  0  0  0  0  0  0  0  0
    8.0358  -10.5575    0.0000 C   0  0  0  0  0  0  0  0  0  0  0  0
    9.1530   -9.6666    0.0000 O   0  0  0  0  0  0  0  0  0  0  0  0
    6.8349   -6.6701    0.0000 C   0  0  0  0  0  0  0  0  0  0  0  0
    5.5888   -9.8937    0.0000 C   0  0  0  0  0  0  0  0  0  0  0  0
    6.3735   -7.1638    0.0000 H   0  0  0  0  0  0  0  0  0  0  0  0
    6.3735   -9.6387    0.0000 H   0  0  0  0  0  0  0  0  0  0  0  0
    4.8744   -9.4812    0.0000 O   0  0  0  0  0  0  0  0  0  0  0  0
  1  2  1  0  0  0  0
  2  3  1  0  0  0  0
  3  4  2  0  0  0  0
  4  5  1  0  0  0  0
  5  6  1  0  0  0  0
  6  7  1  0  0  0  0
  7  1  1  0  0  0  0
  1  8  1  0  0  0  0
  8  9  1  0  0  0  0
  9 10  1  0  0  0  0
 10  2  1  0  0  0  0
  4 11  1  0  0  0  0
 11 12  1  0  0  0  0
 11 13  2  0  0  0  0
  7 14  2  0  0  0  0
 10 15  1  1  0  0  0
  1 16  1  1  0  0  0
  2 17  1  6  0  0  0
 10 18  1  6  0  0  0
M  END
>  <cdx:fragmentId>
5

$$$$
