94609.cdx
  Mrv1902 05222410202D          

 26 29  0  0  0  0            999 V2000
    3.0231   -7.0125    0.0000 O   0  0  0  0  0  0  0  0  0  0  0  0
    3.7375   -7.4250    0.0000 C   0  0  0  0  0  0  0  0  0  0  0  0
    4.4520   -7.0125    0.0000 C   0  0  0  0  0  0  0  0  0  0  0  0
    4.4520   -6.1875    0.0000 C   0  0  0  0  0  0  0  0  0  0  0  0
    3.7375   -5.7750    0.0000 O   0  0  0  0  0  0  0  0  0  0  0  0
    5.1665   -7.4250    0.0000 C   0  0  0  0  0  0  0  0  0  0  0  0
    5.8809   -7.0125    0.0000 C   0  0  0  0  0  0  0  0  0  0  0  0
    5.8809   -6.1875    0.0000 C   0  0  0  0  0  0  0  0  0  0  0  0
    5.1665   -5.7750    0.0000 C   0  0  0  0  0  0  0  0  0  0  0  0
    6.5954   -7.4250    0.0000 C   0  0  0  0  0  0  0  0  0  0  0  0
    7.3099   -7.0125    0.0000 C   0  0  0  0  0  0  0  0  0  0  0  0
    7.3099   -6.1875    0.0000 C   0  0  0  0  0  0  0  0  0  0  0  0
    6.5954   -5.7750    0.0000 O   0  0  0  0  0  0  0  0  0  0  0  0
    8.0244   -7.4250    0.0000 C   0  0  0  0  0  0  0  0  0  0  0  0
    8.7388   -7.0125    0.0000 C   0  0  0  0  0  0  0  0  0  0  0  0
    8.7388   -6.1875    0.0000 C   0  0  0  0  0  0  0  0  0  0  0  0
    9.4533   -7.4250    0.0000 C   0  0  0  0  0  0  0  0  0  0  0  0
   10.1678   -7.0125    0.0000 C   0  0  0  0  0  0  0  0  0  0  0  0
   10.1678   -6.1875    0.0000 C   0  0  0  0  0  0  0  0  0  0  0  0
    9.4533   -5.7750    0.0000 C   0  0  0  0  0  0  0  0  0  0  0  0
   10.9524   -7.2674    0.0000 O   0  0  0  0  0  0  0  0  0  0  0  0
   11.4373   -6.6000    0.0000 C   0  0  0  0  0  0  0  0  0  0  0  0
   10.9524   -5.9326    0.0000 O   0  0  0  0  0  0  0  0  0  0  0  0
    5.1665   -4.9500    0.0000 C   0  0  0  0  0  0  0  0  0  0  0  0
    5.1665   -8.2500    0.0000 O   0  0  0  0  0  0  0  0  0  0  0  0
    6.5954   -8.2500    0.0000 O   0  0  0  0  0  0  0  0  0  0  0  0
  1  2  2  0  0  0  0
  2  3  1  0  0  0  0
  3  4  2  0  0  0  0
  4  5  1  0  0  0  0
  3  6  1  0  0  0  0
  6  7  2  0  0  0  0
  7  8  1  0  0  0  0
  8  9  2  0  0  0  0
  9  4  1  0  0  0  0
  7 10  1  0  0  0  0
 10 11  1  0  0  0  0
 11 12  2  0  0  0  0
 12 13  1  0  0  0  0
 13  8  1  0  0  0  0
 11 14  1  0  0  0  0
 14 15  1  0  0  0  0
 15 16  1  0  0  0  0
 15 17  2  0  0  0  0
 17 18  1  0  0  0  0
 18 19  2  0  0  0  0
 19 20  1  0  0  0  0
 20 16  2  0  0  0  0
 18 21  1  0  0  0  0
 21 22  1  0  0  0  0
 22 23  1  0  0  0  0
 23 19  1  0  0  0  0
  9 24  1  0  0  0  0
  6 25  1  0  0  0  0
 10 26  2  0  0  0  0
M  END
>  <cdx:fragmentId>
5

$$$$
