94619.cdx
  Mrv1902 05222410232D          

 46 50  0  0  0  0            999 V2000
    7.7024   -6.9635    0.0000 C   0  0  0  0  0  0  0  0  0  0  0  0
    7.7024   -7.7885    0.0000 C   0  0  0  0  0  0  0  0  0  0  0  0
    8.4168   -8.2010    0.0000 O   0  0  0  0  0  0  0  0  0  0  0  0
    6.9879   -8.2010    0.0000 C   0  0  0  0  0  0  0  0  0  0  0  0
    6.9879   -9.0260    0.0000 O   0  0  0  0  0  0  0  0  0  0  0  0
    6.2734   -7.7885    0.0000 C   0  0  0  0  0  0  0  0  0  0  0  0
    5.5590   -8.2010    0.0000 C   0  0  0  0  0  0  0  0  0  0  0  0
    5.5590   -9.0260    0.0000 O   0  0  0  0  0  0  0  0  0  0  0  0
    4.8445   -7.7885    0.0000 C   0  0  0  0  0  0  0  0  0  0  0  0
    4.8445   -6.9635    0.0000 C   0  0  0  0  0  0  0  0  0  0  0  0
    4.1300   -6.5510    0.0000 O   0  0  0  0  0  0  0  0  0  0  0  0
    5.5590   -6.5510    0.0000 C   0  0  0  0  0  0  0  0  0  0  0  0
    6.2734   -6.9635    0.0000 C   0  0  0  0  0  0  0  0  0  0  0  0
    6.9879   -6.5510    0.0000 O   0  0  0  0  0  0  0  0  0  0  0  0
    8.4168   -6.5510    0.0000 C   0  0  0  0  0  0  0  0  0  0  0  0
    9.1313   -6.9635    0.0000 C   0  0  0  0  0  0  0  0  0  0  0  0
    9.8458   -6.5510    0.0000 C   0  0  0  0  0  0  0  0  0  0  0  0
   10.5603   -6.9635    0.0000 O   0  0  0  0  0  0  0  0  0  0  0  0
   11.2747   -6.5510    0.0000 C   0  0  0  0  0  0  0  0  0  0  0  0
    9.8458   -5.7260    0.0000 C   0  0  0  0  0  0  0  0  0  0  0  0
   10.5603   -5.3135    0.0000 O   0  0  0  0  0  0  0  0  0  0  0  0
    9.1313   -5.3135    0.0000 C   0  0  0  0  0  0  0  0  0  0  0  0
    9.1313   -4.4885    0.0000 O   0  0  0  0  0  0  0  0  0  0  0  0
    9.8458   -4.0760    0.0000 C   0  0  0  0  0  0  0  0  0  0  0  0
    8.4168   -5.7260    0.0000 C   0  0  0  0  0  0  0  0  0  0  0  0
    8.4168   -9.0260    0.0000 C   0  0  1  0  0  0  0  0  0  0  0  0
    9.1313   -9.4385    0.0000 C   0  0  2  0  0  0  0  0  0  0  0  0
    9.8458   -9.0260    0.0000 O   0  0  0  0  0  0  0  0  0  0  0  0
    9.1313  -10.2635    0.0000 C   0  0  1  0  0  0  0  0  0  0  0  0
    9.8458  -10.6760    0.0000 O   0  0  0  0  0  0  0  0  0  0  0  0
    8.4168  -10.6760    0.0000 C   0  0  2  0  0  0  0  0  0  0  0  0
    8.4168  -11.5010    0.0000 O   0  0  0  0  0  0  0  0  0  0  0  0
    7.7024  -10.2635    0.0000 C   0  0  2  0  0  0  0  0  0  0  0  0
    7.7024   -9.4385    0.0000 O   0  0  0  0  0  0  0  0  0  0  0  0
    6.9879  -10.6760    0.0000 C   0  0  0  0  0  0  0  0  0  0  0  0
    6.2734  -10.2635    0.0000 O   0  0  0  0  0  0  0  0  0  0  0  0
    5.5590  -10.6760    0.0000 C   0  0  1  0  0  0  0  0  0  0  0  0
    5.5590  -11.5010    0.0000 C   0  0  2  0  0  0  0  0  0  0  0  0
    6.2734  -11.9135    0.0000 O   0  0  0  0  0  0  0  0  0  0  0  0
    4.8445  -11.9135    0.0000 C   0  0  2  0  0  0  0  0  0  0  0  0
    4.8445  -12.7385    0.0000 O   0  0  0  0  0  0  0  0  0  0  0  0
    4.1300  -11.5010    0.0000 C   0  0  1  0  0  0  0  0  0  0  0  0
    3.4155  -11.9135    0.0000 O   0  0  0  0  0  0  0  0  0  0  0  0
    4.1300  -10.6760    0.0000 C   0  0  1  0  0  0  0  0  0  0  0  0
    4.8445  -10.2635    0.0000 O   0  0  0  0  0  0  0  0  0  0  0  0
    3.4155  -10.2635    0.0000 C   0  0  0  0  0  0  0  0  0  0  0  0
  1  2  2  0  0  0  0
  2  3  1  0  0  0  0
  2  4  1  0  0  0  0
  4  5  2  0  0  0  0
  4  6  1  0  0  0  0
  6  7  1  0  0  0  0
  7  8  1  0  0  0  0
  7  9  2  0  0  0  0
  9 10  1  0  0  0  0
 10 11  1  0  0  0  0
 10 12  2  0  0  0  0
 12 13  1  0  0  0  0
  6 13  2  0  0  0  0
 13 14  1  0  0  0  0
  1 14  1  0  0  0  0
  1 15  1  0  0  0  0
 15 16  1  0  0  0  0
 16 17  2  0  0  0  0
 17 18  1  0  0  0  0
 18 19  1  0  0  0  0
 17 20  1  0  0  0  0
 20 21  1  0  0  0  0
 20 22  2  0  0  0  0
 22 23  1  0  0  0  0
 23 24  1  0  0  0  0
 22 25  1  0  0  0  0
 15 25  2  0  0  0  0
 26 27  1  0  0  0  0
 27 28  1  6  0  0  0
 27 29  1  0  0  0  0
 29 30  1  1  0  0  0
 29 31  1  0  0  0  0
 31 32  1  6  0  0  0
 31 33  1  0  0  0  0
 33 34  1  0  0  0  0
 33 35  1  1  0  0  0
 35 36  1  0  0  0  0
 26 34  1  0  0  0  0
 37 38  1  0  0  0  0
 38 39  1  6  0  0  0
 38 40  1  0  0  0  0
 40 41  1  6  0  0  0
 40 42  1  0  0  0  0
 42 43  1  1  0  0  0
 42 44  1  0  0  0  0
 44 45  1  0  0  0  0
 44 46  1  6  0  0  0
 37 45  1  0  0  0  0
 37 36  1  1  0  0  0
 26  3  1  1  0  0  0
M  END
>  <cdx:groupId>
144

>  <cdx:fragmentId>
5

$$$$
