94616.cdx
  Mrv1902 05222410242D          

 44 48  0  0  0  0            999 V2000
    6.8384   -6.4022    0.0000 C   0  0  0  0  0  0  0  0  0  0  0  0
    6.8384   -7.2272    0.0000 C   0  0  0  0  0  0  0  0  0  0  0  0
    7.5529   -7.6397    0.0000 O   0  0  0  0  0  0  0  0  0  0  0  0
    6.1239   -7.6397    0.0000 C   0  0  0  0  0  0  0  0  0  0  0  0
    6.1239   -8.4647    0.0000 O   0  0  0  0  0  0  0  0  0  0  0  0
    5.4095   -7.2272    0.0000 C   0  0  0  0  0  0  0  0  0  0  0  0
    4.6950   -7.6397    0.0000 C   0  0  0  0  0  0  0  0  0  0  0  0
    4.6950   -8.4647    0.0000 O   0  0  0  0  0  0  0  0  0  0  0  0
    3.9805   -7.2272    0.0000 C   0  0  0  0  0  0  0  0  0  0  0  0
    3.9805   -6.4022    0.0000 C   0  0  0  0  0  0  0  0  0  0  0  0
    3.2661   -5.9897    0.0000 O   0  0  0  0  0  0  0  0  0  0  0  0
    4.6950   -5.9897    0.0000 C   0  0  0  0  0  0  0  0  0  0  0  0
    5.4095   -6.4022    0.0000 C   0  0  0  0  0  0  0  0  0  0  0  0
    6.1239   -5.9897    0.0000 O   0  0  0  0  0  0  0  0  0  0  0  0
    7.5529   -5.9897    0.0000 C   0  0  0  0  0  0  0  0  0  0  0  0
    8.2674   -6.4022    0.0000 C   0  0  0  0  0  0  0  0  0  0  0  0
    8.9818   -5.9897    0.0000 C   0  0  0  0  0  0  0  0  0  0  0  0
    9.6963   -6.4022    0.0000 O   0  0  0  0  0  0  0  0  0  0  0  0
    8.9818   -5.1647    0.0000 C   0  0  0  0  0  0  0  0  0  0  0  0
    9.6963   -4.7522    0.0000 O   0  0  0  0  0  0  0  0  0  0  0  0
    8.2674   -4.7522    0.0000 C   0  0  0  0  0  0  0  0  0  0  0  0
    7.5529   -5.1647    0.0000 C   0  0  0  0  0  0  0  0  0  0  0  0
    7.5529   -8.4647    0.0000 C   0  0  1  0  0  0  0  0  0  0  0  0
    8.2674   -8.8772    0.0000 C   0  0  2  0  0  0  0  0  0  0  0  0
    8.9818   -8.4647    0.0000 O   0  0  0  0  0  0  0  0  0  0  0  0
    8.2674   -9.7022    0.0000 C   0  0  1  0  0  0  0  0  0  0  0  0
    8.9818  -10.1147    0.0000 O   0  0  0  0  0  0  0  0  0  0  0  0
    7.5529  -10.1147    0.0000 C   0  0  2  0  0  0  0  0  0  0  0  0
    7.5529  -10.9397    0.0000 O   0  0  0  0  0  0  0  0  0  0  0  0
    6.8384   -9.7022    0.0000 C   0  0  2  0  0  0  0  0  0  0  0  0
    6.8384   -8.8772    0.0000 O   0  0  0  0  0  0  0  0  0  0  0  0
    6.1239  -10.1147    0.0000 C   0  0  0  0  0  0  0  0  0  0  0  0
    5.4095   -9.7022    0.0000 O   0  0  0  0  0  0  0  0  0  0  0  0
    4.6950  -10.1147    0.0000 C   0  0  1  0  0  0  0  0  0  0  0  0
    4.6950  -10.9397    0.0000 C   0  0  2  0  0  0  0  0  0  0  0  0
    5.4095  -11.3522    0.0000 O   0  0  0  0  0  0  0  0  0  0  0  0
    3.9805  -11.3522    0.0000 C   0  0  2  0  0  0  0  0  0  0  0  0
    3.9805  -12.1772    0.0000 O   0  0  0  0  0  0  0  0  0  0  0  0
    3.2661  -10.9397    0.0000 C   0  0  1  0  0  0  0  0  0  0  0  0
    2.5516  -11.3522    0.0000 O   0  0  0  0  0  0  0  0  0  0  0  0
    3.2661  -10.1147    0.0000 C   0  0  1  0  0  0  0  0  0  0  0  0
    3.9805   -9.7022    0.0000 O   0  0  0  0  0  0  0  0  0  0  0  0
    2.5516   -9.7022    0.0000 C   0  0  0  0  0  0  0  0  0  0  0  0
    3.2661   -7.6397    0.0000 O   0  0  0  0  0  0  0  0  0  0  0  0
  1  2  2  0  0  0  0
  2  3  1  0  0  0  0
  2  4  1  0  0  0  0
  4  5  2  0  0  0  0
  4  6  1  0  0  0  0
  6  7  1  0  0  0  0
  7  8  1  0  0  0  0
  7  9  2  0  0  0  0
  9 10  1  0  0  0  0
 10 11  1  0  0  0  0
 10 12  2  0  0  0  0
 12 13  1  0  0  0  0
  6 13  2  0  0  0  0
 13 14  1  0  0  0  0
  1 14  1  0  0  0  0
  1 15  1  0  0  0  0
 15 16  1  0  0  0  0
 16 17  2  0  0  0  0
 17 18  1  0  0  0  0
 17 19  1  0  0  0  0
 19 20  1  0  0  0  0
 19 21  2  0  0  0  0
 21 22  1  0  0  0  0
 15 22  2  0  0  0  0
 23 24  1  0  0  0  0
 24 25  1  6  0  0  0
 24 26  1  0  0  0  0
 26 27  1  1  0  0  0
 26 28  1  0  0  0  0
 28 29  1  6  0  0  0
 28 30  1  0  0  0  0
 30 31  1  0  0  0  0
 30 32  1  1  0  0  0
 32 33  1  0  0  0  0
 23 31  1  0  0  0  0
 34 35  1  0  0  0  0
 35 36  1  6  0  0  0
 35 37  1  0  0  0  0
 37 38  1  6  0  0  0
 37 39  1  0  0  0  0
 39 40  1  1  0  0  0
 39 41  1  0  0  0  0
 41 42  1  0  0  0  0
 41 43  1  6  0  0  0
 34 42  1  0  0  0  0
 34 33  1  1  0  0  0
 23  3  1  1  0  0  0
  9 44  1  0  0  0  0
M  END
>  <cdx:groupId>
166

>  <cdx:fragmentId>
49

$$$$
