94625.cdx
  Mrv1902 05222410232D          

 49 54  0  0  0  0            999 V2000
    6.4743   -8.5388    0.0000 C   0  0  0  0  0  0  0  0  0  0  0  0
    6.4743   -9.3637    0.0000 C   0  0  1  0  0  0  0  0  0  0  0  0
    7.1888   -9.7763    0.0000 C   0  0  1  0  0  0  0  0  0  0  0  0
    7.9032   -9.3637    0.0000 C   0  0  0  0  0  0  0  0  0  0  0  0
    7.9032   -8.5388    0.0000 C   0  0  2  0  0  0  0  0  0  0  0  0
    7.1888   -8.1263    0.0000 C   0  0  0  0  0  0  0  0  0  0  0  0
    8.6177   -9.7763    0.0000 C   0  0  0  0  0  0  0  0  0  0  0  0
    9.3322   -9.3637    0.0000 C   0  0  0  0  0  0  0  0  0  0  0  0
    9.3322   -8.5388    0.0000 C   0  0  2  0  0  0  0  0  0  0  0  0
    8.6177   -8.1263    0.0000 C   0  0  0  0  0  0  0  0  0  0  0  0
   10.0467   -8.1263    0.0000 C   0  0  1  0  0  0  0  0  0  0  0  0
   10.0467   -7.3012    0.0000 C   0  0  0  0  0  0  0  0  0  0  0  0
    9.3322   -6.8888    0.0000 C   0  0  0  0  0  0  0  0  0  0  0  0
    8.6177   -7.3012    0.0000 C   0  0  0  0  0  0  0  0  0  0  0  0
   10.7611   -8.5388    0.0000 C   0  0  0  0  0  0  0  0  0  0  0  0
   11.4756   -8.1263    0.0000 C   0  0  0  0  0  0  0  0  0  0  0  0
   11.4756   -7.3012    0.0000 C   0  0  2  0  0  0  0  0  0  0  0  0
   10.7611   -6.8888    0.0000 C   0  0  0  0  0  0  0  0  0  0  0  0
   12.1901   -6.8888    0.0000 C   0  0  0  0  0  0  0  0  0  0  0  0
   12.1901   -6.0638    0.0000 C   0  0  2  0  0  0  0  0  0  0  0  0
   11.4756   -5.6512    0.0000 C   0  0  2  0  0  0  0  0  0  0  0  0
   10.7611   -6.0638    0.0000 C   0  0  2  0  0  0  0  0  0  0  0  0
    5.7598   -9.7763    0.0000 O   0  0  0  0  0  0  0  0  0  0  0  0
    6.7763  -10.4907    0.0000 C   0  0  0  0  0  0  0  0  0  0  0  0
    7.9032   -7.7138    0.0000 C   0  0  0  0  0  0  0  0  0  0  0  0
    9.3322   -7.7138    0.0000 C   0  0  0  0  0  0  0  0  0  0  0  0
   12.1901   -7.7138    0.0000 C   0  0  0  0  0  0  0  0  0  0  0  0
   12.9045   -5.6512    0.0000 H   0  0  0  0  0  0  0  0  0  0  0  0
   10.7611   -5.2387    0.0000 C   0  0  0  0  0  0  0  0  0  0  0  0
    7.6013  -10.4907    0.0000 C   0  0  0  0  0  0  0  0  0  0  0  0
   10.0467   -8.9513    0.0000 C   0  0  0  0  0  0  0  0  0  0  0  0
    8.4263  -10.4907    0.0000 O   0  0  0  0  0  0  0  0  0  0  0  0
   12.9045   -7.3012    0.0000 O   0  0  0  0  0  0  0  0  0  0  0  0
   12.1901   -8.5388    0.0000 O   0  0  0  0  0  0  0  0  0  0  0  0
    9.9642   -5.8502    0.0000 O   0  0  0  0  0  0  0  0  0  0  0  0
   11.4756   -4.8263    0.0000 C   0  0  0  0  0  0  0  0  0  0  0  0
    5.0454  -10.1888    0.0000 C   0  0  2  0  0  0  0  0  0  0  0  0
    4.3309   -9.7763    0.0000 O   0  0  0  0  0  0  0  0  0  0  0  0
    3.6164  -10.1888    0.0000 C   0  0  1  0  0  0  0  0  0  0  0  0
    3.6164  -11.0137    0.0000 C   0  0  2  0  0  0  0  0  0  0  0  0
    4.3309  -11.4262    0.0000 C   0  0  1  0  0  0  0  0  0  0  0  0
    5.0454  -11.0137    0.0000 C   0  0  1  0  0  0  0  0  0  0  0  0
    2.9019   -9.7763    0.0000 C   0  0  0  0  0  0  0  0  0  0  0  0
    4.3309  -12.2512    0.0000 O   0  0  0  0  0  0  0  0  0  0  0  0
    2.9019  -11.4262    0.0000 O   0  0  0  0  0  0  0  0  0  0  0  0
    5.7598  -11.4262    0.0000 O   0  0  0  0  0  0  0  0  0  0  0  0
    2.1875  -10.1888    0.0000 O   0  0  0  0  0  0  0  0  0  0  0  0
    2.9019   -8.9513    0.0000 O   0  0  0  0  0  0  0  0  0  0  0  0
    1.4730   -9.7763    0.0000 C   0  0  0  0  0  0  0  0  0  0  0  0
  1  2  1  0  0  0  0
  2  3  1  0  0  0  0
  3  4  1  0  0  0  0
  4  5  1  0  0  0  0
  5  6  1  0  0  0  0
  6  1  1  0  0  0  0
  4  7  1  0  0  0  0
  7  8  1  0  0  0  0
  8  9  1  0  0  0  0
  9 10  1  0  0  0  0
 10  5  1  0  0  0  0
  9 11  1  0  0  0  0
 11 12  1  0  0  0  0
 12 13  2  0  0  0  0
 13 14  1  0  0  0  0
 14 10  1  0  0  0  0
 11 15  1  0  0  0  0
 15 16  1  0  0  0  0
 16 17  1  0  0  0  0
 17 18  1  0  0  0  0
 18 12  1  0  0  0  0
 17 19  1  0  0  0  0
 19 20  1  0  0  0  0
 20 21  1  0  0  0  0
 21 22  1  0  0  0  0
 22 18  1  0  0  0  0
  2 23  1  1  0  0  0
  3 24  1  1  0  0  0
  5 25  1  1  0  0  0
  9 26  1  1  0  0  0
 17 27  1  1  0  0  0
 20 28  1  1  0  0  0
 22 29  1  0  0  0  0
  3 30  1  6  0  0  0
 11 31  1  6  0  0  0
 30 32  1  0  0  0  0
 27 33  2  0  0  0  0
 27 34  1  0  0  0  0
 22 35  1  6  0  0  0
 21 36  1  6  0  0  0
 37 23  1  1  0  0  0
 37 38  1  0  0  0  0
 38 39  1  0  0  0  0
 39 40  1  0  0  0  0
 40 41  1  0  0  0  0
 41 42  1  0  0  0  0
 42 37  1  0  0  0  0
 39 43  1  1  0  0  0
 41 44  1  1  0  0  0
 40 45  1  6  0  0  0
 42 46  1  6  0  0  0
 43 47  1  0  0  0  0
 43 48  2  0  0  0  0
 47 49  1  0  0  0  0
M  END
>  <cdx:fragmentId>
5

$$$$
