94626.cdx
  Mrv1902 05222410222D          

 44 49  0  0  0  0            999 V2000
    5.7043   -7.9888    0.0000 C   0  0  0  0  0  0  0  0  0  0  0  0
    5.7043   -8.8138    0.0000 C   0  0  1  0  0  0  0  0  0  0  0  0
    6.4188   -9.2263    0.0000 C   0  0  1  0  0  0  0  0  0  0  0  0
    7.1332   -8.8138    0.0000 C   0  0  0  0  0  0  0  0  0  0  0  0
    7.1332   -7.9888    0.0000 C   0  0  2  0  0  0  0  0  0  0  0  0
    6.4188   -7.5762    0.0000 C   0  0  0  0  0  0  0  0  0  0  0  0
    7.8477   -9.2263    0.0000 C   0  0  0  0  0  0  0  0  0  0  0  0
    8.5622   -8.8138    0.0000 C   0  0  0  0  0  0  0  0  0  0  0  0
    8.5622   -7.9888    0.0000 C   0  0  2  0  0  0  0  0  0  0  0  0
    7.8477   -7.5762    0.0000 C   0  0  0  0  0  0  0  0  0  0  0  0
    9.2767   -7.5762    0.0000 C   0  0  1  0  0  0  0  0  0  0  0  0
    9.2767   -6.7512    0.0000 C   0  0  0  0  0  0  0  0  0  0  0  0
    8.5622   -6.3388    0.0000 C   0  0  0  0  0  0  0  0  0  0  0  0
    7.8477   -6.7512    0.0000 C   0  0  0  0  0  0  0  0  0  0  0  0
    9.9911   -7.9888    0.0000 C   0  0  0  0  0  0  0  0  0  0  0  0
   10.7056   -7.5762    0.0000 C   0  0  0  0  0  0  0  0  0  0  0  0
   10.7056   -6.7512    0.0000 C   0  0  2  0  0  0  0  0  0  0  0  0
    9.9911   -6.3388    0.0000 C   0  0  0  0  0  0  0  0  0  0  0  0
   11.4201   -6.3388    0.0000 C   0  0  0  0  0  0  0  0  0  0  0  0
   11.4201   -5.5137    0.0000 C   0  0  2  0  0  0  0  0  0  0  0  0
   10.7056   -5.1013    0.0000 C   0  0  2  0  0  0  0  0  0  0  0  0
    9.9911   -5.5137    0.0000 C   0  0  2  0  0  0  0  0  0  0  0  0
    4.9898   -9.2263    0.0000 O   0  0  0  0  0  0  0  0  0  0  0  0
    6.0063   -9.9407    0.0000 C   0  0  0  0  0  0  0  0  0  0  0  0
    7.1332   -7.1638    0.0000 C   0  0  0  0  0  0  0  0  0  0  0  0
    8.5622   -7.1638    0.0000 C   0  0  0  0  0  0  0  0  0  0  0  0
   11.4201   -7.1638    0.0000 C   0  0  0  0  0  0  0  0  0  0  0  0
   12.1345   -5.1013    0.0000 H   0  0  0  0  0  0  0  0  0  0  0  0
    9.9911   -4.6888    0.0000 C   0  0  0  0  0  0  0  0  0  0  0  0
    6.8313   -9.9407    0.0000 C   0  0  0  0  0  0  0  0  0  0  0  0
    9.2767   -8.4013    0.0000 C   0  0  0  0  0  0  0  0  0  0  0  0
   12.1345   -6.7512    0.0000 O   0  0  0  0  0  0  0  0  0  0  0  0
   11.4201   -7.9888    0.0000 O   0  0  0  0  0  0  0  0  0  0  0  0
    9.1942   -5.3002    0.0000 O   0  0  0  0  0  0  0  0  0  0  0  0
   10.7056   -4.2763    0.0000 C   0  0  0  0  0  0  0  0  0  0  0  0
    4.2754   -9.6387    0.0000 C   0  0  2  0  0  0  0  0  0  0  0  0
    3.5609   -9.2263    0.0000 O   0  0  0  0  0  0  0  0  0  0  0  0
    2.8464   -9.6387    0.0000 C   0  0  0  0  0  0  0  0  0  0  0  0
    2.8464  -10.4637    0.0000 C   0  0  1  0  0  0  0  0  0  0  0  0
    3.5609  -10.8762    0.0000 C   0  0  1  0  0  0  0  0  0  0  0  0
    4.2754  -10.4637    0.0000 C   0  0  1  0  0  0  0  0  0  0  0  0
    3.5609  -11.7012    0.0000 O   0  0  0  0  0  0  0  0  0  0  0  0
    2.1319  -10.8762    0.0000 O   0  0  0  0  0  0  0  0  0  0  0  0
    4.9898  -10.8762    0.0000 O   0  0  0  0  0  0  0  0  0  0  0  0
  1  2  1  0  0  0  0
  2  3  1  0  0  0  0
  3  4  1  0  0  0  0
  4  5  1  0  0  0  0
  5  6  1  0  0  0  0
  6  1  1  0  0  0  0
  4  7  1  0  0  0  0
  7  8  1  0  0  0  0
  8  9  1  0  0  0  0
  9 10  1  0  0  0  0
 10  5  1  0  0  0  0
  9 11  1  0  0  0  0
 11 12  1  0  0  0  0
 12 13  2  0  0  0  0
 13 14  1  0  0  0  0
 14 10  1  0  0  0  0
 11 15  1  0  0  0  0
 15 16  1  0  0  0  0
 16 17  1  0  0  0  0
 17 18  1  0  0  0  0
 18 12  1  0  0  0  0
 17 19  1  0  0  0  0
 19 20  1  0  0  0  0
 20 21  1  0  0  0  0
 21 22  1  0  0  0  0
 22 18  1  0  0  0  0
  2 23  1  1  0  0  0
  3 24  1  1  0  0  0
  5 25  1  1  0  0  0
  9 26  1  1  0  0  0
 17 27  1  1  0  0  0
 20 28  1  1  0  0  0
 22 29  1  0  0  0  0
  3 30  1  6  0  0  0
 11 31  1  6  0  0  0
 27 32  2  0  0  0  0
 27 33  1  0  0  0  0
 22 34  1  6  0  0  0
 21 35  1  6  0  0  0
 36 23  1  1  0  0  0
 36 37  1  0  0  0  0
 37 38  1  0  0  0  0
 38 39  1  0  0  0  0
 39 40  1  0  0  0  0
 40 41  1  0  0  0  0
 41 36  1  0  0  0  0
 40 42  1  1  0  0  0
 39 43  1  1  0  0  0
 41 44  1  6  0  0  0
M  END
>  <cdx:fragmentId>
5

$$$$
