94624.cdx
  Mrv1902 05222410222D          

 60 66  0  0  0  0            999 V2000
    6.3093   -6.5863    0.0000 C   0  0  0  0  0  0  0  0  0  0  0  0
    6.3093   -7.4112    0.0000 C   0  0  1  0  0  0  0  0  0  0  0  0
    7.0238   -7.8237    0.0000 C   0  0  1  0  0  0  0  0  0  0  0  0
    7.7382   -7.4112    0.0000 C   0  0  0  0  0  0  0  0  0  0  0  0
    7.7382   -6.5863    0.0000 C   0  0  2  0  0  0  0  0  0  0  0  0
    7.0238   -6.1737    0.0000 C   0  0  0  0  0  0  0  0  0  0  0  0
    8.4527   -7.8237    0.0000 C   0  0  0  0  0  0  0  0  0  0  0  0
    9.1672   -7.4112    0.0000 C   0  0  0  0  0  0  0  0  0  0  0  0
    9.1672   -6.5863    0.0000 C   0  0  2  0  0  0  0  0  0  0  0  0
    8.4527   -6.1737    0.0000 C   0  0  0  0  0  0  0  0  0  0  0  0
    9.8817   -6.1737    0.0000 C   0  0  1  0  0  0  0  0  0  0  0  0
    9.8817   -5.3487    0.0000 C   0  0  0  0  0  0  0  0  0  0  0  0
    9.1672   -4.9363    0.0000 C   0  0  0  0  0  0  0  0  0  0  0  0
    8.4527   -5.3487    0.0000 C   0  0  0  0  0  0  0  0  0  0  0  0
   10.5961   -6.5863    0.0000 C   0  0  0  0  0  0  0  0  0  0  0  0
   11.3106   -6.1737    0.0000 C   0  0  0  0  0  0  0  0  0  0  0  0
   11.3106   -5.3487    0.0000 C   0  0  2  0  0  0  0  0  0  0  0  0
   10.5961   -4.9363    0.0000 C   0  0  0  0  0  0  0  0  0  0  0  0
   12.0251   -4.9363    0.0000 C   0  0  0  0  0  0  0  0  0  0  0  0
   12.0251   -4.1113    0.0000 C   0  0  2  0  0  0  0  0  0  0  0  0
   11.3106   -3.6988    0.0000 C   0  0  2  0  0  0  0  0  0  0  0  0
   10.5961   -4.1113    0.0000 C   0  0  2  0  0  0  0  0  0  0  0  0
    5.5948   -7.8237    0.0000 O   0  0  0  0  0  0  0  0  0  0  0  0
    6.6113   -8.5382    0.0000 C   0  0  0  0  0  0  0  0  0  0  0  0
    7.7382   -5.7612    0.0000 C   0  0  0  0  0  0  0  0  0  0  0  0
    9.1672   -5.7612    0.0000 C   0  0  0  0  0  0  0  0  0  0  0  0
   12.0251   -5.7612    0.0000 C   0  0  0  0  0  0  0  0  0  0  0  0
   12.7395   -3.6988    0.0000 H   0  0  0  0  0  0  0  0  0  0  0  0
   10.5961   -3.2862    0.0000 C   0  0  0  0  0  0  0  0  0  0  0  0
    7.4363   -8.5382    0.0000 C   0  0  0  0  0  0  0  0  0  0  0  0
    9.8817   -6.9988    0.0000 C   0  0  0  0  0  0  0  0  0  0  0  0
    8.2613   -8.5382    0.0000 O   0  0  0  0  0  0  0  0  0  0  0  0
   12.7395   -5.3487    0.0000 O   0  0  0  0  0  0  0  0  0  0  0  0
   12.0251   -6.5863    0.0000 O   0  0  0  0  0  0  0  0  0  0  0  0
   11.6126   -7.3007    0.0000 C   0  0  2  0  0  0  0  0  0  0  0  0
   10.7876   -7.3007    0.0000 O   0  0  0  0  0  0  0  0  0  0  0  0
   10.3751   -8.0152    0.0000 C   0  0  1  0  0  0  0  0  0  0  0  0
   10.7876   -8.7297    0.0000 C   0  0  2  0  0  0  0  0  0  0  0  0
   11.6126   -8.7297    0.0000 C   0  0  1  0  0  0  0  0  0  0  0  0
   12.0251   -8.0152    0.0000 C   0  0  1  0  0  0  0  0  0  0  0  0
    9.5501   -8.0152    0.0000 C   0  0  0  0  0  0  0  0  0  0  0  0
   12.0251   -9.4441    0.0000 O   0  0  0  0  0  0  0  0  0  0  0  0
   12.8501   -8.0152    0.0000 O   0  0  0  0  0  0  0  0  0  0  0  0
   10.3751   -9.4441    0.0000 O   0  0  0  0  0  0  0  0  0  0  0  0
    9.1376   -8.7297    0.0000 O   0  0  0  0  0  0  0  0  0  0  0  0
    9.7992   -3.8977    0.0000 O   0  0  0  0  0  0  0  0  0  0  0  0
   11.3106   -2.8738    0.0000 C   0  0  0  0  0  0  0  0  0  0  0  0
    4.8804   -8.2363    0.0000 C   0  0  2  0  0  0  0  0  0  0  0  0
    4.1659   -7.8237    0.0000 O   0  0  0  0  0  0  0  0  0  0  0  0
    3.4514   -8.2363    0.0000 C   0  0  1  0  0  0  0  0  0  0  0  0
    3.4514   -9.0613    0.0000 C   0  0  2  0  0  0  0  0  0  0  0  0
    4.1659   -9.4738    0.0000 C   0  0  1  0  0  0  0  0  0  0  0  0
    4.8804   -9.0613    0.0000 C   0  0  1  0  0  0  0  0  0  0  0  0
    2.7369   -7.8237    0.0000 C   0  0  0  0  0  0  0  0  0  0  0  0
    4.1659  -10.2988    0.0000 O   0  0  0  0  0  0  0  0  0  0  0  0
    2.7369   -9.4738    0.0000 O   0  0  0  0  0  0  0  0  0  0  0  0
    5.5948   -9.4738    0.0000 O   0  0  0  0  0  0  0  0  0  0  0  0
    2.0225   -8.2363    0.0000 O   0  0  0  0  0  0  0  0  0  0  0  0
    2.7369   -6.9988    0.0000 O   0  0  0  0  0  0  0  0  0  0  0  0
    1.3080   -7.8237    0.0000 C   0  0  0  0  0  0  0  0  0  0  0  0
  1  2  1  0  0  0  0
  2  3  1  0  0  0  0
  3  4  1  0  0  0  0
  4  5  1  0  0  0  0
  5  6  1  0  0  0  0
  6  1  1  0  0  0  0
  4  7  1  0  0  0  0
  7  8  1  0  0  0  0
  8  9  1  0  0  0  0
  9 10  1  0  0  0  0
 10  5  1  0  0  0  0
  9 11  1  0  0  0  0
 11 12  1  0  0  0  0
 12 13  2  0  0  0  0
 13 14  1  0  0  0  0
 14 10  1  0  0  0  0
 11 15  1  0  0  0  0
 15 16  1  0  0  0  0
 16 17  1  0  0  0  0
 17 18  1  0  0  0  0
 18 12  1  0  0  0  0
 17 19  1  0  0  0  0
 19 20  1  0  0  0  0
 20 21  1  0  0  0  0
 21 22  1  0  0  0  0
 22 18  1  0  0  0  0
  2 23  1  1  0  0  0
  3 24  1  1  0  0  0
  5 25  1  1  0  0  0
  9 26  1  1  0  0  0
 17 27  1  1  0  0  0
 20 28  1  1  0  0  0
 22 29  1  0  0  0  0
  3 30  1  6  0  0  0
 11 31  1  6  0  0  0
 30 32  1  0  0  0  0
 27 33  2  0  0  0  0
 27 34  1  0  0  0  0
 35 34  1  1  0  0  0
 35 36  1  0  0  0  0
 36 37  1  0  0  0  0
 37 38  1  0  0  0  0
 38 39  1  0  0  0  0
 39 40  1  0  0  0  0
 40 35  1  0  0  0  0
 37 41  1  1  0  0  0
 39 42  1  1  0  0  0
 40 43  1  6  0  0  0
 38 44  1  6  0  0  0
 41 45  1  0  0  0  0
 22 46  1  6  0  0  0
 21 47  1  6  0  0  0
 48 23  1  1  0  0  0
 48 49  1  0  0  0  0
 49 50  1  0  0  0  0
 50 51  1  0  0  0  0
 51 52  1  0  0  0  0
 52 53  1  0  0  0  0
 53 48  1  0  0  0  0
 50 54  1  1  0  0  0
 52 55  1  1  0  0  0
 51 56  1  6  0  0  0
 53 57  1  6  0  0  0
 54 58  1  0  0  0  0
 54 59  2  0  0  0  0
 58 60  1  0  0  0  0
M  END
>  <cdx:fragmentId>
5

$$$$
