94627.cdx
  Mrv1902 05222410222D          

 79 87  0  0  0  0            999 V2000
    4.5935   -8.4441    0.0000 C   0  0  1  0  0  0  0  0  0  0  0  0
    4.5935   -7.8666    0.0000 C   0  0  0  0  0  0  0  0  0  0  0  0
    5.0936   -7.5779    0.0000 C   0  0  0  0  0  0  0  0  0  0  0  0
    5.0936   -8.7329    0.0000 C   0  0  2  0  0  0  0  0  0  0  0  0
    5.3823   -9.2330    0.0000 C   0  0  0  0  0  0  0  0  0  0  0  0
    4.8048   -9.2330    0.0000 C   0  0  0  0  0  0  0  0  0  0  0  0
    5.5937   -8.4441    0.0000 C   0  0  2  0  0  0  0  0  0  0  0  0
    5.5937   -9.0216    0.0000 H   0  0  0  0  0  0  0  0  0  0  0  0
    6.0938   -8.7329    0.0000 C   0  0  0  0  0  0  0  0  0  0  0  0
    6.5940   -8.4441    0.0000 C   0  0  0  0  0  0  0  0  0  0  0  0
    6.5940   -7.8666    0.0000 C   0  0  1  0  0  0  0  0  0  0  0  0
    6.5940   -7.2891    0.0000 C   0  0  0  0  0  0  0  0  0  0  0  0
    7.0941   -7.5779    0.0000 C   0  0  2  0  0  0  0  0  0  0  0  0
    7.0941   -8.1554    0.0000 C   0  0  0  0  0  0  0  0  0  0  0  0
    7.5942   -7.8666    0.0000 C   0  0  0  0  0  0  0  0  0  0  0  0
    8.0944   -7.5779    0.0000 C   0  0  0  0  0  0  0  0  0  0  0  0
    8.0944   -7.0004    0.0000 C   0  0  1  0  0  0  0  0  0  0  0  0
    8.5945   -7.2891    0.0000 C   0  0  0  0  0  0  0  0  0  0  0  0
    8.5945   -6.7116    0.0000 C   0  0  0  0  0  0  0  0  0  0  0  0
    8.5945   -6.1341    0.0000 C   0  0  0  0  0  0  0  0  0  0  0  0
    8.0944   -5.8454    0.0000 C   0  0  1  0  0  0  0  0  0  0  0  0
    8.0944   -5.2679    0.0000 C   0  0  0  0  0  0  0  0  0  0  0  0
    7.5942   -6.1341    0.0000 C   0  0  2  0  0  0  0  0  0  0  0  0
    7.3055   -5.6340    0.0000 C   0  0  0  0  0  0  0  0  0  0  0  0
    7.5942   -6.7116    0.0000 C   0  0  1  0  0  0  0  0  0  0  0  0
    7.5942   -7.2891    0.0000 H   0  0  0  0  0  0  0  0  0  0  0  0
    7.0941   -7.0004    0.0000 C   0  0  0  0  0  0  0  0  0  0  0  0
    6.5940   -6.7116    0.0000 C   0  0  0  0  0  0  0  0  0  0  0  0
    6.0938   -7.0004    0.0000 C   0  0  0  0  0  0  0  0  0  0  0  0
    6.0938   -7.5779    0.0000 C   0  0  2  0  0  0  0  0  0  0  0  0
    5.5937   -7.8666    0.0000 C   0  0  1  0  0  0  0  0  0  0  0  0
    5.5937   -7.2891    0.0000 C   0  0  0  0  0  0  0  0  0  0  0  0
    8.5945   -7.8666    0.0000 O   0  0  0  0  0  0  0  0  0  0  0  0
    9.0946   -7.0004    0.0000 O   0  0  0  0  0  0  0  0  0  0  0  0
    5.0936   -9.7331    0.0000 O   0  0  0  0  0  0  0  0  0  0  0  0
    7.0167   -6.1341    0.0000 O   0  0  0  0  0  0  0  0  0  0  0  0
    4.0933   -8.7329    0.0000 O   0  0  0  0  0  0  0  0  0  0  0  0
    3.5924   -9.0202    0.0000 C   0  0  1  0  0  0  0  0  0  0  0  0
    3.5908   -9.5977    0.0000 C   0  0  2  0  0  0  0  0  0  0  0  0
    4.0902   -9.8879    0.0000 O   0  0  0  0  0  0  0  0  0  0  0  0
    3.0899   -9.8851    0.0000 C   0  0  1  0  0  0  0  0  0  0  0  0
    3.0883  -10.4626    0.0000 O   0  0  0  0  0  0  0  0  0  0  0  0
    2.5906   -9.5950    0.0000 C   0  0  1  0  0  0  0  0  0  0  0  0
    2.0896   -9.8824    0.0000 O   0  0  0  0  0  0  0  0  0  0  0  0
    2.5922   -9.0175    0.0000 C   0  0  0  0  0  0  0  0  0  0  0  0
    3.0931   -8.7301    0.0000 O   0  0  0  0  0  0  0  0  0  0  0  0
    4.0886  -10.4654    0.0000 C   0  0  1  0  0  0  0  0  0  0  0  0
    4.5879  -10.7555    0.0000 C   0  0  2  0  0  0  0  0  0  0  0  0
    5.0888  -10.4681    0.0000 O   0  0  0  0  0  0  0  0  0  0  0  0
    4.5863  -11.3330    0.0000 C   0  0  1  0  0  0  0  0  0  0  0  0
    5.0856  -11.6231    0.0000 O   0  0  0  0  0  0  0  0  0  0  0  0
    4.0854  -11.6203    0.0000 C   0  0  2  0  0  0  0  0  0  0  0  0
    4.0838  -12.1978    0.0000 O   0  0  0  0  0  0  0  0  0  0  0  0
    3.5861  -11.3302    0.0000 C   0  0  2  0  0  0  0  0  0  0  0  0
    3.5876  -10.7527    0.0000 O   0  0  0  0  0  0  0  0  0  0  0  0
    3.0851  -11.6176    0.0000 C   0  0  0  0  0  0  0  0  0  0  0  0
    2.5858  -11.3275    0.0000 O   0  0  0  0  0  0  0  0  0  0  0  0
    9.5787   -7.2888    0.0000 C   0  0  1  0  0  0  0  0  0  0  0  0
   10.0801   -7.0024    0.0000 C   0  0  2  0  0  0  0  0  0  0  0  0
   10.0828   -6.4249    0.0000 O   0  0  0  0  0  0  0  0  0  0  0  0
   10.5789   -7.2934    0.0000 C   0  0  1  0  0  0  0  0  0  0  0  0
   11.0804   -7.0070    0.0000 O   0  0  0  0  0  0  0  0  0  0  0  0
   10.5763   -7.8709    0.0000 C   0  0  2  0  0  0  0  0  0  0  0  0
   11.0751   -8.1620    0.0000 O   0  0  0  0  0  0  0  0  0  0  0  0
   10.0748   -8.1574    0.0000 C   0  0  2  0  0  0  0  0  0  0  0  0
    9.5760   -7.8663    0.0000 O   0  0  0  0  0  0  0  0  0  0  0  0
   10.0722   -8.7349    0.0000 C   0  0  0  0  0  0  0  0  0  0  0  0
   10.5710   -9.0259    0.0000 O   0  0  0  0  0  0  0  0  0  0  0  0
   10.5842   -6.1384    0.0000 C   0  0  1  0  0  0  0  0  0  0  0  0
   10.5869   -5.5609    0.0000 C   0  0  2  0  0  0  0  0  0  0  0  0
   10.0881   -5.2699    0.0000 O   0  0  0  0  0  0  0  0  0  0  0  0
   11.0883   -5.2745    0.0000 C   0  0  2  0  0  0  0  0  0  0  0  0
   11.0910   -4.6970    0.0000 O   0  0  0  0  0  0  0  0  0  0  0  0
   11.5871   -5.5655    0.0000 C   0  0  1  0  0  0  0  0  0  0  0  0
   12.0886   -5.2791    0.0000 O   0  0  0  0  0  0  0  0  0  0  0  0
   11.5845   -6.1430    0.0000 C   0  0  1  0  0  0  0  0  0  0  0  0
   11.0830   -6.4295    0.0000 O   0  0  0  0  0  0  0  0  0  0  0  0
   12.0833   -6.4341    0.0000 C   0  0  0  0  0  0  0  0  0  0  0  0
    6.0938   -8.1554    0.0000 H   0  0  0  0  0  0  0  0  0  0  0  0
  1  2  1  0  0  0  0
  2  3  1  0  0  0  0
  1  4  1  0  0  0  0
  4  5  1  6  0  0  0
  4  6  1  1  0  0  0
  4  7  1  0  0  0  0
  7  8  1  6  0  0  0
  7  9  1  0  0  0  0
  9 10  1  0  0  0  0
 10 11  1  0  0  0  0
 11 12  1  1  0  0  0
 11 13  1  0  0  0  0
 13 14  1  6  0  0  0
 13 15  1  0  0  0  0
 15 16  1  0  0  0  0
 16 17  1  0  0  0  0
 17 18  1  1  0  0  0
 17 19  1  0  0  0  0
 19 20  1  0  0  0  0
 20 21  1  0  0  0  0
 21 22  1  6  0  0  0
 21 23  1  0  0  0  0
 23 24  1  1  0  0  0
 23 25  1  0  0  0  0
 25 26  1  1  0  0  0
 17 25  1  0  0  0  0
 25 27  1  0  0  0  0
 13 27  1  0  0  0  0
 27 28  2  0  0  0  0
 28 29  1  0  0  0  0
 29 30  1  0  0  0  0
 11 30  1  0  0  0  0
 30 31  1  0  0  0  0
  3 31  1  0  0  0  0
  7 31  1  0  0  0  0
 31 32  1  1  0  0  0
 18 33  2  0  0  0  0
 18 34  1  0  0  0  0
  5 35  1  0  0  0  0
 23 36  1  6  0  0  0
  1 37  1  1  0  0  0
 38 39  1  0  0  0  0
 39 40  1  6  0  0  0
 39 41  1  0  0  0  0
 41 42  1  1  0  0  0
 41 43  1  0  0  0  0
 43 44  1  1  0  0  0
 43 45  1  0  0  0  0
 45 46  1  0  0  0  0
 38 46  1  0  0  0  0
 47 48  1  0  0  0  0
 48 49  1  6  0  0  0
 48 50  1  0  0  0  0
 50 51  1  1  0  0  0
 50 52  1  0  0  0  0
 52 53  1  6  0  0  0
 52 54  1  0  0  0  0
 54 55  1  0  0  0  0
 54 56  1  1  0  0  0
 56 57  1  0  0  0  0
 47 55  1  0  0  0  0
 47 40  1  1  0  0  0
 38 37  1  1  0  0  0
 58 59  1  0  0  0  0
 59 60  1  6  0  0  0
 59 61  1  0  0  0  0
 61 62  1  1  0  0  0
 61 63  1  0  0  0  0
 63 64  1  6  0  0  0
 63 65  1  0  0  0  0
 65 66  1  0  0  0  0
 65 67  1  1  0  0  0
 67 68  1  0  0  0  0
 58 66  1  0  0  0  0
 69 70  1  0  0  0  0
 70 71  1  6  0  0  0
 70 72  1  0  0  0  0
 72 73  1  6  0  0  0
 72 74  1  0  0  0  0
 74 75  1  1  0  0  0
 74 76  1  0  0  0  0
 76 77  1  0  0  0  0
 76 78  1  6  0  0  0
 69 77  1  0  0  0  0
 69 60  1  1  0  0  0
 30 79  1  6  0  0  0
 58 34  1  1  0  0  0
M  END
>  <cdx:groupId>
250

>  <cdx:fragmentId>
5

$$$$
