94623.cdx
  Mrv1902 05222410212D          

 34 38  0  0  0  0            999 V2000
    4.3431   -8.0850    0.0000 C   0  0  0  0  0  0  0  0  0  0  0  0
    4.3431   -8.9100    0.0000 C   0  0  1  0  0  0  0  0  0  0  0  0
    5.0575   -9.3225    0.0000 C   0  0  1  0  0  0  0  0  0  0  0  0
    5.7720   -8.9100    0.0000 C   0  0  0  0  0  0  0  0  0  0  0  0
    5.7720   -8.0850    0.0000 C   0  0  2  0  0  0  0  0  0  0  0  0
    5.0575   -7.6725    0.0000 C   0  0  0  0  0  0  0  0  0  0  0  0
    6.4865   -9.3225    0.0000 C   0  0  0  0  0  0  0  0  0  0  0  0
    7.2009   -8.9100    0.0000 C   0  0  0  0  0  0  0  0  0  0  0  0
    7.2009   -8.0850    0.0000 C   0  0  2  0  0  0  0  0  0  0  0  0
    6.4865   -7.6725    0.0000 C   0  0  0  0  0  0  0  0  0  0  0  0
    7.9154   -7.6725    0.0000 C   0  0  1  0  0  0  0  0  0  0  0  0
    7.9154   -6.8475    0.0000 C   0  0  0  0  0  0  0  0  0  0  0  0
    7.2009   -6.4350    0.0000 C   0  0  0  0  0  0  0  0  0  0  0  0
    6.4865   -6.8475    0.0000 C   0  0  0  0  0  0  0  0  0  0  0  0
    8.6299   -8.0850    0.0000 C   0  0  0  0  0  0  0  0  0  0  0  0
    9.3444   -7.6725    0.0000 C   0  0  0  0  0  0  0  0  0  0  0  0
    9.3444   -6.8475    0.0000 C   0  0  2  0  0  0  0  0  0  0  0  0
    8.6299   -6.4350    0.0000 C   0  0  0  0  0  0  0  0  0  0  0  0
   10.0588   -6.4350    0.0000 C   0  0  0  0  0  0  0  0  0  0  0  0
   10.0588   -5.6100    0.0000 C   0  0  0  0  0  0  0  0  0  0  0  0
    9.3444   -5.1975    0.0000 C   0  0  2  0  0  0  0  0  0  0  0  0
    8.6299   -5.6100    0.0000 C   0  0  0  0  0  0  0  0  0  0  0  0
    7.9154   -5.1975    0.0000 C   0  0  0  0  0  0  0  0  0  0  0  0
    3.6286   -9.3225    0.0000 O   0  0  0  0  0  0  0  0  0  0  0  0
    4.6450  -10.0370    0.0000 C   0  0  0  0  0  0  0  0  0  0  0  0
    5.7720   -7.2600    0.0000 C   0  0  0  0  0  0  0  0  0  0  0  0
    7.2009   -7.2600    0.0000 C   0  0  0  0  0  0  0  0  0  0  0  0
   10.0588   -7.2600    0.0000 C   0  0  0  0  0  0  0  0  0  0  0  0
    5.4700  -10.0370    0.0000 C   0  0  0  0  0  0  0  0  0  0  0  0
    7.9154   -8.4975    0.0000 C   0  0  0  0  0  0  0  0  0  0  0  0
    9.3444   -4.3725    0.0000 C   0  0  0  0  0  0  0  0  0  0  0  0
    6.2950  -10.0370    0.0000 O   0  0  0  0  0  0  0  0  0  0  0  0
   10.7733   -6.8475    0.0000 O   0  0  0  0  0  0  0  0  0  0  0  0
   10.0588   -8.0850    0.0000 O   0  0  0  0  0  0  0  0  0  0  0  0
  1  2  1  0  0  0  0
  2  3  1  0  0  0  0
  3  4  1  0  0  0  0
  4  5  1  0  0  0  0
  5  6  1  0  0  0  0
  6  1  1  0  0  0  0
  4  7  1  0  0  0  0
  7  8  1  0  0  0  0
  8  9  1  0  0  0  0
  9 10  1  0  0  0  0
 10  5  1  0  0  0  0
  9 11  1  0  0  0  0
 11 12  1  0  0  0  0
 12 13  2  0  0  0  0
 13 14  1  0  0  0  0
 14 10  1  0  0  0  0
 11 15  1  0  0  0  0
 15 16  1  0  0  0  0
 16 17  1  0  0  0  0
 17 18  1  0  0  0  0
 18 12  1  0  0  0  0
 17 19  1  0  0  0  0
 19 20  1  0  0  0  0
 20 21  1  0  0  0  0
 21 22  1  0  0  0  0
 22 18  2  0  0  0  0
 22 23  1  0  0  0  0
  2 24  1  1  0  0  0
  3 25  1  1  0  0  0
  5 26  1  1  0  0  0
  9 27  1  1  0  0  0
 17 28  1  1  0  0  0
  3 29  1  6  0  0  0
 11 30  1  6  0  0  0
 21 31  1  6  0  0  0
 29 32  1  0  0  0  0
 28 33  2  0  0  0  0
 28 34  1  0  0  0  0
M  END
>  <cdx:fragmentId>
5

$$$$
