94628.cdx
  Mrv1902 05222410232D          

 55 61  0  0  0  0            999 V2000
    5.7043   -7.9888    0.0000 C   0  0  0  0  0  0  0  0  0  0  0  0
    5.7043   -8.8138    0.0000 C   0  0  1  0  0  0  0  0  0  0  0  0
    6.4188   -9.2263    0.0000 C   0  0  1  0  0  0  0  0  0  0  0  0
    7.1332   -8.8138    0.0000 C   0  0  0  0  0  0  0  0  0  0  0  0
    7.1332   -7.9888    0.0000 C   0  0  2  0  0  0  0  0  0  0  0  0
    6.4188   -7.5762    0.0000 C   0  0  0  0  0  0  0  0  0  0  0  0
    7.8477   -9.2263    0.0000 C   0  0  0  0  0  0  0  0  0  0  0  0
    8.5622   -8.8138    0.0000 C   0  0  0  0  0  0  0  0  0  0  0  0
    8.5622   -7.9888    0.0000 C   0  0  2  0  0  0  0  0  0  0  0  0
    7.8477   -7.5762    0.0000 C   0  0  0  0  0  0  0  0  0  0  0  0
    9.2767   -7.5762    0.0000 C   0  0  1  0  0  0  0  0  0  0  0  0
    9.2767   -6.7512    0.0000 C   0  0  0  0  0  0  0  0  0  0  0  0
    8.5622   -6.3388    0.0000 C   0  0  0  0  0  0  0  0  0  0  0  0
    7.8477   -6.7512    0.0000 C   0  0  0  0  0  0  0  0  0  0  0  0
    9.9911   -7.9888    0.0000 C   0  0  0  0  0  0  0  0  0  0  0  0
   10.7056   -7.5762    0.0000 C   0  0  0  0  0  0  0  0  0  0  0  0
   10.7056   -6.7512    0.0000 C   0  0  2  0  0  0  0  0  0  0  0  0
    9.9911   -6.3388    0.0000 C   0  0  0  0  0  0  0  0  0  0  0  0
   11.4201   -6.3388    0.0000 C   0  0  0  0  0  0  0  0  0  0  0  0
   11.4201   -5.5137    0.0000 C   0  0  0  0  0  0  0  0  0  0  0  0
   10.7056   -5.1013    0.0000 C   0  0  1  0  0  0  0  0  0  0  0  0
    9.9911   -5.5137    0.0000 C   0  0  0  0  0  0  0  0  0  0  0  0
    4.9898   -9.2263    0.0000 O   0  0  0  0  0  0  0  0  0  0  0  0
    6.0063   -9.9407    0.0000 C   0  0  0  0  0  0  0  0  0  0  0  0
    7.1332   -7.1638    0.0000 C   0  0  0  0  0  0  0  0  0  0  0  0
    8.5622   -7.1638    0.0000 C   0  0  0  0  0  0  0  0  0  0  0  0
   11.4201   -7.1638    0.0000 C   0  0  0  0  0  0  0  0  0  0  0  0
    6.8313   -9.9407    0.0000 C   0  0  0  0  0  0  0  0  0  0  0  0
    9.2767   -8.4013    0.0000 C   0  0  0  0  0  0  0  0  0  0  0  0
   12.1345   -6.7512    0.0000 O   0  0  0  0  0  0  0  0  0  0  0  0
   11.4201   -7.9888    0.0000 O   0  0  0  0  0  0  0  0  0  0  0  0
    4.2754   -9.6387    0.0000 C   0  0  2  0  0  0  0  0  0  0  0  0
    3.5609   -9.2263    0.0000 O   0  0  0  0  0  0  0  0  0  0  0  0
    2.8464   -9.6387    0.0000 C   0  0  1  0  0  0  0  0  0  0  0  0
    2.8464  -10.4637    0.0000 C   0  0  2  0  0  0  0  0  0  0  0  0
    3.5609  -10.8762    0.0000 C   0  0  1  0  0  0  0  0  0  0  0  0
    4.2754  -10.4637    0.0000 C   0  0  1  0  0  0  0  0  0  0  0  0
    3.5609  -11.7012    0.0000 O   0  0  0  0  0  0  0  0  0  0  0  0
    2.1319  -10.8762    0.0000 O   0  0  0  0  0  0  0  0  0  0  0  0
    4.9898  -10.8762    0.0000 O   0  0  0  0  0  0  0  0  0  0  0  0
   10.2931   -4.3868    0.0000 C   0  0  0  0  0  0  0  0  0  0  0  0
   11.1181   -4.3868    0.0000 C   0  0  0  0  0  0  0  0  0  0  0  0
    2.1319   -9.2263    0.0000 C   0  0  0  0  0  0  0  0  0  0  0  0
    1.4175   -9.6387    0.0000 O   0  0  0  0  0  0  0  0  0  0  0  0
   10.9970   -8.6991    0.0000 C   0  0  2  0  0  0  0  0  0  0  0  0
   10.1720   -8.6978    0.0000 O   0  0  0  0  0  0  0  0  0  0  0  0
    9.7583   -9.4115    0.0000 C   0  0  1  0  0  0  0  0  0  0  0  0
   10.1696  -10.1267    0.0000 C   0  0  2  0  0  0  0  0  0  0  0  0
   10.9946  -10.1281    0.0000 C   0  0  1  0  0  0  0  0  0  0  0  0
   11.4083   -9.4143    0.0000 C   0  0  1  0  0  0  0  0  0  0  0  0
   11.4059  -10.8432    0.0000 O   0  0  0  0  0  0  0  0  0  0  0  0
    9.7559  -10.8405    0.0000 O   0  0  0  0  0  0  0  0  0  0  0  0
   12.2333   -9.4157    0.0000 O   0  0  0  0  0  0  0  0  0  0  0  0
    8.9333   -9.4102    0.0000 C   0  0  0  0  0  0  0  0  0  0  0  0
    8.5196  -10.1239    0.0000 O   0  0  0  0  0  0  0  0  0  0  0  0
  1  2  1  0  0  0  0
  2  3  1  0  0  0  0
  3  4  1  0  0  0  0
  4  5  1  0  0  0  0
  5  6  1  0  0  0  0
  6  1  1  0  0  0  0
  4  7  1  0  0  0  0
  7  8  1  0  0  0  0
  8  9  1  0  0  0  0
  9 10  1  0  0  0  0
 10  5  1  0  0  0  0
  9 11  1  0  0  0  0
 11 12  1  0  0  0  0
 12 13  2  0  0  0  0
 13 14  1  0  0  0  0
 14 10  1  0  0  0  0
 11 15  1  0  0  0  0
 15 16  1  0  0  0  0
 16 17  1  0  0  0  0
 17 18  1  0  0  0  0
 18 12  1  0  0  0  0
 17 19  1  0  0  0  0
 19 20  1  0  0  0  0
 20 21  1  0  0  0  0
 21 22  1  0  0  0  0
 22 18  1  0  0  0  0
  2 23  1  1  0  0  0
  3 24  1  1  0  0  0
  5 25  1  1  0  0  0
  9 26  1  1  0  0  0
 17 27  1  1  0  0  0
  3 28  1  6  0  0  0
 11 29  1  6  0  0  0
 27 30  2  0  0  0  0
 27 31  1  0  0  0  0
 32 23  1  1  0  0  0
 32 33  1  0  0  0  0
 33 34  1  0  0  0  0
 34 35  1  0  0  0  0
 35 36  1  0  0  0  0
 36 37  1  0  0  0  0
 37 32  1  0  0  0  0
 36 38  1  1  0  0  0
 35 39  1  6  0  0  0
 37 40  1  6  0  0  0
 21 41  1  1  0  0  0
 21 42  1  6  0  0  0
 34 43  1  1  0  0  0
 43 44  1  0  0  0  0
 45 46  1  0  0  0  0
 46 47  1  0  0  0  0
 47 48  1  0  0  0  0
 48 49  1  0  0  0  0
 49 50  1  0  0  0  0
 50 45  1  0  0  0  0
 49 51  1  1  0  0  0
 48 52  1  6  0  0  0
 50 53  1  6  0  0  0
 47 54  1  1  0  0  0
 54 55  1  0  0  0  0
 45 31  1  1  0  0  0
M  END
>  <cdx:fragmentId>
5

$$$$
