94621.cdx
  Mrv1902 05222410202D          

 32 35  0  0  0  0            999 V2000
    7.5529   -7.0210    0.0000 C   0  0  0  0  0  0  0  0  0  0  0  0
    7.5529   -7.8460    0.0000 C   0  0  0  0  0  0  0  0  0  0  0  0
    6.8384   -8.2585    0.0000 C   0  0  0  0  0  0  0  0  0  0  0  0
    6.8384   -9.0835    0.0000 O   0  0  0  0  0  0  0  0  0  0  0  0
    6.1239   -7.8460    0.0000 C   0  0  0  0  0  0  0  0  0  0  0  0
    5.4095   -8.2585    0.0000 C   0  0  0  0  0  0  0  0  0  0  0  0
    5.4095   -9.0835    0.0000 O   0  0  0  0  0  0  0  0  0  0  0  0
    4.6950   -7.8460    0.0000 C   0  0  0  0  0  0  0  0  0  0  0  0
    4.6950   -7.0210    0.0000 C   0  0  0  0  0  0  0  0  0  0  0  0
    3.9805   -6.6085    0.0000 O   0  0  0  0  0  0  0  0  0  0  0  0
    5.4095   -6.6085    0.0000 C   0  0  0  0  0  0  0  0  0  0  0  0
    6.1239   -7.0210    0.0000 C   0  0  0  0  0  0  0  0  0  0  0  0
    6.8384   -6.6085    0.0000 O   0  0  0  0  0  0  0  0  0  0  0  0
    8.2674   -6.6085    0.0000 C   0  0  0  0  0  0  0  0  0  0  0  0
    8.2674   -5.7835    0.0000 C   0  0  0  0  0  0  0  0  0  0  0  0
    8.9818   -5.3710    0.0000 C   0  0  0  0  0  0  0  0  0  0  0  0
    9.6963   -5.7835    0.0000 C   0  0  0  0  0  0  0  0  0  0  0  0
   10.4108   -5.3710    0.0000 O   0  0  0  0  0  0  0  0  0  0  0  0
    9.6963   -6.6085    0.0000 C   0  0  0  0  0  0  0  0  0  0  0  0
    8.9818   -7.0210    0.0000 C   0  0  0  0  0  0  0  0  0  0  0  0
    8.2674   -8.2585    0.0000 O   0  0  0  0  0  0  0  0  0  0  0  0
    8.2674   -9.0835    0.0000 C   0  0  1  0  0  0  0  0  0  0  0  0
    8.9818   -9.4960    0.0000 C   0  0  1  0  0  0  0  0  0  0  0  0
    9.6963   -9.0835    0.0000 O   0  0  0  0  0  0  0  0  0  0  0  0
    8.9818  -10.3210    0.0000 C   0  0  2  0  0  0  0  0  0  0  0  0
    9.6963  -10.7335    0.0000 O   0  0  0  0  0  0  0  0  0  0  0  0
    8.2674  -10.7335    0.0000 C   0  0  1  0  0  0  0  0  0  0  0  0
    8.2674  -11.5585    0.0000 O   0  0  0  0  0  0  0  0  0  0  0  0
    7.5529  -10.3210    0.0000 C   0  0  1  0  0  0  0  0  0  0  0  0
    7.5529   -9.4960    0.0000 O   0  0  0  0  0  0  0  0  0  0  0  0
    6.8384  -10.7335    0.0000 C   0  0  0  0  0  0  0  0  0  0  0  0
    6.8384  -11.5585    0.0000 O   0  0  0  0  0  0  0  0  0  0  0  0
  1  2  2  0  0  0  0
  2  3  1  0  0  0  0
  3  4  2  0  0  0  0
  3  5  1  0  0  0  0
  5  6  1  0  0  0  0
  6  7  1  0  0  0  0
  6  8  2  0  0  0  0
  8  9  1  0  0  0  0
  9 10  1  0  0  0  0
  9 11  2  0  0  0  0
 11 12  1  0  0  0  0
  5 12  2  0  0  0  0
 12 13  1  0  0  0  0
  1 13  1  0  0  0  0
  1 14  1  0  0  0  0
 14 15  1  0  0  0  0
 15 16  2  0  0  0  0
 16 17  1  0  0  0  0
 17 18  1  0  0  0  0
 17 19  2  0  0  0  0
 19 20  1  0  0  0  0
 14 20  2  0  0  0  0
 22 21  1  1  0  0  0
 22 23  1  0  0  0  0
 23 24  1  1  0  0  0
 23 25  1  0  0  0  0
 25 26  1  6  0  0  0
 25 27  1  0  0  0  0
 27 28  1  1  0  0  0
 27 29  1  0  0  0  0
 29 30  1  0  0  0  0
 29 31  1  6  0  0  0
 31 32  1  0  0  0  0
 22 30  1  0  0  0  0
  2 21  1  0  0  0  0
M  END
>  <cdx:fragmentId>
5

$$$$
