94636.cdx
  Mrv1902 05222410212D          

 47 52  0  0  0  0            999 V2000
    6.3093   -6.5863    0.0000 C   0  0  0  0  0  0  0  0  0  0  0  0
    6.3093   -7.4112    0.0000 C   0  0  1  0  0  0  0  0  0  0  0  0
    7.0238   -7.8237    0.0000 C   0  0  1  0  0  0  0  0  0  0  0  0
    7.7382   -7.4112    0.0000 C   0  0  0  0  0  0  0  0  0  0  0  0
    7.7382   -6.5863    0.0000 C   0  0  2  0  0  0  0  0  0  0  0  0
    7.0238   -6.1737    0.0000 C   0  0  0  0  0  0  0  0  0  0  0  0
    8.4527   -7.8237    0.0000 C   0  0  0  0  0  0  0  0  0  0  0  0
    9.1672   -7.4112    0.0000 C   0  0  0  0  0  0  0  0  0  0  0  0
    9.1672   -6.5863    0.0000 C   0  0  2  0  0  0  0  0  0  0  0  0
    8.4527   -6.1737    0.0000 C   0  0  0  0  0  0  0  0  0  0  0  0
    9.8817   -6.1737    0.0000 C   0  0  1  0  0  0  0  0  0  0  0  0
    9.8817   -5.3487    0.0000 C   0  0  0  0  0  0  0  0  0  0  0  0
    9.1672   -4.9363    0.0000 C   0  0  0  0  0  0  0  0  0  0  0  0
    8.4527   -5.3487    0.0000 C   0  0  0  0  0  0  0  0  0  0  0  0
   10.5961   -6.5863    0.0000 C   0  0  0  0  0  0  0  0  0  0  0  0
   11.3106   -6.1737    0.0000 C   0  0  0  0  0  0  0  0  0  0  0  0
   11.3106   -5.3487    0.0000 C   0  0  2  0  0  0  0  0  0  0  0  0
   10.5961   -4.9363    0.0000 C   0  0  0  0  0  0  0  0  0  0  0  0
   12.0251   -4.9363    0.0000 C   0  0  0  0  0  0  0  0  0  0  0  0
   12.0251   -4.1113    0.0000 C   0  0  0  0  0  0  0  0  0  0  0  0
   11.3106   -3.6988    0.0000 C   0  0  1  0  0  0  0  0  0  0  0  0
   10.5961   -4.1113    0.0000 C   0  0  1  0  0  0  0  0  0  0  0  0
    5.5948   -7.8237    0.0000 O   0  0  0  0  0  0  0  0  0  0  0  0
    6.6113   -8.5382    0.0000 C   0  0  0  0  0  0  0  0  0  0  0  0
    7.7382   -5.7612    0.0000 C   0  0  0  0  0  0  0  0  0  0  0  0
    9.1672   -5.7612    0.0000 C   0  0  0  0  0  0  0  0  0  0  0  0
   12.0251   -5.7612    0.0000 C   0  0  0  0  0  0  0  0  0  0  0  0
    7.4363   -8.5382    0.0000 C   0  0  0  0  0  0  0  0  0  0  0  0
    9.8817   -6.9988    0.0000 C   0  0  0  0  0  0  0  0  0  0  0  0
   12.7395   -5.3487    0.0000 O   0  0  0  0  0  0  0  0  0  0  0  0
   12.0251   -6.5863    0.0000 O   0  0  0  0  0  0  0  0  0  0  0  0
    9.7992   -3.8977    0.0000 O   0  0  0  0  0  0  0  0  0  0  0  0
    4.8804   -8.2363    0.0000 C   0  0  2  0  0  0  0  0  0  0  0  0
    4.1659   -7.8237    0.0000 O   0  0  0  0  0  0  0  0  0  0  0  0
    3.4514   -8.2363    0.0000 C   0  0  1  0  0  0  0  0  0  0  0  0
    3.4514   -9.0613    0.0000 C   0  0  2  0  0  0  0  0  0  0  0  0
    4.1659   -9.4738    0.0000 C   0  0  1  0  0  0  0  0  0  0  0  0
    4.8804   -9.0613    0.0000 C   0  0  1  0  0  0  0  0  0  0  0  0
    2.7369   -7.8237    0.0000 C   0  0  0  0  0  0  0  0  0  0  0  0
    4.1659  -10.2988    0.0000 O   0  0  0  0  0  0  0  0  0  0  0  0
    2.7369   -9.4738    0.0000 O   0  0  0  0  0  0  0  0  0  0  0  0
    5.5948   -9.4738    0.0000 O   0  0  0  0  0  0  0  0  0  0  0  0
    2.0225   -8.2363    0.0000 O   0  0  0  0  0  0  0  0  0  0  0  0
    2.7369   -6.9988    0.0000 O   0  0  0  0  0  0  0  0  0  0  0  0
    1.3080   -7.8237    0.0000 C   0  0  0  0  0  0  0  0  0  0  0  0
   10.8981   -2.9843    0.0000 C   0  0  0  0  0  0  0  0  0  0  0  0
   11.7231   -2.9843    0.0000 C   0  0  0  0  0  0  0  0  0  0  0  0
  1  2  1  0  0  0  0
  2  3  1  0  0  0  0
  3  4  1  0  0  0  0
  4  5  1  0  0  0  0
  5  6  1  0  0  0  0
  6  1  1  0  0  0  0
  4  7  1  0  0  0  0
  7  8  1  0  0  0  0
  8  9  1  0  0  0  0
  9 10  1  0  0  0  0
 10  5  1  0  0  0  0
  9 11  1  0  0  0  0
 11 12  1  0  0  0  0
 12 13  2  0  0  0  0
 13 14  1  0  0  0  0
 14 10  1  0  0  0  0
 11 15  1  0  0  0  0
 15 16  1  0  0  0  0
 16 17  1  0  0  0  0
 17 18  1  0  0  0  0
 18 12  1  0  0  0  0
 17 19  1  0  0  0  0
 19 20  1  0  0  0  0
 20 21  1  0  0  0  0
 21 22  1  0  0  0  0
 22 18  1  0  0  0  0
  2 23  1  1  0  0  0
  3 24  1  1  0  0  0
  5 25  1  1  0  0  0
  9 26  1  1  0  0  0
 17 27  1  1  0  0  0
  3 28  1  6  0  0  0
 11 29  1  6  0  0  0
 27 30  2  0  0  0  0
 27 31  1  0  0  0  0
 22 32  1  6  0  0  0
 33 23  1  1  0  0  0
 33 34  1  0  0  0  0
 34 35  1  0  0  0  0
 35 36  1  0  0  0  0
 36 37  1  0  0  0  0
 37 38  1  0  0  0  0
 38 33  1  0  0  0  0
 35 39  1  1  0  0  0
 37 40  1  1  0  0  0
 36 41  1  6  0  0  0
 38 42  1  6  0  0  0
 39 43  1  0  0  0  0
 39 44  2  0  0  0  0
 43 45  1  0  0  0  0
 21 46  1  1  0  0  0
 21 47  1  6  0  0  0
M  END
>  <cdx:fragmentId>
5

$$$$
