94634.cdx
  Mrv1902 05222410212D          

 46 51  0  0  0  0            999 V2000
    4.4118   -8.0713    0.0000 C   0  0  0  0  0  0  0  0  0  0  0  0
    4.4118   -8.8963    0.0000 C   0  0  1  0  0  0  0  0  0  0  0  0
    5.1263   -9.3087    0.0000 C   0  0  1  0  0  0  0  0  0  0  0  0
    5.8407   -8.8963    0.0000 C   0  0  0  0  0  0  0  0  0  0  0  0
    5.8407   -8.0713    0.0000 C   0  0  2  0  0  0  0  0  0  0  0  0
    5.1263   -7.6587    0.0000 C   0  0  0  0  0  0  0  0  0  0  0  0
    6.5552   -9.3087    0.0000 C   0  0  0  0  0  0  0  0  0  0  0  0
    7.2697   -8.8963    0.0000 C   0  0  0  0  0  0  0  0  0  0  0  0
    7.2697   -8.0713    0.0000 C   0  0  2  0  0  0  0  0  0  0  0  0
    6.5552   -7.6587    0.0000 C   0  0  0  0  0  0  0  0  0  0  0  0
    7.9842   -7.6587    0.0000 C   0  0  1  0  0  0  0  0  0  0  0  0
    7.9842   -6.8338    0.0000 C   0  0  0  0  0  0  0  0  0  0  0  0
    7.2697   -6.4213    0.0000 C   0  0  0  0  0  0  0  0  0  0  0  0
    6.5552   -6.8338    0.0000 C   0  0  0  0  0  0  0  0  0  0  0  0
    8.6986   -8.0713    0.0000 C   0  0  0  0  0  0  0  0  0  0  0  0
    9.4131   -7.6587    0.0000 C   0  0  0  0  0  0  0  0  0  0  0  0
    9.4131   -6.8338    0.0000 C   0  0  2  0  0  0  0  0  0  0  0  0
    8.6986   -6.4213    0.0000 C   0  0  0  0  0  0  0  0  0  0  0  0
   10.1276   -6.4213    0.0000 C   0  0  0  0  0  0  0  0  0  0  0  0
   10.1276   -5.5962    0.0000 C   0  0  0  0  0  0  0  0  0  0  0  0
    9.4131   -5.1837    0.0000 C   0  0  1  0  0  0  0  0  0  0  0  0
    8.6986   -5.5962    0.0000 C   0  0  1  0  0  0  0  0  0  0  0  0
    3.6973   -9.3087    0.0000 O   0  0  0  0  0  0  0  0  0  0  0  0
    4.7138  -10.0232    0.0000 C   0  0  0  0  0  0  0  0  0  0  0  0
    5.8407   -7.2462    0.0000 C   0  0  0  0  0  0  0  0  0  0  0  0
    7.2697   -7.2462    0.0000 C   0  0  0  0  0  0  0  0  0  0  0  0
   10.1276   -7.2462    0.0000 C   0  0  0  0  0  0  0  0  0  0  0  0
    5.5388  -10.0232    0.0000 C   0  0  0  0  0  0  0  0  0  0  0  0
    7.9842   -8.4838    0.0000 C   0  0  0  0  0  0  0  0  0  0  0  0
    6.3638  -10.0232    0.0000 O   0  0  0  0  0  0  0  0  0  0  0  0
   10.8420   -6.8338    0.0000 O   0  0  0  0  0  0  0  0  0  0  0  0
   10.1276   -8.0713    0.0000 O   0  0  0  0  0  0  0  0  0  0  0  0
    7.9017   -5.3827    0.0000 O   0  0  0  0  0  0  0  0  0  0  0  0
    9.0006   -4.4693    0.0000 C   0  0  0  0  0  0  0  0  0  0  0  0
    9.8256   -4.4693    0.0000 C   0  0  0  0  0  0  0  0  0  0  0  0
    9.7151   -8.7857    0.0000 C   0  0  2  0  0  0  0  0  0  0  0  0
    8.8901   -8.7857    0.0000 O   0  0  0  0  0  0  0  0  0  0  0  0
    8.4776   -9.5002    0.0000 C   0  0  1  0  0  0  0  0  0  0  0  0
    8.8901  -10.2147    0.0000 C   0  0  2  0  0  0  0  0  0  0  0  0
    9.7151  -10.2147    0.0000 C   0  0  1  0  0  0  0  0  0  0  0  0
   10.1276   -9.5002    0.0000 C   0  0  1  0  0  0  0  0  0  0  0  0
    7.6526   -9.5002    0.0000 C   0  0  0  0  0  0  0  0  0  0  0  0
   10.1276  -10.9291    0.0000 O   0  0  0  0  0  0  0  0  0  0  0  0
    7.2401  -10.2147    0.0000 O   0  0  0  0  0  0  0  0  0  0  0  0
    8.4776  -10.9291    0.0000 O   0  0  0  0  0  0  0  0  0  0  0  0
   10.9526   -9.5002    0.0000 O   0  0  0  0  0  0  0  0  0  0  0  0
  1  2  1  0  0  0  0
  2  3  1  0  0  0  0
  3  4  1  0  0  0  0
  4  5  1  0  0  0  0
  5  6  1  0  0  0  0
  6  1  1  0  0  0  0
  4  7  1  0  0  0  0
  7  8  1  0  0  0  0
  8  9  1  0  0  0  0
  9 10  1  0  0  0  0
 10  5  1  0  0  0  0
  9 11  1  0  0  0  0
 11 12  1  0  0  0  0
 12 13  2  0  0  0  0
 13 14  1  0  0  0  0
 14 10  1  0  0  0  0
 11 15  1  0  0  0  0
 15 16  1  0  0  0  0
 16 17  1  0  0  0  0
 17 18  1  0  0  0  0
 18 12  1  0  0  0  0
 17 19  1  0  0  0  0
 19 20  1  0  0  0  0
 20 21  1  0  0  0  0
 21 22  1  0  0  0  0
 22 18  1  0  0  0  0
  2 23  1  1  0  0  0
  3 24  1  1  0  0  0
  5 25  1  1  0  0  0
  9 26  1  1  0  0  0
 17 27  1  1  0  0  0
  3 28  1  6  0  0  0
 11 29  1  6  0  0  0
 28 30  1  0  0  0  0
 27 31  2  0  0  0  0
 27 32  1  0  0  0  0
 22 33  1  6  0  0  0
 21 34  1  1  0  0  0
 21 35  1  6  0  0  0
 36 32  1  1  0  0  0
 36 37  1  0  0  0  0
 37 38  1  0  0  0  0
 38 39  1  0  0  0  0
 39 40  1  0  0  0  0
 40 41  1  0  0  0  0
 41 36  1  0  0  0  0
 38 42  1  1  0  0  0
 40 43  1  1  0  0  0
 42 44  1  0  0  0  0
 39 45  1  6  0  0  0
 41 46  1  6  0  0  0
M  END
>  <cdx:fragmentId>
5

$$$$
