94637.cdx
  Mrv1902 05222410212D          

 70 77  0  0  0  0            999 V2000
   12.2204  -10.6718    0.0000 C   0  0  0  0  0  0  0  0  0  0  0  0
   11.5060  -11.0843    0.0000 C   0  0  0  0  0  0  0  0  0  0  0  0
   11.5060  -11.9093    0.0000 C   0  0  1  0  0  0  0  0  0  0  0  0
   12.2204  -12.3218    0.0000 C   0  0  0  0  0  0  0  0  0  0  0  0
   12.9349  -11.9093    0.0000 C   0  0  2  0  0  0  0  0  0  0  0  0
   13.6494  -12.3218    0.0000 C   0  0  0  0  0  0  0  0  0  0  0  0
   14.3638  -11.9093    0.0000 C   0  0  0  0  0  0  0  0  0  0  0  0
   14.3638  -11.0843    0.0000 C   0  0  1  0  0  0  0  0  0  0  0  0
   15.0783  -10.6718    0.0000 C   0  0  2  0  0  0  0  0  0  0  0  0
   15.0783   -9.8468    0.0000 C   0  0  0  0  0  0  0  0  0  0  0  0
   14.3638   -9.4343    0.0000 C   0  0  0  0  0  0  0  0  0  0  0  0
   13.6494   -9.8468    0.0000 C   0  0  0  0  0  0  0  0  0  0  0  0
   13.6494  -10.6718    0.0000 C   0  0  2  0  0  0  0  0  0  0  0  0
   12.9349  -11.0843    0.0000 C   0  0  1  0  0  0  0  0  0  0  0  0
   15.0783  -11.4968    0.0000 C   0  0  0  0  0  0  0  0  0  0  0  0
   12.9349  -10.2593    0.0000 C   0  0  0  0  0  0  0  0  0  0  0  0
   14.3638  -10.2593    0.0000 C   0  0  0  0  0  0  0  0  0  0  0  0
   12.6329  -13.0363    0.0000 C   0  0  0  0  0  0  0  0  0  0  0  0
   11.8079  -13.0363    0.0000 C   0  0  0  0  0  0  0  0  0  0  0  0
   10.7915  -12.3218    0.0000 O   0  0  0  0  0  0  0  0  0  0  0  0
   15.7928  -11.0843    0.0000 C   0  0  0  0  0  0  0  0  0  0  0  0
   16.5073  -10.6718    0.0000 C   0  0  0  0  0  0  0  0  0  0  0  0
   16.5073   -9.8468    0.0000 C   0  0  2  0  0  0  0  0  0  0  0  0
   15.7928   -9.4343    0.0000 C   0  0  1  0  0  0  0  0  0  0  0  0
   17.2217   -9.4343    0.0000 C   0  0  0  0  0  0  0  0  0  0  0  0
   17.2217   -8.6093    0.0000 C   0  0  0  0  0  0  0  0  0  0  0  0
   16.5073   -8.1968    0.0000 C   0  0  0  0  0  0  0  0  0  0  0  0
   15.7928   -8.6093    0.0000 C   0  0  0  0  0  0  0  0  0  0  0  0
   17.2217  -10.2593    0.0000 C   0  0  0  0  0  0  0  0  0  0  0  0
   17.2217  -11.0843    0.0000 O   0  0  0  0  0  0  0  0  0  0  0  0
   17.9362   -9.8468    0.0000 O   0  0  0  0  0  0  0  0  0  0  0  0
   18.6507  -10.2593    0.0000 C   0  0  2  0  0  0  0  0  0  0  0  0
   18.6507  -11.0843    0.0000 O   0  0  0  0  0  0  0  0  0  0  0  0
   19.3651  -11.4968    0.0000 C   0  0  1  0  0  0  0  0  0  0  0  0
   20.0796  -11.0843    0.0000 C   0  0  2  0  0  0  0  0  0  0  0  0
   20.0796  -10.2593    0.0000 C   0  0  1  0  0  0  0  0  0  0  0  0
   19.3651   -9.8468    0.0000 C   0  0  1  0  0  0  0  0  0  0  0  0
   19.3651  -12.3218    0.0000 C   0  0  0  0  0  0  0  0  0  0  0  0
   20.7941   -9.8468    0.0000 O   0  0  0  0  0  0  0  0  0  0  0  0
   19.3651   -9.0218    0.0000 O   0  0  0  0  0  0  0  0  0  0  0  0
   20.7941  -11.4968    0.0000 O   0  0  0  0  0  0  0  0  0  0  0  0
   20.0796  -12.7343    0.0000 O   0  0  0  0  0  0  0  0  0  0  0  0
   12.9349  -12.7343    0.0000 H   0  0  0  0  0  0  0  0  0  0  0  0
   13.6494  -11.4968    0.0000 H   0  0  0  0  0  0  0  0  0  0  0  0
   15.7928  -10.2593    0.0000 H   0  0  0  0  0  0  0  0  0  0  0  0
   16.9198   -7.4823    0.0000 C   0  0  0  0  0  0  0  0  0  0  0  0
   10.0770  -11.9093    0.0000 C   0  0  2  0  0  0  0  0  0  0  0  0
   10.0770  -11.0843    0.0000 O   0  0  0  0  0  0  0  0  0  0  0  0
    9.3626  -10.6718    0.0000 C   0  0  1  0  0  0  0  0  0  0  0  0
    8.6481  -11.0843    0.0000 C   0  0  2  0  0  0  0  0  0  0  0  0
    8.6481  -11.9093    0.0000 C   0  0  1  0  0  0  0  0  0  0  0  0
    9.3626  -12.3218    0.0000 C   0  0  1  0  0  0  0  0  0  0  0  0
    9.3626   -9.8468    0.0000 C   0  0  0  0  0  0  0  0  0  0  0  0
    7.9336  -12.3218    0.0000 O   0  0  0  0  0  0  0  0  0  0  0  0
    9.3626  -13.1468    0.0000 O   0  0  0  0  0  0  0  0  0  0  0  0
    7.9336  -10.6718    0.0000 O   0  0  0  0  0  0  0  0  0  0  0  0
    8.6481   -9.4343    0.0000 O   0  0  0  0  0  0  0  0  0  0  0  0
   10.0770   -9.4343    0.0000 O   0  0  0  0  0  0  0  0  0  0  0  0
   16.0948   -7.4823    0.0000 C   0  0  0  0  0  0  0  0  0  0  0  0
   20.0796  -13.5593    0.0000 C   0  0  2  0  0  0  0  0  0  0  0  0
   19.3651  -13.9718    0.0000 O   0  0  0  0  0  0  0  0  0  0  0  0
   19.3651  -14.7968    0.0000 C   0  0  1  0  0  0  0  0  0  0  0  0
   20.0796  -15.2093    0.0000 C   0  0  2  0  0  0  0  0  0  0  0  0
   20.7941  -14.7968    0.0000 C   0  0  1  0  0  0  0  0  0  0  0  0
   20.7941  -13.9718    0.0000 C   0  0  1  0  0  0  0  0  0  0  0  0
   18.6507  -15.2093    0.0000 C   0  0  0  0  0  0  0  0  0  0  0  0
   21.5086  -15.2093    0.0000 O   0  0  0  0  0  0  0  0  0  0  0  0
   20.0796  -16.0343    0.0000 O   0  0  0  0  0  0  0  0  0  0  0  0
   21.5086  -13.5593    0.0000 O   0  0  0  0  0  0  0  0  0  0  0  0
   18.6507  -16.0343    0.0000 O   0  0  0  0  0  0  0  0  0  0  0  0
  1  2  1  0  0  0  0
  2  3  1  0  0  0  0
  3  4  1  0  0  0  0
  4  5  1  0  0  0  0
  5  6  1  0  0  0  0
  6  7  1  0  0  0  0
  7  8  1  0  0  0  0
  8  9  1  0  0  0  0
  9 10  1  0  0  0  0
 10 11  2  0  0  0  0
 11 12  1  0  0  0  0
 12 13  1  0  0  0  0
  8 13  1  0  0  0  0
 13 14  1  0  0  0  0
  5 14  1  0  0  0  0
  1 14  1  0  0  0  0
  9 15  1  6  0  0  0
 14 16  1  1  0  0  0
  8 17  1  1  0  0  0
  4 18  1  0  0  0  0
  4 19  1  0  0  0  0
  3 20  1  1  0  0  0
  9 21  1  0  0  0  0
 21 22  1  0  0  0  0
 22 23  1  0  0  0  0
 23 24  1  0  0  0  0
 24 10  1  0  0  0  0
 23 25  1  0  0  0  0
 25 26  1  0  0  0  0
 26 27  1  0  0  0  0
 27 28  1  0  0  0  0
 28 24  1  0  0  0  0
 23 29  1  1  0  0  0
 29 30  2  0  0  0  0
 29 31  1  0  0  0  0
 32 31  1  1  0  0  0
 32 33  1  0  0  0  0
 33 34  1  0  0  0  0
 34 35  1  0  0  0  0
 35 36  1  0  0  0  0
 36 37  1  0  0  0  0
 37 32  1  0  0  0  0
 34 38  1  1  0  0  0
 36 39  1  1  0  0  0
 37 40  1  6  0  0  0
 35 41  1  6  0  0  0
 38 42  1  0  0  0  0
  5 43  1  6  0  0  0
 13 44  1  6  0  0  0
 24 45  1  1  0  0  0
 27 46  1  0  0  0  0
 47 20  1  1  0  0  0
 47 48  1  0  0  0  0
 48 49  1  0  0  0  0
 49 50  1  0  0  0  0
 50 51  1  0  0  0  0
 51 52  1  0  0  0  0
 52 47  1  0  0  0  0
 49 53  1  1  0  0  0
 51 54  1  1  0  0  0
 52 55  1  6  0  0  0
 50 56  1  6  0  0  0
 53 57  1  0  0  0  0
 53 58  2  0  0  0  0
 27 59  1  0  0  0  0
 60 42  1  1  0  0  0
 60 61  1  0  0  0  0
 61 62  1  0  0  0  0
 62 63  1  0  0  0  0
 63 64  1  0  0  0  0
 64 65  1  0  0  0  0
 65 60  1  0  0  0  0
 62 66  1  1  0  0  0
 64 67  1  1  0  0  0
 63 68  1  6  0  0  0
 65 69  1  6  0  0  0
 66 70  1  0  0  0  0
M  END
>  <cdx:fragmentId>
31943

$$$$
