94631.cdx
  Mrv1902 05222410232D          

 47 52  0  0  0  0            999 V2000
    2.5516   -9.7493    0.0000 C   0  0  1  0  0  0  0  0  0  0  0  0
    2.5516   -8.9243    0.0000 C   0  0  0  0  0  0  0  0  0  0  0  0
    3.2661   -8.5118    0.0000 C   0  0  0  0  0  0  0  0  0  0  0  0
    3.2661  -10.1618    0.0000 C   0  0  2  0  0  0  0  0  0  0  0  0
    3.6786  -10.8762    0.0000 C   0  0  0  0  0  0  0  0  0  0  0  0
    2.8536  -10.8762    0.0000 C   0  0  0  0  0  0  0  0  0  0  0  0
    3.9805   -9.7493    0.0000 C   0  0  2  0  0  0  0  0  0  0  0  0
    3.9805  -10.5743    0.0000 H   0  0  0  0  0  0  0  0  0  0  0  0
    4.6950  -10.1618    0.0000 C   0  0  0  0  0  0  0  0  0  0  0  0
    5.4095   -9.7493    0.0000 C   0  0  0  0  0  0  0  0  0  0  0  0
    5.4095   -8.9243    0.0000 C   0  0  1  0  0  0  0  0  0  0  0  0
    5.4095   -8.0993    0.0000 C   0  0  0  0  0  0  0  0  0  0  0  0
    6.1239   -8.5118    0.0000 C   0  0  2  0  0  0  0  0  0  0  0  0
    6.1239   -9.3368    0.0000 C   0  0  0  0  0  0  0  0  0  0  0  0
    6.8384   -8.9243    0.0000 C   0  0  0  0  0  0  0  0  0  0  0  0
    7.5529   -8.5118    0.0000 C   0  0  0  0  0  0  0  0  0  0  0  0
    7.5529   -7.6868    0.0000 C   0  0  1  0  0  0  0  0  0  0  0  0
    8.2674   -8.0993    0.0000 C   0  0  0  0  0  0  0  0  0  0  0  0
    8.2674   -7.2743    0.0000 C   0  0  0  0  0  0  0  0  0  0  0  0
    8.2674   -6.4493    0.0000 C   0  0  0  0  0  0  0  0  0  0  0  0
    7.5529   -6.0368    0.0000 C   0  0  1  0  0  0  0  0  0  0  0  0
    7.5529   -5.2118    0.0000 C   0  0  0  0  0  0  0  0  0  0  0  0
    6.8384   -6.4493    0.0000 C   0  0  0  0  0  0  0  0  0  0  0  0
    6.1239   -6.0368    0.0000 C   0  0  0  0  0  0  0  0  0  0  0  0
    6.8384   -7.2743    0.0000 C   0  0  0  0  0  0  0  0  0  0  0  0
    6.1239   -7.6868    0.0000 C   0  0  0  0  0  0  0  0  0  0  0  0
    5.4095   -7.2743    0.0000 C   0  0  0  0  0  0  0  0  0  0  0  0
    4.6950   -7.6868    0.0000 C   0  0  0  0  0  0  0  0  0  0  0  0
    4.6950   -8.5118    0.0000 C   0  0  2  0  0  0  0  0  0  0  0  0
    3.9805   -8.9243    0.0000 C   0  0  1  0  0  0  0  0  0  0  0  0
    3.9805   -8.0993    0.0000 C   0  0  0  0  0  0  0  0  0  0  0  0
    8.2674   -8.9243    0.0000 O   0  0  0  0  0  0  0  0  0  0  0  0
    8.9818   -7.6868    0.0000 O   0  0  0  0  0  0  0  0  0  0  0  0
    3.2661  -11.5907    0.0000 O   0  0  0  0  0  0  0  0  0  0  0  0
    1.8371  -10.1618    0.0000 O   0  0  0  0  0  0  0  0  0  0  0  0
    9.6963   -8.0993    0.0000 C   0  0  1  0  0  0  0  0  0  0  0  0
    9.6963   -8.9243    0.0000 C   0  0  2  0  0  0  0  0  0  0  0  0
    8.9818   -9.3368    0.0000 O   0  0  0  0  0  0  0  0  0  0  0  0
   10.4108   -9.3368    0.0000 C   0  0  1  0  0  0  0  0  0  0  0  0
   10.4108  -10.1618    0.0000 O   0  0  0  0  0  0  0  0  0  0  0  0
   11.1252   -8.9243    0.0000 C   0  0  2  0  0  0  0  0  0  0  0  0
   11.8397   -9.3368    0.0000 O   0  0  0  0  0  0  0  0  0  0  0  0
   11.1252   -8.0993    0.0000 C   0  0  2  0  0  0  0  0  0  0  0  0
   10.4108   -7.6868    0.0000 O   0  0  0  0  0  0  0  0  0  0  0  0
   11.8397   -7.6868    0.0000 C   0  0  0  0  0  0  0  0  0  0  0  0
   12.5542   -8.0993    0.0000 O   0  0  0  0  0  0  0  0  0  0  0  0
    4.6950   -9.3368    0.0000 H   0  0  0  0  0  0  0  0  0  0  0  0
  1  2  1  0  0  0  0
  2  3  1  0  0  0  0
  1  4  1  0  0  0  0
  4  5  1  6  0  0  0
  4  6  1  1  0  0  0
  4  7  1  0  0  0  0
  7  8  1  6  0  0  0
  7  9  1  0  0  0  0
  9 10  1  0  0  0  0
 10 11  1  0  0  0  0
 11 12  1  1  0  0  0
 11 13  1  0  0  0  0
 13 14  1  6  0  0  0
 13 15  1  0  0  0  0
 15 16  1  0  0  0  0
 16 17  1  0  0  0  0
 17 18  1  1  0  0  0
 17 19  1  0  0  0  0
 19 20  1  0  0  0  0
 20 21  1  0  0  0  0
 21 22  1  6  0  0  0
 21 23  1  0  0  0  0
 23 24  1  0  0  0  0
 23 25  2  0  0  0  0
 17 25  1  0  0  0  0
 25 26  1  0  0  0  0
 13 26  1  0  0  0  0
 26 27  2  0  0  0  0
 27 28  1  0  0  0  0
 28 29  1  0  0  0  0
 11 29  1  0  0  0  0
 29 30  1  0  0  0  0
  3 30  1  0  0  0  0
  7 30  1  0  0  0  0
 30 31  1  1  0  0  0
 18 32  2  0  0  0  0
 18 33  1  0  0  0  0
  5 34  1  0  0  0  0
  1 35  1  1  0  0  0
 36 37  1  0  0  0  0
 37 38  1  1  0  0  0
 37 39  1  0  0  0  0
 39 40  1  6  0  0  0
 39 41  1  0  0  0  0
 41 42  1  1  0  0  0
 41 43  1  0  0  0  0
 43 44  1  0  0  0  0
 43 45  1  6  0  0  0
 45 46  1  0  0  0  0
 36 44  1  0  0  0  0
 36 33  1  6  0  0  0
 29 47  1  6  0  0  0
M  END
>  <cdx:groupId>
148

>  <cdx:fragmentId>
5

$$$$
