94638.cdx
  Mrv1902 05222410252D          

 65 72  0  0  0  0            999 V2000
    5.7897   -8.1554    0.0000 C   0  0  1  0  0  0  0  0  0  0  0  0
    5.7897   -7.5779    0.0000 C   0  0  0  0  0  0  0  0  0  0  0  0
    6.2898   -7.2891    0.0000 C   0  0  0  0  0  0  0  0  0  0  0  0
    6.2898   -8.4441    0.0000 C   0  0  2  0  0  0  0  0  0  0  0  0
    6.5786   -8.9442    0.0000 C   0  0  0  0  0  0  0  0  0  0  0  0
    6.0011   -8.9442    0.0000 C   0  0  0  0  0  0  0  0  0  0  0  0
    6.7900   -8.1554    0.0000 C   0  0  0  0  0  0  0  0  0  0  0  0
    7.2901   -8.4441    0.0000 C   0  0  0  0  0  0  0  0  0  0  0  0
    7.7902   -8.1554    0.0000 C   0  0  0  0  0  0  0  0  0  0  0  0
    7.7902   -7.5779    0.0000 C   0  0  1  0  0  0  0  0  0  0  0  0
    7.7902   -7.0004    0.0000 C   0  0  0  0  0  0  0  0  0  0  0  0
    8.2904   -7.2891    0.0000 C   0  0  2  0  0  0  0  0  0  0  0  0
    8.2904   -7.8666    0.0000 C   0  0  0  0  0  0  0  0  0  0  0  0
    8.7905   -7.5779    0.0000 C   0  0  0  0  0  0  0  0  0  0  0  0
    9.2906   -7.2891    0.0000 C   0  0  0  0  0  0  0  0  0  0  0  0
    9.2906   -6.7116    0.0000 C   0  0  1  0  0  0  0  0  0  0  0  0
    9.7907   -7.0004    0.0000 C   0  0  0  0  0  0  0  0  0  0  0  0
    9.7907   -6.4229    0.0000 C   0  0  0  0  0  0  0  0  0  0  0  0
    9.7907   -5.8454    0.0000 C   0  0  0  0  0  0  0  0  0  0  0  0
    9.2906   -5.5566    0.0000 C   0  0  1  0  0  0  0  0  0  0  0  0
    9.2906   -4.9791    0.0000 C   0  0  0  0  0  0  0  0  0  0  0  0
    8.7905   -5.8454    0.0000 C   0  0  2  0  0  0  0  0  0  0  0  0
    8.5017   -5.3452    0.0000 C   0  0  0  0  0  0  0  0  0  0  0  0
    8.7905   -6.4229    0.0000 C   0  0  0  0  0  0  0  0  0  0  0  0
    8.2904   -6.7116    0.0000 C   0  0  0  0  0  0  0  0  0  0  0  0
    7.7902   -6.4229    0.0000 C   0  0  0  0  0  0  0  0  0  0  0  0
    7.2901   -6.7116    0.0000 C   0  0  0  0  0  0  0  0  0  0  0  0
    7.2901   -7.2891    0.0000 C   0  0  0  0  0  0  0  0  0  0  0  0
    6.7900   -7.5779    0.0000 C   0  0  1  0  0  0  0  0  0  0  0  0
    6.7900   -7.0004    0.0000 C   0  0  0  0  0  0  0  0  0  0  0  0
    9.7907   -7.5779    0.0000 O   0  0  0  0  0  0  0  0  0  0  0  0
   10.2909   -6.7116    0.0000 O   0  0  0  0  0  0  0  0  0  0  0  0
    8.2130   -5.8454    0.0000 O   0  0  0  0  0  0  0  0  0  0  0  0
    5.2896   -8.4441    0.0000 O   0  0  0  0  0  0  0  0  0  0  0  0
    4.7887   -8.7315    0.0000 C   0  0  1  0  0  0  0  0  0  0  0  0
    4.7871   -9.3090    0.0000 C   0  0  2  0  0  0  0  0  0  0  0  0
    5.2864   -9.5991    0.0000 O   0  0  0  0  0  0  0  0  0  0  0  0
    4.2862   -9.5964    0.0000 C   0  0  1  0  0  0  0  0  0  0  0  0
    4.2846  -10.1739    0.0000 O   0  0  0  0  0  0  0  0  0  0  0  0
    3.7868   -9.3062    0.0000 C   0  0  1  0  0  0  0  0  0  0  0  0
    3.2859   -9.5936    0.0000 O   0  0  0  0  0  0  0  0  0  0  0  0
    3.7884   -8.7287    0.0000 C   0  0  0  0  0  0  0  0  0  0  0  0
    4.2893   -8.4414    0.0000 O   0  0  0  0  0  0  0  0  0  0  0  0
   10.7749   -7.0001    0.0000 C   0  0  1  0  0  0  0  0  0  0  0  0
   11.2764   -6.7136    0.0000 C   0  0  2  0  0  0  0  0  0  0  0  0
   11.2790   -6.1361    0.0000 O   0  0  0  0  0  0  0  0  0  0  0  0
   11.7752   -7.0047    0.0000 C   0  0  1  0  0  0  0  0  0  0  0  0
   12.2766   -6.7182    0.0000 O   0  0  0  0  0  0  0  0  0  0  0  0
   11.7725   -7.5822    0.0000 C   0  0  2  0  0  0  0  0  0  0  0  0
   12.2713   -7.8732    0.0000 O   0  0  0  0  0  0  0  0  0  0  0  0
   11.2711   -7.8686    0.0000 C   0  0  2  0  0  0  0  0  0  0  0  0
   10.7723   -7.5776    0.0000 O   0  0  0  0  0  0  0  0  0  0  0  0
   11.2684   -8.4461    0.0000 C   0  0  0  0  0  0  0  0  0  0  0  0
   11.7672   -8.7372    0.0000 O   0  0  0  0  0  0  0  0  0  0  0  0
    3.9941  -10.6631    0.0000 C   0  0  1  0  0  0  0  0  0  0  0  0
    4.2788  -11.1656    0.0000 C   0  0  2  0  0  0  0  0  0  0  0  0
    4.8562  -11.1704    0.0000 O   0  0  0  0  0  0  0  0  0  0  0  0
    3.9859  -11.6633    0.0000 C   0  0  1  0  0  0  0  0  0  0  0  0
    4.2705  -12.1658    0.0000 O   0  0  0  0  0  0  0  0  0  0  0  0
    3.4084  -11.6586    0.0000 C   0  0  2  0  0  0  0  0  0  0  0  0
    3.1155  -12.1563    0.0000 O   0  0  0  0  0  0  0  0  0  0  0  0
    3.1238  -11.1561    0.0000 C   0  0  2  0  0  0  0  0  0  0  0  0
    3.4167  -10.6583    0.0000 O   0  0  0  0  0  0  0  0  0  0  0  0
    2.5463  -11.1513    0.0000 C   0  0  0  0  0  0  0  0  0  0  0  0
    2.2617  -10.6488    0.0000 O   0  0  0  0  0  0  0  0  0  0  0  0
  1  2  1  0  0  0  0
  2  3  1  0  0  0  0
  1  4  1  0  0  0  0
  4  5  1  6  0  0  0
  4  6  1  1  0  0  0
  4  7  1  0  0  0  0
  7  8  1  0  0  0  0
  8  9  1  0  0  0  0
  9 10  1  0  0  0  0
 10 11  1  1  0  0  0
 10 12  1  0  0  0  0
 12 13  1  6  0  0  0
 12 14  1  0  0  0  0
 14 15  1  0  0  0  0
 15 16  1  0  0  0  0
 16 17  1  1  0  0  0
 16 18  1  0  0  0  0
 18 19  1  0  0  0  0
 19 20  1  0  0  0  0
 20 21  1  6  0  0  0
 20 22  1  0  0  0  0
 22 23  1  0  0  0  0
 22 24  1  0  0  0  0
 16 24  1  0  0  0  0
 24 25  1  0  0  0  0
 12 25  1  0  0  0  0
 25 26  2  0  0  0  0
 26 27  1  0  0  0  0
 27 28  1  0  0  0  0
 10 28  1  0  0  0  0
 28 29  1  0  0  0  0
  3 29  1  0  0  0  0
  7 29  1  0  0  0  0
 29 30  1  1  0  0  0
 17 31  2  0  0  0  0
 17 32  1  0  0  0  0
 22 33  1  6  0  0  0
  1 34  1  1  0  0  0
 35 36  1  0  0  0  0
 36 37  1  6  0  0  0
 36 38  1  0  0  0  0
 38 39  1  1  0  0  0
 38 40  1  0  0  0  0
 40 41  1  1  0  0  0
 40 42  1  0  0  0  0
 42 43  1  0  0  0  0
 35 43  1  0  0  0  0
 35 34  1  1  0  0  0
 44 45  1  0  0  0  0
 45 46  1  6  0  0  0
 45 47  1  0  0  0  0
 47 48  1  1  0  0  0
 47 49  1  0  0  0  0
 49 50  1  6  0  0  0
 49 51  1  0  0  0  0
 51 52  1  0  0  0  0
 51 53  1  1  0  0  0
 53 54  1  0  0  0  0
 44 52  1  0  0  0  0
 44 32  1  1  0  0  0
 55 56  1  0  0  0  0
 56 57  1  6  0  0  0
 56 58  1  0  0  0  0
 58 59  1  1  0  0  0
 58 60  1  0  0  0  0
 60 61  1  6  0  0  0
 60 62  1  0  0  0  0
 62 63  1  0  0  0  0
 62 64  1  1  0  0  0
 64 65  1  0  0  0  0
 55 63  1  0  0  0  0
 55 39  1  1  0  0  0
M  END
>  <cdx:groupId>
250

>  <cdx:fragmentId>
5

$$$$
