94632.cdx
  Mrv1902 05222410222D          

 46 51  0  0  0  0            999 V2000
    5.7667  -10.0166    0.0000 C   0  0  1  0  0  0  0  0  0  0  0  0
    5.7667   -9.1916    0.0000 C   0  0  0  0  0  0  0  0  0  0  0  0
    6.4812   -8.7791    0.0000 C   0  0  0  0  0  0  0  0  0  0  0  0
    6.4812  -10.4291    0.0000 C   0  0  2  0  0  0  0  0  0  0  0  0
    6.8937  -11.1436    0.0000 C   0  0  0  0  0  0  0  0  0  0  0  0
    6.0687  -11.1436    0.0000 C   0  0  0  0  0  0  0  0  0  0  0  0
    7.1956  -10.0166    0.0000 C   0  0  2  0  0  0  0  0  0  0  0  0
    7.1956  -10.8416    0.0000 H   0  0  0  0  0  0  0  0  0  0  0  0
    7.9101  -10.4291    0.0000 C   0  0  0  0  0  0  0  0  0  0  0  0
    8.6246  -10.0166    0.0000 C   0  0  0  0  0  0  0  0  0  0  0  0
    8.6246   -9.1916    0.0000 C   0  0  1  0  0  0  0  0  0  0  0  0
    8.6246   -8.3666    0.0000 C   0  0  0  0  0  0  0  0  0  0  0  0
    9.3391   -8.7791    0.0000 C   0  0  2  0  0  0  0  0  0  0  0  0
    9.3391   -9.6041    0.0000 C   0  0  0  0  0  0  0  0  0  0  0  0
   10.0535   -9.1916    0.0000 C   0  0  0  0  0  0  0  0  0  0  0  0
   10.7680   -8.7791    0.0000 C   0  0  0  0  0  0  0  0  0  0  0  0
   10.7680   -7.9541    0.0000 C   0  0  1  0  0  0  0  0  0  0  0  0
   11.4825   -8.3666    0.0000 C   0  0  0  0  0  0  0  0  0  0  0  0
   11.4825   -7.5416    0.0000 C   0  0  0  0  0  0  0  0  0  0  0  0
   11.4825   -6.7166    0.0000 C   0  0  0  0  0  0  0  0  0  0  0  0
   10.7680   -6.3041    0.0000 C   0  0  1  0  0  0  0  0  0  0  0  0
   10.3555   -5.5896    0.0000 C   0  0  0  0  0  0  0  0  0  0  0  0
   11.1805   -5.5896    0.0000 C   0  0  0  0  0  0  0  0  0  0  0  0
   10.0535   -6.7166    0.0000 C   0  0  2  0  0  0  0  0  0  0  0  0
   10.0535   -7.5416    0.0000 C   0  0  1  0  0  0  0  0  0  0  0  0
   10.0535   -8.3666    0.0000 H   0  0  0  0  0  0  0  0  0  0  0  0
    9.3391   -7.9541    0.0000 C   0  0  0  0  0  0  0  0  0  0  0  0
    8.6246   -7.5416    0.0000 C   0  0  0  0  0  0  0  0  0  0  0  0
    7.9101   -7.9541    0.0000 C   0  0  0  0  0  0  0  0  0  0  0  0
    7.9101   -8.7791    0.0000 C   0  0  2  0  0  0  0  0  0  0  0  0
    7.1956   -9.1916    0.0000 C   0  0  1  0  0  0  0  0  0  0  0  0
    7.1956   -8.3666    0.0000 C   0  0  0  0  0  0  0  0  0  0  0  0
   11.4825   -9.1916    0.0000 O   0  0  0  0  0  0  0  0  0  0  0  0
   12.1969   -7.9541    0.0000 O   0  0  0  0  0  0  0  0  0  0  0  0
    9.3391   -6.3041    0.0000 O   0  0  0  0  0  0  0  0  0  0  0  0
    5.0522  -10.4291    0.0000 O   0  0  0  0  0  0  0  0  0  0  0  0
    4.3378  -10.0166    0.0000 C   0  0  1  0  0  0  0  0  0  0  0  0
    3.6233  -10.4291    0.0000 C   0  0  2  0  0  0  0  0  0  0  0  0
    3.6233  -11.2541    0.0000 O   0  0  0  0  0  0  0  0  0  0  0  0
    2.9088  -10.0166    0.0000 C   0  0  1  0  0  0  0  0  0  0  0  0
    2.1944  -10.4291    0.0000 O   0  0  0  0  0  0  0  0  0  0  0  0
    2.9088   -9.1916    0.0000 C   0  0  1  0  0  0  0  0  0  0  0  0
    2.1944   -8.7791    0.0000 O   0  0  0  0  0  0  0  0  0  0  0  0
    3.6233   -8.7791    0.0000 C   0  0  0  0  0  0  0  0  0  0  0  0
    4.3378   -9.1916    0.0000 O   0  0  0  0  0  0  0  0  0  0  0  0
    7.9101   -9.6041    0.0000 H   0  0  0  0  0  0  0  0  0  0  0  0
  1  2  1  0  0  0  0
  2  3  1  0  0  0  0
  1  4  1  0  0  0  0
  4  5  1  6  0  0  0
  4  6  1  1  0  0  0
  4  7  1  0  0  0  0
  7  8  1  6  0  0  0
  7  9  1  0  0  0  0
  9 10  1  0  0  0  0
 10 11  1  0  0  0  0
 11 12  1  1  0  0  0
 11 13  1  0  0  0  0
 13 14  1  6  0  0  0
 13 15  1  0  0  0  0
 15 16  1  0  0  0  0
 16 17  1  0  0  0  0
 17 18  1  1  0  0  0
 17 19  1  0  0  0  0
 19 20  1  0  0  0  0
 20 21  1  0  0  0  0
 21 22  1  1  0  0  0
 21 23  1  6  0  0  0
 21 24  1  0  0  0  0
 24 25  1  0  0  0  0
 25 26  1  1  0  0  0
 17 25  1  0  0  0  0
 25 27  1  0  0  0  0
 13 27  1  0  0  0  0
 27 28  2  0  0  0  0
 28 29  1  0  0  0  0
 29 30  1  0  0  0  0
 11 30  1  0  0  0  0
 30 31  1  0  0  0  0
  3 31  1  0  0  0  0
  7 31  1  0  0  0  0
 31 32  1  1  0  0  0
 18 33  2  0  0  0  0
 18 34  1  0  0  0  0
 24 35  1  6  0  0  0
 37 38  1  0  0  0  0
 38 39  1  6  0  0  0
 38 40  1  0  0  0  0
 40 41  1  1  0  0  0
 40 42  1  0  0  0  0
 42 43  1  1  0  0  0
 42 44  1  0  0  0  0
 44 45  1  0  0  0  0
 37 45  1  0  0  0  0
 37 36  1  1  0  0  0
  1 36  1  1  0  0  0
 30 46  1  6  0  0  0
M  END
>  <cdx:groupId>
145

>  <cdx:fragmentId>
5

$$$$
