94633.cdx
  Mrv1902 05222410222D          

 65 72  0  0  0  0            999 V2000
    4.5935   -8.4441    0.0000 C   0  0  1  0  0  0  0  0  0  0  0  0
    4.5935   -7.8666    0.0000 C   0  0  0  0  0  0  0  0  0  0  0  0
    5.0936   -7.5779    0.0000 C   0  0  0  0  0  0  0  0  0  0  0  0
    5.0936   -8.7329    0.0000 C   0  0  2  0  0  0  0  0  0  0  0  0
    5.3823   -9.2330    0.0000 C   0  0  0  0  0  0  0  0  0  0  0  0
    4.8048   -9.2330    0.0000 C   0  0  0  0  0  0  0  0  0  0  0  0
    5.5937   -8.4441    0.0000 C   0  0  0  0  0  0  0  0  0  0  0  0
    6.0938   -8.7329    0.0000 C   0  0  0  0  0  0  0  0  0  0  0  0
    6.5940   -8.4441    0.0000 C   0  0  0  0  0  0  0  0  0  0  0  0
    6.5940   -7.8666    0.0000 C   0  0  1  0  0  0  0  0  0  0  0  0
    6.5940   -7.2891    0.0000 C   0  0  0  0  0  0  0  0  0  0  0  0
    7.0941   -7.5779    0.0000 C   0  0  2  0  0  0  0  0  0  0  0  0
    7.0941   -8.1554    0.0000 C   0  0  0  0  0  0  0  0  0  0  0  0
    7.5942   -7.8666    0.0000 C   0  0  0  0  0  0  0  0  0  0  0  0
    8.0944   -7.5779    0.0000 C   0  0  0  0  0  0  0  0  0  0  0  0
    8.0944   -7.0004    0.0000 C   0  0  1  0  0  0  0  0  0  0  0  0
    8.5945   -7.2891    0.0000 C   0  0  0  0  0  0  0  0  0  0  0  0
    8.5945   -6.7116    0.0000 C   0  0  0  0  0  0  0  0  0  0  0  0
    8.5945   -6.1341    0.0000 C   0  0  0  0  0  0  0  0  0  0  0  0
    8.0944   -5.8454    0.0000 C   0  0  1  0  0  0  0  0  0  0  0  0
    8.0944   -5.2679    0.0000 C   0  0  0  0  0  0  0  0  0  0  0  0
    7.5942   -6.1341    0.0000 C   0  0  2  0  0  0  0  0  0  0  0  0
    7.3055   -5.6340    0.0000 C   0  0  0  0  0  0  0  0  0  0  0  0
    7.5942   -6.7116    0.0000 C   0  0  0  0  0  0  0  0  0  0  0  0
    7.0941   -7.0004    0.0000 C   0  0  0  0  0  0  0  0  0  0  0  0
    6.5940   -6.7116    0.0000 C   0  0  0  0  0  0  0  0  0  0  0  0
    6.0938   -7.0004    0.0000 C   0  0  0  0  0  0  0  0  0  0  0  0
    6.0938   -7.5779    0.0000 C   0  0  0  0  0  0  0  0  0  0  0  0
    5.5937   -7.8666    0.0000 C   0  0  1  0  0  0  0  0  0  0  0  0
    5.5937   -7.2891    0.0000 C   0  0  0  0  0  0  0  0  0  0  0  0
    8.5945   -7.8666    0.0000 O   0  0  0  0  0  0  0  0  0  0  0  0
    9.0946   -7.0004    0.0000 O   0  0  0  0  0  0  0  0  0  0  0  0
    7.0167   -6.1341    0.0000 O   0  0  0  0  0  0  0  0  0  0  0  0
    4.0933   -8.7329    0.0000 O   0  0  0  0  0  0  0  0  0  0  0  0
    3.5924   -9.0202    0.0000 C   0  0  1  0  0  0  0  0  0  0  0  0
    3.5908   -9.5977    0.0000 C   0  0  2  0  0  0  0  0  0  0  0  0
    4.0902   -9.8879    0.0000 O   0  0  0  0  0  0  0  0  0  0  0  0
    3.0899   -9.8851    0.0000 C   0  0  1  0  0  0  0  0  0  0  0  0
    3.0883  -10.4626    0.0000 O   0  0  0  0  0  0  0  0  0  0  0  0
    2.5906   -9.5950    0.0000 C   0  0  1  0  0  0  0  0  0  0  0  0
    2.0896   -9.8824    0.0000 O   0  0  0  0  0  0  0  0  0  0  0  0
    2.5922   -9.0175    0.0000 C   0  0  0  0  0  0  0  0  0  0  0  0
    3.0931   -8.7301    0.0000 O   0  0  0  0  0  0  0  0  0  0  0  0
    4.0886  -10.4654    0.0000 C   0  0  1  0  0  0  0  0  0  0  0  0
    4.5879  -10.7555    0.0000 C   0  0  2  0  0  0  0  0  0  0  0  0
    5.0888  -10.4681    0.0000 O   0  0  0  0  0  0  0  0  0  0  0  0
    4.5863  -11.3330    0.0000 C   0  0  1  0  0  0  0  0  0  0  0  0
    5.0856  -11.6231    0.0000 O   0  0  0  0  0  0  0  0  0  0  0  0
    4.0854  -11.6203    0.0000 C   0  0  2  0  0  0  0  0  0  0  0  0
    4.0838  -12.1978    0.0000 O   0  0  0  0  0  0  0  0  0  0  0  0
    3.5861  -11.3302    0.0000 C   0  0  2  0  0  0  0  0  0  0  0  0
    3.5876  -10.7527    0.0000 O   0  0  0  0  0  0  0  0  0  0  0  0
    3.0851  -11.6176    0.0000 C   0  0  0  0  0  0  0  0  0  0  0  0
    2.5858  -11.3275    0.0000 O   0  0  0  0  0  0  0  0  0  0  0  0
    9.5787   -7.2888    0.0000 C   0  0  1  0  0  0  0  0  0  0  0  0
   10.0801   -7.0024    0.0000 C   0  0  2  0  0  0  0  0  0  0  0  0
   10.0828   -6.4249    0.0000 O   0  0  0  0  0  0  0  0  0  0  0  0
   10.5789   -7.2934    0.0000 C   0  0  1  0  0  0  0  0  0  0  0  0
   11.0804   -7.0070    0.0000 O   0  0  0  0  0  0  0  0  0  0  0  0
   10.5763   -7.8709    0.0000 C   0  0  2  0  0  0  0  0  0  0  0  0
   11.0751   -8.1620    0.0000 O   0  0  0  0  0  0  0  0  0  0  0  0
   10.0748   -8.1574    0.0000 C   0  0  2  0  0  0  0  0  0  0  0  0
    9.5760   -7.8663    0.0000 O   0  0  0  0  0  0  0  0  0  0  0  0
   10.0722   -8.7349    0.0000 C   0  0  0  0  0  0  0  0  0  0  0  0
   10.5710   -9.0259    0.0000 O   0  0  0  0  0  0  0  0  0  0  0  0
  1  2  1  0  0  0  0
  2  3  1  0  0  0  0
  1  4  1  0  0  0  0
  4  5  1  6  0  0  0
  4  6  1  1  0  0  0
  4  7  1  0  0  0  0
  7  8  1  0  0  0  0
  8  9  1  0  0  0  0
  9 10  1  0  0  0  0
 10 11  1  1  0  0  0
 10 12  1  0  0  0  0
 12 13  1  6  0  0  0
 12 14  1  0  0  0  0
 14 15  1  0  0  0  0
 15 16  1  0  0  0  0
 16 17  1  1  0  0  0
 16 18  1  0  0  0  0
 18 19  1  0  0  0  0
 19 20  1  0  0  0  0
 20 21  1  6  0  0  0
 20 22  1  0  0  0  0
 22 23  1  0  0  0  0
 22 24  1  0  0  0  0
 16 24  1  0  0  0  0
 24 25  1  0  0  0  0
 12 25  1  0  0  0  0
 25 26  2  0  0  0  0
 26 27  1  0  0  0  0
 27 28  1  0  0  0  0
 10 28  1  0  0  0  0
 28 29  1  0  0  0  0
  3 29  1  0  0  0  0
  7 29  1  0  0  0  0
 29 30  1  1  0  0  0
 17 31  2  0  0  0  0
 17 32  1  0  0  0  0
 22 33  1  6  0  0  0
  1 34  1  1  0  0  0
 35 36  1  0  0  0  0
 36 37  1  6  0  0  0
 36 38  1  0  0  0  0
 38 39  1  1  0  0  0
 38 40  1  0  0  0  0
 40 41  1  1  0  0  0
 40 42  1  0  0  0  0
 42 43  1  0  0  0  0
 35 43  1  0  0  0  0
 44 45  1  0  0  0  0
 45 46  1  6  0  0  0
 45 47  1  0  0  0  0
 47 48  1  1  0  0  0
 47 49  1  0  0  0  0
 49 50  1  6  0  0  0
 49 51  1  0  0  0  0
 51 52  1  0  0  0  0
 51 53  1  1  0  0  0
 53 54  1  0  0  0  0
 44 52  1  0  0  0  0
 44 37  1  1  0  0  0
 35 34  1  1  0  0  0
 55 56  1  0  0  0  0
 56 57  1  6  0  0  0
 56 58  1  0  0  0  0
 58 59  1  1  0  0  0
 58 60  1  0  0  0  0
 60 61  1  6  0  0  0
 60 62  1  0  0  0  0
 62 63  1  0  0  0  0
 62 64  1  1  0  0  0
 64 65  1  0  0  0  0
 55 63  1  0  0  0  0
 55 32  1  1  0  0  0
M  END
>  <cdx:groupId>
250

>  <cdx:fragmentId>
5

$$$$
