94630.cdx
  Mrv1902 05222410222D          

 48 53  0  0  0  0            999 V2000
    2.5516   -9.6805    0.0000 C   0  0  1  0  0  0  0  0  0  0  0  0
    2.5516   -8.8555    0.0000 C   0  0  0  0  0  0  0  0  0  0  0  0
    3.2661   -8.4430    0.0000 C   0  0  0  0  0  0  0  0  0  0  0  0
    3.2661  -10.0930    0.0000 C   0  0  2  0  0  0  0  0  0  0  0  0
    3.6786  -10.8075    0.0000 C   0  0  0  0  0  0  0  0  0  0  0  0
    2.8536  -10.8075    0.0000 C   0  0  0  0  0  0  0  0  0  0  0  0
    3.9805   -9.6805    0.0000 C   0  0  2  0  0  0  0  0  0  0  0  0
    3.9805  -10.5055    0.0000 H   0  0  0  0  0  0  0  0  0  0  0  0
    4.6950  -10.0930    0.0000 C   0  0  0  0  0  0  0  0  0  0  0  0
    5.4095   -9.6805    0.0000 C   0  0  0  0  0  0  0  0  0  0  0  0
    5.4095   -8.8555    0.0000 C   0  0  1  0  0  0  0  0  0  0  0  0
    5.4095   -8.0305    0.0000 C   0  0  0  0  0  0  0  0  0  0  0  0
    6.1239   -8.4430    0.0000 C   0  0  2  0  0  0  0  0  0  0  0  0
    6.1239   -9.2680    0.0000 C   0  0  0  0  0  0  0  0  0  0  0  0
    6.8384   -8.8555    0.0000 C   0  0  0  0  0  0  0  0  0  0  0  0
    7.5529   -8.4430    0.0000 C   0  0  0  0  0  0  0  0  0  0  0  0
    7.5529   -7.6180    0.0000 C   0  0  1  0  0  0  0  0  0  0  0  0
    8.2674   -8.0305    0.0000 C   0  0  0  0  0  0  0  0  0  0  0  0
    8.2674   -7.2055    0.0000 C   0  0  0  0  0  0  0  0  0  0  0  0
    8.2674   -6.3805    0.0000 C   0  0  0  0  0  0  0  0  0  0  0  0
    7.5529   -5.9680    0.0000 C   0  0  1  0  0  0  0  0  0  0  0  0
    7.5529   -5.1430    0.0000 C   0  0  0  0  0  0  0  0  0  0  0  0
    6.8384   -6.3805    0.0000 C   0  0  0  0  0  0  0  0  0  0  0  0
    6.1239   -5.9680    0.0000 C   0  0  0  0  0  0  0  0  0  0  0  0
    6.8384   -7.2055    0.0000 C   0  0  1  0  0  0  0  0  0  0  0  0
    6.8384   -8.0305    0.0000 H   0  0  0  0  0  0  0  0  0  0  0  0
    6.1239   -7.6180    0.0000 C   0  0  0  0  0  0  0  0  0  0  0  0
    5.4095   -7.2055    0.0000 C   0  0  0  0  0  0  0  0  0  0  0  0
    4.6950   -7.6180    0.0000 C   0  0  0  0  0  0  0  0  0  0  0  0
    4.6950   -8.4430    0.0000 C   0  0  2  0  0  0  0  0  0  0  0  0
    3.9805   -8.8555    0.0000 C   0  0  1  0  0  0  0  0  0  0  0  0
    3.9805   -8.0305    0.0000 C   0  0  0  0  0  0  0  0  0  0  0  0
    8.2674   -8.8555    0.0000 O   0  0  0  0  0  0  0  0  0  0  0  0
    8.9818   -7.6180    0.0000 O   0  0  0  0  0  0  0  0  0  0  0  0
    3.2661  -11.5220    0.0000 O   0  0  0  0  0  0  0  0  0  0  0  0
    1.8371  -10.0930    0.0000 O   0  0  0  0  0  0  0  0  0  0  0  0
    9.6963   -8.0305    0.0000 C   0  0  1  0  0  0  0  0  0  0  0  0
    9.6963   -8.8555    0.0000 C   0  0  2  0  0  0  0  0  0  0  0  0
    8.9818   -9.2680    0.0000 O   0  0  0  0  0  0  0  0  0  0  0  0
   10.4108   -9.2680    0.0000 C   0  0  1  0  0  0  0  0  0  0  0  0
   10.4108  -10.0930    0.0000 O   0  0  0  0  0  0  0  0  0  0  0  0
   11.1252   -8.8555    0.0000 C   0  0  2  0  0  0  0  0  0  0  0  0
   11.8397   -9.2680    0.0000 O   0  0  0  0  0  0  0  0  0  0  0  0
   11.1252   -8.0305    0.0000 C   0  0  2  0  0  0  0  0  0  0  0  0
   10.4108   -7.6180    0.0000 O   0  0  0  0  0  0  0  0  0  0  0  0
   11.8397   -7.6180    0.0000 C   0  0  0  0  0  0  0  0  0  0  0  0
   12.5542   -8.0305    0.0000 O   0  0  0  0  0  0  0  0  0  0  0  0
    4.6950   -9.2680    0.0000 H   0  0  0  0  0  0  0  0  0  0  0  0
  1  2  1  0  0  0  0
  2  3  1  0  0  0  0
  1  4  1  0  0  0  0
  4  5  1  6  0  0  0
  4  6  1  1  0  0  0
  4  7  1  0  0  0  0
  7  8  1  6  0  0  0
  7  9  1  0  0  0  0
  9 10  1  0  0  0  0
 10 11  1  0  0  0  0
 11 12  1  1  0  0  0
 11 13  1  0  0  0  0
 13 14  1  6  0  0  0
 13 15  1  0  0  0  0
 15 16  1  0  0  0  0
 16 17  1  0  0  0  0
 17 18  1  1  0  0  0
 17 19  1  0  0  0  0
 19 20  1  0  0  0  0
 20 21  1  0  0  0  0
 21 22  1  6  0  0  0
 21 23  1  0  0  0  0
 23 24  1  0  0  0  0
 23 25  1  0  0  0  0
 25 26  1  1  0  0  0
 17 25  1  0  0  0  0
 25 27  1  0  0  0  0
 13 27  1  0  0  0  0
 27 28  2  0  0  0  0
 28 29  1  0  0  0  0
 29 30  1  0  0  0  0
 11 30  1  0  0  0  0
 30 31  1  0  0  0  0
  3 31  1  0  0  0  0
  7 31  1  0  0  0  0
 31 32  1  1  0  0  0
 18 33  2  0  0  0  0
 18 34  1  0  0  0  0
  5 35  1  0  0  0  0
  1 36  1  1  0  0  0
 37 38  1  0  0  0  0
 38 39  1  1  0  0  0
 38 40  1  0  0  0  0
 40 41  1  6  0  0  0
 40 42  1  0  0  0  0
 42 43  1  1  0  0  0
 42 44  1  0  0  0  0
 44 45  1  0  0  0  0
 44 46  1  6  0  0  0
 46 47  1  0  0  0  0
 37 45  1  0  0  0  0
 37 34  1  6  0  0  0
 30 48  1  6  0  0  0
M  END
>  <cdx:groupId>
386

>  <cdx:fragmentId>
240

$$$$
