94635.cdx
  Mrv1902 05222410202D          

 51 54  0  0  0  0            999 V2000
    4.2056   -5.1700    0.0000 C   0  0  0  0  0  0  0  0  0  0  0  0
    4.2056   -5.9950    0.0000 C   0  0  0  0  0  0  0  0  0  0  0  0
    4.9200   -6.4075    0.0000 C   0  0  0  0  0  0  0  0  0  0  0  0
    5.6345   -5.9950    0.0000 C   0  0  0  0  0  0  0  0  0  0  0  0
    5.6345   -5.1700    0.0000 C   0  0  0  0  0  0  0  0  0  0  0  0
    4.9200   -4.7575    0.0000 C   0  0  0  0  0  0  0  0  0  0  0  0
    3.4911   -4.7575    0.0000 O   0  0  0  0  0  0  0  0  0  0  0  0
    3.4911   -3.9325    0.0000 C   0  0  0  0  0  0  0  0  0  0  0  0
    3.4911   -6.4075    0.0000 O   0  0  0  0  0  0  0  0  0  0  0  0
    4.9200   -7.2325    0.0000 O   0  0  0  0  0  0  0  0  0  0  0  0
    5.6345   -7.6450    0.0000 C   0  0  0  0  0  0  0  0  0  0  0  0
    6.3490   -4.7575    0.0000 C   0  0  0  0  0  0  0  0  0  0  0  0
    7.0634   -5.1700    0.0000 C   0  0  0  0  0  0  0  0  0  0  0  0
    7.7779   -4.7575    0.0000 C   0  0  0  0  0  0  0  0  0  0  0  0
    8.4924   -5.1700    0.0000 O   0  0  0  0  0  0  0  0  0  0  0  0
    8.4924   -5.9950    0.0000 C   0  0  0  0  0  0  0  0  0  0  0  0
    9.2069   -6.4075    0.0000 C   0  0  0  0  0  0  0  0  0  0  0  0
    9.2069   -7.2325    0.0000 C   0  0  0  0  0  0  0  0  0  0  0  0
    9.9213   -7.6450    0.0000 C   0  0  0  0  0  0  0  0  0  0  0  0
    9.9213   -8.4700    0.0000 C   0  0  0  0  0  0  0  0  0  0  0  0
   10.6358   -8.8825    0.0000 C   0  0  0  0  0  0  0  0  0  0  0  0
   11.3503   -8.4700    0.0000 C   0  0  0  0  0  0  0  0  0  0  0  0
   11.3503   -7.6450    0.0000 C   0  0  0  0  0  0  0  0  0  0  0  0
   10.6358   -7.2325    0.0000 C   0  0  0  0  0  0  0  0  0  0  0  0
   10.6358   -9.7075    0.0000 O   0  0  0  0  0  0  0  0  0  0  0  0
    9.9213  -10.1200    0.0000 C   0  0  0  0  0  0  0  0  0  0  0  0
   12.0647   -8.8825    0.0000 O   0  0  0  0  0  0  0  0  0  0  0  0
   12.0647   -7.2325    0.0000 O   0  0  0  0  0  0  0  0  0  0  0  0
   12.0647   -6.4075    0.0000 C   0  0  0  0  0  0  0  0  0  0  0  0
    2.7766   -5.9950    0.0000 C   0  0  2  0  0  0  0  0  0  0  0  0
    2.7766   -5.1700    0.0000 O   0  0  0  0  0  0  0  0  0  0  0  0
    2.0621   -4.7575    0.0000 C   0  0  1  0  0  0  0  0  0  0  0  0
    1.3477   -5.1700    0.0000 C   0  0  2  0  0  0  0  0  0  0  0  0
    1.3477   -5.9950    0.0000 C   0  0  1  0  0  0  0  0  0  0  0  0
    2.0621   -6.4075    0.0000 C   0  0  1  0  0  0  0  0  0  0  0  0
    2.0621   -3.9325    0.0000 C   0  0  0  0  0  0  0  0  0  0  0  0
    0.6332   -6.4075    0.0000 O   0  0  0  0  0  0  0  0  0  0  0  0
    0.6332   -4.7575    0.0000 O   0  0  0  0  0  0  0  0  0  0  0  0
    2.0621   -7.2325    0.0000 O   0  0  0  0  0  0  0  0  0  0  0  0
    1.3477   -3.5200    0.0000 O   0  0  0  0  0  0  0  0  0  0  0  0
   12.0517   -9.7062    0.0000 C   0  0  2  0  0  0  0  0  0  0  0  0
   11.3386  -10.1211    0.0000 O   0  0  0  0  0  0  0  0  0  0  0  0
   11.3414  -10.9461    0.0000 C   0  0  1  0  0  0  0  0  0  0  0  0
   12.0572  -11.3562    0.0000 C   0  0  2  0  0  0  0  0  0  0  0  0
   12.7703  -10.9413    0.0000 C   0  0  1  0  0  0  0  0  0  0  0  0
   12.7675  -10.1163    0.0000 C   0  0  1  0  0  0  0  0  0  0  0  0
   10.6283  -11.3610    0.0000 C   0  0  0  0  0  0  0  0  0  0  0  0
   13.4861  -11.3514    0.0000 O   0  0  0  0  0  0  0  0  0  0  0  0
   12.0600  -12.1812    0.0000 O   0  0  0  0  0  0  0  0  0  0  0  0
   13.4806   -9.7014    0.0000 O   0  0  0  0  0  0  0  0  0  0  0  0
   10.6310  -12.1860    0.0000 O   0  0  0  0  0  0  0  0  0  0  0  0
  1  2  2  0  0  0  0
  2  3  1  0  0  0  0
  3  4  2  0  0  0  0
  4  5  1  0  0  0  0
  5  6  2  0  0  0  0
  6  1  1  0  0  0  0
  1  7  1  0  0  0  0
  7  8  1  0  0  0  0
  2  9  1  0  0  0  0
  3 10  1  0  0  0  0
 10 11  1  0  0  0  0
  5 12  1  0  0  0  0
 12 13  2  0  0  0  0
 13 14  1  0  0  0  0
 14 15  1  0  0  0  0
 15 16  1  0  0  0  0
 16 17  1  0  0  0  0
 17 18  2  0  0  0  0
 18 19  1  0  0  0  0
 19 20  2  0  0  0  0
 20 21  1  0  0  0  0
 21 22  2  0  0  0  0
 22 23  1  0  0  0  0
 23 24  2  0  0  0  0
 24 19  1  0  0  0  0
 21 25  1  0  0  0  0
 25 26  1  0  0  0  0
 22 27  1  0  0  0  0
 23 28  1  0  0  0  0
 28 29  1  0  0  0  0
 30  9  1  1  0  0  0
 30 31  1  0  0  0  0
 31 32  1  0  0  0  0
 32 33  1  0  0  0  0
 33 34  1  0  0  0  0
 34 35  1  0  0  0  0
 35 30  1  0  0  0  0
 32 36  1  1  0  0  0
 34 37  1  1  0  0  0
 33 38  1  6  0  0  0
 35 39  1  6  0  0  0
 36 40  1  0  0  0  0
 41 42  1  0  0  0  0
 42 43  1  0  0  0  0
 43 44  1  0  0  0  0
 44 45  1  0  0  0  0
 45 46  1  0  0  0  0
 46 41  1  0  0  0  0
 43 47  1  1  0  0  0
 45 48  1  1  0  0  0
 44 49  1  6  0  0  0
 46 50  1  6  0  0  0
 47 51  1  0  0  0  0
 41 27  1  1  0  0  0
M  END
>  <cdx:fragmentId>
5

$$$$
