94640.cdx
  Mrv1902 05222410192D          

 47 52  0  0  0  0            999 V2000
    4.0681   -7.8650    0.0000 C   0  0  0  0  0  0  0  0  0  0  0  0
    4.0681   -8.6900    0.0000 C   0  0  1  0  0  0  0  0  0  0  0  0
    4.7825   -9.1025    0.0000 C   0  0  1  0  0  0  0  0  0  0  0  0
    5.4970   -8.6900    0.0000 C   0  0  0  0  0  0  0  0  0  0  0  0
    5.4970   -7.8650    0.0000 C   0  0  2  0  0  0  0  0  0  0  0  0
    4.7825   -7.4525    0.0000 C   0  0  0  0  0  0  0  0  0  0  0  0
    6.2115   -9.1025    0.0000 C   0  0  0  0  0  0  0  0  0  0  0  0
    6.9259   -8.6900    0.0000 C   0  0  0  0  0  0  0  0  0  0  0  0
    6.9259   -7.8650    0.0000 C   0  0  2  0  0  0  0  0  0  0  0  0
    6.2115   -7.4525    0.0000 C   0  0  0  0  0  0  0  0  0  0  0  0
    7.6404   -7.4525    0.0000 C   0  0  1  0  0  0  0  0  0  0  0  0
    7.6404   -6.6275    0.0000 C   0  0  0  0  0  0  0  0  0  0  0  0
    6.9259   -6.2150    0.0000 C   0  0  0  0  0  0  0  0  0  0  0  0
    6.2115   -6.6275    0.0000 C   0  0  0  0  0  0  0  0  0  0  0  0
    8.3549   -7.8650    0.0000 C   0  0  0  0  0  0  0  0  0  0  0  0
    9.0694   -7.4525    0.0000 C   0  0  0  0  0  0  0  0  0  0  0  0
    9.0694   -6.6275    0.0000 C   0  0  2  0  0  0  0  0  0  0  0  0
    8.3549   -6.2150    0.0000 C   0  0  0  0  0  0  0  0  0  0  0  0
    9.7838   -6.2150    0.0000 C   0  0  0  0  0  0  0  0  0  0  0  0
    9.7838   -5.3900    0.0000 C   0  0  0  0  0  0  0  0  0  0  0  0
    9.0694   -4.9775    0.0000 C   0  0  1  0  0  0  0  0  0  0  0  0
    8.3549   -5.3900    0.0000 C   0  0  1  0  0  0  0  0  0  0  0  0
    3.3536   -9.1025    0.0000 O   0  0  0  0  0  0  0  0  0  0  0  0
    4.3700   -9.8170    0.0000 C   0  0  0  0  0  0  0  0  0  0  0  0
    5.4970   -7.0400    0.0000 C   0  0  0  0  0  0  0  0  0  0  0  0
    6.9259   -7.0400    0.0000 C   0  0  0  0  0  0  0  0  0  0  0  0
    9.7838   -7.0400    0.0000 C   0  0  0  0  0  0  0  0  0  0  0  0
    5.1950   -9.8170    0.0000 C   0  0  0  0  0  0  0  0  0  0  0  0
    7.6404   -8.2775    0.0000 C   0  0  0  0  0  0  0  0  0  0  0  0
   10.4983   -6.6275    0.0000 O   0  0  0  0  0  0  0  0  0  0  0  0
    9.7838   -7.8650    0.0000 O   0  0  0  0  0  0  0  0  0  0  0  0
    7.5580   -5.1765    0.0000 O   0  0  0  0  0  0  0  0  0  0  0  0
    4.7825  -10.5314    0.0000 O   0  0  0  0  0  0  0  0  0  0  0  0
    6.0200   -9.8170    0.0000 O   0  0  0  0  0  0  0  0  0  0  0  0
    8.6569   -4.2630    0.0000 C   0  0  0  0  0  0  0  0  0  0  0  0
    9.4819   -4.2630    0.0000 C   0  0  0  0  0  0  0  0  0  0  0  0
    9.3713   -8.5795    0.0000 C   0  0  2  0  0  0  0  0  0  0  0  0
    8.5463   -8.5795    0.0000 O   0  0  0  0  0  0  0  0  0  0  0  0
    8.1338   -9.2939    0.0000 C   0  0  1  0  0  0  0  0  0  0  0  0
    8.5463  -10.0084    0.0000 C   0  0  2  0  0  0  0  0  0  0  0  0
    9.3713  -10.0084    0.0000 C   0  0  1  0  0  0  0  0  0  0  0  0
    9.7838   -9.2939    0.0000 C   0  0  1  0  0  0  0  0  0  0  0  0
    7.3088   -9.2939    0.0000 C   0  0  0  0  0  0  0  0  0  0  0  0
    9.7838  -10.7229    0.0000 O   0  0  0  0  0  0  0  0  0  0  0  0
   10.6088   -9.2939    0.0000 O   0  0  0  0  0  0  0  0  0  0  0  0
    8.1338  -10.7229    0.0000 O   0  0  0  0  0  0  0  0  0  0  0  0
    6.8963  -10.0084    0.0000 O   0  0  0  0  0  0  0  0  0  0  0  0
  1  2  1  0  0  0  0
  2  3  1  0  0  0  0
  3  4  1  0  0  0  0
  4  5  1  0  0  0  0
  5  6  1  0  0  0  0
  6  1  1  0  0  0  0
  4  7  1  0  0  0  0
  7  8  1  0  0  0  0
  8  9  1  0  0  0  0
  9 10  1  0  0  0  0
 10  5  1  0  0  0  0
  9 11  1  0  0  0  0
 11 12  1  0  0  0  0
 12 13  2  0  0  0  0
 13 14  1  0  0  0  0
 14 10  1  0  0  0  0
 11 15  1  0  0  0  0
 15 16  1  0  0  0  0
 16 17  1  0  0  0  0
 17 18  1  0  0  0  0
 18 12  1  0  0  0  0
 17 19  1  0  0  0  0
 19 20  1  0  0  0  0
 20 21  1  0  0  0  0
 21 22  1  0  0  0  0
 22 18  1  0  0  0  0
  2 23  1  1  0  0  0
  3 24  1  1  0  0  0
  5 25  1  1  0  0  0
  9 26  1  1  0  0  0
 17 27  1  1  0  0  0
  3 28  1  6  0  0  0
 11 29  1  6  0  0  0
 27 30  2  0  0  0  0
 27 31  1  0  0  0  0
 22 32  1  6  0  0  0
 28 33  1  0  0  0  0
 28 34  2  0  0  0  0
 21 35  1  1  0  0  0
 21 36  1  6  0  0  0
 37 31  1  1  0  0  0
 37 38  1  0  0  0  0
 38 39  1  0  0  0  0
 39 40  1  0  0  0  0
 40 41  1  0  0  0  0
 41 42  1  0  0  0  0
 42 37  1  0  0  0  0
 39 43  1  1  0  0  0
 41 44  1  1  0  0  0
 42 45  1  6  0  0  0
 40 46  1  6  0  0  0
 43 47  1  0  0  0  0
M  END
>  <cdx:fragmentId>
5

$$$$
