94643.cdx
  Mrv1902 05222410182D          

 35 39  0  0  0  0            999 V2000
    4.1368   -8.0300    0.0000 C   0  0  0  0  0  0  0  0  0  0  0  0
    4.1368   -8.8550    0.0000 C   0  0  1  0  0  0  0  0  0  0  0  0
    4.8513   -9.2675    0.0000 C   0  0  1  0  0  0  0  0  0  0  0  0
    5.5657   -8.8550    0.0000 C   0  0  0  0  0  0  0  0  0  0  0  0
    5.5657   -8.0300    0.0000 C   0  0  2  0  0  0  0  0  0  0  0  0
    4.8513   -7.6175    0.0000 C   0  0  0  0  0  0  0  0  0  0  0  0
    6.2802   -9.2675    0.0000 C   0  0  0  0  0  0  0  0  0  0  0  0
    6.9947   -8.8550    0.0000 C   0  0  0  0  0  0  0  0  0  0  0  0
    6.9947   -8.0300    0.0000 C   0  0  2  0  0  0  0  0  0  0  0  0
    6.2802   -7.6175    0.0000 C   0  0  0  0  0  0  0  0  0  0  0  0
    7.7092   -7.6175    0.0000 C   0  0  1  0  0  0  0  0  0  0  0  0
    7.7092   -6.7925    0.0000 C   0  0  0  0  0  0  0  0  0  0  0  0
    6.9947   -6.3800    0.0000 C   0  0  0  0  0  0  0  0  0  0  0  0
    6.2802   -6.7925    0.0000 C   0  0  0  0  0  0  0  0  0  0  0  0
    8.4236   -8.0300    0.0000 C   0  0  0  0  0  0  0  0  0  0  0  0
    9.1381   -7.6175    0.0000 C   0  0  0  0  0  0  0  0  0  0  0  0
    9.1381   -6.7925    0.0000 C   0  0  2  0  0  0  0  0  0  0  0  0
    8.4236   -6.3800    0.0000 C   0  0  0  0  0  0  0  0  0  0  0  0
    9.8526   -6.3800    0.0000 C   0  0  0  0  0  0  0  0  0  0  0  0
    9.8526   -5.5550    0.0000 C   0  0  0  0  0  0  0  0  0  0  0  0
    9.1381   -5.1425    0.0000 C   0  0  1  0  0  0  0  0  0  0  0  0
    8.4236   -5.5550    0.0000 C   0  0  1  0  0  0  0  0  0  0  0  0
    3.4223   -9.2675    0.0000 O   0  0  0  0  0  0  0  0  0  0  0  0
    4.4388   -9.9820    0.0000 C   0  0  0  0  0  0  0  0  0  0  0  0
    5.5657   -7.2050    0.0000 C   0  0  0  0  0  0  0  0  0  0  0  0
    6.9947   -7.2050    0.0000 C   0  0  0  0  0  0  0  0  0  0  0  0
    9.8526   -7.2050    0.0000 C   0  0  0  0  0  0  0  0  0  0  0  0
    5.2638   -9.9820    0.0000 C   0  0  0  0  0  0  0  0  0  0  0  0
    7.7092   -8.4425    0.0000 C   0  0  0  0  0  0  0  0  0  0  0  0
   10.5670   -6.7925    0.0000 O   0  0  0  0  0  0  0  0  0  0  0  0
    9.8526   -8.0300    0.0000 O   0  0  0  0  0  0  0  0  0  0  0  0
    7.6267   -5.3415    0.0000 O   0  0  0  0  0  0  0  0  0  0  0  0
    6.0888   -9.9820    0.0000 O   0  0  0  0  0  0  0  0  0  0  0  0
    8.7256   -4.4280    0.0000 C   0  0  0  0  0  0  0  0  0  0  0  0
    9.5506   -4.4280    0.0000 C   0  0  0  0  0  0  0  0  0  0  0  0
  1  2  1  0  0  0  0
  2  3  1  0  0  0  0
  3  4  1  0  0  0  0
  4  5  1  0  0  0  0
  5  6  1  0  0  0  0
  6  1  1  0  0  0  0
  4  7  1  0  0  0  0
  7  8  1  0  0  0  0
  8  9  1  0  0  0  0
  9 10  1  0  0  0  0
 10  5  1  0  0  0  0
  9 11  1  0  0  0  0
 11 12  1  0  0  0  0
 12 13  2  0  0  0  0
 13 14  1  0  0  0  0
 14 10  1  0  0  0  0
 11 15  1  0  0  0  0
 15 16  1  0  0  0  0
 16 17  1  0  0  0  0
 17 18  1  0  0  0  0
 18 12  1  0  0  0  0
 17 19  1  0  0  0  0
 19 20  1  0  0  0  0
 20 21  1  0  0  0  0
 21 22  1  0  0  0  0
 22 18  1  0  0  0  0
  2 23  1  1  0  0  0
  3 24  1  1  0  0  0
  5 25  1  1  0  0  0
  9 26  1  1  0  0  0
 17 27  1  1  0  0  0
  3 28  1  6  0  0  0
 11 29  1  6  0  0  0
 27 30  2  0  0  0  0
 27 31  1  0  0  0  0
 22 32  1  6  0  0  0
 28 33  1  0  0  0  0
 21 34  1  1  0  0  0
 21 35  1  6  0  0  0
M  END
>  <cdx:fragmentId>
5

$$$$
