94646.cdx
  Mrv1902 05222410202D          

 57 63  0  0  0  0            999 V2000
    5.7318   -8.0300    0.0000 C   0  0  0  0  0  0  0  0  0  0  0  0
    5.7318   -8.8550    0.0000 C   0  0  1  0  0  0  0  0  0  0  0  0
    6.4463   -9.2675    0.0000 C   0  0  1  0  0  0  0  0  0  0  0  0
    7.1607   -8.8550    0.0000 C   0  0  0  0  0  0  0  0  0  0  0  0
    7.1607   -8.0300    0.0000 C   0  0  2  0  0  0  0  0  0  0  0  0
    6.4463   -7.6175    0.0000 C   0  0  0  0  0  0  0  0  0  0  0  0
    7.8752   -9.2675    0.0000 C   0  0  0  0  0  0  0  0  0  0  0  0
    8.5897   -8.8550    0.0000 C   0  0  0  0  0  0  0  0  0  0  0  0
    8.5897   -8.0300    0.0000 C   0  0  2  0  0  0  0  0  0  0  0  0
    7.8752   -7.6175    0.0000 C   0  0  0  0  0  0  0  0  0  0  0  0
    9.3042   -7.6175    0.0000 C   0  0  1  0  0  0  0  0  0  0  0  0
    9.3042   -6.7925    0.0000 C   0  0  0  0  0  0  0  0  0  0  0  0
    8.5897   -6.3800    0.0000 C   0  0  0  0  0  0  0  0  0  0  0  0
    7.8752   -6.7925    0.0000 C   0  0  0  0  0  0  0  0  0  0  0  0
   10.0186   -8.0300    0.0000 C   0  0  0  0  0  0  0  0  0  0  0  0
   10.7331   -7.6175    0.0000 C   0  0  0  0  0  0  0  0  0  0  0  0
   10.7331   -6.7925    0.0000 C   0  0  2  0  0  0  0  0  0  0  0  0
   10.0186   -6.3800    0.0000 C   0  0  0  0  0  0  0  0  0  0  0  0
   11.4476   -6.3800    0.0000 C   0  0  0  0  0  0  0  0  0  0  0  0
   11.4476   -5.5550    0.0000 C   0  0  0  0  0  0  0  0  0  0  0  0
   10.7331   -5.1425    0.0000 C   0  0  2  0  0  0  0  0  0  0  0  0
   10.0186   -5.5550    0.0000 C   0  0  2  0  0  0  0  0  0  0  0  0
    5.0173   -9.2675    0.0000 O   0  0  0  0  0  0  0  0  0  0  0  0
    6.0338   -9.9820    0.0000 C   0  0  0  0  0  0  0  0  0  0  0  0
    7.1607   -7.2050    0.0000 C   0  0  0  0  0  0  0  0  0  0  0  0
    8.5897   -7.2050    0.0000 C   0  0  0  0  0  0  0  0  0  0  0  0
   11.4476   -7.2050    0.0000 C   0  0  0  0  0  0  0  0  0  0  0  0
    6.8588   -9.9820    0.0000 C   0  0  0  0  0  0  0  0  0  0  0  0
    9.3042   -8.4425    0.0000 C   0  0  0  0  0  0  0  0  0  0  0  0
   12.1620   -6.7925    0.0000 O   0  0  0  0  0  0  0  0  0  0  0  0
   11.4476   -8.0300    0.0000 O   0  0  0  0  0  0  0  0  0  0  0  0
   10.0186   -4.7300    0.0000 C   0  0  0  0  0  0  0  0  0  0  0  0
   10.7331   -4.3175    0.0000 C   0  0  0  0  0  0  0  0  0  0  0  0
   11.0351   -8.7445    0.0000 C   0  0  2  0  0  0  0  0  0  0  0  0
   10.2101   -8.7445    0.0000 O   0  0  0  0  0  0  0  0  0  0  0  0
    9.7976   -9.4589    0.0000 C   0  0  1  0  0  0  0  0  0  0  0  0
   10.2101  -10.1734    0.0000 C   0  0  2  0  0  0  0  0  0  0  0  0
   11.0351  -10.1734    0.0000 C   0  0  1  0  0  0  0  0  0  0  0  0
   11.4476   -9.4589    0.0000 C   0  0  1  0  0  0  0  0  0  0  0  0
    8.9726   -9.4589    0.0000 C   0  0  0  0  0  0  0  0  0  0  0  0
   11.4476  -10.8879    0.0000 O   0  0  0  0  0  0  0  0  0  0  0  0
   12.2726   -9.4589    0.0000 O   0  0  0  0  0  0  0  0  0  0  0  0
    9.7976  -10.8879    0.0000 O   0  0  0  0  0  0  0  0  0  0  0  0
    8.5601  -10.1734    0.0000 O   0  0  0  0  0  0  0  0  0  0  0  0
    4.3038   -8.8576    0.0000 C   0  0  2  0  0  0  0  0  0  0  0  0
    4.3068   -8.0326    0.0000 O   0  0  0  0  0  0  0  0  0  0  0  0
    3.5938   -7.6175    0.0000 C   0  0  1  0  0  0  0  0  0  0  0  0
    2.8778   -8.0274    0.0000 C   0  0  2  0  0  0  0  0  0  0  0  0
    2.8748   -8.8524    0.0000 C   0  0  1  0  0  0  0  0  0  0  0  0
    3.5878   -9.2675    0.0000 C   0  0  1  0  0  0  0  0  0  0  0  0
    3.5968   -6.7925    0.0000 C   0  0  0  0  0  0  0  0  0  0  0  0
    2.1589   -9.2623    0.0000 O   0  0  0  0  0  0  0  0  0  0  0  0
    3.5848  -10.0925    0.0000 O   0  0  0  0  0  0  0  0  0  0  0  0
    2.1649   -7.6123    0.0000 O   0  0  0  0  0  0  0  0  0  0  0  0
    2.8838   -6.3774    0.0000 O   0  0  0  0  0  0  0  0  0  0  0  0
    6.4463  -10.6964    0.0000 O   0  0  0  0  0  0  0  0  0  0  0  0
    9.2217   -5.3415    0.0000 O   0  0  0  0  0  0  0  0  0  0  0  0
  1  2  1  0  0  0  0
  2  3  1  0  0  0  0
  3  4  1  0  0  0  0
  4  5  1  0  0  0  0
  5  6  1  0  0  0  0
  6  1  1  0  0  0  0
  4  7  1  0  0  0  0
  7  8  1  0  0  0  0
  8  9  1  0  0  0  0
  9 10  1  0  0  0  0
 10  5  1  0  0  0  0
  9 11  1  0  0  0  0
 11 12  1  0  0  0  0
 12 13  2  0  0  0  0
 13 14  1  0  0  0  0
 14 10  1  0  0  0  0
 11 15  1  0  0  0  0
 15 16  1  0  0  0  0
 16 17  1  0  0  0  0
 17 18  1  0  0  0  0
 18 12  1  0  0  0  0
 17 19  1  0  0  0  0
 19 20  1  0  0  0  0
 20 21  1  0  0  0  0
 21 22  1  0  0  0  0
 22 18  1  0  0  0  0
  2 23  1  1  0  0  0
  3 24  1  1  0  0  0
  5 25  1  1  0  0  0
  9 26  1  1  0  0  0
 17 27  1  1  0  0  0
  3 28  1  6  0  0  0
 11 29  1  6  0  0  0
 27 30  2  0  0  0  0
 27 31  1  0  0  0  0
 22 32  1  0  0  0  0
 21 33  1  6  0  0  0
 34 31  1  1  0  0  0
 34 35  1  0  0  0  0
 35 36  1  0  0  0  0
 36 37  1  0  0  0  0
 37 38  1  0  0  0  0
 38 39  1  0  0  0  0
 39 34  1  0  0  0  0
 36 40  1  1  0  0  0
 38 41  1  1  0  0  0
 39 42  1  6  0  0  0
 37 43  1  6  0  0  0
 40 44  1  0  0  0  0
 45 46  1  0  0  0  0
 46 47  1  0  0  0  0
 47 48  1  0  0  0  0
 48 49  1  0  0  0  0
 49 50  1  0  0  0  0
 50 45  1  0  0  0  0
 47 51  1  1  0  0  0
 49 52  1  1  0  0  0
 50 53  1  6  0  0  0
 48 54  1  6  0  0  0
 51 55  1  0  0  0  0
 45 23  1  1  0  0  0
 28 56  1  0  0  0  0
 22 57  1  6  0  0  0
M  END
>  <cdx:fragmentId>
5

$$$$
