94645.cdx
  Mrv1902 05222410192D          

 55 61  0  0  0  0            999 V2000
    5.9793   -7.7963    0.0000 C   0  0  0  0  0  0  0  0  0  0  0  0
    5.9793   -8.6212    0.0000 C   0  0  1  0  0  0  0  0  0  0  0  0
    6.6938   -9.0337    0.0000 C   0  0  1  0  0  0  0  0  0  0  0  0
    7.4082   -8.6212    0.0000 C   0  0  0  0  0  0  0  0  0  0  0  0
    7.4082   -7.7963    0.0000 C   0  0  2  0  0  0  0  0  0  0  0  0
    6.6938   -7.3838    0.0000 C   0  0  0  0  0  0  0  0  0  0  0  0
    8.1227   -9.0337    0.0000 C   0  0  0  0  0  0  0  0  0  0  0  0
    8.8372   -8.6212    0.0000 C   0  0  0  0  0  0  0  0  0  0  0  0
    8.8372   -7.7963    0.0000 C   0  0  2  0  0  0  0  0  0  0  0  0
    8.1227   -7.3838    0.0000 C   0  0  0  0  0  0  0  0  0  0  0  0
    9.5517   -7.3838    0.0000 C   0  0  1  0  0  0  0  0  0  0  0  0
    9.5517   -6.5587    0.0000 C   0  0  0  0  0  0  0  0  0  0  0  0
    8.8372   -6.1463    0.0000 C   0  0  0  0  0  0  0  0  0  0  0  0
    8.1227   -6.5587    0.0000 C   0  0  0  0  0  0  0  0  0  0  0  0
   10.2661   -7.7963    0.0000 C   0  0  0  0  0  0  0  0  0  0  0  0
   10.9806   -7.3838    0.0000 C   0  0  0  0  0  0  0  0  0  0  0  0
   10.9806   -6.5587    0.0000 C   0  0  2  0  0  0  0  0  0  0  0  0
   10.2661   -6.1463    0.0000 C   0  0  0  0  0  0  0  0  0  0  0  0
   11.6951   -6.1463    0.0000 C   0  0  0  0  0  0  0  0  0  0  0  0
   11.6951   -5.3213    0.0000 C   0  0  0  0  0  0  0  0  0  0  0  0
   10.9806   -4.9088    0.0000 C   0  0  2  0  0  0  0  0  0  0  0  0
   10.2661   -5.3213    0.0000 C   0  0  0  0  0  0  0  0  0  0  0  0
    5.2648   -9.0337    0.0000 O   0  0  0  0  0  0  0  0  0  0  0  0
    6.2813   -9.7482    0.0000 C   0  0  0  0  0  0  0  0  0  0  0  0
    7.4082   -6.9712    0.0000 C   0  0  0  0  0  0  0  0  0  0  0  0
    8.8372   -6.9712    0.0000 C   0  0  0  0  0  0  0  0  0  0  0  0
   11.6951   -6.9712    0.0000 C   0  0  0  0  0  0  0  0  0  0  0  0
    7.1063   -9.7482    0.0000 C   0  0  0  0  0  0  0  0  0  0  0  0
    9.5517   -8.2088    0.0000 C   0  0  0  0  0  0  0  0  0  0  0  0
   12.4095   -6.5587    0.0000 O   0  0  0  0  0  0  0  0  0  0  0  0
   11.6951   -7.7963    0.0000 O   0  0  0  0  0  0  0  0  0  0  0  0
   10.2661   -4.4962    0.0000 C   0  0  0  0  0  0  0  0  0  0  0  0
   10.9806   -4.0838    0.0000 C   0  0  0  0  0  0  0  0  0  0  0  0
   11.2826   -8.5107    0.0000 C   0  0  2  0  0  0  0  0  0  0  0  0
   10.4576   -8.5107    0.0000 O   0  0  0  0  0  0  0  0  0  0  0  0
   10.0451   -9.2252    0.0000 C   0  0  1  0  0  0  0  0  0  0  0  0
   10.4576   -9.9397    0.0000 C   0  0  2  0  0  0  0  0  0  0  0  0
   11.2826   -9.9397    0.0000 C   0  0  1  0  0  0  0  0  0  0  0  0
   11.6951   -9.2252    0.0000 C   0  0  1  0  0  0  0  0  0  0  0  0
    9.2201   -9.2252    0.0000 C   0  0  0  0  0  0  0  0  0  0  0  0
   11.6951  -10.6541    0.0000 O   0  0  0  0  0  0  0  0  0  0  0  0
   12.5201   -9.2252    0.0000 O   0  0  0  0  0  0  0  0  0  0  0  0
   10.0451  -10.6541    0.0000 O   0  0  0  0  0  0  0  0  0  0  0  0
    8.8076   -9.9397    0.0000 O   0  0  0  0  0  0  0  0  0  0  0  0
    4.5513   -8.6238    0.0000 C   0  0  2  0  0  0  0  0  0  0  0  0
    4.5543   -7.7988    0.0000 O   0  0  0  0  0  0  0  0  0  0  0  0
    3.8413   -7.3837    0.0000 C   0  0  1  0  0  0  0  0  0  0  0  0
    3.1253   -7.7936    0.0000 C   0  0  2  0  0  0  0  0  0  0  0  0
    3.1223   -8.6186    0.0000 C   0  0  1  0  0  0  0  0  0  0  0  0
    3.8353   -9.0337    0.0000 C   0  0  1  0  0  0  0  0  0  0  0  0
    3.8443   -6.5587    0.0000 C   0  0  0  0  0  0  0  0  0  0  0  0
    2.4064   -9.0285    0.0000 O   0  0  0  0  0  0  0  0  0  0  0  0
    3.8323   -9.8587    0.0000 O   0  0  0  0  0  0  0  0  0  0  0  0
    2.4124   -7.3785    0.0000 O   0  0  0  0  0  0  0  0  0  0  0  0
    3.1313   -6.1436    0.0000 O   0  0  0  0  0  0  0  0  0  0  0  0
  1  2  1  0  0  0  0
  2  3  1  0  0  0  0
  3  4  1  0  0  0  0
  4  5  1  0  0  0  0
  5  6  1  0  0  0  0
  6  1  1  0  0  0  0
  4  7  1  0  0  0  0
  7  8  1  0  0  0  0
  8  9  1  0  0  0  0
  9 10  1  0  0  0  0
 10  5  1  0  0  0  0
  9 11  1  0  0  0  0
 11 12  1  0  0  0  0
 12 13  2  0  0  0  0
 13 14  1  0  0  0  0
 14 10  1  0  0  0  0
 11 15  1  0  0  0  0
 15 16  1  0  0  0  0
 16 17  1  0  0  0  0
 17 18  1  0  0  0  0
 18 12  1  0  0  0  0
 17 19  1  0  0  0  0
 19 20  1  0  0  0  0
 20 21  1  0  0  0  0
 21 22  1  0  0  0  0
 22 18  1  0  0  0  0
  2 23  1  1  0  0  0
  3 24  1  1  0  0  0
  5 25  1  1  0  0  0
  9 26  1  1  0  0  0
 17 27  1  1  0  0  0
  3 28  1  6  0  0  0
 11 29  1  6  0  0  0
 27 30  2  0  0  0  0
 27 31  1  0  0  0  0
 22 32  1  0  0  0  0
 21 33  1  6  0  0  0
 34 31  1  1  0  0  0
 34 35  1  0  0  0  0
 35 36  1  0  0  0  0
 36 37  1  0  0  0  0
 37 38  1  0  0  0  0
 38 39  1  0  0  0  0
 39 34  1  0  0  0  0
 36 40  1  1  0  0  0
 38 41  1  1  0  0  0
 39 42  1  6  0  0  0
 37 43  1  6  0  0  0
 40 44  1  0  0  0  0
 45 46  1  0  0  0  0
 46 47  1  0  0  0  0
 47 48  1  0  0  0  0
 48 49  1  0  0  0  0
 49 50  1  0  0  0  0
 50 45  1  0  0  0  0
 47 51  1  1  0  0  0
 49 52  1  1  0  0  0
 50 53  1  6  0  0  0
 48 54  1  6  0  0  0
 51 55  1  0  0  0  0
 45 23  1  1  0  0  0
M  END
>  <cdx:fragmentId>
5

$$$$
