94648.cdx
  Mrv1902 05222410272D          

 75 83  0  0  0  0            999 V2000
    6.3368   -7.4387    0.0000 C   0  0  0  0  0  0  0  0  0  0  0  0
    6.3368   -8.2637    0.0000 C   0  0  1  0  0  0  0  0  0  0  0  0
    7.0513   -8.6762    0.0000 C   0  0  1  0  0  0  0  0  0  0  0  0
    7.7657   -8.2637    0.0000 C   0  0  0  0  0  0  0  0  0  0  0  0
    7.7657   -7.4387    0.0000 C   0  0  2  0  0  0  0  0  0  0  0  0
    7.0513   -7.0263    0.0000 C   0  0  0  0  0  0  0  0  0  0  0  0
    8.4802   -8.6762    0.0000 C   0  0  0  0  0  0  0  0  0  0  0  0
    9.1947   -8.2637    0.0000 C   0  0  0  0  0  0  0  0  0  0  0  0
    9.1947   -7.4387    0.0000 C   0  0  2  0  0  0  0  0  0  0  0  0
    8.4802   -7.0263    0.0000 C   0  0  0  0  0  0  0  0  0  0  0  0
    9.9092   -7.0263    0.0000 C   0  0  1  0  0  0  0  0  0  0  0  0
    9.9092   -6.2012    0.0000 C   0  0  0  0  0  0  0  0  0  0  0  0
    9.1947   -5.7888    0.0000 C   0  0  0  0  0  0  0  0  0  0  0  0
    8.4802   -6.2012    0.0000 C   0  0  0  0  0  0  0  0  0  0  0  0
   10.6236   -7.4387    0.0000 C   0  0  0  0  0  0  0  0  0  0  0  0
   11.3381   -7.0263    0.0000 C   0  0  0  0  0  0  0  0  0  0  0  0
   11.3381   -6.2012    0.0000 C   0  0  2  0  0  0  0  0  0  0  0  0
   10.6236   -5.7888    0.0000 C   0  0  0  0  0  0  0  0  0  0  0  0
   12.0526   -5.7888    0.0000 C   0  0  0  0  0  0  0  0  0  0  0  0
   12.0526   -4.9637    0.0000 C   0  0  0  0  0  0  0  0  0  0  0  0
   11.3381   -4.5512    0.0000 C   0  0  2  0  0  0  0  0  0  0  0  0
   10.6236   -4.9637    0.0000 C   0  0  1  0  0  0  0  0  0  0  0  0
    5.6223   -8.6762    0.0000 O   0  0  0  0  0  0  0  0  0  0  0  0
    6.6388   -9.3907    0.0000 C   0  0  0  0  0  0  0  0  0  0  0  0
    7.7657   -6.6137    0.0000 C   0  0  0  0  0  0  0  0  0  0  0  0
    9.1947   -6.6137    0.0000 C   0  0  0  0  0  0  0  0  0  0  0  0
   12.0526   -6.6137    0.0000 C   0  0  0  0  0  0  0  0  0  0  0  0
    7.4638   -9.3907    0.0000 C   0  0  0  0  0  0  0  0  0  0  0  0
    9.9092   -7.8513    0.0000 C   0  0  0  0  0  0  0  0  0  0  0  0
   12.7670   -6.2012    0.0000 O   0  0  0  0  0  0  0  0  0  0  0  0
   12.0526   -7.4387    0.0000 O   0  0  0  0  0  0  0  0  0  0  0  0
    9.8267   -4.7502    0.0000 O   0  0  0  0  0  0  0  0  0  0  0  0
   10.6236   -4.1387    0.0000 C   0  0  0  0  0  0  0  0  0  0  0  0
   11.3381   -3.7262    0.0000 C   0  0  0  0  0  0  0  0  0  0  0  0
   11.6401   -8.1532    0.0000 C   0  0  2  0  0  0  0  0  0  0  0  0
   10.8151   -8.1532    0.0000 O   0  0  0  0  0  0  0  0  0  0  0  0
   10.4026   -8.8677    0.0000 C   0  0  1  0  0  0  0  0  0  0  0  0
   10.8151   -9.5822    0.0000 C   0  0  2  0  0  0  0  0  0  0  0  0
   11.6401   -9.5822    0.0000 C   0  0  1  0  0  0  0  0  0  0  0  0
   12.0526   -8.8677    0.0000 C   0  0  1  0  0  0  0  0  0  0  0  0
    9.5776   -8.8677    0.0000 C   0  0  0  0  0  0  0  0  0  0  0  0
   12.0526  -10.2966    0.0000 O   0  0  0  0  0  0  0  0  0  0  0  0
   12.8776   -8.8677    0.0000 O   0  0  0  0  0  0  0  0  0  0  0  0
   10.4026  -10.2966    0.0000 O   0  0  0  0  0  0  0  0  0  0  0  0
    9.1651   -9.5822    0.0000 O   0  0  0  0  0  0  0  0  0  0  0  0
    4.9079   -8.2637    0.0000 C   0  0  1  0  0  0  0  0  0  0  0  0
    4.9079   -7.4387    0.0000 C   0  0  1  0  0  0  0  0  0  0  0  0
    4.1934   -7.0263    0.0000 C   0  0  2  0  0  0  0  0  0  0  0  0
    3.4789   -7.4387    0.0000 C   0  0  1  0  0  0  0  0  0  0  0  0
    3.4789   -8.2637    0.0000 C   0  0  0  0  0  0  0  0  0  0  0  0
    4.1934   -8.6762    0.0000 O   0  0  0  0  0  0  0  0  0  0  0  0
    4.1934   -6.2012    0.0000 O   0  0  0  0  0  0  0  0  0  0  0  0
    2.7644   -7.0263    0.0000 O   0  0  0  0  0  0  0  0  0  0  0  0
    5.6223   -7.0262    0.0000 O   0  0  0  0  0  0  0  0  0  0  0  0
    5.6086   -5.5550    0.0000 C   0  0  2  0  0  0  0  0  0  0  0  0
    6.3231   -5.1425    0.0000 O   0  0  0  0  0  0  0  0  0  0  0  0
    6.3231   -4.3175    0.0000 C   0  0  1  0  0  0  0  0  0  0  0  0
    5.6086   -3.9050    0.0000 C   0  0  2  0  0  0  0  0  0  0  0  0
    4.8941   -4.3175    0.0000 C   0  0  1  0  0  0  0  0  0  0  0  0
    4.8941   -5.1425    0.0000 C   0  0  1  0  0  0  0  0  0  0  0  0
    4.1796   -3.9050    0.0000 O   0  0  0  0  0  0  0  0  0  0  0  0
    7.0375   -3.9050    0.0000 C   0  0  0  0  0  0  0  0  0  0  0  0
    4.1796   -5.5550    0.0000 O   0  0  0  0  0  0  0  0  0  0  0  0
    5.6086   -3.0800    0.0000 O   0  0  0  0  0  0  0  0  0  0  0  0
    3.4652   -5.1425    0.0000 C   0  0  2  0  0  0  0  0  0  0  0  0
    3.4652   -4.3175    0.0000 O   0  0  0  0  0  0  0  0  0  0  0  0
    2.7507   -3.9050    0.0000 C   0  0  2  0  0  0  0  0  0  0  0  0
    2.0362   -4.3175    0.0000 C   0  0  1  0  0  0  0  0  0  0  0  0
    2.0362   -5.1425    0.0000 C   0  0  2  0  0  0  0  0  0  0  0  0
    2.7507   -5.5550    0.0000 C   0  0  1  0  0  0  0  0  0  0  0  0
    1.3218   -3.9050    0.0000 O   0  0  0  0  0  0  0  0  0  0  0  0
    1.3218   -5.5550    0.0000 O   0  0  0  0  0  0  0  0  0  0  0  0
    2.7507   -6.3800    0.0000 O   0  0  0  0  0  0  0  0  0  0  0  0
    2.7507   -3.0800    0.0000 C   0  0  0  0  0  0  0  0  0  0  0  0
    7.7520   -4.3175    0.0000 O   0  0  0  0  0  0  0  0  0  0  0  0
  1  2  1  0  0  0  0
  2  3  1  0  0  0  0
  3  4  1  0  0  0  0
  4  5  1  0  0  0  0
  5  6  1  0  0  0  0
  6  1  1  0  0  0  0
  4  7  1  0  0  0  0
  7  8  1  0  0  0  0
  8  9  1  0  0  0  0
  9 10  1  0  0  0  0
 10  5  1  0  0  0  0
  9 11  1  0  0  0  0
 11 12  1  0  0  0  0
 12 13  2  0  0  0  0
 13 14  1  0  0  0  0
 14 10  1  0  0  0  0
 11 15  1  0  0  0  0
 15 16  1  0  0  0  0
 16 17  1  0  0  0  0
 17 18  1  0  0  0  0
 18 12  1  0  0  0  0
 17 19  1  0  0  0  0
 19 20  1  0  0  0  0
 20 21  1  0  0  0  0
 21 22  1  0  0  0  0
 22 18  1  0  0  0  0
  2 23  1  1  0  0  0
  3 24  1  1  0  0  0
  5 25  1  1  0  0  0
  9 26  1  1  0  0  0
 17 27  1  1  0  0  0
  3 28  1  6  0  0  0
 11 29  1  6  0  0  0
 27 30  2  0  0  0  0
 27 31  1  0  0  0  0
 22 32  1  6  0  0  0
 22 33  1  0  0  0  0
 21 34  1  6  0  0  0
 35 31  1  1  0  0  0
 35 36  1  0  0  0  0
 36 37  1  0  0  0  0
 37 38  1  0  0  0  0
 38 39  1  0  0  0  0
 39 40  1  0  0  0  0
 40 35  1  0  0  0  0
 37 41  1  1  0  0  0
 39 42  1  1  0  0  0
 40 43  1  6  0  0  0
 38 44  1  6  0  0  0
 41 45  1  0  0  0  0
 46 23  1  6  0  0  0
 46 47  1  0  0  0  0
 47 48  1  0  0  0  0
 48 49  1  0  0  0  0
 49 50  1  0  0  0  0
 50 51  1  0  0  0  0
 51 46  1  0  0  0  0
 48 52  1  6  0  0  0
 49 53  1  1  0  0  0
 47 54  1  1  0  0  0
 55 54  1  1  0  0  0
 55 56  1  0  0  0  0
 56 57  1  0  0  0  0
 57 58  1  0  0  0  0
 58 59  1  0  0  0  0
 59 60  1  0  0  0  0
 60 55  1  0  0  0  0
 59 61  1  1  0  0  0
 57 62  1  1  0  0  0
 60 63  1  6  0  0  0
 58 64  1  6  0  0  0
 65 63  1  1  0  0  0
 65 66  1  0  0  0  0
 66 67  1  0  0  0  0
 67 68  1  0  0  0  0
 68 69  1  0  0  0  0
 69 70  1  0  0  0  0
 70 65  1  0  0  0  0
 68 71  1  1  0  0  0
 69 72  1  6  0  0  0
 70 73  1  6  0  0  0
 67 74  1  6  0  0  0
 62 75  1  0  0  0  0
M  END
>  <cdx:fragmentId>
5

$$$$
