94653.cdx
  Mrv1902 05222410202D          

 44 49  0  0  0  0            999 V2000
    6.0372   -8.5541    0.0000 C   0  0  1  0  0  0  0  0  0  0  0  0
    6.0372   -7.9766    0.0000 C   0  0  0  0  0  0  0  0  0  0  0  0
    6.5373   -7.6879    0.0000 C   0  0  0  0  0  0  0  0  0  0  0  0
    6.5373   -8.8429    0.0000 C   0  0  2  0  0  0  0  0  0  0  0  0
    6.8261   -9.3430    0.0000 C   0  0  0  0  0  0  0  0  0  0  0  0
    6.2486   -9.3430    0.0000 C   0  0  0  0  0  0  0  0  0  0  0  0
    7.0375   -8.5541    0.0000 C   0  0  0  0  0  0  0  0  0  0  0  0
    7.5376   -8.8429    0.0000 C   0  0  0  0  0  0  0  0  0  0  0  0
    8.0377   -8.5541    0.0000 C   0  0  0  0  0  0  0  0  0  0  0  0
    8.0377   -7.9766    0.0000 C   0  0  1  0  0  0  0  0  0  0  0  0
    8.0377   -7.3991    0.0000 C   0  0  0  0  0  0  0  0  0  0  0  0
    8.5379   -7.6879    0.0000 C   0  0  2  0  0  0  0  0  0  0  0  0
    8.5379   -8.2654    0.0000 C   0  0  0  0  0  0  0  0  0  0  0  0
    9.0380   -7.9766    0.0000 C   0  0  0  0  0  0  0  0  0  0  0  0
    9.5381   -7.6879    0.0000 C   0  0  0  0  0  0  0  0  0  0  0  0
    9.5381   -7.1104    0.0000 C   0  0  1  0  0  0  0  0  0  0  0  0
   10.0382   -7.3991    0.0000 C   0  0  0  0  0  0  0  0  0  0  0  0
   10.0382   -6.8216    0.0000 C   0  0  0  0  0  0  0  0  0  0  0  0
   10.0382   -6.2441    0.0000 C   0  0  0  0  0  0  0  0  0  0  0  0
    9.5381   -5.9554    0.0000 C   0  0  1  0  0  0  0  0  0  0  0  0
    9.5381   -5.3779    0.0000 C   0  0  0  0  0  0  0  0  0  0  0  0
    9.0380   -6.2441    0.0000 C   0  0  2  0  0  0  0  0  0  0  0  0
    8.7492   -5.7440    0.0000 C   0  0  0  0  0  0  0  0  0  0  0  0
    9.0380   -6.8216    0.0000 C   0  0  0  0  0  0  0  0  0  0  0  0
    8.5379   -7.1104    0.0000 C   0  0  0  0  0  0  0  0  0  0  0  0
    8.0377   -6.8216    0.0000 C   0  0  0  0  0  0  0  0  0  0  0  0
    7.5376   -7.1104    0.0000 C   0  0  0  0  0  0  0  0  0  0  0  0
    7.5376   -7.6879    0.0000 C   0  0  0  0  0  0  0  0  0  0  0  0
    7.0375   -7.9766    0.0000 C   0  0  1  0  0  0  0  0  0  0  0  0
    7.0375   -7.3991    0.0000 C   0  0  0  0  0  0  0  0  0  0  0  0
   10.0382   -7.9766    0.0000 O   0  0  0  0  0  0  0  0  0  0  0  0
   10.5384   -7.1104    0.0000 O   0  0  0  0  0  0  0  0  0  0  0  0
    8.4605   -6.2441    0.0000 O   0  0  0  0  0  0  0  0  0  0  0  0
    5.5371   -8.8429    0.0000 O   0  0  0  0  0  0  0  0  0  0  0  0
    5.0362   -9.1302    0.0000 C   0  0  1  0  0  0  0  0  0  0  0  0
    5.0346   -9.7077    0.0000 C   0  0  2  0  0  0  0  0  0  0  0  0
    5.5339   -9.9979    0.0000 O   0  0  0  0  0  0  0  0  0  0  0  0
    4.5337   -9.9951    0.0000 C   0  0  1  0  0  0  0  0  0  0  0  0
    4.5321  -10.5726    0.0000 O   0  0  0  0  0  0  0  0  0  0  0  0
    4.0343   -9.7050    0.0000 C   0  0  1  0  0  0  0  0  0  0  0  0
    3.5334   -9.9924    0.0000 O   0  0  0  0  0  0  0  0  0  0  0  0
    4.0359   -9.1275    0.0000 C   0  0  0  0  0  0  0  0  0  0  0  0
    4.5368   -8.8401    0.0000 O   0  0  0  0  0  0  0  0  0  0  0  0
    7.2936   -9.3567    0.0000 C   0  0  0  0  0  0  0  0  0  0  0  0
  1  2  1  0  0  0  0
  2  3  1  0  0  0  0
  1  4  1  0  0  0  0
  4  5  1  6  0  0  0
  4  6  1  1  0  0  0
  4  7  1  0  0  0  0
  7  8  1  0  0  0  0
  8  9  1  0  0  0  0
  9 10  1  0  0  0  0
 10 11  1  1  0  0  0
 10 12  1  0  0  0  0
 12 13  1  6  0  0  0
 12 14  1  0  0  0  0
 14 15  1  0  0  0  0
 15 16  1  0  0  0  0
 16 17  1  1  0  0  0
 16 18  1  0  0  0  0
 18 19  1  0  0  0  0
 19 20  1  0  0  0  0
 20 21  1  6  0  0  0
 20 22  1  0  0  0  0
 22 23  1  0  0  0  0
 22 24  1  0  0  0  0
 16 24  1  0  0  0  0
 24 25  1  0  0  0  0
 12 25  1  0  0  0  0
 25 26  2  0  0  0  0
 26 27  1  0  0  0  0
 27 28  1  0  0  0  0
 10 28  1  0  0  0  0
 28 29  1  0  0  0  0
  3 29  1  0  0  0  0
  7 29  1  0  0  0  0
 29 30  1  1  0  0  0
 17 31  2  0  0  0  0
 17 32  1  0  0  0  0
 22 33  1  6  0  0  0
  1 34  1  1  0  0  0
 35 36  1  0  0  0  0
 36 37  1  6  0  0  0
 36 38  1  0  0  0  0
 38 39  1  1  0  0  0
 38 40  1  0  0  0  0
 40 41  1  1  0  0  0
 40 42  1  0  0  0  0
 42 43  1  0  0  0  0
 35 43  1  0  0  0  0
 35 34  1  1  0  0  0
  5 44  1  0  0  0  0
M  END
>  <cdx:groupId>
250

>  <cdx:fragmentId>
5

$$$$
