94657.cdx
  Mrv1902 05222410182D          

 25 26  0  0  0  0            999 V2000
    9.3391   -8.8772    0.0000 C   0  0  0  0  0  0  0  0  0  0  0  0
    8.6246   -8.4647    0.0000 C   0  0  0  0  0  0  0  0  0  0  0  0
    7.9101   -8.8772    0.0000 C   0  0  0  0  0  0  0  0  0  0  0  0
    7.1956   -8.4647    0.0000 C   0  0  0  0  0  0  0  0  0  0  0  0
    6.4812   -8.8772    0.0000 C   0  0  0  0  0  0  0  0  0  0  0  0
    5.7667   -8.4647    0.0000 C   0  0  0  0  0  0  0  0  0  0  0  0
    5.0522   -8.8772    0.0000 C   0  0  0  0  0  0  0  0  0  0  0  0
    4.3378   -8.4647    0.0000 C   0  0  0  0  0  0  0  0  0  0  0  0
    3.6233   -8.8772    0.0000 C   0  0  0  0  0  0  0  0  0  0  0  0
    2.9088   -8.4647    0.0000 C   0  0  0  0  0  0  0  0  0  0  0  0
    2.9088   -7.6397    0.0000 C   0  0  0  0  0  0  0  0  0  0  0  0
    3.6233   -7.2272    0.0000 C   0  0  0  0  0  0  0  0  0  0  0  0
    4.3378   -7.6397    0.0000 C   0  0  0  0  0  0  0  0  0  0  0  0
    2.1944   -7.2272    0.0000 O   0  0  0  0  0  0  0  0  0  0  0  0
    2.1944   -8.8772    0.0000 O   0  0  0  0  0  0  0  0  0  0  0  0
   10.0535   -8.4647    0.0000 C   0  0  0  0  0  0  0  0  0  0  0  0
   10.7680   -8.8772    0.0000 C   0  0  0  0  0  0  0  0  0  0  0  0
   11.4825   -8.4647    0.0000 C   0  0  0  0  0  0  0  0  0  0  0  0
   11.4825   -7.6397    0.0000 C   0  0  0  0  0  0  0  0  0  0  0  0
   10.7680   -7.2272    0.0000 C   0  0  0  0  0  0  0  0  0  0  0  0
   10.0535   -7.6397    0.0000 C   0  0  0  0  0  0  0  0  0  0  0  0
   12.1969   -7.2272    0.0000 O   0  0  0  0  0  0  0  0  0  0  0  0
   12.1969   -8.8772    0.0000 O   0  0  0  0  0  0  0  0  0  0  0  0
    6.4812   -9.7022    0.0000 O   0  0  0  0  0  0  0  0  0  0  0  0
    7.9101   -9.7022    0.0000 O   0  0  0  0  0  0  0  0  0  0  0  0
  1  2  1  0  0  0  0
  2  3  1  0  0  0  0
  3  4  1  0  0  0  0
  4  5  1  0  0  0  0
  5  6  1  0  0  0  0
  6  7  1  0  0  0  0
  8  9  1  0  0  0  0
  9 10  2  0  0  0  0
 10 11  1  0  0  0  0
 11 12  2  0  0  0  0
 12 13  1  0  0  0  0
  8 13  2  0  0  0  0
 11 14  1  0  0  0  0
 10 15  1  0  0  0  0
  7  8  1  0  0  0  0
 16 17  1  0  0  0  0
 17 18  2  0  0  0  0
 18 19  1  0  0  0  0
 19 20  2  0  0  0  0
 20 21  1  0  0  0  0
 16 21  2  0  0  0  0
 19 22  1  0  0  0  0
 18 23  1  0  0  0  0
  1 16  1  0  0  0  0
  5 24  1  0  0  0  0
  3 25  1  0  0  0  0
M  END
>  <cdx:groupId>
78

>  <cdx:fragmentId>
19

$$$$
