94652.cdx
  Mrv1902 05222410202D          

 47 52  0  0  0  0            999 V2000
    4.4531   -8.3600    0.0000 C   0  0  0  0  0  0  0  0  0  0  0  0
    4.4531   -9.1850    0.0000 C   0  0  1  0  0  0  0  0  0  0  0  0
    5.1675   -9.5975    0.0000 C   0  0  1  0  0  0  0  0  0  0  0  0
    5.8820   -9.1850    0.0000 C   0  0  0  0  0  0  0  0  0  0  0  0
    5.8820   -8.3600    0.0000 C   0  0  2  0  0  0  0  0  0  0  0  0
    5.1675   -7.9475    0.0000 C   0  0  0  0  0  0  0  0  0  0  0  0
    6.5965   -9.5975    0.0000 C   0  0  0  0  0  0  0  0  0  0  0  0
    7.3109   -9.1850    0.0000 C   0  0  0  0  0  0  0  0  0  0  0  0
    7.3109   -8.3600    0.0000 C   0  0  2  0  0  0  0  0  0  0  0  0
    6.5965   -7.9475    0.0000 C   0  0  0  0  0  0  0  0  0  0  0  0
    8.0254   -7.9475    0.0000 C   0  0  1  0  0  0  0  0  0  0  0  0
    8.0254   -7.1225    0.0000 C   0  0  0  0  0  0  0  0  0  0  0  0
    7.3109   -6.7100    0.0000 C   0  0  0  0  0  0  0  0  0  0  0  0
    6.5965   -7.1225    0.0000 C   0  0  0  0  0  0  0  0  0  0  0  0
    8.7399   -8.3600    0.0000 C   0  0  0  0  0  0  0  0  0  0  0  0
    9.4544   -7.9475    0.0000 C   0  0  0  0  0  0  0  0  0  0  0  0
    9.4544   -7.1225    0.0000 C   0  0  2  0  0  0  0  0  0  0  0  0
    8.7399   -6.7100    0.0000 C   0  0  0  0  0  0  0  0  0  0  0  0
   10.1688   -6.7100    0.0000 C   0  0  0  0  0  0  0  0  0  0  0  0
   10.1688   -5.8850    0.0000 C   0  0  1  0  0  0  0  0  0  0  0  0
    9.4544   -5.4725    0.0000 C   0  0  2  0  0  0  0  0  0  0  0  0
    8.7399   -5.8850    0.0000 C   0  0  1  0  0  0  0  0  0  0  0  0
    3.7386   -9.5975    0.0000 O   0  0  0  0  0  0  0  0  0  0  0  0
    4.7550  -10.3120    0.0000 C   0  0  0  0  0  0  0  0  0  0  0  0
    5.8820   -7.5350    0.0000 C   0  0  0  0  0  0  0  0  0  0  0  0
    7.3109   -7.5350    0.0000 C   0  0  0  0  0  0  0  0  0  0  0  0
   10.1688   -7.5350    0.0000 C   0  0  0  0  0  0  0  0  0  0  0  0
    5.5800  -10.3120    0.0000 C   0  0  0  0  0  0  0  0  0  0  0  0
    8.0254   -8.7725    0.0000 C   0  0  0  0  0  0  0  0  0  0  0  0
   10.8833   -7.1225    0.0000 O   0  0  0  0  0  0  0  0  0  0  0  0
   10.1688   -8.3600    0.0000 O   0  0  0  0  0  0  0  0  0  0  0  0
    7.9430   -5.6715    0.0000 O   0  0  0  0  0  0  0  0  0  0  0  0
    8.7399   -5.0600    0.0000 C   0  0  0  0  0  0  0  0  0  0  0  0
    9.4544   -4.6475    0.0000 C   0  0  0  0  0  0  0  0  0  0  0  0
    9.7563   -9.0745    0.0000 C   0  0  2  0  0  0  0  0  0  0  0  0
    8.9313   -9.0745    0.0000 O   0  0  0  0  0  0  0  0  0  0  0  0
    8.5188   -9.7889    0.0000 C   0  0  1  0  0  0  0  0  0  0  0  0
    8.9313  -10.5034    0.0000 C   0  0  2  0  0  0  0  0  0  0  0  0
    9.7563  -10.5034    0.0000 C   0  0  1  0  0  0  0  0  0  0  0  0
   10.1688   -9.7889    0.0000 C   0  0  1  0  0  0  0  0  0  0  0  0
    7.6938   -9.7889    0.0000 C   0  0  0  0  0  0  0  0  0  0  0  0
   10.1688  -11.2179    0.0000 O   0  0  0  0  0  0  0  0  0  0  0  0
   10.9938   -9.7889    0.0000 O   0  0  0  0  0  0  0  0  0  0  0  0
    8.5188  -11.2179    0.0000 O   0  0  0  0  0  0  0  0  0  0  0  0
    7.2813  -10.5034    0.0000 O   0  0  0  0  0  0  0  0  0  0  0  0
    5.1675  -11.0264    0.0000 O   0  0  0  0  0  0  0  0  0  0  0  0
   10.8833   -5.4725    0.0000 O   0  0  0  0  0  0  0  0  0  0  0  0
  1  2  1  0  0  0  0
  2  3  1  0  0  0  0
  3  4  1  0  0  0  0
  4  5  1  0  0  0  0
  5  6  1  0  0  0  0
  6  1  1  0  0  0  0
  4  7  1  0  0  0  0
  7  8  1  0  0  0  0
  8  9  1  0  0  0  0
  9 10  1  0  0  0  0
 10  5  1  0  0  0  0
  9 11  1  0  0  0  0
 11 12  1  0  0  0  0
 12 13  2  0  0  0  0
 13 14  1  0  0  0  0
 14 10  1  0  0  0  0
 11 15  1  0  0  0  0
 15 16  1  0  0  0  0
 16 17  1  0  0  0  0
 17 18  1  0  0  0  0
 18 12  1  0  0  0  0
 17 19  1  0  0  0  0
 19 20  1  0  0  0  0
 20 21  1  0  0  0  0
 21 22  1  0  0  0  0
 22 18  1  0  0  0  0
  2 23  1  1  0  0  0
  3 24  1  1  0  0  0
  5 25  1  1  0  0  0
  9 26  1  1  0  0  0
 17 27  1  1  0  0  0
  3 28  1  6  0  0  0
 11 29  1  6  0  0  0
 27 30  2  0  0  0  0
 27 31  1  0  0  0  0
 22 32  1  6  0  0  0
 22 33  1  0  0  0  0
 21 34  1  6  0  0  0
 35 31  1  1  0  0  0
 35 36  1  0  0  0  0
 36 37  1  0  0  0  0
 37 38  1  0  0  0  0
 38 39  1  0  0  0  0
 39 40  1  0  0  0  0
 40 35  1  0  0  0  0
 37 41  1  1  0  0  0
 39 42  1  1  0  0  0
 40 43  1  6  0  0  0
 38 44  1  6  0  0  0
 41 45  1  0  0  0  0
 28 46  1  0  0  0  0
 20 47  1  1  0  0  0
M  END
>  <cdx:fragmentId>
5

$$$$
