94654.cdx
  Mrv1902 05222410192D          

 37 40  0  0  0  0            999 V2000
    4.0681   -7.8788    0.0000 C   0  0  2  0  0  0  0  0  0  0  0  0
    4.0681   -8.7037    0.0000 C   0  0  1  0  0  0  0  0  0  0  0  0
    4.7825   -9.1162    0.0000 C   0  0  0  0  0  0  0  0  0  0  0  0
    5.4970   -8.7037    0.0000 C   0  0  2  0  0  0  0  0  0  0  0  0
    5.4970   -7.8788    0.0000 C   0  0  1  0  0  0  0  0  0  0  0  0
    4.7825   -7.4663    0.0000 C   0  0  0  0  0  0  0  0  0  0  0  0
    6.2115   -9.1162    0.0000 C   0  0  0  0  0  0  0  0  0  0  0  0
    6.9259   -8.7037    0.0000 C   0  0  0  0  0  0  0  0  0  0  0  0
    6.9259   -7.8788    0.0000 C   0  0  0  0  0  0  0  0  0  0  0  0
    6.2115   -7.4663    0.0000 C   0  0  1  0  0  0  0  0  0  0  0  0
    7.6404   -7.4663    0.0000 C   0  0  0  0  0  0  0  0  0  0  0  0
    7.6404   -6.6413    0.0000 C   0  0  2  0  0  0  0  0  0  0  0  0
    6.9259   -6.2287    0.0000 C   0  0  0  0  0  0  0  0  0  0  0  0
    6.2115   -6.6413    0.0000 C   0  0  0  0  0  0  0  0  0  0  0  0
    8.3549   -6.2287    0.0000 C   0  0  0  0  0  0  0  0  0  0  0  0
    8.3549   -5.4037    0.0000 O   0  0  0  0  0  0  0  0  0  0  0  0
    9.0694   -6.6413    0.0000 C   0  0  0  0  0  0  0  0  0  0  0  0
    9.7838   -6.2287    0.0000 O   0  0  0  0  0  0  0  0  0  0  0  0
    3.3536   -7.4663    0.0000 O   0  0  0  0  0  0  0  0  0  0  0  0
    3.3536   -9.1162    0.0000 O   0  0  0  0  0  0  0  0  0  0  0  0
    5.4970   -9.5287    0.0000 H   0  0  0  0  0  0  0  0  0  0  0  0
    6.2115   -8.2912    0.0000 H   0  0  0  0  0  0  0  0  0  0  0  0
    5.4970   -7.0537    0.0000 C   0  0  0  0  0  0  0  0  0  0  0  0
    4.3700   -9.8307    0.0000 C   0  0  0  0  0  0  0  0  0  0  0  0
    5.1950   -9.8307    0.0000 C   0  0  0  0  0  0  0  0  0  0  0  0
    7.6404   -5.8163    0.0000 C   0  0  0  0  0  0  0  0  0  0  0  0
   10.4983   -6.6413    0.0000 C   0  0  2  0  0  0  0  0  0  0  0  0
   10.4983   -7.4663    0.0000 O   0  0  0  0  0  0  0  0  0  0  0  0
   11.2128   -7.8788    0.0000 C   0  0  1  0  0  0  0  0  0  0  0  0
   11.9272   -7.4663    0.0000 C   0  0  2  0  0  0  0  0  0  0  0  0
   11.9272   -6.6413    0.0000 C   0  0  1  0  0  0  0  0  0  0  0  0
   11.2128   -6.2287    0.0000 C   0  0  1  0  0  0  0  0  0  0  0  0
   11.2128   -8.7037    0.0000 C   0  0  0  0  0  0  0  0  0  0  0  0
   12.6417   -6.2287    0.0000 O   0  0  0  0  0  0  0  0  0  0  0  0
   11.2128   -5.4037    0.0000 O   0  0  0  0  0  0  0  0  0  0  0  0
   12.6417   -7.8788    0.0000 O   0  0  0  0  0  0  0  0  0  0  0  0
   11.9272   -9.1162    0.0000 O   0  0  0  0  0  0  0  0  0  0  0  0
  1  2  1  0  0  0  0
  2  3  1  0  0  0  0
  3  4  1  0  0  0  0
  4  5  1  0  0  0  0
  5  6  1  0  0  0  0
  6  1  1  0  0  0  0
  4  7  1  0  0  0  0
  7  8  1  0  0  0  0
  8  9  1  0  0  0  0
  9 10  1  0  0  0  0
 10  5  1  0  0  0  0
  9 11  2  0  0  0  0
 11 12  1  0  0  0  0
 12 13  1  0  0  0  0
 13 14  1  0  0  0  0
 14 10  1  0  0  0  0
 12 15  1  6  0  0  0
 15 16  2  0  0  0  0
 15 17  1  0  0  0  0
 17 18  1  0  0  0  0
  1 19  1  1  0  0  0
  2 20  1  1  0  0  0
  4 21  1  1  0  0  0
 10 22  1  1  0  0  0
  5 23  1  6  0  0  0
  3 24  1  0  0  0  0
  3 25  1  0  0  0  0
 12 26  1  1  0  0  0
 27 18  1  1  0  0  0
 27 28  1  0  0  0  0
 28 29  1  0  0  0  0
 29 30  1  0  0  0  0
 30 31  1  0  0  0  0
 31 32  1  0  0  0  0
 32 27  1  0  0  0  0
 29 33  1  1  0  0  0
 31 34  1  1  0  0  0
 32 35  1  6  0  0  0
 30 36  1  6  0  0  0
 33 37  1  0  0  0  0
M  END
>  <cdx:fragmentId>
5

$$$$
