94669.cdx
  Mrv1902 05222410192D          

 24 24  0  0  0  0            999 V2000
   12.9292   -6.6676    0.0000 C   0  0  0  0  0  0  0  0  0  0  0  0
   12.2154   -7.0812    0.0000 C   0  0  0  0  0  0  0  0  0  0  0  0
   11.5003   -6.6698    0.0000 C   0  0  1  0  0  0  0  0  0  0  0  0
   10.7865   -7.0835    0.0000 C   0  0  0  0  0  0  0  0  0  0  0  0
   11.4990   -5.8448    0.0000 O   0  0  0  0  0  0  0  0  0  0  0  0
   10.0726   -7.4971    0.0000 C   0  0  0  0  0  0  0  0  0  0  0  0
    9.3588   -7.9107    0.0000 C   0  0  0  0  0  0  0  0  0  0  0  0
    8.6450   -8.3244    0.0000 C   0  0  0  0  0  0  0  0  0  0  0  0
    7.9312   -8.7380    0.0000 C   0  0  1  0  0  0  0  0  0  0  0  0
    7.9325   -9.5630    0.0000 O   0  0  0  0  0  0  0  0  0  0  0  0
    7.2161   -8.3266    0.0000 C   0  0  0  0  0  0  0  0  0  0  0  0
    6.5023   -8.7403    0.0000 C   0  0  0  0  0  0  0  0  0  0  0  0
    5.7871   -8.3289    0.0000 O   0  0  0  0  0  0  0  0  0  0  0  0
    3.6508   -8.7482    0.0000 C   0  0  2  0  0  0  0  0  0  0  0  0
    3.6526   -9.5732    0.0000 C   0  0  2  0  0  0  0  0  0  0  0  0
    4.3679   -9.9841    0.0000 C   0  0  1  0  0  0  0  0  0  0  0  0
    5.0815   -9.5701    0.0000 C   0  0  2  0  0  0  0  0  0  0  0  0
    5.0797   -8.7451    0.0000 C   0  0  1  0  0  0  0  0  0  0  0  0
    4.3644   -8.3341    0.0000 O   0  0  0  0  0  0  0  0  0  0  0  0
    2.9354   -8.3372    0.0000 C   0  0  0  0  0  0  0  0  0  0  0  0
    4.3697  -10.8091    0.0000 O   0  0  0  0  0  0  0  0  0  0  0  0
    2.9390   -9.9872    0.0000 O   0  0  0  0  0  0  0  0  0  0  0  0
    5.7969   -9.9811    0.0000 O   0  0  0  0  0  0  0  0  0  0  0  0
    2.2218   -8.7513    0.0000 O   0  0  0  0  0  0  0  0  0  0  0  0
  1  2  2  0  0  0  0
  2  3  1  0  0  0  0
  3  4  1  0  0  0  0
  3  5  1  1  0  0  0
  4  6  3  0  0  0  0
  6  7  1  0  0  0  0
  7  8  3  0  0  0  0
  8  9  1  0  0  0  0
  9 10  1  1  0  0  0
  9 11  1  0  0  0  0
 11 12  1  0  0  0  0
 12 13  1  0  0  0  0
 14 15  1  0  0  0  0
 15 16  1  0  0  0  0
 16 17  1  0  0  0  0
 17 18  1  0  0  0  0
 18 19  1  0  0  0  0
 19 14  1  0  0  0  0
 14 20  1  1  0  0  0
 16 21  1  1  0  0  0
 15 22  1  6  0  0  0
 17 23  1  6  0  0  0
 20 24  1  0  0  0  0
 18 13  1  1  0  0  0
M  END
>  <cdx:fragmentId>
3

$$$$
