94662.cdx
  Mrv1902 05222410262D          

  8  7  0  0  0  0            999 V2000
    8.6246   -7.8296    0.0000 C   0  0  0  0  0  0  0  0  0  0  0  0
    8.6246   -8.6546    0.0000 C   0  0  0  0  0  0  0  0  0  0  0  0
    7.9101   -9.0671    0.0000 C   0  0  0  0  0  0  0  0  0  0  0  0
    7.1956   -8.6546    0.0000 C   0  0  0  0  0  0  0  0  0  0  0  0
    6.4812   -9.0671    0.0000 C   0  0  0  0  0  0  0  0  0  0  0  0
    5.7667   -8.6546    0.0000 C   0  0  0  0  0  0  0  0  0  0  0  0
    5.0522   -9.0671    0.0000 C   0  0  0  0  0  0  0  0  0  0  0  0
    9.3391   -9.0671    0.0000 C   0  0  0  0  0  0  0  0  0  0  0  0
  1  2  1  0  0  0  0
  2  3  1  0  0  0  0
  3  4  1  0  0  0  0
  4  5  1  0  0  0  0
  5  6  1  0  0  0  0
  6  7  1  0  0  0  0
  2  8  1  0  0  0  0
M  END
>  <cdx:groupId>
25

>  <cdx:fragmentId>
5

$$$$
