94664.cdx
  Mrv1902 05222410272D          

 14 15  0  0  0  0            999 V2000
    7.5061   -9.4935    0.0000 N   0  0  0  0  0  0  0  0  0  0  0  0
    8.2206   -9.0810    0.0000 C   0  0  0  0  0  0  0  0  0  0  0  0
    8.2206   -8.2560    0.0000 C   0  0  0  0  0  0  0  0  0  0  0  0
    7.5061   -7.8435    0.0000 C   0  0  0  0  0  0  0  0  0  0  0  0
    6.7917   -8.2560    0.0000 C   0  0  0  0  0  0  0  0  0  0  0  0
    6.0772   -7.8435    0.0000 C   0  0  0  0  0  0  0  0  0  0  0  0
    5.3627   -8.2560    0.0000 C   0  0  0  0  0  0  0  0  0  0  0  0
    5.3627   -9.0810    0.0000 C   0  0  0  0  0  0  0  0  0  0  0  0
    6.0772   -9.4935    0.0000 C   0  0  0  0  0  0  0  0  0  0  0  0
    6.7917   -9.0810    0.0000 C   0  0  0  0  0  0  0  0  0  0  0  0
    8.9351   -9.4935    0.0000 O   0  0  0  0  0  0  0  0  0  0  0  0
    7.5061  -10.3185    0.0000 C   0  0  0  0  0  0  0  0  0  0  0  0
    7.5061   -7.0185    0.0000 O   0  0  0  0  0  0  0  0  0  0  0  0
    8.2206   -6.6060    0.0000 C   0  0  0  0  0  0  0  0  0  0  0  0
  1  2  1  0  0  0  0
  2  3  1  0  0  0  0
  3  4  2  0  0  0  0
  4  5  1  0  0  0  0
  5  6  1  0  0  0  0
  6  7  2  0  0  0  0
  7  8  1  0  0  0  0
  8  9  2  0  0  0  0
  9 10  1  0  0  0  0
  1 10  1  0  0  0  0
  5 10  2  0  0  0  0
  2 11  2  0  0  0  0
  1 12  1  0  0  0  0
 13 14  1  0  0  0  0
  4 13  1  0  0  0  0
M  END
>  <cdx:groupId>
45

>  <cdx:fragmentId>
5

$$$$
