94663.cdx
  Mrv1902 05222410262D          

 34 37  0  0  0  0            999 V2000
    4.4619   -8.1881    0.0000 C   0  0  0  0  0  0  0  0  0  0  0  0
    4.4619   -9.0131    0.0000 C   0  0  0  0  0  0  0  0  0  0  0  0
    5.1763   -9.4256    0.0000 C   0  0  0  0  0  0  0  0  0  0  0  0
    5.8908   -9.0131    0.0000 C   0  0  0  0  0  0  0  0  0  0  0  0
    5.8908   -8.1881    0.0000 C   0  0  0  0  0  0  0  0  0  0  0  0
    5.1763   -7.7756    0.0000 C   0  0  0  0  0  0  0  0  0  0  0  0
    6.6053   -9.4256    0.0000 C   0  0  0  0  0  0  0  0  0  0  0  0
    7.3198   -9.0131    0.0000 C   0  0  0  0  0  0  0  0  0  0  0  0
    7.3198   -8.1881    0.0000 C   0  0  0  0  0  0  0  0  0  0  0  0
    6.6053   -7.7756    0.0000 C   0  0  0  0  0  0  0  0  0  0  0  0
    8.0342   -9.4256    0.0000 C   0  0  0  0  0  0  0  0  0  0  0  0
    8.7487   -9.0131    0.0000 C   0  0  0  0  0  0  0  0  0  0  0  0
    8.7487   -8.1881    0.0000 C   0  0  0  0  0  0  0  0  0  0  0  0
    8.0342   -7.7756    0.0000 C   0  0  0  0  0  0  0  0  0  0  0  0
    6.6053   -6.9506    0.0000 O   0  0  0  0  0  0  0  0  0  0  0  0
    6.6053  -10.2506    0.0000 O   0  0  0  0  0  0  0  0  0  0  0  0
    5.1763   -6.9506    0.0000 O   0  0  0  0  0  0  0  0  0  0  0  0
    3.7474   -7.7756    0.0000 O   0  0  0  0  0  0  0  0  0  0  0  0
    3.7474   -9.4256    0.0000 O   0  0  0  0  0  0  0  0  0  0  0  0
    9.4632   -9.4256    0.0000 C   0  0  0  0  0  0  0  0  0  0  0  0
    9.4632   -7.7756    0.0000 O   0  0  0  0  0  0  0  0  0  0  0  0
    8.0342   -6.9506    0.0000 O   0  0  0  0  0  0  0  0  0  0  0  0
    3.0329   -8.1881    0.0000 C   0  0  0  0  0  0  0  0  0  0  0  0
   10.8832   -9.4335    0.0000 C   0  0  2  0  0  0  0  0  0  0  0  0
   11.5978   -9.0214    0.0000 C   0  0  2  0  0  0  0  0  0  0  0  0
   11.5983   -8.1964    0.0000 C   0  0  1  0  0  0  0  0  0  0  0  0
   10.8840   -7.7835    0.0000 C   0  0  2  0  0  0  0  0  0  0  0  0
   10.1693   -8.1957    0.0000 C   0  0  1  0  0  0  0  0  0  0  0  0
   10.1689   -9.0207    0.0000 O   0  0  0  0  0  0  0  0  0  0  0  0
   10.8827  -10.2585    0.0000 C   0  0  0  0  0  0  0  0  0  0  0  0
   12.3121   -9.4343    0.0000 O   0  0  0  0  0  0  0  0  0  0  0  0
   10.8845   -6.9585    0.0000 O   0  0  0  0  0  0  0  0  0  0  0  0
   12.3130   -7.7843    0.0000 O   0  0  0  0  0  0  0  0  0  0  0  0
   11.5970  -10.6714    0.0000 O   0  0  0  0  0  0  0  0  0  0  0  0
  1  2  2  0  0  0  0
  2  3  1  0  0  0  0
  3  4  2  0  0  0  0
  4  5  1  0  0  0  0
  5  6  2  0  0  0  0
  6  1  1  0  0  0  0
  4  7  1  0  0  0  0
  7  8  1  0  0  0  0
  8  9  2  0  0  0  0
  9 10  1  0  0  0  0
 10  5  1  0  0  0  0
  8 11  1  0  0  0  0
 11 12  2  0  0  0  0
 12 13  1  0  0  0  0
 13 14  2  0  0  0  0
 14  9  1  0  0  0  0
 10 15  2  0  0  0  0
  7 16  2  0  0  0  0
  6 17  1  0  0  0  0
  1 18  1  0  0  0  0
  2 19  1  0  0  0  0
 12 20  1  0  0  0  0
 13 21  1  0  0  0  0
 14 22  1  0  0  0  0
 18 23  1  0  0  0  0
 24 25  1  0  0  0  0
 25 26  1  0  0  0  0
 26 27  1  0  0  0  0
 27 28  1  0  0  0  0
 28 29  1  0  0  0  0
 29 24  1  0  0  0  0
 24 30  1  1  0  0  0
 25 31  1  6  0  0  0
 27 32  1  6  0  0  0
 26 33  1  1  0  0  0
 30 34  1  0  0  0  0
 28 21  1  1  0  0  0
M  END
>  <cdx:fragmentId>
24

$$$$
