94661.cdx
  Mrv1902 05222410272D          

 15 17  0  0  0  0            999 V2000
    8.2700   -8.2056    0.0000 C   0  0  0  0  0  0  0  0  0  0  0  0
    8.8220   -8.8187    0.0000 N   0  0  0  0  0  0  0  0  0  0  0  0
    8.5671   -9.6033    0.0000 C   0  0  0  0  0  0  0  0  0  0  0  0
    7.7601   -9.7749    0.0000 C   0  0  0  0  0  0  0  0  0  0  0  0
    7.2081   -9.1618    0.0000 C   0  0  0  0  0  0  0  0  0  0  0  0
    6.3831   -9.1618    0.0000 C   0  0  0  0  0  0  0  0  0  0  0  0
    5.8310   -9.7749    0.0000 C   0  0  0  0  0  0  0  0  0  0  0  0
    5.0240   -9.6033    0.0000 C   0  0  0  0  0  0  0  0  0  0  0  0
    4.7691   -8.8187    0.0000 C   0  0  0  0  0  0  0  0  0  0  0  0
    5.3211   -8.2056    0.0000 C   0  0  0  0  0  0  0  0  0  0  0  0
    6.1281   -8.3772    0.0000 C   0  0  0  0  0  0  0  0  0  0  0  0
    6.7956   -7.8922    0.0000 N   0  0  0  0  0  0  0  0  0  0  0  0
    7.4630   -8.3772    0.0000 C   0  0  0  0  0  0  0  0  0  0  0  0
    8.5249   -7.4210    0.0000 C   0  0  0  0  0  0  0  0  0  0  0  0
    9.3319   -7.2495    0.0000 O   0  0  0  0  0  0  0  0  0  0  0  0
  1  2  2  0  0  0  0
  2  3  1  0  0  0  0
  3  4  2  0  0  0  0
  4  5  1  0  0  0  0
  5  6  1  0  0  0  0
  6  7  1  0  0  0  0
  7  8  2  0  0  0  0
  8  9  1  0  0  0  0
  9 10  2  0  0  0  0
 10 11  1  0  0  0  0
  6 11  2  0  0  0  0
 11 12  1  0  0  0  0
 12 13  1  0  0  0  0
  5 13  2  0  0  0  0
  1 13  1  0  0  0  0
 14 15  1  0  0  0  0
  1 14  1  0  0  0  0
M  END
>  <cdx:groupId>
49

>  <cdx:fragmentId>
5

$$$$
