94668.cdx
  Mrv1902 05222410192D          

 44 47  0  0  0  0            999 V2000
    7.8100   -7.7888    0.0000 O   0  0  0  0  0  0  0  0  0  0  0  0
    8.5267   -8.1974    0.0000 C   0  0  0  0  0  0  0  0  0  0  0  0
    9.2389   -7.7810    0.0000 C   0  0  0  0  0  0  0  0  0  0  0  0
    9.9556   -8.1895    0.0000 C   0  0  0  0  0  0  0  0  0  0  0  0
   10.6678   -7.7731    0.0000 C   0  0  0  0  0  0  0  0  0  0  0  0
   11.3846   -8.1817    0.0000 C   0  0  0  0  0  0  0  0  0  0  0  0
   11.3891   -9.0067    0.0000 C   0  0  0  0  0  0  0  0  0  0  0  0
   10.6769   -9.4231    0.0000 C   0  0  0  0  0  0  0  0  0  0  0  0
    9.9602   -9.0145    0.0000 C   0  0  0  0  0  0  0  0  0  0  0  0
   12.1058   -9.4152    0.0000 O   0  0  0  0  0  0  0  0  0  0  0  0
   12.0967   -7.7652    0.0000 O   0  0  0  0  0  0  0  0  0  0  0  0
    4.9612   -9.4545    0.0000 O   0  0  0  0  0  0  0  0  0  0  0  0
    4.2377   -8.2171    0.0000 O   0  0  0  0  0  0  0  0  0  0  0  0
    4.9521   -7.8046    0.0000 C   0  0  0  0  0  0  0  0  0  0  0  0
    9.2525  -10.2559    0.0000 O   0  0  0  0  0  0  0  0  0  0  0  0
    9.2616  -11.9059    0.0000 O   0  0  0  0  0  0  0  0  0  0  0  0
    7.8372  -12.7388    0.0000 O   0  0  0  0  0  0  0  0  0  0  0  0
    6.4038  -11.9216    0.0000 C   0  0  0  0  0  0  0  0  0  0  0  0
    7.1160  -11.5052    0.0000 C   0  0  1  0  0  0  0  0  0  0  0  0
    7.8327  -11.9138    0.0000 C   0  0  1  0  0  0  0  0  0  0  0  0
    8.5449  -11.4973    0.0000 C   0  0  2  0  0  0  0  0  0  0  0  0
    8.5403  -10.6724    0.0000 C   0  0  2  0  0  0  0  0  0  0  0  0
    7.8236  -10.2638    0.0000 C   0  0  1  0  0  0  0  0  0  0  0  0
    7.1114  -10.6802    0.0000 O   0  0  0  0  0  0  0  0  0  0  0  0
    7.8191   -9.4388    0.0000 O   0  0  0  0  0  0  0  0  0  0  0  0
    5.6689   -8.2131    0.0000 C   0  0  2  0  0  0  0  0  0  0  0  0
    5.6734   -9.0381    0.0000 C   0  0  2  0  0  0  0  0  0  0  0  0
    6.3901   -9.4467    0.0000 C   0  0  2  0  0  0  0  0  0  0  0  0
    7.1023   -9.0303    0.0000 C   0  0  2  0  0  0  0  0  0  0  0  0
    7.0978   -8.2053    0.0000 C   0  0  1  0  0  0  0  0  0  0  0  0
    6.3811   -7.7967    0.0000 O   0  0  0  0  0  0  0  0  0  0  0  0
    6.3947  -10.2717    0.0000 O   0  0  0  0  0  0  0  0  0  0  0  0
    4.9658  -10.2795    0.0000 C   0  0  0  0  0  0  0  0  0  0  0  0
    4.2536  -10.6960    0.0000 C   0  0  0  0  0  0  0  0  0  0  0  0
    5.6825  -10.6881    0.0000 O   0  0  0  0  0  0  0  0  0  0  0  0
    4.2581  -11.5209    0.0000 C   0  0  0  0  0  0  0  0  0  0  0  0
    3.5459  -11.9374    0.0000 C   0  0  0  0  0  0  0  0  0  0  0  0
    2.8270  -11.5328    0.0000 C   0  0  0  0  0  0  0  0  0  0  0  0
    2.1171  -11.9374    0.0000 C   0  0  0  0  0  0  0  0  0  0  0  0
    2.1171  -12.7623    0.0000 C   0  0  0  0  0  0  0  0  0  0  0  0
    2.8270  -13.1669    0.0000 C   0  0  0  0  0  0  0  0  0  0  0  0
    3.5459  -12.7623    0.0000 C   0  0  0  0  0  0  0  0  0  0  0  0
    1.4037  -13.1768    0.0000 O   0  0  0  0  0  0  0  0  0  0  0  0
    2.8247  -13.9919    0.0000 O   0  0  0  0  0  0  0  0  0  0  0  0
 28 32  1  6  0  0  0
 30  1  1  1  0  0  0
 27 12  1  6  0  0  0
 26 14  1  1  0  0  0
 14 13  1  0  0  0  0
 29 25  1  6  0  0  0
 23 25  1  1  0  0  0
 22 15  1  6  0  0  0
 21 16  1  6  0  0  0
 20 17  1  1  0  0  0
 19 18  1  6  0  0  0
 24 19  1  0  0  0  0
 20 19  1  0  0  0  0
 21 20  1  0  0  0  0
 22 21  1  0  0  0  0
 23 22  1  0  0  0  0
 24 23  1  0  0  0  0
 31 26  1  0  0  0  0
 27 26  1  0  0  0  0
 28 27  1  0  0  0  0
 29 28  1  0  0  0  0
 30 29  1  0  0  0  0
 31 30  1  0  0  0  0
  2  3  1  0  0  0  0
  1  2  1  0  0  0  0
  4  5  1  0  0  0  0
  5  6  2  0  0  0  0
  6  7  1  0  0  0  0
  7  8  2  0  0  0  0
  8  9  1  0  0  0  0
  4  9  2  0  0  0  0
  7 10  1  0  0  0  0
  6 11  1  0  0  0  0
  3  4  1  0  0  0  0
 12 33  1  0  0  0  0
 33 34  1  0  0  0  0
 33 35  2  0  0  0  0
 34 36  2  0  0  0  0
 36 37  1  0  0  0  0
 37 38  2  0  0  0  0
 38 39  1  0  0  0  0
 39 40  2  0  0  0  0
 40 41  1  0  0  0  0
 41 42  2  0  0  0  0
 42 37  1  0  0  0  0
 40 43  1  0  0  0  0
 41 44  1  0  0  0  0
M  END
>  <cdx:fragmentId>
135759

$$$$
