94673.cdx
  Mrv1902 05222410282D          

 23 23  0  0  0  0            999 V2000
    3.0088   -8.6625    0.0000 C   0  0  0  0  0  0  0  0  0  0  0  0
    3.7232   -8.2500    0.0000 C   0  0  0  0  0  0  0  0  0  0  0  0
    4.4377   -8.6625    0.0000 C   0  0  2  0  0  0  0  0  0  0  0  0
    5.1522   -8.2500    0.0000 C   0  0  0  0  0  0  0  0  0  0  0  0
    4.4377   -9.4875    0.0000 O   0  0  0  0  0  0  0  0  0  0  0  0
    5.8667   -7.8375    0.0000 C   0  0  0  0  0  0  0  0  0  0  0  0
    6.5811   -7.4250    0.0000 C   0  0  0  0  0  0  0  0  0  0  0  0
    7.2956   -7.0125    0.0000 C   0  0  0  0  0  0  0  0  0  0  0  0
    8.0101   -6.6000    0.0000 C   0  0  0  0  0  0  0  0  0  0  0  0
    8.7245   -7.0125    0.0000 C   0  0  0  0  0  0  0  0  0  0  0  0
    9.4390   -6.6000    0.0000 C   0  0  0  0  0  0  0  0  0  0  0  0
   10.1535   -7.0125    0.0000 O   0  0  0  0  0  0  0  0  0  0  0  0
   10.1535   -7.8375    0.0000 C   0  0  2  0  0  0  0  0  0  0  0  0
    9.4390   -8.2500    0.0000 O   0  0  0  0  0  0  0  0  0  0  0  0
    9.4390   -9.0750    0.0000 C   0  0  1  0  0  0  0  0  0  0  0  0
   10.1535   -9.4875    0.0000 C   0  0  2  0  0  0  0  0  0  0  0  0
   10.8680   -9.0750    0.0000 C   0  0  1  0  0  0  0  0  0  0  0  0
   10.8680   -8.2500    0.0000 C   0  0  1  0  0  0  0  0  0  0  0  0
    8.7245   -9.4875    0.0000 C   0  0  0  0  0  0  0  0  0  0  0  0
   11.5824   -9.4875    0.0000 O   0  0  0  0  0  0  0  0  0  0  0  0
   11.5824   -7.8375    0.0000 O   0  0  0  0  0  0  0  0  0  0  0  0
   10.1535  -10.3125    0.0000 O   0  0  0  0  0  0  0  0  0  0  0  0
    8.7245  -10.3125    0.0000 O   0  0  0  0  0  0  0  0  0  0  0  0
  1  2  2  0  0  0  0
  2  3  1  0  0  0  0
  3  4  1  0  0  0  0
  3  5  1  6  0  0  0
  4  6  3  0  0  0  0
  6  7  1  0  0  0  0
  7  8  3  0  0  0  0
  8  9  1  0  0  0  0
  9 10  1  0  0  0  0
 10 11  1  0  0  0  0
 11 12  1  0  0  0  0
 13 12  1  1  0  0  0
 13 14  1  0  0  0  0
 14 15  1  0  0  0  0
 15 16  1  0  0  0  0
 16 17  1  0  0  0  0
 17 18  1  0  0  0  0
 18 13  1  0  0  0  0
 15 19  1  1  0  0  0
 17 20  1  1  0  0  0
 18 21  1  6  0  0  0
 16 22  1  6  0  0  0
 19 23  1  0  0  0  0
M  END
>  <cdx:fragmentId>
3

$$$$
