94672.cdx
  Mrv1902 05222410282D          

 29 34  0  0  0  0            999 V2000
   11.3827   -6.4752    0.0000 O   0  0  0  0  0  0  0  0  0  0  0  0
   11.8676   -7.1427    0.0000 C   0  0  0  0  0  0  0  0  0  0  0  0
   11.3827   -7.8101    0.0000 O   0  0  0  0  0  0  0  0  0  0  0  0
   10.5981   -7.5552    0.0000 C   0  0  0  0  0  0  0  0  0  0  0  0
   10.5981   -6.7302    0.0000 C   0  0  0  0  0  0  0  0  0  0  0  0
    9.8836   -7.9677    0.0000 C   0  0  0  0  0  0  0  0  0  0  0  0
    9.1692   -7.5552    0.0000 C   0  0  0  0  0  0  0  0  0  0  0  0
    9.1692   -6.7302    0.0000 C   0  0  0  0  0  0  0  0  0  0  0  0
    9.8836   -6.3177    0.0000 C   0  0  0  0  0  0  0  0  0  0  0  0
    8.4547   -7.9677    0.0000 O   0  0  0  0  0  0  0  0  0  0  0  0
    6.4815   -7.1962    0.0000 O   0  0  0  0  0  0  0  0  0  0  0  0
    7.2885   -7.3677    0.0000 C   0  0  0  0  0  0  0  0  0  0  0  0
    7.7010   -6.6532    0.0000 C   0  0  1  0  0  0  0  0  0  0  0  0
    7.1490   -6.0401    0.0000 C   0  0  1  0  0  0  0  0  0  0  0  0
    6.3953   -6.3757    0.0000 C   0  0  1  0  0  0  0  0  0  0  0  0
    8.3685   -5.4972    0.0000 O   0  0  0  0  0  0  0  0  0  0  0  0
    8.4547   -6.3177    0.0000 C   0  0  2  0  0  0  0  0  0  0  0  0
    7.5615   -5.3257    0.0000 C   0  0  0  0  0  0  0  0  0  0  0  0
    3.4673   -4.8833    0.0000 O   0  0  0  0  0  0  0  0  0  0  0  0
    2.9824   -5.5507    0.0000 C   0  0  0  0  0  0  0  0  0  0  0  0
    3.4673   -6.2181    0.0000 O   0  0  0  0  0  0  0  0  0  0  0  0
    4.2519   -5.9632    0.0000 C   0  0  0  0  0  0  0  0  0  0  0  0
    4.2519   -5.1382    0.0000 C   0  0  0  0  0  0  0  0  0  0  0  0
    4.9664   -6.3757    0.0000 C   0  0  0  0  0  0  0  0  0  0  0  0
    5.6808   -5.9632    0.0000 C   0  0  0  0  0  0  0  0  0  0  0  0
    5.6808   -5.1382    0.0000 C   0  0  0  0  0  0  0  0  0  0  0  0
    4.9664   -4.7257    0.0000 C   0  0  0  0  0  0  0  0  0  0  0  0
    6.5970   -5.4270    0.0000 H   0  0  0  0  0  0  0  0  0  0  0  0
    8.2530   -7.2663    0.0000 H   0  0  0  0  0  0  0  0  0  0  0  0
  1  2  1  0  0  0  0
  2  3  1  0  0  0  0
  3  4  1  0  0  0  0
  4  5  1  0  0  0  0
  1  5  1  0  0  0  0
  6  7  1  0  0  0  0
  7  8  2  0  0  0  0
  8  9  1  0  0  0  0
  9  5  2  0  0  0  0
  6  4  2  0  0  0  0
  7 10  1  0  0  0  0
 11 12  1  0  0  0  0
 12 13  1  0  0  0  0
 13 14  1  0  0  0  0
 14 15  1  0  0  0  0
 11 15  1  0  0  0  0
 16 17  1  0  0  0  0
 16 18  1  0  0  0  0
 17 13  1  0  0  0  0
 18 14  1  0  0  0  0
 19 20  1  0  0  0  0
 20 21  1  0  0  0  0
 21 22  1  0  0  0  0
 22 23  1  0  0  0  0
 19 23  1  0  0  0  0
 24 25  1  0  0  0  0
 25 26  2  0  0  0  0
 26 27  1  0  0  0  0
 27 23  2  0  0  0  0
 24 22  2  0  0  0  0
 15 25  1  6  0  0  0
 17  8  1  6  0  0  0
 14 28  1  6  0  0  0
 13 29  1  6  0  0  0
M  END
>  <cdx:groupId>
94

>  <cdx:fragmentId>
41

$$$$
