94671.cdx
  Mrv1902 05222410272D          

 12 11  0  0  0  0            999 V2000
    3.0088   -8.6625    0.0000 C   0  0  0  0  0  0  0  0  0  0  0  0
    3.7232   -8.2500    0.0000 C   0  0  0  0  0  0  0  0  0  0  0  0
    4.4377   -8.6625    0.0000 C   0  0  2  0  0  0  0  0  0  0  0  0
    5.1522   -8.2500    0.0000 C   0  0  0  0  0  0  0  0  0  0  0  0
    4.4377   -9.4875    0.0000 O   0  0  0  0  0  0  0  0  0  0  0  0
    5.8667   -7.8375    0.0000 C   0  0  0  0  0  0  0  0  0  0  0  0
    6.5811   -7.4250    0.0000 C   0  0  0  0  0  0  0  0  0  0  0  0
    7.2956   -7.0125    0.0000 C   0  0  0  0  0  0  0  0  0  0  0  0
    8.0101   -6.6000    0.0000 C   0  0  0  0  0  0  0  0  0  0  0  0
    8.7245   -7.0125    0.0000 C   0  0  0  0  0  0  0  0  0  0  0  0
    9.4390   -6.6000    0.0000 C   0  0  0  0  0  0  0  0  0  0  0  0
   10.1535   -7.0125    0.0000 O   0  0  0  0  0  0  0  0  0  0  0  0
  1  2  2  0  0  0  0
  2  3  1  0  0  0  0
  3  4  1  0  0  0  0
  3  5  1  6  0  0  0
  4  6  3  0  0  0  0
  6  7  1  0  0  0  0
  7  8  3  0  0  0  0
  8  9  1  0  0  0  0
  9 10  1  0  0  0  0
 10 11  1  0  0  0  0
 11 12  1  0  0  0  0
M  END
>  <cdx:fragmentId>
3

$$$$
