94670.cdx
  Mrv1902 05222410272D          

 15 16  0  0  0  0            999 V2000
    4.3431   -7.5213    0.0000 C   0  0  0  0  0  0  0  0  0  0  0  0
    4.3431   -8.3462    0.0000 C   0  0  0  0  0  0  0  0  0  0  0  0
    5.0575   -8.7588    0.0000 C   0  0  0  0  0  0  0  0  0  0  0  0
    5.7720   -8.3462    0.0000 C   0  0  0  0  0  0  0  0  0  0  0  0
    5.7720   -7.5213    0.0000 C   0  0  0  0  0  0  0  0  0  0  0  0
    5.0575   -7.1088    0.0000 C   0  0  0  0  0  0  0  0  0  0  0  0
    6.4865   -7.1087    0.0000 C   0  0  0  0  0  0  0  0  0  0  0  0
    7.2009   -7.5212    0.0000 C   0  0  0  0  0  0  0  0  0  0  0  0
    7.9154   -7.1087    0.0000 S   0  0  0  0  0  0  0  0  0  0  0  0
    8.6299   -7.5212    0.0000 C   0  0  0  0  0  0  0  0  0  0  0  0
    7.2009   -8.3462    0.0000 C   0  0  0  0  0  0  0  0  0  0  0  0
    8.6299   -8.3462    0.0000 C   0  0  0  0  0  0  0  0  0  0  0  0
    9.3444   -7.1087    0.0000 C   0  0  0  0  0  0  0  0  0  0  0  0
   10.0588   -7.5212    0.0000 O   0  0  0  0  0  0  0  0  0  0  0  0
    9.3444   -6.2837    0.0000 O   0  0  0  0  0  0  0  0  0  0  0  0
  1  2  2  0  0  0  0
  2  3  1  0  0  0  0
  3  4  2  0  0  0  0
  4  5  1  0  0  0  0
  5  6  2  0  0  0  0
  6  1  1  0  0  0  0
  5  7  1  0  0  0  0
  7  8  1  0  0  0  0
  8  9  1  0  0  0  0
  9 10  1  0  0  0  0
  8 11  2  0  0  0  0
 10 12  2  0  0  0  0
 11 12  1  0  0  0  0
 10 13  1  0  0  0  0
 13 14  1  0  0  0  0
 13 15  2  0  0  0  0
M  END
>  <cdx:fragmentId>
5

$$$$
