94675.cdx
  Mrv1902 05222410272D          

 22 23  0  0  0  0            999 V2000
    7.5529   -9.2322    0.0000 C   0  0  0  0  0  0  0  0  0  0  0  0
    8.2674   -8.8197    0.0000 C   0  0  0  0  0  0  0  0  0  0  0  0
    8.2674   -7.9947    0.0000 C   0  0  0  0  0  0  0  0  0  0  0  0
    8.9818   -7.5822    0.0000 C   0  0  0  0  0  0  0  0  0  0  0  0
    9.6963   -7.9947    0.0000 C   0  0  0  0  0  0  0  0  0  0  0  0
    9.6963   -8.8197    0.0000 C   0  0  0  0  0  0  0  0  0  0  0  0
    8.9818   -9.2322    0.0000 C   0  0  0  0  0  0  0  0  0  0  0  0
    6.8384   -8.8197    0.0000 C   0  0  0  0  0  0  0  0  0  0  0  0
    6.1239   -9.2322    0.0000 C   0  0  0  0  0  0  0  0  0  0  0  0
    5.4095   -8.8197    0.0000 C   0  0  0  0  0  0  0  0  0  0  0  0
    4.6950   -9.2322    0.0000 C   0  0  0  0  0  0  0  0  0  0  0  0
    4.6950  -10.0572    0.0000 C   0  0  0  0  0  0  0  0  0  0  0  0
    5.4095  -10.4697    0.0000 C   0  0  0  0  0  0  0  0  0  0  0  0
    6.1239  -10.0572    0.0000 C   0  0  0  0  0  0  0  0  0  0  0  0
    3.9805   -8.8197    0.0000 O   0  0  0  0  0  0  0  0  0  0  0  0
    3.2661   -9.2322    0.0000 C   0  0  0  0  0  0  0  0  0  0  0  0
   10.4108   -9.2322    0.0000 O   0  0  0  0  0  0  0  0  0  0  0  0
   11.1252   -8.8197    0.0000 C   0  0  0  0  0  0  0  0  0  0  0  0
    8.9818   -6.7572    0.0000 O   0  0  0  0  0  0  0  0  0  0  0  0
    9.6963   -6.3447    0.0000 C   0  0  0  0  0  0  0  0  0  0  0  0
    3.9805  -10.4697    0.0000 O   0  0  0  0  0  0  0  0  0  0  0  0
   10.4108   -7.5822    0.0000 O   0  0  0  0  0  0  0  0  0  0  0  0
  1  2  1  0  0  0  0
  2  3  1  0  0  0  0
  3  4  2  0  0  0  0
  4  5  1  0  0  0  0
  5  6  2  0  0  0  0
  6  7  1  0  0  0  0
  2  7  2  0  0  0  0
  8  9  1  0  0  0  0
  9 10  1  0  0  0  0
 10 11  2  0  0  0  0
 11 12  1  0  0  0  0
 12 13  2  0  0  0  0
 13 14  1  0  0  0  0
  9 14  2  0  0  0  0
  1  8  1  0  0  0  0
 15 16  1  0  0  0  0
 11 15  1  0  0  0  0
 17 18  1  0  0  0  0
  6 17  1  0  0  0  0
 19 20  1  0  0  0  0
  4 19  1  0  0  0  0
 12 21  1  0  0  0  0
  5 22  1  0  0  0  0
M  END
>  <cdx:groupId>
69

>  <cdx:fragmentId>
19

$$$$
