94674.cdx
  Mrv1902 05222410262D          

 20 21  0  0  0  0            999 V2000
    7.3267   -7.3932    0.0000 C   0  0  0  0  0  0  0  0  0  0  0  0
    6.6189   -7.8169    0.0000 C   0  0  0  0  0  0  0  0  0  0  0  0
    6.6319   -8.6418    0.0000 C   0  0  0  0  0  0  0  0  0  0  0  0
    5.9241   -9.0656    0.0000 C   0  0  0  0  0  0  0  0  0  0  0  0
    5.2032   -8.6644    0.0000 C   0  0  0  0  0  0  0  0  0  0  0  0
    5.1901   -7.8395    0.0000 C   0  0  0  0  0  0  0  0  0  0  0  0
    5.8980   -7.4158    0.0000 C   0  0  0  0  0  0  0  0  0  0  0  0
    8.0477   -7.7943    0.0000 C   0  0  0  0  0  0  0  0  0  0  0  0
    4.4692   -7.4384    0.0000 O   0  0  0  0  0  0  0  0  0  0  0  0
    3.7614   -7.8621    0.0000 C   0  0  0  0  0  0  0  0  0  0  0  0
    5.9371   -9.8904    0.0000 O   0  0  0  0  0  0  0  0  0  0  0  0
    5.2293  -10.3142    0.0000 C   0  0  0  0  0  0  0  0  0  0  0  0
    4.4953   -9.0881    0.0000 O   0  0  0  0  0  0  0  0  0  0  0  0
    9.4373   -5.2970    0.0000 O   0  0  0  0  0  0  0  0  0  0  0  0
    9.4764   -7.7717    0.0000 C   0  0  0  0  0  0  0  0  0  0  0  0
   10.1843   -7.3480    0.0000 C   0  0  0  0  0  0  0  0  0  0  0  0
   10.1712   -6.5231    0.0000 C   0  0  0  0  0  0  0  0  0  0  0  0
    9.4503   -6.1219    0.0000 C   0  0  0  0  0  0  0  0  0  0  0  0
    8.7425   -6.5457    0.0000 C   0  0  0  0  0  0  0  0  0  0  0  0
    8.7555   -7.3706    0.0000 C   0  0  0  0  0  0  0  0  0  0  0  0
 18 14  1  0  0  0  0
 20 15  2  0  0  0  0
 16 15  1  0  0  0  0
 17 16  2  0  0  0  0
 18 17  1  0  0  0  0
 19 18  2  0  0  0  0
 20 19  1  0  0  0  0
  1  2  1  0  0  0  0
  2  3  1  0  0  0  0
  3  4  2  0  0  0  0
  4  5  1  0  0  0  0
  5  6  2  0  0  0  0
  6  7  1  0  0  0  0
  2  7  2  0  0  0  0
  8 20  1  0  0  0  0
  1  8  1  0  0  0  0
  9 10  1  0  0  0  0
  6  9  1  0  0  0  0
 11 12  1  0  0  0  0
  4 11  1  0  0  0  0
  5 13  1  0  0  0  0
M  END
>  <cdx:fragmentId>
19

$$$$
