94684.cdx
  Mrv1902 05222410202D          

 24 25  0  0  0  0            999 V2000
    3.4768   -7.0400    0.0000 C   0  0  0  0  0  0  0  0  0  0  0  0
    3.4768   -7.8650    0.0000 C   0  0  0  0  0  0  0  0  0  0  0  0
    4.1913   -8.2775    0.0000 C   0  0  0  0  0  0  0  0  0  0  0  0
    4.9057   -7.8650    0.0000 C   0  0  0  0  0  0  0  0  0  0  0  0
    4.9057   -7.0400    0.0000 C   0  0  0  0  0  0  0  0  0  0  0  0
    4.1913   -6.6275    0.0000 C   0  0  0  0  0  0  0  0  0  0  0  0
    2.7623   -8.2775    0.0000 O   0  0  0  0  0  0  0  0  0  0  0  0
    4.1913   -9.1025    0.0000 O   0  0  0  0  0  0  0  0  0  0  0  0
    3.4768   -9.5150    0.0000 C   0  0  0  0  0  0  0  0  0  0  0  0
    5.6202   -6.6275    0.0000 C   0  0  0  0  0  0  0  0  0  0  0  0
    6.3347   -7.0400    0.0000 C   0  0  0  0  0  0  0  0  0  0  0  0
    7.0492   -6.6275    0.0000 C   0  0  0  0  0  0  0  0  0  0  0  0
    7.7636   -7.0400    0.0000 O   0  0  0  0  0  0  0  0  0  0  0  0
    7.0492   -5.8025    0.0000 O   0  0  0  0  0  0  0  0  0  0  0  0
    8.4781   -6.6275    0.0000 C   0  0  0  0  0  0  0  0  0  0  0  0
    9.1926   -7.0400    0.0000 C   0  0  0  0  0  0  0  0  0  0  0  0
    9.9070   -6.6275    0.0000 C   0  0  0  0  0  0  0  0  0  0  0  0
   10.6215   -7.0400    0.0000 C   0  0  0  0  0  0  0  0  0  0  0  0
   11.3360   -6.6275    0.0000 C   0  0  0  0  0  0  0  0  0  0  0  0
   11.3360   -5.8025    0.0000 C   0  0  0  0  0  0  0  0  0  0  0  0
   10.6215   -5.3900    0.0000 C   0  0  0  0  0  0  0  0  0  0  0  0
    9.9070   -5.8025    0.0000 C   0  0  0  0  0  0  0  0  0  0  0  0
   12.0505   -5.3900    0.0000 O   0  0  0  0  0  0  0  0  0  0  0  0
   12.7649   -5.8025    0.0000 C   0  0  0  0  0  0  0  0  0  0  0  0
  1  2  2  0  0  0  0
  2  3  1  0  0  0  0
  3  4  2  0  0  0  0
  4  5  1  0  0  0  0
  5  6  2  0  0  0  0
  6  1  1  0  0  0  0
  2  7  1  0  0  0  0
  3  8  1  0  0  0  0
  8  9  1  0  0  0  0
  5 10  1  0  0  0  0
 10 11  2  0  0  0  0
 11 12  1  0  0  0  0
 12 13  1  0  0  0  0
 12 14  2  0  0  0  0
 13 15  1  0  0  0  0
 15 16  1  0  0  0  0
 16 17  1  0  0  0  0
 17 18  2  0  0  0  0
 18 19  1  0  0  0  0
 19 20  2  0  0  0  0
 20 21  1  0  0  0  0
 21 22  2  0  0  0  0
 22 17  1  0  0  0  0
 20 23  1  0  0  0  0
 23 24  1  0  0  0  0
M  END
>  <cdx:fragmentId>
5

$$$$
