94682.cdx
  Mrv1902 05222410182D          

 18 19  0  0  0  0            999 V2000
    3.9443   -8.0987    0.0000 C   0  0  0  0  0  0  0  0  0  0  0  0
    3.9443   -8.9238    0.0000 C   0  0  0  0  0  0  0  0  0  0  0  0
    4.6588   -9.3362    0.0000 C   0  0  0  0  0  0  0  0  0  0  0  0
    5.3732   -8.9238    0.0000 C   0  0  0  0  0  0  0  0  0  0  0  0
    5.3732   -8.0987    0.0000 C   0  0  0  0  0  0  0  0  0  0  0  0
    4.6588   -7.6863    0.0000 C   0  0  0  0  0  0  0  0  0  0  0  0
    6.0877   -7.6863    0.0000 C   0  0  0  0  0  0  0  0  0  0  0  0
    6.8022   -8.0987    0.0000 N   0  0  0  0  0  0  0  0  0  0  0  0
    6.0877   -6.8613    0.0000 N   0  0  0  0  0  0  0  0  0  0  0  0
    7.5167   -7.6863    0.0000 C   0  0  0  0  0  0  0  0  0  0  0  0
    8.2311   -8.0987    0.0000 C   0  0  0  0  0  0  0  0  0  0  0  0
    7.5167   -6.8613    0.0000 O   0  0  0  0  0  0  0  0  0  0  0  0
    8.9456   -7.6863    0.0000 C   0  0  0  0  0  0  0  0  0  0  0  0
    9.6601   -8.0987    0.0000 C   0  0  0  0  0  0  0  0  0  0  0  0
   10.3745   -7.6863    0.0000 C   0  0  0  0  0  0  0  0  0  0  0  0
   10.3745   -6.8613    0.0000 C   0  0  0  0  0  0  0  0  0  0  0  0
    9.6601   -6.4487    0.0000 C   0  0  0  0  0  0  0  0  0  0  0  0
    8.9456   -6.8613    0.0000 C   0  0  0  0  0  0  0  0  0  0  0  0
  1  2  2  0  0  0  0
  2  3  1  0  0  0  0
  3  4  2  0  0  0  0
  4  5  1  0  0  0  0
  5  6  2  0  0  0  0
  6  1  1  0  0  0  0
  5  7  1  0  0  0  0
  7  8  1  0  0  0  0
  7  9  1  0  0  0  0
  8 10  1  0  0  0  0
 10 11  1  0  0  0  0
 10 12  2  0  0  0  0
 11 13  1  0  0  0  0
 13 14  2  0  0  0  0
 14 15  1  0  0  0  0
 15 16  2  0  0  0  0
 16 17  1  0  0  0  0
 17 18  2  0  0  0  0
 18 13  1  0  0  0  0
M  END
>  <cdx:fragmentId>
5

$$$$
