94689.cdx
  Mrv1902 05222410262D          

 23 25  0  0  0  0            999 V2000
    4.3293   -7.4525    0.0000 C   0  0  0  0  0  0  0  0  0  0  0  0
    4.3293   -8.2775    0.0000 C   0  0  0  0  0  0  0  0  0  0  0  0
    5.0438   -8.6900    0.0000 C   0  0  2  0  0  0  0  0  0  0  0  0
    5.7582   -8.2775    0.0000 C   0  0  0  0  0  0  0  0  0  0  0  0
    5.7582   -7.4525    0.0000 C   0  0  2  0  0  0  0  0  0  0  0  0
    5.0438   -7.0400    0.0000 C   0  0  0  0  0  0  0  0  0  0  0  0
    6.4727   -8.6900    0.0000 C   0  0  0  0  0  0  0  0  0  0  0  0
    7.1872   -8.2775    0.0000 C   0  0  0  0  0  0  0  0  0  0  0  0
    7.1872   -7.4525    0.0000 C   0  0  1  0  0  0  0  0  0  0  0  0
    6.4727   -7.0400    0.0000 C   0  0  2  0  0  0  0  0  0  0  0  0
    4.6313   -9.4045    0.0000 C   0  0  0  0  0  0  0  0  0  0  0  0
    5.4563   -9.4045    0.0000 C   0  0  0  0  0  0  0  0  0  0  0  0
    5.7582   -6.6275    0.0000 C   0  0  0  0  0  0  0  0  0  0  0  0
    6.0602   -6.3255    0.0000 C   0  0  0  0  0  0  0  0  0  0  0  0
    8.0122   -7.4525    0.0000 O   0  0  0  0  0  0  0  0  0  0  0  0
    7.5997   -6.7380    0.0000 C   0  0  0  0  0  0  0  0  0  0  0  0
    6.4727   -5.6111    0.0000 C   0  0  0  0  0  0  0  0  0  0  0  0
    7.2977   -5.6111    0.0000 C   0  0  0  0  0  0  0  0  0  0  0  0
    7.7102   -4.8966    0.0000 C   0  0  0  0  0  0  0  0  0  0  0  0
    7.7102   -6.3255    0.0000 C   0  0  0  0  0  0  0  0  0  0  0  0
    8.5352   -6.3255    0.0000 C   0  0  0  0  0  0  0  0  0  0  0  0
    7.2977   -4.1821    0.0000 O   0  0  0  0  0  0  0  0  0  0  0  0
    8.9477   -5.6111    0.0000 O   0  0  0  0  0  0  0  0  0  0  0  0
  1  2  1  0  0  0  0
  2  3  1  0  0  0  0
  3  4  1  0  0  0  0
  4  5  1  0  0  0  0
  5  6  1  0  0  0  0
  6  1  1  0  0  0  0
  4  7  1  0  0  0  0
  7  8  1  0  0  0  0
  8  9  1  0  0  0  0
  9 10  1  0  0  0  0
 10  5  1  0  0  0  0
  3 11  1  6  0  0  0
  3 12  1  1  0  0  0
  5 13  1  1  0  0  0
 10 14  1  1  0  0  0
  9 15  1  1  0  0  0
  9 16  1  6  0  0  0
 16 15  1  0  0  0  0
 14 17  1  0  0  0  0
 17 18  2  0  0  0  0
 18 19  1  0  0  0  0
 18 20  1  0  0  0  0
 20 21  1  0  0  0  0
 19 22  2  0  0  0  0
 21 23  2  0  0  0  0
M  END
>  <cdx:fragmentId>
5

$$$$
