94683.cdx
  Mrv1902 05222410192D          

 33 35  0  0  0  0            999 V2000
    6.3317  -11.1161    0.0000 C   0  0  0  0  0  0  0  0  0  0  0  0
    5.6172  -10.7036    0.0000 C   0  0  0  0  0  0  0  0  0  0  0  0
    8.4751   -9.8786    0.0000 O   0  0  0  0  0  0  0  0  0  0  0  0
   11.3330   -9.8786    0.0000 O   0  0  0  0  0  0  0  0  0  0  0  0
    9.9040   -8.2286    0.0000 C   0  0  0  0  0  0  0  0  0  0  0  0
   10.6185   -8.6411    0.0000 C   0  0  0  0  0  0  0  0  0  0  0  0
   10.6185   -9.4661    0.0000 C   0  0  0  0  0  0  0  0  0  0  0  0
    9.9040   -9.8786    0.0000 C   0  0  0  0  0  0  0  0  0  0  0  0
    9.1896   -9.4661    0.0000 C   0  0  0  0  0  0  0  0  0  0  0  0
    9.1896   -8.6411    0.0000 C   0  0  0  0  0  0  0  0  0  0  0  0
    4.9028   -8.6411    0.0000 O   0  0  0  0  0  0  0  0  0  0  0  0
    5.6172   -5.7536    0.0000 C   0  0  0  0  0  0  0  0  0  0  0  0
    6.3317   -6.1661    0.0000 O   0  0  0  0  0  0  0  0  0  0  0  0
    2.7593   -9.8786    0.0000 C   0  0  0  0  0  0  0  0  0  0  0  0
    4.9028  -11.1161    0.0000 C   0  0  0  0  0  0  0  0  0  0  0  0
    3.4738   -8.6411    0.0000 C   0  0  0  0  0  0  0  0  0  0  0  0
    3.4738   -9.4661    0.0000 C   0  0  0  0  0  0  0  0  0  0  0  0
    4.1883   -9.8786    0.0000 C   0  0  0  0  0  0  0  0  0  0  0  0
    4.9028   -9.4661    0.0000 C   0  0  0  0  0  0  0  0  0  0  0  0
    5.6172   -9.8786    0.0000 C   0  0  0  0  0  0  0  0  0  0  0  0
    6.3317   -9.4661    0.0000 C   0  0  0  0  0  0  0  0  0  0  0  0
    7.7606   -6.1661    0.0000 O   0  0  0  0  0  0  0  0  0  0  0  0
    7.7606   -8.6411    0.0000 O   0  0  0  0  0  0  0  0  0  0  0  0
    7.0462   -8.2286    0.0000 C   0  0  0  0  0  0  0  0  0  0  0  0
    6.3317   -8.6411    0.0000 C   0  0  0  0  0  0  0  0  0  0  0  0
    5.6172   -8.2286    0.0000 C   0  0  0  0  0  0  0  0  0  0  0  0
    5.6172   -7.4036    0.0000 C   0  0  0  0  0  0  0  0  0  0  0  0
    6.3317   -6.9911    0.0000 C   0  0  0  0  0  0  0  0  0  0  0  0
    7.0462   -7.4036    0.0000 C   0  0  0  0  0  0  0  0  0  0  0  0
    7.7606   -6.9911    0.0000 C   0  0  0  0  0  0  0  0  0  0  0  0
    8.4751   -7.4036    0.0000 C   0  0  0  0  0  0  0  0  0  0  0  0
    8.4751   -8.2286    0.0000 C   0  0  1  0  0  0  0  0  0  0  0  0
    8.4751   -9.0536    0.0000 H   0  0  0  0  0  0  0  0  0  0  0  0
 32 10  1  0  0  0  0
  9  3  1  0  0  0  0
  7  4  1  0  0  0  0
 10  5  2  0  0  0  0
  6  5  1  0  0  0  0
  7  6  2  0  0  0  0
  8  7  1  0  0  0  0
  9  8  2  0  0  0  0
 10  9  1  0  0  0  0
 26 11  1  0  0  0  0
 28 13  1  0  0  0  0
 13 12  1  0  0  0  0
 25 21  1  0  0  0  0
 17 14  1  0  0  0  0
 20  2  1  0  0  0  0
 17 16  1  0  0  0  0
 18 17  2  0  0  0  0
 19 18  1  0  0  0  0
 20 19  1  0  0  0  0
 21 20  1  0  0  0  0
 30 22  2  0  0  0  0
 32 23  1  0  0  0  0
 24 23  1  0  0  0  0
 29 24  2  0  0  0  0
 25 24  1  0  0  0  0
 26 25  2  0  0  0  0
 27 26  1  0  0  0  0
 28 27  2  0  0  0  0
 29 28  1  0  0  0  0
 30 29  1  0  0  0  0
 31 30  1  0  0  0  0
 32 31  1  0  0  0  0
  1  2  2  0  0  0  0
  2 15  1  0  0  0  0
 32 33  1  6  0  0  0
M  END
>  <cdx:fragmentId>
5

$$$$
