94686.cdx
  Mrv1902 05222410192D          

 26 28  0  0  0  0            999 V2000
    5.4568   -9.3500    0.0000 C   0  0  0  0  0  0  0  0  0  0  0  0
    5.4568  -10.1750    0.0000 C   0  0  0  0  0  0  0  0  0  0  0  0
    6.1713  -10.5875    0.0000 C   0  0  0  0  0  0  0  0  0  0  0  0
    6.8857  -10.1750    0.0000 C   0  0  0  0  0  0  0  0  0  0  0  0
    6.8857   -9.3500    0.0000 C   0  0  0  0  0  0  0  0  0  0  0  0
    6.1713   -8.9375    0.0000 C   0  0  0  0  0  0  0  0  0  0  0  0
    4.6722   -9.0951    0.0000 C   0  0  0  0  0  0  0  0  0  0  0  0
    4.1873   -9.7625    0.0000 C   0  0  0  0  0  0  0  0  0  0  0  0
    4.6722  -10.4299    0.0000 O   0  0  0  0  0  0  0  0  0  0  0  0
    7.6002  -10.5875    0.0000 O   0  0  0  0  0  0  0  0  0  0  0  0
    8.3147  -10.1750    0.0000 C   0  0  0  0  0  0  0  0  0  0  0  0
    8.3147   -9.3500    0.0000 C   0  0  0  0  0  0  0  0  0  0  0  0
    7.6002   -8.9375    0.0000 C   0  0  0  0  0  0  0  0  0  0  0  0
    6.1713   -8.1125    0.0000 O   0  0  0  0  0  0  0  0  0  0  0  0
    9.0292  -10.5875    0.0000 O   0  0  0  0  0  0  0  0  0  0  0  0
    6.8857   -7.7000    0.0000 C   0  0  0  0  0  0  0  0  0  0  0  0
    6.8857   -6.8750    0.0000 C   0  0  0  0  0  0  0  0  0  0  0  0
    7.6002   -6.4625    0.0000 C   0  0  0  0  0  0  0  0  0  0  0  0
    7.6002   -5.6375    0.0000 C   0  0  0  0  0  0  0  0  0  0  0  0
    8.3147   -6.8750    0.0000 C   0  0  0  0  0  0  0  0  0  0  0  0
    8.3147   -5.2250    0.0000 C   0  0  0  0  0  0  0  0  0  0  0  0
    8.3147   -4.4000    0.0000 C   0  0  0  0  0  0  0  0  0  0  0  0
    9.0292   -5.6375    0.0000 O   0  0  0  0  0  0  0  0  0  0  0  0
    9.0292   -3.9875    0.0000 C   0  0  0  0  0  0  0  0  0  0  0  0
    9.0292   -3.1625    0.0000 C   0  0  0  0  0  0  0  0  0  0  0  0
    9.7436   -4.4000    0.0000 C   0  0  0  0  0  0  0  0  0  0  0  0
  1  2  2  0  0  0  0
  2  3  1  0  0  0  0
  3  4  2  0  0  0  0
  4  5  1  0  0  0  0
  5  6  2  0  0  0  0
  6  1  1  0  0  0  0
  1  7  1  0  0  0  0
  7  8  2  0  0  0  0
  8  9  1  0  0  0  0
  9  2  1  0  0  0  0
  4 10  1  0  0  0  0
 10 11  1  0  0  0  0
 11 12  1  0  0  0  0
 12 13  2  0  0  0  0
 13  5  1  0  0  0  0
  6 14  1  0  0  0  0
 11 15  2  0  0  0  0
 14 16  1  0  0  0  0
 16 17  1  0  0  0  0
 17 18  2  0  0  0  0
 18 19  1  0  0  0  0
 18 20  1  0  0  0  0
 19 21  1  0  0  0  0
 21 22  1  0  0  0  0
 21 23  2  0  0  0  0
 22 24  2  0  0  0  0
 24 25  1  0  0  0  0
 24 26  1  0  0  0  0
M  END
>  <cdx:fragmentId>
5

$$$$
