94685.cdx
  Mrv1902 05222410202D          

 21 21  0  0  0  0            999 V2000
    2.8581   -8.0162    0.0000 C   0  0  0  0  0  0  0  0  0  0  0  0
    2.8581   -8.8413    0.0000 C   0  0  0  0  0  0  0  0  0  0  0  0
    3.5725   -9.2538    0.0000 C   0  0  0  0  0  0  0  0  0  0  0  0
    4.2870   -8.8413    0.0000 C   0  0  0  0  0  0  0  0  0  0  0  0
    4.2870   -8.0162    0.0000 C   0  0  0  0  0  0  0  0  0  0  0  0
    3.5725   -7.6037    0.0000 C   0  0  0  0  0  0  0  0  0  0  0  0
    2.1436   -9.2538    0.0000 O   0  0  0  0  0  0  0  0  0  0  0  0
    3.5725  -10.0787    0.0000 O   0  0  0  0  0  0  0  0  0  0  0  0
    2.8581  -10.4912    0.0000 C   0  0  0  0  0  0  0  0  0  0  0  0
    5.0015   -7.6037    0.0000 C   0  0  0  0  0  0  0  0  0  0  0  0
    5.7159   -8.0162    0.0000 C   0  0  0  0  0  0  0  0  0  0  0  0
    6.4304   -7.6037    0.0000 C   0  0  0  0  0  0  0  0  0  0  0  0
    7.1449   -8.0162    0.0000 O   0  0  0  0  0  0  0  0  0  0  0  0
    6.4304   -6.7788    0.0000 O   0  0  0  0  0  0  0  0  0  0  0  0
    7.8594   -7.6037    0.0000 C   0  0  0  0  0  0  0  0  0  0  0  0
    8.5738   -8.0162    0.0000 C   0  0  0  0  0  0  0  0  0  0  0  0
    9.2883   -7.6037    0.0000 C   0  0  0  0  0  0  0  0  0  0  0  0
   10.0028   -8.0162    0.0000 C   0  0  0  0  0  0  0  0  0  0  0  0
   10.7172   -7.6037    0.0000 C   0  0  0  0  0  0  0  0  0  0  0  0
   10.0028   -8.8413    0.0000 C   0  0  0  0  0  0  0  0  0  0  0  0
   11.4317   -8.0162    0.0000 C   0  0  0  0  0  0  0  0  0  0  0  0
  1  2  2  0  0  0  0
  2  3  1  0  0  0  0
  3  4  2  0  0  0  0
  4  5  1  0  0  0  0
  5  6  2  0  0  0  0
  6  1  1  0  0  0  0
  2  7  1  0  0  0  0
  3  8  1  0  0  0  0
  8  9  1  0  0  0  0
  5 10  1  0  0  0  0
 10 11  2  0  0  0  0
 11 12  1  0  0  0  0
 12 13  1  0  0  0  0
 12 14  2  0  0  0  0
 13 15  1  0  0  0  0
 15 16  1  0  0  0  0
 16 17  1  0  0  0  0
 17 18  2  0  0  0  0
 18 19  1  0  0  0  0
 18 20  1  0  0  0  0
 19 21  1  0  0  0  0
M  END
>  <cdx:fragmentId>
5

$$$$
