94681.cdx
  Mrv1902 05222410182D          

 22 23  0  0  0  0            999 V2000
    6.1168   -7.6037    0.0000 C   0  0  2  0  0  0  0  0  0  0  0  0
    6.1168   -8.4288    0.0000 C   0  0  2  0  0  0  0  0  0  0  0  0
    6.8313   -8.8413    0.0000 C   0  0  1  0  0  0  0  0  0  0  0  0
    7.5457   -8.4288    0.0000 C   0  0  2  0  0  0  0  0  0  0  0  0
    7.5457   -7.6037    0.0000 C   0  0  1  0  0  0  0  0  0  0  0  0
    6.8313   -7.1913    0.0000 O   0  0  0  0  0  0  0  0  0  0  0  0
    5.4023   -7.1913    0.0000 C   0  0  0  0  0  0  0  0  0  0  0  0
    6.8313   -9.6662    0.0000 O   0  0  0  0  0  0  0  0  0  0  0  0
    5.4023   -8.8413    0.0000 O   0  0  0  0  0  0  0  0  0  0  0  0
    8.2602   -8.8413    0.0000 O   0  0  0  0  0  0  0  0  0  0  0  0
    4.6879   -7.6037    0.0000 O   0  0  0  0  0  0  0  0  0  0  0  0
    9.6892   -4.7162    0.0000 C   0  0  0  0  0  0  0  0  0  0  0  0
    9.6892   -3.8912    0.0000 C   0  0  0  0  0  0  0  0  0  0  0  0
    8.9747   -3.4787    0.0000 C   0  0  0  0  0  0  0  0  0  0  0  0
    8.2602   -3.8912    0.0000 C   0  0  0  0  0  0  0  0  0  0  0  0
    8.2602   -4.7162    0.0000 C   0  0  0  0  0  0  0  0  0  0  0  0
    8.9747   -5.1287    0.0000 C   0  0  0  0  0  0  0  0  0  0  0  0
    6.8313   -6.3662    0.0000 O   0  0  0  0  0  0  0  0  0  0  0  0
    7.5457   -5.9538    0.0000 N   0  0  0  0  0  0  0  0  0  0  0  0
    8.9747   -5.9537    0.0000 C   0  0  0  0  0  0  0  0  0  0  0  0
    8.2602   -6.3662    0.0000 C   0  0  0  0  0  0  0  0  0  0  0  0
    8.2602   -7.1912    0.0000 S   0  0  0  0  0  0  0  0  0  0  0  0
  1  2  1  0  0  0  0
  2  3  1  0  0  0  0
  3  4  1  0  0  0  0
  4  5  1  0  0  0  0
  5  6  1  0  0  0  0
  6  1  1  0  0  0  0
 12 17  1  0  0  0  0
  5 22  1  1  0  0  0
  1  7  1  1  0  0  0
  3  8  1  1  0  0  0
  2  9  1  6  0  0  0
  4 10  1  6  0  0  0
  7 11  1  0  0  0  0
 13 12  2  0  0  0  0
 14 13  1  0  0  0  0
 15 14  2  0  0  0  0
 16 15  1  0  0  0  0
 17 16  2  0  0  0  0
 20 17  1  0  0  0  0
 19 18  1  0  0  0  0
 21 19  2  0  0  0  0
 21 20  1  0  0  0  0
 22 21  1  0  0  0  0
M  END
>  <cdx:fragmentId>
5

$$$$
