94692.cdx
  Mrv1902 05222410192D          

 21 20  0  0  0  0            999 V2000
   13.8480   -7.0950    0.0000 C   0  0  0  0  0  0  0  0  0  0  0  0
   13.1335   -7.5075    0.0000 C   0  0  0  0  0  0  0  0  0  0  0  0
   12.4191   -7.0950    0.0000 C   0  0  0  0  0  0  0  0  0  0  0  0
   11.7046   -7.5075    0.0000 C   0  0  0  0  0  0  0  0  0  0  0  0
   10.9901   -7.0950    0.0000 C   0  0  0  0  0  0  0  0  0  0  0  0
   10.2756   -7.5075    0.0000 C   0  0  0  0  0  0  0  0  0  0  0  0
    9.5612   -7.0950    0.0000 C   0  0  0  0  0  0  0  0  0  0  0  0
    8.8467   -7.5075    0.0000 C   0  0  0  0  0  0  0  0  0  0  0  0
    8.1322   -7.0950    0.0000 C   0  0  0  0  0  0  0  0  0  0  0  0
    7.4178   -7.5075    0.0000 C   0  0  0  0  0  0  0  0  0  0  0  0
    6.7033   -7.0950    0.0000 C   0  0  0  0  0  0  0  0  0  0  0  0
    5.9888   -7.5075    0.0000 C   0  0  0  0  0  0  0  0  0  0  0  0
    5.2744   -7.0950    0.0000 C   0  0  0  0  0  0  0  0  0  0  0  0
    4.5599   -7.5075    0.0000 C   0  0  0  0  0  0  0  0  0  0  0  0
    3.8454   -7.0950    0.0000 C   0  0  0  0  0  0  0  0  0  0  0  0
    3.1309   -7.5075    0.0000 C   0  0  0  0  0  0  0  0  0  0  0  0
    2.4165   -7.0950    0.0000 C   0  0  0  0  0  0  0  0  0  0  0  0
    1.7020   -7.5075    0.0000 C   0  0  0  0  0  0  0  0  0  0  0  0
    0.9875   -7.0950    0.0000 O   0  0  0  0  0  0  0  0  0  0  0  0
    1.7020   -8.3325    0.0000 O   0  0  0  0  0  0  0  0  0  0  0  0
    7.4178   -8.3325    0.0000 O   0  0  0  0  0  0  0  0  0  0  0  0
  1  2  1  0  0  0  0
  2  3  1  0  0  0  0
  3  4  1  0  0  0  0
  4  5  1  0  0  0  0
  5  6  1  0  0  0  0
  6  7  2  0  0  0  0
  7  8  1  0  0  0  0
  8  9  2  0  0  0  0
  9 10  1  0  0  0  0
 10 11  1  0  0  0  0
 11 12  1  0  0  0  0
 12 13  1  0  0  0  0
 13 14  1  0  0  0  0
 14 15  1  0  0  0  0
 15 16  1  0  0  0  0
 16 17  1  0  0  0  0
 17 18  1  0  0  0  0
 18 19  1  0  0  0  0
 18 20  2  0  0  0  0
 10 21  2  0  0  0  0
M  END
>  <cdx:fragmentId>
3

$$$$
