94691.cdx
  Mrv1902 05222410202D          

 19 21  0  0  0  0            999 V2000
    5.7247   -7.8139    0.0000 C   0  0  0  0  0  0  0  0  0  0  0  0
    5.7159   -8.6389    0.0000 C   0  0  0  0  0  0  0  0  0  0  0  0
    6.4258   -9.0590    0.0000 C   0  0  0  0  0  0  0  0  0  0  0  0
    7.1447   -8.6543    0.0000 C   0  0  0  0  0  0  0  0  0  0  0  0
    7.1536   -7.8293    0.0000 C   0  0  0  0  0  0  0  0  0  0  0  0
    6.4436   -7.4091    0.0000 C   0  0  0  0  0  0  0  0  0  0  0  0
    7.8547   -9.0744    0.0000 C   0  0  0  0  0  0  0  0  0  0  0  0
    8.5736   -8.6696    0.0000 O   0  0  0  0  0  0  0  0  0  0  0  0
    8.5825   -7.8447    0.0000 C   0  0  0  0  0  0  0  0  0  0  0  0
    7.8725   -7.4245    0.0000 C   0  0  0  0  0  0  0  0  0  0  0  0
    9.3013   -7.4399    0.0000 C   0  0  0  0  0  0  0  0  0  0  0  0
    7.8458   -9.8994    0.0000 O   0  0  0  0  0  0  0  0  0  0  0  0
    5.0147   -7.3938    0.0000 O   0  0  0  0  0  0  0  0  0  0  0  0
    4.9970   -9.0437    0.0000 C   0  0  0  0  0  0  0  0  0  0  0  0
    4.2870   -8.6235    0.0000 O   0  0  0  0  0  0  0  0  0  0  0  0
    9.3964   -6.6204    0.0000 C   0  0  0  0  0  0  0  0  0  0  0  0
   10.2051   -6.4575    0.0000 N   0  0  0  0  0  0  0  0  0  0  0  0
   10.6099   -7.1764    0.0000 C   0  0  0  0  0  0  0  0  0  0  0  0
   10.0513   -7.7835    0.0000 C   0  0  0  0  0  0  0  0  0  0  0  0
  1  2  2  0  0  0  0
  2  3  1  0  0  0  0
  3  4  2  0  0  0  0
  4  5  1  0  0  0  0
  5  6  2  0  0  0  0
  6  1  1  0  0  0  0
  4  7  1  0  0  0  0
  7  8  1  0  0  0  0
  8  9  1  0  0  0  0
  9 10  2  0  0  0  0
 10  5  1  0  0  0  0
  9 11  1  0  0  0  0
  7 12  2  0  0  0  0
  1 13  1  0  0  0  0
  2 14  1  0  0  0  0
 14 15  1  0  0  0  0
 11 16  2  0  0  0  0
 16 17  1  0  0  0  0
 17 18  1  0  0  0  0
 18 19  2  0  0  0  0
 19 11  1  0  0  0  0
M  END
>  <cdx:fragmentId>
5

$$$$
