94698.cdx
  Mrv1902 05222410282D          

 27 29  0  0  0  0            999 V2000
    4.3706   -7.0400    0.0000 C   0  0  0  0  0  0  0  0  0  0  0  0
    4.3706   -7.8650    0.0000 C   0  0  0  0  0  0  0  0  0  0  0  0
    5.0850   -8.2775    0.0000 C   0  0  0  0  0  0  0  0  0  0  0  0
    5.7995   -7.8650    0.0000 C   0  0  0  0  0  0  0  0  0  0  0  0
    5.7995   -7.0400    0.0000 C   0  0  0  0  0  0  0  0  0  0  0  0
    5.0850   -6.6275    0.0000 C   0  0  0  0  0  0  0  0  0  0  0  0
    6.5140   -8.2775    0.0000 C   0  0  0  0  0  0  0  0  0  0  0  0
    7.2284   -7.8650    0.0000 C   0  0  0  0  0  0  0  0  0  0  0  0
    7.2284   -7.0400    0.0000 C   0  0  0  0  0  0  0  0  0  0  0  0
    6.5140   -6.6275    0.0000 O   0  0  0  0  0  0  0  0  0  0  0  0
    8.6574   -7.0400    0.0000 C   0  0  0  0  0  0  0  0  0  0  0  0
    7.9429   -6.6275    0.0000 C   0  0  0  0  0  0  0  0  0  0  0  0
    9.3719   -6.6275    0.0000 C   0  0  0  0  0  0  0  0  0  0  0  0
    9.3719   -5.8025    0.0000 C   0  0  0  0  0  0  0  0  0  0  0  0
    8.6574   -5.3900    0.0000 C   0  0  0  0  0  0  0  0  0  0  0  0
    7.9429   -5.8025    0.0000 C   0  0  0  0  0  0  0  0  0  0  0  0
    6.5140   -9.1025    0.0000 O   0  0  0  0  0  0  0  0  0  0  0  0
    5.0850   -9.1025    0.0000 O   0  0  0  0  0  0  0  0  0  0  0  0
    3.6561   -6.6275    0.0000 O   0  0  0  0  0  0  0  0  0  0  0  0
   10.0863   -5.3900    0.0000 O   0  0  0  0  0  0  0  0  0  0  0  0
    8.6574   -4.5650    0.0000 O   0  0  0  0  0  0  0  0  0  0  0  0
    3.6561   -5.8025    0.0000 C   0  0  0  0  0  0  0  0  0  0  0  0
    7.9429   -4.1525    0.0000 C   0  0  0  0  0  0  0  0  0  0  0  0
   10.8008   -5.8025    0.0000 C   0  0  0  0  0  0  0  0  0  0  0  0
    5.7995   -9.5150    0.0000 C   0  0  0  0  0  0  0  0  0  0  0  0
    5.0850   -5.8025    0.0000 O   0  0  0  0  0  0  0  0  0  0  0  0
    5.7995   -5.3900    0.0000 C   0  0  0  0  0  0  0  0  0  0  0  0
  1  2  2  0  0  0  0
  2  3  1  0  0  0  0
  3  4  2  0  0  0  0
  4  5  1  0  0  0  0
  5  6  2  0  0  0  0
  6  1  1  0  0  0  0
  4  7  1  0  0  0  0
  7  8  1  0  0  0  0
  8  9  2  0  0  0  0
  9 10  1  0  0  0  0
 10  5  1  0  0  0  0
 11 12  2  0  0  0  0
 12  9  1  0  0  0  0
 11 13  1  0  0  0  0
 13 14  2  0  0  0  0
 14 15  1  0  0  0  0
 15 16  2  0  0  0  0
 16 12  1  0  0  0  0
  7 17  2  0  0  0  0
  3 18  1  0  0  0  0
  1 19  1  0  0  0  0
 14 20  1  0  0  0  0
 15 21  1  0  0  0  0
 19 22  1  0  0  0  0
 21 23  1  0  0  0  0
 20 24  1  0  0  0  0
 18 25  1  0  0  0  0
  6 26  1  0  0  0  0
 26 27  1  0  0  0  0
M  END
>  <cdx:fragmentId>
5

$$$$
