94699.cdx
  Mrv1902 05222410282D          

 14 15  0  0  0  0            999 V2000
    5.3468   -6.8475    0.0000 C   0  0  0  0  0  0  0  0  0  0  0  0
    5.3468   -7.6725    0.0000 C   0  0  0  0  0  0  0  0  0  0  0  0
    6.0613   -8.0850    0.0000 C   0  0  0  0  0  0  0  0  0  0  0  0
    6.7757   -7.6725    0.0000 C   0  0  0  0  0  0  0  0  0  0  0  0
    6.7757   -6.8475    0.0000 C   0  0  0  0  0  0  0  0  0  0  0  0
    6.0613   -6.4350    0.0000 C   0  0  0  0  0  0  0  0  0  0  0  0
    7.4902   -8.0850    0.0000 C   0  0  0  0  0  0  0  0  0  0  0  0
    8.2047   -7.6725    0.0000 C   0  0  0  0  0  0  0  0  0  0  0  0
    8.2047   -6.8475    0.0000 C   0  0  0  0  0  0  0  0  0  0  0  0
    7.4902   -6.4350    0.0000 O   0  0  0  0  0  0  0  0  0  0  0  0
    8.9192   -6.4350    0.0000 O   0  0  0  0  0  0  0  0  0  0  0  0
    6.0613   -5.6100    0.0000 C   0  0  0  0  0  0  0  0  0  0  0  0
    4.6323   -8.0850    0.0000 O   0  0  0  0  0  0  0  0  0  0  0  0
    3.9179   -7.6725    0.0000 C   0  0  0  0  0  0  0  0  0  0  0  0
  1  2  2  0  0  0  0
  2  3  1  0  0  0  0
  3  4  2  0  0  0  0
  4  5  1  0  0  0  0
  5  6  2  0  0  0  0
  6  1  1  0  0  0  0
  4  7  1  0  0  0  0
  7  8  2  0  0  0  0
  8  9  1  0  0  0  0
  9 10  1  0  0  0  0
 10  5  1  0  0  0  0
  9 11  2  0  0  0  0
  6 12  1  0  0  0  0
  2 13  1  0  0  0  0
 13 14  1  0  0  0  0
M  END
>  <cdx:fragmentId>
5

$$$$
