94694.cdx
  Mrv1902 05222410182D          

 26 28  0  0  0  0            999 V2000
    7.3818   -7.4250    0.0000 C   0  0  0  0  0  0  0  0  0  0  0  0
    7.3818   -8.2500    0.0000 C   0  0  2  0  0  0  0  0  0  0  0  0
    8.0963   -8.6625    0.0000 C   0  0  0  0  0  0  0  0  0  0  0  0
    8.0963   -9.4875    0.0000 C   0  0  1  0  0  0  0  0  0  0  0  0
    8.8107   -9.9000    0.0000 O   0  0  0  0  0  0  0  0  0  0  0  0
    6.6673   -7.0125    0.0000 C   0  0  0  0  0  0  0  0  0  0  0  0
    5.9529   -7.4250    0.0000 C   0  0  0  0  0  0  0  0  0  0  0  0
    5.9529   -8.2500    0.0000 C   0  0  1  0  0  0  0  0  0  0  0  0
    6.6673   -8.6625    0.0000 C   0  0  1  0  0  0  0  0  0  0  0  0
    5.2384   -8.6625    0.0000 C   0  0  0  0  0  0  0  0  0  0  0  0
    5.2384   -7.0125    0.0000 C   0  0  0  0  0  0  0  0  0  0  0  0
    6.6673   -9.4875    0.0000 C   0  0  0  0  0  0  0  0  0  0  0  0
    7.3818   -9.9000    0.0000 C   0  0  0  0  0  0  0  0  0  0  0  0
    8.8107   -9.0750    0.0000 C   0  0  0  0  0  0  0  0  0  0  0  0
    9.5252   -8.6625    0.0000 O   0  0  0  0  0  0  0  0  0  0  0  0
    4.5239   -8.2500    0.0000 C   0  0  0  0  0  0  0  0  0  0  0  0
    3.8094   -8.6625    0.0000 C   0  0  0  0  0  0  0  0  0  0  0  0
    3.0950   -8.2500    0.0000 C   0  0  0  0  0  0  0  0  0  0  0  0
    2.4819   -8.8020    0.0000 O   0  0  0  0  0  0  0  0  0  0  0  0
    2.8174   -9.5557    0.0000 C   0  0  0  0  0  0  0  0  0  0  0  0
    3.6379   -9.4695    0.0000 C   0  0  2  0  0  0  0  0  0  0  0  0
    3.0087   -7.4295    0.0000 O   0  0  0  0  0  0  0  0  0  0  0  0
    4.1900  -10.0826    0.0000 O   0  0  0  0  0  0  0  0  0  0  0  0
    5.9529   -9.0750    0.0000 C   0  0  0  0  0  0  0  0  0  0  0  0
    6.6673   -7.8375    0.0000 H   0  0  0  0  0  0  0  0  0  0  0  0
    8.5088   -7.9480    0.0000 C   0  0  0  0  0  0  0  0  0  0  0  0
  1  2  1  0  0  0  0
  2  3  1  0  0  0  0
  3  4  1  0  0  0  0
  4  5  1  1  0  0  0
  1  6  1  0  0  0  0
  6  7  1  0  0  0  0
  7  8  1  0  0  0  0
  8  9  1  0  0  0  0
  9  2  1  0  0  0  0
  8 10  1  1  0  0  0
  7 11  2  0  0  0  0
  9 12  1  0  0  0  0
 12 13  1  0  0  0  0
 13  4  1  0  0  0  0
  3 14  1  1  0  0  0
 14 15  1  0  0  0  0
 10 16  1  0  0  0  0
 16 17  2  0  0  0  0
 17 18  1  0  0  0  0
 18 19  1  0  0  0  0
 19 20  1  0  0  0  0
 20 21  1  0  0  0  0
 21 17  1  0  0  0  0
 18 22  2  0  0  0  0
 21 23  1  1  0  0  0
  9 24  1  1  0  0  0
  2 25  1  1  0  0  0
  3 26  1  1  0  0  0
M  END
>  <cdx:fragmentId>
5

$$$$
