94690.cdx
  Mrv1902 05222410202D          

 14 15  0  0  0  0            999 V2000
    7.3053   -7.7697    0.0000 N   0  0  0  0  0  0  0  0  0  0  0  0
    9.1742   -6.6421    0.0000 O   0  0  0  0  0  0  0  0  0  0  0  0
    7.0504   -9.8892    0.0000 N   0  0  0  0  0  0  0  0  0  0  0  0
    7.5353   -9.2218    0.0000 C   0  0  0  0  0  0  0  0  0  0  0  0
    7.0504   -8.5544    0.0000 C   0  0  0  0  0  0  0  0  0  0  0  0
    6.2657   -8.8093    0.0000 C   0  0  0  0  0  0  0  0  0  0  0  0
    5.5513   -8.3968    0.0000 C   0  0  0  0  0  0  0  0  0  0  0  0
    4.8368   -8.8093    0.0000 C   0  0  0  0  0  0  0  0  0  0  0  0
    4.8368   -9.6343    0.0000 C   0  0  0  0  0  0  0  0  0  0  0  0
    5.5513  -10.0468    0.0000 C   0  0  0  0  0  0  0  0  0  0  0  0
    6.2657   -9.6343    0.0000 C   0  0  0  0  0  0  0  0  0  0  0  0
    8.6643   -8.2113    0.0000 O   0  0  0  0  0  0  0  0  0  0  0  0
    8.3672   -6.8136    0.0000 C   0  0  0  0  0  0  0  0  0  0  0  0
    8.1123   -7.5982    0.0000 C   0  0  0  0  0  0  0  0  0  0  0  0
 13  2  2  0  0  0  0
 14 12  2  0  0  0  0
 14 13  1  0  0  0  0
 14  1  1  0  0  0  0
  3  4  1  0  0  0  0
  4  5  2  0  0  0  0
  5  6  1  0  0  0  0
  6  7  1  0  0  0  0
  7  8  2  0  0  0  0
  8  9  1  0  0  0  0
  9 10  2  0  0  0  0
 10 11  1  0  0  0  0
  3 11  1  0  0  0  0
  6 11  2  0  0  0  0
  1  5  1  0  0  0  0
M  END
>  <cdx:groupId>
45

>  <cdx:fragmentId>
15

$$$$
