94695.cdx
  Mrv1902 05222410182D          

 38 42  0  0  0  0            999 V2000
    3.8618   -9.1162    0.0000 C   0  0  0  0  0  0  0  0  0  0  0  0
    3.8618   -9.9413    0.0000 C   0  0  1  0  0  0  0  0  0  0  0  0
    4.5763  -10.3537    0.0000 C   0  0  1  0  0  0  0  0  0  0  0  0
    5.2907   -9.9413    0.0000 C   0  0  1  0  0  0  0  0  0  0  0  0
    5.2907   -9.1162    0.0000 C   0  0  2  0  0  0  0  0  0  0  0  0
    4.5763   -8.7037    0.0000 C   0  0  0  0  0  0  0  0  0  0  0  0
    6.0052  -10.3537    0.0000 C   0  0  0  0  0  0  0  0  0  0  0  0
    6.7197   -9.9413    0.0000 C   0  0  0  0  0  0  0  0  0  0  0  0
    6.7197   -9.1162    0.0000 C   0  0  2  0  0  0  0  0  0  0  0  0
    6.0052   -8.7037    0.0000 C   0  0  2  0  0  0  0  0  0  0  0  0
    7.4342   -8.7037    0.0000 C   0  0  1  0  0  0  0  0  0  0  0  0
    7.4342   -7.8788    0.0000 C   0  0  0  0  0  0  0  0  0  0  0  0
    6.7197   -7.4663    0.0000 C   0  0  0  0  0  0  0  0  0  0  0  0
    6.0052   -7.8788    0.0000 C   0  0  0  0  0  0  0  0  0  0  0  0
    8.1486   -9.1162    0.0000 C   0  0  0  0  0  0  0  0  0  0  0  0
    8.8631   -8.7037    0.0000 C   0  0  0  0  0  0  0  0  0  0  0  0
    8.8631   -7.8788    0.0000 C   0  0  2  0  0  0  0  0  0  0  0  0
    8.1486   -7.4663    0.0000 C   0  0  1  0  0  0  0  0  0  0  0  0
    9.5776   -7.4663    0.0000 C   0  0  0  0  0  0  0  0  0  0  0  0
    9.5776   -6.6413    0.0000 C   0  0  0  0  0  0  0  0  0  0  0  0
    8.8631   -6.2287    0.0000 C   0  0  2  0  0  0  0  0  0  0  0  0
    8.1486   -6.6413    0.0000 C   0  0  2  0  0  0  0  0  0  0  0  0
    3.1473  -10.3537    0.0000 O   0  0  0  0  0  0  0  0  0  0  0  0
    4.1638  -11.0682    0.0000 C   0  0  0  0  0  0  0  0  0  0  0  0
    5.2907   -8.2912    0.0000 C   0  0  0  0  0  0  0  0  0  0  0  0
    6.7197   -8.2912    0.0000 C   0  0  0  0  0  0  0  0  0  0  0  0
    8.1486   -8.2912    0.0000 H   0  0  0  0  0  0  0  0  0  0  0  0
    7.7361   -5.9268    0.0000 C   0  0  0  0  0  0  0  0  0  0  0  0
    9.5776   -8.2912    0.0000 C   0  0  0  0  0  0  0  0  0  0  0  0
    5.2907  -10.7663    0.0000 H   0  0  0  0  0  0  0  0  0  0  0  0
    6.0052   -9.5287    0.0000 H   0  0  0  0  0  0  0  0  0  0  0  0
    7.4342   -9.5287    0.0000 C   0  0  0  0  0  0  0  0  0  0  0  0
    7.3236   -6.6413    0.0000 O   0  0  0  0  0  0  0  0  0  0  0  0
    8.8631   -5.4037    0.0000 C   0  0  0  0  0  0  0  0  0  0  0  0
    4.9888  -11.0682    0.0000 C   0  0  0  0  0  0  0  0  0  0  0  0
   10.2920   -7.8788    0.0000 O   0  0  0  0  0  0  0  0  0  0  0  0
    9.5776   -9.1162    0.0000 O   0  0  0  0  0  0  0  0  0  0  0  0
    4.5763  -11.7827    0.0000 O   0  0  0  0  0  0  0  0  0  0  0  0
  1  2  1  0  0  0  0
  2  3  1  0  0  0  0
  3  4  1  0  0  0  0
  4  5  1  0  0  0  0
  5  6  1  0  0  0  0
  6  1  1  0  0  0  0
  4  7  1  0  0  0  0
  7  8  1  0  0  0  0
  8  9  1  0  0  0  0
  9 10  1  0  0  0  0
 10  5  1  0  0  0  0
  9 11  1  0  0  0  0
 11 12  1  0  0  0  0
 12 13  2  0  0  0  0
 13 14  1  0  0  0  0
 14 10  1  0  0  0  0
 11 15  1  0  0  0  0
 15 16  1  0  0  0  0
 16 17  1  0  0  0  0
 17 18  1  0  0  0  0
 18 12  1  0  0  0  0
 17 19  1  0  0  0  0
 19 20  1  0  0  0  0
 20 21  1  0  0  0  0
 21 22  1  0  0  0  0
 22 18  1  0  0  0  0
  2 23  1  1  0  0  0
  3 24  1  1  0  0  0
  5 25  1  1  0  0  0
  9 26  1  1  0  0  0
 18 27  1  1  0  0  0
 22 28  1  1  0  0  0
 17 29  1  1  0  0  0
  4 30  1  6  0  0  0
 10 31  1  6  0  0  0
 11 32  1  6  0  0  0
 22 33  1  6  0  0  0
 21 34  1  6  0  0  0
  3 35  1  6  0  0  0
 29 36  1  0  0  0  0
 29 37  2  0  0  0  0
 35 38  1  0  0  0  0
M  END
>  <cdx:fragmentId>
5

$$$$
