94701.cdx
  Mrv1902 05222410272D          

 18 18  0  0  0  0            999 V2000
    4.4943   -6.6825    0.0000 C   0  0  0  0  0  0  0  0  0  0  0  0
    4.4943   -7.5075    0.0000 C   0  0  0  0  0  0  0  0  0  0  0  0
    5.2088   -7.9200    0.0000 C   0  0  0  0  0  0  0  0  0  0  0  0
    5.9232   -7.5075    0.0000 C   0  0  0  0  0  0  0  0  0  0  0  0
    5.9232   -6.6825    0.0000 C   0  0  0  0  0  0  0  0  0  0  0  0
    5.2088   -6.2700    0.0000 C   0  0  0  0  0  0  0  0  0  0  0  0
    6.6377   -7.9200    0.0000 C   0  0  0  0  0  0  0  0  0  0  0  0
    7.3522   -7.5075    0.0000 C   0  0  0  0  0  0  0  0  0  0  0  0
    7.3522   -6.6825    0.0000 C   0  0  0  0  0  0  0  0  0  0  0  0
    6.6377   -6.2700    0.0000 C   0  0  0  0  0  0  0  0  0  0  0  0
    8.0667   -7.9200    0.0000 O   0  0  0  0  0  0  0  0  0  0  0  0
    8.7811   -7.5075    0.0000 C   0  0  0  0  0  0  0  0  0  0  0  0
    8.7811   -6.6825    0.0000 C   0  0  0  0  0  0  0  0  0  0  0  0
    8.0667   -6.2700    0.0000 C   0  0  0  0  0  0  0  0  0  0  0  0
    3.7097   -6.4276    0.0000 C   0  0  0  0  0  0  0  0  0  0  0  0
    3.2248   -7.0950    0.0000 C   0  0  0  0  0  0  0  0  0  0  0  0
    3.7097   -7.7624    0.0000 C   0  0  0  0  0  0  0  0  0  0  0  0
    9.4956   -7.9200    0.0000 O   0  0  0  0  0  0  0  0  0  0  0  0
  2  3  1  0  0  0  0
  3  4  1  0  0  0  0
  5  6  1  0  0  0  0
  6  1  2  0  0  0  0
  4  7  1  0  0  0  0
  7  8  1  0  0  0  0
  9 10  1  0  0  0  0
 10  5  1  0  0  0  0
  8 11  1  0  0  0  0
 11 12  1  0  0  0  0
 12 13  1  0  0  0  0
 13 14  1  0  0  0  0
 14  9  1  0  0  0  0
  1 15  1  0  0  0  0
 15 16  1  0  0  0  0
 16 17  1  0  0  0  0
 17  2  1  0  0  0  0
 12 18  2  0  0  0  0
M  END
>  <cdx:fragmentId>
5

$$$$
