94703.cdx
  Mrv1902 05222410262D          

 37 41  0  0  0  0            999 V2000
    4.4943   -8.4975    0.0000 C   0  0  0  0  0  0  0  0  0  0  0  0
    4.4943   -9.3225    0.0000 C   0  0  1  0  0  0  0  0  0  0  0  0
    5.2088   -9.7350    0.0000 C   0  0  0  0  0  0  0  0  0  0  0  0
    5.9232   -9.3225    0.0000 C   0  0  2  0  0  0  0  0  0  0  0  0
    5.9232   -8.4975    0.0000 C   0  0  2  0  0  0  0  0  0  0  0  0
    5.2088   -8.0850    0.0000 C   0  0  0  0  0  0  0  0  0  0  0  0
    6.6377   -9.7350    0.0000 C   0  0  0  0  0  0  0  0  0  0  0  0
    7.3522   -9.3225    0.0000 C   0  0  0  0  0  0  0  0  0  0  0  0
    7.3522   -8.4975    0.0000 C   0  0  2  0  0  0  0  0  0  0  0  0
    6.6377   -8.0850    0.0000 C   0  0  1  0  0  0  0  0  0  0  0  0
    8.0667   -8.0850    0.0000 C   0  0  2  0  0  0  0  0  0  0  0  0
    8.0667   -7.2600    0.0000 C   0  0  0  0  0  0  0  0  0  0  0  0
    7.3522   -6.8475    0.0000 C   0  0  0  0  0  0  0  0  0  0  0  0
    6.6377   -7.2600    0.0000 C   0  0  0  0  0  0  0  0  0  0  0  0
    8.7811   -8.4975    0.0000 C   0  0  0  0  0  0  0  0  0  0  0  0
    9.4956   -8.0850    0.0000 C   0  0  0  0  0  0  0  0  0  0  0  0
    9.4956   -7.2600    0.0000 C   0  0  2  0  0  0  0  0  0  0  0  0
    8.7811   -6.8475    0.0000 C   0  0  1  0  0  0  0  0  0  0  0  0
   10.2101   -6.8475    0.0000 C   0  0  0  0  0  0  0  0  0  0  0  0
   10.2101   -6.0225    0.0000 C   0  0  0  0  0  0  0  0  0  0  0  0
    9.4956   -5.6100    0.0000 C   0  0  0  0  0  0  0  0  0  0  0  0
    8.7811   -6.0225    0.0000 C   0  0  0  0  0  0  0  0  0  0  0  0
   10.2101   -7.6725    0.0000 C   0  0  0  0  0  0  0  0  0  0  0  0
   10.9245   -7.2600    0.0000 O   0  0  0  0  0  0  0  0  0  0  0  0
   10.2101   -8.4975    0.0000 O   0  0  0  0  0  0  0  0  0  0  0  0
    5.6213  -10.4495    0.0000 C   0  0  0  0  0  0  0  0  0  0  0  0
    5.2088  -11.1639    0.0000 O   0  0  0  0  0  0  0  0  0  0  0  0
    3.7798   -9.7350    0.0000 O   0  0  0  0  0  0  0  0  0  0  0  0
    4.7963  -10.4495    0.0000 C   0  0  0  0  0  0  0  0  0  0  0  0
    5.9232  -10.1475    0.0000 H   0  0  0  0  0  0  0  0  0  0  0  0
    5.9232   -7.6725    0.0000 C   0  0  0  0  0  0  0  0  0  0  0  0
    6.6377   -8.9100    0.0000 H   0  0  0  0  0  0  0  0  0  0  0  0
    7.3522   -7.6725    0.0000 C   0  0  0  0  0  0  0  0  0  0  0  0
    8.0667   -8.9100    0.0000 C   0  0  0  0  0  0  0  0  0  0  0  0
    8.7811   -7.6725    0.0000 H   0  0  0  0  0  0  0  0  0  0  0  0
    9.0831   -4.8955    0.0000 C   0  0  0  0  0  0  0  0  0  0  0  0
    9.9081   -4.8955    0.0000 C   0  0  0  0  0  0  0  0  0  0  0  0
  1  2  1  0  0  0  0
  2  3  1  0  0  0  0
  3  4  1  0  0  0  0
  4  5  1  0  0  0  0
  5  6  1  0  0  0  0
  6  1  1  0  0  0  0
  4  7  1  0  0  0  0
  7  8  1  0  0  0  0
  8  9  1  0  0  0  0
  9 10  1  0  0  0  0
 10  5  1  0  0  0  0
  9 11  1  0  0  0  0
 11 12  1  0  0  0  0
 12 13  2  0  0  0  0
 13 14  1  0  0  0  0
 14 10  1  0  0  0  0
 11 15  1  0  0  0  0
 15 16  1  0  0  0  0
 16 17  1  0  0  0  0
 17 18  1  0  0  0  0
 18 12  1  0  0  0  0
 17 19  1  0  0  0  0
 19 20  1  0  0  0  0
 20 21  1  0  0  0  0
 21 22  1  0  0  0  0
 22 18  1  0  0  0  0
 17 23  1  1  0  0  0
 23 24  2  0  0  0  0
 23 25  1  0  0  0  0
  3 26  1  1  0  0  0
 26 27  2  0  0  0  0
  2 28  1  1  0  0  0
  3 29  1  1  0  0  0
  4 30  1  1  0  0  0
  5 31  1  1  0  0  0
 10 32  1  1  0  0  0
  9 33  1  1  0  0  0
 11 34  1  1  0  0  0
 18 35  1  1  0  0  0
 21 36  1  1  0  0  0
 21 37  1  1  0  0  0
M  END
>  <cdx:fragmentId>
5

$$$$
