94700.cdx
  Mrv1902 05222410262D          

 19 18  0  0  0  0            999 V2000
    0.9325   -6.6688    0.0000 C   0  0  0  0  0  0  0  0  0  0  0  0
    1.6470   -6.2563    0.0000 O   0  0  0  0  0  0  0  0  0  0  0  0
    2.3615   -6.6688    0.0000 C   0  0  0  0  0  0  0  0  0  0  0  0
    3.0759   -6.2563    0.0000 C   0  0  0  0  0  0  0  0  0  0  0  0
    3.7904   -6.6688    0.0000 C   0  0  0  0  0  0  0  0  0  0  0  0
    4.5049   -6.2563    0.0000 C   0  0  0  0  0  0  0  0  0  0  0  0
    5.2194   -6.6688    0.0000 C   0  0  0  0  0  0  0  0  0  0  0  0
    5.9338   -6.2563    0.0000 C   0  0  0  0  0  0  0  0  0  0  0  0
    6.6483   -6.6688    0.0000 C   0  0  0  0  0  0  0  0  0  0  0  0
    7.3628   -6.2563    0.0000 C   0  0  0  0  0  0  0  0  0  0  0  0
    8.0772   -6.6688    0.0000 C   0  0  0  0  0  0  0  0  0  0  0  0
    8.7917   -6.2563    0.0000 C   0  0  0  0  0  0  0  0  0  0  0  0
    9.5062   -6.6688    0.0000 C   0  0  0  0  0  0  0  0  0  0  0  0
   10.2206   -6.2563    0.0000 C   0  0  0  0  0  0  0  0  0  0  0  0
   10.9351   -6.6688    0.0000 C   0  0  0  0  0  0  0  0  0  0  0  0
   11.6496   -6.2563    0.0000 C   0  0  0  0  0  0  0  0  0  0  0  0
   12.3641   -6.6688    0.0000 C   0  0  0  0  0  0  0  0  0  0  0  0
   13.0785   -6.2563    0.0000 C   0  0  0  0  0  0  0  0  0  0  0  0
    2.3615   -7.4937    0.0000 O   0  0  0  0  0  0  0  0  0  0  0  0
  1  2  1  0  0  0  0
  2  3  1  0  0  0  0
  3  4  1  0  0  0  0
  4  5  1  0  0  0  0
  5  6  1  0  0  0  0
  6  7  1  0  0  0  0
  7  8  1  0  0  0  0
  8  9  1  0  0  0  0
  9 10  2  0  0  0  0
 10 11  1  0  0  0  0
 11 12  1  0  0  0  0
 12 13  2  0  0  0  0
 13 14  1  0  0  0  0
 14 15  1  0  0  0  0
 15 16  1  0  0  0  0
 16 17  1  0  0  0  0
 17 18  1  0  0  0  0
  3 19  2  0  0  0  0
M  END
>  <cdx:fragmentId>
3

$$$$
