94702.cdx
  Mrv1902 05222410262D          

 25 26  0  0  0  0            999 V2000
    3.4345   -7.2188    0.0000 C   0  0  0  0  0  0  0  0  0  0  0  0
    3.4345   -6.3937    0.0000 C   0  0  0  0  0  0  0  0  0  0  0  0
    2.7200   -5.9813    0.0000 C   0  0  0  0  0  0  0  0  0  0  0  0
    4.8634   -7.2188    0.0000 O   0  0  0  0  0  0  0  0  0  0  0  0
    4.8634   -6.3937    0.0000 C   0  0  0  0  0  0  0  0  0  0  0  0
    4.1490   -5.9813    0.0000 C   0  0  0  0  0  0  0  0  0  0  0  0
    6.2924   -7.2188    0.0000 C   0  0  0  0  0  0  0  0  0  0  0  0
    6.2924   -6.3937    0.0000 C   0  0  1  0  0  0  0  0  0  0  0  0
    5.5779   -5.9813    0.0000 O   0  0  0  0  0  0  0  0  0  0  0  0
    7.0069   -7.6313    0.0000 C   0  0  2  0  0  0  0  0  0  0  0  0
    7.7213   -7.2188    0.0000 C   0  0  1  0  0  0  0  0  0  0  0  0
    7.7213   -6.3937    0.0000 C   0  0  2  0  0  0  0  0  0  0  0  0
    7.0069   -5.9813    0.0000 C   0  0  0  0  0  0  0  0  0  0  0  0
    9.1503   -7.2188    0.0000 C   0  0  0  0  0  0  0  0  0  0  0  0
    9.1503   -6.3937    0.0000 C   0  0  0  0  0  0  0  0  0  0  0  0
    8.4358   -5.9813    0.0000 C   0  0  0  0  0  0  0  0  0  0  0  0
    7.0069   -5.1563    0.0000 C   0  0  0  0  0  0  0  0  0  0  0  0
    7.0069   -8.4563    0.0000 C   0  0  0  0  0  0  0  0  0  0  0  0
    7.7213   -8.8688    0.0000 C   0  0  0  0  0  0  0  0  0  0  0  0
    6.2924   -8.8688    0.0000 C   0  0  0  0  0  0  0  0  0  0  0  0
    9.8647   -5.9813    0.0000 O   0  0  0  0  0  0  0  0  0  0  0  0
    9.7336   -7.8021    0.0000 C   0  0  0  0  0  0  0  0  0  0  0  0
   10.5305   -7.5886    0.0000 C   0  0  0  0  0  0  0  0  0  0  0  0
    7.7213   -5.5687    0.0000 H   0  0  0  0  0  0  0  0  0  0  0  0
    7.9348   -8.0156    0.0000 H   0  0  0  0  0  0  0  0  0  0  0  0
  1  2  1  0  0  0  0
  2  3  1  0  0  0  0
  4  5  2  0  0  0  0
  5  6  1  0  0  0  0
  6  2  2  0  0  0  0
  7  8  1  0  0  0  0
  8  9  1  1  0  0  0
  9  5  1  0  0  0  0
  7 10  1  0  0  0  0
 10 11  1  0  0  0  0
 11 12  1  0  0  0  0
 12 13  1  0  0  0  0
 13  8  1  0  0  0  0
 14 15  1  0  0  0  0
 15 16  1  0  0  0  0
 16 12  1  0  0  0  0
 13 17  2  0  0  0  0
 10 18  1  6  0  0  0
 18 19  1  0  0  0  0
 18 20  1  0  0  0  0
 11 14  1  0  0  0  0
 15 21  2  0  0  0  0
 14 22  2  0  0  0  0
 22 23  1  0  0  0  0
 12 24  1  1  0  0  0
 11 25  1  6  0  0  0
M  END
>  <cdx:fragmentId>
5

$$$$
