94706.cdx
  Mrv1902 05222410282D          

 23 24  0  0  0  0            999 V2000
    4.0268   -8.1950    0.0000 C   0  0  0  0  0  0  0  0  0  0  0  0
    4.0268   -9.0200    0.0000 C   0  0  0  0  0  0  0  0  0  0  0  0
    4.7413   -9.4325    0.0000 C   0  0  0  0  0  0  0  0  0  0  0  0
    5.4557   -9.0200    0.0000 C   0  0  0  0  0  0  0  0  0  0  0  0
    5.4557   -8.1950    0.0000 C   0  0  0  0  0  0  0  0  0  0  0  0
    4.7413   -7.7825    0.0000 C   0  0  0  0  0  0  0  0  0  0  0  0
    3.3123   -9.4325    0.0000 O   0  0  0  0  0  0  0  0  0  0  0  0
    4.7413  -10.2575    0.0000 O   0  0  0  0  0  0  0  0  0  0  0  0
    5.4557  -10.6700    0.0000 C   0  0  0  0  0  0  0  0  0  0  0  0
    6.1702   -7.7825    0.0000 C   0  0  0  0  0  0  0  0  0  0  0  0
    6.8847   -8.1950    0.0000 C   0  0  0  0  0  0  0  0  0  0  0  0
    7.5992   -7.7825    0.0000 C   0  0  0  0  0  0  0  0  0  0  0  0
    6.8847   -9.0200    0.0000 O   0  0  0  0  0  0  0  0  0  0  0  0
    8.3136   -8.1950    0.0000 C   0  0  0  0  0  0  0  0  0  0  0  0
    9.0281   -7.7825    0.0000 C   0  0  0  0  0  0  0  0  0  0  0  0
    9.7426   -8.1950    0.0000 C   0  0  0  0  0  0  0  0  0  0  0  0
   10.4570   -7.7825    0.0000 C   0  0  0  0  0  0  0  0  0  0  0  0
   10.4570   -6.9575    0.0000 C   0  0  0  0  0  0  0  0  0  0  0  0
   11.1715   -6.5450    0.0000 C   0  0  0  0  0  0  0  0  0  0  0  0
   11.1715   -5.7200    0.0000 C   0  0  0  0  0  0  0  0  0  0  0  0
   10.4570   -5.3075    0.0000 C   0  0  0  0  0  0  0  0  0  0  0  0
    9.7426   -5.7200    0.0000 C   0  0  0  0  0  0  0  0  0  0  0  0
    9.7426   -6.5450    0.0000 C   0  0  0  0  0  0  0  0  0  0  0  0
  1  2  2  0  0  0  0
  2  3  1  0  0  0  0
  3  4  2  0  0  0  0
  4  5  1  0  0  0  0
  5  6  2  0  0  0  0
  6  1  1  0  0  0  0
  2  7  1  0  0  0  0
  3  8  1  0  0  0  0
  8  9  1  0  0  0  0
  5 10  1  0  0  0  0
 10 11  1  0  0  0  0
 11 12  1  0  0  0  0
 11 13  1  0  0  0  0
 12 14  1  0  0  0  0
 14 15  1  0  0  0  0
 15 16  1  0  0  0  0
 16 17  1  0  0  0  0
 17 18  1  0  0  0  0
 18 19  2  0  0  0  0
 19 20  1  0  0  0  0
 20 21  2  0  0  0  0
 21 22  1  0  0  0  0
 22 23  2  0  0  0  0
 23 18  1  0  0  0  0
M  END
>  <cdx:fragmentId>
5

$$$$
