94704.cdx
  Mrv1902 05222410272D          

 24 25  0  0  0  0            999 V2000
    3.6693   -8.0437    0.0000 C   0  0  0  0  0  0  0  0  0  0  0  0
    3.6693   -8.8688    0.0000 C   0  0  0  0  0  0  0  0  0  0  0  0
    4.3838   -9.2813    0.0000 C   0  0  0  0  0  0  0  0  0  0  0  0
    5.0982   -8.8688    0.0000 C   0  0  0  0  0  0  0  0  0  0  0  0
    5.0982   -8.0437    0.0000 C   0  0  0  0  0  0  0  0  0  0  0  0
    4.3838   -7.6313    0.0000 C   0  0  0  0  0  0  0  0  0  0  0  0
    2.9548   -9.2813    0.0000 O   0  0  0  0  0  0  0  0  0  0  0  0
    4.3838  -10.1063    0.0000 O   0  0  0  0  0  0  0  0  0  0  0  0
    5.0982  -10.5188    0.0000 C   0  0  0  0  0  0  0  0  0  0  0  0
    5.8127   -7.6313    0.0000 C   0  0  0  0  0  0  0  0  0  0  0  0
    6.5272   -8.0437    0.0000 C   0  0  2  0  0  0  0  0  0  0  0  0
    7.2417   -7.6313    0.0000 C   0  0  2  0  0  0  0  0  0  0  0  0
    6.5272   -8.8688    0.0000 C   0  0  0  0  0  0  0  0  0  0  0  0
    7.9561   -8.0437    0.0000 C   0  0  0  0  0  0  0  0  0  0  0  0
    8.6706   -7.6313    0.0000 C   0  0  0  0  0  0  0  0  0  0  0  0
    7.2417   -6.8062    0.0000 C   0  0  0  0  0  0  0  0  0  0  0  0
    9.3851   -8.0437    0.0000 C   0  0  0  0  0  0  0  0  0  0  0  0
   10.0995   -7.6313    0.0000 C   0  0  0  0  0  0  0  0  0  0  0  0
   10.0995   -6.8062    0.0000 C   0  0  0  0  0  0  0  0  0  0  0  0
    9.3851   -6.3937    0.0000 C   0  0  0  0  0  0  0  0  0  0  0  0
    8.6706   -6.8062    0.0000 C   0  0  0  0  0  0  0  0  0  0  0  0
    9.3851   -5.5687    0.0000 O   0  0  0  0  0  0  0  0  0  0  0  0
    8.6706   -5.1563    0.0000 C   0  0  0  0  0  0  0  0  0  0  0  0
   10.8140   -6.3937    0.0000 O   0  0  0  0  0  0  0  0  0  0  0  0
  1  2  2  0  0  0  0
  2  3  1  0  0  0  0
  3  4  2  0  0  0  0
  4  5  1  0  0  0  0
  5  6  2  0  0  0  0
  6  1  1  0  0  0  0
  2  7  1  0  0  0  0
  3  8  1  0  0  0  0
  8  9  1  0  0  0  0
  5 10  1  0  0  0  0
 10 11  1  0  0  0  0
 11 12  1  0  0  0  0
 11 13  1  6  0  0  0
 12 14  1  0  0  0  0
 14 15  1  0  0  0  0
 12 16  1  1  0  0  0
 15 17  2  0  0  0  0
 17 18  1  0  0  0  0
 18 19  2  0  0  0  0
 19 20  1  0  0  0  0
 20 21  2  0  0  0  0
 21 15  1  0  0  0  0
 20 22  1  0  0  0  0
 22 23  1  0  0  0  0
 19 24  1  0  0  0  0
M  END
>  <cdx:fragmentId>
5

$$$$
