94708.cdx
  Mrv1902 05222410192D          

 42 46  0  0  0  0            999 V2000
    6.1031   -7.0263    0.0000 C   0  0  0  0  0  0  0  0  0  0  0  0
    6.1031   -7.8513    0.0000 C   0  0  0  0  0  0  0  0  0  0  0  0
    6.8175   -8.2637    0.0000 C   0  0  0  0  0  0  0  0  0  0  0  0
    7.5320   -7.8513    0.0000 C   0  0  0  0  0  0  0  0  0  0  0  0
    7.5320   -7.0263    0.0000 C   0  0  0  0  0  0  0  0  0  0  0  0
    6.8175   -6.6137    0.0000 C   0  0  0  0  0  0  0  0  0  0  0  0
    8.2465   -8.2637    0.0000 C   0  0  0  0  0  0  0  0  0  0  0  0
    8.9609   -7.8513    0.0000 C   0  0  0  0  0  0  0  0  0  0  0  0
    8.9609   -7.0263    0.0000 C   0  0  0  0  0  0  0  0  0  0  0  0
    8.2465   -6.6137    0.0000 O   0  0  0  0  0  0  0  0  0  0  0  0
    9.6754   -8.2637    0.0000 O   0  0  0  0  0  0  0  0  0  0  0  0
   10.3899   -7.0263    0.0000 C   0  0  0  0  0  0  0  0  0  0  0  0
    9.6754   -6.6137    0.0000 C   0  0  0  0  0  0  0  0  0  0  0  0
   11.1044   -6.6137    0.0000 C   0  0  0  0  0  0  0  0  0  0  0  0
   11.1044   -5.7888    0.0000 C   0  0  0  0  0  0  0  0  0  0  0  0
   10.3899   -5.3763    0.0000 C   0  0  0  0  0  0  0  0  0  0  0  0
    9.6754   -5.7888    0.0000 C   0  0  0  0  0  0  0  0  0  0  0  0
    6.8175   -9.0887    0.0000 O   0  0  0  0  0  0  0  0  0  0  0  0
    5.3886   -6.6137    0.0000 O   0  0  0  0  0  0  0  0  0  0  0  0
    8.2465   -9.0887    0.0000 O   0  0  0  0  0  0  0  0  0  0  0  0
   11.8188   -5.3763    0.0000 O   0  0  0  0  0  0  0  0  0  0  0  0
    9.6754   -9.0887    0.0000 C   0  0  2  0  0  0  0  0  0  0  0  0
    8.9609   -9.5013    0.0000 O   0  0  0  0  0  0  0  0  0  0  0  0
    8.9609  -10.3262    0.0000 C   0  0  1  0  0  0  0  0  0  0  0  0
    9.6754  -10.7387    0.0000 C   0  0  2  0  0  0  0  0  0  0  0  0
   10.3899  -10.3262    0.0000 C   0  0  1  0  0  0  0  0  0  0  0  0
   10.3899   -9.5013    0.0000 C   0  0  1  0  0  0  0  0  0  0  0  0
    8.2465  -10.7387    0.0000 C   0  0  0  0  0  0  0  0  0  0  0  0
   11.1044  -10.7387    0.0000 O   0  0  0  0  0  0  0  0  0  0  0  0
    9.6754  -11.5638    0.0000 O   0  0  0  0  0  0  0  0  0  0  0  0
   11.1044   -9.0887    0.0000 O   0  0  0  0  0  0  0  0  0  0  0  0
    8.2465  -11.5638    0.0000 O   0  0  0  0  0  0  0  0  0  0  0  0
    4.6741   -7.0263    0.0000 C   0  0  2  0  0  0  0  0  0  0  0  0
    3.9596   -6.6137    0.0000 O   0  0  0  0  0  0  0  0  0  0  0  0
    3.2452   -7.0263    0.0000 C   0  0  2  0  0  0  0  0  0  0  0  0
    3.2452   -7.8513    0.0000 C   0  0  1  0  0  0  0  0  0  0  0  0
    3.9596   -8.2637    0.0000 C   0  0  2  0  0  0  0  0  0  0  0  0
    4.6741   -7.8513    0.0000 C   0  0  1  0  0  0  0  0  0  0  0  0
    2.5307   -8.2637    0.0000 O   0  0  0  0  0  0  0  0  0  0  0  0
    2.5307   -6.6137    0.0000 C   0  0  0  0  0  0  0  0  0  0  0  0
    3.9596   -9.0887    0.0000 O   0  0  0  0  0  0  0  0  0  0  0  0
    5.3886   -8.2637    0.0000 O   0  0  0  0  0  0  0  0  0  0  0  0
  1  2  2  0  0  0  0
  2  3  1  0  0  0  0
  3  4  2  0  0  0  0
  4  5  1  0  0  0  0
  5  6  2  0  0  0  0
  6  1  1  0  0  0  0
  4  7  1  0  0  0  0
  7  8  1  0  0  0  0
  8  9  2  0  0  0  0
  9 10  1  0  0  0  0
 10  5  1  0  0  0  0
  8 11  1  0  0  0  0
 12 13  2  0  0  0  0
 13  9  1  0  0  0  0
 12 14  1  0  0  0  0
 14 15  2  0  0  0  0
 15 16  1  0  0  0  0
 16 17  2  0  0  0  0
 17 13  1  0  0  0  0
  3 18  1  0  0  0  0
  1 19  1  0  0  0  0
  7 20  2  0  0  0  0
 15 21  1  0  0  0  0
 22 11  1  1  0  0  0
 22 23  1  0  0  0  0
 23 24  1  0  0  0  0
 24 25  1  0  0  0  0
 25 26  1  0  0  0  0
 26 27  1  0  0  0  0
 27 22  1  0  0  0  0
 24 28  1  1  0  0  0
 26 29  1  1  0  0  0
 25 30  1  6  0  0  0
 27 31  1  6  0  0  0
 28 32  1  0  0  0  0
 33 19  1  1  0  0  0
 33 34  1  0  0  0  0
 34 35  1  0  0  0  0
 35 36  1  0  0  0  0
 36 37  1  0  0  0  0
 37 38  1  0  0  0  0
 38 33  1  0  0  0  0
 36 39  1  1  0  0  0
 35 40  1  6  0  0  0
 37 41  1  6  0  0  0
 38 42  1  6  0  0  0
M  END
>  <cdx:fragmentId>
5

$$$$
