94709.cdx
  Mrv1902 05222410182D          

 54 59  0  0  0  0            999 V2000
    5.5531   -6.4350    0.0000 C   0  0  0  0  0  0  0  0  0  0  0  0
    5.5531   -7.2600    0.0000 C   0  0  0  0  0  0  0  0  0  0  0  0
    6.2675   -7.6725    0.0000 C   0  0  0  0  0  0  0  0  0  0  0  0
    6.9820   -7.2600    0.0000 C   0  0  0  0  0  0  0  0  0  0  0  0
    6.9820   -6.4350    0.0000 C   0  0  0  0  0  0  0  0  0  0  0  0
    6.2675   -6.0225    0.0000 C   0  0  0  0  0  0  0  0  0  0  0  0
    7.6965   -7.6725    0.0000 C   0  0  0  0  0  0  0  0  0  0  0  0
    8.4109   -7.2600    0.0000 C   0  0  0  0  0  0  0  0  0  0  0  0
    8.4109   -6.4350    0.0000 C   0  0  0  0  0  0  0  0  0  0  0  0
    7.6965   -6.0225    0.0000 O   0  0  0  0  0  0  0  0  0  0  0  0
    9.1254   -7.6725    0.0000 O   0  0  0  0  0  0  0  0  0  0  0  0
    9.8399   -6.4350    0.0000 C   0  0  0  0  0  0  0  0  0  0  0  0
    9.1254   -6.0225    0.0000 C   0  0  0  0  0  0  0  0  0  0  0  0
   10.5544   -6.0225    0.0000 C   0  0  0  0  0  0  0  0  0  0  0  0
   10.5544   -5.1975    0.0000 C   0  0  0  0  0  0  0  0  0  0  0  0
    9.8399   -4.7850    0.0000 C   0  0  0  0  0  0  0  0  0  0  0  0
    9.1254   -5.1975    0.0000 C   0  0  0  0  0  0  0  0  0  0  0  0
    6.2675   -8.4975    0.0000 O   0  0  0  0  0  0  0  0  0  0  0  0
    4.8386   -6.0225    0.0000 O   0  0  0  0  0  0  0  0  0  0  0  0
    7.6965   -8.4975    0.0000 O   0  0  0  0  0  0  0  0  0  0  0  0
   11.2688   -4.7850    0.0000 O   0  0  0  0  0  0  0  0  0  0  0  0
    9.1254   -8.4975    0.0000 C   0  0  2  0  0  0  0  0  0  0  0  0
    8.4109   -8.9100    0.0000 O   0  0  0  0  0  0  0  0  0  0  0  0
    8.4109   -9.7350    0.0000 C   0  0  1  0  0  0  0  0  0  0  0  0
    9.1254  -10.1475    0.0000 C   0  0  2  0  0  0  0  0  0  0  0  0
    9.8399   -9.7350    0.0000 C   0  0  1  0  0  0  0  0  0  0  0  0
    9.8399   -8.9100    0.0000 C   0  0  1  0  0  0  0  0  0  0  0  0
    7.6965  -10.1475    0.0000 C   0  0  0  0  0  0  0  0  0  0  0  0
   10.5544  -10.1475    0.0000 O   0  0  0  0  0  0  0  0  0  0  0  0
    9.1254  -10.9725    0.0000 O   0  0  0  0  0  0  0  0  0  0  0  0
   10.5544   -8.4975    0.0000 O   0  0  0  0  0  0  0  0  0  0  0  0
    7.6965  -10.9725    0.0000 O   0  0  0  0  0  0  0  0  0  0  0  0
    4.1241   -6.4350    0.0000 C   0  0  2  0  0  0  0  0  0  0  0  0
    3.4096   -6.0225    0.0000 O   0  0  0  0  0  0  0  0  0  0  0  0
    2.6952   -6.4350    0.0000 C   0  0  1  0  0  0  0  0  0  0  0  0
    2.6952   -7.2600    0.0000 C   0  0  2  0  0  0  0  0  0  0  0  0
    3.4096   -7.6725    0.0000 C   0  0  1  0  0  0  0  0  0  0  0  0
    4.1241   -7.2600    0.0000 C   0  0  1  0  0  0  0  0  0  0  0  0
    1.9807   -7.6725    0.0000 O   0  0  0  0  0  0  0  0  0  0  0  0
    1.9807   -6.0225    0.0000 C   0  0  0  0  0  0  0  0  0  0  0  0
    3.4096   -8.4975    0.0000 O   0  0  0  0  0  0  0  0  0  0  0  0
    4.8386   -7.6725    0.0000 O   0  0  0  0  0  0  0  0  0  0  0  0
    1.2662   -6.4350    0.0000 O   0  0  0  0  0  0  0  0  0  0  0  0
   11.2719   -8.9041    0.0000 C   0  0  2  0  0  0  0  0  0  0  0  0
   11.2721   -9.7291    0.0000 O   0  0  0  0  0  0  0  0  0  0  0  0
   11.9866  -10.1415    0.0000 C   0  0  1  0  0  0  0  0  0  0  0  0
   12.7010   -9.7289    0.0000 C   0  0  2  0  0  0  0  0  0  0  0  0
   12.7009   -8.9039    0.0000 C   0  0  1  0  0  0  0  0  0  0  0  0
   11.9863   -8.4915    0.0000 C   0  0  1  0  0  0  0  0  0  0  0  0
   11.9868  -10.9665    0.0000 C   0  0  0  0  0  0  0  0  0  0  0  0
   13.4153   -8.4912    0.0000 O   0  0  0  0  0  0  0  0  0  0  0  0
   13.4156  -10.1412    0.0000 O   0  0  0  0  0  0  0  0  0  0  0  0
   11.9862   -7.6665    0.0000 O   0  0  0  0  0  0  0  0  0  0  0  0
   12.7014  -11.3789    0.0000 O   0  0  0  0  0  0  0  0  0  0  0  0
  1  2  2  0  0  0  0
  2  3  1  0  0  0  0
  3  4  2  0  0  0  0
  4  5  1  0  0  0  0
  5  6  2  0  0  0  0
  6  1  1  0  0  0  0
  4  7  1  0  0  0  0
  7  8  1  0  0  0  0
  8  9  2  0  0  0  0
  9 10  1  0  0  0  0
 10  5  1  0  0  0  0
  8 11  1  0  0  0  0
 12 13  2  0  0  0  0
 13  9  1  0  0  0  0
 12 14  1  0  0  0  0
 14 15  2  0  0  0  0
 15 16  1  0  0  0  0
 16 17  2  0  0  0  0
 17 13  1  0  0  0  0
  3 18  1  0  0  0  0
  1 19  1  0  0  0  0
  7 20  2  0  0  0  0
 15 21  1  0  0  0  0
 22 11  1  1  0  0  0
 22 23  1  0  0  0  0
 23 24  1  0  0  0  0
 24 25  1  0  0  0  0
 25 26  1  0  0  0  0
 26 27  1  0  0  0  0
 27 22  1  0  0  0  0
 24 28  1  1  0  0  0
 26 29  1  1  0  0  0
 25 30  1  6  0  0  0
 27 31  1  6  0  0  0
 28 32  1  0  0  0  0
 33 19  1  1  0  0  0
 33 34  1  0  0  0  0
 34 35  1  0  0  0  0
 35 36  1  0  0  0  0
 36 37  1  0  0  0  0
 37 38  1  0  0  0  0
 38 33  1  0  0  0  0
 36 39  1  6  0  0  0
 35 40  1  1  0  0  0
 37 41  1  1  0  0  0
 38 42  1  6  0  0  0
 40 43  1  0  0  0  0
 44 45  1  0  0  0  0
 45 46  1  0  0  0  0
 46 47  1  0  0  0  0
 47 48  1  0  0  0  0
 48 49  1  0  0  0  0
 49 44  1  0  0  0  0
 46 50  1  1  0  0  0
 48 51  1  1  0  0  0
 47 52  1  6  0  0  0
 49 53  1  6  0  0  0
 50 54  1  0  0  0  0
 44 31  1  1  0  0  0
M  END
>  <cdx:fragmentId>
5

$$$$
