94707.cdx
  Mrv1902 05222410282D          

 41 44  0  0  0  0            999 V2000
    4.6318   -6.1463    0.0000 C   0  0  0  0  0  0  0  0  0  0  0  0
    4.6318   -6.9712    0.0000 C   0  0  0  0  0  0  0  0  0  0  0  0
    5.3463   -7.3838    0.0000 C   0  0  0  0  0  0  0  0  0  0  0  0
    6.0607   -6.9712    0.0000 C   0  0  0  0  0  0  0  0  0  0  0  0
    6.0607   -6.1463    0.0000 C   0  0  0  0  0  0  0  0  0  0  0  0
    5.3463   -5.7338    0.0000 C   0  0  0  0  0  0  0  0  0  0  0  0
    6.7752   -7.3838    0.0000 C   0  0  0  0  0  0  0  0  0  0  0  0
    7.4897   -6.9712    0.0000 C   0  0  0  0  0  0  0  0  0  0  0  0
    7.4897   -6.1463    0.0000 C   0  0  0  0  0  0  0  0  0  0  0  0
    6.7752   -5.7338    0.0000 O   0  0  0  0  0  0  0  0  0  0  0  0
    8.2042   -7.3838    0.0000 O   0  0  0  0  0  0  0  0  0  0  0  0
    8.9186   -6.1463    0.0000 C   0  0  0  0  0  0  0  0  0  0  0  0
    8.2042   -5.7338    0.0000 C   0  0  0  0  0  0  0  0  0  0  0  0
    9.6331   -5.7338    0.0000 C   0  0  0  0  0  0  0  0  0  0  0  0
    9.6331   -4.9088    0.0000 C   0  0  0  0  0  0  0  0  0  0  0  0
    8.9186   -4.4962    0.0000 C   0  0  0  0  0  0  0  0  0  0  0  0
    8.2042   -4.9088    0.0000 C   0  0  0  0  0  0  0  0  0  0  0  0
    5.3463   -8.2088    0.0000 O   0  0  0  0  0  0  0  0  0  0  0  0
    3.9173   -7.3838    0.0000 O   0  0  0  0  0  0  0  0  0  0  0  0
    3.9173   -5.7338    0.0000 O   0  0  0  0  0  0  0  0  0  0  0  0
    5.3463   -4.9088    0.0000 O   0  0  0  0  0  0  0  0  0  0  0  0
    6.7752   -8.2088    0.0000 O   0  0  0  0  0  0  0  0  0  0  0  0
   10.3476   -4.4962    0.0000 O   0  0  0  0  0  0  0  0  0  0  0  0
   11.0620   -4.9088    0.0000 C   0  0  0  0  0  0  0  0  0  0  0  0
    4.6318   -8.6212    0.0000 C   0  0  0  0  0  0  0  0  0  0  0  0
    3.2029   -6.9712    0.0000 C   0  0  0  0  0  0  0  0  0  0  0  0
    8.2042   -8.2088    0.0000 C   0  0  2  0  0  0  0  0  0  0  0  0
    7.4897   -8.6212    0.0000 O   0  0  0  0  0  0  0  0  0  0  0  0
    7.4897   -9.4462    0.0000 C   0  0  1  0  0  0  0  0  0  0  0  0
    8.2042   -9.8588    0.0000 C   0  0  2  0  0  0  0  0  0  0  0  0
    8.9186   -9.4462    0.0000 C   0  0  1  0  0  0  0  0  0  0  0  0
    8.9186   -8.6212    0.0000 C   0  0  1  0  0  0  0  0  0  0  0  0
    6.7752   -9.8588    0.0000 C   0  0  0  0  0  0  0  0  0  0  0  0
    9.6331   -9.8588    0.0000 O   0  0  0  0  0  0  0  0  0  0  0  0
    8.2042  -10.6837    0.0000 O   0  0  0  0  0  0  0  0  0  0  0  0
    9.6331   -8.2088    0.0000 O   0  0  0  0  0  0  0  0  0  0  0  0
    6.7752  -10.6837    0.0000 O   0  0  0  0  0  0  0  0  0  0  0  0
    4.6318   -4.4962    0.0000 C   0  0  0  0  0  0  0  0  0  0  0  0
    3.2029   -6.1463    0.0000 C   0  0  0  0  0  0  0  0  0  0  0  0
   10.3476   -6.1463    0.0000 O   0  0  0  0  0  0  0  0  0  0  0  0
   11.0620   -5.7338    0.0000 C   0  0  0  0  0  0  0  0  0  0  0  0
  1  2  2  0  0  0  0
  2  3  1  0  0  0  0
  3  4  2  0  0  0  0
  4  5  1  0  0  0  0
  5  6  2  0  0  0  0
  6  1  1  0  0  0  0
  4  7  1  0  0  0  0
  7  8  1  0  0  0  0
  8  9  2  0  0  0  0
  9 10  1  0  0  0  0
 10  5  1  0  0  0  0
  8 11  1  0  0  0  0
 12 13  2  0  0  0  0
 13  9  1  0  0  0  0
 12 14  1  0  0  0  0
 14 15  2  0  0  0  0
 15 16  1  0  0  0  0
 16 17  2  0  0  0  0
 17 13  1  0  0  0  0
  3 18  1  0  0  0  0
  2 19  1  0  0  0  0
  1 20  1  0  0  0  0
  6 21  1  0  0  0  0
  7 22  2  0  0  0  0
 15 23  1  0  0  0  0
 23 24  1  0  0  0  0
 18 25  1  0  0  0  0
 19 26  1  0  0  0  0
 27 11  1  1  0  0  0
 27 28  1  0  0  0  0
 28 29  1  0  0  0  0
 29 30  1  0  0  0  0
 30 31  1  0  0  0  0
 31 32  1  0  0  0  0
 32 27  1  0  0  0  0
 29 33  1  1  0  0  0
 31 34  1  1  0  0  0
 30 35  1  6  0  0  0
 32 36  1  6  0  0  0
 33 37  1  0  0  0  0
 21 38  1  0  0  0  0
 20 39  1  0  0  0  0
 14 40  1  0  0  0  0
 40 41  1  0  0  0  0
M  END
>  <cdx:fragmentId>
5

$$$$
