94711.cdx
  Mrv1902 05222410272D          

 18 20  0  0  0  0            999 V2000
    4.1643   -6.6413    0.0000 C   0  0  0  0  0  0  0  0  0  0  0  0
    4.1643   -7.4663    0.0000 C   0  0  0  0  0  0  0  0  0  0  0  0
    4.8788   -7.8788    0.0000 C   0  0  0  0  0  0  0  0  0  0  0  0
    5.5932   -7.4663    0.0000 C   0  0  0  0  0  0  0  0  0  0  0  0
    5.5932   -6.6413    0.0000 C   0  0  0  0  0  0  0  0  0  0  0  0
    4.8788   -6.2287    0.0000 C   0  0  0  0  0  0  0  0  0  0  0  0
    6.3077   -7.8788    0.0000 C   0  0  0  0  0  0  0  0  0  0  0  0
    7.0222   -7.4663    0.0000 C   0  0  0  0  0  0  0  0  0  0  0  0
    7.0222   -6.6413    0.0000 C   0  0  0  0  0  0  0  0  0  0  0  0
    6.3077   -6.2287    0.0000 C   0  0  0  0  0  0  0  0  0  0  0  0
    7.7367   -7.8788    0.0000 C   0  0  0  0  0  0  0  0  0  0  0  0
    8.4511   -7.4663    0.0000 C   0  0  0  0  0  0  0  0  0  0  0  0
    8.4511   -6.6413    0.0000 C   0  0  0  0  0  0  0  0  0  0  0  0
    7.7367   -6.2287    0.0000 C   0  0  0  0  0  0  0  0  0  0  0  0
    6.3077   -5.4037    0.0000 O   0  0  0  0  0  0  0  0  0  0  0  0
    6.3077   -8.7037    0.0000 O   0  0  0  0  0  0  0  0  0  0  0  0
    9.1656   -7.8788    0.0000 C   0  0  0  0  0  0  0  0  0  0  0  0
    9.1656   -6.2287    0.0000 O   0  0  0  0  0  0  0  0  0  0  0  0
  1  2  2  0  0  0  0
  2  3  1  0  0  0  0
  3  4  2  0  0  0  0
  4  5  1  0  0  0  0
  5  6  2  0  0  0  0
  6  1  1  0  0  0  0
  4  7  1  0  0  0  0
  7  8  1  0  0  0  0
  8  9  2  0  0  0  0
  9 10  1  0  0  0  0
 10  5  1  0  0  0  0
  8 11  1  0  0  0  0
 11 12  2  0  0  0  0
 12 13  1  0  0  0  0
 13 14  2  0  0  0  0
 14  9  1  0  0  0  0
 10 15  2  0  0  0  0
  7 16  2  0  0  0  0
 12 17  1  0  0  0  0
 13 18  1  0  0  0  0
M  END
>  <cdx:fragmentId>
5

$$$$
