94716.cdx
  Mrv1902 05222410262D          

 33 36  0  0  0  0            999 V2000
    8.6246   -7.0210    0.0000 C   0  0  0  0  0  0  0  0  0  0  0  0
    8.6246   -7.8460    0.0000 C   0  0  0  0  0  0  0  0  0  0  0  0
    7.9101   -8.2585    0.0000 C   0  0  0  0  0  0  0  0  0  0  0  0
    7.9101   -9.0835    0.0000 O   0  0  0  0  0  0  0  0  0  0  0  0
    7.1956   -7.8460    0.0000 C   0  0  0  0  0  0  0  0  0  0  0  0
    6.4812   -8.2585    0.0000 C   0  0  0  0  0  0  0  0  0  0  0  0
    5.7667   -7.8460    0.0000 C   0  0  0  0  0  0  0  0  0  0  0  0
    5.7667   -7.0210    0.0000 C   0  0  0  0  0  0  0  0  0  0  0  0
    5.0522   -6.6085    0.0000 O   0  0  0  0  0  0  0  0  0  0  0  0
    4.3378   -7.0210    0.0000 C   0  0  0  0  0  0  0  0  0  0  0  0
    6.4812   -6.6085    0.0000 C   0  0  0  0  0  0  0  0  0  0  0  0
    7.1956   -7.0210    0.0000 C   0  0  0  0  0  0  0  0  0  0  0  0
    7.9101   -6.6085    0.0000 O   0  0  0  0  0  0  0  0  0  0  0  0
    9.3391   -6.6085    0.0000 C   0  0  0  0  0  0  0  0  0  0  0  0
   10.0535   -7.0210    0.0000 C   0  0  0  0  0  0  0  0  0  0  0  0
   10.7680   -6.6085    0.0000 C   0  0  0  0  0  0  0  0  0  0  0  0
   10.7680   -5.7835    0.0000 C   0  0  0  0  0  0  0  0  0  0  0  0
   11.4825   -5.3710    0.0000 O   0  0  0  0  0  0  0  0  0  0  0  0
   10.0535   -5.3710    0.0000 C   0  0  0  0  0  0  0  0  0  0  0  0
    9.3391   -5.7835    0.0000 C   0  0  0  0  0  0  0  0  0  0  0  0
   11.4825   -7.0210    0.0000 O   0  0  0  0  0  0  0  0  0  0  0  0
    6.4812   -9.0835    0.0000 O   0  0  0  0  0  0  0  0  0  0  0  0
    5.7667   -9.4960    0.0000 C   0  0  1  0  0  0  0  0  0  0  0  0
    5.7667  -10.3210    0.0000 C   0  0  2  0  0  0  0  0  0  0  0  0
    6.4812  -10.7335    0.0000 O   0  0  0  0  0  0  0  0  0  0  0  0
    5.0522  -10.7335    0.0000 C   0  0  1  0  0  0  0  0  0  0  0  0
    5.0522  -11.5585    0.0000 O   0  0  0  0  0  0  0  0  0  0  0  0
    4.3378  -10.3210    0.0000 C   0  0  2  0  0  0  0  0  0  0  0  0
    3.6233  -10.7335    0.0000 O   0  0  0  0  0  0  0  0  0  0  0  0
    4.3378   -9.4960    0.0000 C   0  0  2  0  0  0  0  0  0  0  0  0
    5.0522   -9.0835    0.0000 O   0  0  0  0  0  0  0  0  0  0  0  0
    3.6233   -9.0835    0.0000 C   0  0  0  0  0  0  0  0  0  0  0  0
    2.9088   -9.4960    0.0000 O   0  0  0  0  0  0  0  0  0  0  0  0
  1  2  2  0  0  0  0
  2  3  1  0  0  0  0
  3  4  2  0  0  0  0
  3  5  1  0  0  0  0
  5  6  1  0  0  0  0
  6  7  2  0  0  0  0
  7  8  1  0  0  0  0
  8  9  1  0  0  0  0
  9 10  1  0  0  0  0
  8 11  2  0  0  0  0
 11 12  1  0  0  0  0
  5 12  2  0  0  0  0
 12 13  1  0  0  0  0
  1 13  1  0  0  0  0
  1 14  1  0  0  0  0
 14 15  1  0  0  0  0
 15 16  2  0  0  0  0
 16 17  1  0  0  0  0
 17 18  1  0  0  0  0
 17 19  2  0  0  0  0
 19 20  1  0  0  0  0
 14 20  2  0  0  0  0
 16 21  1  0  0  0  0
 23 22  1  1  0  0  0
 23 24  1  0  0  0  0
 24 25  1  6  0  0  0
 24 26  1  0  0  0  0
 26 27  1  1  0  0  0
 26 28  1  0  0  0  0
 28 29  1  6  0  0  0
 28 30  1  0  0  0  0
 30 31  1  0  0  0  0
 30 32  1  1  0  0  0
 32 33  1  0  0  0  0
 23 31  1  0  0  0  0
  6 22  1  0  0  0  0
M  END
>  <cdx:groupId>
104

>  <cdx:fragmentId>
5

$$$$
