94718.cdx
  Mrv1902 05222410192D          

 42 46  0  0  0  0            999 V2000
    3.6235   -8.5747    0.0000 O   0  0  0  0  0  0  0  0  0  0  0  0
    8.6248   -4.8622    0.0000 O   0  0  0  0  0  0  0  0  0  0  0  0
    6.4814   -5.2747    0.0000 C   0  0  0  0  0  0  0  0  0  0  0  0
    7.1958   -4.8622    0.0000 C   0  0  0  0  0  0  0  0  0  0  0  0
    7.9103   -5.2747    0.0000 C   0  0  0  0  0  0  0  0  0  0  0  0
    7.9103   -6.0997    0.0000 C   0  0  0  0  0  0  0  0  0  0  0  0
    7.1958   -6.5122    0.0000 C   0  0  0  0  0  0  0  0  0  0  0  0
    6.4814   -6.0997    0.0000 C   0  0  0  0  0  0  0  0  0  0  0  0
    1.4801   -6.5122    0.0000 C   0  0  0  0  0  0  0  0  0  0  0  0
    2.1945   -6.0997    0.0000 O   0  0  0  0  0  0  0  0  0  0  0  0
    5.0524   -8.5747    0.0000 O   0  0  0  0  0  0  0  0  0  0  0  0
    5.0524   -6.0997    0.0000 O   0  0  0  0  0  0  0  0  0  0  0  0
    4.3379   -6.5122    0.0000 C   0  0  0  0  0  0  0  0  0  0  0  0
    3.6235   -6.0997    0.0000 C   0  0  0  0  0  0  0  0  0  0  0  0
    2.9090   -6.5122    0.0000 C   0  0  0  0  0  0  0  0  0  0  0  0
    2.9090   -7.3372    0.0000 C   0  0  0  0  0  0  0  0  0  0  0  0
    3.6235   -7.7497    0.0000 C   0  0  0  0  0  0  0  0  0  0  0  0
    4.3379   -7.3372    0.0000 C   0  0  0  0  0  0  0  0  0  0  0  0
    5.0524   -7.7497    0.0000 C   0  0  0  0  0  0  0  0  0  0  0  0
    5.7669   -7.3372    0.0000 C   0  0  0  0  0  0  0  0  0  0  0  0
    5.7669   -6.5122    0.0000 C   0  0  0  0  0  0  0  0  0  0  0  0
   11.4935   -6.4993    0.0000 O   0  0  0  0  0  0  0  0  0  0  0  0
   11.4855   -4.8493    0.0000 O   0  0  0  0  0  0  0  0  0  0  0  0
   10.0525   -4.0313    0.0000 O   0  0  0  0  0  0  0  0  0  0  0  0
    9.3441   -5.2722    0.0000 C   0  0  1  0  0  0  0  0  0  0  0  0
   10.0565   -4.8562    0.0000 C   0  0  1  0  0  0  0  0  0  0  0  0
   10.7730   -5.2653    0.0000 C   0  0  2  0  0  0  0  0  0  0  0  0
   10.7770   -6.0902    0.0000 C   0  0  1  0  0  0  0  0  0  0  0  0
   10.0646   -6.5062    0.0000 C   0  0  2  0  0  0  0  0  0  0  0  0
    9.3481   -6.0972    0.0000 O   0  0  0  0  0  0  0  0  0  0  0  0
   10.0686   -7.3312    0.0000 C   0  0  0  0  0  0  0  0  0  0  0  0
    9.3562   -7.7472    0.0000 O   0  0  0  0  0  0  0  0  0  0  0  0
    7.9393  -10.2291    0.0000 C   0  0  0  0  0  0  0  0  0  0  0  0
    9.3723  -11.0472    0.0000 O   0  0  0  0  0  0  0  0  0  0  0  0
   10.7972  -10.2152    0.0000 O   0  0  0  0  0  0  0  0  0  0  0  0
   10.7891   -8.5652    0.0000 O   0  0  0  0  0  0  0  0  0  0  0  0
    8.6518   -9.8132    0.0000 C   0  0  1  0  0  0  0  0  0  0  0  0
    9.3682  -10.2222    0.0000 C   0  0  1  0  0  0  0  0  0  0  0  0
   10.0807   -9.8062    0.0000 C   0  0  2  0  0  0  0  0  0  0  0  0
   10.0767   -8.9812    0.0000 C   0  0  2  0  0  0  0  0  0  0  0  0
    9.3602   -8.5722    0.0000 C   0  0  1  0  0  0  0  0  0  0  0  0
    8.6477   -8.9882    0.0000 O   0  0  0  0  0  0  0  0  0  0  0  0
 17  1  1  0  0  0  0
 21  8  1  0  0  0  0
  5  2  1  0  0  0  0
  8  3  2  0  0  0  0
  4  3  1  0  0  0  0
  5  4  2  0  0  0  0
  6  5  1  0  0  0  0
  7  6  2  0  0  0  0
  8  7  1  0  0  0  0
 15 10  1  0  0  0  0
 10  9  1  0  0  0  0
 19 11  2  0  0  0  0
 21 12  1  0  0  0  0
 13 12  1  0  0  0  0
 18 13  2  0  0  0  0
 14 13  1  0  0  0  0
 15 14  2  0  0  0  0
 16 15  1  0  0  0  0
 17 16  2  0  0  0  0
 18 17  1  0  0  0  0
 19 18  1  0  0  0  0
 20 19  1  0  0  0  0
 21 20  2  0  0  0  0
 41 32  1  1  0  0  0
 29 31  1  1  0  0  0
 28 22  1  6  0  0  0
 27 23  1  1  0  0  0
 26 24  1  6  0  0  0
 30 25  1  0  0  0  0
 26 25  1  0  0  0  0
 27 26  1  0  0  0  0
 28 27  1  0  0  0  0
 29 28  1  0  0  0  0
 30 29  1  0  0  0  0
 32 31  1  0  0  0  0
 37 33  1  6  0  0  0
 38 34  1  1  0  0  0
 39 35  1  6  0  0  0
 40 36  1  6  0  0  0
 42 37  1  0  0  0  0
 38 37  1  0  0  0  0
 39 38  1  0  0  0  0
 40 39  1  0  0  0  0
 41 40  1  0  0  0  0
 42 41  1  0  0  0  0
 25  2  1  1  0  0  0
M  END
>  <cdx:groupId>
67

>  <cdx:fragmentId>
5

$$$$
