94712.cdx
  Mrv1902 05222410282D          

 68 74  0  0  0  0            999 V2000
    2.8443   -3.6713    0.0000 C   0  0  0  0  0  0  0  0  0  0  0  0
    2.8443   -4.4962    0.0000 C   0  0  0  0  0  0  0  0  0  0  0  0
    3.5588   -4.9088    0.0000 C   0  0  0  0  0  0  0  0  0  0  0  0
    4.2732   -4.4962    0.0000 C   0  0  0  0  0  0  0  0  0  0  0  0
    4.2732   -3.6713    0.0000 C   0  0  0  0  0  0  0  0  0  0  0  0
    3.5588   -3.2588    0.0000 C   0  0  0  0  0  0  0  0  0  0  0  0
    4.9877   -4.9088    0.0000 C   0  0  0  0  0  0  0  0  0  0  0  0
    5.7022   -4.4962    0.0000 C   0  0  0  0  0  0  0  0  0  0  0  0
    5.7022   -3.6713    0.0000 C   0  0  0  0  0  0  0  0  0  0  0  0
    4.9877   -3.2588    0.0000 O   0  0  0  0  0  0  0  0  0  0  0  0
    7.4204   -6.4075    0.0000 O   0  0  0  0  0  0  0  0  0  0  0  0
    7.1311   -3.6713    0.0000 C   0  0  0  0  0  0  0  0  0  0  0  0
    6.4167   -3.2588    0.0000 C   0  0  0  0  0  0  0  0  0  0  0  0
    7.8456   -3.2588    0.0000 C   0  0  0  0  0  0  0  0  0  0  0  0
    7.8456   -2.4337    0.0000 C   0  0  0  0  0  0  0  0  0  0  0  0
    7.1311   -2.0213    0.0000 C   0  0  0  0  0  0  0  0  0  0  0  0
    6.4167   -2.4337    0.0000 C   0  0  0  0  0  0  0  0  0  0  0  0
    3.5588   -5.7338    0.0000 O   0  0  0  0  0  0  0  0  0  0  0  0
    2.1298   -3.2588    0.0000 O   0  0  0  0  0  0  0  0  0  0  0  0
    4.9877   -5.7338    0.0000 O   0  0  0  0  0  0  0  0  0  0  0  0
    8.5601   -2.0213    0.0000 O   0  0  0  0  0  0  0  0  0  0  0  0
    6.6992   -6.8080    0.0000 C   0  0  2  0  0  0  0  0  0  0  0  0
    5.9917   -6.3837    0.0000 O   0  0  0  0  0  0  0  0  0  0  0  0
    5.2704   -6.7842    0.0000 C   0  0  1  0  0  0  0  0  0  0  0  0
    5.2567   -7.6091    0.0000 C   0  0  2  0  0  0  0  0  0  0  0  0
    5.9641   -8.0334    0.0000 C   0  0  1  0  0  0  0  0  0  0  0  0
    6.6854   -7.6329    0.0000 C   0  0  1  0  0  0  0  0  0  0  0  0
    4.5629   -6.3598    0.0000 C   0  0  0  0  0  0  0  0  0  0  0  0
    5.9504   -8.8583    0.0000 O   0  0  0  0  0  0  0  0  0  0  0  0
    4.5354   -8.0096    0.0000 O   0  0  0  0  0  0  0  0  0  0  0  0
    7.3929   -8.0573    0.0000 O   0  0  0  0  0  0  0  0  0  0  0  0
    3.8417   -6.7604    0.0000 O   0  0  0  0  0  0  0  0  0  0  0  0
    8.5601   -3.6713    0.0000 O   0  0  0  0  0  0  0  0  0  0  0  0
    7.3853   -8.8821    0.0000 C   0  0  2  0  0  0  0  0  0  0  0  0
    6.6644   -9.2831    0.0000 O   0  0  0  0  0  0  0  0  0  0  0  0
    6.6512  -10.1080    0.0000 C   0  0  1  0  0  0  0  0  0  0  0  0
    7.3590  -10.5319    0.0000 C   0  0  1  0  0  0  0  0  0  0  0  0
    8.0800  -10.1308    0.0000 C   0  0  1  0  0  0  0  0  0  0  0  0
    8.0931   -9.3059    0.0000 C   0  0  1  0  0  0  0  0  0  0  0  0
    5.9302  -10.5090    0.0000 C   0  0  0  0  0  0  0  0  0  0  0  0
    8.7877  -10.5547    0.0000 O   0  0  0  0  0  0  0  0  0  0  0  0
    7.3458  -11.3568    0.0000 O   0  0  0  0  0  0  0  0  0  0  0  0
    8.8141   -8.9049    0.0000 O   0  0  0  0  0  0  0  0  0  0  0  0
    5.9171  -11.3339    0.0000 O   0  0  0  0  0  0  0  0  0  0  0  0
    9.5305   -9.3331    0.0000 C   0  0  2  0  0  0  0  0  0  0  0  0
    9.5185  -10.1580    0.0000 O   0  0  0  0  0  0  0  0  0  0  0  0
   10.2270  -10.5808    0.0000 C   0  0  1  0  0  0  0  0  0  0  0  0
   10.9473  -10.1787    0.0000 C   0  0  2  0  0  0  0  0  0  0  0  0
   10.9593   -9.3538    0.0000 C   0  0  1  0  0  0  0  0  0  0  0  0
   10.2509   -8.9309    0.0000 C   0  0  1  0  0  0  0  0  0  0  0  0
   10.2150  -11.4057    0.0000 C   0  0  0  0  0  0  0  0  0  0  0  0
   11.6797   -8.9517    0.0000 O   0  0  0  0  0  0  0  0  0  0  0  0
   11.6558  -10.6015    0.0000 O   0  0  0  0  0  0  0  0  0  0  0  0
   10.2628   -8.1060    0.0000 O   0  0  0  0  0  0  0  0  0  0  0  0
   10.9234  -11.8285    0.0000 O   0  0  0  0  0  0  0  0  0  0  0  0
    9.4996  -15.1345    0.0000 C   0  0  0  0  0  0  0  0  0  0  0  0
    9.4968  -14.3095    0.0000 C   0  0  0  0  0  0  0  0  0  0  0  0
    8.7809  -13.8994    0.0000 C   0  0  0  0  0  0  0  0  0  0  0  0
    8.0678  -14.3144    0.0000 C   0  0  0  0  0  0  0  0  0  0  0  0
    8.0707  -15.1394    0.0000 C   0  0  0  0  0  0  0  0  0  0  0  0
    8.7866  -15.5494    0.0000 C   0  0  0  0  0  0  0  0  0  0  0  0
    7.3576  -15.5544    0.0000 O   0  0  0  0  0  0  0  0  0  0  0  0
    7.3519  -13.9044    0.0000 O   0  0  0  0  0  0  0  0  0  0  0  0
    6.6389  -14.3193    0.0000 C   0  0  0  0  0  0  0  0  0  0  0  0
   10.2098  -13.8945    0.0000 C   0  0  0  0  0  0  0  0  0  0  0  0
   10.2070  -13.0695    0.0000 C   0  0  0  0  0  0  0  0  0  0  0  0
   10.9200  -12.6546    0.0000 C   0  0  0  0  0  0  0  0  0  0  0  0
   11.6359  -13.0646    0.0000 O   0  0  0  0  0  0  0  0  0  0  0  0
  1  2  2  0  0  0  0
  2  3  1  0  0  0  0
  3  4  2  0  0  0  0
  4  5  1  0  0  0  0
  5  6  2  0  0  0  0
  6  1  1  0  0  0  0
  4  7  1  0  0  0  0
  7  8  1  0  0  0  0
  8  9  2  0  0  0  0
  9 10  1  0  0  0  0
 10  5  1  0  0  0  0
  8 11  1  0  0  0  0
 12 13  2  0  0  0  0
 13  9  1  0  0  0  0
 12 14  1  0  0  0  0
 14 15  2  0  0  0  0
 15 16  1  0  0  0  0
 16 17  2  0  0  0  0
 17 13  1  0  0  0  0
  3 18  1  0  0  0  0
  1 19  1  0  0  0  0
  7 20  2  0  0  0  0
 15 21  1  0  0  0  0
 22 11  1  1  0  0  0
 22 23  1  0  0  0  0
 23 24  1  0  0  0  0
 24 25  1  0  0  0  0
 25 26  1  0  0  0  0
 26 27  1  0  0  0  0
 27 22  1  0  0  0  0
 24 28  1  1  0  0  0
 26 29  1  1  0  0  0
 25 30  1  6  0  0  0
 27 31  1  6  0  0  0
 28 32  1  0  0  0  0
 14 33  1  0  0  0  0
 34 35  1  0  0  0  0
 35 36  1  0  0  0  0
 36 37  1  0  0  0  0
 37 38  1  0  0  0  0
 38 39  1  0  0  0  0
 39 34  1  0  0  0  0
 36 40  1  1  0  0  0
 38 41  1  1  0  0  0
 37 42  1  1  0  0  0
 39 43  1  6  0  0  0
 40 44  1  0  0  0  0
 34 31  1  1  0  0  0
 45 46  1  0  0  0  0
 46 47  1  0  0  0  0
 47 48  1  0  0  0  0
 48 49  1  0  0  0  0
 49 50  1  0  0  0  0
 50 45  1  0  0  0  0
 47 51  1  1  0  0  0
 49 52  1  1  0  0  0
 48 53  1  6  0  0  0
 50 54  1  6  0  0  0
 51 55  1  0  0  0  0
 45 43  1  1  0  0  0
 56 57  2  0  0  0  0
 57 58  1  0  0  0  0
 58 59  2  0  0  0  0
 59 60  1  0  0  0  0
 60 61  2  0  0  0  0
 61 56  1  0  0  0  0
 60 62  1  0  0  0  0
 59 63  1  0  0  0  0
 63 64  1  0  0  0  0
 57 65  1  0  0  0  0
 65 66  2  0  0  0  0
 66 67  1  0  0  0  0
 67 68  2  0  0  0  0
 67 55  1  0  0  0  0
M  END
>  <cdx:fragmentId>
5

$$$$
