94710.cdx
  Mrv1902 05222410272D          

 37 40  0  0  0  0            999 V2000
    2.5693   -7.9888    0.0000 O   0  0  0  0  0  0  0  0  0  0  0  0
    3.2838   -8.4013    0.0000 C   0  0  2  0  0  0  0  0  0  0  0  0
    3.9982   -7.9888    0.0000 C   0  0  1  0  0  0  0  0  0  0  0  0
    3.9982   -7.1638    0.0000 C   0  0  0  0  0  0  0  0  0  0  0  0
    3.2838   -6.7512    0.0000 O   0  0  0  0  0  0  0  0  0  0  0  0
    3.2838   -9.2263    0.0000 C   0  0  1  0  0  0  0  0  0  0  0  0
    3.9982   -9.6387    0.0000 C   0  0  2  0  0  0  0  0  0  0  0  0
    4.7127   -9.2263    0.0000 C   0  0  1  0  0  0  0  0  0  0  0  0
    4.7127   -8.4013    0.0000 O   0  0  0  0  0  0  0  0  0  0  0  0
    5.4272   -9.6387    0.0000 O   0  0  0  0  0  0  0  0  0  0  0  0
    6.1417   -9.2263    0.0000 C   0  0  0  0  0  0  0  0  0  0  0  0
    6.1417   -8.4013    0.0000 C   0  0  0  0  0  0  0  0  0  0  0  0
    6.8561   -9.6387    0.0000 C   0  0  0  0  0  0  0  0  0  0  0  0
    7.5706   -9.2263    0.0000 C   0  0  0  0  0  0  0  0  0  0  0  0
    7.5706   -8.4013    0.0000 C   0  0  0  0  0  0  0  0  0  0  0  0
    6.8561   -7.9888    0.0000 C   0  0  0  0  0  0  0  0  0  0  0  0
    8.9995   -9.2263    0.0000 C   0  0  0  0  0  0  0  0  0  0  0  0
    8.9995   -8.4013    0.0000 C   0  0  2  0  0  0  0  0  0  0  0  0
    8.2851   -7.9888    0.0000 C   0  0  0  0  0  0  0  0  0  0  0  0
    9.7842   -9.4812    0.0000 O   0  0  0  0  0  0  0  0  0  0  0  0
   10.2691   -8.8138    0.0000 C   0  0  0  0  0  0  0  0  0  0  0  0
    9.7842   -8.1463    0.0000 C   0  0  2  0  0  0  0  0  0  0  0  0
   10.0391   -7.3617    0.0000 C   0  0  0  0  0  0  0  0  0  0  0  0
    9.4871   -6.7486    0.0000 C   0  0  0  0  0  0  0  0  0  0  0  0
    9.7420   -5.9640    0.0000 C   0  0  0  0  0  0  0  0  0  0  0  0
    9.1900   -5.3509    0.0000 C   0  0  0  0  0  0  0  0  0  0  0  0
    8.3830   -5.5224    0.0000 C   0  0  0  0  0  0  0  0  0  0  0  0
    8.1281   -6.3070    0.0000 C   0  0  0  0  0  0  0  0  0  0  0  0
    8.6801   -6.9201    0.0000 C   0  0  0  0  0  0  0  0  0  0  0  0
    6.8561  -10.4637    0.0000 O   0  0  0  0  0  0  0  0  0  0  0  0
    6.1417  -10.8762    0.0000 C   0  0  0  0  0  0  0  0  0  0  0  0
   11.0941   -8.8138    0.0000 O   0  0  0  0  0  0  0  0  0  0  0  0
    7.8310   -4.9093    0.0000 O   0  0  0  0  0  0  0  0  0  0  0  0
    9.4449   -4.5663    0.0000 O   0  0  0  0  0  0  0  0  0  0  0  0
   10.2418   -4.3527    0.0000 C   0  0  0  0  0  0  0  0  0  0  0  0
    2.5693   -9.6387    0.0000 O   0  0  0  0  0  0  0  0  0  0  0  0
    3.9982  -10.4637    0.0000 O   0  0  0  0  0  0  0  0  0  0  0  0
  2  1  1  6  0  0  0
  2  3  1  0  0  0  0
  3  4  1  1  0  0  0
  4  5  1  0  0  0  0
  2  6  1  0  0  0  0
  6  7  1  0  0  0  0
  7  8  1  0  0  0  0
  8  9  1  0  0  0  0
  9  3  1  0  0  0  0
  8 10  1  1  0  0  0
 10 11  1  0  0  0  0
 11 12  2  0  0  0  0
 11 13  1  0  0  0  0
 13 14  2  0  0  0  0
 14 15  1  0  0  0  0
 15 16  2  0  0  0  0
 16 12  1  0  0  0  0
 17 18  1  0  0  0  0
 18 19  1  6  0  0  0
 19 15  1  0  0  0  0
 17 20  1  0  0  0  0
 20 21  1  0  0  0  0
 21 22  1  0  0  0  0
 22 18  1  0  0  0  0
 22 23  1  1  0  0  0
 23 24  1  0  0  0  0
 24 25  2  0  0  0  0
 25 26  1  0  0  0  0
 26 27  2  0  0  0  0
 27 28  1  0  0  0  0
 28 29  2  0  0  0  0
 29 24  1  0  0  0  0
 13 30  1  0  0  0  0
 30 31  1  0  0  0  0
 21 32  2  0  0  0  0
 27 33  1  0  0  0  0
 26 34  1  0  0  0  0
 34 35  1  0  0  0  0
  6 36  1  1  0  0  0
  7 37  1  6  0  0  0
M  END
>  <cdx:fragmentId>
5

$$$$
