94717.cdx
  Mrv1902 05222410262D          

 23 25  0  0  0  0            999 V2000
    7.5529   -8.2585    0.0000 C   0  0  0  0  0  0  0  0  0  0  0  0
    7.5529   -9.0835    0.0000 C   0  0  0  0  0  0  0  0  0  0  0  0
    8.2674   -9.4960    0.0000 O   0  0  0  0  0  0  0  0  0  0  0  0
    6.8384   -9.4960    0.0000 C   0  0  0  0  0  0  0  0  0  0  0  0
    6.8384  -10.3210    0.0000 O   0  0  0  0  0  0  0  0  0  0  0  0
    6.1239   -9.0835    0.0000 C   0  0  0  0  0  0  0  0  0  0  0  0
    5.4095   -9.4960    0.0000 C   0  0  0  0  0  0  0  0  0  0  0  0
    5.4095  -10.3210    0.0000 O   0  0  0  0  0  0  0  0  0  0  0  0
    4.6950   -9.0835    0.0000 C   0  0  0  0  0  0  0  0  0  0  0  0
    4.6950   -8.2585    0.0000 C   0  0  0  0  0  0  0  0  0  0  0  0
    3.9805   -7.8460    0.0000 O   0  0  0  0  0  0  0  0  0  0  0  0
    5.4095   -7.8460    0.0000 C   0  0  0  0  0  0  0  0  0  0  0  0
    6.1239   -8.2585    0.0000 C   0  0  0  0  0  0  0  0  0  0  0  0
    6.8384   -7.8460    0.0000 O   0  0  0  0  0  0  0  0  0  0  0  0
    8.2674   -7.8460    0.0000 C   0  0  0  0  0  0  0  0  0  0  0  0
    8.2674   -7.0210    0.0000 C   0  0  0  0  0  0  0  0  0  0  0  0
    8.9818   -6.6085    0.0000 C   0  0  0  0  0  0  0  0  0  0  0  0
    9.6963   -7.0210    0.0000 C   0  0  0  0  0  0  0  0  0  0  0  0
   10.4108   -6.6085    0.0000 O   0  0  0  0  0  0  0  0  0  0  0  0
    9.6963   -7.8460    0.0000 C   0  0  0  0  0  0  0  0  0  0  0  0
    8.9818   -8.2585    0.0000 C   0  0  0  0  0  0  0  0  0  0  0  0
    5.4095   -7.0210    0.0000 O   0  0  0  0  0  0  0  0  0  0  0  0
    4.6950   -6.6085    0.0000 C   0  0  0  0  0  0  0  0  0  0  0  0
  1  2  2  0  0  0  0
  2  3  1  0  0  0  0
  2  4  1  0  0  0  0
  4  5  2  0  0  0  0
  4  6  1  0  0  0  0
  6  7  1  0  0  0  0
  7  8  1  0  0  0  0
  7  9  2  0  0  0  0
  9 10  1  0  0  0  0
 10 11  1  0  0  0  0
 10 12  2  0  0  0  0
 12 13  1  0  0  0  0
  6 13  2  0  0  0  0
 13 14  1  0  0  0  0
  1 14  1  0  0  0  0
  1 15  1  0  0  0  0
 15 16  1  0  0  0  0
 16 17  2  0  0  0  0
 17 18  1  0  0  0  0
 18 19  1  0  0  0  0
 18 20  2  0  0  0  0
 20 21  1  0  0  0  0
 15 21  2  0  0  0  0
 22 23  1  0  0  0  0
 12 22  1  0  0  0  0
M  END
>  <cdx:groupId>
73

>  <cdx:fragmentId>
5

$$$$
