94715.cdx
  Mrv1902 05222410272D          

 13 13  0  0  0  0            999 V2000
    4.5474   -3.1839    0.0000 O   0  0  0  0  0  0  0  0  0  0  0  0
    5.2619   -3.5964    0.0000 C   0  0  1  0  0  0  0  0  0  0  0  0
    5.2619   -4.4214    0.0000 C   0  0  2  0  0  0  0  0  0  0  0  0
    4.5474   -4.8339    0.0000 C   0  0  1  0  0  0  0  0  0  0  0  0
    3.8329   -4.4214    0.0000 C   0  0  2  0  0  0  0  0  0  0  0  0
    3.8329   -3.5964    0.0000 C   0  0  0  0  0  0  0  0  0  0  0  0
    5.9763   -3.1839    0.0000 C   0  0  0  0  0  0  0  0  0  0  0  0
    5.9763   -2.3589    0.0000 O   0  0  0  0  0  0  0  0  0  0  0  0
    6.6908   -3.5964    0.0000 O   0  0  0  0  0  0  0  0  0  0  0  0
    3.1184   -3.1839    0.0000 O   0  0  0  0  0  0  0  0  0  0  0  0
    3.1184   -4.8339    0.0000 O   0  0  0  0  0  0  0  0  0  0  0  0
    4.5474   -5.6589    0.0000 O   0  0  0  0  0  0  0  0  0  0  0  0
    5.9763   -4.8339    0.0000 O   0  0  0  0  0  0  0  0  0  0  0  0
  1  2  1  0  0  0  0
  2  3  1  0  0  0  0
  3  4  1  0  0  0  0
  4  5  1  0  0  0  0
  5  6  1  0  0  0  0
  1  6  1  0  0  0  0
  7  8  2  0  0  0  0
  7  9  1  0  0  0  0
  2  7  1  6  0  0  0
  6 10  1  0  0  0  0
  5 11  1  1  0  0  0
  4 12  1  6  0  0  0
  3 13  1  1  0  0  0
M  END
>  <cdx:groupId>
41

>  <cdx:fragmentId>
5

$$$$
