94727.cdx
  Mrv1902 05222410202D          

 13 15  0  0  0  0            999 V2000
    7.0621   -8.0914    0.0000 C   0  0  1  0  0  0  0  0  0  0  0  0
    7.6815   -7.5782    0.0000 C   0  0  1  0  0  0  0  0  0  0  0  0
    8.0809   -6.8800    0.0000 C   0  0  0  0  0  0  0  0  0  0  0  0
    7.5794   -6.2511    0.0000 C   0  0  0  0  0  0  0  0  0  0  0  0
    6.8097   -6.4850    0.0000 C   0  0  1  0  0  0  0  0  0  0  0  0
    6.1711   -6.9742    0.0000 C   0  0  2  0  0  0  0  0  0  0  0  0
    5.5261   -7.4885    0.0000 C   0  0  0  0  0  0  0  0  0  0  0  0
    5.6491   -8.3043    0.0000 C   0  0  0  0  0  0  0  0  0  0  0  0
    6.4171   -8.6057    0.0000 C   0  0  0  0  0  0  0  0  0  0  0  0
    6.9391   -7.2756    0.0000 C   0  0  0  0  0  0  0  0  0  0  0  0
    7.5567   -6.7836    0.0000 C   0  0  0  0  0  0  0  0  0  0  0  0
    6.2485   -7.8016    0.0000 O   0  0  0  0  0  0  0  0  0  0  0  0
    6.3972   -5.7706    0.0000 C   0  0  0  0  0  0  0  0  0  0  0  0
  1  2  1  0  0  0  0
  2  3  1  0  0  0  0
  3  4  2  0  0  0  0
  4  5  1  0  0  0  0
  5  6  1  0  0  0  0
  6  7  1  0  0  0  0
  7  8  1  0  0  0  0
  8  9  1  0  0  0  0
  1  9  1  0  0  0  0
  1 10  1  6  0  0  0
  6 10  1  6  0  0  0
  5 11  1  1  0  0  0
  2 11  1  1  0  0  0
 10 12  2  0  0  0  0
  5 13  1  0  0  0  0
M  END
>  <cdx:fragmentId>
5

$$$$
