94722.cdx
  Mrv1902 05222410182D          

 32 35  0  0  0  0            999 V2000
    4.2193   -8.9513    0.0000 C   0  0  0  0  0  0  0  0  0  0  0  0
    4.2193   -9.7763    0.0000 C   0  0  0  0  0  0  0  0  0  0  0  0
    4.9338  -10.1888    0.0000 C   0  0  0  0  0  0  0  0  0  0  0  0
    5.6482   -9.7763    0.0000 C   0  0  0  0  0  0  0  0  0  0  0  0
    5.6482   -8.9513    0.0000 C   0  0  0  0  0  0  0  0  0  0  0  0
    4.9338   -8.5388    0.0000 C   0  0  0  0  0  0  0  0  0  0  0  0
    6.3627  -10.1888    0.0000 C   0  0  0  0  0  0  0  0  0  0  0  0
    7.0772   -9.7763    0.0000 C   0  0  0  0  0  0  0  0  0  0  0  0
    7.0772   -8.9513    0.0000 C   0  0  0  0  0  0  0  0  0  0  0  0
    6.3627   -8.5388    0.0000 O   0  0  0  0  0  0  0  0  0  0  0  0
    6.3627  -11.0137    0.0000 O   0  0  0  0  0  0  0  0  0  0  0  0
    7.7917  -11.0137    0.0000 C   0  0  0  0  0  0  0  0  0  0  0  0
    7.7917  -10.1888    0.0000 C   0  0  0  0  0  0  0  0  0  0  0  0
    8.5061  -11.4262    0.0000 C   0  0  0  0  0  0  0  0  0  0  0  0
    9.2206  -11.0137    0.0000 C   0  0  0  0  0  0  0  0  0  0  0  0
    9.2206  -10.1888    0.0000 C   0  0  0  0  0  0  0  0  0  0  0  0
    8.5061   -9.7763    0.0000 C   0  0  0  0  0  0  0  0  0  0  0  0
    3.5048   -8.5388    0.0000 O   0  0  0  0  0  0  0  0  0  0  0  0
    9.9351  -11.4262    0.0000 O   0  0  0  0  0  0  0  0  0  0  0  0
    9.9351   -9.7763    0.0000 O   0  0  0  0  0  0  0  0  0  0  0  0
   10.6495  -10.1888    0.0000 C   0  0  0  0  0  0  0  0  0  0  0  0
    4.9338   -7.7138    0.0000 C   0  0  1  0  0  0  0  0  0  0  0  0
    5.6012   -7.2288    0.0000 O   0  0  0  0  0  0  0  0  0  0  0  0
    5.3463   -6.4442    0.0000 C   0  0  0  0  0  0  0  0  0  0  0  0
    4.5213   -6.4442    0.0000 C   0  0  1  0  0  0  0  0  0  0  0  0
    4.2663   -7.2288    0.0000 C   0  0  1  0  0  0  0  0  0  0  0  0
    3.4817   -7.4838    0.0000 O   0  0  0  0  0  0  0  0  0  0  0  0
    4.0364   -5.7768    0.0000 O   0  0  0  0  0  0  0  0  0  0  0  0
    5.8312   -5.7768    0.0000 C   0  0  1  0  0  0  0  0  0  0  0  0
    5.4956   -5.0231    0.0000 C   0  0  0  0  0  0  0  0  0  0  0  0
    5.9806   -4.3557    0.0000 O   0  0  0  0  0  0  0  0  0  0  0  0
    6.6517   -5.8630    0.0000 O   0  0  0  0  0  0  0  0  0  0  0  0
  1  2  2  0  0  0  0
  2  3  1  0  0  0  0
  3  4  2  0  0  0  0
  4  5  1  0  0  0  0
  5  6  2  0  0  0  0
  6  1  1  0  0  0  0
  4  7  1  0  0  0  0
  7  8  1  0  0  0  0
  8  9  2  0  0  0  0
  9 10  1  0  0  0  0
 10  5  1  0  0  0  0
  7 11  2  0  0  0  0
 12 13  2  0  0  0  0
 13  8  1  0  0  0  0
 12 14  1  0  0  0  0
 14 15  2  0  0  0  0
 15 16  1  0  0  0  0
 16 17  2  0  0  0  0
 17 13  1  0  0  0  0
  1 18  1  0  0  0  0
 15 19  1  0  0  0  0
 16 20  1  0  0  0  0
 20 21  1  0  0  0  0
 22  6  1  6  0  0  0
 22 23  1  0  0  0  0
 23 24  1  0  0  0  0
 24 25  1  0  0  0  0
 25 26  1  0  0  0  0
 26 22  1  0  0  0  0
 26 27  1  6  0  0  0
 25 28  1  1  0  0  0
 24 29  1  0  0  0  0
 29 30  1  0  0  0  0
 30 31  1  0  0  0  0
 29 32  1  1  0  0  0
M  END
>  <cdx:fragmentId>
5

$$$$
