94724.cdx
  Mrv1902 05222410192D          

 15 16  0  0  0  0            999 V2000
    8.6212   -7.8375    0.0000 C   0  0  0  0  0  0  0  0  0  0  0  0
    9.3356   -8.2500    0.0000 C   0  0  0  0  0  0  0  0  0  0  0  0
    9.3356   -9.0750    0.0000 C   0  0  0  0  0  0  0  0  0  0  0  0
    8.6212   -9.4875    0.0000 C   0  0  0  0  0  0  0  0  0  0  0  0
    7.9067   -9.0750    0.0000 C   0  0  0  0  0  0  0  0  0  0  0  0
    7.1922   -9.4875    0.0000 C   0  0  0  0  0  0  0  0  0  0  0  0
    6.4777   -9.0750    0.0000 C   0  0  0  0  0  0  0  0  0  0  0  0
    6.4777   -8.2500    0.0000 C   0  0  0  0  0  0  0  0  0  0  0  0
    7.1922   -7.8375    0.0000 C   0  0  0  0  0  0  0  0  0  0  0  0
    7.9067   -8.2500    0.0000 C   0  0  0  0  0  0  0  0  0  0  0  0
    5.7633   -7.8375    0.0000 C   0  0  0  0  0  0  0  0  0  0  0  0
    5.7633   -7.0125    0.0000 C   0  0  0  0  0  0  0  0  0  0  0  0
    5.0488   -8.2500    0.0000 C   0  0  0  0  0  0  0  0  0  0  0  0
    8.6212   -7.0125    0.0000 C   0  0  0  0  0  0  0  0  0  0  0  0
    7.9067   -9.9000    0.0000 C   0  0  0  0  0  0  0  0  0  0  0  0
  1  2  1  0  0  0  0
  2  3  1  0  0  0  0
  3  4  1  0  0  0  0
  4  5  1  0  0  0  0
  5  6  1  0  0  0  0
  6  7  1  0  0  0  0
  7  8  1  0  0  0  0
  8  9  1  0  0  0  0
  9 10  1  0  0  0  0
  1 10  1  0  0  0  0
  5 10  1  0  0  0  0
 11 12  2  0  0  0  0
 11 13  1  0  0  0  0
  8 11  1  0  0  0  0
  1 14  2  0  0  0  0
  5 15  1  0  0  0  0
M  END
>  <cdx:groupId>
48

>  <cdx:fragmentId>
5

$$$$
