94720.cdx
  Mrv1902 05222410192D          

 49 54  0  0  0  0            999 V2000
    7.8585   -7.0400    0.0000 C   0  0  2  0  0  0  0  0  0  0  0  0
    7.8585   -7.8650    0.0000 C   0  0  2  0  0  0  0  0  0  0  0  0
    8.5035   -8.3794    0.0000 C   0  0  1  0  0  0  0  0  0  0  0  0
    9.3078   -8.1958    0.0000 C   0  0  1  0  0  0  0  0  0  0  0  0
    9.6657   -7.4525    0.0000 C   0  0  2  0  0  0  0  0  0  0  0  0
    9.3078   -6.7092    0.0000 C   0  0  2  0  0  0  0  0  0  0  0  0
    8.5035   -6.5256    0.0000 C   0  0  2  0  0  0  0  0  0  0  0  0
    9.8689   -6.1044    0.0000 C   0  0  2  0  0  0  0  0  0  0  0  0
    9.6258   -5.3161    0.0000 C   0  0  2  0  0  0  0  0  0  0  0  0
    8.8214   -5.1325    0.0000 C   0  0  0  0  0  0  0  0  0  0  0  0
    8.2603   -5.7373    0.0000 C   0  0  1  0  0  0  0  0  0  0  0  0
   10.6938   -6.1044    0.0000 O   0  0  0  0  0  0  0  0  0  0  0  0
   10.9605   -5.3161    0.0000 C   0  0  0  0  0  0  0  0  0  0  0  0
   10.3004   -4.8212    0.0000 O   0  0  0  0  0  0  0  0  0  0  0  0
    7.0738   -6.7851    0.0000 C   0  0  0  0  0  0  0  0  0  0  0  0
    6.5889   -7.4525    0.0000 C   0  0  1  0  0  0  0  0  0  0  0  0
    7.0738   -8.1199    0.0000 C   0  0  2  0  0  0  0  0  0  0  0  0
    5.7639   -7.4525    0.0000 C   0  0  0  0  0  0  0  0  0  0  0  0
    7.6449   -8.6619    0.0000 O   0  0  0  0  0  0  0  0  0  0  0  0
    8.3199   -9.1837    0.0000 O   0  0  0  0  0  0  0  0  0  0  0  0
    9.5213   -8.9927    0.0000 O   0  0  0  0  0  0  0  0  0  0  0  0
   10.1047   -6.9227    0.0000 H   0  0  0  0  0  0  0  0  0  0  0  0
    7.6449   -6.2431    0.0000 H   0  0  0  0  0  0  0  0  0  0  0  0
    9.0868   -5.9423    0.0000 O   0  0  0  0  0  0  0  0  0  0  0  0
    7.4560   -5.5537    0.0000 C   0  0  0  0  0  0  0  0  0  0  0  0
   10.4907   -7.4525    0.0000 O   0  0  0  0  0  0  0  0  0  0  0  0
   10.1047   -8.4093    0.0000 C   0  0  0  0  0  0  0  0  0  0  0  0
   11.7485   -5.0717    0.0000 C   0  0  0  0  0  0  0  0  0  0  0  0
   12.3541   -5.6320    0.0000 C   0  0  0  0  0  0  0  0  0  0  0  0
   13.1421   -5.3877    0.0000 C   0  0  0  0  0  0  0  0  0  0  0  0
   13.3244   -4.5831    0.0000 C   0  0  0  0  0  0  0  0  0  0  0  0
   12.7188   -4.0228    0.0000 C   0  0  0  0  0  0  0  0  0  0  0  0
   11.9309   -4.2672    0.0000 C   0  0  0  0  0  0  0  0  0  0  0  0
   10.5172   -9.1238    0.0000 O   0  0  0  0  0  0  0  0  0  0  0  0
    1.1038  -13.1764    0.0000 C   0  0  0  0  0  0  0  0  0  0  0  0
    1.4292  -12.4183    0.0000 C   0  0  0  0  0  0  0  0  0  0  0  0
    2.2484  -12.3211    0.0000 C   0  0  0  0  0  0  0  0  0  0  0  0
    2.5738  -11.5629    0.0000 C   0  0  0  0  0  0  0  0  0  0  0  0
    3.3931  -11.4657    0.0000 C   0  0  0  0  0  0  0  0  0  0  0  0
    3.7185  -10.7076    0.0000 C   0  0  0  0  0  0  0  0  0  0  0  0
    4.5377  -10.6103    0.0000 C   0  0  0  0  0  0  0  0  0  0  0  0
    4.8631   -9.8522    0.0000 C   0  0  0  0  0  0  0  0  0  0  0  0
    5.5139   -8.3359    0.0000 O   0  0  0  0  0  0  0  0  0  0  0  0
    5.6824   -9.7549    0.0000 C   0  0  0  0  0  0  0  0  0  0  0  0
    6.0078   -8.9968    0.0000 C   0  0  0  0  0  0  0  0  0  0  0  0
    6.8189   -8.9046    0.0000 O   0  0  0  0  0  0  0  0  0  0  0  0
    9.6258   -4.4911    0.0000 C   0  0  0  0  0  0  0  0  0  0  0  0
    8.9113   -4.0786    0.0000 C   0  0  0  0  0  0  0  0  0  0  0  0
   10.3402   -4.0786    0.0000 C   0  0  0  0  0  0  0  0  0  0  0  0
  1  2  1  0  0  0  0
  2  3  1  0  0  0  0
  3  4  1  0  0  0  0
  4  5  1  0  0  0  0
  5  6  1  0  0  0  0
  6  7  1  0  0  0  0
  7  1  1  0  0  0  0
  6  8  1  0  0  0  0
  8  9  1  0  0  0  0
  9 10  1  0  0  0  0
 10 11  1  0  0  0  0
 11  7  1  0  0  0  0
  8 12  1  6  0  0  0
 12 13  1  0  0  0  0
 13 14  1  0  0  0  0
  9 14  1  6  0  0  0
  1 15  1  0  0  0  0
 15 16  1  0  0  0  0
 16 17  1  0  0  0  0
 17  2  1  0  0  0  0
 16 18  1  1  0  0  0
 45 46  1  0  0  0  0
 17 46  1  1  0  0  0
  2 19  1  1  0  0  0
  3 20  1  1  0  0  0
  4 21  1  1  0  0  0
  6 22  1  1  0  0  0
  1 23  1  6  0  0  0
  7 24  1  6  0  0  0
 11 25  1  6  0  0  0
  5 26  1  6  0  0  0
  4 27  1  6  0  0  0
 24 13  1  0  0  0  0
 13 28  1  0  0  0  0
 28 29  2  0  0  0  0
 29 30  1  0  0  0  0
 30 31  2  0  0  0  0
 31 32  1  0  0  0  0
 32 33  2  0  0  0  0
 33 28  1  0  0  0  0
 27 34  1  0  0  0  0
 36 35  1  0  0  0  0
 37 36  1  0  0  0  0
 38 37  1  0  0  0  0
 39 38  1  0  0  0  0
 40 39  1  0  0  0  0
 41 40  2  0  0  0  0
 42 41  1  0  0  0  0
 44 42  2  0  0  0  0
 45 43  2  0  0  0  0
 45 44  1  0  0  0  0
  9 47  1  0  0  0  0
 47 48  1  0  0  0  0
 47 49  2  0  0  0  0
M  END
>  <cdx:fragmentId>
5

$$$$
