94726.cdx
  Mrv1902 05222410202D          

 15 15  0  0  0  0            999 V2000
    6.7757   -7.1912    0.0000 C   0  0  0  0  0  0  0  0  0  0  0  0
    7.6007   -7.1912    0.0000 C   0  0  0  0  0  0  0  0  0  0  0  0
    8.0132   -7.9057    0.0000 C   0  0  0  0  0  0  0  0  0  0  0  0
    7.6007   -8.6201    0.0000 C   0  0  0  0  0  0  0  0  0  0  0  0
    8.1150   -9.2651    0.0000 C   0  0  0  0  0  0  0  0  0  0  0  0
    7.9315  -10.0694    0.0000 C   0  0  0  0  0  0  0  0  0  0  0  0
    7.1882  -10.4274    0.0000 C   0  0  0  0  0  0  0  0  0  0  0  0
    6.4449  -10.0694    0.0000 C   0  0  0  0  0  0  0  0  0  0  0  0
    6.2613   -9.2651    0.0000 C   0  0  0  0  0  0  0  0  0  0  0  0
    6.7757   -8.6201    0.0000 C   0  0  0  0  0  0  0  0  0  0  0  0
    6.3632   -7.9057    0.0000 C   0  0  0  0  0  0  0  0  0  0  0  0
    5.4729   -9.5083    0.0000 C   0  0  0  0  0  0  0  0  0  0  0  0
    5.6565   -8.7040    0.0000 C   0  0  0  0  0  0  0  0  0  0  0  0
    8.9194   -9.0816    0.0000 C   0  0  0  0  0  0  0  0  0  0  0  0
    6.3632   -6.4767    0.0000 C   0  0  0  0  0  0  0  0  0  0  0  0
  1  2  2  0  0  0  0
  2  3  1  0  0  0  0
  3  4  1  0  0  0  0
  4  5  2  0  0  0  0
  5  6  1  0  0  0  0
  6  7  1  0  0  0  0
  7  8  2  0  0  0  0
  8  9  1  0  0  0  0
  9 10  1  0  0  0  0
 10 11  1  0  0  0  0
  1 11  1  0  0  0  0
  9 12  1  0  0  0  0
  9 13  1  0  0  0  0
  5 14  1  0  0  0  0
  1 15  1  0  0  0  0
M  END
>  <cdx:groupId>
47

>  <cdx:fragmentId>
5

$$$$
