94729.cdx
  Mrv1902 05222410272D          

 11 12  0  0  0  0            999 V2000
    6.9560   -8.0358    0.0000 C   0  0  0  0  0  0  0  0  0  0  0  0
    7.6705   -8.4483    0.0000 C   0  0  0  0  0  0  0  0  0  0  0  0
    7.6705   -9.2733    0.0000 C   0  0  0  0  0  0  0  0  0  0  0  0
    6.9560   -9.6858    0.0000 C   0  0  0  0  0  0  0  0  0  0  0  0
    6.2416   -9.2733    0.0000 C   0  0  0  0  0  0  0  0  0  0  0  0
    6.2416   -8.4483    0.0000 C   0  0  0  0  0  0  0  0  0  0  0  0
    6.6204   -8.8612    0.0000 C   0  0  0  0  0  0  0  0  0  0  0  0
    8.3850   -8.0358    0.0000 O   0  0  0  0  0  0  0  0  0  0  0  0
    5.9060   -9.2737    0.0000 C   0  0  0  0  0  0  0  0  0  0  0  0
    5.9060   -8.4487    0.0000 C   0  0  0  0  0  0  0  0  0  0  0  0
    6.9560   -7.2108    0.0000 C   0  0  0  0  0  0  0  0  0  0  0  0
  1  2  1  0  0  0  0
  2  3  1  0  0  0  0
  3  4  1  0  0  0  0
  4  5  1  0  0  0  0
  5  6  2  0  0  0  0
  1  6  1  0  0  0  0
  1  7  1  0  0  0  0
  7  4  1  0  0  0  0
  2  8  2  0  0  0  0
  7  9  1  0  0  0  0
  7 10  1  0  0  0  0
  1 11  1  0  0  0  0
M  END
>  <cdx:groupId>
36

>  <cdx:fragmentId>
5

$$$$
