94721.cdx
  Mrv1902 05222410182D          

 46 52  0  0  0  0            999 V2000
    5.9335   -8.4425    0.0000 C   0  0  2  0  0  0  0  0  0  0  0  0
    5.9335   -9.2675    0.0000 C   0  0  2  0  0  0  0  0  0  0  0  0
    6.5785   -9.7819    0.0000 C   0  0  1  0  0  0  0  0  0  0  0  0
    7.3828   -9.5983    0.0000 C   0  0  1  0  0  0  0  0  0  0  0  0
    7.7407   -8.8550    0.0000 C   0  0  2  0  0  0  0  0  0  0  0  0
    7.3828   -8.1117    0.0000 C   0  0  2  0  0  0  0  0  0  0  0  0
    6.5785   -7.9281    0.0000 C   0  0  2  0  0  0  0  0  0  0  0  0
    7.9439   -7.5069    0.0000 C   0  0  2  0  0  0  0  0  0  0  0  0
    7.7008   -6.7186    0.0000 C   0  0  2  0  0  0  0  0  0  0  0  0
    6.8964   -6.5350    0.0000 C   0  0  0  0  0  0  0  0  0  0  0  0
    6.3353   -7.1398    0.0000 C   0  0  1  0  0  0  0  0  0  0  0  0
    8.7688   -7.5069    0.0000 O   0  0  0  0  0  0  0  0  0  0  0  0
    9.0355   -6.7186    0.0000 C   0  0  0  0  0  0  0  0  0  0  0  0
    8.3754   -6.2237    0.0000 O   0  0  0  0  0  0  0  0  0  0  0  0
    5.1488   -8.1876    0.0000 C   0  0  0  0  0  0  0  0  0  0  0  0
    4.6639   -8.8550    0.0000 C   0  0  1  0  0  0  0  0  0  0  0  0
    5.1488   -9.5224    0.0000 C   0  0  2  0  0  0  0  0  0  0  0  0
    3.8389   -8.8550    0.0000 C   0  0  0  0  0  0  0  0  0  0  0  0
    4.8939  -10.3071    0.0000 O   0  0  0  0  0  0  0  0  0  0  0  0
    5.7199  -10.0644    0.0000 O   0  0  0  0  0  0  0  0  0  0  0  0
    6.3949  -10.5862    0.0000 O   0  0  0  0  0  0  0  0  0  0  0  0
    7.5963  -10.3952    0.0000 O   0  0  0  0  0  0  0  0  0  0  0  0
    8.1797   -8.3252    0.0000 H   0  0  0  0  0  0  0  0  0  0  0  0
    5.7199   -7.6456    0.0000 H   0  0  0  0  0  0  0  0  0  0  0  0
    7.1618   -7.3448    0.0000 O   0  0  0  0  0  0  0  0  0  0  0  0
    5.5310   -6.9562    0.0000 C   0  0  0  0  0  0  0  0  0  0  0  0
    8.5657   -8.8550    0.0000 O   0  0  0  0  0  0  0  0  0  0  0  0
    8.1797   -9.8118    0.0000 C   0  0  0  0  0  0  0  0  0  0  0  0
    9.8235   -6.4742    0.0000 C   0  0  0  0  0  0  0  0  0  0  0  0
   10.4291   -7.0345    0.0000 C   0  0  0  0  0  0  0  0  0  0  0  0
   11.2171   -6.7902    0.0000 C   0  0  0  0  0  0  0  0  0  0  0  0
   11.3994   -5.9856    0.0000 C   0  0  0  0  0  0  0  0  0  0  0  0
   10.7938   -5.4253    0.0000 C   0  0  0  0  0  0  0  0  0  0  0  0
   10.0059   -5.6697    0.0000 C   0  0  0  0  0  0  0  0  0  0  0  0
    8.5922  -10.5263    0.0000 O   0  0  0  0  0  0  0  0  0  0  0  0
    4.0869  -10.4786    0.0000 C   0  0  0  0  0  0  0  0  0  0  0  0
    3.5349   -9.8655    0.0000 O   0  0  0  0  0  0  0  0  0  0  0  0
    3.8320  -11.2632    0.0000 C   0  0  0  0  0  0  0  0  0  0  0  0
    3.0250  -11.4347    0.0000 C   0  0  0  0  0  0  0  0  0  0  0  0
    2.7701  -12.2194    0.0000 C   0  0  0  0  0  0  0  0  0  0  0  0
    3.3221  -12.8325    0.0000 C   0  0  0  0  0  0  0  0  0  0  0  0
    4.1291  -12.6609    0.0000 C   0  0  0  0  0  0  0  0  0  0  0  0
    4.3840  -11.8763    0.0000 C   0  0  0  0  0  0  0  0  0  0  0  0
    7.7008   -5.8936    0.0000 C   0  0  0  0  0  0  0  0  0  0  0  0
    6.9863   -5.4811    0.0000 C   0  0  0  0  0  0  0  0  0  0  0  0
    8.4152   -5.4811    0.0000 C   0  0  0  0  0  0  0  0  0  0  0  0
  1  2  1  0  0  0  0
  2  3  1  0  0  0  0
  3  4  1  0  0  0  0
  4  5  1  0  0  0  0
  5  6  1  0  0  0  0
  6  7  1  0  0  0  0
  7  1  1  0  0  0  0
  6  8  1  0  0  0  0
  8  9  1  0  0  0  0
  9 10  1  0  0  0  0
 10 11  1  0  0  0  0
 11  7  1  0  0  0  0
  8 12  1  6  0  0  0
 12 13  1  0  0  0  0
 13 14  1  0  0  0  0
  9 14  1  6  0  0  0
  1 15  1  0  0  0  0
 15 16  1  0  0  0  0
 16 17  1  0  0  0  0
 17  2  1  0  0  0  0
 16 18  1  1  0  0  0
 17 19  1  1  0  0  0
  2 20  1  1  0  0  0
  3 21  1  1  0  0  0
  4 22  1  1  0  0  0
  6 23  1  1  0  0  0
  1 24  1  6  0  0  0
  7 25  1  6  0  0  0
 11 26  1  6  0  0  0
  5 27  1  6  0  0  0
  4 28  1  6  0  0  0
 25 13  1  0  0  0  0
 13 29  1  0  0  0  0
 29 30  2  0  0  0  0
 30 31  1  0  0  0  0
 31 32  2  0  0  0  0
 32 33  1  0  0  0  0
 33 34  2  0  0  0  0
 34 29  1  0  0  0  0
 28 35  1  0  0  0  0
 19 36  1  0  0  0  0
 36 37  2  0  0  0  0
 36 38  1  0  0  0  0
 38 39  2  0  0  0  0
 39 40  1  0  0  0  0
 40 41  2  0  0  0  0
 41 42  1  0  0  0  0
 42 43  2  0  0  0  0
 43 38  1  0  0  0  0
  9 44  1  0  0  0  0
 44 45  1  0  0  0  0
 44 46  2  0  0  0  0
M  END
>  <cdx:fragmentId>
5

$$$$
