94723.cdx
  Mrv1902 05222410182D          

 32 35  0  0  0  0            999 V2000
    4.3425   -8.9757    0.0000 C   0  0  2  0  0  0  0  0  0  0  0  0
   10.0583   -6.5007    0.0000 C   0  0  0  0  0  0  0  0  0  0  0  0
    9.3438   -6.9132    0.0000 O   0  0  0  0  0  0  0  0  0  0  0  0
    9.3438   -5.2632    0.0000 O   0  0  0  0  0  0  0  0  0  0  0  0
    2.9136   -8.1507    0.0000 O   0  0  0  0  0  0  0  0  0  0  0  0
    7.9149   -6.9132    0.0000 C   0  0  0  0  0  0  0  0  0  0  0  0
    8.6294   -6.5007    0.0000 C   0  0  0  0  0  0  0  0  0  0  0  0
    8.6294   -5.6757    0.0000 C   0  0  0  0  0  0  0  0  0  0  0  0
    7.9149   -5.2632    0.0000 C   0  0  0  0  0  0  0  0  0  0  0  0
    7.2004   -6.5007    0.0000 C   0  0  0  0  0  0  0  0  0  0  0  0
    7.2004   -5.6757    0.0000 C   0  0  0  0  0  0  0  0  0  0  0  0
    5.7715   -5.6757    0.0000 O   0  0  0  0  0  0  0  0  0  0  0  0
    5.7715   -8.1507    0.0000 O   0  0  0  0  0  0  0  0  0  0  0  0
    6.4859   -7.7382    0.0000 C   0  0  0  0  0  0  0  0  0  0  0  0
    6.4859   -6.9132    0.0000 C   0  0  0  0  0  0  0  0  0  0  0  0
    5.7715   -6.5007    0.0000 C   0  0  0  0  0  0  0  0  0  0  0  0
    4.3425   -8.1507    0.0000 C   0  0  0  0  0  0  0  0  0  0  0  0
    5.0570   -7.7382    0.0000 C   0  0  0  0  0  0  0  0  0  0  0  0
    5.0570   -6.9132    0.0000 C   0  0  0  0  0  0  0  0  0  0  0  0
    4.3425   -6.5007    0.0000 C   0  0  0  0  0  0  0  0  0  0  0  0
    3.6281   -6.9132    0.0000 C   0  0  0  0  0  0  0  0  0  0  0  0
    3.6281   -7.7382    0.0000 C   0  0  0  0  0  0  0  0  0  0  0  0
    3.6751   -9.4606    0.0000 O   0  0  0  0  0  0  0  0  0  0  0  0
    3.9300  -10.2452    0.0000 C   0  0  0  0  0  0  0  0  0  0  0  0
    4.7550  -10.2452    0.0000 C   0  0  1  0  0  0  0  0  0  0  0  0
    5.0100   -9.4606    0.0000 C   0  0  1  0  0  0  0  0  0  0  0  0
    5.7946   -9.2056    0.0000 O   0  0  0  0  0  0  0  0  0  0  0  0
    5.2399  -10.9126    0.0000 O   0  0  0  0  0  0  0  0  0  0  0  0
    3.4451  -10.9126    0.0000 C   0  0  1  0  0  0  0  0  0  0  0  0
    3.7807  -11.6663    0.0000 C   0  0  0  0  0  0  0  0  0  0  0  0
    4.5775  -11.8798    0.0000 O   0  0  0  0  0  0  0  0  0  0  0  0
    2.6201  -10.9126    0.0000 O   0  0  0  0  0  0  0  0  0  0  0  0
  1 17  1  1  0  0  0
  3  2  1  0  0  0  0
  7  3  1  0  0  0  0
  8  4  1  0  0  0  0
 22  5  1  0  0  0  0
  6 10  1  0  0  0  0
  7  6  2  0  0  0  0
  8  7  1  0  0  0  0
  9  8  2  0  0  0  0
 11  9  1  0  0  0  0
 10 15  1  0  0  0  0
 11 10  2  0  0  0  0
 16 12  2  0  0  0  0
 13 18  1  0  0  0  0
 14 13  1  0  0  0  0
 15 14  2  0  0  0  0
 16 15  1  0  0  0  0
 19 16  1  0  0  0  0
 17 22  1  0  0  0  0
 18 17  2  0  0  0  0
 19 18  1  0  0  0  0
 20 19  2  0  0  0  0
 21 20  1  0  0  0  0
 22 21  2  0  0  0  0
  1 23  1  0  0  0  0
 23 24  1  0  0  0  0
 24 25  1  0  0  0  0
 25 26  1  0  0  0  0
 26  1  1  0  0  0  0
 26 27  1  6  0  0  0
 25 28  1  1  0  0  0
 24 29  1  0  0  0  0
 29 30  1  0  0  0  0
 30 31  1  0  0  0  0
 29 32  1  1  0  0  0
M  END
>  <cdx:fragmentId>
5

$$$$
