94731.cdx
  Mrv1902 05222410192D          

 11 12  0  0  0  0            999 V2000
    8.2759   -9.0795    0.0000 C   0  0  0  0  0  0  0  0  0  0  0  0
    8.6884   -9.7940    0.0000 C   0  0  0  0  0  0  0  0  0  0  0  0
    8.6884   -8.3650    0.0000 O   0  0  0  0  0  0  0  0  0  0  0  0
    7.4509   -9.0795    0.0000 O   0  0  0  0  0  0  0  0  0  0  0  0
    7.0384   -8.3650    0.0000 C   0  0  0  0  0  0  0  0  0  0  0  0
    6.3239   -8.7775    0.0000 C   0  0  0  0  0  0  0  0  0  0  0  0
    5.6094   -8.3650    0.0000 C   0  0  0  0  0  0  0  0  0  0  0  0
    5.6094   -7.5400    0.0000 C   0  0  0  0  0  0  0  0  0  0  0  0
    6.3239   -7.1275    0.0000 C   0  0  0  0  0  0  0  0  0  0  0  0
    7.0384   -7.5400    0.0000 C   0  0  0  0  0  0  0  0  0  0  0  0
    7.7528   -7.9525    0.0000 O   0  0  0  0  0  0  0  0  0  0  0  0
  1  2  1  0  0  0  0
  1  3  2  0  0  0  0
  1  4  1  0  0  0  0
  5  6  1  0  0  0  0
  6  7  1  0  0  0  0
  7  8  1  0  0  0  0
  8  9  1  0  0  0  0
  9 10  1  0  0  0  0
 10 11  1  0  0  0  0
  5 11  1  0  0  0  0
  5 10  1  0  0  0  0
  4  5  1  0  0  0  0
M  END
>  <cdx:groupId>
36

>  <cdx:fragmentId>
13

$$$$
