94738.cdx
  Mrv1902 05222410272D          

 51 55  0  0  0  0            999 V2000
    8.3735   -4.8125    0.0000 C   0  0  0  0  0  0  0  0  0  0  0  0
    8.3735   -5.6375    0.0000 C   0  0  0  0  0  0  0  0  0  0  0  0
    9.0880   -6.0500    0.0000 C   0  0  0  0  0  0  0  0  0  0  0  0
    9.8025   -5.6375    0.0000 C   0  0  0  0  0  0  0  0  0  0  0  0
    9.8025   -4.8125    0.0000 C   0  0  0  0  0  0  0  0  0  0  0  0
    9.0880   -4.4000    0.0000 C   0  0  0  0  0  0  0  0  0  0  0  0
   10.5169   -6.0500    0.0000 C   0  0  0  0  0  0  0  0  0  0  0  0
   11.2314   -5.6375    0.0000 C   0  0  0  0  0  0  0  0  0  0  0  0
   11.2314   -4.8125    0.0000 C   0  0  0  0  0  0  0  0  0  0  0  0
   10.5169   -4.4000    0.0000 O   0  0  0  0  0  0  0  0  0  0  0  0
   12.6604   -4.8125    0.0000 C   0  0  0  0  0  0  0  0  0  0  0  0
   11.9459   -4.4000    0.0000 C   0  0  0  0  0  0  0  0  0  0  0  0
   13.3748   -4.4000    0.0000 C   0  0  0  0  0  0  0  0  0  0  0  0
   13.3748   -3.5750    0.0000 C   0  0  0  0  0  0  0  0  0  0  0  0
   12.6604   -3.1625    0.0000 C   0  0  0  0  0  0  0  0  0  0  0  0
   11.9459   -3.5750    0.0000 C   0  0  0  0  0  0  0  0  0  0  0  0
   14.0893   -3.1625    0.0000 O   0  0  0  0  0  0  0  0  0  0  0  0
   10.5169   -6.8750    0.0000 O   0  0  0  0  0  0  0  0  0  0  0  0
    9.0880   -6.8750    0.0000 O   0  0  0  0  0  0  0  0  0  0  0  0
    7.6591   -4.4000    0.0000 O   0  0  0  0  0  0  0  0  0  0  0  0
    6.9446   -4.8125    0.0000 C   0  0  2  0  0  0  0  0  0  0  0  0
    6.2301   -4.4000    0.0000 O   0  0  0  0  0  0  0  0  0  0  0  0
    5.5157   -4.8125    0.0000 C   0  0  1  0  0  0  0  0  0  0  0  0
    5.5157   -5.6375    0.0000 C   0  0  2  0  0  0  0  0  0  0  0  0
    6.2301   -6.0500    0.0000 C   0  0  1  0  0  0  0  0  0  0  0  0
    6.9446   -5.6375    0.0000 C   0  0  1  0  0  0  0  0  0  0  0  0
    4.8012   -4.4000    0.0000 C   0  0  0  0  0  0  0  0  0  0  0  0
    6.2301   -6.8750    0.0000 O   0  0  0  0  0  0  0  0  0  0  0  0
    4.8012   -6.0500    0.0000 O   0  0  0  0  0  0  0  0  0  0  0  0
    7.6591   -6.0500    0.0000 O   0  0  0  0  0  0  0  0  0  0  0  0
    4.8012   -3.5750    0.0000 O   0  0  0  0  0  0  0  0  0  0  0  0
    4.0867   -5.6375    0.0000 C   0  0  0  0  0  0  0  0  0  0  0  0
    3.3722   -6.0500    0.0000 C   0  0  0  0  0  0  0  0  0  0  0  0
    4.0867   -4.8125    0.0000 O   0  0  0  0  0  0  0  0  0  0  0  0
    2.6578   -5.6375    0.0000 C   0  0  1  0  0  0  0  0  0  0  0  0
    1.9433   -6.0500    0.0000 C   0  0  0  0  0  0  0  0  0  0  0  0
    1.2288   -5.6375    0.0000 C   0  0  0  0  0  0  0  0  0  0  0  0
    0.5144   -6.0500    0.0000 O   0  0  0  0  0  0  0  0  0  0  0  0
    1.2288   -4.8125    0.0000 O   0  0  0  0  0  0  0  0  0  0  0  0
    2.2453   -4.9230    0.0000 C   0  0  0  0  0  0  0  0  0  0  0  0
    3.0703   -4.9230    0.0000 O   0  0  0  0  0  0  0  0  0  0  0  0
    5.8164   -7.6058    0.0000 C   0  0  2  0  0  0  0  0  0  0  0  0
    4.9914   -7.6057    0.0000 O   0  0  0  0  0  0  0  0  0  0  0  0
    4.5788   -8.3201    0.0000 C   0  0  2  0  0  0  0  0  0  0  0  0
    4.9912   -9.0346    0.0000 C   0  0  1  0  0  0  0  0  0  0  0  0
    5.8162   -9.0347    0.0000 C   0  0  2  0  0  0  0  0  0  0  0  0
    6.2288   -8.3203    0.0000 C   0  0  1  0  0  0  0  0  0  0  0  0
    4.5787   -9.7491    0.0000 O   0  0  0  0  0  0  0  0  0  0  0  0
    3.7538   -8.3201    0.0000 C   0  0  0  0  0  0  0  0  0  0  0  0
    6.2287   -9.7492    0.0000 O   0  0  0  0  0  0  0  0  0  0  0  0
    7.0538   -8.3203    0.0000 O   0  0  0  0  0  0  0  0  0  0  0  0
  1  2  2  0  0  0  0
  2  3  1  0  0  0  0
  3  4  2  0  0  0  0
  4  5  1  0  0  0  0
  5  6  2  0  0  0  0
  6  1  1  0  0  0  0
  4  7  1  0  0  0  0
  7  8  1  0  0  0  0
  8  9  1  0  0  0  0
  9 10  1  0  0  0  0
 10  5  1  0  0  0  0
 11 12  2  0  0  0  0
 12  9  1  0  0  0  0
 11 13  1  0  0  0  0
 13 14  2  0  0  0  0
 14 15  1  0  0  0  0
 15 16  2  0  0  0  0
 16 12  1  0  0  0  0
 14 17  1  0  0  0  0
  7 18  2  0  0  0  0
  3 19  1  0  0  0  0
  1 20  1  0  0  0  0
 21 20  1  1  0  0  0
 21 22  1  0  0  0  0
 22 23  1  0  0  0  0
 23 24  1  0  0  0  0
 24 25  1  0  0  0  0
 25 26  1  0  0  0  0
 26 21  1  0  0  0  0
 23 27  1  1  0  0  0
 25 28  1  1  0  0  0
 24 29  1  6  0  0  0
 26 30  1  6  0  0  0
 27 31  1  0  0  0  0
 29 32  1  0  0  0  0
 32 33  1  0  0  0  0
 32 34  2  0  0  0  0
 33 35  1  0  0  0  0
 35 36  1  0  0  0  0
 36 37  1  0  0  0  0
 37 38  1  0  0  0  0
 37 39  2  0  0  0  0
 35 40  1  1  0  0  0
 35 41  1  0  0  0  0
 42 43  1  0  0  0  0
 43 44  1  0  0  0  0
 44 45  1  0  0  0  0
 45 46  1  0  0  0  0
 46 47  1  0  0  0  0
 47 42  1  0  0  0  0
 45 48  1  1  0  0  0
 44 49  1  6  0  0  0
 46 50  1  6  0  0  0
 47 51  1  6  0  0  0
 42 28  1  1  0  0  0
M  END
>  <cdx:fragmentId>
5

$$$$
