94739.cdx
  Mrv1902 05222410272D          

 16 17  0  0  0  0            999 V2000
    5.7868   -8.8405    0.0000 C   0  0  0  0  0  0  0  0  0  0  0  0
    5.7868   -8.0155    0.0000 C   0  0  0  0  0  0  0  0  0  0  0  0
    6.5013   -7.6030    0.0000 C   0  0  0  0  0  0  0  0  0  0  0  0
    7.2157   -8.0155    0.0000 C   0  0  0  0  0  0  0  0  0  0  0  0
    7.2157   -8.8405    0.0000 C   0  0  0  0  0  0  0  0  0  0  0  0
    6.5013   -9.2530    0.0000 C   0  0  0  0  0  0  0  0  0  0  0  0
    7.9302   -7.6030    0.0000 C   0  0  0  0  0  0  0  0  0  0  0  0
    8.6447   -8.0155    0.0000 C   0  0  0  0  0  0  0  0  0  0  0  0
    8.6447   -8.8405    0.0000 C   0  0  0  0  0  0  0  0  0  0  0  0
    7.9302   -9.2530    0.0000 O   0  0  0  0  0  0  0  0  0  0  0  0
    9.0572   -9.5550    0.0000 C   0  0  0  0  0  0  0  0  0  0  0  0
    9.4416   -8.6270    0.0000 C   0  0  0  0  0  0  0  0  0  0  0  0
    5.0723   -9.2530    0.0000 O   0  0  0  0  0  0  0  0  0  0  0  0
    4.3579   -8.0155    0.0000 O   0  0  0  0  0  0  0  0  0  0  0  0
    5.0723   -6.7780    0.0000 O   0  0  0  0  0  0  0  0  0  0  0  0
    5.0723   -7.6030    0.0000 C   0  0  0  0  0  0  0  0  0  0  0  0
  1  2  2  0  0  0  0
  2  3  1  0  0  0  0
  3  4  2  0  0  0  0
  4  5  1  0  0  0  0
  5  6  2  0  0  0  0
  6  1  1  0  0  0  0
  4  7  1  0  0  0  0
  7  8  2  0  0  0  0
  8  9  1  0  0  0  0
  9 10  1  0  0  0  0
 10  5  1  0  0  0  0
  9 11  1  0  0  0  0
  9 12  1  0  0  0  0
  1 13  1  0  0  0  0
 16 14  1  0  0  0  0
  2 16  1  0  0  0  0
 16 15  2  0  0  0  0
M  END
>  <cdx:fragmentId>
5

$$$$
