94736.cdx
  Mrv1902 05222410182D          

 34 37  0  0  0  0            999 V2000
    7.3451   -7.0210    0.0000 C   0  0  0  0  0  0  0  0  0  0  0  0
    7.3451   -7.8460    0.0000 C   0  0  0  0  0  0  0  0  0  0  0  0
    6.6307   -8.2585    0.0000 C   0  0  0  0  0  0  0  0  0  0  0  0
    6.6307   -9.0835    0.0000 O   0  0  0  0  0  0  0  0  0  0  0  0
    5.9162   -7.8460    0.0000 C   0  0  0  0  0  0  0  0  0  0  0  0
    5.2017   -8.2585    0.0000 C   0  0  0  0  0  0  0  0  0  0  0  0
    5.2017   -9.0835    0.0000 O   0  0  0  0  0  0  0  0  0  0  0  0
    4.4873   -7.8460    0.0000 C   0  0  0  0  0  0  0  0  0  0  0  0
    4.4873   -7.0210    0.0000 C   0  0  0  0  0  0  0  0  0  0  0  0
    3.7728   -6.6085    0.0000 O   0  0  0  0  0  0  0  0  0  0  0  0
    5.2017   -6.6085    0.0000 C   0  0  0  0  0  0  0  0  0  0  0  0
    5.9162   -7.0210    0.0000 C   0  0  0  0  0  0  0  0  0  0  0  0
    6.6307   -6.6085    0.0000 O   0  0  0  0  0  0  0  0  0  0  0  0
    8.0596   -6.6085    0.0000 C   0  0  0  0  0  0  0  0  0  0  0  0
    8.7741   -7.0210    0.0000 C   0  0  0  0  0  0  0  0  0  0  0  0
    9.4885   -6.6085    0.0000 C   0  0  0  0  0  0  0  0  0  0  0  0
   10.2030   -7.0210    0.0000 O   0  0  0  0  0  0  0  0  0  0  0  0
   10.9175   -6.6085    0.0000 C   0  0  0  0  0  0  0  0  0  0  0  0
    9.4885   -5.7835    0.0000 C   0  0  0  0  0  0  0  0  0  0  0  0
   10.2030   -5.3710    0.0000 O   0  0  0  0  0  0  0  0  0  0  0  0
    8.7741   -5.3710    0.0000 C   0  0  0  0  0  0  0  0  0  0  0  0
    8.0596   -5.7835    0.0000 C   0  0  0  0  0  0  0  0  0  0  0  0
    8.0596   -8.2585    0.0000 O   0  0  0  0  0  0  0  0  0  0  0  0
    8.0596   -9.0835    0.0000 C   0  0  1  0  0  0  0  0  0  0  0  0
    8.7741   -9.4960    0.0000 C   0  0  2  0  0  0  0  0  0  0  0  0
    9.4885   -9.0835    0.0000 O   0  0  0  0  0  0  0  0  0  0  0  0
    8.7741  -10.3210    0.0000 C   0  0  1  0  0  0  0  0  0  0  0  0
    9.4885  -10.7335    0.0000 O   0  0  0  0  0  0  0  0  0  0  0  0
    8.0596  -10.7335    0.0000 C   0  0  1  0  0  0  0  0  0  0  0  0
    8.0596  -11.5585    0.0000 O   0  0  0  0  0  0  0  0  0  0  0  0
    7.3451  -10.3210    0.0000 C   0  0  2  0  0  0  0  0  0  0  0  0
    7.3451   -9.4960    0.0000 O   0  0  0  0  0  0  0  0  0  0  0  0
    6.6307  -10.7335    0.0000 C   0  0  0  0  0  0  0  0  0  0  0  0
    5.9162  -10.3210    0.0000 O   0  0  0  0  0  0  0  0  0  0  0  0
  1  2  2  0  0  0  0
  2  3  1  0  0  0  0
  3  4  2  0  0  0  0
  3  5  1  0  0  0  0
  5  6  1  0  0  0  0
  6  7  1  0  0  0  0
  6  8  2  0  0  0  0
  8  9  1  0  0  0  0
  9 10  1  0  0  0  0
  9 11  2  0  0  0  0
 11 12  1  0  0  0  0
  5 12  2  0  0  0  0
 12 13  1  0  0  0  0
  1 13  1  0  0  0  0
  1 14  1  0  0  0  0
 14 15  1  0  0  0  0
 15 16  2  0  0  0  0
 16 17  1  0  0  0  0
 17 18  1  0  0  0  0
 16 19  1  0  0  0  0
 19 20  1  0  0  0  0
 19 21  2  0  0  0  0
 21 22  1  0  0  0  0
 14 22  2  0  0  0  0
 24 23  1  1  0  0  0
 24 25  1  0  0  0  0
 25 26  1  6  0  0  0
 25 27  1  0  0  0  0
 27 28  1  1  0  0  0
 27 29  1  0  0  0  0
 29 30  1  1  0  0  0
 29 31  1  0  0  0  0
 31 32  1  0  0  0  0
 31 33  1  1  0  0  0
 33 34  1  0  0  0  0
 24 32  1  0  0  0  0
  2 23  1  0  0  0  0
M  END
>  <cdx:groupId>
107

>  <cdx:fragmentId>
5

$$$$
