94735.cdx
  Mrv1902 05222410182D          

 24 23  0  0  0  0            999 V2000
   13.2245   -9.9563    0.0000 C   0  0  0  0  0  0  0  0  0  0  0  0
   12.5103  -10.3687    0.0000 C   0  0  0  0  0  0  0  0  0  0  0  0
   11.7960   -9.9563    0.0000 C   0  0  0  0  0  0  0  0  0  0  0  0
   11.0818  -10.3687    0.0000 C   0  0  0  0  0  0  0  0  0  0  0  0
   10.3675   -9.9563    0.0000 C   0  0  0  0  0  0  0  0  0  0  0  0
    9.6533  -10.3687    0.0000 C   0  0  0  0  0  0  0  0  0  0  0  0
    8.9391   -9.9563    0.0000 C   0  0  0  0  0  0  0  0  0  0  0  0
    8.2248  -10.3687    0.0000 C   0  0  0  0  0  0  0  0  0  0  0  0
    7.5106   -9.9563    0.0000 C   0  0  0  0  0  0  0  0  0  0  0  0
    6.7963   -9.5440    0.0000 C   0  0  0  0  0  0  0  0  0  0  0  0
    6.0821   -9.1316    0.0000 C   0  0  0  0  0  0  0  0  0  0  0  0
    5.3678   -9.5440    0.0000 C   0  0  0  0  0  0  0  0  0  0  0  0
    4.6536   -9.9563    0.0000 C   0  0  0  0  0  0  0  0  0  0  0  0
    3.9393  -10.3687    0.0000 C   0  0  0  0  0  0  0  0  0  0  0  0
    3.2251   -9.9563    0.0000 C   0  0  0  0  0  0  0  0  0  0  0  0
    2.5108  -10.3687    0.0000 C   0  0  0  0  0  0  0  0  0  0  0  0
    1.7966   -9.9563    0.0000 C   0  0  0  0  0  0  0  0  0  0  0  0
    1.0823  -10.3687    0.0000 C   0  0  0  0  0  0  0  0  0  0  0  0
   13.2245   -9.1316    0.0000 O   0  0  0  0  0  0  0  0  0  0  0  0
   13.9388  -10.3687    0.0000 O   0  0  0  0  0  0  0  0  0  0  0  0
   14.6530   -9.9563    0.0000 C   0  0  0  0  0  0  0  0  0  0  0  0
   15.3673  -10.3687    0.0000 C   0  0  0  0  0  0  0  0  0  0  0  0
   16.0815   -9.9563    0.0000 C   0  0  0  0  0  0  0  0  0  0  0  0
   16.7958  -10.3687    0.0000 C   0  0  0  0  0  0  0  0  0  0  0  0
  1  2  1  0  0  0  0
  2  3  1  0  0  0  0
  3  4  1  0  0  0  0
  4  5  1  0  0  0  0
  5  6  1  0  0  0  0
  6  7  1  0  0  0  0
  7  8  1  0  0  0  0
  8  9  1  0  0  0  0
  9 10  3  0  0  0  0
 10 11  1  0  0  0  0
 11 12  1  0  0  0  0
 12 13  3  0  0  0  0
 13 14  1  0  0  0  0
 14 15  1  0  0  0  0
 15 16  1  0  0  0  0
 16 17  1  0  0  0  0
 17 18  1  0  0  0  0
  1 19  2  0  0  0  0
  1 20  1  0  0  0  0
 21 22  1  0  0  0  0
 22 23  1  0  0  0  0
 23 24  1  0  0  0  0
 20 21  1  0  0  0  0
M  END
>  <cdx:groupId>
73

>  <cdx:fragmentId>
5

$$$$
