947373.cdx
  Mrv1902 05222410182D          

 25 27  0  0  0  0            999 V2000
    7.8386   -4.1585    0.0000 O   0  0  0  0  0  0  0  0  0  0  0  0
    7.5934   -4.9462    0.0000 C   0  0  0  0  0  0  0  0  0  0  0  0
    8.2668   -5.4228    0.0000 C   0  0  0  0  0  0  0  0  0  0  0  0
    8.9282   -4.9297    0.0000 C   0  0  0  0  0  0  0  0  0  0  0  0
    8.6635   -4.1483    0.0000 C   0  0  0  0  0  0  0  0  0  0  0  0
    6.8120   -5.2108    0.0000 O   0  0  0  0  0  0  0  0  0  0  0  0
    9.1402   -3.4749    0.0000 O   0  0  0  0  0  0  0  0  0  0  0  0
    8.2770   -6.2478    0.0000 C   0  0  0  0  0  0  0  0  0  0  0  0
    7.5677   -6.6691    0.0000 C   0  0  0  0  0  0  0  0  0  0  0  0
    7.5779   -7.4940    0.0000 C   0  0  1  0  0  0  0  0  0  0  0  0
    8.2974   -7.8976    0.0000 C   0  0  0  0  0  0  0  0  0  0  0  0
    8.3076   -8.7226    0.0000 C   0  0  0  0  0  0  0  0  0  0  0  0
    7.5983   -9.1439    0.0000 C   0  0  0  0  0  0  0  0  0  0  0  0
    6.8788   -8.7403    0.0000 C   0  0  1  0  0  0  0  0  0  0  0  0
    6.1695   -9.1616    0.0000 C   0  0  1  0  0  0  0  0  0  0  0  0
    5.4500   -8.7579    0.0000 C   0  0  0  0  0  0  0  0  0  0  0  0
    5.4397   -7.9330    0.0000 C   0  0  0  0  0  0  0  0  0  0  0  0
    6.1491   -7.5117    0.0000 C   0  0  0  0  0  0  0  0  0  0  0  0
    6.8686   -7.9153    0.0000 C   0  0  2  0  0  0  0  0  0  0  0  0
    9.0067   -7.4763    0.0000 C   0  0  0  0  0  0  0  0  0  0  0  0
    6.8584   -7.0904    0.0000 C   0  0  0  0  0  0  0  0  0  0  0  0
    6.5908   -9.8709    0.0000 C   0  0  0  0  0  0  0  0  0  0  0  0
    5.7658   -9.8811    0.0000 C   0  0  0  0  0  0  0  0  0  0  0  0
    6.8890   -9.5652    0.0000 H   0  0  0  0  0  0  0  0  0  0  0  0
    8.2924   -7.0815    0.0000 H   0  0  0  0  0  0  0  0  0  0  0  0
  1  2  1  0  0  0  0
  2  3  1  0  0  0  0
  3  4  1  0  0  0  0
  4  5  1  0  0  0  0
  1  5  1  0  0  0  0
  2  6  2  0  0  0  0
  5  7  1  0  0  0  0
  8  9  1  0  0  0  0
 10 11  1  0  0  0  0
 11 12  1  0  0  0  0
 12 13  1  0  0  0  0
 13 14  1  0  0  0  0
 14 15  1  0  0  0  0
 15 16  1  0  0  0  0
 16 17  1  0  0  0  0
 17 18  1  0  0  0  0
 18 19  1  0  0  0  0
 10 19  1  0  0  0  0
 14 19  1  0  0  0  0
 11 20  2  0  0  0  0
 19 21  1  1  0  0  0
 15 22  1  6  0  0  0
 15 23  1  1  0  0  0
 10  9  1  0  0  0  0
  3  8  2  0  0  0  0
 14 24  1  6  0  0  0
 10 25  1  6  0  0  0
M  END
>  <cdx:groupId>
76

>  <cdx:fragmentId>
23

$$$$
