94734.cdx
  Mrv1902 05222410192D          

 23 22  0  0  0  0            999 V2000
    0.4057   -8.3682    0.0000 C   0  0  0  0  0  0  0  0  0  0  0  0
    7.5361   -7.4278    0.0000 O   0  0  0  0  0  0  0  0  0  0  0  0
    8.2839   -9.4785    0.0000 O   0  0  0  0  0  0  0  0  0  0  0  0
    1.1267   -8.7691    0.0000 O   0  0  0  0  0  0  0  0  0  0  0  0
    1.8211   -7.5202    0.0000 O   0  0  0  0  0  0  0  0  0  0  0  0
   13.9855   -8.5613    0.0000 C   0  0  0  0  0  0  0  0  0  0  0  0
   13.2645   -8.1604    0.0000 C   0  0  0  0  0  0  0  0  0  0  0  0
   12.5568   -8.5843    0.0000 C   0  0  0  0  0  0  0  0  0  0  0  0
   11.8357   -8.1834    0.0000 C   0  0  0  0  0  0  0  0  0  0  0  0
   11.1280   -8.6074    0.0000 C   0  0  0  0  0  0  0  0  0  0  0  0
   10.4070   -8.2065    0.0000 C   0  0  0  0  0  0  0  0  0  0  0  0
    9.6993   -8.6305    0.0000 C   0  0  0  0  0  0  0  0  0  0  0  0
    8.9782   -8.2296    0.0000 C   0  0  0  0  0  0  0  0  0  0  0  0
    8.2705   -8.6536    0.0000 C   0  0  0  0  0  0  0  0  0  0  0  0
    7.5495   -8.2527    0.0000 C   0  0  0  0  0  0  0  0  0  0  0  0
    6.8418   -8.6767    0.0000 C   0  0  0  0  0  0  0  0  0  0  0  0
    6.1207   -8.2758    0.0000 C   0  0  0  0  0  0  0  0  0  0  0  0
    5.4130   -8.6998    0.0000 C   0  0  0  0  0  0  0  0  0  0  0  0
    4.6920   -8.2989    0.0000 C   0  0  0  0  0  0  0  0  0  0  0  0
    3.9843   -8.7229    0.0000 C   0  0  0  0  0  0  0  0  0  0  0  0
    3.2632   -8.3220    0.0000 C   0  0  0  0  0  0  0  0  0  0  0  0
    2.5555   -8.7460    0.0000 C   0  0  0  0  0  0  0  0  0  0  0  0
    1.8345   -8.3451    0.0000 C   0  0  0  0  0  0  0  0  0  0  0  0
  4  1  1  0  0  0  0
 15  2  1  0  0  0  0
 14  3  1  0  0  0  0
 23  4  1  0  0  0  0
 23  5  2  0  0  0  0
  7  6  1  0  0  0  0
  8  7  1  0  0  0  0
  9  8  1  0  0  0  0
 10  9  1  0  0  0  0
 11 10  1  0  0  0  0
 12 11  1  0  0  0  0
 13 12  1  0  0  0  0
 14 13  1  0  0  0  0
 15 14  1  0  0  0  0
 16 15  1  0  0  0  0
 17 16  1  0  0  0  0
 18 17  1  0  0  0  0
 19 18  1  0  0  0  0
 20 19  1  0  0  0  0
 21 20  1  0  0  0  0
 22 21  1  0  0  0  0
 23 22  1  0  0  0  0
M  END
>  <cdx:groupId>
70

>  <cdx:fragmentId>
5

$$$$
