94733.cdx
  Mrv1902 05222410202D          

 30 29  0  0  0  0            999 V2000
    8.7304   -8.4785    0.0000 C   0  0  0  0  0  0  0  0  0  0  0  0
    9.1591   -8.7260    0.0000 C   0  0  0  0  0  0  0  0  0  0  0  0
    9.5878   -8.4785    0.0000 C   0  0  0  0  0  0  0  0  0  0  0  0
   10.0165   -8.7260    0.0000 C   0  0  0  0  0  0  0  0  0  0  0  0
   10.4451   -8.4785    0.0000 C   0  0  0  0  0  0  0  0  0  0  0  0
    8.7304   -7.9835    0.0000 O   0  0  0  0  0  0  0  0  0  0  0  0
    8.3017   -8.7260    0.0000 O   0  0  0  0  0  0  0  0  0  0  0  0
   10.4451   -7.9835    0.0000 O   0  0  0  0  0  0  0  0  0  0  0  0
   10.8738   -8.7260    0.0000 O   0  0  0  0  0  0  0  0  0  0  0  0
    7.8730   -8.4785    0.0000 C   0  0  0  0  0  0  0  0  0  0  0  0
    7.4444   -8.7260    0.0000 C   0  0  0  0  0  0  0  0  0  0  0  0
    7.0157   -8.4785    0.0000 C   0  0  0  0  0  0  0  0  0  0  0  0
    6.5870   -8.7260    0.0000 C   0  0  0  0  0  0  0  0  0  0  0  0
    6.1583   -8.4785    0.0000 C   0  0  0  0  0  0  0  0  0  0  0  0
    5.7296   -8.7260    0.0000 C   0  0  0  0  0  0  0  0  0  0  0  0
    5.3010   -8.4785    0.0000 C   0  0  0  0  0  0  0  0  0  0  0  0
    4.8723   -8.7260    0.0000 C   0  0  0  0  0  0  0  0  0  0  0  0
    4.4436   -8.4785    0.0000 C   0  0  0  0  0  0  0  0  0  0  0  0
    4.0149   -8.7260    0.0000 C   0  0  0  0  0  0  0  0  0  0  0  0
    3.5862   -8.4785    0.0000 C   0  0  0  0  0  0  0  0  0  0  0  0
    3.1575   -8.7260    0.0000 C   0  0  0  0  0  0  0  0  0  0  0  0
    2.7289   -8.4785    0.0000 C   0  0  0  0  0  0  0  0  0  0  0  0
    2.3002   -8.7260    0.0000 C   0  0  0  0  0  0  0  0  0  0  0  0
    1.8715   -8.4785    0.0000 C   0  0  0  0  0  0  0  0  0  0  0  0
    1.4428   -8.7260    0.0000 C   0  0  0  0  0  0  0  0  0  0  0  0
   11.3025   -8.4785    0.0000 C   0  0  0  0  0  0  0  0  0  0  0  0
   11.7312   -8.7260    0.0000 C   0  0  0  0  0  0  0  0  0  0  0  0
   12.1599   -8.4785    0.0000 C   0  0  0  0  0  0  0  0  0  0  0  0
   12.5886   -8.7260    0.0000 C   0  0  0  0  0  0  0  0  0  0  0  0
   13.0172   -8.4785    0.0000 C   0  0  0  0  0  0  0  0  0  0  0  0
  1  2  1  0  0  0  0
  2  3  1  0  0  0  0
  3  4  1  0  0  0  0
  4  5  1  0  0  0  0
  1  6  2  0  0  0  0
  1  7  1  0  0  0  0
  5  8  2  0  0  0  0
  5  9  1  0  0  0  0
 10 11  1  0  0  0  0
 11 12  1  0  0  0  0
 12 13  1  0  0  0  0
 13 14  1  0  0  0  0
 14 15  1  0  0  0  0
 15 16  1  0  0  0  0
 16 17  1  0  0  0  0
 17 18  1  0  0  0  0
 18 19  1  0  0  0  0
 19 20  1  0  0  0  0
 20 21  1  0  0  0  0
 21 22  1  0  0  0  0
 22 23  1  0  0  0  0
 23 24  1  0  0  0  0
 24 25  1  0  0  0  0
  7 10  1  0  0  0  0
 26 27  1  0  0  0  0
 27 28  1  0  0  0  0
 28 29  1  0  0  0  0
 29 30  2  0  0  0  0
  9 26  1  0  0  0  0
M  END
>  <cdx:groupId>
91

>  <cdx:fragmentId>
23

$$$$
