9474.cdx
  Mrv1902 05222410242D          

 25 28  0  0  0  0            999 V2000
    4.9984  -11.5651    0.0000 C   0  0  0  0  0  0  0  0  0  0  0  0
    5.6911   -7.8485    0.0000 O   0  0  0  0  0  0  0  0  0  0  0  0
    8.5586   -9.4817    0.0000 O   0  0  0  0  0  0  0  0  0  0  0  0
    9.7906   -8.5389    0.0000 O   0  0  0  0  0  0  0  0  0  0  0  0
    9.3739   -7.8268    0.0000 C   0  0  0  0  0  0  0  0  0  0  0  0
    8.9656   -8.5437    0.0000 C   0  0  0  0  0  0  0  0  0  0  0  0
    9.2561   -6.5900    0.0000 C   0  0  0  0  0  0  0  0  0  0  0  0
    8.5489   -7.8317    0.0000 C   0  0  0  0  0  0  0  0  0  0  0  0
    8.5441   -7.0067    0.0000 C   0  0  0  0  0  0  0  0  0  0  0  0
    7.8272   -6.5984    0.0000 C   0  0  0  0  0  0  0  0  0  0  0  0
    7.1152   -7.0151    0.0000 O   0  0  0  0  0  0  0  0  0  0  0  0
    7.8417   -9.0734    0.0000 C   0  0  0  0  0  0  0  0  0  0  0  0
    7.8369   -8.2484    0.0000 C   0  0  0  0  0  0  0  0  0  0  0  0
    7.1200   -7.8401    0.0000 C   0  0  0  0  0  0  0  0  0  0  0  0
    6.4080   -8.2568    0.0000 C   0  0  0  0  0  0  0  0  0  0  0  0
    6.4225  -10.7317    0.0000 C   0  0  0  0  0  0  0  0  0  0  0  0
    7.1345  -10.3150    0.0000 C   0  0  0  0  0  0  0  0  0  0  0  0
    7.1297   -9.4900    0.0000 C   0  0  0  0  0  0  0  0  0  0  0  0
    6.4128   -9.0817    0.0000 C   0  0  0  0  0  0  0  0  0  0  0  0
    5.7008   -9.4984    0.0000 C   0  0  0  0  0  0  0  0  0  0  0  0
    4.9839   -9.0901    0.0000 C   0  0  0  0  0  0  0  0  0  0  0  0
    4.2719   -9.5068    0.0000 C   0  0  0  0  0  0  0  0  0  0  0  0
    4.2767  -10.3318    0.0000 C   0  0  0  0  0  0  0  0  0  0  0  0
    4.9936  -10.7401    0.0000 C   0  0  0  0  0  0  0  0  0  0  0  0
    5.7056  -10.3234    0.0000 C   0  0  0  0  0  0  0  0  0  0  0  0
 24  1  1  0  0  0  0
 15  2  2  0  0  0  0
 12  3  2  0  0  0  0
  5  4  1  0  0  0  0
  8  5  1  0  0  0  0
  8  6  1  0  0  0  0
  9  7  1  0  0  0  0
  8 13  1  0  0  0  0
  9  8  1  0  0  0  0
 10  9  1  0  0  0  0
 11 10  1  0  0  0  0
 14 11  1  0  0  0  0
 12 18  1  0  0  0  0
 13 12  1  0  0  0  0
 14 13  2  0  0  0  0
 15 14  1  0  0  0  0
 19 15  1  0  0  0  0
 16 25  1  0  0  0  0
 17 16  2  0  0  0  0
 18 17  1  0  0  0  0
 19 18  2  0  0  0  0
 20 19  1  0  0  0  0
 20 25  1  0  0  0  0
 21 20  2  0  0  0  0
 22 21  1  0  0  0  0
 23 22  2  0  0  0  0
 24 23  1  0  0  0  0
 25 24  2  0  0  0  0
M  END
>  <cdx:fragmentId>
5

$$$$
