94746.cdx
  Mrv1902 05222410222D          

 17 19  0  0  0  0            999 V2000
    7.2306   -6.2150    0.0000 C   0  0  1  0  0  0  0  0  0  0  0  0
    7.2306   -7.0400    0.0000 C   0  0  2  0  0  0  0  0  0  0  0  0
    7.9450   -7.4525    0.0000 C   0  0  1  0  0  0  0  0  0  0  0  0
    8.6595   -7.0400    0.0000 O   0  0  0  0  0  0  0  0  0  0  0  0
    8.6595   -6.2150    0.0000 C   0  0  2  0  0  0  0  0  0  0  0  0
    7.9450   -5.8025    0.0000 C   0  0  0  0  0  0  0  0  0  0  0  0
    6.4459   -5.9601    0.0000 C   0  0  0  0  0  0  0  0  0  0  0  0
    5.9610   -6.6275    0.0000 C   0  0  1  0  0  0  0  0  0  0  0  0
    6.4459   -7.2949    0.0000 C   0  0  1  0  0  0  0  0  0  0  0  0
    7.9450   -4.9775    0.0000 C   0  0  0  0  0  0  0  0  0  0  0  0
    7.9450   -8.2775    0.0000 O   0  0  0  0  0  0  0  0  0  0  0  0
    7.2306   -5.3900    0.0000 H   0  0  0  0  0  0  0  0  0  0  0  0
    7.2306   -7.8650    0.0000 H   0  0  0  0  0  0  0  0  0  0  0  0
    5.1360   -6.6275    0.0000 O   0  0  0  0  0  0  0  0  0  0  0  0
    6.1910   -8.0796    0.0000 C   0  0  0  0  0  0  0  0  0  0  0  0
    6.8584   -6.5805    0.0000 O   0  0  0  0  0  0  0  0  0  0  0  0
    8.6595   -8.6900    0.0000 C   0  0  0  0  0  0  0  0  0  0  0  0
  2  3  1  0  0  0  0
  3  4  1  0  0  0  0
  4  5  1  0  0  0  0
  5  6  1  0  0  0  0
  6  1  1  0  0  0  0
  1  7  1  0  0  0  0
  7  8  1  0  0  0  0
  8  9  1  0  0  0  0
  9  2  1  0  0  0  0
  6 10  2  0  0  0  0
  3 11  1  1  0  0  0
  1 12  1  1  0  0  0
  2 13  1  1  0  0  0
  8 14  1  1  0  0  0
  9 15  1  1  0  0  0
  9 16  1  6  0  0  0
  5 16  1  6  0  0  0
 11 17  1  0  0  0  0
  1  2  1  0  0  0  0
M  END
>  <cdx:fragmentId>
5

$$$$
