94749.cdx
  Mrv1902 05222410232D          

 31 32  0  0  0  0            999 V2000
    7.1206   -6.5038    0.0000 C   0  0  1  0  0  0  0  0  0  0  0  0
    7.1206   -7.3287    0.0000 C   0  0  2  0  0  0  0  0  0  0  0  0
    7.8350   -7.7413    0.0000 C   0  0  1  0  0  0  0  0  0  0  0  0
    8.5495   -7.3287    0.0000 O   0  0  0  0  0  0  0  0  0  0  0  0
    8.5495   -6.5038    0.0000 C   0  0  0  0  0  0  0  0  0  0  0  0
    7.8350   -6.0912    0.0000 C   0  0  0  0  0  0  0  0  0  0  0  0
    6.3359   -6.2488    0.0000 C   0  0  0  0  0  0  0  0  0  0  0  0
    5.8510   -6.9162    0.0000 C   0  0  1  0  0  0  0  0  0  0  0  0
    6.3359   -7.5837    0.0000 C   0  0  0  0  0  0  0  0  0  0  0  0
    5.0260   -6.9162    0.0000 O   0  0  0  0  0  0  0  0  0  0  0  0
    4.3142   -6.4992    0.0000 C   0  0  0  0  0  0  0  0  0  0  0  0
    3.5971   -6.9070    0.0000 C   0  0  0  0  0  0  0  0  0  0  0  0
    4.3195   -5.6742    0.0000 O   0  0  0  0  0  0  0  0  0  0  0  0
    6.0810   -8.3683    0.0000 C   0  0  0  0  0  0  0  0  0  0  0  0
    9.9635   -9.8293    0.0000 C   0  0  0  0  0  0  0  0  0  0  0  0
    9.2343  -11.0582    0.0000 C   0  0  0  0  0  0  0  0  0  0  0  0
    9.2441  -10.2332    0.0000 C   0  0  0  0  0  0  0  0  0  0  0  0
    8.5346   -9.8122    0.0000 C   0  0  0  0  0  0  0  0  0  0  0  0
    9.2639   -8.5833    0.0000 O   0  0  0  0  0  0  0  0  0  0  0  0
    8.5445   -8.9873    0.0000 C   0  0  0  0  0  0  0  0  0  0  0  0
    7.8350   -8.5663    0.0000 O   0  0  0  0  0  0  0  0  0  0  0  0
    7.8350   -5.2663    0.0000 C   0  0  0  0  0  0  0  0  0  0  0  0
    8.5418   -4.0283    0.0000 C   0  0  0  0  0  0  0  0  0  0  0  0
    7.8234   -3.6227    0.0000 O   0  0  0  0  0  0  0  0  0  0  0  0
    9.2523   -3.6090    0.0000 C   0  0  0  0  0  0  0  0  0  0  0  0
    9.2443   -2.7840    0.0000 C   0  0  0  0  0  0  0  0  0  0  0  0
    9.9548   -2.3646    0.0000 C   0  0  0  0  0  0  0  0  0  0  0  0
    8.5259   -2.3784    0.0000 C   0  0  0  0  0  0  0  0  0  0  0  0
    7.1206   -5.6788    0.0000 H   0  0  0  0  0  0  0  0  0  0  0  0
    7.1206   -8.1538    0.0000 H   0  0  0  0  0  0  0  0  0  0  0  0
    8.5495   -4.8538    0.0000 O   0  0  0  0  0  0  0  0  0  0  0  0
  1  2  1  0  0  0  0
  2  3  1  0  0  0  0
  3  4  1  0  0  0  0
  4  5  1  0  0  0  0
  5  6  2  0  0  0  0
  6  1  1  0  0  0  0
  1  7  1  0  0  0  0
  7  8  1  0  0  0  0
  8  9  1  0  0  0  0
  9  2  1  0  0  0  0
  8 10  1  1  0  0  0
 10 11  1  0  0  0  0
 11 12  1  0  0  0  0
 11 13  2  0  0  0  0
  9 14  2  0  0  0  0
 17 15  1  0  0  0  0
  3 21  1  1  0  0  0
 17 16  1  0  0  0  0
 18 17  1  0  0  0  0
 20 18  1  0  0  0  0
 20 19  2  0  0  0  0
 21 20  1  0  0  0  0
  6 22  1  0  0  0  0
 23 24  2  0  0  0  0
 23 25  1  0  0  0  0
 25 26  1  0  0  0  0
 26 27  1  0  0  0  0
 26 28  1  0  0  0  0
  1 29  1  1  0  0  0
  2 30  1  1  0  0  0
 22 31  1  0  0  0  0
 31 23  1  0  0  0  0
M  END
>  <cdx:fragmentId>
5

$$$$
