94747.cdx
  Mrv1902 05222410222D          

 14 15  0  0  0  0            999 V2000
    6.7493   -6.8200    0.0000 C   0  0  0  0  0  0  0  0  0  0  0  0
    6.7493   -7.6450    0.0000 C   0  0  0  0  0  0  0  0  0  0  0  0
    7.4638   -8.0575    0.0000 C   0  0  0  0  0  0  0  0  0  0  0  0
    8.1782   -7.6450    0.0000 O   0  0  0  0  0  0  0  0  0  0  0  0
    8.1782   -6.8200    0.0000 C   0  0  0  0  0  0  0  0  0  0  0  0
    7.4638   -6.4075    0.0000 C   0  0  0  0  0  0  0  0  0  0  0  0
    5.9647   -6.5651    0.0000 C   0  0  0  0  0  0  0  0  0  0  0  0
    5.4798   -7.2325    0.0000 C   0  0  0  0  0  0  0  0  0  0  0  0
    5.9647   -7.8999    0.0000 C   0  0  0  0  0  0  0  0  0  0  0  0
    7.4638   -5.5825    0.0000 C   0  0  0  0  0  0  0  0  0  0  0  0
    8.1782   -5.1700    0.0000 O   0  0  0  0  0  0  0  0  0  0  0  0
    8.1782   -4.3450    0.0000 C   0  0  0  0  0  0  0  0  0  0  0  0
    5.7097   -8.6846    0.0000 C   0  0  0  0  0  0  0  0  0  0  0  0
    4.9129   -8.8981    0.0000 O   0  0  0  0  0  0  0  0  0  0  0  0
  1  2  1  0  0  0  0
  2  3  2  0  0  0  0
  3  4  1  0  0  0  0
  4  5  1  0  0  0  0
  5  6  2  0  0  0  0
  6  1  1  0  0  0  0
  1  7  2  0  0  0  0
  7  8  1  0  0  0  0
  8  9  2  0  0  0  0
  9  2  1  0  0  0  0
  6 10  1  0  0  0  0
 10 11  1  0  0  0  0
 11 12  1  0  0  0  0
  9 13  1  0  0  0  0
 13 14  2  0  0  0  0
M  END
>  <cdx:fragmentId>
5

$$$$
