94751.cdx
  Mrv1902 05222410232D          

 43 45  0  0  0  0            999 V2000
   14.7563   -8.1121    0.0000 C   0  0  1  0  0  0  0  0  0  0  0  0
   14.7563   -8.9369    0.0000 C   0  0  2  0  0  0  0  0  0  0  0  0
   15.4705   -9.3492    0.0000 C   0  0  1  0  0  0  0  0  0  0  0  0
   16.1848   -8.9369    0.0000 O   0  0  0  0  0  0  0  0  0  0  0  0
   16.1848   -8.1121    0.0000 C   0  0  2  0  0  0  0  0  0  0  0  0
   15.4705   -7.6997    0.0000 C   0  0  0  0  0  0  0  0  0  0  0  0
   13.9719   -7.8573    0.0000 C   0  0  0  0  0  0  0  0  0  0  0  0
   13.4871   -8.5245    0.0000 C   0  0  1  0  0  0  0  0  0  0  0  0
   13.9719   -9.1917    0.0000 C   0  0  1  0  0  0  0  0  0  0  0  0
   12.6624   -8.5245    0.0000 O   0  0  0  0  0  0  0  0  0  0  0  0
   11.9465   -8.1150    0.0000 C   0  0  0  0  0  0  0  0  0  0  0  0
   11.2339   -8.5303    0.0000 C   0  0  0  0  0  0  0  0  0  0  0  0
   11.9431   -7.2903    0.0000 O   0  0  0  0  0  0  0  0  0  0  0  0
   13.7170   -9.9761    0.0000 C   0  0  0  0  0  0  0  0  0  0  0  0
   15.4705  -10.1740    0.0000 O   0  0  0  0  0  0  0  0  0  0  0  0
   16.1848  -10.5863    0.0000 C   0  0  0  0  0  0  0  0  0  0  0  0
   16.8990  -10.1740    0.0000 C   0  0  0  0  0  0  0  0  0  0  0  0
   15.4705   -6.8750    0.0000 C   0  0  0  0  0  0  0  0  0  0  0  0
   14.7563   -7.2871    0.0000 O   0  0  0  0  0  0  0  0  0  0  0  0
   14.7563   -9.7619    0.0000 H   0  0  0  0  0  0  0  0  0  0  0  0
   14.3843   -8.4775    0.0000 O   0  0  0  0  0  0  0  0  0  0  0  0
   12.9204  -10.1895    0.0000 O   0  0  0  0  0  0  0  0  0  0  0  0
   12.5537  -10.9283    0.0000 C   0  0  0  0  0  0  0  0  0  0  0  0
   11.7305  -10.9800    0.0000 C   0  0  0  0  0  0  0  0  0  0  0  0
   13.0100  -11.6152    0.0000 O   0  0  0  0  0  0  0  0  0  0  0  0
   16.1848  -11.4111    0.0000 O   0  0  0  0  0  0  0  0  0  0  0  0
   17.6133  -10.5863    0.0000 C   0  0  0  0  0  0  0  0  0  0  0  0
   18.3275  -10.1740    0.0000 C   0  0  0  0  0  0  0  0  0  0  0  0
   17.6133  -11.4111    0.0000 C   0  0  0  0  0  0  0  0  0  0  0  0
   10.5432  -11.8086    0.0000 C   0  0  0  0  0  0  0  0  0  0  0  0
   10.2120  -12.5639    0.0000 C   0  0  0  0  0  0  0  0  0  0  0  0
    9.3923  -12.6547    0.0000 C   0  0  0  0  0  0  0  0  0  0  0  0
    9.0611  -13.4101    0.0000 C   0  0  0  0  0  0  0  0  0  0  0  0
    8.2414  -13.5009    0.0000 C   0  0  0  0  0  0  0  0  0  0  0  0
    7.9102  -14.2562    0.0000 C   0  0  0  0  0  0  0  0  0  0  0  0
    7.0905  -14.3471    0.0000 C   0  0  0  0  0  0  0  0  0  0  0  0
    6.7593  -15.1024    0.0000 C   0  0  0  0  0  0  0  0  0  0  0  0
    5.9396  -15.1933    0.0000 C   0  0  0  0  0  0  0  0  0  0  0  0
    5.6084  -15.9486    0.0000 C   0  0  0  0  0  0  0  0  0  0  0  0
    4.7887  -16.0394    0.0000 C   0  0  0  0  0  0  0  0  0  0  0  0
    4.4575  -16.7947    0.0000 C   0  0  0  0  0  0  0  0  0  0  0  0
   11.3638  -11.7187    0.0000 C   0  0  0  0  0  0  0  0  0  0  0  0
    3.6375  -16.8856    0.0000 C   0  0  0  0  0  0  0  0  0  0  0  0
  2  3  1  0  0  0  0
  3  4  1  0  0  0  0
  4  5  1  0  0  0  0
  5  6  1  0  0  0  0
  6  1  1  0  0  0  0
  1  7  1  0  0  0  0
  7  8  1  0  0  0  0
  8  9  1  0  0  0  0
  9  2  1  0  0  0  0
  8 10  1  1  0  0  0
 10 11  1  0  0  0  0
 11 12  1  0  0  0  0
 11 13  2  0  0  0  0
  9 14  1  1  0  0  0
  3 15  1  1  0  0  0
 15 16  1  0  0  0  0
 16 17  1  0  0  0  0
  6 18  2  0  0  0  0
  1 19  1  1  0  0  0
  2 20  1  1  0  0  0
  9 21  1  6  0  0  0
  5 21  1  6  0  0  0
 14 22  1  0  0  0  0
 22 23  1  0  0  0  0
 23 24  1  0  0  0  0
 23 25  2  0  0  0  0
  1  2  1  0  0  0  0
 16 26  2  0  0  0  0
 17 27  1  0  0  0  0
 27 28  1  0  0  0  0
 27 29  1  0  0  0  0
 31 30  1  0  0  0  0
 32 31  1  0  0  0  0
 33 32  1  0  0  0  0
 34 33  1  0  0  0  0
 35 34  1  0  0  0  0
 36 35  1  0  0  0  0
 37 36  1  0  0  0  0
 38 37  1  0  0  0  0
 39 38  1  0  0  0  0
 40 39  1  0  0  0  0
 41 40  1  0  0  0  0
 24 42  1  0  0  0  0
 30 42  1  0  0  0  0
 41 43  1  0  0  0  0
M  END
>  <cdx:fragmentId>
5

$$$$
