94750.cdx
  Mrv1902 05222410222D          

 28 30  0  0  0  0            999 V2000
    7.1206   -6.5038    0.0000 C   0  0  1  0  0  0  0  0  0  0  0  0
    7.1206   -7.3287    0.0000 C   0  0  2  0  0  0  0  0  0  0  0  0
    7.8350   -7.7413    0.0000 C   0  0  1  0  0  0  0  0  0  0  0  0
    8.5495   -7.3287    0.0000 O   0  0  0  0  0  0  0  0  0  0  0  0
    8.5495   -6.5038    0.0000 C   0  0  2  0  0  0  0  0  0  0  0  0
    7.8350   -6.0912    0.0000 C   0  0  0  0  0  0  0  0  0  0  0  0
    6.3359   -6.2488    0.0000 C   0  0  0  0  0  0  0  0  0  0  0  0
    5.8510   -6.9162    0.0000 C   0  0  1  0  0  0  0  0  0  0  0  0
    6.3359   -7.5837    0.0000 C   0  0  1  0  0  0  0  0  0  0  0  0
    5.0260   -6.9162    0.0000 O   0  0  0  0  0  0  0  0  0  0  0  0
    4.3165   -6.4952    0.0000 C   0  0  0  0  0  0  0  0  0  0  0  0
    3.5972   -6.8992    0.0000 C   0  0  0  0  0  0  0  0  0  0  0  0
    4.3264   -5.6703    0.0000 O   0  0  0  0  0  0  0  0  0  0  0  0
    6.0810   -8.3683    0.0000 C   0  0  0  0  0  0  0  0  0  0  0  0
    7.8350   -8.5663    0.0000 O   0  0  0  0  0  0  0  0  0  0  0  0
    8.5495   -8.9788    0.0000 C   0  0  0  0  0  0  0  0  0  0  0  0
    8.5495   -9.8037    0.0000 C   0  0  0  0  0  0  0  0  0  0  0  0
    7.8350   -5.2663    0.0000 C   0  0  0  0  0  0  0  0  0  0  0  0
    7.1206   -5.6788    0.0000 O   0  0  0  0  0  0  0  0  0  0  0  0
    7.1206   -8.1538    0.0000 H   0  0  0  0  0  0  0  0  0  0  0  0
    6.7484   -6.8692    0.0000 O   0  0  0  0  0  0  0  0  0  0  0  0
    5.2841   -8.5818    0.0000 O   0  0  0  0  0  0  0  0  0  0  0  0
    4.8742   -9.2978    0.0000 C   0  0  0  0  0  0  0  0  0  0  0  0
    4.0492   -9.3008    0.0000 C   0  0  0  0  0  0  0  0  0  0  0  0
    3.6393  -10.0167    0.0000 C   0  0  0  0  0  0  0  0  0  0  0  0
    2.8143  -10.0197    0.0000 C   0  0  0  0  0  0  0  0  0  0  0  0
    4.0544  -10.7297    0.0000 C   0  0  0  0  0  0  0  0  0  0  0  0
    5.2893  -10.0108    0.0000 O   0  0  0  0  0  0  0  0  0  0  0  0
  2  3  1  0  0  0  0
  3  4  1  0  0  0  0
  4  5  1  0  0  0  0
  5  6  1  0  0  0  0
  6  1  1  0  0  0  0
  1  7  1  0  0  0  0
  7  8  1  0  0  0  0
  8  9  1  0  0  0  0
  9  2  1  0  0  0  0
  8 10  1  1  0  0  0
 10 11  1  0  0  0  0
 11 12  1  0  0  0  0
 11 13  2  0  0  0  0
  9 14  1  1  0  0  0
  3 15  1  1  0  0  0
 15 16  1  0  0  0  0
 16 17  1  0  0  0  0
  6 18  2  0  0  0  0
  1 19  1  1  0  0  0
  2 20  1  1  0  0  0
  9 21  1  6  0  0  0
  5 21  1  6  0  0  0
 14 22  1  0  0  0  0
 22 23  1  0  0  0  0
 23 24  1  0  0  0  0
 24 25  1  0  0  0  0
 25 26  1  0  0  0  0
 25 27  1  0  0  0  0
 23 28  2  0  0  0  0
  1  2  1  0  0  0  0
M  END
>  <cdx:fragmentId>
5

$$$$
