94753.cdx
  Mrv1902 05222410222D          

 49 50  0  0  0  0            999 V2000
   15.5493   -7.9337    0.0000 C   0  0  0  0  0  0  0  0  0  0  0  0
   15.5493   -8.7588    0.0000 C   0  0  2  0  0  0  0  0  0  0  0  0
   16.2638   -9.1713    0.0000 C   0  0  1  0  0  0  0  0  0  0  0  0
   16.9782   -8.7588    0.0000 O   0  0  0  0  0  0  0  0  0  0  0  0
   16.9782   -7.9337    0.0000 C   0  0  0  0  0  0  0  0  0  0  0  0
   16.2638   -7.5213    0.0000 C   0  0  0  0  0  0  0  0  0  0  0  0
   14.7647   -7.6788    0.0000 C   0  0  0  0  0  0  0  0  0  0  0  0
   14.2798   -8.3462    0.0000 C   0  0  1  0  0  0  0  0  0  0  0  0
   14.7647   -9.0137    0.0000 C   0  0  2  0  0  0  0  0  0  0  0  0
   13.4548   -8.3462    0.0000 O   0  0  0  0  0  0  0  0  0  0  0  0
   12.7486   -7.9196    0.0000 C   0  0  0  0  0  0  0  0  0  0  0  0
   12.0261   -8.3178    0.0000 C   0  0  0  0  0  0  0  0  0  0  0  0
   12.7651   -7.0948    0.0000 O   0  0  0  0  0  0  0  0  0  0  0  0
   14.3087   -9.7012    0.0000 C   0  0  0  0  0  0  0  0  0  0  0  0
   16.2638   -9.9962    0.0000 O   0  0  0  0  0  0  0  0  0  0  0  0
   16.9782  -10.4087    0.0000 C   0  0  0  0  0  0  0  0  0  0  0  0
   17.6927   -9.9962    0.0000 C   0  0  0  0  0  0  0  0  0  0  0  0
   16.2638   -6.6962    0.0000 C   0  0  0  0  0  0  0  0  0  0  0  0
   15.5493   -9.5838    0.0000 H   0  0  0  0  0  0  0  0  0  0  0  0
   13.4837   -9.6932    0.0000 O   0  0  0  0  0  0  0  0  0  0  0  0
   13.0836  -10.4147    0.0000 C   0  0  0  0  0  0  0  0  0  0  0  0
   12.2587  -10.4289    0.0000 C   0  0  0  0  0  0  0  0  0  0  0  0
   13.5083  -11.1220    0.0000 O   0  0  0  0  0  0  0  0  0  0  0  0
   17.7033   -7.5151    0.0000 O   0  0  0  0  0  0  0  0  0  0  0  0
   18.4071   -6.2715    0.0000 C   0  0  0  0  0  0  0  0  0  0  0  0
   17.6962   -6.6901    0.0000 C   0  0  0  0  0  0  0  0  0  0  0  0
   16.9782   -6.2837    0.0000 O   0  0  0  0  0  0  0  0  0  0  0  0
   16.9782  -11.2337    0.0000 O   0  0  0  0  0  0  0  0  0  0  0  0
   18.4072  -10.4087    0.0000 C   0  0  0  0  0  0  0  0  0  0  0  0
   19.1217   -9.9962    0.0000 C   0  0  0  0  0  0  0  0  0  0  0  0
   18.4072  -11.2338    0.0000 C   0  0  0  0  0  0  0  0  0  0  0  0
   11.3200   -7.8912    0.0000 C   0  0  0  0  0  0  0  0  0  0  0  0
   10.5974   -8.2894    0.0000 C   0  0  0  0  0  0  0  0  0  0  0  0
   11.3364   -7.0663    0.0000 C   0  0  0  0  0  0  0  0  0  0  0  0
   14.9782   -9.8106    0.0000 O   0  0  0  0  0  0  0  0  0  0  0  0
   11.8585  -11.1503    0.0000 C   0  0  0  0  0  0  0  0  0  0  0  0
   11.0336  -11.1645    0.0000 C   0  0  0  0  0  0  0  0  0  0  0  0
   10.6335  -11.8859    0.0000 C   0  0  0  0  0  0  0  0  0  0  0  0
    9.8086  -11.9001    0.0000 C   0  0  0  0  0  0  0  0  0  0  0  0
    9.4084  -12.6215    0.0000 C   0  0  0  0  0  0  0  0  0  0  0  0
    8.5835  -12.6357    0.0000 C   0  0  0  0  0  0  0  0  0  0  0  0
    8.1834  -13.3571    0.0000 C   0  0  0  0  0  0  0  0  0  0  0  0
    7.3585  -13.3713    0.0000 C   0  0  0  0  0  0  0  0  0  0  0  0
    6.9583  -14.0928    0.0000 C   0  0  0  0  0  0  0  0  0  0  0  0
    6.1334  -14.1069    0.0000 C   0  0  0  0  0  0  0  0  0  0  0  0
    5.7333  -14.8284    0.0000 C   0  0  0  0  0  0  0  0  0  0  0  0
    4.9084  -14.8425    0.0000 C   0  0  0  0  0  0  0  0  0  0  0  0
    4.5082  -15.5640    0.0000 C   0  0  0  0  0  0  0  0  0  0  0  0
    3.6833  -15.5781    0.0000 C   0  0  0  0  0  0  0  0  0  0  0  0
  2  3  1  0  0  0  0
  3  4  1  0  0  0  0
  4  5  1  0  0  0  0
  5  6  2  0  0  0  0
  6  1  1  0  0  0  0
  1  7  2  0  0  0  0
  7  8  1  0  0  0  0
  8  9  1  0  0  0  0
  9  2  1  0  0  0  0
  8 10  1  1  0  0  0
 10 11  1  0  0  0  0
 11 12  1  0  0  0  0
 11 13  2  0  0  0  0
  9 14  1  1  0  0  0
  3 15  1  1  0  0  0
 15 16  1  0  0  0  0
 16 17  1  0  0  0  0
  6 18  1  0  0  0  0
  2 19  1  1  0  0  0
 14 20  1  0  0  0  0
 20 21  1  0  0  0  0
 21 22  1  0  0  0  0
 21 23  2  0  0  0  0
  1  2  1  0  0  0  0
 26 24  2  0  0  0  0
 18 27  1  0  0  0  0
 26 25  1  0  0  0  0
 27 26  1  0  0  0  0
 16 28  2  0  0  0  0
 17 29  1  0  0  0  0
 29 30  1  0  0  0  0
 29 31  1  0  0  0  0
 12 32  1  0  0  0  0
 32 33  1  0  0  0  0
 32 34  1  0  0  0  0
  9 35  1  6  0  0  0
 22 36  1  0  0  0  0
 36 37  1  0  0  0  0
 37 38  1  0  0  0  0
 38 39  1  0  0  0  0
 39 40  1  0  0  0  0
 40 41  1  0  0  0  0
 41 42  1  0  0  0  0
 42 43  1  0  0  0  0
 43 44  1  0  0  0  0
 44 45  1  0  0  0  0
 45 46  1  0  0  0  0
 46 47  1  0  0  0  0
 47 48  1  0  0  0  0
 48 49  1  0  0  0  0
M  END
>  <cdx:fragmentId>
5

$$$$
