94752.cdx
  Mrv1902 05222410222D          

 45 46  0  0  0  0            999 V2000
    7.8768   -6.5038    0.0000 C   0  0  0  0  0  0  0  0  0  0  0  0
    7.8768   -7.3287    0.0000 C   0  0  2  0  0  0  0  0  0  0  0  0
    8.5913   -7.7413    0.0000 C   0  0  1  0  0  0  0  0  0  0  0  0
    9.3057   -7.3287    0.0000 O   0  0  0  0  0  0  0  0  0  0  0  0
    9.3057   -6.5038    0.0000 C   0  0  0  0  0  0  0  0  0  0  0  0
    8.5913   -6.0912    0.0000 C   0  0  0  0  0  0  0  0  0  0  0  0
    7.0922   -6.2488    0.0000 C   0  0  0  0  0  0  0  0  0  0  0  0
    6.6073   -6.9162    0.0000 C   0  0  1  0  0  0  0  0  0  0  0  0
    7.0922   -7.5837    0.0000 C   0  0  2  0  0  0  0  0  0  0  0  0
    5.7823   -6.9162    0.0000 O   0  0  0  0  0  0  0  0  0  0  0  0
    5.0761   -6.4896    0.0000 C   0  0  0  0  0  0  0  0  0  0  0  0
    4.3536   -6.8878    0.0000 C   0  0  0  0  0  0  0  0  0  0  0  0
    5.0926   -5.6648    0.0000 O   0  0  0  0  0  0  0  0  0  0  0  0
    6.6362   -8.2712    0.0000 C   0  0  0  0  0  0  0  0  0  0  0  0
    8.5913   -8.5663    0.0000 O   0  0  0  0  0  0  0  0  0  0  0  0
    9.3057   -8.9788    0.0000 C   0  0  0  0  0  0  0  0  0  0  0  0
   10.0202   -8.5663    0.0000 C   0  0  0  0  0  0  0  0  0  0  0  0
    8.5913   -5.2663    0.0000 C   0  0  0  0  0  0  0  0  0  0  0  0
    7.8768   -8.1538    0.0000 H   0  0  0  0  0  0  0  0  0  0  0  0
    5.8112   -8.2632    0.0000 O   0  0  0  0  0  0  0  0  0  0  0  0
    5.4111   -8.9847    0.0000 C   0  0  0  0  0  0  0  0  0  0  0  0
    4.5862   -8.9989    0.0000 C   0  0  0  0  0  0  0  0  0  0  0  0
    5.8358   -9.6920    0.0000 O   0  0  0  0  0  0  0  0  0  0  0  0
   10.0308   -6.0851    0.0000 O   0  0  0  0  0  0  0  0  0  0  0  0
   10.7346   -4.8415    0.0000 C   0  0  0  0  0  0  0  0  0  0  0  0
   10.0237   -5.2601    0.0000 C   0  0  0  0  0  0  0  0  0  0  0  0
    9.3057   -4.8538    0.0000 O   0  0  0  0  0  0  0  0  0  0  0  0
    9.3057   -9.8037    0.0000 O   0  0  0  0  0  0  0  0  0  0  0  0
   10.7347   -8.9788    0.0000 C   0  0  0  0  0  0  0  0  0  0  0  0
   11.4492   -8.5663    0.0000 C   0  0  0  0  0  0  0  0  0  0  0  0
   10.7347   -9.8038    0.0000 C   0  0  0  0  0  0  0  0  0  0  0  0
    3.6475   -6.4612    0.0000 C   0  0  0  0  0  0  0  0  0  0  0  0
    2.9249   -6.8594    0.0000 C   0  0  0  0  0  0  0  0  0  0  0  0
    3.6639   -5.6363    0.0000 C   0  0  0  0  0  0  0  0  0  0  0  0
    4.1860   -9.7203    0.0000 O   0  0  0  0  0  0  0  0  0  0  0  0
    7.3057   -8.3806    0.0000 O   0  0  0  0  0  0  0  0  0  0  0  0
    4.1615   -8.2916    0.0000 C   0  0  0  0  0  0  0  0  0  0  0  0
    4.5616   -7.5701    0.0000 C   0  0  0  0  0  0  0  0  0  0  0  0
    3.3366   -8.3057    0.0000 C   0  0  0  0  0  0  0  0  0  0  0  0
    4.6107  -10.4276    0.0000 C   0  0  0  0  0  0  0  0  0  0  0  0
    4.2105  -11.1490    0.0000 C   0  0  0  0  0  0  0  0  0  0  0  0
    5.4356  -10.4134    0.0000 O   0  0  0  0  0  0  0  0  0  0  0  0
    4.6352  -11.8563    0.0000 C   0  0  0  0  0  0  0  0  0  0  0  0
    4.2351  -12.5778    0.0000 C   0  0  0  0  0  0  0  0  0  0  0  0
    5.4601  -11.8421    0.0000 C   0  0  0  0  0  0  0  0  0  0  0  0
  2  3  1  0  0  0  0
  3  4  1  0  0  0  0
  4  5  1  0  0  0  0
  5  6  2  0  0  0  0
  6  1  1  0  0  0  0
  1  7  2  0  0  0  0
  7  8  1  0  0  0  0
  8  9  1  0  0  0  0
  9  2  1  0  0  0  0
  8 10  1  1  0  0  0
 10 11  1  0  0  0  0
 11 12  1  0  0  0  0
 11 13  2  0  0  0  0
  9 14  1  1  0  0  0
  3 15  1  1  0  0  0
 15 16  1  0  0  0  0
 16 17  1  0  0  0  0
  6 18  1  0  0  0  0
  2 19  1  1  0  0  0
 14 20  1  0  0  0  0
 20 21  1  0  0  0  0
 21 22  1  0  0  0  0
 21 23  2  0  0  0  0
  1  2  1  0  0  0  0
 26 24  2  0  0  0  0
 18 27  1  0  0  0  0
 26 25  1  0  0  0  0
 27 26  1  0  0  0  0
 16 28  2  0  0  0  0
 17 29  1  0  0  0  0
 29 30  1  0  0  0  0
 29 31  1  0  0  0  0
 12 32  1  0  0  0  0
 32 33  1  0  0  0  0
 32 34  1  0  0  0  0
 22 35  1  0  0  0  0
  9 36  1  6  0  0  0
 22 37  1  0  0  0  0
 37 38  1  0  0  0  0
 37 39  1  0  0  0  0
 35 40  1  0  0  0  0
 40 41  1  0  0  0  0
 40 42  2  0  0  0  0
 41 43  1  0  0  0  0
 43 44  1  0  0  0  0
 43 45  1  0  0  0  0
M  END
>  <cdx:fragmentId>
5

$$$$
