94754.cdx
  Mrv1902 05222410212D          

 25 27  0  0  0  0            999 V2000
    6.0985   -6.8475    0.0000 C   0  0  0  0  0  0  0  0  0  0  0  0
    6.0985   -7.6725    0.0000 C   0  0  1  0  0  0  0  0  0  0  0  0
    6.7435   -8.1869    0.0000 C   0  0  0  0  0  0  0  0  0  0  0  0
    7.5478   -8.0033    0.0000 C   0  0  1  0  0  0  0  0  0  0  0  0
    7.9057   -7.2600    0.0000 C   0  0  1  0  0  0  0  0  0  0  0  0
    7.5478   -6.5167    0.0000 C   0  0  0  0  0  0  0  0  0  0  0  0
    6.7435   -6.3331    0.0000 C   0  0  0  0  0  0  0  0  0  0  0  0
    8.1441   -8.5734    0.0000 C   0  0  1  0  0  0  0  0  0  0  0  0
    8.8706   -8.1825    0.0000 C   0  0  0  0  0  0  0  0  0  0  0  0
    8.7233   -7.3707    0.0000 O   0  0  0  0  0  0  0  0  0  0  0  0
    5.3138   -6.5926    0.0000 C   0  0  2  0  0  0  0  0  0  0  0  0
    4.8289   -7.2600    0.0000 C   0  0  0  0  0  0  0  0  0  0  0  0
    5.3138   -7.9274    0.0000 C   0  0  2  0  0  0  0  0  0  0  0  0
    6.5599   -5.5288    0.0000 C   0  0  0  0  0  0  0  0  0  0  0  0
    9.6139   -8.5404    0.0000 O   0  0  0  0  0  0  0  0  0  0  0  0
    8.0333   -9.3910    0.0000 C   0  0  0  0  0  0  0  0  0  0  0  0
    5.5274   -8.7243    0.0000 C   0  0  0  0  0  0  0  0  0  0  0  0
    5.0589   -5.8079    0.0000 O   0  0  0  0  0  0  0  0  0  0  0  0
    4.7305   -8.5108    0.0000 O   0  0  0  0  0  0  0  0  0  0  0  0
    6.0985   -8.4975    0.0000 H   0  0  0  0  0  0  0  0  0  0  0  0
    4.2620   -5.5944    0.0000 C   0  0  0  0  0  0  0  0  0  0  0  0
    4.0485   -4.7975    0.0000 O   0  0  0  0  0  0  0  0  0  0  0  0
    3.6786   -6.1778    0.0000 C   0  0  0  0  0  0  0  0  0  0  0  0
    7.1353   -8.7178    0.0000 H   0  0  0  0  0  0  0  0  0  0  0  0
    8.3182   -6.5455    0.0000 H   0  0  0  0  0  0  0  0  0  0  0  0
  1  2  1  0  0  0  0
  2  3  1  0  0  0  0
  3  4  1  0  0  0  0
  4  5  1  0  0  0  0
  5  6  1  0  0  0  0
  6  7  1  0  0  0  0
  7  1  2  0  0  0  0
  4  8  1  0  0  0  0
  8  9  1  0  0  0  0
  9 10  1  0  0  0  0
 10  5  1  0  0  0  0
  1 11  1  0  0  0  0
 11 12  1  0  0  0  0
 12 13  1  0  0  0  0
 13  2  1  0  0  0  0
  7 14  1  0  0  0  0
  9 15  2  0  0  0  0
  8 16  1  1  0  0  0
 13 17  1  1  0  0  0
 11 18  1  6  0  0  0
 13 19  1  6  0  0  0
  2 20  1  6  0  0  0
 18 21  1  0  0  0  0
 21 22  2  0  0  0  0
 21 23  1  0  0  0  0
  4 24  1  6  0  0  0
  5 25  1  6  0  0  0
M  END
>  <cdx:fragmentId>
5

$$$$
