94766.cdx
  Mrv1902 05222410242D          

 14 15  0  0  0  0            999 V2000
    8.6212   -7.6947    0.0000 C   0  0  0  0  0  0  0  0  0  0  0  0
    9.3356   -8.1072    0.0000 C   0  0  0  0  0  0  0  0  0  0  0  0
    9.3356   -8.9322    0.0000 C   0  0  0  0  0  0  0  0  0  0  0  0
    8.6212   -9.3447    0.0000 C   0  0  0  0  0  0  0  0  0  0  0  0
    7.9067   -8.9322    0.0000 C   0  0  0  0  0  0  0  0  0  0  0  0
    7.1922   -9.3447    0.0000 C   0  0  0  0  0  0  0  0  0  0  0  0
    6.4777   -8.9322    0.0000 C   0  0  0  0  0  0  0  0  0  0  0  0
    6.4777   -8.1072    0.0000 C   0  0  0  0  0  0  0  0  0  0  0  0
    7.1922   -7.6947    0.0000 C   0  0  0  0  0  0  0  0  0  0  0  0
    7.9067   -8.1072    0.0000 C   0  0  0  0  0  0  0  0  0  0  0  0
    8.6212   -6.8697    0.0000 O   0  0  0  0  0  0  0  0  0  0  0  0
    5.7633   -9.3447    0.0000 C   0  0  0  0  0  0  0  0  0  0  0  0
    5.7633  -10.1697    0.0000 C   0  0  0  0  0  0  0  0  0  0  0  0
    5.0488   -8.9322    0.0000 C   0  0  0  0  0  0  0  0  0  0  0  0
  1  2  1  0  0  0  0
  2  3  2  0  0  0  0
  3  4  1  0  0  0  0
  4  5  2  0  0  0  0
  5  6  1  0  0  0  0
  6  7  2  0  0  0  0
  7  8  1  0  0  0  0
  8  9  2  0  0  0  0
  9 10  1  0  0  0  0
  1 10  2  0  0  0  0
  5 10  1  0  0  0  0
  1 11  1  0  0  0  0
 12 13  1  0  0  0  0
 12 14  1  0  0  0  0
  7 12  1  0  0  0  0
M  END
>  <cdx:groupId>
45

>  <cdx:fragmentId>
5

$$$$
