94762.cdx
  Mrv1902 05222410242D          

 13 13  0  0  0  0            999 V2000
    6.3513   -7.7470    0.0000 S   0  0  0  0  0  0  0  0  0  0  0  0
    5.6916   -8.2424    0.0000 C   0  0  0  0  0  0  0  0  0  0  0  0
    5.9590   -9.0229    0.0000 C   0  0  0  0  0  0  0  0  0  0  0  0
    6.7839   -9.0098    0.0000 C   0  0  0  0  0  0  0  0  0  0  0  0
    7.0264   -8.2213    0.0000 C   0  0  0  0  0  0  0  0  0  0  0  0
    4.9031   -7.9999    0.0000 O   0  0  0  0  0  0  0  0  0  0  0  0
    7.2793   -9.6695    0.0000 C   0  0  0  0  0  0  0  0  0  0  0  0
    5.4847   -9.6979    0.0000 C   0  0  0  0  0  0  0  0  0  0  0  0
    7.8068   -7.9539    0.0000 S   0  0  0  0  0  0  0  0  0  0  0  0
    7.9656   -7.1444    0.0000 O   0  0  0  0  0  0  0  0  0  0  0  0
    8.4286   -8.4962    0.0000 C   0  0  0  0  0  0  0  0  0  0  0  0
    9.2091   -8.2289    0.0000 C   0  0  0  0  0  0  0  0  0  0  0  0
    9.8308   -8.7711    0.0000 C   0  0  0  0  0  0  0  0  0  0  0  0
  1  2  1  0  0  0  0
  2  3  1  0  0  0  0
  3  4  1  0  0  0  0
  4  5  1  0  0  0  0
  1  5  1  0  0  0  0
  2  6  1  0  0  0  0
  4  7  1  0  0  0  0
  3  8  1  0  0  0  0
  9 10  2  0  0  0  0
 11 12  1  0  0  0  0
 12 13  2  0  0  0  0
  9 11  1  0  0  0  0
  5  9  1  0  0  0  0
M  END
>  <cdx:fragmentId>
5

$$$$
