94763.cdx
  Mrv1902 05222410242D          

 15 16  0  0  0  0            999 V2000
    6.7304   -2.9089    0.0000 C   0  0  0  0  0  0  0  0  0  0  0  0
    6.7304   -3.7339    0.0000 C   0  0  0  0  0  0  0  0  0  0  0  0
    6.0159   -4.1464    0.0000 C   0  0  0  0  0  0  0  0  0  0  0  0
    5.3014   -3.7339    0.0000 C   0  0  0  0  0  0  0  0  0  0  0  0
    5.3014   -2.9089    0.0000 C   0  0  0  0  0  0  0  0  0  0  0  0
    6.0159   -2.4964    0.0000 C   0  0  0  0  0  0  0  0  0  0  0  0
    7.4448   -2.4964    0.0000 O   0  0  0  0  0  0  0  0  0  0  0  0
    4.5870   -4.1464    0.0000 C   0  0  0  0  0  0  0  0  0  0  0  0
    4.5870   -4.9714    0.0000 C   0  0  0  0  0  0  0  0  0  0  0  0
    3.8725   -3.7339    0.0000 C   0  0  0  0  0  0  0  0  0  0  0  0
    3.1580   -4.1464    0.0000 C   0  0  0  0  0  0  0  0  0  0  0  0
    2.4436   -3.7339    0.0000 C   0  0  0  0  0  0  0  0  0  0  0  0
    2.4436   -2.9089    0.0000 C   0  0  0  0  0  0  0  0  0  0  0  0
    3.1580   -2.4964    0.0000 C   0  0  0  0  0  0  0  0  0  0  0  0
    3.8725   -2.9089    0.0000 C   0  0  0  0  0  0  0  0  0  0  0  0
  1  2  1  0  0  0  0
  2  3  2  0  0  0  0
  3  4  1  0  0  0  0
  4  5  2  0  0  0  0
  5  6  1  0  0  0  0
  1  6  2  0  0  0  0
  1  7  1  0  0  0  0
  8  9  1  0  0  0  0
 10 11  1  0  0  0  0
 11 12  2  0  0  0  0
 12 13  1  0  0  0  0
 13 14  2  0  0  0  0
 14 15  1  0  0  0  0
 10 15  2  0  0  0  0
  8 10  1  0  0  0  0
  4  8  1  0  0  0  0
M  END
>  <cdx:groupId>
48

>  <cdx:fragmentId>
23

$$$$
