94765.cdx
  Mrv1902 05222410252D          

 16 17  0  0  0  0            999 V2000
    8.2761   -8.0738    0.0000 C   0  0  0  0  0  0  0  0  0  0  0  0
    9.0609   -8.3281    0.0000 C   0  0  0  0  0  0  0  0  0  0  0  0
    9.0617   -9.1531    0.0000 C   0  0  0  0  0  0  0  0  0  0  0  0
    8.2773   -9.4087    0.0000 C   0  0  0  0  0  0  0  0  0  0  0  0
    7.7918   -8.7417    0.0000 C   0  0  0  0  0  0  0  0  0  0  0  0
    7.3799   -9.4566    0.0000 C   0  0  0  0  0  0  0  0  0  0  0  0
    6.5549   -9.4573    0.0000 C   0  0  0  0  0  0  0  0  0  0  0  0
    6.1418   -8.7432    0.0000 C   0  0  0  0  0  0  0  0  0  0  0  0
    6.5536   -8.0284    0.0000 C   0  0  0  0  0  0  0  0  0  0  0  0
    7.3786   -8.0276    0.0000 C   0  0  0  0  0  0  0  0  0  0  0  0
    6.1431  -10.1722    0.0000 O   0  0  0  0  0  0  0  0  0  0  0  0
    5.3168   -8.7440    0.0000 C   0  0  0  0  0  0  0  0  0  0  0  0
    8.0231  -10.1936    0.0000 C   0  0  0  0  0  0  0  0  0  0  0  0
    8.0204   -7.2895    0.0000 C   0  0  0  0  0  0  0  0  0  0  0  0
    8.5719   -6.6759    0.0000 C   0  0  0  0  0  0  0  0  0  0  0  0
    7.2133   -7.1187    0.0000 C   0  0  0  0  0  0  0  0  0  0  0  0
  1  2  1  0  0  0  0
  2  3  1  0  0  0  0
  3  4  1  0  0  0  0
  4  5  1  0  0  0  0
  5  6  1  0  0  0  0
  6  7  1  0  0  0  0
  7  8  1  0  0  0  0
  8  9  2  0  0  0  0
  9 10  1  0  0  0  0
  1  5  1  0  0  0  0
 10  5  1  0  0  0  0
  7 11  1  0  0  0  0
  8 12  1  0  0  0  0
  4 13  1  0  0  0  0
 14 15  1  0  0  0  0
 14 16  1  0  0  0  0
  1 14  1  0  0  0  0
M  END
>  <cdx:fragmentId>
5

$$$$
