94769.cdx
  Mrv1902 05222410202D          

 46 50  0  0  0  0            999 V2000
    3.7558   -5.9293    0.0000 O   0  0  0  0  0  0  0  0  0  0  0  0
    5.1859   -5.1063    0.0000 O   0  0  0  0  0  0  0  0  0  0  0  0
    6.6149   -5.1082    0.0000 O   0  0  0  0  0  0  0  0  0  0  0  0
    6.6137   -5.9332    0.0000 C   0  0  0  0  0  0  0  0  0  0  0  0
    2.3580   -8.4071    0.0000 O   0  0  0  0  0  0  0  0  0  0  0  0
    2.3466  -10.0570    0.0000 O   0  0  0  0  0  0  0  0  0  0  0  0
    3.7698  -10.8919    0.0000 O   0  0  0  0  0  0  0  0  0  0  0  0
    5.2044  -10.0768    0.0000 C   0  0  0  0  0  0  0  0  0  0  0  0
    4.4928   -9.6594    0.0000 C   0  0  1  0  0  0  0  0  0  0  0  0
    3.7755  -10.0669    0.0000 C   0  0  1  0  0  0  0  0  0  0  0  0
    3.0639   -9.6495    0.0000 C   0  0  2  0  0  0  0  0  0  0  0  0
    3.0696   -8.8245    0.0000 C   0  0  2  0  0  0  0  0  0  0  0  0
    3.7869   -8.4169    0.0000 C   0  0  1  0  0  0  0  0  0  0  0  0
    4.4985   -8.8344    0.0000 O   0  0  0  0  0  0  0  0  0  0  0  0
    3.8003   -7.6065    0.0000 O   0  0  0  0  0  0  0  0  0  0  0  0
    5.8987   -6.3447    0.0000 C   0  0  2  0  0  0  0  0  0  0  0  0
    5.1848   -5.9313    0.0000 C   0  0  2  0  0  0  0  0  0  0  0  0
    4.4697   -6.3428    0.0000 C   0  0  1  0  0  0  0  0  0  0  0  0
    4.4686   -7.1678    0.0000 C   0  0  2  0  0  0  0  0  0  0  0  0
    5.1825   -7.5813    0.0000 C   0  0  1  0  0  0  0  0  0  0  0  0
    5.8976   -7.1697    0.0000 O   0  0  0  0  0  0  0  0  0  0  0  0
    5.1814   -8.4063    0.0000 O   0  0  0  0  0  0  0  0  0  0  0  0
    7.3299   -4.6967    0.0000 C   0  0  0  0  0  0  0  0  0  0  0  0
    7.3310   -3.8717    0.0000 C   0  0  0  0  0  0  0  0  0  0  0  0
    8.0438   -5.1102    0.0000 O   0  0  0  0  0  0  0  0  0  0  0  0
    6.6212  -10.8749    0.0000 O   0  0  0  0  0  0  0  0  0  0  0  0
   11.6134   -8.7904    0.0000 O   0  0  0  0  0  0  0  0  0  0  0  0
   12.3224   -7.5497    0.0000 C   0  0  0  0  0  0  0  0  0  0  0  0
   11.6061   -7.1404    0.0000 O   0  0  0  0  0  0  0  0  0  0  0  0
    9.4645   -7.5624    0.0000 C   0  0  0  0  0  0  0  0  0  0  0  0
   10.1772   -7.1467    0.0000 C   0  0  0  0  0  0  0  0  0  0  0  0
   10.8935   -7.5561    0.0000 C   0  0  0  0  0  0  0  0  0  0  0  0
   10.8971   -8.3810    0.0000 C   0  0  0  0  0  0  0  0  0  0  0  0
   10.1845   -8.7967    0.0000 C   0  0  0  0  0  0  0  0  0  0  0  0
    9.4682   -8.3873    0.0000 C   0  0  0  0  0  0  0  0  0  0  0  0
    8.0502  -10.8686    0.0000 O   0  0  0  0  0  0  0  0  0  0  0  0
    8.0392   -8.3937    0.0000 O   0  0  0  0  0  0  0  0  0  0  0  0
    7.3266   -8.8093    0.0000 C   0  0  0  0  0  0  0  0  0  0  0  0
    6.6103   -8.4000    0.0000 C   0  0  0  0  0  0  0  0  0  0  0  0
    5.8977   -8.8156    0.0000 C   0  0  0  0  0  0  0  0  0  0  0  0
    5.9013   -9.6406    0.0000 C   0  0  0  0  0  0  0  0  0  0  0  0
    6.6176  -10.0499    0.0000 C   0  0  0  0  0  0  0  0  0  0  0  0
    7.3302   -9.6343    0.0000 C   0  0  0  0  0  0  0  0  0  0  0  0
    8.0465  -10.0436    0.0000 C   0  0  0  0  0  0  0  0  0  0  0  0
    8.7592   -9.6280    0.0000 C   0  0  0  0  0  0  0  0  0  0  0  0
    8.7555   -8.8030    0.0000 C   0  0  0  0  0  0  0  0  0  0  0  0
 20 22  1  1  0  0  0
 18  1  1  1  0  0  0
 17  2  1  6  0  0  0
 16  4  1  1  0  0  0
  4  3  1  0  0  0  0
 19 15  1  6  0  0  0
 40 22  1  0  0  0  0
 13 15  1  6  0  0  0
 12  5  1  1  0  0  0
 11  6  1  1  0  0  0
 10  7  1  6  0  0  0
  9  8  1  1  0  0  0
 14  9  1  0  0  0  0
 10  9  1  0  0  0  0
 11 10  1  0  0  0  0
 12 11  1  0  0  0  0
 13 12  1  0  0  0  0
 14 13  1  0  0  0  0
 21 16  1  0  0  0  0
 17 16  1  0  0  0  0
 18 17  1  0  0  0  0
 19 18  1  0  0  0  0
 20 19  1  0  0  0  0
 21 20  1  0  0  0  0
 42 26  1  0  0  0  0
 46 35  1  0  0  0  0
 33 27  1  0  0  0  0
 32 29  1  0  0  0  0
 29 28  1  0  0  0  0
 35 30  2  0  0  0  0
 31 30  1  0  0  0  0
 32 31  2  0  0  0  0
 33 32  1  0  0  0  0
 34 33  2  0  0  0  0
 35 34  1  0  0  0  0
 44 36  2  0  0  0  0
 46 37  1  0  0  0  0
 38 37  1  0  0  0  0
 43 38  2  0  0  0  0
 39 38  1  0  0  0  0
 40 39  2  0  0  0  0
 41 40  1  0  0  0  0
 42 41  2  0  0  0  0
 43 42  1  0  0  0  0
 44 43  1  0  0  0  0
 45 44  1  0  0  0  0
 46 45  2  0  0  0  0
  3 23  1  0  0  0  0
 23 24  1  0  0  0  0
 23 25  2  0  0  0  0
M  END
>  <cdx:fragmentId>
63

$$$$
