94764.cdx
  Mrv1902 05222410252D          

 16 17  0  0  0  0            999 V2000
    8.1174   -8.2419    0.0000 O   0  0  0  0  0  0  0  0  0  0  0  0
    7.4015   -8.6519    0.0000 C   0  0  1  0  0  0  0  0  0  0  0  0
    7.4044   -7.8269    0.0000 C   0  0  2  0  0  0  0  0  0  0  0  0
    7.3985   -9.4769    0.0000 C   0  0  0  0  0  0  0  0  0  0  0  0
    8.1115   -9.8919    0.0000 C   0  0  0  0  0  0  0  0  0  0  0  0
    8.1085  -10.7169    0.0000 C   0  0  0  0  0  0  0  0  0  0  0  0
    7.3926  -11.1269    0.0000 C   0  0  0  0  0  0  0  0  0  0  0  0
    6.6796  -10.7118    0.0000 C   0  0  0  0  0  0  0  0  0  0  0  0
    6.6826   -9.8868    0.0000 C   0  0  0  0  0  0  0  0  0  0  0  0
    7.3896  -11.9518    0.0000 C   0  0  0  0  0  0  0  0  0  0  0  0
    6.9945   -7.1109    0.0000 C   0  0  0  0  0  0  0  0  0  0  0  0
    7.4095   -6.3979    0.0000 C   0  0  0  0  0  0  0  0  0  0  0  0
    6.9996   -5.6820    0.0000 C   0  0  0  0  0  0  0  0  0  0  0  0
    6.1746   -5.6790    0.0000 C   0  0  0  0  0  0  0  0  0  0  0  0
    7.4147   -4.9690    0.0000 C   0  0  0  0  0  0  0  0  0  0  0  0
    6.6855   -9.0618    0.0000 C   0  0  0  0  0  0  0  0  0  0  0  0
  1  2  1  0  0  0  0
  2  3  1  0  0  0  0
  1  3  1  0  0  0  0
  4  5  1  0  0  0  0
  5  6  1  0  0  0  0
  6  7  2  0  0  0  0
  7  8  1  0  0  0  0
  8  9  1  0  0  0  0
  4  9  1  0  0  0  0
  7 10  1  0  0  0  0
  2  4  1  0  0  0  0
 11 12  1  0  0  0  0
 12 13  2  0  0  0  0
 13 14  1  0  0  0  0
 13 15  1  0  0  0  0
  3 11  1  6  0  0  0
  2 16  1  1  0  0  0
M  END
>  <cdx:fragmentId>
11

$$$$
