94767.cdx
  Mrv1902 05222410252D          

 12 12  0  0  0  0            999 V2000
    5.9868   -9.5160    0.0000 O   0  0  0  0  0  0  0  0  0  0  0  0
    5.5743   -8.8015    0.0000 C   0  0  0  0  0  0  0  0  0  0  0  0
    6.1263   -8.1884    0.0000 C   0  0  0  0  0  0  0  0  0  0  0  0
    6.8800   -8.5240    0.0000 C   0  0  0  0  0  0  0  0  0  0  0  0
    6.7938   -9.3445    0.0000 C   0  0  0  0  0  0  0  0  0  0  0  0
    4.7538   -8.7153    0.0000 O   0  0  0  0  0  0  0  0  0  0  0  0
    7.5945   -8.1115    0.0000 C   0  0  0  0  0  0  0  0  0  0  0  0
    8.3089   -8.5240    0.0000 C   0  0  0  0  0  0  0  0  0  0  0  0
    9.0234   -8.1115    0.0000 C   0  0  0  0  0  0  0  0  0  0  0  0
    9.0234   -7.2865    0.0000 C   0  0  0  0  0  0  0  0  0  0  0  0
    8.3089   -9.3490    0.0000 C   0  0  0  0  0  0  0  0  0  0  0  0
    9.7379   -8.5240    0.0000 C   0  0  0  0  0  0  0  0  0  0  0  0
  1  2  1  0  0  0  0
  2  3  1  0  0  0  0
  3  4  1  0  0  0  0
  4  5  1  0  0  0  0
  1  5  1  0  0  0  0
  2  6  2  0  0  0  0
  7  8  1  0  0  0  0
  8  9  1  0  0  0  0
  9 10  1  0  0  0  0
  8 11  2  0  0  0  0
  9 12  1  0  0  0  0
  4  7  1  0  0  0  0
M  END
>  <cdx:groupId>
38

>  <cdx:fragmentId>
5

$$$$
