94776.cdx
  Mrv1902 05222410242D          

 20 22  0  0  0  0            999 V2000
    5.1543   -6.8475    0.0000 C   0  0  0  0  0  0  0  0  0  0  0  0
    5.1543   -7.6725    0.0000 C   0  0  0  0  0  0  0  0  0  0  0  0
    5.8688   -8.0850    0.0000 C   0  0  0  0  0  0  0  0  0  0  0  0
    6.5832   -7.6725    0.0000 C   0  0  0  0  0  0  0  0  0  0  0  0
    6.5832   -6.8475    0.0000 C   0  0  2  0  0  0  0  0  0  0  0  0
    5.8688   -6.4350    0.0000 C   0  0  0  0  0  0  0  0  0  0  0  0
    7.2977   -8.0850    0.0000 C   0  0  2  0  0  0  0  0  0  0  0  0
    8.0122   -7.6725    0.0000 C   0  0  2  0  0  0  0  0  0  0  0  0
    8.0122   -6.8475    0.0000 C   0  0  0  0  0  0  0  0  0  0  0  0
    7.2977   -6.4350    0.0000 C   0  0  0  0  0  0  0  0  0  0  0  0
    7.4692   -8.8920    0.0000 O   0  0  0  0  0  0  0  0  0  0  0  0
    8.2897   -8.9782    0.0000 C   0  0  0  0  0  0  0  0  0  0  0  0
    8.6253   -8.2245    0.0000 C   0  0  2  0  0  0  0  0  0  0  0  0
    4.4398   -8.0850    0.0000 O   0  0  0  0  0  0  0  0  0  0  0  0
    5.8688   -8.9100    0.0000 C   0  0  0  0  0  0  0  0  0  0  0  0
    6.5832   -6.0225    0.0000 C   0  0  0  0  0  0  0  0  0  0  0  0
    6.6303   -8.5699    0.0000 H   0  0  0  0  0  0  0  0  0  0  0  0
    8.7659   -7.3369    0.0000 H   0  0  0  0  0  0  0  0  0  0  0  0
    9.3398   -7.8120    0.0000 C   0  0  0  0  0  0  0  0  0  0  0  0
    9.3398   -8.6370    0.0000 O   0  0  0  0  0  0  0  0  0  0  0  0
  1  2  1  0  0  0  0
  2  3  1  0  0  0  0
  3  4  2  0  0  0  0
  4  5  1  0  0  0  0
  5  6  1  0  0  0  0
  6  1  1  0  0  0  0
  4  7  1  0  0  0  0
  7  8  1  0  0  0  0
  8  9  1  0  0  0  0
  9 10  1  0  0  0  0
 10  5  1  0  0  0  0
  7 11  1  0  0  0  0
 11 12  1  0  0  0  0
 12 13  1  0  0  0  0
 13  8  1  0  0  0  0
  2 14  2  0  0  0  0
  3 15  1  0  0  0  0
  5 16  1  1  0  0  0
  7 17  1  1  0  0  0
  8 18  1  1  0  0  0
 13 19  1  1  0  0  0
 13 20  1  6  0  0  0
M  END
>  <cdx:fragmentId>
5

$$$$
