94771.cdx
  Mrv1902 05222410252D          

 13 13  0  0  0  0            999 V2000
    6.3267   -8.0360    0.0000 S   0  0  0  0  0  0  0  0  0  0  0  0
    5.6607   -8.5229    0.0000 C   0  0  0  0  0  0  0  0  0  0  0  0
    5.9181   -9.3068    0.0000 C   0  0  0  0  0  0  0  0  0  0  0  0
    6.7431   -9.3042    0.0000 C   0  0  0  0  0  0  0  0  0  0  0  0
    6.9956   -8.5189    0.0000 C   0  0  0  0  0  0  0  0  0  0  0  0
    7.2300   -9.9702    0.0000 C   0  0  0  0  0  0  0  0  0  0  0  0
    5.4352   -9.9757    0.0000 C   0  0  0  0  0  0  0  0  0  0  0  0
    6.3242   -7.2110    0.0000 O   0  0  0  0  0  0  0  0  0  0  0  0
    7.7795   -8.2615    0.0000 S   0  0  0  0  0  0  0  0  0  0  0  0
    8.5633   -8.0042    0.0000 O   0  0  0  0  0  0  0  0  0  0  0  0
    4.8753   -8.2704    0.0000 C   0  0  0  0  0  0  0  0  0  0  0  0
    4.2639   -8.8242    0.0000 C   0  0  0  0  0  0  0  0  0  0  0  0
    3.4785   -8.5717    0.0000 C   0  0  0  0  0  0  0  0  0  0  0  0
  1  2  1  0  0  0  0
  2  3  1  0  0  0  0
  3  4  1  0  0  0  0
  4  5  1  0  0  0  0
  1  5  1  0  0  0  0
  4  6  1  0  0  0  0
  3  7  1  0  0  0  0
  1  8  2  0  0  0  0
  5  9  1  0  0  0  0
  2 11  1  0  0  0  0
 11 12  1  0  0  0  0
 12 13  2  0  0  0  0
  9 10  1  0  0  0  0
M  STY  1   1 SUP
M  SAL   1  2   9  10
M  SBL   1  1   9
M  SMT   1 SOH
M  SAP   1  1   9   5  1
M  END
>  <cdx:fragmentId>
5

$$$$
