94770.cdx
  Mrv1902 05222410252D          

 52 57  0  0  0  0            999 V2000
   17.2737   -5.6097    0.0000 O   0  0  0  0  0  0  0  0  0  0  0  0
   17.9924   -6.0148    0.0000 C   0  0  2  0  0  0  0  0  0  0  0  0
   18.0009   -6.8397    0.0000 O   0  0  0  0  0  0  0  0  0  0  0  0
   18.7196   -7.2449    0.0000 C   0  0  1  0  0  0  0  0  0  0  0  0
   19.4298   -6.8250    0.0000 C   0  0  2  0  0  0  0  0  0  0  0  0
   19.4213   -6.0001    0.0000 C   0  0  1  0  0  0  0  0  0  0  0  0
   18.7026   -5.5950    0.0000 C   0  0  1  0  0  0  0  0  0  0  0  0
   18.7280   -8.0698    0.0000 C   0  0  0  0  0  0  0  0  0  0  0  0
   20.1315   -5.5803    0.0000 O   0  0  0  0  0  0  0  0  0  0  0  0
   20.1484   -7.2302    0.0000 O   0  0  0  0  0  0  0  0  0  0  0  0
   18.6941   -4.7700    0.0000 O   0  0  0  0  0  0  0  0  0  0  0  0
   19.4467   -8.4750    0.0000 O   0  0  0  0  0  0  0  0  0  0  0  0
    7.2549   -7.1759    0.0000 O   0  0  0  0  0  0  0  0  0  0  0  0
    6.5067   -5.9585    0.0000 O   0  0  0  0  0  0  0  0  0  0  0  0
    6.5294   -6.7832    0.0000 C   0  0  2  0  0  0  0  0  0  0  0  0
    5.8265   -7.2152    0.0000 C   0  0  1  0  0  0  0  0  0  0  0  0
    5.1010   -6.8225    0.0000 C   0  0  1  0  0  0  0  0  0  0  0  0
    5.0783   -5.9978    0.0000 C   0  0  2  0  0  0  0  0  0  0  0  0
    5.7812   -5.5658    0.0000 C   0  0  2  0  0  0  0  0  0  0  0  0
    5.7585   -4.7411    0.0000 C   0  0  0  0  0  0  0  0  0  0  0  0
    4.3528   -5.6051    0.0000 O   0  0  0  0  0  0  0  0  0  0  0  0
    4.3981   -7.2545    0.0000 O   0  0  0  0  0  0  0  0  0  0  0  0
    5.8492   -8.0399    0.0000 O   0  0  0  0  0  0  0  0  0  0  0  0
   12.2184   -9.2483    0.0000 O   0  0  0  0  0  0  0  0  0  0  0  0
   15.1245   -5.9906    0.0000 C   0  0  0  0  0  0  0  0  0  0  0  0
   15.8449   -5.5887    0.0000 C   0  0  0  0  0  0  0  0  0  0  0  0
   16.5533   -6.0116    0.0000 C   0  0  0  0  0  0  0  0  0  0  0  0
   16.5412   -6.8365    0.0000 C   0  0  0  0  0  0  0  0  0  0  0  0
   15.8207   -7.2385    0.0000 C   0  0  0  0  0  0  0  0  0  0  0  0
   15.1124   -6.8155    0.0000 C   0  0  0  0  0  0  0  0  0  0  0  0
   10.8310   -8.4026    0.0000 O   0  0  0  0  0  0  0  0  0  0  0  0
    9.4046   -9.2319    0.0000 O   0  0  0  0  0  0  0  0  0  0  0  0
    7.9732   -8.4113    0.0000 O   0  0  0  0  0  0  0  0  0  0  0  0
    7.9681   -6.7613    0.0000 C   0  0  0  0  0  0  0  0  0  0  0  0
    8.6839   -7.1716    0.0000 C   0  0  2  0  0  0  0  0  0  0  0  0
    8.6864   -7.9966    0.0000 C   0  0  2  0  0  0  0  0  0  0  0  0
    9.4021   -8.4069    0.0000 C   0  0  1  0  0  0  0  0  0  0  0  0
   10.1153   -7.9922    0.0000 C   0  0  2  0  0  0  0  0  0  0  0  0
   10.1128   -7.1672    0.0000 C   0  0  1  0  0  0  0  0  0  0  0  0
    9.3971   -6.7569    0.0000 O   0  0  0  0  0  0  0  0  0  0  0  0
   10.8260   -6.7526    0.0000 O   0  0  0  0  0  0  0  0  0  0  0  0
   13.6472   -9.2693    0.0000 O   0  0  0  0  0  0  0  0  0  0  0  0
   13.6836   -6.7945    0.0000 O   0  0  0  0  0  0  0  0  0  0  0  0
   12.9631   -7.1965    0.0000 C   0  0  0  0  0  0  0  0  0  0  0  0
   12.2548   -6.7736    0.0000 C   0  0  0  0  0  0  0  0  0  0  0  0
   11.5343   -7.1755    0.0000 C   0  0  0  0  0  0  0  0  0  0  0  0
   11.5222   -8.0004    0.0000 C   0  0  0  0  0  0  0  0  0  0  0  0
   12.2306   -8.4234    0.0000 C   0  0  0  0  0  0  0  0  0  0  0  0
   12.9510   -8.0214    0.0000 C   0  0  0  0  0  0  0  0  0  0  0  0
   13.6593   -8.4444    0.0000 C   0  0  0  0  0  0  0  0  0  0  0  0
   14.3798   -8.0424    0.0000 C   0  0  0  0  0  0  0  0  0  0  0  0
   14.3919   -7.2175    0.0000 C   0  0  0  0  0  0  0  0  0  0  0  0
  2  1  1  1  0  0  0
  2  3  1  0  0  0  0
  3  4  1  0  0  0  0
  4  5  1  0  0  0  0
  5  6  1  0  0  0  0
  6  7  1  0  0  0  0
  7  2  1  0  0  0  0
  4  8  1  1  0  0  0
  6  9  1  1  0  0  0
  5 10  1  6  0  0  0
  7 11  1  6  0  0  0
 48 24  1  0  0  0  0
 52 30  1  0  0  0  0
 27  1  1  0  0  0  0
 30 25  2  0  0  0  0
 26 25  1  0  0  0  0
 27 26  2  0  0  0  0
 28 27  1  0  0  0  0
 29 28  2  0  0  0  0
 30 29  1  0  0  0  0
 46 41  1  0  0  0  0
 39 41  1  1  0  0  0
 38 31  1  6  0  0  0
 37 32  1  1  0  0  0
 36 33  1  6  0  0  0
 35 34  1  1  0  0  0
 34 13  1  0  0  0  0
 40 35  1  0  0  0  0
 36 35  1  0  0  0  0
 37 36  1  0  0  0  0
 38 37  1  0  0  0  0
 39 38  1  0  0  0  0
 40 39  1  0  0  0  0
 50 42  2  0  0  0  0
 52 43  1  0  0  0  0
 44 43  1  0  0  0  0
 49 44  2  0  0  0  0
 45 44  1  0  0  0  0
 46 45  2  0  0  0  0
 47 46  1  0  0  0  0
 48 47  2  0  0  0  0
 49 48  1  0  0  0  0
 50 49  1  0  0  0  0
 51 50  1  0  0  0  0
 52 51  2  0  0  0  0
  8 12  1  0  0  0  0
 14 15  1  0  0  0  0
 15 16  1  0  0  0  0
 16 17  1  0  0  0  0
 17 18  1  0  0  0  0
 18 19  1  0  0  0  0
 14 19  1  0  0  0  0
 19 20  1  6  0  0  0
 18 21  1  1  0  0  0
 17 22  1  6  0  0  0
 16 23  1  6  0  0  0
 15 13  1  1  0  0  0
M  END
>  <cdx:fragmentId>
45

$$$$
