94774.cdx
  Mrv1902 05222410232D          

 24 26  0  0  0  0            999 V2000
   10.1528   -7.9369    0.0000 C   0  0  0  0  0  0  0  0  0  0  0  0
   10.1528   -7.1119    0.0000 C   0  0  0  0  0  0  0  0  0  0  0  0
    9.4384   -6.6994    0.0000 C   0  0  0  0  0  0  0  0  0  0  0  0
    8.7239   -7.1119    0.0000 C   0  0  1  0  0  0  0  0  0  0  0  0
    8.7239   -7.9369    0.0000 C   0  0  0  0  0  0  0  0  0  0  0  0
    9.4384   -8.3494    0.0000 C   0  0  0  0  0  0  0  0  0  0  0  0
   10.1528   -8.7619    0.0000 O   0  0  0  0  0  0  0  0  0  0  0  0
   10.8673   -6.6994    0.0000 O   0  0  0  0  0  0  0  0  0  0  0  0
    9.0259   -9.0639    0.0000 C   0  0  0  0  0  0  0  0  0  0  0  0
    7.8989   -7.1119    0.0000 C   0  0  0  0  0  0  0  0  0  0  0  0
    8.3114   -6.3975    0.0000 C   0  0  0  0  0  0  0  0  0  0  0  0
    8.0094   -8.3494    0.0000 C   0  0  0  0  0  0  0  0  0  0  0  0
    7.2949   -7.9369    0.0000 O   0  0  0  0  0  0  0  0  0  0  0  0
    6.5805   -8.3494    0.0000 C   0  0  1  0  0  0  0  0  0  0  0  0
    6.5805   -9.1744    0.0000 C   0  0  2  0  0  0  0  0  0  0  0  0
    7.2949   -9.5869    0.0000 O   0  0  0  0  0  0  0  0  0  0  0  0
    5.8660   -9.5869    0.0000 C   0  0  1  0  0  0  0  0  0  0  0  0
    5.8660  -10.4119    0.0000 O   0  0  0  0  0  0  0  0  0  0  0  0
    5.1515   -9.1744    0.0000 C   0  0  2  0  0  0  0  0  0  0  0  0
    4.4371   -9.5869    0.0000 O   0  0  0  0  0  0  0  0  0  0  0  0
    5.1515   -8.3494    0.0000 C   0  0  2  0  0  0  0  0  0  0  0  0
    5.8660   -7.9369    0.0000 O   0  0  0  0  0  0  0  0  0  0  0  0
    4.4371   -7.9369    0.0000 C   0  0  0  0  0  0  0  0  0  0  0  0
    3.7226   -8.3494    0.0000 O   0  0  0  0  0  0  0  0  0  0  0  0
  1  2  1  0  0  0  0
  2  3  1  0  0  0  0
  3  4  1  0  0  0  0
  4  5  1  0  0  0  0
  5  6  1  0  0  0  0
  6  7  1  0  0  0  0
  1  7  1  0  0  0  0
  1  6  1  0  0  0  0
  2  8  2  0  0  0  0
  6  9  1  0  0  0  0
  4 10  1  1  0  0  0
  4 11  1  6  0  0  0
  5 12  1  0  0  0  0
 14 13  1  1  0  0  0
 14 15  1  0  0  0  0
 15 16  1  6  0  0  0
 15 17  1  0  0  0  0
 17 18  1  1  0  0  0
 17 19  1  0  0  0  0
 19 20  1  6  0  0  0
 19 21  1  0  0  0  0
 21 22  1  0  0  0  0
 21 23  1  1  0  0  0
 23 24  1  0  0  0  0
 14 22  1  0  0  0  0
 12 13  1  0  0  0  0
M  END
>  <cdx:groupId>
76

>  <cdx:fragmentId>
5

$$$$
