94781.cdx
  Mrv1902 05222410212D          

 14 15  0  0  0  0            999 V2000
    8.1179   -7.6397    0.0000 O   0  0  0  0  0  0  0  0  0  0  0  0
    8.8323   -8.0522    0.0000 C   0  0  0  0  0  0  0  0  0  0  0  0
    9.5468   -7.6397    0.0000 O   0  0  0  0  0  0  0  0  0  0  0  0
    8.8323   -8.8772    0.0000 C   0  0  0  0  0  0  0  0  0  0  0  0
    8.1179   -9.2897    0.0000 C   0  0  0  0  0  0  0  0  0  0  0  0
    7.4034   -8.8772    0.0000 C   0  0  0  0  0  0  0  0  0  0  0  0
    6.6889   -9.2897    0.0000 C   0  0  0  0  0  0  0  0  0  0  0  0
    5.9745   -8.8772    0.0000 C   0  0  0  0  0  0  0  0  0  0  0  0
    5.9745   -8.0522    0.0000 C   0  0  0  0  0  0  0  0  0  0  0  0
    6.6889   -7.6397    0.0000 C   0  0  0  0  0  0  0  0  0  0  0  0
    7.4034   -8.0522    0.0000 C   0  0  0  0  0  0  0  0  0  0  0  0
    5.2600   -9.2897    0.0000 O   0  0  0  0  0  0  0  0  0  0  0  0
    4.5455   -8.8772    0.0000 C   0  0  0  0  0  0  0  0  0  0  0  0
    9.5468   -9.2897    0.0000 O   0  0  0  0  0  0  0  0  0  0  0  0
  1  2  1  0  0  0  0
  2  3  2  0  0  0  0
  2  4  1  0  0  0  0
  4  5  2  0  0  0  0
  5  6  1  0  0  0  0
  6  7  1  0  0  0  0
  7  8  2  0  0  0  0
  8  9  1  0  0  0  0
  9 10  2  0  0  0  0
 10 11  1  0  0  0  0
  1 11  1  0  0  0  0
  6 11  2  0  0  0  0
 12 13  1  0  0  0  0
  8 12  1  0  0  0  0
  4 14  1  0  0  0  0
M  END
>  <cdx:groupId>
45

>  <cdx:fragmentId>
5

$$$$
