94782.cdx
  Mrv1902 05222410202D          

 36 39  0  0  0  0            999 V2000
    3.0392   -4.1272    0.0000 O   0  0  0  0  0  0  0  0  0  0  0  0
    4.4681   -6.6022    0.0000 O   0  0  0  0  0  0  0  0  0  0  0  0
    5.8971   -7.4272    0.0000 O   0  0  0  0  0  0  0  0  0  0  0  0
    7.3260   -6.6022    0.0000 O   0  0  0  0  0  0  0  0  0  0  0  0
   13.7562   -7.8397    0.0000 O   0  0  0  0  0  0  0  0  0  0  0  0
   12.3273   -6.1897    0.0000 C   0  0  0  0  0  0  0  0  0  0  0  0
   13.0418   -6.6022    0.0000 C   0  0  0  0  0  0  0  0  0  0  0  0
   13.0418   -7.4272    0.0000 C   0  0  0  0  0  0  0  0  0  0  0  0
   12.3273   -7.8397    0.0000 C   0  0  0  0  0  0  0  0  0  0  0  0
   11.6128   -7.4272    0.0000 C   0  0  0  0  0  0  0  0  0  0  0  0
   11.6128   -6.6022    0.0000 C   0  0  0  0  0  0  0  0  0  0  0  0
   10.1839   -7.4272    0.0000 O   0  0  0  0  0  0  0  0  0  0  0  0
   10.1839   -4.9522    0.0000 O   0  0  0  0  0  0  0  0  0  0  0  0
    9.4694   -5.3647    0.0000 C   0  0  0  0  0  0  0  0  0  0  0  0
    8.7549   -4.9522    0.0000 C   0  0  0  0  0  0  0  0  0  0  0  0
    8.0405   -5.3647    0.0000 C   0  0  0  0  0  0  0  0  0  0  0  0
    8.0405   -6.1897    0.0000 C   0  0  0  0  0  0  0  0  0  0  0  0
    8.7549   -6.6022    0.0000 C   0  0  0  0  0  0  0  0  0  0  0  0
    9.4694   -6.1897    0.0000 C   0  0  0  0  0  0  0  0  0  0  0  0
   10.1839   -6.6022    0.0000 C   0  0  0  0  0  0  0  0  0  0  0  0
   10.8984   -6.1897    0.0000 C   0  0  0  0  0  0  0  0  0  0  0  0
   10.8984   -5.3647    0.0000 C   0  0  0  0  0  0  0  0  0  0  0  0
    7.3260   -4.9522    0.0000 O   0  0  0  0  0  0  0  0  0  0  0  0
    6.6115   -5.3647    0.0000 C   0  0  1  0  0  0  0  0  0  0  0  0
    6.6115   -6.1897    0.0000 C   0  0  1  0  0  0  0  0  0  0  0  0
    5.8971   -6.6022    0.0000 C   0  0  2  0  0  0  0  0  0  0  0  0
    5.1826   -6.1897    0.0000 C   0  0  1  0  0  0  0  0  0  0  0  0
    5.1826   -5.3647    0.0000 C   0  0  2  0  0  0  0  0  0  0  0  0
    5.8971   -4.9522    0.0000 O   0  0  0  0  0  0  0  0  0  0  0  0
    4.4681   -4.9522    0.0000 C   0  0  0  0  0  0  0  0  0  0  0  0
    3.7536   -5.3647    0.0000 O   0  0  0  0  0  0  0  0  0  0  0  0
    0.8958   -5.3647    0.0000 O   0  0  0  0  0  0  0  0  0  0  0  0
    1.6102   -4.1272    0.0000 O   0  0  0  0  0  0  0  0  0  0  0  0
    3.0392   -4.9522    0.0000 C   0  0  0  0  0  0  0  0  0  0  0  0
    2.3247   -5.3647    0.0000 C   0  0  0  0  0  0  0  0  0  0  0  0
    1.6102   -4.9522    0.0000 C   0  0  0  0  0  0  0  0  0  0  0  0
 34  1  2  0  0  0  0
 34 31  1  0  0  0  0
 28 30  1  1  0  0  0
 27  2  1  6  0  0  0
 26  3  1  1  0  0  0
 25  4  1  6  0  0  0
 24 23  1  1  0  0  0
 23 16  1  0  0  0  0
 21 11  1  0  0  0  0
  8  5  1  0  0  0  0
 11  6  2  0  0  0  0
  7  6  1  0  0  0  0
  8  7  2  0  0  0  0
  9  8  1  0  0  0  0
 10  9  2  0  0  0  0
 11 10  1  0  0  0  0
 20 12  2  0  0  0  0
 22 13  1  0  0  0  0
 14 13  1  0  0  0  0
 19 14  2  0  0  0  0
 15 14  1  0  0  0  0
 16 15  2  0  0  0  0
 17 16  1  0  0  0  0
 18 17  2  0  0  0  0
 19 18  1  0  0  0  0
 20 19  1  0  0  0  0
 21 20  1  0  0  0  0
 22 21  2  0  0  0  0
 29 24  1  0  0  0  0
 25 24  1  0  0  0  0
 26 25  1  0  0  0  0
 27 26  1  0  0  0  0
 28 27  1  0  0  0  0
 29 28  1  0  0  0  0
 31 30  1  0  0  0  0
 36 32  1  0  0  0  0
 36 33  2  0  0  0  0
 35 34  1  0  0  0  0
 36 35  1  0  0  0  0
M  END
>  <cdx:fragmentId>
31839

$$$$
