94788.cdx
  Mrv1902 05222410242D          

 34 37  0  0  0  0            999 V2000
    6.8352   -7.8512    0.0000 O   0  0  0  0  0  0  0  0  0  0  0  0
    6.8291   -7.0262    0.0000 C   0  0  1  0  0  0  0  0  0  0  0  0
    6.1115   -6.6191    0.0000 C   0  0  1  0  0  0  0  0  0  0  0  0
    6.1054   -5.7941    0.0000 C   0  0  1  0  0  0  0  0  0  0  0  0
    5.3879   -5.3869    0.0000 O   0  0  0  0  0  0  0  0  0  0  0  0
    6.8168   -5.3763    0.0000 C   0  0  2  0  0  0  0  0  0  0  0  0
    6.8107   -4.5513    0.0000 O   0  0  0  0  0  0  0  0  0  0  0  0
    7.5343   -5.7835    0.0000 C   0  0  2  0  0  0  0  0  0  0  0  0
    7.5404   -6.6084    0.0000 O   0  0  0  0  0  0  0  0  0  0  0  0
    8.2457   -5.3657    0.0000 C   0  0  0  0  0  0  0  0  0  0  0  0
    8.2396   -4.5407    0.0000 O   0  0  0  0  0  0  0  0  0  0  0  0
    3.9529   -4.5725    0.0000 C   0  0  0  0  0  0  0  0  0  0  0  0
    4.6765   -5.8047    0.0000 O   0  0  0  0  0  0  0  0  0  0  0  0
    3.9590   -5.3975    0.0000 C   0  0  2  0  0  0  0  0  0  0  0  0
    2.5301   -5.4081    0.0000 O   0  0  0  0  0  0  0  0  0  0  0  0
    3.2476   -5.8153    0.0000 C   0  0  2  0  0  0  0  0  0  0  0  0
    2.5424   -7.0581    0.0000 O   0  0  0  0  0  0  0  0  0  0  0  0
    3.2537   -6.6403    0.0000 C   0  0  1  0  0  0  0  0  0  0  0  0
    3.9774   -7.8724    0.0000 O   0  0  0  0  0  0  0  0  0  0  0  0
    3.9713   -7.0475    0.0000 C   0  0  1  0  0  0  0  0  0  0  0  0
    4.6826   -6.6297    0.0000 C   0  0  2  0  0  0  0  0  0  0  0  0
    5.4002   -7.0369    0.0000 O   0  0  0  0  0  0  0  0  0  0  0  0
    8.2825  -10.3155    0.0000 O   0  0  0  0  0  0  0  0  0  0  0  0
    9.7114  -10.3049    0.0000 O   0  0  0  0  0  0  0  0  0  0  0  0
    8.2763   -9.4906    0.0000 C   0  0  0  0  0  0  0  0  0  0  0  0
    7.5588   -9.0834    0.0000 C   0  0  0  0  0  0  0  0  0  0  0  0
    7.5527   -8.2584    0.0000 C   0  0  0  0  0  0  0  0  0  0  0  0
    8.2641   -7.8406    0.0000 C   0  0  0  0  0  0  0  0  0  0  0  0
    9.6930   -7.8300    0.0000 O   0  0  0  0  0  0  0  0  0  0  0  0
    8.9816   -8.2478    0.0000 C   0  0  0  0  0  0  0  0  0  0  0  0
    8.9877   -9.0728    0.0000 C   0  0  0  0  0  0  0  0  0  0  0  0
    9.7052   -9.4799    0.0000 C   0  0  0  0  0  0  0  0  0  0  0  0
   10.4166   -9.0621    0.0000 C   0  0  0  0  0  0  0  0  0  0  0  0
   10.4105   -8.2372    0.0000 C   0  0  0  0  0  0  0  0  0  0  0  0
 27  1  1  0  0  0  0
 21 22  1  1  0  0  0
 21 13  1  0  0  0  0
 14 12  1  6  0  0  0
 14 13  1  0  0  0  0
 16 14  1  0  0  0  0
 16 15  1  1  0  0  0
 18 16  1  0  0  0  0
 18 17  1  6  0  0  0
 20 18  1  0  0  0  0
 20 19  1  6  0  0  0
 21 20  1  0  0  0  0
  2  3  1  0  0  0  0
 25 23  1  0  0  0  0
 32 24  2  0  0  0  0
 28 30  2  0  0  0  0
 25 31  2  0  0  0  0
 26 25  1  0  0  0  0
 27 26  2  0  0  0  0
 28 27  1  0  0  0  0
 34 29  1  0  0  0  0
 30 29  1  0  0  0  0
 31 30  1  0  0  0  0
 32 31  1  0  0  0  0
 33 32  1  0  0  0  0
 34 33  2  0  0  0  0
  3 22  1  6  0  0  0
  3  4  1  0  0  0  0
  4  5  1  1  0  0  0
  4  6  1  0  0  0  0
  6  7  1  6  0  0  0
  6  8  1  0  0  0  0
  8  9  1  0  0  0  0
  8 10  1  1  0  0  0
 10 11  1  0  0  0  0
  2  9  1  0  0  0  0
  2  1  1  1  0  0  0
M  END
>  <cdx:groupId>
107

>  <cdx:fragmentId>
31

$$$$
