94789.cdx
  Mrv1902 05222410242D          

 42 46  0  0  0  0            999 V2000
    9.3391   -7.0210    0.0000 C   0  0  0  0  0  0  0  0  0  0  0  0
    9.3391   -7.8460    0.0000 C   0  0  0  0  0  0  0  0  0  0  0  0
    8.6246   -8.2585    0.0000 C   0  0  0  0  0  0  0  0  0  0  0  0
    8.6246   -9.0835    0.0000 O   0  0  0  0  0  0  0  0  0  0  0  0
    7.9101   -7.8460    0.0000 C   0  0  0  0  0  0  0  0  0  0  0  0
    7.1956   -8.2585    0.0000 C   0  0  0  0  0  0  0  0  0  0  0  0
    7.1956   -9.0835    0.0000 O   0  0  0  0  0  0  0  0  0  0  0  0
    6.4812   -7.8460    0.0000 C   0  0  0  0  0  0  0  0  0  0  0  0
    6.4812   -7.0210    0.0000 C   0  0  0  0  0  0  0  0  0  0  0  0
    7.1956   -6.6085    0.0000 C   0  0  0  0  0  0  0  0  0  0  0  0
    7.9101   -7.0210    0.0000 C   0  0  0  0  0  0  0  0  0  0  0  0
    8.6246   -6.6085    0.0000 O   0  0  0  0  0  0  0  0  0  0  0  0
   10.0535   -6.6085    0.0000 C   0  0  0  0  0  0  0  0  0  0  0  0
   10.0535   -5.7835    0.0000 C   0  0  0  0  0  0  0  0  0  0  0  0
   10.7680   -5.3710    0.0000 C   0  0  0  0  0  0  0  0  0  0  0  0
   11.4825   -5.7835    0.0000 C   0  0  0  0  0  0  0  0  0  0  0  0
   12.1969   -5.3710    0.0000 O   0  0  0  0  0  0  0  0  0  0  0  0
   11.4825   -6.6085    0.0000 C   0  0  0  0  0  0  0  0  0  0  0  0
   10.7680   -7.0210    0.0000 C   0  0  0  0  0  0  0  0  0  0  0  0
   10.0535   -8.2585    0.0000 O   0  0  0  0  0  0  0  0  0  0  0  0
   10.0535   -9.0835    0.0000 C   0  0  1  0  0  0  0  0  0  0  0  0
   10.7680   -9.4960    0.0000 C   0  0  2  0  0  0  0  0  0  0  0  0
   11.4825   -9.0835    0.0000 O   0  0  0  0  0  0  0  0  0  0  0  0
   10.7680  -10.3210    0.0000 C   0  0  2  0  0  0  0  0  0  0  0  0
   11.4825  -10.7335    0.0000 O   0  0  0  0  0  0  0  0  0  0  0  0
   10.0535  -10.7335    0.0000 C   0  0  1  0  0  0  0  0  0  0  0  0
   10.0535  -11.5585    0.0000 O   0  0  0  0  0  0  0  0  0  0  0  0
    9.3391  -10.3210    0.0000 C   0  0  1  0  0  0  0  0  0  0  0  0
    9.3391   -9.4960    0.0000 O   0  0  0  0  0  0  0  0  0  0  0  0
    8.6246  -10.7335    0.0000 C   0  0  0  0  0  0  0  0  0  0  0  0
    5.7667   -6.6085    0.0000 O   0  0  0  0  0  0  0  0  0  0  0  0
    5.0522   -7.0210    0.0000 C   0  0  1  0  0  0  0  0  0  0  0  0
    5.0522   -7.8460    0.0000 C   0  0  2  0  0  0  0  0  0  0  0  0
    5.7667   -8.2585    0.0000 O   0  0  0  0  0  0  0  0  0  0  0  0
    4.3378   -8.2585    0.0000 C   0  0  1  0  0  0  0  0  0  0  0  0
    4.3378   -9.0835    0.0000 O   0  0  0  0  0  0  0  0  0  0  0  0
    3.6233   -7.8460    0.0000 C   0  0  2  0  0  0  0  0  0  0  0  0
    2.9088   -8.2585    0.0000 O   0  0  0  0  0  0  0  0  0  0  0  0
    3.6233   -7.0210    0.0000 C   0  0  2  0  0  0  0  0  0  0  0  0
    4.3378   -6.6085    0.0000 O   0  0  0  0  0  0  0  0  0  0  0  0
    2.9088   -6.6085    0.0000 C   0  0  0  0  0  0  0  0  0  0  0  0
    2.1944   -7.0210    0.0000 O   0  0  0  0  0  0  0  0  0  0  0  0
  1  2  2  0  0  0  0
  2  3  1  0  0  0  0
  3  4  2  0  0  0  0
  3  5  1  0  0  0  0
  5  6  1  0  0  0  0
  6  7  1  0  0  0  0
  6  8  2  0  0  0  0
  8  9  1  0  0  0  0
  9 10  2  0  0  0  0
 10 11  1  0  0  0  0
  5 11  2  0  0  0  0
 11 12  1  0  0  0  0
  1 12  1  0  0  0  0
  1 13  1  0  0  0  0
 13 14  1  0  0  0  0
 14 15  2  0  0  0  0
 15 16  1  0  0  0  0
 16 17  1  0  0  0  0
 16 18  2  0  0  0  0
 18 19  1  0  0  0  0
 13 19  2  0  0  0  0
 21 20  1  1  0  0  0
 21 22  1  0  0  0  0
 22 23  1  6  0  0  0
 22 24  1  0  0  0  0
 24 25  1  6  0  0  0
 24 26  1  0  0  0  0
 26 27  1  1  0  0  0
 26 28  1  0  0  0  0
 28 29  1  0  0  0  0
 28 30  1  6  0  0  0
 21 29  1  0  0  0  0
  2 20  1  0  0  0  0
 32 31  1  1  0  0  0
 32 33  1  0  0  0  0
 33 34  1  6  0  0  0
 33 35  1  0  0  0  0
 35 36  1  1  0  0  0
 35 37  1  0  0  0  0
 37 38  1  6  0  0  0
 37 39  1  0  0  0  0
 39 40  1  0  0  0  0
 39 41  1  1  0  0  0
 41 42  1  0  0  0  0
 32 40  1  0  0  0  0
  9 31  1  0  0  0  0
M  END
>  <cdx:groupId>
132

>  <cdx:fragmentId>
5

$$$$
