94783.cdx
  Mrv1902 05222410212D          

 35 38  0  0  0  0            999 V2000
    7.6425   -3.6576    0.0000 C   0  0  0  0  0  0  0  0  0  0  0  0
    8.3605   -4.0640    0.0000 C   0  0  0  0  0  0  0  0  0  0  0  0
    6.9386   -4.9011    0.0000 C   0  0  0  0  0  0  0  0  0  0  0  0
    6.2348   -6.1447    0.0000 O   0  0  0  0  0  0  0  0  0  0  0  0
    6.2277   -5.3197    0.0000 C   0  0  1  0  0  0  0  0  0  0  0  0
    5.5097   -4.9134    0.0000 C   0  0  2  0  0  0  0  0  0  0  0  0
    4.7988   -5.3319    0.0000 C   0  0  1  0  0  0  0  0  0  0  0  0
    4.8059   -6.1569    0.0000 C   0  0  2  0  0  0  0  0  0  0  0  0
    5.5238   -6.5633    0.0000 C   0  0  2  0  0  0  0  0  0  0  0  0
    5.5309   -7.3883    0.0000 O   0  0  0  0  0  0  0  0  0  0  0  0
    4.0950   -6.5755    0.0000 O   0  0  0  0  0  0  0  0  0  0  0  0
    4.0809   -4.9256    0.0000 O   0  0  0  0  0  0  0  0  0  0  0  0
    5.5027   -4.0884    0.0000 O   0  0  0  0  0  0  0  0  0  0  0  0
    6.9316   -4.0762    0.0000 O   0  0  0  0  0  0  0  0  0  0  0  0
    7.6355   -2.8326    0.0000 O   0  0  0  0  0  0  0  0  0  0  0  0
   12.0041  -10.1781    0.0000 O   0  0  0  0  0  0  0  0  0  0  0  0
   10.5504   -8.5499    0.0000 C   0  0  0  0  0  0  0  0  0  0  0  0
   11.2710   -8.9516    0.0000 C   0  0  0  0  0  0  0  0  0  0  0  0
   11.2835   -9.7765    0.0000 C   0  0  0  0  0  0  0  0  0  0  0  0
   10.5753  -10.1997    0.0000 C   0  0  0  0  0  0  0  0  0  0  0  0
    9.8547   -9.7981    0.0000 C   0  0  0  0  0  0  0  0  0  0  0  0
    9.8422   -8.9732    0.0000 C   0  0  0  0  0  0  0  0  0  0  0  0
    5.5559   -9.8631    0.0000 C   0  0  0  0  0  0  0  0  0  0  0  0
    5.5559   -9.0381    0.0000 O   0  0  0  0  0  0  0  0  0  0  0  0
    8.4259   -9.8197    0.0000 O   0  0  0  0  0  0  0  0  0  0  0  0
    8.3885   -7.3450    0.0000 O   0  0  0  0  0  0  0  0  0  0  0  0
    7.6803   -7.7683    0.0000 C   0  0  0  0  0  0  0  0  0  0  0  0
    6.9597   -7.3666    0.0000 C   0  0  0  0  0  0  0  0  0  0  0  0
    6.2515   -7.7899    0.0000 C   0  0  0  0  0  0  0  0  0  0  0  0
    6.2640   -8.6148    0.0000 C   0  0  0  0  0  0  0  0  0  0  0  0
    6.9846   -9.0164    0.0000 C   0  0  0  0  0  0  0  0  0  0  0  0
    7.6928   -8.5932    0.0000 C   0  0  0  0  0  0  0  0  0  0  0  0
    8.4134   -8.9948    0.0000 C   0  0  0  0  0  0  0  0  0  0  0  0
    9.1216   -8.5716    0.0000 C   0  0  0  0  0  0  0  0  0  0  0  0
    9.1091   -7.7467    0.0000 C   0  0  0  0  0  0  0  0  0  0  0  0
 14  3  1  0  0  0  0
  1 14  1  0  0  0  0
 10 29  1  0  0  0  0
 34 22  1  0  0  0  0
 19 16  1  0  0  0  0
 22 17  2  0  0  0  0
 18 17  1  0  0  0  0
 19 18  2  0  0  0  0
 20 19  1  0  0  0  0
 21 20  2  0  0  0  0
 22 21  1  0  0  0  0
 30 24  1  0  0  0  0
 24 23  1  0  0  0  0
 33 25  2  0  0  0  0
 35 26  1  0  0  0  0
 27 26  1  0  0  0  0
 32 27  2  0  0  0  0
 28 27  1  0  0  0  0
 29 28  2  0  0  0  0
 30 29  1  0  0  0  0
 31 30  2  0  0  0  0
 32 31  1  0  0  0  0
 33 32  1  0  0  0  0
 34 33  1  0  0  0  0
 35 34  2  0  0  0  0
  1  2  1  0  0  0  0
  4  5  1  0  0  0  0
  5  6  1  0  0  0  0
  6  7  1  0  0  0  0
  7  8  1  0  0  0  0
  8  9  1  0  0  0  0
  4  9  1  0  0  0  0
  9 10  1  1  0  0  0
  8 11  1  6  0  0  0
  7 12  1  1  0  0  0
  6 13  1  6  0  0  0
  5  3  1  1  0  0  0
  1 15  2  0  0  0  0
M  END
>  <cdx:fragmentId>
42784

$$$$
