94787.cdx
  Mrv1902 05222410222D          

 34 37  0  0  0  0            999 V2000
    2.3509   -4.1271    0.0000 C   0  0  0  0  0  0  0  0  0  0  0  0
    1.6364   -4.5396    0.0000 C   0  0  0  0  0  0  0  0  0  0  0  0
    2.3509   -3.3021    0.0000 O   0  0  0  0  0  0  0  0  0  0  0  0
    3.0654   -4.5396    0.0000 O   0  0  0  0  0  0  0  0  0  0  0  0
    3.7799   -4.1271    0.0000 C   0  0  0  0  0  0  0  0  0  0  0  0
    5.2088   -4.1271    0.0000 O   0  0  0  0  0  0  0  0  0  0  0  0
    4.4943   -4.5396    0.0000 C   0  0  1  0  0  0  0  0  0  0  0  0
    4.4943   -5.3646    0.0000 C   0  0  2  0  0  0  0  0  0  0  0  0
    5.2088   -5.7771    0.0000 C   0  0  1  0  0  0  0  0  0  0  0  0
    5.9233   -5.3646    0.0000 C   0  0  2  0  0  0  0  0  0  0  0  0
    5.9233   -4.5396    0.0000 C   0  0  2  0  0  0  0  0  0  0  0  0
    6.6377   -4.1271    0.0000 O   0  0  0  0  0  0  0  0  0  0  0  0
   10.2101   -4.5396    0.0000 C   0  0  0  0  0  0  0  0  0  0  0  0
   10.2101   -5.3646    0.0000 C   0  0  0  0  0  0  0  0  0  0  0  0
    9.4956   -5.7771    0.0000 C   0  0  0  0  0  0  0  0  0  0  0  0
    8.7812   -5.3646    0.0000 C   0  0  0  0  0  0  0  0  0  0  0  0
    8.0667   -5.7771    0.0000 C   0  0  0  0  0  0  0  0  0  0  0  0
    7.3522   -5.3646    0.0000 C   0  0  0  0  0  0  0  0  0  0  0  0
    7.3522   -4.5396    0.0000 C   0  0  0  0  0  0  0  0  0  0  0  0
    8.0667   -4.1271    0.0000 C   0  0  0  0  0  0  0  0  0  0  0  0
    8.7812   -4.5396    0.0000 C   0  0  0  0  0  0  0  0  0  0  0  0
    9.4956   -4.1271    0.0000 O   0  0  0  0  0  0  0  0  0  0  0  0
    9.4956   -6.6021    0.0000 O   0  0  0  0  0  0  0  0  0  0  0  0
   10.9246   -5.7771    0.0000 C   0  0  0  0  0  0  0  0  0  0  0  0
   11.6390   -5.3646    0.0000 C   0  0  0  0  0  0  0  0  0  0  0  0
   12.3535   -5.7771    0.0000 C   0  0  0  0  0  0  0  0  0  0  0  0
   12.3535   -6.6021    0.0000 C   0  0  0  0  0  0  0  0  0  0  0  0
   11.6390   -7.0146    0.0000 C   0  0  0  0  0  0  0  0  0  0  0  0
   10.9246   -6.6021    0.0000 C   0  0  0  0  0  0  0  0  0  0  0  0
   13.0680   -7.0146    0.0000 O   0  0  0  0  0  0  0  0  0  0  0  0
    8.0667   -6.6021    0.0000 O   0  0  0  0  0  0  0  0  0  0  0  0
    6.6377   -5.7771    0.0000 O   0  0  0  0  0  0  0  0  0  0  0  0
    5.2088   -6.6021    0.0000 O   0  0  0  0  0  0  0  0  0  0  0  0
    3.7799   -5.7771    0.0000 O   0  0  0  0  0  0  0  0  0  0  0  0
  1  2  1  0  0  0  0
  1  3  2  0  0  0  0
  1  4  1  0  0  0  0
  6  7  1  0  0  0  0
  7  8  1  0  0  0  0
  8  9  1  0  0  0  0
  9 10  1  0  0  0  0
 10 11  1  0  0  0  0
  6 11  1  0  0  0  0
 13 14  2  0  0  0  0
 14 15  1  0  0  0  0
 15 16  1  0  0  0  0
 16 17  1  0  0  0  0
 17 18  2  0  0  0  0
 18 19  1  0  0  0  0
 19 20  2  0  0  0  0
 20 21  1  0  0  0  0
 16 21  2  0  0  0  0
 21 22  1  0  0  0  0
 13 22  1  0  0  0  0
 15 23  2  0  0  0  0
 24 25  1  0  0  0  0
 25 26  2  0  0  0  0
 26 27  1  0  0  0  0
 27 28  2  0  0  0  0
 28 29  1  0  0  0  0
 24 29  2  0  0  0  0
 27 30  1  0  0  0  0
 14 24  1  0  0  0  0
 17 31  1  0  0  0  0
 12 19  1  0  0  0  0
 11 12  1  1  0  0  0
 10 32  1  6  0  0  0
  9 33  1  1  0  0  0
  8 34  1  6  0  0  0
  7  5  1  1  0  0  0
  4  5  1  0  0  0  0
M  END
>  <cdx:fragmentId>
5876

$$$$
