94785.cdx
  Mrv1902 05222410222D          

 38 41  0  0  0  0            999 V2000
    7.4419   -7.5723    0.0000 C   0  0  0  0  0  0  0  0  0  0  0  0
    7.4419   -8.3973    0.0000 C   0  0  0  0  0  0  0  0  0  0  0  0
    8.1564   -8.8098    0.0000 C   0  0  0  0  0  0  0  0  0  0  0  0
    8.8709   -8.3973    0.0000 C   0  0  0  0  0  0  0  0  0  0  0  0
    8.8709   -7.5723    0.0000 C   0  0  0  0  0  0  0  0  0  0  0  0
    8.1564   -7.1598    0.0000 C   0  0  0  0  0  0  0  0  0  0  0  0
    9.5854   -8.8098    0.0000 C   0  0  0  0  0  0  0  0  0  0  0  0
   10.2998   -8.3973    0.0000 C   0  0  0  0  0  0  0  0  0  0  0  0
   10.2998   -7.5723    0.0000 C   0  0  0  0  0  0  0  0  0  0  0  0
    9.5854   -7.1598    0.0000 O   0  0  0  0  0  0  0  0  0  0  0  0
    9.5854   -9.6348    0.0000 O   0  0  0  0  0  0  0  0  0  0  0  0
   11.0143   -9.6348    0.0000 C   0  0  0  0  0  0  0  0  0  0  0  0
   11.0143   -8.8098    0.0000 C   0  0  0  0  0  0  0  0  0  0  0  0
   11.7288  -10.0473    0.0000 C   0  0  0  0  0  0  0  0  0  0  0  0
   12.4432   -9.6348    0.0000 C   0  0  0  0  0  0  0  0  0  0  0  0
   12.4432   -8.8098    0.0000 C   0  0  0  0  0  0  0  0  0  0  0  0
   11.7288   -8.3973    0.0000 C   0  0  0  0  0  0  0  0  0  0  0  0
    6.7275   -7.1598    0.0000 O   0  0  0  0  0  0  0  0  0  0  0  0
   13.1577  -10.0473    0.0000 O   0  0  0  0  0  0  0  0  0  0  0  0
    5.9025   -7.1539    0.0000 C   0  0  2  0  0  0  0  0  0  0  0  0
    5.4951   -6.4364    0.0000 O   0  0  0  0  0  0  0  0  0  0  0  0
    4.6702   -6.4305    0.0000 C   0  0  1  0  0  0  0  0  0  0  0  0
    4.2525   -7.1420    0.0000 C   0  0  2  0  0  0  0  0  0  0  0  0
    4.6599   -7.8594    0.0000 C   0  0  1  0  0  0  0  0  0  0  0  0
    5.4849   -7.8653    0.0000 C   0  0  1  0  0  0  0  0  0  0  0  0
    4.2628   -5.7131    0.0000 C   0  0  0  0  0  0  0  0  0  0  0  0
    4.2423   -8.5709    0.0000 O   0  0  0  0  0  0  0  0  0  0  0  0
    5.8922   -8.5828    0.0000 O   0  0  0  0  0  0  0  0  0  0  0  0
    3.4276   -7.1361    0.0000 O   0  0  0  0  0  0  0  0  0  0  0  0
    3.4378   -5.7072    0.0000 O   0  0  0  0  0  0  0  0  0  0  0  0
    3.0305   -4.9897    0.0000 C   0  0  0  0  0  0  0  0  0  0  0  0
    2.2055   -4.9838    0.0000 C   0  0  0  0  0  0  0  0  0  0  0  0
    3.4481   -4.2783    0.0000 O   0  0  0  0  0  0  0  0  0  0  0  0
    1.7930   -4.2693    0.0000 C   0  0  0  0  0  0  0  0  0  0  0  0
    0.9680   -4.2693    0.0000 O   0  0  0  0  0  0  0  0  0  0  0  0
    2.2055   -3.5549    0.0000 O   0  0  0  0  0  0  0  0  0  0  0  0
    6.7275   -8.8098    0.0000 O   0  0  0  0  0  0  0  0  0  0  0  0
    6.7275   -9.6348    0.0000 C   0  0  0  0  0  0  0  0  0  0  0  0
  1  2  2  0  0  0  0
  2  3  1  0  0  0  0
  3  4  2  0  0  0  0
  4  5  1  0  0  0  0
  5  6  2  0  0  0  0
  6  1  1  0  0  0  0
  4  7  1  0  0  0  0
  7  8  1  0  0  0  0
  8  9  2  0  0  0  0
  9 10  1  0  0  0  0
 10  5  1  0  0  0  0
  7 11  2  0  0  0  0
 12 13  2  0  0  0  0
 13  8  1  0  0  0  0
 12 14  1  0  0  0  0
 14 15  2  0  0  0  0
 15 16  1  0  0  0  0
 16 17  2  0  0  0  0
 17 13  1  0  0  0  0
  1 18  1  0  0  0  0
 15 19  1  0  0  0  0
 20 18  1  1  0  0  0
 20 21  1  0  0  0  0
 21 22  1  0  0  0  0
 22 23  1  0  0  0  0
 23 24  1  0  0  0  0
 24 25  1  0  0  0  0
 25 20  1  0  0  0  0
 22 26  1  1  0  0  0
 24 27  1  1  0  0  0
 25 28  1  6  0  0  0
 23 29  1  6  0  0  0
 26 30  1  0  0  0  0
 30 31  1  0  0  0  0
 31 32  1  0  0  0  0
 31 33  2  0  0  0  0
 32 34  1  0  0  0  0
 34 35  1  0  0  0  0
 34 36  2  0  0  0  0
  2 37  1  0  0  0  0
 37 38  1  0  0  0  0
M  END
>  <cdx:fragmentId>
5

$$$$
