94799.cdx
  Mrv1902 05222410242D          

 11 11  0  0  0  0            999 V2000
    7.2478   -7.9865    0.0000 C   0  0  0  0  0  0  0  0  0  0  0  0
    6.5333   -8.3990    0.0000 C   0  0  0  0  0  0  0  0  0  0  0  0
    6.5333   -9.2240    0.0000 C   0  0  0  0  0  0  0  0  0  0  0  0
    7.2478   -9.6365    0.0000 C   0  0  0  0  0  0  0  0  0  0  0  0
    7.9622   -9.2240    0.0000 C   0  0  0  0  0  0  0  0  0  0  0  0
    7.9622   -8.3990    0.0000 C   0  0  0  0  0  0  0  0  0  0  0  0
    7.9622   -6.7490    0.0000 O   0  0  0  0  0  0  0  0  0  0  0  0
    5.8188   -7.9865    0.0000 C   0  0  0  0  0  0  0  0  0  0  0  0
    8.7872   -9.2240    0.0000 C   0  0  0  0  0  0  0  0  0  0  0  0
    8.3747   -9.9385    0.0000 C   0  0  0  0  0  0  0  0  0  0  0  0
    7.2478   -7.1615    0.0000 C   0  0  0  0  0  0  0  0  0  0  0  0
 11  7  2  0  0  0  0
  1  2  1  0  0  0  0
  2  3  1  0  0  0  0
  3  4  1  0  0  0  0
  4  5  1  0  0  0  0
  5  6  1  0  0  0  0
  1  6  1  0  0  0  0
  1 11  1  0  0  0  0
  2  8  2  0  0  0  0
  5  9  1  0  0  0  0
  5 10  1  0  0  0  0
M  END
>  <cdx:groupId>
35

>  <cdx:fragmentId>
5

$$$$
