94793.cdx
  Mrv1902 05222410222D          

 26 29  0  0  0  0            999 V2000
    4.8443   -5.1206    0.0000 C   0  0  0  0  0  0  0  0  0  0  0  0
    4.8443   -5.9456    0.0000 C   0  0  0  0  0  0  0  0  0  0  0  0
    5.5588   -6.3581    0.0000 C   0  0  0  0  0  0  0  0  0  0  0  0
    6.2733   -5.9456    0.0000 C   0  0  0  0  0  0  0  0  0  0  0  0
    6.2733   -5.1206    0.0000 C   0  0  0  0  0  0  0  0  0  0  0  0
    5.5588   -4.7081    0.0000 O   0  0  0  0  0  0  0  0  0  0  0  0
    6.9878   -4.7081    0.0000 C   0  0  0  0  0  0  0  0  0  0  0  0
    7.7022   -5.1206    0.0000 C   0  0  0  0  0  0  0  0  0  0  0  0
    7.7022   -5.9456    0.0000 C   0  0  0  0  0  0  0  0  0  0  0  0
    6.9878   -6.3581    0.0000 C   0  0  0  0  0  0  0  0  0  0  0  0
    8.4869   -4.8656    0.0000 O   0  0  0  0  0  0  0  0  0  0  0  0
    8.4869   -6.2005    0.0000 C   0  0  0  0  0  0  0  0  0  0  0  0
    8.9718   -5.5331    0.0000 C   0  0  0  0  0  0  0  0  0  0  0  0
    4.1299   -4.7081    0.0000 O   0  0  0  0  0  0  0  0  0  0  0  0
    6.9878   -7.1831    0.0000 O   0  0  0  0  0  0  0  0  0  0  0  0
    7.7022   -7.5956    0.0000 C   0  0  0  0  0  0  0  0  0  0  0  0
    7.7022   -8.4206    0.0000 C   0  0  0  0  0  0  0  0  0  0  0  0
    8.4167   -8.8331    0.0000 C   0  0  0  0  0  0  0  0  0  0  0  0
    8.4167   -9.6581    0.0000 C   0  0  0  0  0  0  0  0  0  0  0  0
    9.1312  -10.0706    0.0000 C   0  0  0  0  0  0  0  0  0  0  0  0
    8.7187  -11.6100    0.0000 O   0  0  0  0  0  0  0  0  0  0  0  0
    9.1312  -10.8956    0.0000 C   0  0  0  0  0  0  0  0  0  0  0  0
    9.5437  -11.6100    0.0000 C   0  0  0  0  0  0  0  0  0  0  0  0
   10.3687  -11.6100    0.0000 C   0  0  0  0  0  0  0  0  0  0  0  0
    9.9562  -12.3245    0.0000 C   0  0  0  0  0  0  0  0  0  0  0  0
    9.1312   -8.4206    0.0000 C   0  0  0  0  0  0  0  0  0  0  0  0
  1  2  1  0  0  0  0
  2  3  2  0  0  0  0
  3  4  1  0  0  0  0
  4  5  1  0  0  0  0
  5  6  1  0  0  0  0
  1  6  1  0  0  0  0
  7  8  1  0  0  0  0
  8  9  2  0  0  0  0
  9 10  1  0  0  0  0
 10  4  2  0  0  0  0
  7  5  2  0  0  0  0
 12 13  2  0  0  0  0
 11 13  1  0  0  0  0
 12  9  1  0  0  0  0
 11  8  1  0  0  0  0
  1 14  2  0  0  0  0
 16 17  1  0  0  0  0
 17 18  2  0  0  0  0
 18 19  1  0  0  0  0
 19 20  1  0  0  0  0
 15 16  1  0  0  0  0
 21 22  1  0  0  0  0
 22 23  1  0  0  0  0
 21 23  1  0  0  0  0
 23 24  1  0  0  0  0
 23 25  1  0  0  0  0
 20 22  1  0  0  0  0
 18 26  1  0  0  0  0
 10 15  1  0  0  0  0
M  END
>  <cdx:groupId>
83

>  <cdx:fragmentId>
5

$$$$
