94790.cdx
  Mrv1902 05222410222D          

 41 45  0  0  0  0            999 V2000
    9.2157   -7.0210    0.0000 C   0  0  0  0  0  0  0  0  0  0  0  0
    9.2157   -7.8460    0.0000 C   0  0  0  0  0  0  0  0  0  0  0  0
    8.5012   -8.2585    0.0000 C   0  0  0  0  0  0  0  0  0  0  0  0
    8.5012   -9.0835    0.0000 O   0  0  0  0  0  0  0  0  0  0  0  0
    7.7867   -7.8460    0.0000 C   0  0  0  0  0  0  0  0  0  0  0  0
    7.0723   -8.2585    0.0000 C   0  0  0  0  0  0  0  0  0  0  0  0
    7.0723   -9.0835    0.0000 O   0  0  0  0  0  0  0  0  0  0  0  0
    6.3578   -7.8460    0.0000 C   0  0  0  0  0  0  0  0  0  0  0  0
    6.3578   -7.0210    0.0000 C   0  0  0  0  0  0  0  0  0  0  0  0
    7.0723   -6.6085    0.0000 C   0  0  0  0  0  0  0  0  0  0  0  0
    7.7867   -7.0210    0.0000 C   0  0  0  0  0  0  0  0  0  0  0  0
    8.5012   -6.6085    0.0000 O   0  0  0  0  0  0  0  0  0  0  0  0
    9.9301   -6.6085    0.0000 C   0  0  0  0  0  0  0  0  0  0  0  0
    9.9301   -5.7835    0.0000 C   0  0  0  0  0  0  0  0  0  0  0  0
   10.6446   -5.3710    0.0000 C   0  0  0  0  0  0  0  0  0  0  0  0
   11.3591   -5.7835    0.0000 C   0  0  0  0  0  0  0  0  0  0  0  0
   12.0736   -5.3710    0.0000 O   0  0  0  0  0  0  0  0  0  0  0  0
   11.3591   -6.6085    0.0000 C   0  0  0  0  0  0  0  0  0  0  0  0
   10.6446   -7.0210    0.0000 C   0  0  0  0  0  0  0  0  0  0  0  0
    9.9301   -8.2585    0.0000 O   0  0  0  0  0  0  0  0  0  0  0  0
    9.9301   -9.0835    0.0000 C   0  0  1  0  0  0  0  0  0  0  0  0
   10.6446   -9.4960    0.0000 C   0  0  2  0  0  0  0  0  0  0  0  0
   11.3591   -9.0835    0.0000 O   0  0  0  0  0  0  0  0  0  0  0  0
   10.6446  -10.3210    0.0000 C   0  0  1  0  0  0  0  0  0  0  0  0
   11.3591  -10.7335    0.0000 O   0  0  0  0  0  0  0  0  0  0  0  0
    9.9301  -10.7335    0.0000 C   0  0  2  0  0  0  0  0  0  0  0  0
    9.9301  -11.5585    0.0000 O   0  0  0  0  0  0  0  0  0  0  0  0
    9.2157  -10.3210    0.0000 C   0  0  2  0  0  0  0  0  0  0  0  0
    9.2157   -9.4960    0.0000 O   0  0  0  0  0  0  0  0  0  0  0  0
    8.5012  -10.7335    0.0000 C   0  0  0  0  0  0  0  0  0  0  0  0
    8.5012  -11.5585    0.0000 O   0  0  0  0  0  0  0  0  0  0  0  0
    5.6433   -6.6085    0.0000 O   0  0  0  0  0  0  0  0  0  0  0  0
    4.9289   -7.0210    0.0000 C   0  0  1  0  0  0  0  0  0  0  0  0
    4.8426   -7.8415    0.0000 C   0  0  2  0  0  0  0  0  0  0  0  0
    5.4557   -8.3935    0.0000 O   0  0  0  0  0  0  0  0  0  0  0  0
    4.0356   -8.0130    0.0000 C   0  0  1  0  0  0  0  0  0  0  0  0
    3.7001   -8.7667    0.0000 O   0  0  0  0  0  0  0  0  0  0  0  0
    3.6231   -7.2985    0.0000 C   0  0  1  0  0  0  0  0  0  0  0  0
    4.1752   -6.6854    0.0000 O   0  0  0  0  0  0  0  0  0  0  0  0
    2.8027   -7.2123    0.0000 C   0  0  0  0  0  0  0  0  0  0  0  0
    2.3177   -7.8797    0.0000 O   0  0  0  0  0  0  0  0  0  0  0  0
  1  2  2  0  0  0  0
  2  3  1  0  0  0  0
  3  4  2  0  0  0  0
  3  5  1  0  0  0  0
  5  6  1  0  0  0  0
  6  7  1  0  0  0  0
  6  8  2  0  0  0  0
  8  9  1  0  0  0  0
  9 10  2  0  0  0  0
 10 11  1  0  0  0  0
  5 11  2  0  0  0  0
 11 12  1  0  0  0  0
  1 12  1  0  0  0  0
  1 13  1  0  0  0  0
 13 14  1  0  0  0  0
 14 15  2  0  0  0  0
 15 16  1  0  0  0  0
 16 17  1  0  0  0  0
 16 18  2  0  0  0  0
 18 19  1  0  0  0  0
 13 19  2  0  0  0  0
 21 20  1  1  0  0  0
 21 22  1  0  0  0  0
 22 23  1  6  0  0  0
 22 24  1  0  0  0  0
 24 25  1  1  0  0  0
 24 26  1  0  0  0  0
 26 27  1  6  0  0  0
 26 28  1  0  0  0  0
 28 29  1  0  0  0  0
 28 30  1  1  0  0  0
 30 31  1  0  0  0  0
 21 29  1  0  0  0  0
  2 20  1  0  0  0  0
 33 32  1  1  0  0  0
 33 34  1  0  0  0  0
 34 35  1  6  0  0  0
 34 36  1  0  0  0  0
 36 37  1  1  0  0  0
 36 38  1  0  0  0  0
 38 39  1  0  0  0  0
 38 40  1  6  0  0  0
 40 41  1  0  0  0  0
 33 39  1  0  0  0  0
  9 32  1  0  0  0  0
M  END
>  <cdx:groupId>
129

>  <cdx:fragmentId>
5

$$$$
