94791.cdx
  Mrv1902 05222410222D          

 31 33  0  0  0  0            999 V2000
    7.6970   -8.1767    0.0000 C   0  0  0  0  0  0  0  0  0  0  0  0
    8.5013   -7.9931    0.0000 N   0  0  0  0  0  0  0  0  0  0  0  0
    8.8593   -7.2498    0.0000 N   0  0  0  0  0  0  0  0  0  0  0  0
    8.5013   -6.5065    0.0000 C   0  0  0  0  0  0  0  0  0  0  0  0
    7.6970   -6.3229    0.0000 C   0  0  0  0  0  0  0  0  0  0  0  0
    7.0520   -6.8373    0.0000 C   0  0  0  0  0  0  0  0  0  0  0  0
    7.0520   -7.6623    0.0000 C   0  0  0  0  0  0  0  0  0  0  0  0
    6.3375   -6.4248    0.0000 C   0  0  0  0  0  0  0  0  0  0  0  0
    5.6231   -6.8373    0.0000 C   0  0  0  0  0  0  0  0  0  0  0  0
    5.6231   -7.6623    0.0000 C   0  0  0  0  0  0  0  0  0  0  0  0
    6.3375   -8.0748    0.0000 C   0  0  0  0  0  0  0  0  0  0  0  0
    9.0157   -5.8615    0.0000 C   0  0  0  0  0  0  0  0  0  0  0  0
    4.9086   -8.0748    0.0000 O   0  0  0  0  0  0  0  0  0  0  0  0
    4.1941   -7.6623    0.0000 C   0  0  0  0  0  0  0  0  0  0  0  0
    4.9086   -6.4248    0.0000 O   0  0  0  0  0  0  0  0  0  0  0  0
    4.1941   -6.8373    0.0000 C   0  0  0  0  0  0  0  0  0  0  0  0
    7.5134   -5.5186    0.0000 C   0  0  0  0  0  0  0  0  0  0  0  0
    6.7251   -5.2754    0.0000 C   0  0  0  0  0  0  0  0  0  0  0  0
    7.5134   -8.9810    0.0000 C   0  0  0  0  0  0  0  0  0  0  0  0
    8.1182   -9.5421    0.0000 C   0  0  0  0  0  0  0  0  0  0  0  0
    7.9346  -10.3464    0.0000 C   0  0  0  0  0  0  0  0  0  0  0  0
    7.1463  -10.5896    0.0000 C   0  0  0  0  0  0  0  0  0  0  0  0
    6.5415  -10.0285    0.0000 C   0  0  0  0  0  0  0  0  0  0  0  0
    6.7251   -9.2241    0.0000 C   0  0  0  0  0  0  0  0  0  0  0  0
    6.9627  -11.3939    0.0000 O   0  0  0  0  0  0  0  0  0  0  0  0
    6.1744  -11.6371    0.0000 C   0  0  0  0  0  0  0  0  0  0  0  0
    8.5394  -10.9076    0.0000 O   0  0  0  0  0  0  0  0  0  0  0  0
    9.3277  -10.6644    0.0000 C   0  0  0  0  0  0  0  0  0  0  0  0
    9.6843   -7.2498    0.0000 C   0  0  0  0  0  0  0  0  0  0  0  0
   10.0968   -7.9642    0.0000 O   0  0  0  0  0  0  0  0  0  0  0  0
   10.0968   -6.5353    0.0000 C   0  0  0  0  0  0  0  0  0  0  0  0
  1  2  2  0  0  0  0
  2  3  1  0  0  0  0
  3  4  1  0  0  0  0
  4  5  1  0  0  0  0
  5  6  1  0  0  0  0
  6  7  1  0  0  0  0
  1  7  1  0  0  0  0
  8  9  1  0  0  0  0
  9 10  2  0  0  0  0
 10 11  1  0  0  0  0
 11  7  2  0  0  0  0
  8  6  2  0  0  0  0
  4 12  2  0  0  0  0
 13 14  1  0  0  0  0
 10 13  1  0  0  0  0
 15 16  1  0  0  0  0
  9 15  1  0  0  0  0
 17 18  1  0  0  0  0
  5 17  1  0  0  0  0
 19 20  1  0  0  0  0
 20 21  2  0  0  0  0
 21 22  1  0  0  0  0
 22 23  2  0  0  0  0
 23 24  1  0  0  0  0
 19 24  2  0  0  0  0
 25 26  1  0  0  0  0
 22 25  1  0  0  0  0
 27 28  1  0  0  0  0
 21 27  1  0  0  0  0
  1 19  1  0  0  0  0
 29 30  2  0  0  0  0
 29 31  1  0  0  0  0
  3 29  1  0  0  0  0
M  END
>  <cdx:groupId>
97

>  <cdx:fragmentId>
5

$$$$
