94794.cdx
  Mrv1902 05222410212D          

 45 49  0  0  0  0            999 V2000
    7.2368   -8.5725    0.0000 O   0  0  0  0  0  0  0  0  0  0  0  0
    5.8439   -6.0771    0.0000 O   0  0  0  0  0  0  0  0  0  0  0  0
   12.2914   -4.9330    0.0000 O   0  0  0  0  0  0  0  0  0  0  0  0
   12.9879   -6.1807    0.0000 C   0  0  0  0  0  0  0  0  0  0  0  0
   12.2675   -6.5828    0.0000 O   0  0  0  0  0  0  0  0  0  0  0  0
   10.1423   -5.3143    0.0000 C   0  0  0  0  0  0  0  0  0  0  0  0
   10.8626   -4.9123    0.0000 C   0  0  0  0  0  0  0  0  0  0  0  0
   11.5710   -5.3351    0.0000 C   0  0  0  0  0  0  0  0  0  0  0  0
   11.5591   -6.1600    0.0000 C   0  0  0  0  0  0  0  0  0  0  0  0
   10.8387   -6.5621    0.0000 C   0  0  0  0  0  0  0  0  0  0  0  0
   10.1303   -6.1393    0.0000 C   0  0  0  0  0  0  0  0  0  0  0  0
    6.5164   -8.9746    0.0000 O   0  0  0  0  0  0  0  0  0  0  0  0
    5.0757   -9.7788    0.0000 O   0  0  0  0  0  0  0  0  0  0  0  0
    3.6588   -8.9332    0.0000 O   0  0  0  0  0  0  0  0  0  0  0  0
    2.9624   -7.6854    0.0000 O   0  0  0  0  0  0  0  0  0  0  0  0
    3.6828   -7.2833    0.0000 C   0  0  0  0  0  0  0  0  0  0  0  0
    4.3912   -7.7062    0.0000 C   0  0  2  0  0  0  0  0  0  0  0  0
    4.3792   -8.5311    0.0000 C   0  0  2  0  0  0  0  0  0  0  0  0
    5.0876   -8.9539    0.0000 C   0  0  1  0  0  0  0  0  0  0  0  0
    5.8080   -8.5518    0.0000 C   0  0  2  0  0  0  0  0  0  0  0  0
    5.8200   -7.7269    0.0000 C   0  0  1  0  0  0  0  0  0  0  0  0
    5.1116   -7.3041    0.0000 O   0  0  0  0  0  0  0  0  0  0  0  0
    8.6656   -8.5933    0.0000 O   0  0  0  0  0  0  0  0  0  0  0  0
    8.7015   -6.1185    0.0000 O   0  0  0  0  0  0  0  0  0  0  0  0
    7.9811   -6.5206    0.0000 C   0  0  0  0  0  0  0  0  0  0  0  0
    7.2727   -6.0978    0.0000 C   0  0  0  0  0  0  0  0  0  0  0  0
    6.5523   -6.4999    0.0000 C   0  0  0  0  0  0  0  0  0  0  0  0
    6.5404   -7.3248    0.0000 C   0  0  0  0  0  0  0  0  0  0  0  0
    7.2488   -7.7476    0.0000 C   0  0  0  0  0  0  0  0  0  0  0  0
    7.9691   -7.3455    0.0000 C   0  0  0  0  0  0  0  0  0  0  0  0
    8.6776   -7.7684    0.0000 C   0  0  0  0  0  0  0  0  0  0  0  0
    9.3979   -7.3663    0.0000 C   0  0  0  0  0  0  0  0  0  0  0  0
    9.4099   -6.5414    0.0000 C   0  0  0  0  0  0  0  0  0  0  0  0
    5.8200   -6.9019    0.0000 H   0  0  0  0  0  0  0  0  0  0  0  0
    4.3553  -10.1809    0.0000 C   0  0  2  0  0  0  0  0  0  0  0  0
    3.6531   -9.7479    0.0000 O   0  0  0  0  0  0  0  0  0  0  0  0
    2.9269  -10.1394    0.0000 C   0  0  1  0  0  0  0  0  0  0  0  0
    2.9269  -10.9641    0.0000 C   0  0  2  0  0  0  0  0  0  0  0  0
    3.6531  -11.3972    0.0000 C   0  0  1  0  0  0  0  0  0  0  0  0
    4.3553  -11.0056    0.0000 C   0  0  1  0  0  0  0  0  0  0  0  0
    2.2185   -9.7166    0.0000 C   0  0  0  0  0  0  0  0  0  0  0  0
    3.6411  -12.2221    0.0000 O   0  0  0  0  0  0  0  0  0  0  0  0
    5.0667  -11.4234    0.0000 O   0  0  0  0  0  0  0  0  0  0  0  0
    2.2096  -11.3715    0.0000 O   0  0  0  0  0  0  0  0  0  0  0  0
    1.4981  -10.1187    0.0000 O   0  0  0  0  0  0  0  0  0  0  0  0
 29  1  1  0  0  0  0
 27  2  1  0  0  0  0
 33 11  1  0  0  0  0
  8  3  1  0  0  0  0
  9  5  1  0  0  0  0
  5  4  1  0  0  0  0
 11  6  2  0  0  0  0
  7  6  1  0  0  0  0
  8  7  2  0  0  0  0
  9  8  1  0  0  0  0
 10  9  2  0  0  0  0
 11 10  1  0  0  0  0
 21 28  1  0  0  0  0
 20 12  1  6  0  0  0
 19 13  1  1  0  0  0
 18 14  1  6  0  0  0
 17 16  1  1  0  0  0
 16 15  1  0  0  0  0
 22 17  1  0  0  0  0
 18 17  1  0  0  0  0
 19 18  1  0  0  0  0
 20 19  1  0  0  0  0
 21 20  1  0  0  0  0
 22 21  1  0  0  0  0
 31 23  2  0  0  0  0
 33 24  1  0  0  0  0
 25 24  1  0  0  0  0
 30 25  2  0  0  0  0
 26 25  1  0  0  0  0
 27 26  2  0  0  0  0
 28 27  1  0  0  0  0
 29 28  2  0  0  0  0
 30 29  1  0  0  0  0
 31 30  1  0  0  0  0
 32 31  1  0  0  0  0
 33 32  2  0  0  0  0
 21 34  1  6  0  0  0
 35 13  1  1  0  0  0
 35 36  1  0  0  0  0
 36 37  1  0  0  0  0
 37 38  1  0  0  0  0
 38 39  1  0  0  0  0
 39 40  1  0  0  0  0
 40 35  1  0  0  0  0
 37 41  1  1  0  0  0
 39 42  1  1  0  0  0
 40 43  1  6  0  0  0
 38 44  1  6  0  0  0
 41 45  1  0  0  0  0
M  END
>  <cdx:fragmentId>
11032

$$$$
