94792.cdx
  Mrv1902 05222410232D          

 13 14  0  0  0  0            999 V2000
    7.6443   -8.6456    0.0000 N   0  0  0  0  0  0  0  0  0  0  0  0
    8.1293   -7.9782    0.0000 C   0  0  0  0  0  0  0  0  0  0  0  0
    7.6443   -7.3107    0.0000 C   0  0  0  0  0  0  0  0  0  0  0  0
    6.8597   -7.5657    0.0000 C   0  0  0  0  0  0  0  0  0  0  0  0
    6.1453   -7.1532    0.0000 C   0  0  0  0  0  0  0  0  0  0  0  0
    5.4308   -7.5657    0.0000 C   0  0  0  0  0  0  0  0  0  0  0  0
    5.4308   -8.3907    0.0000 C   0  0  0  0  0  0  0  0  0  0  0  0
    6.1453   -8.8032    0.0000 C   0  0  0  0  0  0  0  0  0  0  0  0
    6.8597   -8.3907    0.0000 C   0  0  0  0  0  0  0  0  0  0  0  0
    7.8993   -6.5261    0.0000 C   0  0  0  0  0  0  0  0  0  0  0  0
    7.8993   -9.4302    0.0000 C   0  0  0  0  0  0  0  0  0  0  0  0
    8.7063   -9.6018    0.0000 C   0  0  0  0  0  0  0  0  0  0  0  0
    8.9612  -10.3864    0.0000 C   0  0  0  0  0  0  0  0  0  0  0  0
  1  2  1  0  0  0  0
  2  3  1  0  0  0  0
  3  4  1  0  0  0  0
  4  5  1  0  0  0  0
  5  6  2  0  0  0  0
  6  7  1  0  0  0  0
  7  8  2  0  0  0  0
  8  9  1  0  0  0  0
  1  9  1  0  0  0  0
  4  9  2  0  0  0  0
  3 10  1  0  0  0  0
 11 12  1  0  0  0  0
 12 13  1  0  0  0  0
  1 11  1  0  0  0  0
M  END
>  <cdx:groupId>
42

>  <cdx:fragmentId>
5

$$$$
