94800.cdx
  Mrv1902 05222410222D          

 43 47  0  0  0  0            999 V2000
    9.2029   -6.8835    0.0000 C   0  0  0  0  0  0  0  0  0  0  0  0
    9.2029   -7.7085    0.0000 C   0  0  0  0  0  0  0  0  0  0  0  0
    8.4884   -8.1210    0.0000 C   0  0  0  0  0  0  0  0  0  0  0  0
    8.4884   -8.9460    0.0000 O   0  0  0  0  0  0  0  0  0  0  0  0
    7.7739   -7.7085    0.0000 C   0  0  0  0  0  0  0  0  0  0  0  0
    7.0595   -8.1210    0.0000 C   0  0  0  0  0  0  0  0  0  0  0  0
    7.0595   -8.9460    0.0000 O   0  0  0  0  0  0  0  0  0  0  0  0
    6.3450   -7.7085    0.0000 C   0  0  0  0  0  0  0  0  0  0  0  0
    6.3450   -6.8835    0.0000 C   0  0  0  0  0  0  0  0  0  0  0  0
    5.6305   -6.4710    0.0000 O   0  0  0  0  0  0  0  0  0  0  0  0
    7.0595   -6.4710    0.0000 C   0  0  0  0  0  0  0  0  0  0  0  0
    7.7739   -6.8835    0.0000 C   0  0  0  0  0  0  0  0  0  0  0  0
    8.4884   -6.4710    0.0000 O   0  0  0  0  0  0  0  0  0  0  0  0
    9.9174   -6.4710    0.0000 C   0  0  0  0  0  0  0  0  0  0  0  0
    9.9174   -5.6460    0.0000 C   0  0  0  0  0  0  0  0  0  0  0  0
   10.6318   -5.2335    0.0000 C   0  0  0  0  0  0  0  0  0  0  0  0
   11.3463   -5.6460    0.0000 C   0  0  0  0  0  0  0  0  0  0  0  0
   12.0608   -5.2335    0.0000 O   0  0  0  0  0  0  0  0  0  0  0  0
   11.3463   -6.4710    0.0000 C   0  0  0  0  0  0  0  0  0  0  0  0
   10.6318   -6.8835    0.0000 C   0  0  0  0  0  0  0  0  0  0  0  0
    9.9174   -8.1210    0.0000 O   0  0  0  0  0  0  0  0  0  0  0  0
    9.9174   -8.9460    0.0000 C   0  0  1  0  0  0  0  0  0  0  0  0
   10.6318   -9.3585    0.0000 C   0  0  2  0  0  0  0  0  0  0  0  0
   11.3463   -8.9460    0.0000 O   0  0  0  0  0  0  0  0  0  0  0  0
   10.6318  -10.1835    0.0000 C   0  0  1  0  0  0  0  0  0  0  0  0
   11.3463  -10.5960    0.0000 O   0  0  0  0  0  0  0  0  0  0  0  0
    9.9174  -10.5960    0.0000 C   0  0  2  0  0  0  0  0  0  0  0  0
    9.9174  -11.4210    0.0000 O   0  0  0  0  0  0  0  0  0  0  0  0
    9.2029  -10.1835    0.0000 C   0  0  2  0  0  0  0  0  0  0  0  0
    9.2029   -9.3585    0.0000 O   0  0  0  0  0  0  0  0  0  0  0  0
    8.4884  -10.5960    0.0000 C   0  0  0  0  0  0  0  0  0  0  0  0
    7.7739  -10.1835    0.0000 O   0  0  0  0  0  0  0  0  0  0  0  0
    7.0595  -10.5960    0.0000 C   0  0  0  0  0  0  0  0  0  0  0  0
    6.3450  -10.1835    0.0000 C   0  0  0  0  0  0  0  0  0  0  0  0
    7.0595  -11.4210    0.0000 O   0  0  0  0  0  0  0  0  0  0  0  0
    5.6305  -10.5960    0.0000 C   0  0  0  0  0  0  0  0  0  0  0  0
    4.9161  -10.1835    0.0000 C   0  0  0  0  0  0  0  0  0  0  0  0
    4.9161   -9.3585    0.0000 C   0  0  0  0  0  0  0  0  0  0  0  0
    4.2016   -8.9460    0.0000 C   0  0  0  0  0  0  0  0  0  0  0  0
    3.4871   -9.3585    0.0000 C   0  0  0  0  0  0  0  0  0  0  0  0
    3.4871  -10.1835    0.0000 C   0  0  0  0  0  0  0  0  0  0  0  0
    4.2016  -10.5960    0.0000 C   0  0  0  0  0  0  0  0  0  0  0  0
    2.7726   -8.9460    0.0000 O   0  0  0  0  0  0  0  0  0  0  0  0
  1  2  2  0  0  0  0
  2  3  1  0  0  0  0
  3  4  2  0  0  0  0
  3  5  1  0  0  0  0
  5  6  1  0  0  0  0
  6  7  1  0  0  0  0
  6  8  2  0  0  0  0
  8  9  1  0  0  0  0
  9 10  1  0  0  0  0
  9 11  2  0  0  0  0
 11 12  1  0  0  0  0
  5 12  2  0  0  0  0
 12 13  1  0  0  0  0
  1 13  1  0  0  0  0
  1 14  1  0  0  0  0
 14 15  1  0  0  0  0
 15 16  2  0  0  0  0
 16 17  1  0  0  0  0
 17 18  1  0  0  0  0
 17 19  2  0  0  0  0
 19 20  1  0  0  0  0
 14 20  2  0  0  0  0
 22 21  1  1  0  0  0
 22 23  1  0  0  0  0
 23 24  1  6  0  0  0
 23 25  1  0  0  0  0
 25 26  1  1  0  0  0
 25 27  1  0  0  0  0
 27 28  1  6  0  0  0
 27 29  1  0  0  0  0
 29 30  1  0  0  0  0
 29 31  1  1  0  0  0
 31 32  1  0  0  0  0
 22 30  1  0  0  0  0
  2 21  1  0  0  0  0
 32 33  1  0  0  0  0
 33 34  1  0  0  0  0
 33 35  2  0  0  0  0
 34 36  2  0  0  0  0
 36 37  1  0  0  0  0
 37 38  2  0  0  0  0
 38 39  1  0  0  0  0
 39 40  2  0  0  0  0
 40 41  1  0  0  0  0
 41 42  2  0  0  0  0
 42 37  1  0  0  0  0
 40 43  1  0  0  0  0
M  END
>  <cdx:fragmentId>
5

$$$$
