94806.cdx
  Mrv1902 05222410202D          

 53 58  0  0  0  0            999 V2000
    7.8699   -6.8560    0.0000 C   0  0  0  0  0  0  0  0  0  0  0  0
    7.8699   -7.6810    0.0000 C   0  0  0  0  0  0  0  0  0  0  0  0
    7.1555   -8.0935    0.0000 C   0  0  0  0  0  0  0  0  0  0  0  0
    7.1555   -8.9185    0.0000 O   0  0  0  0  0  0  0  0  0  0  0  0
    6.4410   -7.6810    0.0000 C   0  0  0  0  0  0  0  0  0  0  0  0
    5.7265   -8.0935    0.0000 C   0  0  0  0  0  0  0  0  0  0  0  0
    5.7265   -8.9185    0.0000 O   0  0  0  0  0  0  0  0  0  0  0  0
    5.0120   -7.6810    0.0000 C   0  0  0  0  0  0  0  0  0  0  0  0
    5.0120   -6.8560    0.0000 C   0  0  0  0  0  0  0  0  0  0  0  0
    4.2976   -6.4435    0.0000 O   0  0  0  0  0  0  0  0  0  0  0  0
    5.7265   -6.4435    0.0000 C   0  0  0  0  0  0  0  0  0  0  0  0
    6.4410   -6.8560    0.0000 C   0  0  0  0  0  0  0  0  0  0  0  0
    7.1555   -6.4435    0.0000 O   0  0  0  0  0  0  0  0  0  0  0  0
    8.5844   -6.4435    0.0000 C   0  0  0  0  0  0  0  0  0  0  0  0
    8.5844   -5.6185    0.0000 C   0  0  0  0  0  0  0  0  0  0  0  0
    9.2989   -5.2060    0.0000 C   0  0  0  0  0  0  0  0  0  0  0  0
   10.0133   -5.6185    0.0000 C   0  0  0  0  0  0  0  0  0  0  0  0
   10.7278   -5.2060    0.0000 O   0  0  0  0  0  0  0  0  0  0  0  0
   10.0133   -6.4435    0.0000 C   0  0  0  0  0  0  0  0  0  0  0  0
    9.2989   -6.8560    0.0000 C   0  0  0  0  0  0  0  0  0  0  0  0
    8.5844   -8.0935    0.0000 O   0  0  0  0  0  0  0  0  0  0  0  0
    8.5844   -8.9185    0.0000 C   0  0  1  0  0  0  0  0  0  0  0  0
    9.2989   -9.3310    0.0000 C   0  0  2  0  0  0  0  0  0  0  0  0
   10.0133   -8.9185    0.0000 O   0  0  0  0  0  0  0  0  0  0  0  0
    9.2989  -10.1560    0.0000 C   0  0  1  0  0  0  0  0  0  0  0  0
   10.0133  -10.5685    0.0000 O   0  0  0  0  0  0  0  0  0  0  0  0
    8.5844  -10.5685    0.0000 C   0  0  1  0  0  0  0  0  0  0  0  0
    8.5844  -11.3935    0.0000 O   0  0  0  0  0  0  0  0  0  0  0  0
    7.8699  -10.1560    0.0000 C   0  0  2  0  0  0  0  0  0  0  0  0
    7.8699   -9.3310    0.0000 O   0  0  0  0  0  0  0  0  0  0  0  0
    7.1555  -10.5685    0.0000 C   0  0  0  0  0  0  0  0  0  0  0  0
    7.1555  -11.3935    0.0000 O   0  0  0  0  0  0  0  0  0  0  0  0
   10.7278   -9.3310    0.0000 C   0  0  1  0  0  0  0  0  0  0  0  0
   11.4423   -8.9185    0.0000 C   0  0  2  0  0  0  0  0  0  0  0  0
   11.4423   -8.0935    0.0000 O   0  0  0  0  0  0  0  0  0  0  0  0
   12.1568   -9.3310    0.0000 C   0  0  1  0  0  0  0  0  0  0  0  0
   12.8712   -8.9185    0.0000 O   0  0  0  0  0  0  0  0  0  0  0  0
   12.1568  -10.1560    0.0000 C   0  0  2  0  0  0  0  0  0  0  0  0
   12.8712  -10.5685    0.0000 O   0  0  0  0  0  0  0  0  0  0  0  0
   11.4423  -10.5685    0.0000 C   0  0  2  0  0  0  0  0  0  0  0  0
   10.7278  -10.1560    0.0000 O   0  0  0  0  0  0  0  0  0  0  0  0
   11.4423  -11.3935    0.0000 C   0  0  0  0  0  0  0  0  0  0  0  0
   12.1568  -11.8060    0.0000 O   0  0  0  0  0  0  0  0  0  0  0  0
    3.5995   -6.8560    0.0000 C   0  0  1  0  0  0  0  0  0  0  0  0
    3.5995   -7.6810    0.0000 C   0  0  2  0  0  0  0  0  0  0  0  0
    4.3140   -8.0935    0.0000 O   0  0  0  0  0  0  0  0  0  0  0  0
    2.8850   -8.0935    0.0000 C   0  0  2  0  0  0  0  0  0  0  0  0
    2.8850   -8.9185    0.0000 O   0  0  0  0  0  0  0  0  0  0  0  0
    2.1706   -7.6810    0.0000 C   0  0  1  0  0  0  0  0  0  0  0  0
    1.4561   -8.0935    0.0000 O   0  0  0  0  0  0  0  0  0  0  0  0
    2.1706   -6.8560    0.0000 C   0  0  1  0  0  0  0  0  0  0  0  0
    2.8850   -6.4435    0.0000 O   0  0  0  0  0  0  0  0  0  0  0  0
    1.4561   -6.4435    0.0000 C   0  0  0  0  0  0  0  0  0  0  0  0
  1  2  2  0  0  0  0
  2  3  1  0  0  0  0
  3  4  2  0  0  0  0
  3  5  1  0  0  0  0
  5  6  1  0  0  0  0
  6  7  1  0  0  0  0
  6  8  2  0  0  0  0
  8  9  1  0  0  0  0
  9 10  1  0  0  0  0
  9 11  2  0  0  0  0
 11 12  1  0  0  0  0
  5 12  2  0  0  0  0
 12 13  1  0  0  0  0
  1 13  1  0  0  0  0
  1 14  1  0  0  0  0
 14 15  1  0  0  0  0
 15 16  2  0  0  0  0
 16 17  1  0  0  0  0
 17 18  1  0  0  0  0
 17 19  2  0  0  0  0
 19 20  1  0  0  0  0
 14 20  2  0  0  0  0
 22 21  1  1  0  0  0
 22 23  1  0  0  0  0
 23 24  1  6  0  0  0
 23 25  1  0  0  0  0
 25 26  1  1  0  0  0
 25 27  1  0  0  0  0
 27 28  1  1  0  0  0
 27 29  1  0  0  0  0
 29 30  1  0  0  0  0
 29 31  1  1  0  0  0
 31 32  1  0  0  0  0
 22 30  1  0  0  0  0
 33 34  1  0  0  0  0
 34 35  1  6  0  0  0
 34 36  1  0  0  0  0
 36 37  1  1  0  0  0
 36 38  1  0  0  0  0
 38 39  1  6  0  0  0
 38 40  1  0  0  0  0
 40 41  1  0  0  0  0
 40 42  1  1  0  0  0
 42 43  1  0  0  0  0
 33 41  1  0  0  0  0
 33 24  1  1  0  0  0
  2 21  1  0  0  0  0
 44 45  1  0  0  0  0
 45 46  1  6  0  0  0
 45 47  1  0  0  0  0
 47 48  1  6  0  0  0
 47 49  1  0  0  0  0
 49 50  1  1  0  0  0
 49 51  1  0  0  0  0
 51 52  1  0  0  0  0
 51 53  1  6  0  0  0
 44 52  1  0  0  0  0
 44 10  1  1  0  0  0
M  END
>  <cdx:fragmentId>
43

$$$$
