94801.cdx
  Mrv1902 05222410222D          

 44 48  0  0  0  0            999 V2000
    7.7024   -6.4022    0.0000 C   0  0  0  0  0  0  0  0  0  0  0  0
    7.7024   -7.2272    0.0000 C   0  0  0  0  0  0  0  0  0  0  0  0
    6.9879   -7.6397    0.0000 C   0  0  0  0  0  0  0  0  0  0  0  0
    6.9879   -8.4647    0.0000 O   0  0  0  0  0  0  0  0  0  0  0  0
    6.2734   -7.2272    0.0000 C   0  0  0  0  0  0  0  0  0  0  0  0
    5.5590   -7.6397    0.0000 C   0  0  0  0  0  0  0  0  0  0  0  0
    5.5590   -8.4647    0.0000 O   0  0  0  0  0  0  0  0  0  0  0  0
    4.8445   -7.2272    0.0000 C   0  0  0  0  0  0  0  0  0  0  0  0
    4.8445   -6.4022    0.0000 C   0  0  0  0  0  0  0  0  0  0  0  0
    4.1300   -5.9897    0.0000 O   0  0  0  0  0  0  0  0  0  0  0  0
    5.5590   -5.9897    0.0000 C   0  0  0  0  0  0  0  0  0  0  0  0
    6.2734   -6.4022    0.0000 C   0  0  0  0  0  0  0  0  0  0  0  0
    6.9879   -5.9897    0.0000 O   0  0  0  0  0  0  0  0  0  0  0  0
    8.4168   -5.9897    0.0000 C   0  0  0  0  0  0  0  0  0  0  0  0
    9.1313   -6.4022    0.0000 C   0  0  0  0  0  0  0  0  0  0  0  0
    9.8458   -5.9897    0.0000 C   0  0  0  0  0  0  0  0  0  0  0  0
   10.5603   -6.4022    0.0000 O   0  0  0  0  0  0  0  0  0  0  0  0
   11.2747   -5.9897    0.0000 C   0  0  0  0  0  0  0  0  0  0  0  0
    9.8458   -5.1647    0.0000 C   0  0  0  0  0  0  0  0  0  0  0  0
   10.5603   -4.7522    0.0000 O   0  0  0  0  0  0  0  0  0  0  0  0
    9.1313   -4.7522    0.0000 C   0  0  0  0  0  0  0  0  0  0  0  0
    8.4168   -5.1647    0.0000 C   0  0  0  0  0  0  0  0  0  0  0  0
    8.4168   -7.6397    0.0000 O   0  0  0  0  0  0  0  0  0  0  0  0
    8.4168   -8.4647    0.0000 C   0  0  1  0  0  0  0  0  0  0  0  0
    9.1313   -8.8772    0.0000 C   0  0  2  0  0  0  0  0  0  0  0  0
    9.8458   -8.4647    0.0000 O   0  0  0  0  0  0  0  0  0  0  0  0
    9.1313   -9.7022    0.0000 C   0  0  1  0  0  0  0  0  0  0  0  0
    9.8458  -10.1147    0.0000 O   0  0  0  0  0  0  0  0  0  0  0  0
    8.4168  -10.1147    0.0000 C   0  0  2  0  0  0  0  0  0  0  0  0
    8.4168  -10.9397    0.0000 O   0  0  0  0  0  0  0  0  0  0  0  0
    7.7024   -9.7022    0.0000 C   0  0  2  0  0  0  0  0  0  0  0  0
    7.7024   -8.8772    0.0000 O   0  0  0  0  0  0  0  0  0  0  0  0
    6.9879  -10.1147    0.0000 C   0  0  0  0  0  0  0  0  0  0  0  0
    6.2734   -9.7022    0.0000 O   0  0  0  0  0  0  0  0  0  0  0  0
    5.5590  -10.1147    0.0000 C   0  0  2  0  0  0  0  0  0  0  0  0
    5.5590  -10.9397    0.0000 C   0  0  1  0  0  0  0  0  0  0  0  0
    6.2734  -11.3522    0.0000 O   0  0  0  0  0  0  0  0  0  0  0  0
    4.8445  -11.3522    0.0000 C   0  0  1  0  0  0  0  0  0  0  0  0
    4.8445  -12.1772    0.0000 O   0  0  0  0  0  0  0  0  0  0  0  0
    4.1300  -10.9397    0.0000 C   0  0  2  0  0  0  0  0  0  0  0  0
    3.4155  -11.3522    0.0000 O   0  0  0  0  0  0  0  0  0  0  0  0
    4.1300  -10.1147    0.0000 C   0  0  2  0  0  0  0  0  0  0  0  0
    4.8445   -9.7022    0.0000 O   0  0  0  0  0  0  0  0  0  0  0  0
    3.4155   -9.7022    0.0000 C   0  0  0  0  0  0  0  0  0  0  0  0
  1  2  2  0  0  0  0
  2  3  1  0  0  0  0
  3  4  2  0  0  0  0
  3  5  1  0  0  0  0
  5  6  1  0  0  0  0
  6  7  1  0  0  0  0
  6  8  2  0  0  0  0
  8  9  1  0  0  0  0
  9 10  1  0  0  0  0
  9 11  2  0  0  0  0
 11 12  1  0  0  0  0
  5 12  2  0  0  0  0
 12 13  1  0  0  0  0
  1 13  1  0  0  0  0
  1 14  1  0  0  0  0
 14 15  1  0  0  0  0
 15 16  2  0  0  0  0
 16 17  1  0  0  0  0
 17 18  1  0  0  0  0
 16 19  1  0  0  0  0
 19 20  1  0  0  0  0
 19 21  2  0  0  0  0
 21 22  1  0  0  0  0
 14 22  2  0  0  0  0
 24 23  1  1  0  0  0
 24 25  1  0  0  0  0
 25 26  1  6  0  0  0
 25 27  1  0  0  0  0
 27 28  1  1  0  0  0
 27 29  1  0  0  0  0
 29 30  1  6  0  0  0
 29 31  1  0  0  0  0
 31 32  1  0  0  0  0
 31 33  1  1  0  0  0
 33 34  1  0  0  0  0
 24 32  1  0  0  0  0
 35 36  1  0  0  0  0
 36 37  1  1  0  0  0
 36 38  1  0  0  0  0
 38 39  1  1  0  0  0
 38 40  1  0  0  0  0
 40 41  1  6  0  0  0
 40 42  1  0  0  0  0
 42 43  1  0  0  0  0
 42 44  1  1  0  0  0
 35 43  1  0  0  0  0
 35 34  1  6  0  0  0
  2 23  1  0  0  0  0
M  END
>  <cdx:groupId>
138

>  <cdx:fragmentId>
5

$$$$
