94809.cdx
  Mrv1902 05222410242D          

 62 68  0  0  0  0            999 V2000
    8.2674   -6.4572    0.0000 C   0  0  0  0  0  0  0  0  0  0  0  0
    8.2674   -7.2822    0.0000 C   0  0  0  0  0  0  0  0  0  0  0  0
    7.5529   -7.6947    0.0000 C   0  0  0  0  0  0  0  0  0  0  0  0
    7.5529   -8.5197    0.0000 O   0  0  0  0  0  0  0  0  0  0  0  0
    6.8384   -7.2822    0.0000 C   0  0  0  0  0  0  0  0  0  0  0  0
    6.1239   -7.6947    0.0000 C   0  0  0  0  0  0  0  0  0  0  0  0
    6.1239   -8.5197    0.0000 O   0  0  0  0  0  0  0  0  0  0  0  0
    5.4095   -7.2822    0.0000 C   0  0  0  0  0  0  0  0  0  0  0  0
    5.4095   -6.4572    0.0000 C   0  0  0  0  0  0  0  0  0  0  0  0
    4.6950   -6.0447    0.0000 O   0  0  0  0  0  0  0  0  0  0  0  0
    6.1239   -6.0447    0.0000 C   0  0  0  0  0  0  0  0  0  0  0  0
    6.8384   -6.4572    0.0000 C   0  0  0  0  0  0  0  0  0  0  0  0
    7.5529   -6.0447    0.0000 O   0  0  0  0  0  0  0  0  0  0  0  0
    8.9818   -6.0447    0.0000 C   0  0  0  0  0  0  0  0  0  0  0  0
    8.9818   -5.2197    0.0000 C   0  0  0  0  0  0  0  0  0  0  0  0
    9.6963   -4.8072    0.0000 C   0  0  0  0  0  0  0  0  0  0  0  0
   10.4108   -5.2197    0.0000 C   0  0  0  0  0  0  0  0  0  0  0  0
   11.1252   -4.8072    0.0000 O   0  0  0  0  0  0  0  0  0  0  0  0
   10.4108   -6.0447    0.0000 C   0  0  0  0  0  0  0  0  0  0  0  0
    9.6963   -6.4572    0.0000 C   0  0  0  0  0  0  0  0  0  0  0  0
    8.9818   -7.6947    0.0000 O   0  0  0  0  0  0  0  0  0  0  0  0
    8.9818   -8.5197    0.0000 C   0  0  1  0  0  0  0  0  0  0  0  0
    9.6963   -8.9322    0.0000 C   0  0  2  0  0  0  0  0  0  0  0  0
   10.4108   -8.5197    0.0000 O   0  0  0  0  0  0  0  0  0  0  0  0
    9.6963   -9.7572    0.0000 C   0  0  1  0  0  0  0  0  0  0  0  0
   10.4108  -10.1697    0.0000 O   0  0  0  0  0  0  0  0  0  0  0  0
    8.9818  -10.1697    0.0000 C   0  0  2  0  0  0  0  0  0  0  0  0
    8.9818  -10.9947    0.0000 O   0  0  0  0  0  0  0  0  0  0  0  0
    8.2674   -9.7572    0.0000 C   0  0  2  0  0  0  0  0  0  0  0  0
    8.2674   -8.9322    0.0000 O   0  0  0  0  0  0  0  0  0  0  0  0
    7.5529  -10.1697    0.0000 C   0  0  0  0  0  0  0  0  0  0  0  0
   11.1252   -8.9322    0.0000 C   0  0  1  0  0  0  0  0  0  0  0  0
   11.8397   -8.5197    0.0000 C   0  0  2  0  0  0  0  0  0  0  0  0
   11.8397   -7.6947    0.0000 O   0  0  0  0  0  0  0  0  0  0  0  0
   12.5542   -8.9322    0.0000 C   0  0  1  0  0  0  0  0  0  0  0  0
   13.2687   -8.5197    0.0000 O   0  0  0  0  0  0  0  0  0  0  0  0
   12.5542   -9.7572    0.0000 C   0  0  2  0  0  0  0  0  0  0  0  0
   13.2687  -10.1697    0.0000 O   0  0  0  0  0  0  0  0  0  0  0  0
   11.8397  -10.1697    0.0000 C   0  0  2  0  0  0  0  0  0  0  0  0
   11.1252   -9.7572    0.0000 O   0  0  0  0  0  0  0  0  0  0  0  0
   11.8397  -10.9947    0.0000 C   0  0  0  0  0  0  0  0  0  0  0  0
   12.5542  -11.4072    0.0000 O   0  0  0  0  0  0  0  0  0  0  0  0
    3.9984  -12.2527    0.0000 O   0  0  0  0  0  0  0  0  0  0  0  0
    3.2869  -12.6704    0.0000 C   0  0  0  0  0  0  0  0  0  0  0  0
    2.5814  -13.9130    0.0000 O   0  0  0  0  0  0  0  0  0  0  0  0
    3.2929  -13.4953    0.0000 C   0  0  1  0  0  0  0  0  0  0  0  0
    4.0162  -14.7277    0.0000 O   0  0  0  0  0  0  0  0  0  0  0  0
    4.0103  -13.9027    0.0000 C   0  0  2  0  0  0  0  0  0  0  0  0
    5.4392  -13.8924    0.0000 O   0  0  0  0  0  0  0  0  0  0  0  0
    4.7218  -13.4851    0.0000 C   0  0  1  0  0  0  0  0  0  0  0  0
    4.7158  -12.6601    0.0000 C   0  0  2  0  0  0  0  0  0  0  0  0
    3.9806   -9.7778    0.0000 C   0  0  0  0  0  0  0  0  0  0  0  0
    5.4095   -9.7675    0.0000 O   0  0  0  0  0  0  0  0  0  0  0  0
    4.6980  -10.1851    0.0000 C   0  0  2  0  0  0  0  0  0  0  0  0
    3.9925  -11.4278    0.0000 O   0  0  0  0  0  0  0  0  0  0  0  0
    4.7040  -11.0101    0.0000 C   0  0  2  0  0  0  0  0  0  0  0  0
    5.4273  -12.2424    0.0000 O   0  0  0  0  0  0  0  0  0  0  0  0
    5.4214  -11.4175    0.0000 C   0  0  1  0  0  0  0  0  0  0  0  0
    6.8503  -11.4072    0.0000 O   0  0  0  0  0  0  0  0  0  0  0  0
    6.1329  -10.9998    0.0000 C   0  0  1  0  0  0  0  0  0  0  0  0
    6.1269  -10.1749    0.0000 C   0  0  2  0  0  0  0  0  0  0  0  0
    6.8384   -9.7572    0.0000 O   0  0  0  0  0  0  0  0  0  0  0  0
 61 62  1  1  0  0  0
 51 57  1  1  0  0  0
 51 43  1  0  0  0  0
 44 43  1  0  0  0  0
 46 44  1  0  0  0  0
 46 45  1  6  0  0  0
 48 46  1  0  0  0  0
 48 47  1  1  0  0  0
 50 48  1  0  0  0  0
 50 49  1  6  0  0  0
 51 50  1  0  0  0  0
 61 53  1  0  0  0  0
 54 52  1  6  0  0  0
 54 53  1  0  0  0  0
 56 54  1  0  0  0  0
 56 55  1  1  0  0  0
 58 56  1  0  0  0  0
 58 57  1  6  0  0  0
 60 58  1  0  0  0  0
 60 59  1  6  0  0  0
  1  2  2  0  0  0  0
  2  3  1  0  0  0  0
  3  4  2  0  0  0  0
  3  5  1  0  0  0  0
  5  6  1  0  0  0  0
  6  7  1  0  0  0  0
  6  8  2  0  0  0  0
  8  9  1  0  0  0  0
  9 10  1  0  0  0  0
  9 11  2  0  0  0  0
 11 12  1  0  0  0  0
  5 12  2  0  0  0  0
 12 13  1  0  0  0  0
  1 13  1  0  0  0  0
  1 14  1  0  0  0  0
 14 15  1  0  0  0  0
 15 16  2  0  0  0  0
 16 17  1  0  0  0  0
 17 18  1  0  0  0  0
 17 19  2  0  0  0  0
 19 20  1  0  0  0  0
 14 20  2  0  0  0  0
 22 21  1  1  0  0  0
 22 23  1  0  0  0  0
 23 24  1  6  0  0  0
 23 25  1  0  0  0  0
 25 26  1  1  0  0  0
 25 27  1  0  0  0  0
 27 28  1  6  0  0  0
 27 29  1  0  0  0  0
 29 30  1  0  0  0  0
 29 31  1  1  0  0  0
 31 62  1  0  0  0  0
 22 30  1  0  0  0  0
 32 33  1  0  0  0  0
 33 34  1  6  0  0  0
 33 35  1  0  0  0  0
 35 36  1  1  0  0  0
 35 37  1  0  0  0  0
 37 38  1  6  0  0  0
 37 39  1  0  0  0  0
 39 40  1  0  0  0  0
 39 41  1  1  0  0  0
 41 42  1  0  0  0  0
 32 40  1  0  0  0  0
 32 24  1  1  0  0  0
 61 60  1  0  0  0  0
  2 21  1  0  0  0  0
M  END
>  <cdx:fragmentId>
43

$$$$
