94805.cdx
  Mrv1902 05222410212D          

 63 69  0  0  0  0            999 V2000
    7.9522   -6.0172    0.0000 C   0  0  0  0  0  0  0  0  0  0  0  0
    7.9522   -6.8422    0.0000 C   0  0  0  0  0  0  0  0  0  0  0  0
    7.2377   -7.2547    0.0000 C   0  0  0  0  0  0  0  0  0  0  0  0
    7.2377   -8.0797    0.0000 O   0  0  0  0  0  0  0  0  0  0  0  0
    6.5232   -6.8422    0.0000 C   0  0  0  0  0  0  0  0  0  0  0  0
    5.8088   -7.2547    0.0000 C   0  0  0  0  0  0  0  0  0  0  0  0
    5.8088   -8.0797    0.0000 O   0  0  0  0  0  0  0  0  0  0  0  0
    5.0943   -6.8422    0.0000 C   0  0  0  0  0  0  0  0  0  0  0  0
    5.0943   -6.0172    0.0000 C   0  0  0  0  0  0  0  0  0  0  0  0
    4.3798   -5.6047    0.0000 O   0  0  0  0  0  0  0  0  0  0  0  0
    5.8088   -5.6047    0.0000 C   0  0  0  0  0  0  0  0  0  0  0  0
    6.5232   -6.0172    0.0000 C   0  0  0  0  0  0  0  0  0  0  0  0
    7.2377   -5.6047    0.0000 O   0  0  0  0  0  0  0  0  0  0  0  0
    8.6666   -5.6047    0.0000 C   0  0  0  0  0  0  0  0  0  0  0  0
    8.6666   -4.7797    0.0000 C   0  0  0  0  0  0  0  0  0  0  0  0
    9.3811   -4.3672    0.0000 C   0  0  0  0  0  0  0  0  0  0  0  0
   10.0956   -4.7797    0.0000 C   0  0  0  0  0  0  0  0  0  0  0  0
   10.8100   -4.3672    0.0000 O   0  0  0  0  0  0  0  0  0  0  0  0
   10.0956   -5.6047    0.0000 C   0  0  0  0  0  0  0  0  0  0  0  0
    9.3811   -6.0172    0.0000 C   0  0  0  0  0  0  0  0  0  0  0  0
    8.6666   -7.2547    0.0000 O   0  0  0  0  0  0  0  0  0  0  0  0
    8.6666   -8.0797    0.0000 C   0  0  1  0  0  0  0  0  0  0  0  0
    9.3811   -8.4922    0.0000 C   0  0  2  0  0  0  0  0  0  0  0  0
   10.0956   -8.0797    0.0000 O   0  0  0  0  0  0  0  0  0  0  0  0
    9.3811   -9.3172    0.0000 C   0  0  1  0  0  0  0  0  0  0  0  0
   10.0956   -9.7297    0.0000 O   0  0  0  0  0  0  0  0  0  0  0  0
    8.6666   -9.7297    0.0000 C   0  0  2  0  0  0  0  0  0  0  0  0
    8.6666  -10.5547    0.0000 O   0  0  0  0  0  0  0  0  0  0  0  0
    7.9522   -9.3172    0.0000 C   0  0  2  0  0  0  0  0  0  0  0  0
    7.9522   -8.4922    0.0000 O   0  0  0  0  0  0  0  0  0  0  0  0
    7.2377   -9.7297    0.0000 C   0  0  0  0  0  0  0  0  0  0  0  0
    6.5232   -9.3172    0.0000 O   0  0  0  0  0  0  0  0  0  0  0  0
    5.8088   -9.7297    0.0000 C   0  0  1  0  0  0  0  0  0  0  0  0
    5.8088  -10.5547    0.0000 C   0  0  2  0  0  0  0  0  0  0  0  0
    6.5232  -10.9672    0.0000 O   0  0  0  0  0  0  0  0  0  0  0  0
    5.0943  -10.9672    0.0000 C   0  0  2  0  0  0  0  0  0  0  0  0
    5.0943  -11.7922    0.0000 O   0  0  0  0  0  0  0  0  0  0  0  0
    4.3798  -10.5547    0.0000 C   0  0  1  0  0  0  0  0  0  0  0  0
    3.6653  -10.9672    0.0000 O   0  0  0  0  0  0  0  0  0  0  0  0
    4.3798   -9.7297    0.0000 C   0  0  1  0  0  0  0  0  0  0  0  0
    5.0943   -9.3172    0.0000 O   0  0  0  0  0  0  0  0  0  0  0  0
    3.6653   -9.3172    0.0000 C   0  0  0  0  0  0  0  0  0  0  0  0
   10.8100   -8.4922    0.0000 C   0  0  1  0  0  0  0  0  0  0  0  0
   11.5245   -8.0797    0.0000 C   0  0  2  0  0  0  0  0  0  0  0  0
   11.5245   -7.2547    0.0000 O   0  0  0  0  0  0  0  0  0  0  0  0
   12.2390   -8.4922    0.0000 C   0  0  1  0  0  0  0  0  0  0  0  0
   12.9535   -8.0797    0.0000 O   0  0  0  0  0  0  0  0  0  0  0  0
   12.2390   -9.3172    0.0000 C   0  0  2  0  0  0  0  0  0  0  0  0
   12.9535   -9.7297    0.0000 O   0  0  0  0  0  0  0  0  0  0  0  0
   11.5245   -9.7297    0.0000 C   0  0  2  0  0  0  0  0  0  0  0  0
   10.8100   -9.3172    0.0000 O   0  0  0  0  0  0  0  0  0  0  0  0
   11.5245  -10.5547    0.0000 C   0  0  0  0  0  0  0  0  0  0  0  0
   12.2390  -10.9672    0.0000 O   0  0  0  0  0  0  0  0  0  0  0  0
    3.6545   -6.0172    0.0000 C   0  0  1  0  0  0  0  0  0  0  0  0
    3.6545   -6.8422    0.0000 C   0  0  2  0  0  0  0  0  0  0  0  0
    4.3690   -7.2547    0.0000 O   0  0  0  0  0  0  0  0  0  0  0  0
    2.9400   -7.2547    0.0000 C   0  0  2  0  0  0  0  0  0  0  0  0
    2.9400   -8.0797    0.0000 O   0  0  0  0  0  0  0  0  0  0  0  0
    2.2256   -6.8422    0.0000 C   0  0  1  0  0  0  0  0  0  0  0  0
    1.5111   -7.2547    0.0000 O   0  0  0  0  0  0  0  0  0  0  0  0
    2.2256   -6.0172    0.0000 C   0  0  1  0  0  0  0  0  0  0  0  0
    2.9400   -5.6047    0.0000 O   0  0  0  0  0  0  0  0  0  0  0  0
    1.5111   -5.6047    0.0000 C   0  0  0  0  0  0  0  0  0  0  0  0
  1  2  2  0  0  0  0
  2  3  1  0  0  0  0
  3  4  2  0  0  0  0
  3  5  1  0  0  0  0
  5  6  1  0  0  0  0
  6  7  1  0  0  0  0
  6  8  2  0  0  0  0
  8  9  1  0  0  0  0
  9 10  1  0  0  0  0
  9 11  2  0  0  0  0
 11 12  1  0  0  0  0
  5 12  2  0  0  0  0
 12 13  1  0  0  0  0
  1 13  1  0  0  0  0
  1 14  1  0  0  0  0
 14 15  1  0  0  0  0
 15 16  2  0  0  0  0
 16 17  1  0  0  0  0
 17 18  1  0  0  0  0
 17 19  2  0  0  0  0
 19 20  1  0  0  0  0
 14 20  2  0  0  0  0
 22 21  1  1  0  0  0
 22 23  1  0  0  0  0
 23 24  1  6  0  0  0
 23 25  1  0  0  0  0
 25 26  1  1  0  0  0
 25 27  1  0  0  0  0
 27 28  1  6  0  0  0
 27 29  1  0  0  0  0
 29 30  1  0  0  0  0
 29 31  1  1  0  0  0
 31 32  1  0  0  0  0
 22 30  1  0  0  0  0
 33 34  1  0  0  0  0
 34 35  1  6  0  0  0
 34 36  1  0  0  0  0
 36 37  1  6  0  0  0
 36 38  1  0  0  0  0
 38 39  1  1  0  0  0
 38 40  1  0  0  0  0
 40 41  1  0  0  0  0
 40 42  1  6  0  0  0
 33 41  1  0  0  0  0
 33 32  1  1  0  0  0
 43 44  1  0  0  0  0
 44 45  1  6  0  0  0
 44 46  1  0  0  0  0
 46 47  1  1  0  0  0
 46 48  1  0  0  0  0
 48 49  1  6  0  0  0
 48 50  1  0  0  0  0
 50 51  1  0  0  0  0
 50 52  1  1  0  0  0
 52 53  1  0  0  0  0
 43 51  1  0  0  0  0
 43 24  1  1  0  0  0
  2 21  1  0  0  0  0
 54 55  1  0  0  0  0
 55 56  1  6  0  0  0
 55 57  1  0  0  0  0
 57 58  1  6  0  0  0
 57 59  1  0  0  0  0
 59 60  1  1  0  0  0
 59 61  1  0  0  0  0
 61 62  1  0  0  0  0
 61 63  1  6  0  0  0
 54 62  1  0  0  0  0
 54 10  1  1  0  0  0
M  END
>  <cdx:fragmentId>
43

$$$$
