94812.cdx
  Mrv1902 05222410202D          

 26 29  0  0  0  0            999 V2000
    8.0647   -6.6003    0.0000 O   0  0  0  0  0  0  0  0  0  0  0  0
    8.7792   -7.0128    0.0000 C   0  0  0  0  0  0  0  0  0  0  0  0
    9.4936   -6.6003    0.0000 O   0  0  0  0  0  0  0  0  0  0  0  0
    8.7792   -7.8378    0.0000 C   0  0  0  0  0  0  0  0  0  0  0  0
    8.0647   -8.2503    0.0000 C   0  0  0  0  0  0  0  0  0  0  0  0
    7.3502   -7.8378    0.0000 C   0  0  0  0  0  0  0  0  0  0  0  0
    6.6357   -8.2503    0.0000 C   0  0  0  0  0  0  0  0  0  0  0  0
    5.9213   -7.8378    0.0000 C   0  0  0  0  0  0  0  0  0  0  0  0
    5.9213   -7.0128    0.0000 C   0  0  0  0  0  0  0  0  0  0  0  0
    6.6357   -6.6003    0.0000 C   0  0  0  0  0  0  0  0  0  0  0  0
    7.3502   -7.0128    0.0000 C   0  0  0  0  0  0  0  0  0  0  0  0
    8.0647   -9.0753    0.0000 O   0  0  0  0  0  0  0  0  0  0  0  0
    8.7792   -9.4878    0.0000 C   0  0  0  0  0  0  0  0  0  0  0  0
    9.4936   -9.0753    0.0000 O   0  0  0  0  0  0  0  0  0  0  0  0
    8.7792  -10.3128    0.0000 C   0  0  0  0  0  0  0  0  0  0  0  0
    8.0647  -10.7253    0.0000 C   0  0  0  0  0  0  0  0  0  0  0  0
    7.3502  -10.3128    0.0000 C   0  0  0  0  0  0  0  0  0  0  0  0
    6.6357  -10.7253    0.0000 C   0  0  0  0  0  0  0  0  0  0  0  0
    5.9213  -10.3128    0.0000 C   0  0  0  0  0  0  0  0  0  0  0  0
    5.9213   -9.4878    0.0000 C   0  0  0  0  0  0  0  0  0  0  0  0
    6.6357   -9.0753    0.0000 C   0  0  0  0  0  0  0  0  0  0  0  0
    7.3502   -9.4878    0.0000 C   0  0  0  0  0  0  0  0  0  0  0  0
    5.2068   -6.6003    0.0000 O   0  0  0  0  0  0  0  0  0  0  0  0
    5.2068   -8.2503    0.0000 O   0  0  0  0  0  0  0  0  0  0  0  0
    5.2068   -9.0753    0.0000 O   0  0  0  0  0  0  0  0  0  0  0  0
    5.2068  -10.7253    0.0000 O   0  0  0  0  0  0  0  0  0  0  0  0
  1  2  1  0  0  0  0
  2  3  2  0  0  0  0
  2  4  1  0  0  0  0
  4  5  2  0  0  0  0
  5  6  1  0  0  0  0
  6  7  2  0  0  0  0
  7  8  1  0  0  0  0
  8  9  1  0  0  0  0
  9 10  1  0  0  0  0
 10 11  2  0  0  0  0
  1 11  1  0  0  0  0
  6 11  1  0  0  0  0
 12 13  1  0  0  0  0
 13 14  2  0  0  0  0
 13 15  1  0  0  0  0
 15 16  2  0  0  0  0
 16 17  1  0  0  0  0
 17 18  1  0  0  0  0
 18 19  2  0  0  0  0
 19 20  1  0  0  0  0
 20 21  2  0  0  0  0
 21 22  1  0  0  0  0
 12 22  1  0  0  0  0
 17 22  2  0  0  0  0
  7 21  1  0  0  0  0
  9 23  1  0  0  0  0
  8 24  1  0  0  0  0
 20 25  1  0  0  0  0
 19 26  1  0  0  0  0
M  END
>  <cdx:fragmentId>
117

$$$$
