94817.cdx
  Mrv1902 05222410222D          

 34 36  0  0  0  0            999 V2000
    9.9075   -7.0210    0.0000 O   0  0  0  0  0  0  0  0  0  0  0  0
    9.1930   -7.4335    0.0000 C   0  0  1  0  0  0  0  0  0  0  0  0
    9.1930   -8.2585    0.0000 C   0  0  2  0  0  0  0  0  0  0  0  0
    9.9075   -8.6710    0.0000 O   0  0  0  0  0  0  0  0  0  0  0  0
    8.4785   -8.6710    0.0000 C   0  0  1  0  0  0  0  0  0  0  0  0
    8.4785   -9.4960    0.0000 O   0  0  0  0  0  0  0  0  0  0  0  0
    7.7641   -8.2585    0.0000 C   0  0  2  0  0  0  0  0  0  0  0  0
    7.0496   -8.6710    0.0000 O   0  0  0  0  0  0  0  0  0  0  0  0
    7.7641   -7.4335    0.0000 C   0  0  2  0  0  0  0  0  0  0  0  0
    8.4785   -7.0210    0.0000 O   0  0  0  0  0  0  0  0  0  0  0  0
    7.0496   -7.0210    0.0000 C   0  0  0  0  0  0  0  0  0  0  0  0
    7.0496   -6.1960    0.0000 O   0  0  0  0  0  0  0  0  0  0  0  0
    7.7641   -9.9085    0.0000 C   0  0  1  0  0  0  0  0  0  0  0  0
    7.7641  -10.7335    0.0000 C   0  0  2  0  0  0  0  0  0  0  0  0
    8.4785  -11.1460    0.0000 O   0  0  0  0  0  0  0  0  0  0  0  0
    7.0496  -11.1460    0.0000 C   0  0  2  0  0  0  0  0  0  0  0  0
    7.0496  -11.9710    0.0000 O   0  0  0  0  0  0  0  0  0  0  0  0
    6.3351  -10.7335    0.0000 C   0  0  1  0  0  0  0  0  0  0  0  0
    5.6207  -11.1460    0.0000 O   0  0  0  0  0  0  0  0  0  0  0  0
    6.3351   -9.9085    0.0000 C   0  0  1  0  0  0  0  0  0  0  0  0
    7.0496   -9.4960    0.0000 O   0  0  0  0  0  0  0  0  0  0  0  0
    5.6207   -9.4960    0.0000 C   0  0  0  0  0  0  0  0  0  0  0  0
    6.3351   -8.2585    0.0000 C   0  0  0  0  0  0  0  0  0  0  0  0
    5.6207   -8.6710    0.0000 C   0  0  0  0  0  0  0  0  0  0  0  0
    4.9062   -8.2585    0.0000 C   0  0  0  0  0  0  0  0  0  0  0  0
    4.9062   -7.4335    0.0000 C   0  0  0  0  0  0  0  0  0  0  0  0
    5.6207   -7.0210    0.0000 C   0  0  0  0  0  0  0  0  0  0  0  0
    5.6207   -6.1960    0.0000 C   0  0  0  0  0  0  0  0  0  0  0  0
    4.9062   -5.7835    0.0000 C   0  0  0  0  0  0  0  0  0  0  0  0
    4.1917   -6.1960    0.0000 C   0  0  0  0  0  0  0  0  0  0  0  0
    4.1917   -7.0210    0.0000 C   0  0  0  0  0  0  0  0  0  0  0  0
    6.3351   -7.4335    0.0000 O   0  0  0  0  0  0  0  0  0  0  0  0
    4.9062   -4.9585    0.0000 O   0  0  0  0  0  0  0  0  0  0  0  0
    6.3351   -5.7835    0.0000 O   0  0  0  0  0  0  0  0  0  0  0  0
  2  1  1  1  0  0  0
  2  3  1  0  0  0  0
  3  4  1  6  0  0  0
  3  5  1  0  0  0  0
  5  6  1  1  0  0  0
  5  7  1  0  0  0  0
  7  8  1  6  0  0  0
  7  9  1  0  0  0  0
  9 10  1  0  0  0  0
  9 11  1  1  0  0  0
 11 12  1  0  0  0  0
  2 10  1  0  0  0  0
 13 14  1  0  0  0  0
 14 15  1  6  0  0  0
 14 16  1  0  0  0  0
 16 17  1  6  0  0  0
 16 18  1  0  0  0  0
 18 19  1  1  0  0  0
 18 20  1  0  0  0  0
 20 21  1  0  0  0  0
 20 22  1  6  0  0  0
 13 21  1  0  0  0  0
 13  6  1  1  0  0  0
 23 24  1  0  0  0  0
 24 25  2  0  0  0  0
 25 26  1  0  0  0  0
 26 27  1  0  0  0  0
 27 28  2  0  0  0  0
 28 29  1  0  0  0  0
 29 30  2  0  0  0  0
 30 31  1  0  0  0  0
 26 31  2  0  0  0  0
 23 32  2  0  0  0  0
 29 33  1  0  0  0  0
 28 34  1  0  0  0  0
  8 23  1  0  0  0  0
M  END
>  <cdx:fragmentId>
5

$$$$
