94815.cdx
  Mrv1902 05222410222D          

 30 33  0  0  0  0            999 V2000
    4.4943   -8.6900    0.0000 C   0  0  0  0  0  0  0  0  0  0  0  0
    4.4943   -9.5150    0.0000 C   0  0  0  0  0  0  0  0  0  0  0  0
    5.2088   -9.9275    0.0000 C   0  0  0  0  0  0  0  0  0  0  0  0
    5.9232   -9.5150    0.0000 C   0  0  0  0  0  0  0  0  0  0  0  0
    5.9232   -8.6900    0.0000 C   0  0  0  0  0  0  0  0  0  0  0  0
    5.2088   -8.2775    0.0000 C   0  0  0  0  0  0  0  0  0  0  0  0
    6.6377   -8.2775    0.0000 C   0  0  2  0  0  0  0  0  0  0  0  0
    3.7798   -9.9275    0.0000 O   0  0  0  0  0  0  0  0  0  0  0  0
    5.2088  -10.7525    0.0000 O   0  0  0  0  0  0  0  0  0  0  0  0
    4.4943  -11.1650    0.0000 C   0  0  0  0  0  0  0  0  0  0  0  0
    7.3522   -8.6900    0.0000 C   0  0  2  0  0  0  0  0  0  0  0  0
    8.0667   -8.2775    0.0000 O   0  0  0  0  0  0  0  0  0  0  0  0
    8.0667   -7.4525    0.0000 C   0  0  0  0  0  0  0  0  0  0  0  0
    7.3522   -7.0400    0.0000 C   0  0  0  0  0  0  0  0  0  0  0  0
    6.6377   -7.4525    0.0000 O   0  0  0  0  0  0  0  0  0  0  0  0
    8.7811   -7.0400    0.0000 C   0  0  0  0  0  0  0  0  0  0  0  0
    8.7811   -6.2150    0.0000 C   0  0  0  0  0  0  0  0  0  0  0  0
    8.0667   -5.8025    0.0000 C   0  0  0  0  0  0  0  0  0  0  0  0
    7.3522   -6.2150    0.0000 C   0  0  0  0  0  0  0  0  0  0  0  0
    9.4956   -7.4525    0.0000 O   0  0  0  0  0  0  0  0  0  0  0  0
   10.2101   -7.0400    0.0000 C   0  0  0  0  0  0  0  0  0  0  0  0
   10.2101   -6.2150    0.0000 C   0  0  0  0  0  0  0  0  0  0  0  0
    9.4956   -5.8025    0.0000 C   0  0  0  0  0  0  0  0  0  0  0  0
    6.6377   -5.8025    0.0000 O   0  0  0  0  0  0  0  0  0  0  0  0
   10.9245   -7.4525    0.0000 O   0  0  0  0  0  0  0  0  0  0  0  0
    7.3522   -9.5150    0.0000 O   0  0  0  0  0  0  0  0  0  0  0  0
    8.0667   -9.9275    0.0000 C   0  0  0  0  0  0  0  0  0  0  0  0
    5.9232   -6.2150    0.0000 C   0  0  0  0  0  0  0  0  0  0  0  0
    8.0667  -10.7525    0.0000 C   0  0  0  0  0  0  0  0  0  0  0  0
    8.7811   -9.5150    0.0000 O   0  0  0  0  0  0  0  0  0  0  0  0
  1  2  2  0  0  0  0
  2  3  1  0  0  0  0
  3  4  2  0  0  0  0
  4  5  1  0  0  0  0
  5  6  2  0  0  0  0
  6  1  1  0  0  0  0
  7  5  1  1  0  0  0
  2  8  1  0  0  0  0
  3  9  1  0  0  0  0
  9 10  1  0  0  0  0
  7 11  1  0  0  0  0
 11 12  1  0  0  0  0
 12 13  1  0  0  0  0
 13 14  2  0  0  0  0
 14 15  1  0  0  0  0
 15  7  1  0  0  0  0
 13 16  1  0  0  0  0
 16 17  2  0  0  0  0
 17 18  1  0  0  0  0
 18 19  2  0  0  0  0
 19 14  1  0  0  0  0
 16 20  1  0  0  0  0
 20 21  1  0  0  0  0
 21 22  1  0  0  0  0
 22 23  2  0  0  0  0
 23 17  1  0  0  0  0
 19 24  1  0  0  0  0
 21 25  2  0  0  0  0
 11 26  1  6  0  0  0
 26 27  1  0  0  0  0
 24 28  1  0  0  0  0
 27 29  1  0  0  0  0
 27 30  2  0  0  0  0
M  END
>  <cdx:fragmentId>
5

$$$$
