94816.cdx
  Mrv1902 05222410232D          

 45 48  0  0  0  0            999 V2000
   13.4138   -4.0772    0.0000 O   0  0  0  0  0  0  0  0  0  0  0  0
   13.4141   -5.7272    0.0000 O   0  0  0  0  0  0  0  0  0  0  0  0
   11.2706   -5.3151    0.0000 C   0  0  0  0  0  0  0  0  0  0  0  0
   11.9852   -5.7275    0.0000 C   0  0  0  0  0  0  0  0  0  0  0  0
   12.6996   -5.3148    0.0000 C   0  0  0  0  0  0  0  0  0  0  0  0
   12.6994   -4.4898    0.0000 C   0  0  0  0  0  0  0  0  0  0  0  0
   11.9849   -4.0775    0.0000 C   0  0  0  0  0  0  0  0  0  0  0  0
   11.2705   -4.4901    0.0000 C   0  0  0  0  0  0  0  0  0  0  0  0
   10.5560   -4.0777    0.0000 C   0  0  0  0  0  0  0  0  0  0  0  0
    9.8416   -4.4903    0.0000 C   0  0  0  0  0  0  0  0  0  0  0  0
    9.1270   -4.0779    0.0000 O   0  0  0  0  0  0  0  0  0  0  0  0
    9.1273   -5.7279    0.0000 O   0  0  0  0  0  0  0  0  0  0  0  0
    6.2690   -3.2534    0.0000 O   0  0  0  0  0  0  0  0  0  0  0  0
    6.2691   -4.0784    0.0000 C   0  0  0  0  0  0  0  0  0  0  0  0
    7.6988   -8.2032    0.0000 O   0  0  0  0  0  0  0  0  0  0  0  0
    6.2700   -9.0284    0.0000 O   0  0  0  0  0  0  0  0  0  0  0  0
    4.8409   -8.2037    0.0000 O   0  0  0  0  0  0  0  0  0  0  0  0
    4.8406   -6.5537    0.0000 C   0  0  0  0  0  0  0  0  0  0  0  0
    5.5551   -6.9660    0.0000 C   0  0  1  0  0  0  0  0  0  0  0  0
    5.5553   -7.7910    0.0000 C   0  0  1  0  0  0  0  0  0  0  0  0
    6.2698   -8.2034    0.0000 C   0  0  2  0  0  0  0  0  0  0  0  0
    6.9842   -7.7908    0.0000 C   0  0  2  0  0  0  0  0  0  0  0  0
    6.9841   -6.9658    0.0000 C   0  0  1  0  0  0  0  0  0  0  0  0
    6.2695   -6.5534    0.0000 O   0  0  0  0  0  0  0  0  0  0  0  0
    7.6985   -6.5532    0.0000 O   0  0  0  0  0  0  0  0  0  0  0  0
    8.4126   -4.4906    0.0000 C   0  0  1  0  0  0  0  0  0  0  0  0
    8.4128   -5.3156    0.0000 C   0  0  1  0  0  0  0  0  0  0  0  0
    7.6983   -5.7282    0.0000 C   0  0  2  0  0  0  0  0  0  0  0  0
    6.9838   -5.3158    0.0000 C   0  0  1  0  0  0  0  0  0  0  0  0
    6.9837   -4.4908    0.0000 C   0  0  2  0  0  0  0  0  0  0  0  0
    7.6981   -4.0782    0.0000 O   0  0  0  0  0  0  0  0  0  0  0  0
    1.2683   -6.9668    0.0000 O   0  0  0  0  0  0  0  0  0  0  0  0
    0.5536   -5.7294    0.0000 C   0  0  0  0  0  0  0  0  0  0  0  0
    1.2680   -5.3168    0.0000 O   0  0  0  0  0  0  0  0  0  0  0  0
    3.4117   -6.5539    0.0000 C   0  0  0  0  0  0  0  0  0  0  0  0
    2.6973   -6.9665    0.0000 C   0  0  0  0  0  0  0  0  0  0  0  0
    1.9827   -6.5541    0.0000 C   0  0  0  0  0  0  0  0  0  0  0  0
    1.9826   -5.7291    0.0000 C   0  0  0  0  0  0  0  0  0  0  0  0
    2.6970   -5.3165    0.0000 C   0  0  0  0  0  0  0  0  0  0  0  0
    3.4115   -5.7289    0.0000 C   0  0  0  0  0  0  0  0  0  0  0  0
    6.2694   -5.7284    0.0000 O   0  0  0  0  0  0  0  0  0  0  0  0
    5.5547   -4.4910    0.0000 O   0  0  0  0  0  0  0  0  0  0  0  0
    4.1259   -5.3163    0.0000 C   0  0  0  0  0  0  0  0  0  0  0  0
    4.8405   -5.7287    0.0000 C   0  0  0  0  0  0  0  0  0  0  0  0
    5.5549   -5.3160    0.0000 C   0  0  0  0  0  0  0  0  0  0  0  0
 29 41  1  6  0  0  0
 26 11  1  1  0  0  0
  9  8  1  0  0  0  0
  6  1  1  0  0  0  0
  5  2  1  0  0  0  0
  8  3  2  0  0  0  0
  4  3  1  0  0  0  0
  5  4  2  0  0  0  0
  6  5  1  0  0  0  0
  7  6  2  0  0  0  0
  8  7  1  0  0  0  0
 11 10  1  0  0  0  0
 10  9  1  0  0  0  0
 27 12  1  6  0  0  0
 30 14  1  1  0  0  0
 14 13  1  0  0  0  0
 28 25  1  1  0  0  0
 23 25  1  1  0  0  0
 22 15  1  6  0  0  0
 21 16  1  6  0  0  0
 20 17  1  1  0  0  0
 19 18  1  6  0  0  0
 24 19  1  0  0  0  0
 20 19  1  0  0  0  0
 21 20  1  0  0  0  0
 22 21  1  0  0  0  0
 23 22  1  0  0  0  0
 24 23  1  0  0  0  0
 31 26  1  0  0  0  0
 27 26  1  0  0  0  0
 28 27  1  0  0  0  0
 29 28  1  0  0  0  0
 30 29  1  0  0  0  0
 31 30  1  0  0  0  0
 43 40  1  0  0  0  0
 37 32  1  0  0  0  0
 38 34  1  0  0  0  0
 34 33  1  0  0  0  0
 40 35  2  0  0  0  0
 36 35  1  0  0  0  0
 37 36  2  0  0  0  0
 38 37  1  0  0  0  0
 39 38  2  0  0  0  0
 40 39  1  0  0  0  0
 45 41  1  0  0  0  0
 45 42  2  0  0  0  0
 44 43  2  0  0  0  0
 45 44  1  0  0  0  0
M  END
>  <cdx:fragmentId>
48169

$$$$
