94810.cdx
  Mrv1902 05222410212D          

 20 22  0  0  0  0            999 V2000
    5.4614   -9.7788    0.0000 O   0  0  0  0  0  0  0  0  0  0  0  0
    7.6104   -6.8955    0.0000 O   0  0  0  0  0  0  0  0  0  0  0  0
    4.7493   -8.5400    0.0000 C   0  0  0  0  0  0  0  0  0  0  0  0
    5.4646   -8.1288    0.0000 O   0  0  0  0  0  0  0  0  0  0  0  0
    6.1815   -6.8927    0.0000 C   0  0  0  0  0  0  0  0  0  0  0  0
    6.8951   -7.3066    0.0000 O   0  0  0  0  0  0  0  0  0  0  0  0
    7.6056   -9.3705    0.0000 C   0  0  0  0  0  0  0  0  0  0  0  0
    8.3193   -9.7844    0.0000 C   0  0  0  0  0  0  0  0  0  0  0  0
    9.0345   -9.3733    0.0000 C   0  0  0  0  0  0  0  0  0  0  0  0
    9.0362   -8.5483    0.0000 C   0  0  0  0  0  0  0  0  0  0  0  0
    9.7514   -8.1372    0.0000 C   0  0  0  0  0  0  0  0  0  0  0  0
    9.7530   -7.3122    0.0000 C   0  0  0  0  0  0  0  0  0  0  0  0
    9.0394   -6.8983    0.0000 C   0  0  0  0  0  0  0  0  0  0  0  0
    8.3241   -7.3094    0.0000 C   0  0  0  0  0  0  0  0  0  0  0  0
    8.3225   -8.1344    0.0000 C   0  0  0  0  0  0  0  0  0  0  0  0
    7.6072   -8.5455    0.0000 C   0  0  0  0  0  0  0  0  0  0  0  0
    6.8935   -8.1316    0.0000 C   0  0  0  0  0  0  0  0  0  0  0  0
    6.1783   -8.5427    0.0000 C   0  0  0  0  0  0  0  0  0  0  0  0
    6.1767   -9.3677    0.0000 C   0  0  0  0  0  0  0  0  0  0  0  0
    6.8903   -9.7816    0.0000 C   0  0  0  0  0  0  0  0  0  0  0  0
 19  1  1  0  0  0  0
 14  2  1  0  0  0  0
 18  4  1  0  0  0  0
  4  3  1  0  0  0  0
 17  6  1  0  0  0  0
  6  5  1  0  0  0  0
 16  7  1  0  0  0  0
 20  7  2  0  0  0  0
  8  7  1  0  0  0  0
  9  8  2  0  0  0  0
 10  9  1  0  0  0  0
 15 10  1  0  0  0  0
 11 10  2  0  0  0  0
 12 11  1  0  0  0  0
 13 12  2  0  0  0  0
 14 13  1  0  0  0  0
 15 14  2  0  0  0  0
 16 15  1  0  0  0  0
 17 16  2  0  0  0  0
 18 17  1  0  0  0  0
 19 18  2  0  0  0  0
 20 19  1  0  0  0  0
M  END
>  <cdx:fragmentId>
5

$$$$
