94811.cdx
  Mrv1902 05222410212D          

 41 45  0  0  0  0            999 V2000
    7.1956   -9.7022    0.0000 C   0  0  0  0  0  0  0  0  0  0  0  0
    7.1956  -10.5272    0.0000 C   0  0  0  0  0  0  0  0  0  0  0  0
    6.4812  -10.9397    0.0000 C   0  0  0  0  0  0  0  0  0  0  0  0
    6.4812  -11.7647    0.0000 O   0  0  0  0  0  0  0  0  0  0  0  0
    5.7667  -10.5272    0.0000 C   0  0  0  0  0  0  0  0  0  0  0  0
    5.0522  -10.9397    0.0000 C   0  0  0  0  0  0  0  0  0  0  0  0
    4.3378  -10.5272    0.0000 C   0  0  0  0  0  0  0  0  0  0  0  0
    4.3378   -9.7022    0.0000 C   0  0  0  0  0  0  0  0  0  0  0  0
    3.6233   -9.2897    0.0000 O   0  0  0  0  0  0  0  0  0  0  0  0
    5.0522   -9.2897    0.0000 C   0  0  0  0  0  0  0  0  0  0  0  0
    5.7667   -9.7022    0.0000 C   0  0  0  0  0  0  0  0  0  0  0  0
    6.4812   -9.2897    0.0000 O   0  0  0  0  0  0  0  0  0  0  0  0
    7.9101  -10.9397    0.0000 C   0  0  0  0  0  0  0  0  0  0  0  0
    8.6246  -10.5272    0.0000 C   0  0  0  0  0  0  0  0  0  0  0  0
    9.3391  -10.9397    0.0000 C   0  0  0  0  0  0  0  0  0  0  0  0
    9.3391  -11.7647    0.0000 C   0  0  0  0  0  0  0  0  0  0  0  0
   10.0535  -12.1772    0.0000 O   0  0  0  0  0  0  0  0  0  0  0  0
    8.6246  -12.1772    0.0000 C   0  0  0  0  0  0  0  0  0  0  0  0
    7.9101  -11.7647    0.0000 C   0  0  0  0  0  0  0  0  0  0  0  0
    5.0522   -8.4647    0.0000 C   0  0  1  0  0  0  0  0  0  0  0  0
    4.3378   -8.0522    0.0000 C   0  0  2  0  0  0  0  0  0  0  0  0
    3.6233   -8.4647    0.0000 O   0  0  0  0  0  0  0  0  0  0  0  0
    4.3378   -7.2272    0.0000 C   0  0  1  0  0  0  0  0  0  0  0  0
    3.6233   -6.8147    0.0000 O   0  0  0  0  0  0  0  0  0  0  0  0
    5.0522   -6.8147    0.0000 C   0  0  2  0  0  0  0  0  0  0  0  0
    5.0522   -5.9897    0.0000 O   0  0  0  0  0  0  0  0  0  0  0  0
    5.7667   -7.2272    0.0000 C   0  0  2  0  0  0  0  0  0  0  0  0
    5.7667   -8.0522    0.0000 O   0  0  0  0  0  0  0  0  0  0  0  0
    6.4812   -6.8147    0.0000 C   0  0  0  0  0  0  0  0  0  0  0  0
    7.1956   -7.2272    0.0000 O   0  0  0  0  0  0  0  0  0  0  0  0
    7.9101   -6.8147    0.0000 C   0  0  2  0  0  0  0  0  0  0  0  0
    7.9101   -5.9897    0.0000 C   0  0  2  0  0  0  0  0  0  0  0  0
    7.1956   -5.5772    0.0000 O   0  0  0  0  0  0  0  0  0  0  0  0
    8.6246   -5.5772    0.0000 C   0  0  1  0  0  0  0  0  0  0  0  0
    8.6246   -4.7522    0.0000 O   0  0  0  0  0  0  0  0  0  0  0  0
    9.3391   -5.9897    0.0000 C   0  0  2  0  0  0  0  0  0  0  0  0
   10.0535   -5.5772    0.0000 O   0  0  0  0  0  0  0  0  0  0  0  0
    9.3391   -6.8147    0.0000 C   0  0  2  0  0  0  0  0  0  0  0  0
    8.6246   -7.2272    0.0000 O   0  0  0  0  0  0  0  0  0  0  0  0
   10.0535   -7.2272    0.0000 C   0  0  0  0  0  0  0  0  0  0  0  0
   10.7680   -6.8147    0.0000 O   0  0  0  0  0  0  0  0  0  0  0  0
  1  2  2  0  0  0  0
  2  3  1  0  0  0  0
  3  4  2  0  0  0  0
  3  5  1  0  0  0  0
  5  6  1  0  0  0  0
  6  7  2  0  0  0  0
  7  8  1  0  0  0  0
  8  9  1  0  0  0  0
  8 10  2  0  0  0  0
 10 11  1  0  0  0  0
  5 11  2  0  0  0  0
 11 12  1  0  0  0  0
  1 12  1  0  0  0  0
  2 13  1  0  0  0  0
 13 14  1  0  0  0  0
 14 15  2  0  0  0  0
 15 16  1  0  0  0  0
 16 17  1  0  0  0  0
 16 18  2  0  0  0  0
 18 19  1  0  0  0  0
 13 19  2  0  0  0  0
 20 21  1  0  0  0  0
 21 22  1  6  0  0  0
 21 23  1  0  0  0  0
 23 24  1  1  0  0  0
 23 25  1  0  0  0  0
 25 26  1  6  0  0  0
 25 27  1  0  0  0  0
 27 28  1  0  0  0  0
 27 29  1  1  0  0  0
 29 30  1  0  0  0  0
 20 28  1  0  0  0  0
 31 32  1  0  0  0  0
 32 33  1  6  0  0  0
 32 34  1  0  0  0  0
 34 35  1  1  0  0  0
 34 36  1  0  0  0  0
 36 37  1  6  0  0  0
 36 38  1  0  0  0  0
 38 39  1  0  0  0  0
 38 40  1  1  0  0  0
 40 41  1  0  0  0  0
 31 39  1  0  0  0  0
 31 30  1  6  0  0  0
 20 10  1  1  0  0  0
M  END
>  <cdx:groupId>
129

>  <cdx:fragmentId>
43

$$$$
