94825.cdx
  Mrv1902 05222410242D          

 28 31  0  0  0  0            999 V2000
    6.7559   -9.0318    0.0000 O   0  0  0  0  0  0  0  0  0  0  0  0
    6.0468   -9.4535    0.0000 C   0  0  1  0  0  0  0  0  0  0  0  0
    6.0575  -10.2785    0.0000 C   0  0  2  0  0  0  0  0  0  0  0  0
    6.7773  -10.6816    0.0000 O   0  0  0  0  0  0  0  0  0  0  0  0
    5.3485  -10.7002    0.0000 C   0  0  1  0  0  0  0  0  0  0  0  0
    5.3592  -11.5251    0.0000 O   0  0  0  0  0  0  0  0  0  0  0  0
    4.6287  -10.2970    0.0000 C   0  0  2  0  0  0  0  0  0  0  0  0
    3.9196  -10.7187    0.0000 O   0  0  0  0  0  0  0  0  0  0  0  0
    4.6180   -9.4721    0.0000 C   0  0  2  0  0  0  0  0  0  0  0  0
    5.3270   -9.0503    0.0000 O   0  0  0  0  0  0  0  0  0  0  0  0
    3.8982   -9.0689    0.0000 C   0  0  0  0  0  0  0  0  0  0  0  0
    3.1892   -9.4906    0.0000 O   0  0  0  0  0  0  0  0  0  0  0  0
    5.9933   -5.3289    0.0000 C   0  0  0  0  0  0  0  0  0  0  0  0
    6.7130   -5.7321    0.0000 O   0  0  0  0  0  0  0  0  0  0  0  0
    6.0147   -6.9787    0.0000 C   0  0  0  0  0  0  0  0  0  0  0  0
    6.7237   -6.5570    0.0000 C   0  0  0  0  0  0  0  0  0  0  0  0
    7.4435   -6.9602    0.0000 C   0  0  0  0  0  0  0  0  0  0  0  0
    8.2247   -6.6951    0.0000 O   0  0  0  0  0  0  0  0  0  0  0  0
    8.7183   -7.3562    0.0000 C   0  0  0  0  0  0  0  0  0  0  0  0
    8.2421   -8.0298    0.0000 C   0  0  0  0  0  0  0  0  0  0  0  0
    7.4542   -7.7851    0.0000 C   0  0  0  0  0  0  0  0  0  0  0  0
    6.7452   -8.2069    0.0000 C   0  0  0  0  0  0  0  0  0  0  0  0
    6.0254   -7.8037    0.0000 C   0  0  0  0  0  0  0  0  0  0  0  0
    5.3163   -8.2254    0.0000 C   0  0  0  0  0  0  0  0  0  0  0  0
    4.5966   -7.8222    0.0000 C   0  0  0  0  0  0  0  0  0  0  0  0
    3.8661   -6.5941    0.0000 O   0  0  0  0  0  0  0  0  0  0  0  0
    4.5859   -6.9973    0.0000 C   0  0  0  0  0  0  0  0  0  0  0  0
    5.2949   -6.5755    0.0000 O   0  0  0  0  0  0  0  0  0  0  0  0
 22  1  1  0  0  0  0
 16 14  1  0  0  0  0
 14 13  1  0  0  0  0
 28 15  1  0  0  0  0
 23 15  1  0  0  0  0
 16 15  2  0  0  0  0
 17 16  1  0  0  0  0
 21 17  2  0  0  0  0
 18 17  1  0  0  0  0
 19 18  1  0  0  0  0
 20 19  2  0  0  0  0
 21 20  1  0  0  0  0
 22 21  1  0  0  0  0
 23 22  2  0  0  0  0
 24 23  1  0  0  0  0
 25 24  2  0  0  0  0
 27 25  1  0  0  0  0
 27 26  2  0  0  0  0
 28 27  1  0  0  0  0
  2  1  1  1  0  0  0
  2  3  1  0  0  0  0
  3  4  1  6  0  0  0
  3  5  1  0  0  0  0
  5  6  1  1  0  0  0
  5  7  1  0  0  0  0
  7  8  1  6  0  0  0
  7  9  1  0  0  0  0
  9 10  1  0  0  0  0
  9 11  1  1  0  0  0
 11 12  1  0  0  0  0
  2 10  1  0  0  0  0
M  END
>  <cdx:groupId>
89

>  <cdx:fragmentId>
5

$$$$
