94824.cdx
  Mrv1902 05222410242D          

 21 23  0  0  0  0            999 V2000
    6.1741   -9.2733    0.0000 O   0  0  0  0  0  0  0  0  0  0  0  0
    5.4597   -9.6858    0.0000 C   0  0  0  0  0  0  0  0  0  0  0  0
    4.7452   -9.2733    0.0000 O   0  0  0  0  0  0  0  0  0  0  0  0
    5.4597  -10.5108    0.0000 C   0  0  0  0  0  0  0  0  0  0  0  0
    6.1741  -10.9233    0.0000 C   0  0  0  0  0  0  0  0  0  0  0  0
    6.8886  -10.5108    0.0000 C   0  0  0  0  0  0  0  0  0  0  0  0
    7.6031  -10.9233    0.0000 C   0  0  0  0  0  0  0  0  0  0  0  0
    8.3175  -10.5108    0.0000 C   0  0  0  0  0  0  0  0  0  0  0  0
    9.1022  -10.7658    0.0000 C   0  0  0  0  0  0  0  0  0  0  0  0
    9.5871  -10.0983    0.0000 C   0  0  0  0  0  0  0  0  0  0  0  0
    9.1022   -9.4309    0.0000 O   0  0  0  0  0  0  0  0  0  0  0  0
    8.3175   -9.6858    0.0000 C   0  0  0  0  0  0  0  0  0  0  0  0
    7.6031   -9.2733    0.0000 C   0  0  0  0  0  0  0  0  0  0  0  0
    6.8886   -9.6858    0.0000 C   0  0  0  0  0  0  0  0  0  0  0  0
    7.6031   -8.4483    0.0000 O   0  0  0  0  0  0  0  0  0  0  0  0
    8.3175   -8.0358    0.0000 C   0  0  0  0  0  0  0  0  0  0  0  0
    8.3175   -7.2108    0.0000 C   0  0  0  0  0  0  0  0  0  0  0  0
    9.0320   -6.7983    0.0000 C   0  0  0  0  0  0  0  0  0  0  0  0
    9.0320   -5.9733    0.0000 C   0  0  0  0  0  0  0  0  0  0  0  0
    9.7465   -7.2108    0.0000 C   0  0  0  0  0  0  0  0  0  0  0  0
    7.6031   -6.7983    0.0000 O   0  0  0  0  0  0  0  0  0  0  0  0
  1  2  1  0  0  0  0
  2  3  2  0  0  0  0
  2  4  1  0  0  0  0
  4  5  2  0  0  0  0
  5  6  1  0  0  0  0
  6  7  2  0  0  0  0
  7  8  1  0  0  0  0
  8  9  1  0  0  0  0
  9 10  2  0  0  0  0
 10 11  1  0  0  0  0
 11 12  1  0  0  0  0
  8 12  2  0  0  0  0
 12 13  1  0  0  0  0
 13 14  2  0  0  0  0
  6 14  1  0  0  0  0
  1 14  1  0  0  0  0
 16 17  1  0  0  0  0
 17 18  1  0  0  0  0
 18 19  2  0  0  0  0
 15 16  1  0  0  0  0
 18 20  1  0  0  0  0
 17 21  1  0  0  0  0
 13 15  1  0  0  0  0
M  END
>  <cdx:groupId>
67

>  <cdx:fragmentId>
5

$$$$
