94827.cdx
  Mrv1902 05222410232D          

 16 17  0  0  0  0            999 V2000
    7.7330   -9.5090    0.0000 C   0  0  0  0  0  0  0  0  0  0  0  0
    7.1328   -9.6593    0.0000 C   0  0  0  0  0  0  0  0  0  0  0  0
    6.5842   -9.3730    0.0000 C   0  0  0  0  0  0  0  0  0  0  0  0
    6.3644   -8.7946    0.0000 C   0  0  0  0  0  0  0  0  0  0  0  0
    6.5842   -8.2162    0.0000 C   0  0  0  0  0  0  0  0  0  0  0  0
    7.1328   -7.9299    0.0000 C   0  0  0  0  0  0  0  0  0  0  0  0
    7.7330   -8.0800    0.0000 C   0  0  1  0  0  0  0  0  0  0  0  0
    8.5580   -8.0800    0.0000 C   0  0  1  0  0  0  0  0  0  0  0  0
    8.9705   -8.7945    0.0000 C   0  0  0  0  0  0  0  0  0  0  0  0
    8.5580   -9.5090    0.0000 C   0  0  0  0  0  0  0  0  0  0  0  0
    7.3205   -8.7945    0.0000 C   0  0  0  0  0  0  0  0  0  0  0  0
    8.9705   -7.3655    0.0000 O   0  0  0  0  0  0  0  0  0  0  0  0
    5.1269   -8.0802    0.0000 C   0  0  0  0  0  0  0  0  0  0  0  0
    5.5394   -8.7946    0.0000 C   0  0  0  0  0  0  0  0  0  0  0  0
    5.1269   -9.5091    0.0000 C   0  0  0  0  0  0  0  0  0  0  0  0
    7.8338   -7.2612    0.0000 C   0  0  0  0  0  0  0  0  0  0  0  0
  1  2  2  0  0  0  0
  2  3  1  0  0  0  0
  3  4  1  0  0  0  0
  4  5  1  0  0  0  0
  5  6  1  0  0  0  0
  6  7  1  0  0  0  0
  7  8  1  0  0  0  0
  8  9  1  0  0  0  0
  9 10  1  0  0  0  0
  1 10  1  0  0  0  0
  1 11  1  0  0  0  0
  7 11  1  6  0  0  0
  8 12  1  6  0  0  0
 13 14  1  0  0  0  0
 14 15  1  0  0  0  0
  4 14  2  0  0  0  0
  7 16  1  0  0  0  0
M  END
>  <cdx:groupId>
51

>  <cdx:fragmentId>
5

$$$$
