94822.cdx
  Mrv1902 05222410252D          

 10  9  0  0  0  0            999 V2000
    8.4751   -8.2585    0.0000 C   0  0  0  0  0  0  0  0  0  0  0  0
    7.7606   -8.6710    0.0000 C   0  0  0  0  0  0  0  0  0  0  0  0
    7.0462   -8.2585    0.0000 C   0  0  0  0  0  0  0  0  0  0  0  0
    6.3317   -8.6710    0.0000 C   0  0  0  0  0  0  0  0  0  0  0  0
    8.4751   -7.4335    0.0000 O   0  0  0  0  0  0  0  0  0  0  0  0
    9.1896   -8.6710    0.0000 O   0  0  0  0  0  0  0  0  0  0  0  0
    6.3317   -9.4960    0.0000 O   0  0  0  0  0  0  0  0  0  0  0  0
    5.6172   -8.2585    0.0000 O   0  0  0  0  0  0  0  0  0  0  0  0
    7.7606   -9.4960    0.0000 O   0  0  0  0  0  0  0  0  0  0  0  0
    4.9028   -8.6710    0.0000 C   0  0  0  0  0  0  0  0  0  0  0  0
  1  2  1  0  0  0  0
  2  3  1  0  0  0  0
  3  4  1  0  0  0  0
  1  5  2  0  0  0  0
  1  6  1  0  0  0  0
  4  7  2  0  0  0  0
  4  8  1  0  0  0  0
  2  9  1  0  0  0  0
  8 10  1  0  0  0  0
M  END
>  <cdx:groupId>
31

>  <cdx:fragmentId>
5

$$$$
