94829.cdx
  Mrv1902 05222410222D          

 17 18  0  0  0  0            999 V2000
    6.5744   -7.1315    0.0000 C   0  0  0  0  0  0  0  0  0  0  0  0
    6.1619   -7.8460    0.0000 C   0  0  0  0  0  0  0  0  0  0  0  0
    6.1619   -8.6710    0.0000 C   0  0  0  0  0  0  0  0  0  0  0  0
    6.8764   -9.0835    0.0000 C   0  0  0  0  0  0  0  0  0  0  0  0
    7.5908   -8.6710    0.0000 C   0  0  0  0  0  0  0  0  0  0  0  0
    8.3053   -9.0835    0.0000 C   0  0  0  0  0  0  0  0  0  0  0  0
    9.1303   -9.0835    0.0000 C   0  0  0  0  0  0  0  0  0  0  0  0
    9.9553   -9.0835    0.0000 C   0  0  0  0  0  0  0  0  0  0  0  0
   10.3678   -8.3690    0.0000 C   0  0  0  0  0  0  0  0  0  0  0  0
    9.5428   -8.3690    0.0000 C   0  0  0  0  0  0  0  0  0  0  0  0
    6.1619   -9.4960    0.0000 C   0  0  0  0  0  0  0  0  0  0  0  0
    8.7178   -9.7980    0.0000 O   0  0  0  0  0  0  0  0  0  0  0  0
    5.7494   -7.1315    0.0000 O   0  0  0  0  0  0  0  0  0  0  0  0
    4.7329   -8.6710    0.0000 C   0  0  0  0  0  0  0  0  0  0  0  0
    4.0185   -9.0835    0.0000 C   0  0  0  0  0  0  0  0  0  0  0  0
    4.7329   -7.8460    0.0000 O   0  0  0  0  0  0  0  0  0  0  0  0
    5.4474   -9.0835    0.0000 O   0  0  0  0  0  0  0  0  0  0  0  0
  1  2  1  0  0  0  0
  2  3  1  0  0  0  0
  3  4  1  0  0  0  0
  4  5  1  0  0  0  0
  5  6  1  0  0  0  0
  6  7  1  0  0  0  0
  7  8  1  0  0  0  0
  8  9  1  0  0  0  0
  7 10  1  0  0  0  0
  3 11  1  0  0  0  0
  6 12  1  0  0  0  0
  7 12  1  0  0  0  0
  1 13  1  0  0  0  0
  2 13  1  0  0  0  0
 14 15  1  0  0  0  0
 14 16  2  0  0  0  0
 14 17  1  0  0  0  0
  3 17  1  0  0  0  0
M  END
>  <cdx:groupId>
54

>  <cdx:fragmentId>
5

$$$$
