94828.cdx
  Mrv1902 05222410222D          

 16 18  0  0  0  0            999 V2000
    6.6272   -6.8638    0.0000 C   0  0  0  0  0  0  0  0  0  0  0  0
    5.9128   -6.4513    0.0000 O   0  0  0  0  0  0  0  0  0  0  0  0
    8.0562   -7.6888    0.0000 C   0  0  0  0  0  0  0  0  0  0  0  0
    7.3417   -8.1013    0.0000 C   0  0  0  0  0  0  0  0  0  0  0  0
    6.6272   -7.6888    0.0000 C   0  0  0  0  0  0  0  0  0  0  0  0
    5.9128   -8.1013    0.0000 C   0  0  0  0  0  0  0  0  0  0  0  0
    5.9128   -8.9263    0.0000 C   0  0  0  0  0  0  0  0  0  0  0  0
    6.6272   -9.3388    0.0000 C   0  0  0  0  0  0  0  0  0  0  0  0
    7.3417   -8.9263    0.0000 C   0  0  0  0  0  0  0  0  0  0  0  0
    8.0562   -9.3388    0.0000 C   0  0  0  0  0  0  0  0  0  0  0  0
    8.7706   -8.9263    0.0000 C   0  0  0  0  0  0  0  0  0  0  0  0
    8.7706   -8.1013    0.0000 C   0  0  0  0  0  0  0  0  0  0  0  0
    7.3417  -10.5763    0.0000 C   0  0  0  0  0  0  0  0  0  0  0  0
    8.0562  -10.1638    0.0000 C   0  0  0  0  0  0  0  0  0  0  0  0
    8.7706  -10.5763    0.0000 C   0  0  0  0  0  0  0  0  0  0  0  0
    8.0562   -6.8638    0.0000 C   0  0  0  0  0  0  0  0  0  0  0  0
  1  2  1  0  0  0  0
  3  4  1  0  0  0  0
  4  5  1  0  0  0  0
  5  6  1  0  0  0  0
  6  7  1  0  0  0  0
  7  8  1  0  0  0  0
  8  9  1  0  0  0  0
  9 10  1  0  0  0  0
 10 11  1  0  0  0  0
 11 12  1  0  0  0  0
  3 12  1  0  0  0  0
  3  8  1  0  0  0  0
  4  9  1  0  0  0  0
 13 14  1  0  0  0  0
 14 15  1  0  0  0  0
 10 14  1  0  0  0  0
  3 16  1  0  0  0  0
  1  5  1  0  0  0  0
M  END
>  <cdx:groupId>
52

>  <cdx:fragmentId>
9

$$$$
