94835.cdx
  Mrv1902 05222410242D          

 16 17  0  0  0  0            999 V2000
    8.1179   -9.4875    0.0000 C   0  0  0  0  0  0  0  0  0  0  0  0
    8.8323   -9.0750    0.0000 C   0  0  0  0  0  0  0  0  0  0  0  0
    8.8323   -8.2500    0.0000 C   0  0  0  0  0  0  0  0  0  0  0  0
    8.1179   -7.8375    0.0000 C   0  0  0  0  0  0  0  0  0  0  0  0
    7.4034   -8.2500    0.0000 C   0  0  0  0  0  0  0  0  0  0  0  0
    6.6889   -7.8375    0.0000 C   0  0  0  0  0  0  0  0  0  0  0  0
    5.9745   -8.2500    0.0000 C   0  0  0  0  0  0  0  0  0  0  0  0
    5.9745   -9.0750    0.0000 C   0  0  0  0  0  0  0  0  0  0  0  0
    6.6889   -9.4875    0.0000 C   0  0  0  0  0  0  0  0  0  0  0  0
    7.4034   -9.0750    0.0000 C   0  0  0  0  0  0  0  0  0  0  0  0
    9.5468   -9.4875    0.0000 O   0  0  0  0  0  0  0  0  0  0  0  0
    5.2600   -7.0125    0.0000 C   0  0  0  0  0  0  0  0  0  0  0  0
    5.2600   -7.8375    0.0000 C   0  0  0  0  0  0  0  0  0  0  0  0
    4.5455   -8.2500    0.0000 C   0  0  0  0  0  0  0  0  0  0  0  0
    7.4034   -9.9000    0.0000 C   0  0  0  0  0  0  0  0  0  0  0  0
    8.1179   -7.0125    0.0000 C   0  0  0  0  0  0  0  0  0  0  0  0
  1  2  1  0  0  0  0
  2  3  1  0  0  0  0
  3  4  1  0  0  0  0
  4  5  1  0  0  0  0
  5  6  1  0  0  0  0
  6  7  1  0  0  0  0
  7  8  1  0  0  0  0
  8  9  1  0  0  0  0
  9 10  1  0  0  0  0
  1 10  1  0  0  0  0
  5 10  1  0  0  0  0
  2 11  1  0  0  0  0
 12 13  2  0  0  0  0
 13 14  1  0  0  0  0
  7 13  1  0  0  0  0
 10 15  1  0  0  0  0
  4 16  1  0  0  0  0
M  END
>  <cdx:groupId>
51

>  <cdx:fragmentId>
5

$$$$
