94833.cdx
  Mrv1902 05222410232D          

 16 17  0  0  0  0            999 V2000
    6.1741   -7.8375    0.0000 C   0  0  0  0  0  0  0  0  0  0  0  0
    5.4597   -8.2500    0.0000 C   0  0  0  0  0  0  0  0  0  0  0  0
    5.4597   -9.0750    0.0000 C   0  0  0  0  0  0  0  0  0  0  0  0
    6.1741   -9.4875    0.0000 C   0  0  0  0  0  0  0  0  0  0  0  0
    6.8886   -9.0750    0.0000 C   0  0  0  0  0  0  0  0  0  0  0  0
    7.6031   -9.4875    0.0000 C   0  0  0  0  0  0  0  0  0  0  0  0
    8.3175   -9.0750    0.0000 C   0  0  0  0  0  0  0  0  0  0  0  0
    8.3175   -8.2500    0.0000 C   0  0  0  0  0  0  0  0  0  0  0  0
    7.6031   -7.8375    0.0000 C   0  0  0  0  0  0  0  0  0  0  0  0
    6.8886   -8.2500    0.0000 C   0  0  0  0  0  0  0  0  0  0  0  0
    4.7452   -7.8375    0.0000 O   0  0  0  0  0  0  0  0  0  0  0  0
    9.0320   -7.0125    0.0000 C   0  0  0  0  0  0  0  0  0  0  0  0
    9.0320   -7.8375    0.0000 C   0  0  0  0  0  0  0  0  0  0  0  0
    9.7465   -8.2500    0.0000 C   0  0  0  0  0  0  0  0  0  0  0  0
    6.8886   -9.9000    0.0000 C   0  0  0  0  0  0  0  0  0  0  0  0
    6.1741   -7.0125    0.0000 C   0  0  0  0  0  0  0  0  0  0  0  0
  1  2  1  0  0  0  0
  2  3  1  0  0  0  0
  3  4  1  0  0  0  0
  4  5  1  0  0  0  0
  5  6  1  0  0  0  0
  6  7  1  0  0  0  0
  7  8  1  0  0  0  0
  8  9  1  0  0  0  0
  9 10  1  0  0  0  0
  1 10  2  0  0  0  0
  5 10  1  0  0  0  0
  2 11  2  0  0  0  0
 12 13  2  0  0  0  0
 13 14  1  0  0  0  0
  8 13  1  0  0  0  0
  5 15  1  0  0  0  0
  1 16  1  0  0  0  0
M  END
>  <cdx:groupId>
51

>  <cdx:fragmentId>
5

$$$$
