948318.cdx
  Mrv1902 05222410202D          

 26 28  0  0  0  0            999 V2000
    7.4022   -6.9247    0.0000 C   0  0  0  0  0  0  0  0  0  0  0  0
    8.1166   -6.5122    0.0000 O   0  0  0  0  0  0  0  0  0  0  0  0
   11.6890   -7.7497    0.0000 C   0  0  0  0  0  0  0  0  0  0  0  0
   10.9745   -8.1622    0.0000 O   0  0  0  0  0  0  0  0  0  0  0  0
    9.5456   -8.1622    0.0000 C   0  0  0  0  0  0  0  0  0  0  0  0
   10.2600   -7.7497    0.0000 C   0  0  0  0  0  0  0  0  0  0  0  0
   10.2600   -6.9247    0.0000 C   0  0  0  0  0  0  0  0  0  0  0  0
    9.5456   -6.5122    0.0000 C   0  0  0  0  0  0  0  0  0  0  0  0
    8.8311   -6.9247    0.0000 C   0  0  0  0  0  0  0  0  0  0  0  0
    8.8311   -7.7497    0.0000 C   0  0  0  0  0  0  0  0  0  0  0  0
    5.9732  -10.2247    0.0000 O   0  0  0  0  0  0  0  0  0  0  0  0
    3.8298   -8.1622    0.0000 C   0  0  0  0  0  0  0  0  0  0  0  0
    4.5443   -7.7497    0.0000 O   0  0  0  0  0  0  0  0  0  0  0  0
    5.2588   -6.5122    0.0000 C   0  0  0  0  0  0  0  0  0  0  0  0
    5.9732   -6.9247    0.0000 O   0  0  0  0  0  0  0  0  0  0  0  0
    7.4022  -10.2247    0.0000 O   0  0  0  0  0  0  0  0  0  0  0  0
    7.4022   -7.7497    0.0000 O   0  0  0  0  0  0  0  0  0  0  0  0
    6.6877   -8.1622    0.0000 C   0  0  0  0  0  0  0  0  0  0  0  0
    5.9732   -7.7497    0.0000 C   0  0  0  0  0  0  0  0  0  0  0  0
    5.2588   -8.1622    0.0000 C   0  0  0  0  0  0  0  0  0  0  0  0
    5.2588   -8.9872    0.0000 C   0  0  0  0  0  0  0  0  0  0  0  0
    5.9732   -9.3997    0.0000 C   0  0  0  0  0  0  0  0  0  0  0  0
    6.6877   -8.9872    0.0000 C   0  0  0  0  0  0  0  0  0  0  0  0
    7.4022   -9.3997    0.0000 C   0  0  0  0  0  0  0  0  0  0  0  0
    8.1166   -8.9872    0.0000 C   0  0  0  0  0  0  0  0  0  0  0  0
    8.1166   -8.1622    0.0000 C   0  0  0  0  0  0  0  0  0  0  0  0
 26 10  1  0  0  0  0
  9  2  1  0  0  0  0
  2  1  1  0  0  0  0
  6  4  1  0  0  0  0
  4  3  1  0  0  0  0
 10  5  2  0  0  0  0
  6  5  1  0  0  0  0
  7  6  2  0  0  0  0
  8  7  1  0  0  0  0
  9  8  2  0  0  0  0
 10  9  1  0  0  0  0
 22 11  1  0  0  0  0
 20 13  1  0  0  0  0
 13 12  1  0  0  0  0
 19 15  1  0  0  0  0
 15 14  1  0  0  0  0
 24 16  2  0  0  0  0
 26 17  1  0  0  0  0
 18 17  1  0  0  0  0
 23 18  2  0  0  0  0
 19 18  1  0  0  0  0
 20 19  2  0  0  0  0
 21 20  1  0  0  0  0
 22 21  2  0  0  0  0
 23 22  1  0  0  0  0
 24 23  1  0  0  0  0
 25 24  1  0  0  0  0
 26 25  2  0  0  0  0
M  END
>  <cdx:fragmentId>
63374

$$$$
