94837.cdx
  Mrv1902 05222410252D          

 25 27  0  0  0  0            999 V2000
    5.5529   -7.3979    0.0000 C   0  0  0  0  0  0  0  0  0  0  0  0
    4.8384   -7.8104    0.0000 C   0  0  0  0  0  0  0  0  0  0  0  0
    4.8384   -8.6354    0.0000 C   0  0  0  0  0  0  0  0  0  0  0  0
    5.5529   -9.0479    0.0000 C   0  0  1  0  0  0  0  0  0  0  0  0
    5.5529   -9.8729    0.0000 C   0  0  0  0  0  0  0  0  0  0  0  0
    4.8384   -9.4604    0.0000 C   0  0  0  0  0  0  0  0  0  0  0  0
    6.2673   -8.6354    0.0000 C   0  0  2  0  0  0  0  0  0  0  0  0
    6.2673   -9.4604    0.0000 H   0  0  0  0  0  0  0  0  0  0  0  0
    6.9818   -9.0479    0.0000 C   0  0  0  0  0  0  0  0  0  0  0  0
    7.6963   -8.6354    0.0000 C   0  0  0  0  0  0  0  0  0  0  0  0
    7.6963   -7.8104    0.0000 C   0  0  0  0  0  0  0  0  0  0  0  0
    8.4107   -7.3979    0.0000 C   0  0  0  0  0  0  0  0  0  0  0  0
    8.4107   -6.5729    0.0000 C   0  0  2  0  0  0  0  0  0  0  0  0
    7.6963   -6.1604    0.0000 C   0  0  0  0  0  0  0  0  0  0  0  0
    6.9818   -6.5729    0.0000 C   0  0  0  0  0  0  0  0  0  0  0  0
    6.9818   -7.3979    0.0000 C   0  0  2  0  0  0  0  0  0  0  0  0
    6.9818   -8.2229    0.0000 H   0  0  0  0  0  0  0  0  0  0  0  0
    6.2673   -7.8104    0.0000 C   0  0  1  0  0  0  0  0  0  0  0  0
    6.2673   -6.9854    0.0000 C   0  0  0  0  0  0  0  0  0  0  0  0
    6.2673  -10.2854    0.0000 O   0  0  0  0  0  0  0  0  0  0  0  0
    4.8384  -10.2854    0.0000 O   0  0  0  0  0  0  0  0  0  0  0  0
    9.2357   -6.5729    0.0000 C   0  0  0  0  0  0  0  0  0  0  0  0
    9.6482   -5.8585    0.0000 C   0  0  0  0  0  0  0  0  0  0  0  0
    8.8232   -5.8585    0.0000 C   0  0  0  0  0  0  0  0  0  0  0  0
    4.8384  -11.1104    0.0000 C   0  0  0  0  0  0  0  0  0  0  0  0
  1  2  1  0  0  0  0
  2  3  1  0  0  0  0
  3  4  1  0  0  0  0
  4  5  1  0  0  0  0
  4  6  1  6  0  0  0
  4  7  1  0  0  0  0
  7  8  1  6  0  0  0
  7  9  1  0  0  0  0
  9 10  1  0  0  0  0
 10 11  2  0  0  0  0
 11 12  1  0  0  0  0
 12 13  1  0  0  0  0
 13 14  1  0  0  0  0
 14 15  1  0  0  0  0
 15 16  1  0  0  0  0
 16 17  1  6  0  0  0
 11 16  1  0  0  0  0
 16 18  1  0  0  0  0
 18 19  1  1  0  0  0
  1 18  1  0  0  0  0
  7 18  1  0  0  0  0
  5 20  2  0  0  0  0
  5 21  1  0  0  0  0
 22 23  2  0  0  0  0
 13 22  1  6  0  0  0
 13 24  1  1  0  0  0
 21 25  1  0  0  0  0
M  END
>  <cdx:groupId>
79

>  <cdx:fragmentId>
5

$$$$
