94839.cdx
  Mrv1902 05222410212D          

 25 27  0  0  0  0            999 V2000
    7.3451   -6.8638    0.0000 C   0  0  0  0  0  0  0  0  0  0  0  0
    7.3451   -7.6888    0.0000 C   0  0  2  0  0  0  0  0  0  0  0  0
    6.6307   -8.1013    0.0000 C   0  0  0  0  0  0  0  0  0  0  0  0
    5.9162   -7.6888    0.0000 C   0  0  0  0  0  0  0  0  0  0  0  0
    5.2017   -8.1013    0.0000 C   0  0  0  0  0  0  0  0  0  0  0  0
    4.4873   -7.6888    0.0000 C   0  0  0  0  0  0  0  0  0  0  0  0
    4.4873   -6.8638    0.0000 C   0  0  0  0  0  0  0  0  0  0  0  0
    5.2017   -6.4513    0.0000 C   0  0  0  0  0  0  0  0  0  0  0  0
    5.9162   -6.8638    0.0000 C   0  0  0  0  0  0  0  0  0  0  0  0
    6.6307   -6.4513    0.0000 O   0  0  0  0  0  0  0  0  0  0  0  0
    3.7728   -6.4513    0.0000 O   0  0  0  0  0  0  0  0  0  0  0  0
    8.0596   -8.1013    0.0000 C   0  0  0  0  0  0  0  0  0  0  0  0
    8.0596   -8.9263    0.0000 C   0  0  0  0  0  0  0  0  0  0  0  0
    8.7741   -9.3388    0.0000 C   0  0  0  0  0  0  0  0  0  0  0  0
    9.4885   -8.9263    0.0000 C   0  0  0  0  0  0  0  0  0  0  0  0
    9.4885   -8.1013    0.0000 C   0  0  0  0  0  0  0  0  0  0  0  0
    8.7741   -7.6888    0.0000 C   0  0  0  0  0  0  0  0  0  0  0  0
   10.2030   -9.3388    0.0000 O   0  0  0  0  0  0  0  0  0  0  0  0
   10.9175   -8.9263    0.0000 C   0  0  0  0  0  0  0  0  0  0  0  0
    8.7741  -10.1638    0.0000 O   0  0  0  0  0  0  0  0  0  0  0  0
    9.4885  -10.5763    0.0000 C   0  0  0  0  0  0  0  0  0  0  0  0
    7.3451   -9.3388    0.0000 O   0  0  0  0  0  0  0  0  0  0  0  0
    6.6307   -8.9263    0.0000 C   0  0  0  0  0  0  0  0  0  0  0  0
   10.2030   -7.6888    0.0000 O   0  0  0  0  0  0  0  0  0  0  0  0
    7.9285   -7.1054    0.0000 H   0  0  0  0  0  0  0  0  0  0  0  0
  1  2  1  0  0  0  0
  2  3  1  0  0  0  0
  3  4  1  0  0  0  0
  4  5  1  0  0  0  0
  5  6  2  0  0  0  0
  6  7  1  0  0  0  0
  7  8  2  0  0  0  0
  8  9  1  0  0  0  0
  4  9  2  0  0  0  0
  9 10  1  0  0  0  0
  1 10  1  0  0  0  0
  7 11  1  0  0  0  0
 12 13  1  0  0  0  0
 13 14  2  0  0  0  0
 14 15  1  0  0  0  0
 15 16  2  0  0  0  0
 16 17  1  0  0  0  0
 12 17  2  0  0  0  0
 18 19  1  0  0  0  0
 15 18  1  0  0  0  0
 20 21  1  0  0  0  0
 14 20  1  0  0  0  0
 22 23  1  0  0  0  0
 13 22  1  0  0  0  0
 16 24  1  0  0  0  0
  2 12  1  0  0  0  0
  2 25  1  6  0  0  0
M  END
>  <cdx:fragmentId>
27

$$$$
