94836.cdx
  Mrv1902 05222410252D          

 14 13  0  0  0  0            999 V2000
    8.2674   -8.3135    0.0000 C   0  0  0  0  0  0  0  0  0  0  0  0
    7.5529   -8.7260    0.0000 C   0  0  0  0  0  0  0  0  0  0  0  0
    6.8384   -8.3135    0.0000 C   0  0  0  0  0  0  0  0  0  0  0  0
    6.1239   -8.7260    0.0000 C   0  0  0  0  0  0  0  0  0  0  0  0
    5.4095   -8.3135    0.0000 C   0  0  0  0  0  0  0  0  0  0  0  0
    4.6950   -8.7260    0.0000 C   0  0  0  0  0  0  0  0  0  0  0  0
    4.6950   -9.5510    0.0000 C   0  0  0  0  0  0  0  0  0  0  0  0
    8.2674   -7.4885    0.0000 O   0  0  0  0  0  0  0  0  0  0  0  0
    8.9818   -8.7260    0.0000 O   0  0  0  0  0  0  0  0  0  0  0  0
    3.9805   -8.3135    0.0000 C   0  0  0  0  0  0  0  0  0  0  0  0
    6.4259   -7.5990    0.0000 C   0  0  0  0  0  0  0  0  0  0  0  0
    7.2509   -7.5990    0.0000 C   0  0  0  0  0  0  0  0  0  0  0  0
    9.6963   -8.3135    0.0000 C   0  0  0  0  0  0  0  0  0  0  0  0
   10.4108   -8.7260    0.0000 C   0  0  0  0  0  0  0  0  0  0  0  0
  1  2  1  0  0  0  0
  2  3  1  0  0  0  0
  3  4  1  0  0  0  0
  4  5  2  0  0  0  0
  5  6  1  0  0  0  0
  6  7  2  0  0  0  0
  1  8  2  0  0  0  0
  1  9  1  0  0  0  0
  6 10  1  0  0  0  0
  3 11  1  0  0  0  0
  3 12  1  0  0  0  0
 13 14  1  0  0  0  0
  9 13  1  0  0  0  0
M  END
>  <cdx:fragmentId>
5

$$$$
