94831.cdx
  Mrv1902 05222410242D          

 11 13  0  0  0  0            999 V2000
    8.2483   -9.1237    0.0000 C   0  0  0  0  0  0  0  0  0  0  0  0
    8.7332   -8.4563    0.0000 C   0  0  0  0  0  0  0  0  0  0  0  0
    8.2483   -7.7888    0.0000 C   0  0  0  0  0  0  0  0  0  0  0  0
    7.4637   -8.0437    0.0000 C   0  0  0  0  0  0  0  0  0  0  0  0
    6.8186   -7.5294    0.0000 C   0  0  0  0  0  0  0  0  0  0  0  0
    6.0143   -7.7130    0.0000 C   0  0  0  0  0  0  0  0  0  0  0  0
    5.6564   -8.4563    0.0000 C   0  0  0  0  0  0  0  0  0  0  0  0
    6.0143   -9.1995    0.0000 C   0  0  0  0  0  0  0  0  0  0  0  0
    6.8186   -9.3831    0.0000 C   0  0  0  0  0  0  0  0  0  0  0  0
    7.4637   -8.8688    0.0000 C   0  0  0  0  0  0  0  0  0  0  0  0
    6.4049   -8.2043    0.0000 C   0  0  0  0  0  0  0  0  0  0  0  0
  1  2  1  0  0  0  0
  2  3  1  0  0  0  0
  3  4  1  0  0  0  0
  4  5  1  0  0  0  0
  5  6  1  0  0  0  0
  6  7  1  0  0  0  0
  7  8  1  0  0  0  0
  8  9  1  0  0  0  0
  9 10  1  0  0  0  0
  1 10  2  0  0  0  0
  4 10  1  0  0  0  0
  4 11  1  0  0  0  0
  8 11  1  0  0  0  0
M  END
>  <cdx:groupId>
37

>  <cdx:fragmentId>
5

$$$$
