94838.cdx
  Mrv1902 05222410212D          

 16 17  0  0  0  0            999 V2000
    6.9943   -6.9732    0.0000 N   0  0  0  0  0  0  0  0  0  0  0  0
    7.8193   -6.9732    0.0000 C   0  0  0  0  0  0  0  0  0  0  0  0
    8.0743   -7.7579    0.0000 C   0  0  0  0  0  0  0  0  0  0  0  0
    7.4068   -8.2428    0.0000 C   0  0  0  0  0  0  0  0  0  0  0  0
    6.7394   -7.7579    0.0000 C   0  0  0  0  0  0  0  0  0  0  0  0
    8.3043   -6.3058    0.0000 O   0  0  0  0  0  0  0  0  0  0  0  0
    8.1213   -9.4803    0.0000 C   0  0  0  0  0  0  0  0  0  0  0  0
    7.4068   -9.0678    0.0000 C   0  0  0  0  0  0  0  0  0  0  0  0
    8.1213  -10.3053    0.0000 O   0  0  0  0  0  0  0  0  0  0  0  0
    8.8358   -9.0678    0.0000 O   0  0  0  0  0  0  0  0  0  0  0  0
    6.6924   -9.4803    0.0000 C   0  0  0  0  0  0  0  0  0  0  0  0
    6.6924  -10.3053    0.0000 C   0  0  0  0  0  0  0  0  0  0  0  0
    5.9779  -10.7178    0.0000 C   0  0  0  0  0  0  0  0  0  0  0  0
    5.2634  -10.3053    0.0000 C   0  0  0  0  0  0  0  0  0  0  0  0
    5.2634   -9.4803    0.0000 C   0  0  0  0  0  0  0  0  0  0  0  0
    5.9779   -9.0678    0.0000 C   0  0  0  0  0  0  0  0  0  0  0  0
  1  2  1  0  0  0  0
  2  3  1  0  0  0  0
  3  4  1  0  0  0  0
  4  5  1  0  0  0  0
  1  5  1  0  0  0  0
  2  6  2  0  0  0  0
  7  8  1  0  0  0  0
  7  9  2  0  0  0  0
  7 10  1  0  0  0  0
 11 12  1  0  0  0  0
 12 13  2  0  0  0  0
 13 14  1  0  0  0  0
 14 15  2  0  0  0  0
 15 16  1  0  0  0  0
 11 16  2  0  0  0  0
  8 11  1  0  0  0  0
  4  8  1  0  0  0  0
M  END
>  <cdx:groupId>
51

>  <cdx:fragmentId>
25

$$$$
