94834.cdx
  Mrv1902 05222410252D          

 15 16  0  0  0  0            999 V2000
    5.6674   -9.6387    0.0000 C   0  0  0  0  0  0  0  0  0  0  0  0
    4.9529   -9.2263    0.0000 C   0  0  0  0  0  0  0  0  0  0  0  0
    4.9529   -8.4012    0.0000 C   0  0  0  0  0  0  0  0  0  0  0  0
    5.6674   -7.9887    0.0000 C   0  0  0  0  0  0  0  0  0  0  0  0
    6.3819   -8.4012    0.0000 C   0  0  0  0  0  0  0  0  0  0  0  0
    7.0964   -7.9887    0.0000 C   0  0  0  0  0  0  0  0  0  0  0  0
    7.8108   -8.4013    0.0000 C   0  0  0  0  0  0  0  0  0  0  0  0
    7.8108   -9.2263    0.0000 C   0  0  0  0  0  0  0  0  0  0  0  0
    7.0964   -9.6387    0.0000 C   0  0  0  0  0  0  0  0  0  0  0  0
    6.3819   -9.2262    0.0000 C   0  0  0  0  0  0  0  0  0  0  0  0
    4.2385   -9.6387    0.0000 O   0  0  0  0  0  0  0  0  0  0  0  0
    9.2398   -8.4013    0.0000 C   0  0  0  0  0  0  0  0  0  0  0  0
    8.5253   -7.9888    0.0000 C   0  0  0  0  0  0  0  0  0  0  0  0
    8.5253   -7.1638    0.0000 C   0  0  0  0  0  0  0  0  0  0  0  0
    9.9542   -7.9888    0.0000 O   0  0  0  0  0  0  0  0  0  0  0  0
  1  2  1  0  0  0  0
  2  3  1  0  0  0  0
  3  4  2  0  0  0  0
  4  5  1  0  0  0  0
  5  6  1  0  0  0  0
  6  7  1  0  0  0  0
  7  8  1  0  0  0  0
  8  9  1  0  0  0  0
  9 10  1  0  0  0  0
  1 10  1  0  0  0  0
  5 10  1  0  0  0  0
  2 11  2  0  0  0  0
 12 13  1  0  0  0  0
 13 14  1  0  0  0  0
 12 15  1  0  0  0  0
  7 13  1  0  0  0  0
M  END
>  <cdx:groupId>
48

>  <cdx:fragmentId>
5

$$$$
