94830.cdx
  Mrv1902 05222410242D          

 44 48  0  0  0  0            999 V2000
    9.1239   -8.7291    0.0000 C   0  0  0  0  0  0  0  0  0  0  0  0
    9.8384   -8.3166    0.0000 C   0  0  0  0  0  0  0  0  0  0  0  0
   10.5529   -8.7291    0.0000 C   0  0  0  0  0  0  0  0  0  0  0  0
   10.5529   -9.5541    0.0000 C   0  0  0  0  0  0  0  0  0  0  0  0
    9.1239   -9.5541    0.0000 O   0  0  0  0  0  0  0  0  0  0  0  0
    8.4095   -8.3166    0.0000 O   0  0  0  0  0  0  0  0  0  0  0  0
   11.2673   -8.3166    0.0000 C   0  0  0  0  0  0  0  0  0  0  0  0
    6.9805   -8.3166    0.0000 C   0  0  0  0  0  0  0  0  0  0  0  0
    7.6950   -8.7291    0.0000 C   0  0  0  0  0  0  0  0  0  0  0  0
    7.6950   -9.5541    0.0000 C   0  0  0  0  0  0  0  0  0  0  0  0
    6.9805   -9.9666    0.0000 C   0  0  0  0  0  0  0  0  0  0  0  0
    6.2660   -9.5541    0.0000 C   0  0  0  0  0  0  0  0  0  0  0  0
    6.2660   -8.7291    0.0000 C   0  0  0  0  0  0  0  0  0  0  0  0
    6.6449   -9.1420    0.0000 C   0  0  0  0  0  0  0  0  0  0  0  0
    6.0129   -9.6723    0.0000 C   0  0  0  0  0  0  0  0  0  0  0  0
    6.1562  -10.4848    0.0000 C   0  0  0  0  0  0  0  0  0  0  0  0
    5.5242  -11.0151    0.0000 C   0  0  0  0  0  0  0  0  0  0  0  0
    4.7490  -10.7329    0.0000 C   0  0  0  0  0  0  0  0  0  0  0  0
    4.6057   -9.9204    0.0000 C   0  0  0  0  0  0  0  0  0  0  0  0
    5.2377   -9.3901    0.0000 C   0  0  0  0  0  0  0  0  0  0  0  0
    7.5634  -10.2366    0.0000 C   0  0  0  0  0  0  0  0  0  0  0  0
    6.9314  -10.7669    0.0000 C   0  0  0  0  0  0  0  0  0  0  0  0
    7.0747  -11.5794    0.0000 C   0  0  0  0  0  0  0  0  0  0  0  0
    3.8304   -9.6383    0.0000 C   0  0  0  0  0  0  0  0  0  0  0  0
    5.2243   -8.4795    0.0000 C   0  0  0  0  0  0  0  0  0  0  0  0
    5.1524   -7.6577    0.0000 C   0  0  0  0  0  0  0  0  0  0  0  0
    4.4047   -7.3090    0.0000 C   0  0  0  0  0  0  0  0  0  0  0  0
    3.7289   -7.7822    0.0000 C   0  0  0  0  0  0  0  0  0  0  0  0
    3.8008   -8.6041    0.0000 C   0  0  0  0  0  0  0  0  0  0  0  0
    4.5485   -8.9527    0.0000 C   0  0  0  0  0  0  0  0  0  0  0  0
    6.5759   -7.5331    0.0000 C   0  0  0  0  0  0  0  0  0  0  0  0
    5.8282   -7.1845    0.0000 C   0  0  0  0  0  0  0  0  0  0  0  0
    5.7563   -6.3626    0.0000 C   0  0  0  0  0  0  0  0  0  0  0  0
    3.1250   -9.0773    0.0000 C   0  0  0  0  0  0  0  0  0  0  0  0
    6.9805   -6.9966    0.0000 C   0  0  0  0  0  0  0  0  0  0  0  0
    7.6950   -6.5841    0.0000 C   0  0  0  0  0  0  0  0  0  0  0  0
    7.6950   -5.7591    0.0000 C   0  0  0  0  0  0  0  0  0  0  0  0
    6.9805   -5.3466    0.0000 C   0  0  0  0  0  0  0  0  0  0  0  0
    6.2660   -5.7591    0.0000 C   0  0  0  0  0  0  0  0  0  0  0  0
    6.2660   -6.5841    0.0000 C   0  0  0  0  0  0  0  0  0  0  0  0
    8.4095   -7.8216    0.0000 C   0  0  0  0  0  0  0  0  0  0  0  0
    8.4095   -6.9966    0.0000 C   0  0  0  0  0  0  0  0  0  0  0  0
    9.1239   -6.5841    0.0000 C   0  0  0  0  0  0  0  0  0  0  0  0
    5.5516   -5.3466    0.0000 C   0  0  0  0  0  0  0  0  0  0  0  0
  1  2  1  0  0  0  0
  2  3  2  0  0  0  0
  3  4  1  0  0  0  0
  1  5  2  0  0  0  0
  1  6  1  0  0  0  0
  3  7  1  0  0  0  0
  8  9  1  0  0  0  0
  9 10  1  0  0  0  0
 10 11  1  0  0  0  0
 11 12  1  0  0  0  0
 12 13  1  0  0  0  0
  8 13  1  0  0  0  0
  8 14  1  0  0  0  0
 14 11  1  0  0  0  0
 15 16  1  0  0  0  0
 16 17  1  0  0  0  0
 17 18  1  0  0  0  0
 18 19  1  0  0  0  0
 19 20  1  0  0  0  0
 15 20  1  0  0  0  0
 21 22  1  0  0  0  0
 22 23  1  0  0  0  0
 16 22  1  0  0  0  0
 19 24  1  0  0  0  0
 14 15  1  0  0  0  0
 25 26  1  0  0  0  0
 26 27  1  0  0  0  0
 27 28  1  0  0  0  0
 28 29  1  0  0  0  0
 29 30  1  0  0  0  0
 25 30  1  0  0  0  0
 31 32  1  0  0  0  0
 32 33  1  0  0  0  0
 26 32  1  0  0  0  0
 29 34  1  0  0  0  0
 14 25  1  0  0  0  0
 35 36  1  0  0  0  0
 36 37  1  0  0  0  0
 37 38  1  0  0  0  0
 38 39  1  0  0  0  0
 39 40  1  0  0  0  0
 35 40  1  0  0  0  0
 41 42  1  0  0  0  0
 42 43  1  0  0  0  0
 36 42  1  0  0  0  0
 39 44  1  0  0  0  0
  8 35  1  0  0  0  0
  6  9  1  0  0  0  0
M  END
>  <cdx:groupId>
138

>  <cdx:fragmentId>
33

$$$$
