94846.cdx
  Mrv1902 05222410272D          

 53 58  0  0  0  0            999 V2000
    7.9101   -4.9585    0.0000 C   0  0  0  0  0  0  0  0  0  0  0  0
    7.9101   -5.7835    0.0000 C   0  0  0  0  0  0  0  0  0  0  0  0
    8.6246   -6.1960    0.0000 O   0  0  0  0  0  0  0  0  0  0  0  0
    7.1956   -6.1960    0.0000 C   0  0  0  0  0  0  0  0  0  0  0  0
    7.1956   -7.0210    0.0000 O   0  0  0  0  0  0  0  0  0  0  0  0
    6.4812   -5.7835    0.0000 C   0  0  0  0  0  0  0  0  0  0  0  0
    5.7667   -6.1960    0.0000 C   0  0  0  0  0  0  0  0  0  0  0  0
    5.7667   -7.0210    0.0000 O   0  0  0  0  0  0  0  0  0  0  0  0
    5.0522   -5.7835    0.0000 C   0  0  0  0  0  0  0  0  0  0  0  0
    5.0522   -4.9585    0.0000 C   0  0  0  0  0  0  0  0  0  0  0  0
    4.3378   -4.5460    0.0000 O   0  0  0  0  0  0  0  0  0  0  0  0
    5.7667   -4.5460    0.0000 C   0  0  0  0  0  0  0  0  0  0  0  0
    6.4812   -4.9585    0.0000 C   0  0  0  0  0  0  0  0  0  0  0  0
    7.1956   -4.5460    0.0000 O   0  0  0  0  0  0  0  0  0  0  0  0
    8.6246   -4.5460    0.0000 C   0  0  0  0  0  0  0  0  0  0  0  0
    8.6246   -3.7210    0.0000 C   0  0  0  0  0  0  0  0  0  0  0  0
    9.3391   -3.3085    0.0000 C   0  0  0  0  0  0  0  0  0  0  0  0
   10.0535   -3.7210    0.0000 C   0  0  0  0  0  0  0  0  0  0  0  0
   10.7680   -3.3085    0.0000 O   0  0  0  0  0  0  0  0  0  0  0  0
   10.0535   -4.5460    0.0000 C   0  0  0  0  0  0  0  0  0  0  0  0
    9.3391   -4.9585    0.0000 C   0  0  0  0  0  0  0  0  0  0  0  0
    8.6246   -7.0210    0.0000 C   0  0  1  0  0  0  0  0  0  0  0  0
    9.3391   -7.4335    0.0000 C   0  0  2  0  0  0  0  0  0  0  0  0
   10.0535   -7.0210    0.0000 O   0  0  0  0  0  0  0  0  0  0  0  0
    9.3391   -8.2585    0.0000 C   0  0  1  0  0  0  0  0  0  0  0  0
   10.0535   -8.6710    0.0000 O   0  0  0  0  0  0  0  0  0  0  0  0
    8.6246   -8.6710    0.0000 C   0  0  2  0  0  0  0  0  0  0  0  0
    8.6246   -9.4960    0.0000 O   0  0  0  0  0  0  0  0  0  0  0  0
    7.9101   -8.2585    0.0000 C   0  0  2  0  0  0  0  0  0  0  0  0
    7.9101   -7.4335    0.0000 O   0  0  0  0  0  0  0  0  0  0  0  0
    7.1956   -8.6710    0.0000 C   0  0  0  0  0  0  0  0  0  0  0  0
    6.4812   -8.2585    0.0000 O   0  0  0  0  0  0  0  0  0  0  0  0
    5.7667   -8.6710    0.0000 C   0  0  1  0  0  0  0  0  0  0  0  0
    5.7667   -9.4960    0.0000 C   0  0  2  0  0  0  0  0  0  0  0  0
    6.4812   -9.9085    0.0000 O   0  0  0  0  0  0  0  0  0  0  0  0
    5.0522   -9.9085    0.0000 C   0  0  2  0  0  0  0  0  0  0  0  0
    5.0522  -10.7335    0.0000 O   0  0  0  0  0  0  0  0  0  0  0  0
    4.3378   -9.4960    0.0000 C   0  0  1  0  0  0  0  0  0  0  0  0
    3.6233   -9.9085    0.0000 O   0  0  0  0  0  0  0  0  0  0  0  0
    4.3378   -8.6710    0.0000 C   0  0  1  0  0  0  0  0  0  0  0  0
    5.0522   -8.2585    0.0000 O   0  0  0  0  0  0  0  0  0  0  0  0
    3.6233   -8.2585    0.0000 C   0  0  0  0  0  0  0  0  0  0  0  0
    6.4812  -10.7335    0.0000 C   0  0  0  0  0  0  0  0  0  0  0  0
    7.1956  -11.1460    0.0000 C   0  0  0  0  0  0  0  0  0  0  0  0
    7.1956  -11.9710    0.0000 C   0  0  0  0  0  0  0  0  0  0  0  0
    7.9101  -12.3835    0.0000 C   0  0  0  0  0  0  0  0  0  0  0  0
    8.6246  -11.9710    0.0000 C   0  0  0  0  0  0  0  0  0  0  0  0
    9.3391  -12.3835    0.0000 C   0  0  0  0  0  0  0  0  0  0  0  0
    9.3391  -13.2085    0.0000 C   0  0  0  0  0  0  0  0  0  0  0  0
    8.6246  -13.6210    0.0000 C   0  0  0  0  0  0  0  0  0  0  0  0
    7.9101  -13.2085    0.0000 C   0  0  0  0  0  0  0  0  0  0  0  0
   10.0535  -13.6210    0.0000 O   0  0  0  0  0  0  0  0  0  0  0  0
    5.7667  -11.1460    0.0000 O   0  0  0  0  0  0  0  0  0  0  0  0
  1  2  2  0  0  0  0
  2  3  1  0  0  0  0
  2  4  1  0  0  0  0
  4  5  2  0  0  0  0
  4  6  1  0  0  0  0
  6  7  1  0  0  0  0
  7  8  1  0  0  0  0
  7  9  2  0  0  0  0
  9 10  1  0  0  0  0
 10 11  1  0  0  0  0
 10 12  2  0  0  0  0
 12 13  1  0  0  0  0
  6 13  2  0  0  0  0
 13 14  1  0  0  0  0
  1 14  1  0  0  0  0
  1 15  1  0  0  0  0
 15 16  1  0  0  0  0
 16 17  2  0  0  0  0
 17 18  1  0  0  0  0
 18 19  1  0  0  0  0
 18 20  2  0  0  0  0
 20 21  1  0  0  0  0
 15 21  2  0  0  0  0
 22 23  1  0  0  0  0
 23 24  1  6  0  0  0
 23 25  1  0  0  0  0
 25 26  1  1  0  0  0
 25 27  1  0  0  0  0
 27 28  1  6  0  0  0
 27 29  1  0  0  0  0
 29 30  1  0  0  0  0
 29 31  1  1  0  0  0
 31 32  1  0  0  0  0
 22 30  1  0  0  0  0
 33 34  1  0  0  0  0
 34 35  1  6  0  0  0
 34 36  1  0  0  0  0
 36 37  1  6  0  0  0
 36 38  1  0  0  0  0
 38 39  1  1  0  0  0
 38 40  1  0  0  0  0
 40 41  1  0  0  0  0
 40 42  1  6  0  0  0
 33 41  1  0  0  0  0
 43 44  1  0  0  0  0
 44 45  2  0  0  0  0
 45 46  1  0  0  0  0
 46 47  1  0  0  0  0
 47 48  2  0  0  0  0
 48 49  1  0  0  0  0
 49 50  2  0  0  0  0
 50 51  1  0  0  0  0
 46 51  2  0  0  0  0
 49 52  1  0  0  0  0
 43 53  2  0  0  0  0
 35 43  1  0  0  0  0
 33 32  1  1  0  0  0
 22  3  1  1  0  0  0
M  END
>  <cdx:groupId>
166

>  <cdx:fragmentId>
89

$$$$
