94848.cdx
  Mrv1902 05222410202D          

 26 28  0  0  0  0            999 V2000
    7.6177   -6.8972    0.0000 C   0  0  0  0  0  0  0  0  0  0  0  0
    8.3322   -7.3097    0.0000 C   0  0  0  0  0  0  0  0  0  0  0  0
    8.3322   -8.1347    0.0000 C   0  0  0  0  0  0  0  0  0  0  0  0
    9.0467   -8.5472    0.0000 C   0  0  0  0  0  0  0  0  0  0  0  0
    9.7612   -8.1347    0.0000 C   0  0  0  0  0  0  0  0  0  0  0  0
    9.7612   -7.3097    0.0000 C   0  0  0  0  0  0  0  0  0  0  0  0
    9.0467   -6.8972    0.0000 C   0  0  0  0  0  0  0  0  0  0  0  0
    7.6177   -6.0722    0.0000 O   0  0  0  0  0  0  0  0  0  0  0  0
    6.9033   -7.3097    0.0000 O   0  0  0  0  0  0  0  0  0  0  0  0
   10.4756   -6.8972    0.0000 O   0  0  0  0  0  0  0  0  0  0  0  0
   10.4756   -8.5472    0.0000 O   0  0  0  0  0  0  0  0  0  0  0  0
    9.0467   -9.3722    0.0000 O   0  0  0  0  0  0  0  0  0  0  0  0
    6.4746  -10.0322    0.0000 C   0  0  0  0  0  0  0  0  0  0  0  0
    7.1891   -9.6197    0.0000 C   0  0  0  0  0  0  0  0  0  0  0  0
    7.1891   -8.7947    0.0000 C   0  0  0  0  0  0  0  0  0  0  0  0
    6.4746   -8.3822    0.0000 C   0  0  0  0  0  0  0  0  0  0  0  0
    5.7601   -8.7947    0.0000 C   0  0  0  0  0  0  0  0  0  0  0  0
    5.0456   -8.3822    0.0000 C   0  0  0  0  0  0  0  0  0  0  0  0
    4.3312   -8.7947    0.0000 C   0  0  0  0  0  0  0  0  0  0  0  0
    4.3312   -9.6197    0.0000 C   0  0  0  0  0  0  0  0  0  0  0  0
    5.0456  -10.0322    0.0000 C   0  0  0  0  0  0  0  0  0  0  0  0
    5.7601   -9.6197    0.0000 C   0  0  0  0  0  0  0  0  0  0  0  0
    6.4746   -7.5572    0.0000 O   0  0  0  0  0  0  0  0  0  0  0  0
    6.4746  -10.8572    0.0000 O   0  0  0  0  0  0  0  0  0  0  0  0
    3.6167   -8.3822    0.0000 C   0  0  0  0  0  0  0  0  0  0  0  0
    7.9035  -10.0322    0.0000 C   0  0  0  0  0  0  0  0  0  0  0  0
  1  2  1  0  0  0  0
  2  3  1  0  0  0  0
  3  4  2  0  0  0  0
  4  5  1  0  0  0  0
  5  6  2  0  0  0  0
  6  7  1  0  0  0  0
  2  7  2  0  0  0  0
  1  8  2  0  0  0  0
  1  9  1  0  0  0  0
  6 10  1  0  0  0  0
  5 11  1  0  0  0  0
  4 12  1  0  0  0  0
 13 14  1  0  0  0  0
 14 15  2  0  0  0  0
 15 16  1  0  0  0  0
 16 17  1  0  0  0  0
 17 18  1  0  0  0  0
 18 19  2  0  0  0  0
 19 20  1  0  0  0  0
 20 21  2  0  0  0  0
 21 22  1  0  0  0  0
 13 22  1  0  0  0  0
 17 22  2  0  0  0  0
 16 23  2  0  0  0  0
 13 24  2  0  0  0  0
 19 25  1  0  0  0  0
 14 26  1  0  0  0  0
  3 15  1  0  0  0  0
M  END
>  <cdx:groupId>
82

>  <cdx:fragmentId>
29

$$$$
