94850.cdx
  Mrv1902 05222410262D          

 38 42  0  0  0  0            999 V2000
    4.8115  -10.2218    0.0000 C   0  0  0  0  0  0  0  0  0  0  0  0
    4.8115   -9.3968    0.0000 C   0  0  0  0  0  0  0  0  0  0  0  0
    5.5260   -8.9843    0.0000 C   0  0  0  0  0  0  0  0  0  0  0  0
    5.5260  -10.6343    0.0000 C   0  0  2  0  0  0  0  0  0  0  0  0
    5.9385  -11.3487    0.0000 C   0  0  0  0  0  0  0  0  0  0  0  0
    5.1135  -11.3487    0.0000 C   0  0  0  0  0  0  0  0  0  0  0  0
    6.2405  -10.2218    0.0000 C   0  0  2  0  0  0  0  0  0  0  0  0
    6.2405  -11.0468    0.0000 H   0  0  0  0  0  0  0  0  0  0  0  0
    6.9550  -10.6343    0.0000 C   0  0  0  0  0  0  0  0  0  0  0  0
    7.6694  -10.2218    0.0000 C   0  0  0  0  0  0  0  0  0  0  0  0
    7.6694   -9.3968    0.0000 C   0  0  1  0  0  0  0  0  0  0  0  0
    7.6694   -8.5718    0.0000 C   0  0  0  0  0  0  0  0  0  0  0  0
    8.3839   -8.9843    0.0000 C   0  0  2  0  0  0  0  0  0  0  0  0
    8.3839  -10.3043    0.0000 C   0  0  0  0  0  0  0  0  0  0  0  0
    9.0984   -9.3968    0.0000 C   0  0  0  0  0  0  0  0  0  0  0  0
    9.8128   -8.9843    0.0000 C   0  0  0  0  0  0  0  0  0  0  0  0
    9.8128   -8.1593    0.0000 C   0  0  1  0  0  0  0  0  0  0  0  0
   10.5665   -8.4948    0.0000 C   0  0  0  0  0  0  0  0  0  0  0  0
   10.4259   -7.6072    0.0000 C   0  0  0  0  0  0  0  0  0  0  0  0
   10.0904   -6.8535    0.0000 C   0  0  0  0  0  0  0  0  0  0  0  0
    9.2699   -6.9398    0.0000 C   0  0  1  0  0  0  0  0  0  0  0  0
    8.7179   -6.3267    0.0000 C   0  0  0  0  0  0  0  0  0  0  0  0
    8.9728   -5.5421    0.0000 C   0  0  0  0  0  0  0  0  0  0  0  0
    7.9109   -6.4982    0.0000 C   0  0  0  0  0  0  0  0  0  0  0  0
    9.0984   -7.7468    0.0000 C   0  0  2  0  0  0  0  0  0  0  0  0
    9.0984   -8.5718    0.0000 H   0  0  0  0  0  0  0  0  0  0  0  0
    8.3839   -8.1593    0.0000 C   0  0  1  0  0  0  0  0  0  0  0  0
    8.3839   -7.3343    0.0000 H   0  0  0  0  0  0  0  0  0  0  0  0
    7.6694   -7.7468    0.0000 C   0  0  0  0  0  0  0  0  0  0  0  0
    6.9550   -8.1593    0.0000 C   0  0  0  0  0  0  0  0  0  0  0  0
    6.9550   -8.9843    0.0000 C   0  0  2  0  0  0  0  0  0  0  0  0
    6.2405   -9.3968    0.0000 C   0  0  1  0  0  0  0  0  0  0  0  0
    6.2405   -8.5718    0.0000 C   0  0  0  0  0  0  0  0  0  0  0  0
    7.6694  -10.7168    0.0000 O   0  0  0  0  0  0  0  0  0  0  0  0
    9.0984  -10.7168    0.0000 O   0  0  0  0  0  0  0  0  0  0  0  0
    7.3275   -5.9149    0.0000 O   0  0  0  0  0  0  0  0  0  0  0  0
    4.0971  -10.6343    0.0000 O   0  0  0  0  0  0  0  0  0  0  0  0
    6.9550   -9.8093    0.0000 H   0  0  0  0  0  0  0  0  0  0  0  0
  1  2  1  0  0  0  0
  2  3  1  0  0  0  0
  1  4  1  0  0  0  0
  4  5  1  6  0  0  0
  4  6  1  1  0  0  0
  4  7  1  0  0  0  0
  7  8  1  6  0  0  0
  7  9  1  0  0  0  0
  9 10  1  0  0  0  0
 10 11  1  0  0  0  0
 11 12  1  1  0  0  0
 11 13  1  0  0  0  0
 13 14  1  6  0  0  0
 13 15  1  0  0  0  0
 15 16  1  0  0  0  0
 16 17  1  0  0  0  0
 17 18  1  1  0  0  0
 17 19  1  0  0  0  0
 19 20  1  0  0  0  0
 20 21  1  0  0  0  0
 21 22  1  6  0  0  0
 22 23  2  0  0  0  0
 22 24  1  0  0  0  0
 21 25  1  0  0  0  0
 25 26  1  6  0  0  0
 17 25  1  0  0  0  0
 25 27  1  0  0  0  0
 13 27  1  0  0  0  0
 27 28  1  1  0  0  0
 27 29  1  0  0  0  0
 29 30  1  0  0  0  0
 30 31  1  0  0  0  0
 11 31  1  0  0  0  0
 31 32  1  0  0  0  0
  3 32  1  0  0  0  0
  7 32  1  0  0  0  0
 32 33  1  1  0  0  0
 14 34  2  0  0  0  0
 14 35  1  0  0  0  0
 24 36  1  0  0  0  0
  1 37  1  0  0  0  0
 31 38  1  6  0  0  0
M  END
>  <cdx:groupId>
216

>  <cdx:fragmentId>
101

$$$$
