94852.cdx
  Mrv1902 05222410272D          

 10  9  0  0  0  0            999 V2000
    4.6851   -8.8057    0.0000 C   0  0  0  0  0  0  0  0  0  0  0  0
    5.4114   -8.4144    0.0000 C   0  0  0  0  0  0  0  0  0  0  0  0
    6.1135   -8.8477    0.0000 C   0  0  0  0  0  0  0  0  0  0  0  0
    9.6964   -8.5404    0.0000 C   0  0  0  0  0  0  0  0  0  0  0  0
    8.9943   -8.1070    0.0000 C   0  0  0  0  0  0  0  0  0  0  0  0
    8.2681   -8.4984    0.0000 C   0  0  0  0  0  0  0  0  0  0  0  0
    7.2311   -9.1827    0.0000 O   0  0  0  0  0  0  0  0  0  0  0  0
    7.5660   -8.0651    0.0000 S   0  0  0  0  0  0  0  0  0  0  0  0
    6.4484   -7.7301    0.0000 O   0  0  0  0  0  0  0  0  0  0  0  0
    6.8397   -8.4564    0.0000 S   0  0  0  0  0  0  0  0  0  0  0  0
 10  3  1  0  0  0  0
  2  1  1  0  0  0  0
  3  2  2  0  0  0  0
  8  6  1  0  0  0  0
  5  4  2  0  0  0  0
  6  5  1  0  0  0  0
 10  7  2  0  0  0  0
 10  8  1  0  0  0  0
 10  9  2  0  0  0  0
M  END
>  <cdx:groupId>
31

>  <cdx:fragmentId>
5

$$$$
