94859.cdx
  Mrv1902 05222410182D          

 19 21  0  0  0  0            999 V2000
    3.9581   -6.2975    0.0000 C   0  0  0  0  0  0  0  0  0  0  0  0
    3.9581   -7.1225    0.0000 C   0  0  0  0  0  0  0  0  0  0  0  0
    4.6725   -7.5350    0.0000 C   0  0  0  0  0  0  0  0  0  0  0  0
    5.3870   -7.1225    0.0000 C   0  0  0  0  0  0  0  0  0  0  0  0
    5.3870   -6.2975    0.0000 C   0  0  0  0  0  0  0  0  0  0  0  0
    4.6725   -5.8850    0.0000 C   0  0  0  0  0  0  0  0  0  0  0  0
    3.2436   -7.5350    0.0000 O   0  0  0  0  0  0  0  0  0  0  0  0
    6.1015   -7.5350    0.0000 C   0  0  0  0  0  0  0  0  0  0  0  0
    6.1015   -8.3600    0.0000 C   0  0  0  0  0  0  0  0  0  0  0  0
    6.8159   -8.7725    0.0000 O   0  0  0  0  0  0  0  0  0  0  0  0
    7.5304   -8.3600    0.0000 C   0  0  0  0  0  0  0  0  0  0  0  0
    7.5304   -7.5350    0.0000 C   0  0  0  0  0  0  0  0  0  0  0  0
    6.8159   -7.1225    0.0000 C   0  0  0  0  0  0  0  0  0  0  0  0
    8.2449   -8.7725    0.0000 C   0  0  0  0  0  0  0  0  0  0  0  0
    8.9594   -8.3600    0.0000 C   0  0  0  0  0  0  0  0  0  0  0  0
    8.9594   -7.5350    0.0000 C   0  0  0  0  0  0  0  0  0  0  0  0
    8.2449   -7.1225    0.0000 C   0  0  0  0  0  0  0  0  0  0  0  0
    6.8159   -6.2975    0.0000 O   0  0  0  0  0  0  0  0  0  0  0  0
    9.6738   -8.7725    0.0000 O   0  0  0  0  0  0  0  0  0  0  0  0
  1  2  2  0  0  0  0
  2  3  1  0  0  0  0
  3  4  2  0  0  0  0
  4  5  1  0  0  0  0
  5  6  2  0  0  0  0
  6  1  1  0  0  0  0
  2  7  1  0  0  0  0
  4  8  1  0  0  0  0
  8  9  2  0  0  0  0
  9 10  1  0  0  0  0
 10 11  1  0  0  0  0
 11 12  2  0  0  0  0
 12 13  1  0  0  0  0
 13  8  1  0  0  0  0
 11 14  1  0  0  0  0
 14 15  2  0  0  0  0
 15 16  1  0  0  0  0
 16 17  2  0  0  0  0
 17 12  1  0  0  0  0
 13 18  2  0  0  0  0
 15 19  1  0  0  0  0
M  END
>  <cdx:fragmentId>
5

$$$$
