94851.cdx
  Mrv1902 05222410262D          

 43 47  0  0  0  0            999 V2000
    8.0891   -8.7397    0.0000 C   0  0  0  0  0  0  0  0  0  0  0  0
    8.0891   -9.5647    0.0000 C   0  0  0  0  0  0  0  0  0  0  0  0
    7.3747   -9.9772    0.0000 C   0  0  0  0  0  0  0  0  0  0  0  0
    7.3747  -10.8022    0.0000 O   0  0  0  0  0  0  0  0  0  0  0  0
    6.6602   -9.5647    0.0000 C   0  0  0  0  0  0  0  0  0  0  0  0
    5.9457   -9.9772    0.0000 C   0  0  0  0  0  0  0  0  0  0  0  0
    5.9457  -10.8022    0.0000 O   0  0  0  0  0  0  0  0  0  0  0  0
    5.2313   -9.5647    0.0000 C   0  0  0  0  0  0  0  0  0  0  0  0
    5.2313   -8.7397    0.0000 C   0  0  0  0  0  0  0  0  0  0  0  0
    4.5168   -8.3272    0.0000 O   0  0  0  0  0  0  0  0  0  0  0  0
    5.9457   -8.3272    0.0000 C   0  0  0  0  0  0  0  0  0  0  0  0
    6.6602   -8.7397    0.0000 C   0  0  0  0  0  0  0  0  0  0  0  0
    7.3747   -8.3272    0.0000 O   0  0  0  0  0  0  0  0  0  0  0  0
    8.8036   -8.3272    0.0000 C   0  0  0  0  0  0  0  0  0  0  0  0
    9.5181   -8.7397    0.0000 C   0  0  0  0  0  0  0  0  0  0  0  0
   10.2325   -8.3272    0.0000 C   0  0  0  0  0  0  0  0  0  0  0  0
   10.2325   -7.5022    0.0000 C   0  0  0  0  0  0  0  0  0  0  0  0
   10.9470   -7.0897    0.0000 O   0  0  0  0  0  0  0  0  0  0  0  0
    9.5181   -7.0897    0.0000 C   0  0  0  0  0  0  0  0  0  0  0  0
    8.8036   -7.5022    0.0000 C   0  0  0  0  0  0  0  0  0  0  0  0
    9.5181   -6.2647    0.0000 O   0  0  0  0  0  0  0  0  0  0  0  0
    3.8023   -8.7397    0.0000 C   0  0  2  0  0  0  0  0  0  0  0  0
    3.0878   -8.3272    0.0000 O   0  0  0  0  0  0  0  0  0  0  0  0
    2.3734   -8.7397    0.0000 C   0  0  1  0  0  0  0  0  0  0  0  0
    2.3734   -9.5647    0.0000 C   0  0  2  0  0  0  0  0  0  0  0  0
    3.0878   -9.9772    0.0000 C   0  0  1  0  0  0  0  0  0  0  0  0
    3.8023   -9.5647    0.0000 C   0  0  1  0  0  0  0  0  0  0  0  0
    1.6589   -8.3272    0.0000 C   0  0  0  0  0  0  0  0  0  0  0  0
    3.0878  -10.8022    0.0000 O   0  0  0  0  0  0  0  0  0  0  0  0
    1.6589   -9.9772    0.0000 O   0  0  0  0  0  0  0  0  0  0  0  0
    4.5168   -9.9772    0.0000 O   0  0  0  0  0  0  0  0  0  0  0  0
    0.9444   -8.7397    0.0000 O   0  0  0  0  0  0  0  0  0  0  0  0
   11.6493   -7.5089    0.0000 C   0  0  2  0  0  0  0  0  0  0  0  0
   11.6491   -8.3339    0.0000 O   0  0  0  0  0  0  0  0  0  0  0  0
   12.3635   -8.7465    0.0000 C   0  0  1  0  0  0  0  0  0  0  0  0
   13.0781   -8.3341    0.0000 C   0  0  2  0  0  0  0  0  0  0  0  0
   13.0782   -7.5091    0.0000 C   0  0  1  0  0  0  0  0  0  0  0  0
   12.3638   -7.0965    0.0000 C   0  0  1  0  0  0  0  0  0  0  0  0
   12.3634   -9.5715    0.0000 C   0  0  0  0  0  0  0  0  0  0  0  0
   13.7928   -7.0968    0.0000 O   0  0  0  0  0  0  0  0  0  0  0  0
   13.7925   -8.7468    0.0000 O   0  0  0  0  0  0  0  0  0  0  0  0
   12.3640   -6.2715    0.0000 O   0  0  0  0  0  0  0  0  0  0  0  0
   13.0778   -9.9841    0.0000 O   0  0  0  0  0  0  0  0  0  0  0  0
  1  2  2  0  0  0  0
  2  3  1  0  0  0  0
  3  4  2  0  0  0  0
  3  5  1  0  0  0  0
  5  6  1  0  0  0  0
  6  7  1  0  0  0  0
  6  8  2  0  0  0  0
  8  9  1  0  0  0  0
  9 10  1  0  0  0  0
  9 11  2  0  0  0  0
 11 12  1  0  0  0  0
  5 12  2  0  0  0  0
 12 13  1  0  0  0  0
  1 13  1  0  0  0  0
  1 14  1  0  0  0  0
 14 15  1  0  0  0  0
 15 16  2  0  0  0  0
 16 17  1  0  0  0  0
 17 18  1  0  0  0  0
 17 19  2  0  0  0  0
 19 20  1  0  0  0  0
 14 20  2  0  0  0  0
 19 21  1  0  0  0  0
 22 10  1  1  0  0  0
 22 23  1  0  0  0  0
 23 24  1  0  0  0  0
 24 25  1  0  0  0  0
 25 26  1  0  0  0  0
 26 27  1  0  0  0  0
 27 22  1  0  0  0  0
 24 28  1  1  0  0  0
 26 29  1  1  0  0  0
 25 30  1  6  0  0  0
 27 31  1  6  0  0  0
 28 32  1  0  0  0  0
 33 34  1  0  0  0  0
 34 35  1  0  0  0  0
 35 36  1  0  0  0  0
 36 37  1  0  0  0  0
 37 38  1  0  0  0  0
 38 33  1  0  0  0  0
 35 39  1  1  0  0  0
 37 40  1  1  0  0  0
 36 41  1  6  0  0  0
 38 42  1  6  0  0  0
 39 43  1  0  0  0  0
 33 18  1  1  0  0  0
M  END
>  <cdx:groupId>
67

>  <cdx:fragmentId>
5

$$$$
