94853.cdx
  Mrv1902 05222410262D          

  8  7  0  0  0  0            999 V2000
    7.5529   -8.4647    0.0000 S   0  0  0  0  0  0  0  0  0  0  0  0
    7.1404   -7.7503    0.0000 O   0  0  0  0  0  0  0  0  0  0  0  0
    8.2674   -8.0522    0.0000 S   0  0  0  0  0  0  0  0  0  0  0  0
    7.9654   -9.1792    0.0000 O   0  0  0  0  0  0  0  0  0  0  0  0
    8.9818   -8.4647    0.0000 C   0  0  0  0  0  0  0  0  0  0  0  0
    6.8384   -8.8772    0.0000 C   0  0  0  0  0  0  0  0  0  0  0  0
    6.1239   -8.4647    0.0000 C   0  0  0  0  0  0  0  0  0  0  0  0
    5.4095   -8.8772    0.0000 C   0  0  0  0  0  0  0  0  0  0  0  0
  1  2  2  0  0  0  0
  1  3  1  0  0  0  0
  1  4  2  0  0  0  0
  3  5  1  0  0  0  0
  6  7  1  0  0  0  0
  7  8  2  0  0  0  0
  1  6  1  0  0  0  0
M  END
>  <cdx:groupId>
25

>  <cdx:fragmentId>
5

$$$$
