94862.cdx
  Mrv1902 05222410192D          

 23 24  0  0  0  0            999 V2000
    5.7101   -9.2263    0.0000 C   0  0  0  0  0  0  0  0  0  0  0  0
    4.9956   -8.8138    0.0000 C   0  0  0  0  0  0  0  0  0  0  0  0
    4.2812   -9.2263    0.0000 C   0  0  0  0  0  0  0  0  0  0  0  0
    5.7101  -10.0512    0.0000 O   0  0  0  0  0  0  0  0  0  0  0  0
    6.4246   -8.8138    0.0000 N   0  0  0  0  0  0  0  0  0  0  0  0
    2.8130   -9.1493    0.0000 O   0  0  0  0  0  0  0  0  0  0  0  0
    3.5667   -8.8138    0.0000 C   0  0  0  0  0  0  0  0  0  0  0  0
    3.4805   -7.9933    0.0000 C   0  0  0  0  0  0  0  0  0  0  0  0
    2.6735   -7.8217    0.0000 C   0  0  0  0  0  0  0  0  0  0  0  0
    2.2610   -8.5362    0.0000 C   0  0  0  0  0  0  0  0  0  0  0  0
    7.1390   -9.2263    0.0000 C   0  0  0  0  0  0  0  0  0  0  0  0
    7.8535   -8.8138    0.0000 C   0  0  0  0  0  0  0  0  0  0  0  0
    8.5680   -9.2263    0.0000 O   0  0  0  0  0  0  0  0  0  0  0  0
    9.2825   -8.8138    0.0000 C   0  0  0  0  0  0  0  0  0  0  0  0
    9.9969   -9.2263    0.0000 C   0  0  0  0  0  0  0  0  0  0  0  0
   10.7114   -8.8138    0.0000 C   0  0  0  0  0  0  0  0  0  0  0  0
   10.7114   -7.9887    0.0000 C   0  0  0  0  0  0  0  0  0  0  0  0
    9.9969   -7.5762    0.0000 C   0  0  0  0  0  0  0  0  0  0  0  0
    9.2825   -7.9887    0.0000 C   0  0  0  0  0  0  0  0  0  0  0  0
   11.4259   -7.5762    0.0000 C   0  0  0  0  0  0  0  0  0  0  0  0
   12.1403   -7.1637    0.0000 C   0  0  0  0  0  0  0  0  0  0  0  0
   11.0134   -6.8618    0.0000 C   0  0  0  0  0  0  0  0  0  0  0  0
   11.8384   -8.2907    0.0000 C   0  0  0  0  0  0  0  0  0  0  0  0
  1  2  1  0  0  0  0
  2  3  2  0  0  0  0
  1  4  2  0  0  0  0
  1  5  1  0  0  0  0
  6  7  1  0  0  0  0
  7  8  2  0  0  0  0
  8  9  1  0  0  0  0
  9 10  2  0  0  0  0
  6 10  1  0  0  0  0
  3  7  1  0  0  0  0
 11 12  1  0  0  0  0
 14 15  1  0  0  0  0
 15 16  2  0  0  0  0
 16 17  1  0  0  0  0
 17 18  2  0  0  0  0
 18 19  1  0  0  0  0
 14 19  2  0  0  0  0
 13 14  1  0  0  0  0
 20 21  1  0  0  0  0
 20 23  1  0  0  0  0
 20 22  1  0  0  0  0
 17 20  1  0  0  0  0
 12 13  1  0  0  0  0
  5 11  1  0  0  0  0
M  END
>  <cdx:fragmentId>
31

$$$$
