94866.cdx
  Mrv1902 05222410192D          

 19 21  0  0  0  0            999 V2000
    8.4700   -7.6450    0.0000 C   0  0  2  0  0  0  0  0  0  0  0  0
    7.3017   -8.0482    0.0000 C   0  0  1  0  0  0  0  0  0  0  0  0
    7.3236   -8.8730    0.0000 C   0  0  1  0  0  0  0  0  0  0  0  0
    8.3325   -8.5525    0.0000 C   0  0  2  0  0  0  0  0  0  0  0  0
    9.4875   -8.8000    0.0000 N   0  0  0  0  0  0  0  0  0  0  0  0
    9.7075   -7.8650    0.0000 N   0  0  0  0  0  0  0  0  0  0  0  0
    6.7558   -9.4715    0.0000 C   0  0  0  0  0  0  0  0  0  0  0  0
    5.9311   -9.4934    0.0000 C   0  0  0  0  0  0  0  0  0  0  0  0
    5.3325   -8.9256    0.0000 C   0  0  0  0  0  0  0  0  0  0  0  0
    5.3107   -8.1009    0.0000 C   0  0  0  0  0  0  0  0  0  0  0  0
    5.8784   -7.5023    0.0000 C   0  0  0  0  0  0  0  0  0  0  0  0
    6.7031   -7.4805    0.0000 C   0  0  0  0  0  0  0  0  0  0  0  0
    7.7275   -6.6000    0.0000 C   0  0  0  0  0  0  0  0  0  0  0  0
    7.7275   -5.7750    0.0000 C   0  0  0  0  0  0  0  0  0  0  0  0
    7.0130   -6.1875    0.0000 C   0  0  0  0  0  0  0  0  0  0  0  0
    8.6835   -6.8481    0.0000 H   0  0  0  0  0  0  0  0  0  0  0  0
    8.3325   -9.3775    0.0000 H   0  0  0  0  0  0  0  0  0  0  0  0
    7.4528   -9.6878    0.0000 H   0  0  0  0  0  0  0  0  0  0  0  0
    7.3877   -7.2277    0.0000 H   0  0  0  0  0  0  0  0  0  0  0  0
  1  2  1  0  0  0  0
  2  3  1  0  0  0  0
  3  4  1  0  0  0  0
  4  5  1  0  0  0  0
  5  6  2  0  0  0  0
  1  6  1  0  0  0  0
  7  8  1  0  0  0  0
  8  9  1  0  0  0  0
  9 10  2  0  0  0  0
 10 11  1  0  0  0  0
 11 12  1  0  0  0  0
 12  2  1  0  0  0  0
  7  3  1  0  0  0  0
  1 13  1  0  0  0  0
  4 13  1  0  0  0  0
 13 14  1  0  0  0  0
 13 15  1  0  0  0  0
  1 16  1  6  0  0  0
  4 17  1  6  0  0  0
  3 18  1  6  0  0  0
  2 19  1  6  0  0  0
M  END
>  <cdx:fragmentId>
5

$$$$
