94861.cdx
  Mrv1902 05222410202D          

 13 14  0  0  0  0            999 V2000
    7.5418   -5.7486    0.0000 C   0  0  0  0  0  0  0  0  0  0  0  0
    8.2584   -6.1573    0.0000 C   0  0  0  0  0  0  0  0  0  0  0  0
    8.2628   -6.9823    0.0000 C   0  0  0  0  0  0  0  0  0  0  0  0
    7.5506   -7.3986    0.0000 C   0  0  0  0  0  0  0  0  0  0  0  0
    6.8339   -6.9899    0.0000 C   0  0  0  0  0  0  0  0  0  0  0  0
    6.1217   -7.4062    0.0000 C   0  0  0  0  0  0  0  0  0  0  0  0
    5.4050   -6.9976    0.0000 C   0  0  0  0  0  0  0  0  0  0  0  0
    5.4006   -6.1726    0.0000 C   0  0  0  0  0  0  0  0  0  0  0  0
    6.1129   -5.7563    0.0000 C   0  0  0  0  0  0  0  0  0  0  0  0
    6.8295   -6.1649    0.0000 C   0  0  0  0  0  0  0  0  0  0  0  0
    8.9707   -5.7410    0.0000 O   0  0  0  0  0  0  0  0  0  0  0  0
    6.8251   -5.3400    0.0000 C   0  0  0  0  0  0  0  0  0  0  0  0
    7.5550   -8.2236    0.0000 C   0  0  0  0  0  0  0  0  0  0  0  0
  1  2  1  0  0  0  0
  2  3  1  0  0  0  0
  3  4  2  0  0  0  0
  4  5  1  0  0  0  0
  5  6  1  0  0  0  0
  6  7  1  0  0  0  0
  7  8  1  0  0  0  0
  8  9  1  0  0  0  0
  9 10  1  0  0  0  0
  1 10  1  0  0  0  0
  5 10  1  0  0  0  0
  2 11  2  0  0  0  0
 10 12  1  0  0  0  0
  4 13  1  0  0  0  0
M  END
>  <cdx:fragmentId>
5

$$$$
