94863.cdx
  Mrv1902 05222410192D          

 40 44  0  0  0  0            999 V2000
    9.1896   -6.8581    0.0000 C   0  0  1  0  0  0  0  0  0  0  0  0
    9.9040   -6.4456    0.0000 C   0  0  1  0  0  0  0  0  0  0  0  0
   10.6185   -6.8581    0.0000 C   0  0  0  0  0  0  0  0  0  0  0  0
   10.6185   -7.6831    0.0000 C   0  0  0  0  0  0  0  0  0  0  0  0
    9.9040   -8.0956    0.0000 C   0  0  2  0  0  0  0  0  0  0  0  0
    9.9040   -8.9206    0.0000 C   0  0  0  0  0  0  0  0  0  0  0  0
    9.1896   -9.3331    0.0000 C   0  0  0  0  0  0  0  0  0  0  0  0
    8.4751   -8.9206    0.0000 C   0  0  1  0  0  0  0  0  0  0  0  0
    7.7606   -9.3331    0.0000 C   0  0  2  0  0  0  0  0  0  0  0  0
    7.7606  -10.1581    0.0000 C   0  0  0  0  0  0  0  0  0  0  0  0
    7.0462  -10.5706    0.0000 C   0  0  0  0  0  0  0  0  0  0  0  0
    6.3317  -10.1581    0.0000 C   0  0  1  0  0  0  0  0  0  0  0  0
    5.6172  -10.5706    0.0000 C   0  0  0  0  0  0  0  0  0  0  0  0
    4.9028  -10.1581    0.0000 C   0  0  2  0  0  0  0  0  0  0  0  0
    4.9028   -9.3331    0.0000 C   0  0  0  0  0  0  0  0  0  0  0  0
    5.6172   -8.9206    0.0000 C   0  0  0  0  0  0  0  0  0  0  0  0
    6.3317   -9.3331    0.0000 C   0  0  2  0  0  0  0  0  0  0  0  0
    7.0462   -8.9206    0.0000 C   0  0  1  0  0  0  0  0  0  0  0  0
    7.0462   -8.0956    0.0000 C   0  0  0  0  0  0  0  0  0  0  0  0
    7.7606   -7.6831    0.0000 C   0  0  0  0  0  0  0  0  0  0  0  0
    8.4751   -8.0956    0.0000 C   0  0  0  0  0  0  0  0  0  0  0  0
    9.1896   -7.6831    0.0000 C   0  0  2  0  0  0  0  0  0  0  0  0
   10.6185   -8.5081    0.0000 C   0  0  0  0  0  0  0  0  0  0  0  0
   10.6185   -9.3331    0.0000 O   0  0  0  0  0  0  0  0  0  0  0  0
   11.3330   -8.0956    0.0000 O   0  0  0  0  0  0  0  0  0  0  0  0
    6.3317   -8.5081    0.0000 C   0  0  0  0  0  0  0  0  0  0  0  0
    6.0297  -11.2850    0.0000 C   0  0  0  0  0  0  0  0  0  0  0  0
    5.2047  -11.2850    0.0000 C   0  0  0  0  0  0  0  0  0  0  0  0
    9.9040   -5.6206    0.0000 C   0  0  0  0  0  0  0  0  0  0  0  0
    8.6062   -6.2747    0.0000 C   0  0  0  0  0  0  0  0  0  0  0  0
    4.1883  -10.5706    0.0000 O   0  0  0  0  0  0  0  0  0  0  0  0
    3.4738  -10.1581    0.0000 C   0  0  0  0  0  0  0  0  0  0  0  0
    3.4738   -9.3331    0.0000 O   0  0  0  0  0  0  0  0  0  0  0  0
    2.7593  -10.5706    0.0000 C   0  0  0  0  0  0  0  0  0  0  0  0
    6.3317  -10.9831    0.0000 H   0  0  0  0  0  0  0  0  0  0  0  0
    9.1896   -8.5081    0.0000 H   0  0  0  0  0  0  0  0  0  0  0  0
    7.0462   -9.7456    0.0000 H   0  0  0  0  0  0  0  0  0  0  0  0
    8.4751   -9.7456    0.0000 C   0  0  0  0  0  0  0  0  0  0  0  0
    7.7606   -8.5081    0.0000 C   0  0  0  0  0  0  0  0  0  0  0  0
    8.3927   -7.0716    0.0000 O   0  0  0  0  0  0  0  0  0  0  0  0
  1  2  1  0  0  0  0
  2  3  1  0  0  0  0
  3  4  1  0  0  0  0
  4  5  1  0  0  0  0
  5  6  1  0  0  0  0
  6  7  1  0  0  0  0
  7  8  1  0  0  0  0
  8  9  1  0  0  0  0
  9 10  1  0  0  0  0
 10 11  1  0  0  0  0
 11 12  1  0  0  0  0
 12 13  1  0  0  0  0
 13 14  1  0  0  0  0
 14 15  1  0  0  0  0
 15 16  1  0  0  0  0
 16 17  1  0  0  0  0
 12 17  1  0  0  0  0
 17 18  1  0  0  0  0
  9 18  1  0  0  0  0
 18 19  1  0  0  0  0
 19 20  1  0  0  0  0
 20 21  2  0  0  0  0
  8 21  1  0  0  0  0
 21 22  1  0  0  0  0
  5 22  1  0  0  0  0
  1 22  1  0  0  0  0
 23 24  2  0  0  0  0
 23 25  1  0  0  0  0
  5 23  1  1  0  0  0
 17 26  1  1  0  0  0
 13 27  1  0  0  0  0
 13 28  1  0  0  0  0
  2 29  1  6  0  0  0
  1 30  1  1  0  0  0
 32 33  2  0  0  0  0
 32 34  1  0  0  0  0
 31 32  1  0  0  0  0
 14 31  1  1  0  0  0
 12 35  1  6  0  0  0
 22 36  1  1  0  0  0
 18 37  1  6  0  0  0
  8 38  1  6  0  0  0
  9 39  1  1  0  0  0
  1 40  1  6  0  0  0
M  END
>  <cdx:fragmentId>
5

$$$$
