9486.cdx
  Mrv1902 05222410222D          

 30 33  0  0  0  0            999 V2000
    7.2041   -8.1788    0.0000 C   0  0  2  0  0  0  0  0  0  0  0  0
    6.4896   -8.5913    0.0000 C   0  0  0  0  0  0  0  0  0  0  0  0
    5.7752   -8.1788    0.0000 C   0  0  0  0  0  0  0  0  0  0  0  0
    5.0607   -8.5913    0.0000 C   0  0  0  0  0  0  0  0  0  0  0  0
    5.0607   -9.4163    0.0000 C   0  0  0  0  0  0  0  0  0  0  0  0
    5.7752   -9.8288    0.0000 C   0  0  0  0  0  0  0  0  0  0  0  0
    6.4896   -9.4163    0.0000 C   0  0  0  0  0  0  0  0  0  0  0  0
    7.2041   -9.8288    0.0000 O   0  0  0  0  0  0  0  0  0  0  0  0
    7.9186   -9.4163    0.0000 C   0  0  1  0  0  0  0  0  0  0  0  0
    8.7225   -9.2347    0.0000 C   0  0  0  0  0  0  0  0  0  0  0  0
    8.9360   -8.4378    0.0000 C   0  0  0  0  0  0  0  0  0  0  0  0
    8.3311   -7.8768    0.0000 C   0  0  1  0  0  0  0  0  0  0  0  0
    7.6166   -7.4643    0.0000 C   0  0  2  0  0  0  0  0  0  0  0  0
    7.9186   -8.5913    0.0000 C   0  0  1  0  0  0  0  0  0  0  0  0
    4.3462   -8.1788    0.0000 C   0  0  0  0  0  0  0  0  0  0  0  0
    4.3462   -7.3538    0.0000 O   0  0  0  0  0  0  0  0  0  0  0  0
    3.6317   -8.5913    0.0000 O   0  0  0  0  0  0  0  0  0  0  0  0
    7.8301   -6.6674    0.0000 C   0  0  0  0  0  0  0  0  0  0  0  0
    8.6270   -6.4539    0.0000 C   0  0  0  0  0  0  0  0  0  0  0  0
    8.8405   -5.6570    0.0000 C   0  0  0  0  0  0  0  0  0  0  0  0
    9.6374   -5.4435    0.0000 C   0  0  0  0  0  0  0  0  0  0  0  0
    9.8510   -4.6466    0.0000 C   0  0  0  0  0  0  0  0  0  0  0  0
   10.2208   -6.0269    0.0000 C   0  0  0  0  0  0  0  0  0  0  0  0
    7.0332   -6.8810    0.0000 C   0  0  0  0  0  0  0  0  0  0  0  0
    8.2191  -10.1846    0.0000 C   0  0  0  0  0  0  0  0  0  0  0  0
    4.3462   -9.8288    0.0000 C   0  0  0  0  0  0  0  0  0  0  0  0
    5.7752   -7.3538    0.0000 O   0  0  0  0  0  0  0  0  0  0  0  0
    6.6207   -7.5954    0.0000 H   0  0  0  0  0  0  0  0  0  0  0  0
    8.8209   -7.2130    0.0000 H   0  0  0  0  0  0  0  0  0  0  0  0
    8.7155   -8.8048    0.0000 H   0  0  0  0  0  0  0  0  0  0  0  0
  1  2  1  0  0  0  0
  2  3  1  0  0  0  0
  3  4  2  0  0  0  0
  4  5  1  0  0  0  0
  5  6  2  0  0  0  0
  6  7  1  0  0  0  0
  7  8  1  0  0  0  0
  8  9  1  0  0  0  0
  9 10  1  0  0  0  0
 10 11  1  0  0  0  0
 11 12  1  0  0  0  0
 12 13  1  0  0  0  0
  1 13  1  0  0  0  0
  1 14  1  0  0  0  0
 14  9  1  0  0  0  0
  2  7  2  0  0  0  0
 12 14  1  0  0  0  0
 15 16  2  0  0  0  0
 15 17  1  0  0  0  0
  4 15  1  0  0  0  0
 18 19  1  0  0  0  0
 19 20  1  0  0  0  0
 20 21  2  0  0  0  0
 21 22  1  0  0  0  0
 21 23  1  0  0  0  0
 13 18  1  1  0  0  0
 13 24  1  6  0  0  0
  9 25  1  1  0  0  0
  5 26  1  0  0  0  0
  3 27  1  0  0  0  0
  1 28  1  1  0  0  0
 12 29  1  1  0  0  0
 14 30  1  1  0  0  0
M  END
>  <cdx:fragmentId>
20605

$$$$
