948668.cdx
  Mrv1902 05222410202D          

 29 31  0  0  0  0            999 V2000
    7.9736  -14.6349    0.0000 C   0  0  1  0  0  0  0  0  0  0  0  0
    8.6881  -14.2224    0.0000 C   0  0  1  0  0  0  0  0  0  0  0  0
    8.6881  -13.3974    0.0000 C   0  0  1  0  0  0  0  0  0  0  0  0
    7.9736  -12.9849    0.0000 C   0  0  0  0  0  0  0  0  0  0  0  0
    7.2591  -13.3974    0.0000 C   0  0  0  0  0  0  0  0  0  0  0  0
    7.2591  -14.2224    0.0000 O   0  0  0  0  0  0  0  0  0  0  0  0
    9.4727  -13.1425    0.0000 C   0  0  1  0  0  0  0  0  0  0  0  0
    9.9576  -13.8099    0.0000 C   0  0  0  0  0  0  0  0  0  0  0  0
    9.4727  -14.4774    0.0000 C   0  0  1  0  0  0  0  0  0  0  0  0
    7.9736  -12.1599    0.0000 C   0  0  0  0  0  0  0  0  0  0  0  0
    8.6881  -11.7474    0.0000 O   0  0  0  0  0  0  0  0  0  0  0  0
    7.2591  -11.7474    0.0000 O   0  0  0  0  0  0  0  0  0  0  0  0
    7.9736  -15.4599    0.0000 O   0  0  0  0  0  0  0  0  0  0  0  0
    6.5446  -15.4599    0.0000 O   0  0  0  0  0  0  0  0  0  0  0  0
    7.2591  -15.8724    0.0000 C   0  0  2  0  0  0  0  0  0  0  0  0
    7.2591  -16.6974    0.0000 C   0  0  1  0  0  0  0  0  0  0  0  0
    6.5446  -17.1099    0.0000 C   0  0  2  0  0  0  0  0  0  0  0  0
    5.8302  -16.6974    0.0000 C   0  0  1  0  0  0  0  0  0  0  0  0
    5.8302  -15.8724    0.0000 C   0  0  1  0  0  0  0  0  0  0  0  0
    5.1157  -15.4599    0.0000 C   0  0  0  0  0  0  0  0  0  0  0  0
    4.4012  -15.8724    0.0000 O   0  0  0  0  0  0  0  0  0  0  0  0
    5.1157  -17.1099    0.0000 O   0  0  0  0  0  0  0  0  0  0  0  0
    6.5446  -17.9349    0.0000 O   0  0  0  0  0  0  0  0  0  0  0  0
    7.9736  -17.1099    0.0000 O   0  0  0  0  0  0  0  0  0  0  0  0
    9.3011  -15.2843    0.0000 C   0  0  0  0  0  0  0  0  0  0  0  0
   10.0858  -15.0294    0.0000 O   0  0  0  0  0  0  0  0  0  0  0  0
    9.7276  -12.3579    0.0000 O   0  0  0  0  0  0  0  0  0  0  0  0
    8.7743  -12.5769    0.0000 H   0  0  0  0  0  0  0  0  0  0  0  0
    8.7743  -15.0429    0.0000 H   0  0  0  0  0  0  0  0  0  0  0  0
  1  2  1  0  0  0  0
  2  3  1  0  0  0  0
  3  4  1  0  0  0  0
  4  5  2  0  0  0  0
  5  6  1  0  0  0  0
  1  6  1  0  0  0  0
  7  8  1  0  0  0  0
  8  9  1  0  0  0  0
  9  2  1  0  0  0  0
  7  3  1  0  0  0  0
 10 11  2  0  0  0  0
 10 12  1  0  0  0  0
  4 10  1  0  0  0  0
 14 15  1  0  0  0  0
 15 16  1  0  0  0  0
 16 17  1  0  0  0  0
 17 18  1  0  0  0  0
 18 19  1  0  0  0  0
 14 19  1  0  0  0  0
 20 21  1  0  0  0  0
 19 20  1  1  0  0  0
 18 22  1  6  0  0  0
 17 23  1  1  0  0  0
 16 24  1  6  0  0  0
 15 13  1  1  0  0  0
  1 13  1  6  0  0  0
  9 25  1  1  0  0  0
  9 26  1  6  0  0  0
  7 27  1  6  0  0  0
  3 28  1  6  0  0  0
  2 29  1  6  0  0  0
M  END
>  <cdx:fragmentId>
83012

$$$$
