9487.cdx
  Mrv1902 05222410222D          

 30 33  0  0  0  0            999 V2000
    7.5616   -7.5188    0.0000 C   0  0  2  0  0  0  0  0  0  0  0  0
    6.8471   -7.9313    0.0000 C   0  0  0  0  0  0  0  0  0  0  0  0
    6.1327   -7.5188    0.0000 C   0  0  0  0  0  0  0  0  0  0  0  0
    5.4182   -7.9313    0.0000 C   0  0  0  0  0  0  0  0  0  0  0  0
    5.4182   -8.7563    0.0000 C   0  0  0  0  0  0  0  0  0  0  0  0
    6.1327   -9.1688    0.0000 C   0  0  0  0  0  0  0  0  0  0  0  0
    6.8471   -8.7563    0.0000 C   0  0  0  0  0  0  0  0  0  0  0  0
    7.5616   -9.1688    0.0000 O   0  0  0  0  0  0  0  0  0  0  0  0
    8.2761   -8.7563    0.0000 C   0  0  1  0  0  0  0  0  0  0  0  0
    9.0800   -8.5747    0.0000 C   0  0  0  0  0  0  0  0  0  0  0  0
    9.2935   -7.7778    0.0000 C   0  0  0  0  0  0  0  0  0  0  0  0
    8.6886   -7.2168    0.0000 C   0  0  1  0  0  0  0  0  0  0  0  0
    7.9741   -6.8043    0.0000 C   0  0  1  0  0  0  0  0  0  0  0  0
    8.2761   -7.9313    0.0000 C   0  0  1  0  0  0  0  0  0  0  0  0
    4.7037   -7.5188    0.0000 C   0  0  0  0  0  0  0  0  0  0  0  0
    4.7037   -6.6938    0.0000 O   0  0  0  0  0  0  0  0  0  0  0  0
    3.9892   -7.9313    0.0000 O   0  0  0  0  0  0  0  0  0  0  0  0
    8.1876   -6.0074    0.0000 C   0  0  0  0  0  0  0  0  0  0  0  0
    8.9845   -5.7939    0.0000 C   0  0  0  0  0  0  0  0  0  0  0  0
    9.1980   -4.9970    0.0000 C   0  0  0  0  0  0  0  0  0  0  0  0
    9.9949   -4.7835    0.0000 C   0  0  0  0  0  0  0  0  0  0  0  0
   10.2085   -3.9866    0.0000 C   0  0  0  0  0  0  0  0  0  0  0  0
   10.5783   -5.3669    0.0000 C   0  0  0  0  0  0  0  0  0  0  0  0
    7.3907   -6.2210    0.0000 C   0  0  0  0  0  0  0  0  0  0  0  0
    8.5766   -9.5246    0.0000 C   0  0  0  0  0  0  0  0  0  0  0  0
    4.7037   -9.1688    0.0000 C   0  0  0  0  0  0  0  0  0  0  0  0
    6.1327   -6.6938    0.0000 O   0  0  0  0  0  0  0  0  0  0  0  0
    6.9782   -6.9354    0.0000 H   0  0  0  0  0  0  0  0  0  0  0  0
    9.1784   -6.5530    0.0000 H   0  0  0  0  0  0  0  0  0  0  0  0
    9.0730   -8.1448    0.0000 H   0  0  0  0  0  0  0  0  0  0  0  0
  1  2  1  0  0  0  0
  2  3  1  0  0  0  0
  3  4  2  0  0  0  0
  4  5  1  0  0  0  0
  5  6  2  0  0  0  0
  6  7  1  0  0  0  0
  7  8  1  0  0  0  0
  8  9  1  0  0  0  0
  9 10  1  0  0  0  0
 10 11  1  0  0  0  0
 11 12  1  0  0  0  0
 12 13  1  0  0  0  0
  1 13  1  0  0  0  0
  1 14  1  0  0  0  0
 14  9  1  0  0  0  0
  2  7  2  0  0  0  0
 12 14  1  0  0  0  0
 15 16  2  0  0  0  0
 15 17  1  0  0  0  0
  4 15  1  0  0  0  0
 18 19  1  0  0  0  0
 19 20  1  0  0  0  0
 20 21  2  0  0  0  0
 21 22  1  0  0  0  0
 21 23  1  0  0  0  0
 13 18  1  6  0  0  0
 13 24  1  1  0  0  0
  9 25  1  1  0  0  0
  5 26  1  0  0  0  0
  3 27  1  0  0  0  0
  1 28  1  1  0  0  0
 12 29  1  1  0  0  0
 14 30  1  1  0  0  0
M  END
>  <cdx:fragmentId>
20704

$$$$
