94870.cdx
  Mrv1902 05222410182D          

 69 75  0  0  0  0            999 V2000
   12.2358  -10.6150    0.0000 C   0  0  1  0  0  0  0  0  0  0  0  0
   12.2358   -9.7900    0.0000 C   0  0  0  0  0  0  0  0  0  0  0  0
   12.9503   -9.3775    0.0000 C   0  0  0  0  0  0  0  0  0  0  0  0
   12.9503  -11.0275    0.0000 C   0  0  0  0  0  0  0  0  0  0  0  0
   13.6647  -10.6150    0.0000 C   0  0  0  0  0  0  0  0  0  0  0  0
   14.3792  -11.0275    0.0000 C   0  0  0  0  0  0  0  0  0  0  0  0
   15.0937  -10.6150    0.0000 C   0  0  0  0  0  0  0  0  0  0  0  0
   15.0937   -9.7900    0.0000 C   0  0  1  0  0  0  0  0  0  0  0  0
   15.8082   -9.3775    0.0000 C   0  0  2  0  0  0  0  0  0  0  0  0
   16.5928   -9.6324    0.0000 C   0  0  0  0  0  0  0  0  0  0  0  0
   17.0777   -8.9650    0.0000 C   0  0  1  0  0  0  0  0  0  0  0  0
   16.5928   -8.2976    0.0000 C   0  0  1  0  0  0  0  0  0  0  0  0
   15.8082   -8.5525    0.0000 C   0  0  2  0  0  0  0  0  0  0  0  0
   15.8082   -7.7275    0.0000 C   0  0  0  0  0  0  0  0  0  0  0  0
   15.0937   -8.1400    0.0000 C   0  0  0  0  0  0  0  0  0  0  0  0
   14.3792   -8.5525    0.0000 C   0  0  0  0  0  0  0  0  0  0  0  0
   14.3792   -9.3775    0.0000 C   0  0  2  0  0  0  0  0  0  0  0  0
   13.6647   -9.7900    0.0000 C   0  0  1  0  0  0  0  0  0  0  0  0
   13.6647   -8.9650    0.0000 C   0  0  0  0  0  0  0  0  0  0  0  0
   14.3792  -10.2025    0.0000 H   0  0  0  0  0  0  0  0  0  0  0  0
   15.0937   -8.9650    0.0000 H   0  0  0  0  0  0  0  0  0  0  0  0
   15.8082  -10.2025    0.0000 H   0  0  0  0  0  0  0  0  0  0  0  0
   11.5213  -11.0275    0.0000 O   0  0  0  0  0  0  0  0  0  0  0  0
   10.0921   -9.3633    0.0000 C   0  0  2  0  0  0  0  0  0  0  0  0
    9.3759   -9.7729    0.0000 C   0  0  2  0  0  0  0  0  0  0  0  0
    9.3726  -10.5978    0.0000 C   0  0  1  0  0  0  0  0  0  0  0  0
   10.0853  -11.0133    0.0000 C   0  0  2  0  0  0  0  0  0  0  0  0
   10.8015  -10.6037    0.0000 C   0  0  1  0  0  0  0  0  0  0  0  0
   10.8049   -9.7787    0.0000 O   0  0  0  0  0  0  0  0  0  0  0  0
   10.0955   -8.5383    0.0000 C   0  0  0  0  0  0  0  0  0  0  0  0
    8.6564  -11.0074    0.0000 O   0  0  0  0  0  0  0  0  0  0  0  0
    8.6632   -9.3574    0.0000 O   0  0  0  0  0  0  0  0  0  0  0  0
   10.0820  -11.8383    0.0000 O   0  0  0  0  0  0  0  0  0  0  0  0
    9.3810   -8.1258    0.0000 O   0  0  0  0  0  0  0  0  0  0  0  0
    9.3679  -12.2515    0.0000 C   0  0  2  0  0  0  0  0  0  0  0  0
    8.6547  -11.8368    0.0000 O   0  0  0  0  0  0  0  0  0  0  0  0
    7.9390  -12.2587    0.0000 C   0  0  2  0  0  0  0  0  0  0  0  0
    7.9432  -13.0837    0.0000 C   0  0  1  0  0  0  0  0  0  0  0  0
    8.6632  -13.4984    0.0000 C   0  0  2  0  0  0  0  0  0  0  0  0
    9.3721  -13.0764    0.0000 C   0  0  1  0  0  0  0  0  0  0  0  0
    7.2300  -13.4983    0.0000 O   0  0  0  0  0  0  0  0  0  0  0  0
    7.2217  -11.8513    0.0000 C   0  0  0  0  0  0  0  0  0  0  0  0
    8.6690  -14.3233    0.0000 O   0  0  0  0  0  0  0  0  0  0  0  0
   10.0903  -13.4824    0.0000 O   0  0  0  0  0  0  0  0  0  0  0  0
   16.8477   -7.5129    0.0000 C   0  0  0  0  0  0  0  0  0  0  0  0
   16.2957   -6.8998    0.0000 C   0  0  0  0  0  0  0  0  0  0  0  0
   17.6547   -7.3414    0.0000 O   0  0  0  0  0  0  0  0  0  0  0  0
   16.1803   -7.5831    0.0000 H   0  0  0  0  0  0  0  0  0  0  0  0
   17.6611   -9.5484    0.0000 H   0  0  0  0  0  0  0  0  0  0  0  0
   17.7696   -8.5157    0.0000 O   0  0  0  0  0  0  0  0  0  0  0  0
   18.5047   -8.8902    0.0000 C   0  0  0  0  0  0  0  0  0  0  0  0
   19.1966   -8.4409    0.0000 C   0  0  0  0  0  0  0  0  0  0  0  0
   18.5479   -9.7141    0.0000 O   0  0  0  0  0  0  0  0  0  0  0  0
   19.9317   -8.8154    0.0000 C   0  0  0  0  0  0  0  0  0  0  0  0
   20.6236   -8.3661    0.0000 C   0  0  2  0  0  0  0  0  0  0  0  0
   21.3586   -8.7406    0.0000 C   0  0  0  0  0  0  0  0  0  0  0  0
   20.5804   -7.5422    0.0000 C   0  0  0  0  0  0  0  0  0  0  0  0
   22.0506   -8.2913    0.0000 O   0  0  0  0  0  0  0  0  0  0  0  0
   22.7856   -8.6659    0.0000 C   0  0  2  0  0  0  0  0  0  0  0  0
   22.8288   -9.4897    0.0000 O   0  0  0  0  0  0  0  0  0  0  0  0
   23.5639   -9.8643    0.0000 C   0  0  1  0  0  0  0  0  0  0  0  0
   24.2558   -9.4149    0.0000 C   0  0  2  0  0  0  0  0  0  0  0  0
   24.2126   -8.5911    0.0000 C   0  0  1  0  0  0  0  0  0  0  0  0
   23.4775   -8.2165    0.0000 C   0  0  1  0  0  0  0  0  0  0  0  0
   23.6071  -10.6881    0.0000 C   0  0  0  0  0  0  0  0  0  0  0  0
   24.9045   -8.1417    0.0000 O   0  0  0  0  0  0  0  0  0  0  0  0
   23.4344   -7.3927    0.0000 O   0  0  0  0  0  0  0  0  0  0  0  0
   24.9909   -9.7895    0.0000 O   0  0  0  0  0  0  0  0  0  0  0  0
   24.3421  -11.0627    0.0000 O   0  0  0  0  0  0  0  0  0  0  0  0
  1  2  1  0  0  0  0
  2  3  1  0  0  0  0
  1  4  1  0  0  0  0
  4  5  1  0  0  0  0
  5  6  2  0  0  0  0
  6  7  1  0  0  0  0
  7  8  1  0  0  0  0
  8  9  1  0  0  0  0
  9 10  1  0  0  0  0
 10 11  1  0  0  0  0
 11 12  1  0  0  0  0
 12 13  1  0  0  0  0
  9 13  1  0  0  0  0
 13 14  1  1  0  0  0
 13 15  1  0  0  0  0
 15 16  1  0  0  0  0
 16 17  1  0  0  0  0
  8 17  1  0  0  0  0
 17 18  1  0  0  0  0
  3 18  1  0  0  0  0
  5 18  1  0  0  0  0
 18 19  1  1  0  0  0
 17 20  1  6  0  0  0
  8 21  1  1  0  0  0
  9 22  1  6  0  0  0
  1 23  1  1  0  0  0
 24 25  1  0  0  0  0
 25 26  1  0  0  0  0
 26 27  1  0  0  0  0
 27 28  1  0  0  0  0
 28 29  1  0  0  0  0
 29 24  1  0  0  0  0
 24 30  1  1  0  0  0
 26 31  1  1  0  0  0
 25 32  1  6  0  0  0
 27 33  1  6  0  0  0
 30 34  1  0  0  0  0
 28 23  1  1  0  0  0
 35 33  1  1  0  0  0
 35 36  1  0  0  0  0
 36 37  1  0  0  0  0
 37 38  1  0  0  0  0
 38 39  1  0  0  0  0
 39 40  1  0  0  0  0
 40 35  1  0  0  0  0
 38 41  1  1  0  0  0
 37 42  1  6  0  0  0
 39 43  1  6  0  0  0
 40 44  1  6  0  0  0
 12 45  1  0  0  0  0
 45 46  1  6  0  0  0
 45 47  2  0  0  0  0
 12 48  1  6  0  0  0
 11 49  1  6  0  0  0
 11 50  1  0  0  0  0
 50 51  1  0  0  0  0
 51 52  1  0  0  0  0
 51 53  2  0  0  0  0
 52 54  1  0  0  0  0
 54 55  1  0  0  0  0
 55 56  1  0  0  0  0
 55 57  1  1  0  0  0
 56 58  1  0  0  0  0
 59 58  1  1  0  0  0
 59 60  1  0  0  0  0
 60 61  1  0  0  0  0
 61 62  1  0  0  0  0
 62 63  1  0  0  0  0
 63 64  1  0  0  0  0
 64 59  1  0  0  0  0
 61 65  1  1  0  0  0
 63 66  1  1  0  0  0
 64 67  1  6  0  0  0
 62 68  1  6  0  0  0
 65 69  1  0  0  0  0
M  END
>  <cdx:fragmentId>
5

$$$$
