94884.cdx
  Mrv1902 05222410272D          

 59 64  0  0  0  0            999 V2000
    7.9112   -6.1178    0.0000 C   0  0  0  0  0  0  0  0  0  0  0  0
    7.9112   -6.9428    0.0000 C   0  0  0  0  0  0  0  0  0  0  0  0
    7.1967   -7.3553    0.0000 C   0  0  0  0  0  0  0  0  0  0  0  0
    7.1967   -8.1803    0.0000 O   0  0  0  0  0  0  0  0  0  0  0  0
    6.4822   -6.9428    0.0000 C   0  0  0  0  0  0  0  0  0  0  0  0
    5.7678   -7.3553    0.0000 C   0  0  0  0  0  0  0  0  0  0  0  0
    5.0533   -6.9428    0.0000 C   0  0  0  0  0  0  0  0  0  0  0  0
    5.0533   -6.1178    0.0000 C   0  0  0  0  0  0  0  0  0  0  0  0
    5.7678   -5.7053    0.0000 C   0  0  0  0  0  0  0  0  0  0  0  0
    6.4822   -6.1178    0.0000 C   0  0  0  0  0  0  0  0  0  0  0  0
    7.1967   -5.7053    0.0000 O   0  0  0  0  0  0  0  0  0  0  0  0
    8.6256   -5.7053    0.0000 C   0  0  0  0  0  0  0  0  0  0  0  0
    8.6256   -4.8803    0.0000 C   0  0  0  0  0  0  0  0  0  0  0  0
    9.3401   -4.4678    0.0000 C   0  0  0  0  0  0  0  0  0  0  0  0
   10.0546   -4.8803    0.0000 C   0  0  0  0  0  0  0  0  0  0  0  0
   10.0546   -5.7053    0.0000 C   0  0  0  0  0  0  0  0  0  0  0  0
    9.3401   -6.1178    0.0000 C   0  0  0  0  0  0  0  0  0  0  0  0
    5.7678   -4.8803    0.0000 C   0  0  0  0  0  0  0  0  0  0  0  0
    5.0533   -4.4678    0.0000 C   0  0  0  0  0  0  0  0  0  0  0  0
    5.0533   -3.6428    0.0000 C   0  0  0  0  0  0  0  0  0  0  0  0
    5.7678   -3.2303    0.0000 C   0  0  0  0  0  0  0  0  0  0  0  0
    4.3388   -3.2303    0.0000 C   0  0  0  0  0  0  0  0  0  0  0  0
    4.3388   -5.7053    0.0000 O   0  0  0  0  0  0  0  0  0  0  0  0
    5.7678   -8.1803    0.0000 O   0  0  0  0  0  0  0  0  0  0  0  0
   10.7691   -4.4678    0.0000 O   0  0  0  0  0  0  0  0  0  0  0  0
    8.6256   -7.3553    0.0000 O   0  0  0  0  0  0  0  0  0  0  0  0
    8.6256   -8.1803    0.0000 C   0  0  1  0  0  0  0  0  0  0  0  0
    9.3401   -8.5928    0.0000 C   0  0  2  0  0  0  0  0  0  0  0  0
   10.0546   -8.1803    0.0000 O   0  0  0  0  0  0  0  0  0  0  0  0
    9.3401   -9.4178    0.0000 C   0  0  2  0  0  0  0  0  0  0  0  0
   10.0546   -9.8303    0.0000 O   0  0  0  0  0  0  0  0  0  0  0  0
    8.6256   -9.8303    0.0000 C   0  0  1  0  0  0  0  0  0  0  0  0
    8.6256  -10.6553    0.0000 O   0  0  0  0  0  0  0  0  0  0  0  0
    7.9112   -9.4178    0.0000 C   0  0  1  0  0  0  0  0  0  0  0  0
    7.9112   -8.5928    0.0000 O   0  0  0  0  0  0  0  0  0  0  0  0
    7.1967   -9.8303    0.0000 C   0  0  0  0  0  0  0  0  0  0  0  0
    9.3401  -11.0678    0.0000 C   0  0  0  0  0  0  0  0  0  0  0  0
    9.3401  -11.8928    0.0000 O   0  0  0  0  0  0  0  0  0  0  0  0
   10.0546  -10.6553    0.0000 C   0  0  0  0  0  0  0  0  0  0  0  0
   10.7691   -9.4178    0.0000 C   0  0  1  0  0  0  0  0  0  0  0  0
   11.4835   -9.8303    0.0000 C   0  0  2  0  0  0  0  0  0  0  0  0
   11.4835  -10.6553    0.0000 O   0  0  0  0  0  0  0  0  0  0  0  0
   12.1980   -9.4178    0.0000 C   0  0  1  0  0  0  0  0  0  0  0  0
   12.9125   -9.8303    0.0000 O   0  0  0  0  0  0  0  0  0  0  0  0
   12.1980   -8.5928    0.0000 C   0  0  2  0  0  0  0  0  0  0  0  0
   12.9125   -8.1803    0.0000 O   0  0  0  0  0  0  0  0  0  0  0  0
   11.4835   -8.1803    0.0000 C   0  0  0  0  0  0  0  0  0  0  0  0
   10.7691   -8.5928    0.0000 O   0  0  0  0  0  0  0  0  0  0  0  0
    3.6244   -6.1178    0.0000 C   0  0  2  0  0  0  0  0  0  0  0  0
    2.9099   -5.7053    0.0000 O   0  0  0  0  0  0  0  0  0  0  0  0
    2.1954   -6.1178    0.0000 C   0  0  1  0  0  0  0  0  0  0  0  0
    2.1954   -6.9428    0.0000 C   0  0  2  0  0  0  0  0  0  0  0  0
    2.9099   -7.3553    0.0000 C   0  0  1  0  0  0  0  0  0  0  0  0
    3.6244   -6.9428    0.0000 C   0  0  1  0  0  0  0  0  0  0  0  0
    1.4809   -5.7053    0.0000 C   0  0  0  0  0  0  0  0  0  0  0  0
    2.9099   -8.1803    0.0000 O   0  0  0  0  0  0  0  0  0  0  0  0
    1.4809   -7.3553    0.0000 O   0  0  0  0  0  0  0  0  0  0  0  0
    4.3388   -7.3553    0.0000 O   0  0  0  0  0  0  0  0  0  0  0  0
    0.7665   -6.1178    0.0000 O   0  0  0  0  0  0  0  0  0  0  0  0
  1  2  2  0  0  0  0
  2  3  1  0  0  0  0
  3  4  2  0  0  0  0
  3  5  1  0  0  0  0
  5  6  1  0  0  0  0
  6  7  2  0  0  0  0
  7  8  1  0  0  0  0
  8  9  2  0  0  0  0
  9 10  1  0  0  0  0
  5 10  2  0  0  0  0
 10 11  1  0  0  0  0
  1 11  1  0  0  0  0
  1 12  1  0  0  0  0
 12 13  1  0  0  0  0
 13 14  2  0  0  0  0
 14 15  1  0  0  0  0
 15 16  2  0  0  0  0
 16 17  1  0  0  0  0
 12 17  2  0  0  0  0
 18 19  1  0  0  0  0
 19 20  2  0  0  0  0
 20 21  1  0  0  0  0
 20 22  1  0  0  0  0
  9 18  1  0  0  0  0
  8 23  1  0  0  0  0
  6 24  1  0  0  0  0
 15 25  1  0  0  0  0
 27 26  1  1  0  0  0
 27 28  1  0  0  0  0
 28 29  1  6  0  0  0
 28 30  1  0  0  0  0
 30 31  1  6  0  0  0
 30 32  1  0  0  0  0
 32 33  1  1  0  0  0
 32 34  1  0  0  0  0
 34 35  1  0  0  0  0
 34 36  1  6  0  0  0
 27 35  1  0  0  0  0
 37 38  2  0  0  0  0
 37 39  1  0  0  0  0
 33 37  1  0  0  0  0
 40 41  1  0  0  0  0
 41 42  1  1  0  0  0
 41 43  1  0  0  0  0
 43 44  1  6  0  0  0
 43 45  1  0  0  0  0
 45 46  1  1  0  0  0
 45 47  1  0  0  0  0
 47 48  1  0  0  0  0
 40 48  1  0  0  0  0
 40 31  1  6  0  0  0
  2 26  1  0  0  0  0
 49 23  1  1  0  0  0
 49 50  1  0  0  0  0
 50 51  1  0  0  0  0
 51 52  1  0  0  0  0
 52 53  1  0  0  0  0
 53 54  1  0  0  0  0
 54 49  1  0  0  0  0
 51 55  1  1  0  0  0
 53 56  1  1  0  0  0
 52 57  1  6  0  0  0
 54 58  1  6  0  0  0
 55 59  1  0  0  0  0
M  END
>  <cdx:groupId>
150

>  <cdx:fragmentId>
5

$$$$
