94883.cdx
  Mrv1902 05222410282D          

 48 52  0  0  0  0            999 V2000
    6.4812   -6.6128    0.0000 C   0  0  0  0  0  0  0  0  0  0  0  0
    6.4812   -7.4378    0.0000 C   0  0  0  0  0  0  0  0  0  0  0  0
    5.7667   -7.8503    0.0000 C   0  0  0  0  0  0  0  0  0  0  0  0
    5.7667   -8.6753    0.0000 O   0  0  0  0  0  0  0  0  0  0  0  0
    5.0522   -7.4378    0.0000 C   0  0  0  0  0  0  0  0  0  0  0  0
    4.3378   -7.8503    0.0000 C   0  0  0  0  0  0  0  0  0  0  0  0
    3.6233   -7.4378    0.0000 C   0  0  0  0  0  0  0  0  0  0  0  0
    3.6233   -6.6128    0.0000 C   0  0  0  0  0  0  0  0  0  0  0  0
    4.3378   -6.2003    0.0000 C   0  0  0  0  0  0  0  0  0  0  0  0
    5.0522   -6.6128    0.0000 C   0  0  0  0  0  0  0  0  0  0  0  0
    5.7667   -6.2003    0.0000 O   0  0  0  0  0  0  0  0  0  0  0  0
    7.1956   -6.2003    0.0000 C   0  0  0  0  0  0  0  0  0  0  0  0
    7.1956   -5.3753    0.0000 C   0  0  0  0  0  0  0  0  0  0  0  0
    7.9101   -4.9628    0.0000 C   0  0  0  0  0  0  0  0  0  0  0  0
    8.6246   -5.3753    0.0000 C   0  0  0  0  0  0  0  0  0  0  0  0
    8.6246   -6.2003    0.0000 C   0  0  0  0  0  0  0  0  0  0  0  0
    7.9101   -6.6128    0.0000 C   0  0  0  0  0  0  0  0  0  0  0  0
    4.3378   -5.3753    0.0000 C   0  0  0  0  0  0  0  0  0  0  0  0
    3.6233   -4.9628    0.0000 C   0  0  0  0  0  0  0  0  0  0  0  0
    3.6233   -4.1378    0.0000 C   0  0  0  0  0  0  0  0  0  0  0  0
    4.3378   -3.7253    0.0000 C   0  0  0  0  0  0  0  0  0  0  0  0
    2.9088   -3.7253    0.0000 C   0  0  0  0  0  0  0  0  0  0  0  0
    2.9088   -6.2003    0.0000 O   0  0  0  0  0  0  0  0  0  0  0  0
    4.3378   -8.6753    0.0000 O   0  0  0  0  0  0  0  0  0  0  0  0
    9.3391   -4.9628    0.0000 O   0  0  0  0  0  0  0  0  0  0  0  0
    7.1956   -7.8503    0.0000 O   0  0  0  0  0  0  0  0  0  0  0  0
    7.1956   -8.6753    0.0000 C   0  0  1  0  0  0  0  0  0  0  0  0
    7.9101   -9.0878    0.0000 C   0  0  2  0  0  0  0  0  0  0  0  0
    8.6246   -8.6753    0.0000 O   0  0  0  0  0  0  0  0  0  0  0  0
    7.9101   -9.9128    0.0000 C   0  0  2  0  0  0  0  0  0  0  0  0
    8.6246  -10.3253    0.0000 O   0  0  0  0  0  0  0  0  0  0  0  0
    7.1956  -10.3253    0.0000 C   0  0  1  0  0  0  0  0  0  0  0  0
    7.1956  -11.1503    0.0000 O   0  0  0  0  0  0  0  0  0  0  0  0
    6.4812   -9.9128    0.0000 C   0  0  1  0  0  0  0  0  0  0  0  0
    6.4812   -9.0878    0.0000 O   0  0  0  0  0  0  0  0  0  0  0  0
    5.7667  -10.3253    0.0000 C   0  0  0  0  0  0  0  0  0  0  0  0
    7.9101  -11.5628    0.0000 C   0  0  0  0  0  0  0  0  0  0  0  0
    7.9101  -12.3878    0.0000 O   0  0  0  0  0  0  0  0  0  0  0  0
    8.6246  -11.1503    0.0000 C   0  0  0  0  0  0  0  0  0  0  0  0
    9.3391   -9.9128    0.0000 C   0  0  1  0  0  0  0  0  0  0  0  0
   10.0535  -10.3253    0.0000 C   0  0  2  0  0  0  0  0  0  0  0  0
   10.0535  -11.1503    0.0000 O   0  0  0  0  0  0  0  0  0  0  0  0
   10.7680   -9.9128    0.0000 C   0  0  1  0  0  0  0  0  0  0  0  0
   11.4825  -10.3253    0.0000 O   0  0  0  0  0  0  0  0  0  0  0  0
   10.7680   -9.0878    0.0000 C   0  0  2  0  0  0  0  0  0  0  0  0
   11.4825   -8.6753    0.0000 O   0  0  0  0  0  0  0  0  0  0  0  0
   10.0535   -8.6753    0.0000 C   0  0  0  0  0  0  0  0  0  0  0  0
    9.3391   -9.0878    0.0000 O   0  0  0  0  0  0  0  0  0  0  0  0
  1  2  2  0  0  0  0
  2  3  1  0  0  0  0
  3  4  2  0  0  0  0
  3  5  1  0  0  0  0
  5  6  1  0  0  0  0
  6  7  2  0  0  0  0
  7  8  1  0  0  0  0
  8  9  2  0  0  0  0
  9 10  1  0  0  0  0
  5 10  2  0  0  0  0
 10 11  1  0  0  0  0
  1 11  1  0  0  0  0
  1 12  1  0  0  0  0
 12 13  1  0  0  0  0
 13 14  2  0  0  0  0
 14 15  1  0  0  0  0
 15 16  2  0  0  0  0
 16 17  1  0  0  0  0
 12 17  2  0  0  0  0
 18 19  1  0  0  0  0
 19 20  2  0  0  0  0
 20 21  1  0  0  0  0
 20 22  1  0  0  0  0
  9 18  1  0  0  0  0
  8 23  1  0  0  0  0
  6 24  1  0  0  0  0
 15 25  1  0  0  0  0
 27 26  1  1  0  0  0
 27 28  1  0  0  0  0
 28 29  1  6  0  0  0
 28 30  1  0  0  0  0
 30 31  1  6  0  0  0
 30 32  1  0  0  0  0
 32 33  1  1  0  0  0
 32 34  1  0  0  0  0
 34 35  1  0  0  0  0
 34 36  1  6  0  0  0
 27 35  1  0  0  0  0
 37 38  2  0  0  0  0
 37 39  1  0  0  0  0
 33 37  1  0  0  0  0
 40 41  1  0  0  0  0
 41 42  1  1  0  0  0
 41 43  1  0  0  0  0
 43 44  1  6  0  0  0
 43 45  1  0  0  0  0
 45 46  1  1  0  0  0
 45 47  1  0  0  0  0
 47 48  1  0  0  0  0
 40 48  1  0  0  0  0
 40 31  1  6  0  0  0
  2 26  1  0  0  0  0
M  END
>  <cdx:groupId>
150

>  <cdx:fragmentId>
5

$$$$
