94882.cdx
  Mrv1902 05222410282D          

 57 62  0  0  0  0            999 V2000
   15.5511   -8.2232    0.0000 C   0  0  0  0  0  0  0  0  0  0  0  0
   16.1179   -8.8072    0.0000 C   0  0  0  0  0  0  0  0  0  0  0  0
   12.2204  -10.6718    0.0000 C   0  0  0  0  0  0  0  0  0  0  0  0
   11.5060  -11.0843    0.0000 C   0  0  0  0  0  0  0  0  0  0  0  0
   11.5060  -11.9093    0.0000 C   0  0  1  0  0  0  0  0  0  0  0  0
   12.2204  -12.3218    0.0000 C   0  0  0  0  0  0  0  0  0  0  0  0
   12.9349  -11.9093    0.0000 C   0  0  2  0  0  0  0  0  0  0  0  0
   13.6494  -12.3218    0.0000 C   0  0  2  0  0  0  0  0  0  0  0  0
   14.3638  -11.9093    0.0000 C   0  0  0  0  0  0  0  0  0  0  0  0
   14.3638  -11.0843    0.0000 C   0  0  1  0  0  0  0  0  0  0  0  0
   15.0783  -10.6718    0.0000 C   0  0  2  0  0  0  0  0  0  0  0  0
   15.8629  -10.9267    0.0000 C   0  0  0  0  0  0  0  0  0  0  0  0
   16.3479  -10.2593    0.0000 C   0  0  0  0  0  0  0  0  0  0  0  0
   15.8629   -9.5919    0.0000 C   0  0  1  0  0  0  0  0  0  0  0  0
   15.0783   -9.8468    0.0000 C   0  0  1  0  0  0  0  0  0  0  0  0
   14.3638   -9.4343    0.0000 C   0  0  1  0  0  0  0  0  0  0  0  0
   13.6494   -9.8468    0.0000 C   0  0  0  0  0  0  0  0  0  0  0  0
   13.6494  -10.6718    0.0000 C   0  0  2  0  0  0  0  0  0  0  0  0
   12.9349  -11.0843    0.0000 C   0  0  1  0  0  0  0  0  0  0  0  0
   15.0783  -11.4968    0.0000 C   0  0  0  0  0  0  0  0  0  0  0  0
   12.9349  -10.2593    0.0000 C   0  0  0  0  0  0  0  0  0  0  0  0
   14.3638  -10.2593    0.0000 C   0  0  0  0  0  0  0  0  0  0  0  0
   12.6329  -13.0363    0.0000 C   0  0  0  0  0  0  0  0  0  0  0  0
   11.8079  -13.0363    0.0000 C   0  0  0  0  0  0  0  0  0  0  0  0
   14.3638   -8.6093    0.0000 O   0  0  0  0  0  0  0  0  0  0  0  0
   10.7915  -12.3218    0.0000 O   0  0  0  0  0  0  0  0  0  0  0  0
   12.9349  -12.7343    0.0000 H   0  0  0  0  0  0  0  0  0  0  0  0
   13.6494  -11.4968    0.0000 H   0  0  0  0  0  0  0  0  0  0  0  0
   15.1646   -9.0263    0.0000 H   0  0  0  0  0  0  0  0  0  0  0  0
   16.6778   -9.4628    0.0000 H   0  0  0  0  0  0  0  0  0  0  0  0
   16.9249   -8.6357    0.0000 C   0  0  0  0  0  0  0  0  0  0  0  0
   13.6494  -13.1468    0.0000 O   0  0  0  0  0  0  0  0  0  0  0  0
   13.2368  -13.8613    0.0000 C   0  0  2  0  0  0  0  0  0  0  0  0
   12.4118  -13.8612    0.0000 O   0  0  0  0  0  0  0  0  0  0  0  0
   11.9993  -14.5756    0.0000 C   0  0  1  0  0  0  0  0  0  0  0  0
   12.4117  -15.2901    0.0000 C   0  0  2  0  0  0  0  0  0  0  0  0
   13.2367  -15.2902    0.0000 C   0  0  1  0  0  0  0  0  0  0  0  0
   13.6493  -14.5758    0.0000 C   0  0  1  0  0  0  0  0  0  0  0  0
   11.1743  -14.5756    0.0000 C   0  0  0  0  0  0  0  0  0  0  0  0
   13.6492  -16.0047    0.0000 O   0  0  0  0  0  0  0  0  0  0  0  0
   11.9992  -16.0046    0.0000 O   0  0  0  0  0  0  0  0  0  0  0  0
   14.4743  -14.5758    0.0000 O   0  0  0  0  0  0  0  0  0  0  0  0
   10.7617  -15.2900    0.0000 O   0  0  0  0  0  0  0  0  0  0  0  0
   14.8867  -15.2903    0.0000 C   0  0  2  0  0  0  0  0  0  0  0  0
   14.4742  -16.0048    0.0000 O   0  0  0  0  0  0  0  0  0  0  0  0
   14.8866  -16.7193    0.0000 C   0  0  0  0  0  0  0  0  0  0  0  0
   15.7116  -16.7193    0.0000 C   0  0  2  0  0  0  0  0  0  0  0  0
   16.1242  -16.0049    0.0000 C   0  0  1  0  0  0  0  0  0  0  0  0
   15.7117  -15.2904    0.0000 C   0  0  1  0  0  0  0  0  0  0  0  0
   16.1241  -17.4338    0.0000 O   0  0  0  0  0  0  0  0  0  0  0  0
   16.9492  -16.0049    0.0000 O   0  0  0  0  0  0  0  0  0  0  0  0
   16.1243  -14.5759    0.0000 O   0  0  0  0  0  0  0  0  0  0  0  0
   17.1798   -7.8511    0.0000 C   0  0  0  0  0  0  0  0  0  0  0  0
   17.9868   -7.6796    0.0000 C   0  0  0  0  0  0  0  0  0  0  0  0
   18.5388   -8.2927    0.0000 C   0  0  0  0  0  0  0  0  0  0  0  0
   19.3458   -8.1211    0.0000 C   0  0  0  0  0  0  0  0  0  0  0  0
   18.2839   -9.0773    0.0000 C   0  0  0  0  0  0  0  0  0  0  0  0
  3  4  1  0  0  0  0
  4  5  1  0  0  0  0
  5  6  1  0  0  0  0
  6  7  1  0  0  0  0
  7  8  1  0  0  0  0
  8  9  1  0  0  0  0
  9 10  1  0  0  0  0
 10 11  1  0  0  0  0
 11 12  1  0  0  0  0
 12 13  1  0  0  0  0
 14 13  1  0  0  0  0
 14 15  1  0  0  0  0
 11 15  1  0  0  0  0
 15 16  1  0  0  0  0
 16 17  1  0  0  0  0
 17 18  1  0  0  0  0
 10 18  1  0  0  0  0
 18 19  1  0  0  0  0
  7 19  1  0  0  0  0
  3 19  1  0  0  0  0
 11 20  1  6  0  0  0
 19 21  1  1  0  0  0
 10 22  1  1  0  0  0
  6 23  1  0  0  0  0
  6 24  1  0  0  0  0
 16 25  1  1  0  0  0
  5 26  1  1  0  0  0
  2 14  1  0  0  0  0
  7 27  1  6  0  0  0
 18 28  1  6  0  0  0
 15 29  1  1  0  0  0
 14 30  1  6  0  0  0
  2 31  2  0  0  0  0
  1  2  1  0  0  0  0
  8 32  1  6  0  0  0
 33 32  1  1  0  0  0
 33 34  1  0  0  0  0
 34 35  1  0  0  0  0
 35 36  1  0  0  0  0
 36 37  1  0  0  0  0
 37 38  1  0  0  0  0
 38 33  1  0  0  0  0
 35 39  1  1  0  0  0
 37 40  1  1  0  0  0
 36 41  1  6  0  0  0
 38 42  1  6  0  0  0
 39 43  1  0  0  0  0
 44 42  1  1  0  0  0
 44 45  1  0  0  0  0
 45 46  1  0  0  0  0
 46 47  1  0  0  0  0
 47 48  1  0  0  0  0
 48 49  1  0  0  0  0
 49 44  1  0  0  0  0
 47 50  1  6  0  0  0
 48 51  1  1  0  0  0
 49 52  1  6  0  0  0
 31 53  1  0  0  0  0
 53 54  1  0  0  0  0
 54 55  2  0  0  0  0
 55 56  1  0  0  0  0
 55 57  1  0  0  0  0
M  END
>  <cdx:fragmentId>
31943

$$$$
