94887.cdx
  Mrv1902 05222410262D          

 59 64  0  0  0  0            999 V2000
    8.0899   -6.9910    0.0000 C   0  0  0  0  0  0  0  0  0  0  0  0
    8.0899   -7.8160    0.0000 C   0  0  0  0  0  0  0  0  0  0  0  0
    7.3755   -8.2285    0.0000 C   0  0  0  0  0  0  0  0  0  0  0  0
    7.3755   -9.0535    0.0000 O   0  0  0  0  0  0  0  0  0  0  0  0
    6.6610   -7.8160    0.0000 C   0  0  0  0  0  0  0  0  0  0  0  0
    5.9465   -8.2285    0.0000 C   0  0  0  0  0  0  0  0  0  0  0  0
    5.2320   -7.8160    0.0000 C   0  0  0  0  0  0  0  0  0  0  0  0
    5.2320   -6.9910    0.0000 C   0  0  0  0  0  0  0  0  0  0  0  0
    5.9465   -6.5785    0.0000 C   0  0  0  0  0  0  0  0  0  0  0  0
    6.6610   -6.9910    0.0000 C   0  0  0  0  0  0  0  0  0  0  0  0
    7.3755   -6.5785    0.0000 O   0  0  0  0  0  0  0  0  0  0  0  0
    8.8044   -6.5785    0.0000 C   0  0  0  0  0  0  0  0  0  0  0  0
    9.5189   -6.9910    0.0000 C   0  0  0  0  0  0  0  0  0  0  0  0
   10.2333   -6.5785    0.0000 C   0  0  0  0  0  0  0  0  0  0  0  0
   10.2333   -5.7535    0.0000 C   0  0  0  0  0  0  0  0  0  0  0  0
    9.5189   -5.3410    0.0000 C   0  0  0  0  0  0  0  0  0  0  0  0
    8.8044   -5.7535    0.0000 C   0  0  0  0  0  0  0  0  0  0  0  0
    5.9465   -5.7535    0.0000 C   0  0  0  0  0  0  0  0  0  0  0  0
    5.2320   -5.3410    0.0000 C   0  0  0  0  0  0  0  0  0  0  0  0
    5.2320   -4.5160    0.0000 C   0  0  0  0  0  0  0  0  0  0  0  0
    5.9465   -4.1035    0.0000 C   0  0  0  0  0  0  0  0  0  0  0  0
    4.5176   -4.1035    0.0000 C   0  0  0  0  0  0  0  0  0  0  0  0
    4.5176   -6.5785    0.0000 O   0  0  0  0  0  0  0  0  0  0  0  0
    5.9465   -9.0535    0.0000 O   0  0  0  0  0  0  0  0  0  0  0  0
   10.9478   -5.3410    0.0000 O   0  0  0  0  0  0  0  0  0  0  0  0
   11.6623   -5.7535    0.0000 C   0  0  0  0  0  0  0  0  0  0  0  0
    8.8044   -8.2285    0.0000 O   0  0  0  0  0  0  0  0  0  0  0  0
    8.8044   -9.0535    0.0000 C   0  0  1  0  0  0  0  0  0  0  0  0
    9.5189   -9.4660    0.0000 C   0  0  2  0  0  0  0  0  0  0  0  0
   10.2333   -9.0535    0.0000 O   0  0  0  0  0  0  0  0  0  0  0  0
    9.5189  -10.2910    0.0000 C   0  0  2  0  0  0  0  0  0  0  0  0
   10.2333  -10.7035    0.0000 O   0  0  0  0  0  0  0  0  0  0  0  0
    8.8044  -10.7035    0.0000 C   0  0  1  0  0  0  0  0  0  0  0  0
    8.8044  -11.5285    0.0000 O   0  0  0  0  0  0  0  0  0  0  0  0
    8.0899  -10.2910    0.0000 C   0  0  1  0  0  0  0  0  0  0  0  0
    8.0899   -9.4660    0.0000 O   0  0  0  0  0  0  0  0  0  0  0  0
    7.3755  -10.7035    0.0000 C   0  0  0  0  0  0  0  0  0  0  0  0
   10.9478   -9.4660    0.0000 C   0  0  1  0  0  0  0  0  0  0  0  0
   11.6623   -9.0535    0.0000 C   0  0  2  0  0  0  0  0  0  0  0  0
   11.6623   -8.2285    0.0000 O   0  0  0  0  0  0  0  0  0  0  0  0
   12.3768   -9.4660    0.0000 C   0  0  2  0  0  0  0  0  0  0  0  0
   13.0912   -9.0535    0.0000 O   0  0  0  0  0  0  0  0  0  0  0  0
   12.3768  -10.2910    0.0000 C   0  0  1  0  0  0  0  0  0  0  0  0
   13.0912  -10.7035    0.0000 O   0  0  0  0  0  0  0  0  0  0  0  0
   11.6623  -10.7035    0.0000 C   0  0  1  0  0  0  0  0  0  0  0  0
   10.9478  -10.2910    0.0000 O   0  0  0  0  0  0  0  0  0  0  0  0
   11.6623  -11.5285    0.0000 C   0  0  0  0  0  0  0  0  0  0  0  0
    4.5176   -3.2785    0.0000 O   0  0  0  0  0  0  0  0  0  0  0  0
    3.8031   -6.9910    0.0000 C   0  0  2  0  0  0  0  0  0  0  0  0
    3.0886   -6.5785    0.0000 O   0  0  0  0  0  0  0  0  0  0  0  0
    2.3742   -6.9910    0.0000 C   0  0  1  0  0  0  0  0  0  0  0  0
    2.3742   -7.8160    0.0000 C   0  0  2  0  0  0  0  0  0  0  0  0
    3.0886   -8.2285    0.0000 C   0  0  1  0  0  0  0  0  0  0  0  0
    3.8031   -7.8160    0.0000 C   0  0  1  0  0  0  0  0  0  0  0  0
    1.6597   -6.5785    0.0000 C   0  0  0  0  0  0  0  0  0  0  0  0
    3.0886   -9.0535    0.0000 O   0  0  0  0  0  0  0  0  0  0  0  0
    1.6597   -8.2285    0.0000 O   0  0  0  0  0  0  0  0  0  0  0  0
    4.5176   -8.2285    0.0000 O   0  0  0  0  0  0  0  0  0  0  0  0
    0.9452   -6.9910    0.0000 O   0  0  0  0  0  0  0  0  0  0  0  0
  1  2  2  0  0  0  0
  2  3  1  0  0  0  0
  3  4  2  0  0  0  0
  3  5  1  0  0  0  0
  5  6  1  0  0  0  0
  6  7  2  0  0  0  0
  7  8  1  0  0  0  0
  8  9  2  0  0  0  0
  9 10  1  0  0  0  0
  5 10  2  0  0  0  0
 10 11  1  0  0  0  0
  1 11  1  0  0  0  0
  1 12  1  0  0  0  0
 12 13  1  0  0  0  0
 13 14  2  0  0  0  0
 14 15  1  0  0  0  0
 15 16  2  0  0  0  0
 16 17  1  0  0  0  0
 12 17  2  0  0  0  0
 18 19  1  0  0  0  0
 19 20  2  0  0  0  0
 20 21  1  0  0  0  0
 20 22  1  0  0  0  0
  9 18  1  0  0  0  0
  8 23  1  0  0  0  0
  6 24  1  0  0  0  0
 25 26  1  0  0  0  0
 15 25  1  0  0  0  0
 28 27  1  1  0  0  0
 28 29  1  0  0  0  0
 29 30  1  6  0  0  0
 29 31  1  0  0  0  0
 31 32  1  6  0  0  0
 31 33  1  0  0  0  0
 33 34  1  1  0  0  0
 33 35  1  0  0  0  0
 35 36  1  0  0  0  0
 35 37  1  6  0  0  0
 28 36  1  0  0  0  0
 38 39  1  0  0  0  0
 39 40  1  6  0  0  0
 39 41  1  0  0  0  0
 41 42  1  6  0  0  0
 41 43  1  0  0  0  0
 43 44  1  1  0  0  0
 43 45  1  0  0  0  0
 45 46  1  0  0  0  0
 45 47  1  6  0  0  0
 38 46  1  0  0  0  0
 38 30  1  1  0  0  0
  2 27  1  0  0  0  0
 22 48  1  0  0  0  0
 49 23  1  1  0  0  0
 49 50  1  0  0  0  0
 50 51  1  0  0  0  0
 51 52  1  0  0  0  0
 52 53  1  0  0  0  0
 53 54  1  0  0  0  0
 54 49  1  0  0  0  0
 51 55  1  1  0  0  0
 53 56  1  1  0  0  0
 52 57  1  6  0  0  0
 54 58  1  6  0  0  0
 55 59  1  0  0  0  0
M  END
>  <cdx:groupId>
150

>  <cdx:fragmentId>
5

$$$$
