94886.cdx
  Mrv1902 05222410262D          

 48 52  0  0  0  0            999 V2000
    6.4812   -7.5822    0.0000 C   0  0  0  0  0  0  0  0  0  0  0  0
    6.4812   -8.4072    0.0000 C   0  0  0  0  0  0  0  0  0  0  0  0
    5.7667   -8.8197    0.0000 C   0  0  0  0  0  0  0  0  0  0  0  0
    5.7667   -9.6447    0.0000 O   0  0  0  0  0  0  0  0  0  0  0  0
    5.0522   -8.4072    0.0000 C   0  0  0  0  0  0  0  0  0  0  0  0
    4.3378   -8.8197    0.0000 C   0  0  0  0  0  0  0  0  0  0  0  0
    3.6233   -8.4072    0.0000 C   0  0  0  0  0  0  0  0  0  0  0  0
    3.6233   -7.5822    0.0000 C   0  0  0  0  0  0  0  0  0  0  0  0
    4.3378   -7.1697    0.0000 C   0  0  0  0  0  0  0  0  0  0  0  0
    5.0522   -7.5822    0.0000 C   0  0  0  0  0  0  0  0  0  0  0  0
    5.7667   -7.1697    0.0000 O   0  0  0  0  0  0  0  0  0  0  0  0
    7.1956   -7.1697    0.0000 C   0  0  0  0  0  0  0  0  0  0  0  0
    7.9101   -7.5822    0.0000 C   0  0  0  0  0  0  0  0  0  0  0  0
    8.6246   -7.1697    0.0000 C   0  0  0  0  0  0  0  0  0  0  0  0
    8.6246   -6.3447    0.0000 C   0  0  0  0  0  0  0  0  0  0  0  0
    7.9101   -5.9322    0.0000 C   0  0  0  0  0  0  0  0  0  0  0  0
    7.1956   -6.3447    0.0000 C   0  0  0  0  0  0  0  0  0  0  0  0
    4.3378   -6.3447    0.0000 C   0  0  0  0  0  0  0  0  0  0  0  0
    3.6233   -5.9322    0.0000 C   0  0  0  0  0  0  0  0  0  0  0  0
    3.6233   -5.1072    0.0000 C   0  0  0  0  0  0  0  0  0  0  0  0
    4.3378   -4.6947    0.0000 C   0  0  0  0  0  0  0  0  0  0  0  0
    2.9088   -4.6947    0.0000 C   0  0  0  0  0  0  0  0  0  0  0  0
    2.9088   -7.1697    0.0000 O   0  0  0  0  0  0  0  0  0  0  0  0
    4.3378   -9.6447    0.0000 O   0  0  0  0  0  0  0  0  0  0  0  0
    9.3391   -7.5822    0.0000 O   0  0  0  0  0  0  0  0  0  0  0  0
    9.3391   -5.9322    0.0000 O   0  0  0  0  0  0  0  0  0  0  0  0
   10.0535   -6.3447    0.0000 C   0  0  0  0  0  0  0  0  0  0  0  0
    7.1956   -8.8197    0.0000 O   0  0  0  0  0  0  0  0  0  0  0  0
    7.1956   -9.6447    0.0000 C   0  0  1  0  0  0  0  0  0  0  0  0
    7.9101  -10.0572    0.0000 C   0  0  2  0  0  0  0  0  0  0  0  0
    8.6246   -9.6447    0.0000 O   0  0  0  0  0  0  0  0  0  0  0  0
    7.9101  -10.8822    0.0000 C   0  0  2  0  0  0  0  0  0  0  0  0
    8.6246  -11.2947    0.0000 O   0  0  0  0  0  0  0  0  0  0  0  0
    7.1956  -11.2947    0.0000 C   0  0  1  0  0  0  0  0  0  0  0  0
    7.1956  -12.1197    0.0000 O   0  0  0  0  0  0  0  0  0  0  0  0
    6.4812  -10.8822    0.0000 C   0  0  1  0  0  0  0  0  0  0  0  0
    6.4812  -10.0572    0.0000 O   0  0  0  0  0  0  0  0  0  0  0  0
    5.7667  -11.2947    0.0000 C   0  0  0  0  0  0  0  0  0  0  0  0
    9.3391  -10.0572    0.0000 C   0  0  1  0  0  0  0  0  0  0  0  0
   10.0535   -9.6447    0.0000 C   0  0  2  0  0  0  0  0  0  0  0  0
   10.0535   -8.8197    0.0000 O   0  0  0  0  0  0  0  0  0  0  0  0
   10.7680  -10.0572    0.0000 C   0  0  2  0  0  0  0  0  0  0  0  0
   11.4825   -9.6447    0.0000 O   0  0  0  0  0  0  0  0  0  0  0  0
   10.7680  -10.8822    0.0000 C   0  0  1  0  0  0  0  0  0  0  0  0
   11.4825  -11.2947    0.0000 O   0  0  0  0  0  0  0  0  0  0  0  0
   10.0535  -11.2947    0.0000 C   0  0  1  0  0  0  0  0  0  0  0  0
    9.3391  -10.8822    0.0000 O   0  0  0  0  0  0  0  0  0  0  0  0
   10.0535  -12.1197    0.0000 C   0  0  0  0  0  0  0  0  0  0  0  0
  1  2  2  0  0  0  0
  2  3  1  0  0  0  0
  3  4  2  0  0  0  0
  3  5  1  0  0  0  0
  5  6  1  0  0  0  0
  6  7  2  0  0  0  0
  7  8  1  0  0  0  0
  8  9  2  0  0  0  0
  9 10  1  0  0  0  0
  5 10  2  0  0  0  0
 10 11  1  0  0  0  0
  1 11  1  0  0  0  0
  1 12  1  0  0  0  0
 12 13  1  0  0  0  0
 13 14  2  0  0  0  0
 14 15  1  0  0  0  0
 15 16  2  0  0  0  0
 16 17  1  0  0  0  0
 12 17  2  0  0  0  0
 18 19  1  0  0  0  0
 19 20  2  0  0  0  0
 20 21  1  0  0  0  0
 20 22  1  0  0  0  0
  9 18  1  0  0  0  0
  8 23  1  0  0  0  0
  6 24  1  0  0  0  0
 14 25  1  0  0  0  0
 26 27  1  0  0  0  0
 15 26  1  0  0  0  0
 29 28  1  1  0  0  0
 29 30  1  0  0  0  0
 30 31  1  6  0  0  0
 30 32  1  0  0  0  0
 32 33  1  6  0  0  0
 32 34  1  0  0  0  0
 34 35  1  1  0  0  0
 34 36  1  0  0  0  0
 36 37  1  0  0  0  0
 36 38  1  6  0  0  0
 29 37  1  0  0  0  0
 39 40  1  0  0  0  0
 40 41  1  6  0  0  0
 40 42  1  0  0  0  0
 42 43  1  6  0  0  0
 42 44  1  0  0  0  0
 44 45  1  1  0  0  0
 44 46  1  0  0  0  0
 46 47  1  0  0  0  0
 46 48  1  6  0  0  0
 39 47  1  0  0  0  0
 39 31  1  1  0  0  0
  2 28  1  0  0  0  0
M  END
>  <cdx:groupId>
150

>  <cdx:fragmentId>
5

$$$$
