9488.cdx
  Mrv1902 05222410232D          

 44 49  0  0  0  0            999 V2000
    4.1902  -11.5706    0.0000 C   0  0  0  0  0  0  0  0  0  0  0  0
    4.1902  -12.3956    0.0000 C   0  0  0  0  0  0  0  0  0  0  0  0
    4.9046  -12.8081    0.0000 C   0  0  0  0  0  0  0  0  0  0  0  0
    5.6191  -12.3956    0.0000 C   0  0  0  0  0  0  0  0  0  0  0  0
    5.6191  -11.5706    0.0000 C   0  0  0  0  0  0  0  0  0  0  0  0
    4.9046  -11.1581    0.0000 C   0  0  0  0  0  0  0  0  0  0  0  0
    6.3336  -12.8081    0.0000 C   0  0  0  0  0  0  0  0  0  0  0  0
    7.0480  -12.3956    0.0000 C   0  0  0  0  0  0  0  0  0  0  0  0
    7.0480  -11.5706    0.0000 N   0  0  0  0  0  0  0  0  0  0  0  0
    6.3336  -11.1581    0.0000 C   0  0  2  0  0  0  0  0  0  0  0  0
    7.7625  -11.1581    0.0000 C   0  0  0  0  0  0  0  0  0  0  0  0
    7.7625  -10.3331    0.0000 C   0  0  0  0  0  0  0  0  0  0  0  0
    7.0480   -9.9206    0.0000 C   0  0  0  0  0  0  0  0  0  0  0  0
    6.3336  -10.3331    0.0000 C   0  0  0  0  0  0  0  0  0  0  0  0
    8.4770   -9.9206    0.0000 C   0  0  0  0  0  0  0  0  0  0  0  0
    8.4770   -9.0956    0.0000 C   0  0  0  0  0  0  0  0  0  0  0  0
    7.7625   -8.6831    0.0000 C   0  0  0  0  0  0  0  0  0  0  0  0
    7.0480   -9.0956    0.0000 C   0  0  0  0  0  0  0  0  0  0  0  0
    9.1915   -8.6831    0.0000 O   0  0  0  0  0  0  0  0  0  0  0  0
    9.1915   -7.8581    0.0000 C   0  0  0  0  0  0  0  0  0  0  0  0
    8.4770   -7.4456    0.0000 C   0  0  0  0  0  0  0  0  0  0  0  0
    9.9059   -7.4456    0.0000 C   0  0  0  0  0  0  0  0  0  0  0  0
    9.9059   -6.6206    0.0000 C   0  0  0  0  0  0  0  0  0  0  0  0
    9.1915   -6.2081    0.0000 C   0  0  0  0  0  0  0  0  0  0  0  0
    8.4770   -6.6206    0.0000 C   0  0  0  0  0  0  0  0  0  0  0  0
    9.1915   -5.3831    0.0000 C   0  0  0  0  0  0  0  0  0  0  0  0
    8.4770   -4.9706    0.0000 N   0  0  0  0  0  0  0  0  0  0  0  0
    7.7625   -5.3831    0.0000 C   0  0  2  0  0  0  0  0  0  0  0  0
    7.7625   -6.2081    0.0000 C   0  0  0  0  0  0  0  0  0  0  0  0
    8.4770   -4.1456    0.0000 C   0  0  0  0  0  0  0  0  0  0  0  0
    7.7625   -3.7331    0.0000 C   0  0  0  0  0  0  0  0  0  0  0  0
    7.0480   -4.1456    0.0000 C   0  0  0  0  0  0  0  0  0  0  0  0
    7.0480   -4.9706    0.0000 C   0  0  0  0  0  0  0  0  0  0  0  0
    6.3336   -3.7331    0.0000 C   0  0  0  0  0  0  0  0  0  0  0  0
    5.6191   -4.1456    0.0000 C   0  0  0  0  0  0  0  0  0  0  0  0
    5.6191   -4.9706    0.0000 C   0  0  0  0  0  0  0  0  0  0  0  0
    6.3336   -5.3831    0.0000 C   0  0  0  0  0  0  0  0  0  0  0  0
    3.4757  -11.1581    0.0000 O   0  0  0  0  0  0  0  0  0  0  0  0
    3.4757  -12.8081    0.0000 O   0  0  0  0  0  0  0  0  0  0  0  0
    3.4757  -13.6331    0.0000 C   0  0  0  0  0  0  0  0  0  0  0  0
   10.6204   -7.8581    0.0000 O   0  0  0  0  0  0  0  0  0  0  0  0
    4.9046   -3.7331    0.0000 O   0  0  0  0  0  0  0  0  0  0  0  0
    4.9046   -5.3831    0.0000 O   0  0  0  0  0  0  0  0  0  0  0  0
    4.1902   -4.9706    0.0000 C   0  0  0  0  0  0  0  0  0  0  0  0
  1  2  2  0  0  0  0
  2  3  1  0  0  0  0
  3  4  2  0  0  0  0
  4  5  1  0  0  0  0
  5  6  2  0  0  0  0
  6  1  1  0  0  0  0
  4  7  1  0  0  0  0
  7  8  1  0  0  0  0
  8  9  1  0  0  0  0
  9 10  1  0  0  0  0
 10  5  1  0  0  0  0
  9 11  1  0  0  0  0
 12 13  1  0  0  0  0
 13 14  1  0  0  0  0
 10 14  1  1  0  0  0
 12 15  2  0  0  0  0
 15 16  1  0  0  0  0
 16 17  2  0  0  0  0
 17 18  1  0  0  0  0
 18 13  2  0  0  0  0
 16 19  1  0  0  0  0
 19 20  1  0  0  0  0
 20 21  1  0  0  0  0
 20 22  2  0  0  0  0
 22 23  1  0  0  0  0
 23 24  2  0  0  0  0
 24 25  1  0  0  0  0
 25 21  2  0  0  0  0
 26 27  1  0  0  0  0
 27 28  1  0  0  0  0
 28 29  1  6  0  0  0
 29 25  1  0  0  0  0
 27 30  1  0  0  0  0
 30 31  1  0  0  0  0
 31 32  1  0  0  0  0
 32 33  1  0  0  0  0
 33 28  1  0  0  0  0
 32 34  2  0  0  0  0
 34 35  1  0  0  0  0
 35 36  2  0  0  0  0
 36 37  1  0  0  0  0
 37 33  2  0  0  0  0
  1 38  1  0  0  0  0
  2 39  1  0  0  0  0
 39 40  1  0  0  0  0
 22 41  1  0  0  0  0
 35 42  1  0  0  0  0
 36 43  1  0  0  0  0
 43 44  1  0  0  0  0
M  END
>  <cdx:fragmentId>
5

$$$$
