94894.cdx
  Mrv1902 05222410272D          

 25 27  0  0  0  0            999 V2000
    7.4383   -8.0081    0.0000 C   0  0  0  0  0  0  0  0  0  0  0  0
    7.4383   -8.8331    0.0000 C   0  0  0  0  0  0  0  0  0  0  0  0
    6.7239   -9.2456    0.0000 C   0  0  0  0  0  0  0  0  0  0  0  0
    6.7239  -10.0706    0.0000 O   0  0  0  0  0  0  0  0  0  0  0  0
    6.0094   -8.8331    0.0000 C   0  0  0  0  0  0  0  0  0  0  0  0
    5.2949   -9.2456    0.0000 C   0  0  0  0  0  0  0  0  0  0  0  0
    4.5805   -8.8331    0.0000 C   0  0  0  0  0  0  0  0  0  0  0  0
    4.5805   -8.0081    0.0000 C   0  0  0  0  0  0  0  0  0  0  0  0
    3.8660   -7.5956    0.0000 O   0  0  0  0  0  0  0  0  0  0  0  0
    5.2949   -7.5956    0.0000 C   0  0  0  0  0  0  0  0  0  0  0  0
    6.0094   -8.0081    0.0000 C   0  0  0  0  0  0  0  0  0  0  0  0
    6.7239   -7.5956    0.0000 O   0  0  0  0  0  0  0  0  0  0  0  0
    8.1528   -7.5956    0.0000 C   0  0  0  0  0  0  0  0  0  0  0  0
    8.8673   -8.0081    0.0000 C   0  0  0  0  0  0  0  0  0  0  0  0
    9.5818   -7.5956    0.0000 C   0  0  0  0  0  0  0  0  0  0  0  0
    9.5818   -6.7706    0.0000 C   0  0  0  0  0  0  0  0  0  0  0  0
   10.2962   -6.3581    0.0000 O   0  0  0  0  0  0  0  0  0  0  0  0
    8.8673   -6.3581    0.0000 C   0  0  0  0  0  0  0  0  0  0  0  0
    8.1528   -6.7706    0.0000 C   0  0  0  0  0  0  0  0  0  0  0  0
    5.2949  -10.0706    0.0000 O   0  0  0  0  0  0  0  0  0  0  0  0
    4.5805  -10.4831    0.0000 C   0  0  0  0  0  0  0  0  0  0  0  0
    8.1528   -9.2456    0.0000 O   0  0  0  0  0  0  0  0  0  0  0  0
    8.1528  -10.0706    0.0000 C   0  0  0  0  0  0  0  0  0  0  0  0
   10.2962   -8.0081    0.0000 O   0  0  0  0  0  0  0  0  0  0  0  0
   11.0107   -7.5956    0.0000 C   0  0  0  0  0  0  0  0  0  0  0  0
  1  2  2  0  0  0  0
  2  3  1  0  0  0  0
  3  4  2  0  0  0  0
  3  5  1  0  0  0  0
  5  6  1  0  0  0  0
  6  7  2  0  0  0  0
  7  8  1  0  0  0  0
  8  9  1  0  0  0  0
  8 10  2  0  0  0  0
 10 11  1  0  0  0  0
  5 11  2  0  0  0  0
 11 12  1  0  0  0  0
  1 12  1  0  0  0  0
  1 13  1  0  0  0  0
 13 14  2  0  0  0  0
 14 15  1  0  0  0  0
 15 16  2  0  0  0  0
 16 17  1  0  0  0  0
 16 18  1  0  0  0  0
 18 19  2  0  0  0  0
 13 19  1  0  0  0  0
  6 20  1  0  0  0  0
 20 21  1  0  0  0  0
  2 22  1  0  0  0  0
 22 23  1  0  0  0  0
 15 24  1  0  0  0  0
 24 25  1  0  0  0  0
M  END
>  <cdx:groupId>
88

>  <cdx:fragmentId>
5

$$$$
