94895.cdx
  Mrv1902 05222410272D          

 38 38  0  0  0  0            999 V2000
   22.2049  -10.3897    0.0000 C   0  0  0  0  0  0  0  0  0  0  0  0
   21.4904  -10.8022    0.0000 C   0  0  0  0  0  0  0  0  0  0  0  0
   20.7760  -10.3897    0.0000 C   0  0  0  0  0  0  0  0  0  0  0  0
   20.0615  -10.8022    0.0000 C   0  0  0  0  0  0  0  0  0  0  0  0
   19.3470  -10.3897    0.0000 C   0  0  0  0  0  0  0  0  0  0  0  0
   18.6325  -10.8022    0.0000 C   0  0  0  0  0  0  0  0  0  0  0  0
   17.9181  -10.3897    0.0000 C   0  0  0  0  0  0  0  0  0  0  0  0
   17.2036  -10.8022    0.0000 C   0  0  0  0  0  0  0  0  0  0  0  0
   16.4891  -10.3897    0.0000 C   0  0  0  0  0  0  0  0  0  0  0  0
   15.7747  -10.8022    0.0000 C   0  0  0  0  0  0  0  0  0  0  0  0
   15.0602  -10.3897    0.0000 C   0  0  0  0  0  0  0  0  0  0  0  0
   14.3457  -10.8022    0.0000 C   0  0  0  0  0  0  0  0  0  0  0  0
   13.6312  -10.3897    0.0000 C   0  0  0  0  0  0  0  0  0  0  0  0
   12.9168  -10.8022    0.0000 C   0  0  0  0  0  0  0  0  0  0  0  0
   12.2023  -10.3897    0.0000 C   0  0  0  0  0  0  0  0  0  0  0  0
   11.4878  -10.8022    0.0000 C   0  0  0  0  0  0  0  0  0  0  0  0
   10.7734  -10.3897    0.0000 C   0  0  0  0  0  0  0  0  0  0  0  0
   10.0589  -10.8022    0.0000 C   0  0  0  0  0  0  0  0  0  0  0  0
    9.3444  -10.3897    0.0000 C   0  0  0  0  0  0  0  0  0  0  0  0
    8.6299  -10.8022    0.0000 C   0  0  0  0  0  0  0  0  0  0  0  0
    7.9155  -10.3897    0.0000 C   0  0  0  0  0  0  0  0  0  0  0  0
    7.2010  -10.8022    0.0000 C   0  0  0  0  0  0  0  0  0  0  0  0
   22.2049   -9.5647    0.0000 O   0  0  0  0  0  0  0  0  0  0  0  0
   22.9194  -10.8022    0.0000 O   0  0  0  0  0  0  0  0  0  0  0  0
    6.4865  -10.3897    0.0000 O   0  0  0  0  0  0  0  0  0  0  0  0
    5.7721  -10.8022    0.0000 C   0  0  0  0  0  0  0  0  0  0  0  0
    5.0576  -10.3897    0.0000 C   0  0  0  0  0  0  0  0  0  0  0  0
    4.3431  -10.8022    0.0000 C   0  0  0  0  0  0  0  0  0  0  0  0
    5.7721  -11.6272    0.0000 O   0  0  0  0  0  0  0  0  0  0  0  0
    3.6286  -10.3897    0.0000 C   0  0  0  0  0  0  0  0  0  0  0  0
    2.9142  -10.8022    0.0000 C   0  0  0  0  0  0  0  0  0  0  0  0
    2.1997  -10.3897    0.0000 C   0  0  0  0  0  0  0  0  0  0  0  0
    2.1997   -9.5647    0.0000 C   0  0  0  0  0  0  0  0  0  0  0  0
    2.9142   -9.1522    0.0000 C   0  0  0  0  0  0  0  0  0  0  0  0
    3.6286   -9.5647    0.0000 C   0  0  0  0  0  0  0  0  0  0  0  0
    1.4852  -10.8022    0.0000 O   0  0  0  0  0  0  0  0  0  0  0  0
    0.7708  -10.3897    0.0000 C   0  0  0  0  0  0  0  0  0  0  0  0
    1.4852   -9.1522    0.0000 O   0  0  0  0  0  0  0  0  0  0  0  0
  1  2  1  0  0  0  0
  2  3  1  0  0  0  0
  3  4  1  0  0  0  0
  4  5  1  0  0  0  0
  5  6  1  0  0  0  0
  6  7  1  0  0  0  0
  7  8  1  0  0  0  0
  8  9  1  0  0  0  0
  9 10  1  0  0  0  0
 10 11  1  0  0  0  0
 11 12  1  0  0  0  0
 12 13  1  0  0  0  0
 13 14  1  0  0  0  0
 14 15  1  0  0  0  0
 15 16  1  0  0  0  0
 16 17  1  0  0  0  0
 17 18  1  0  0  0  0
 18 19  1  0  0  0  0
 19 20  1  0  0  0  0
 20 21  1  0  0  0  0
 21 22  1  0  0  0  0
  1 23  2  0  0  0  0
  1 24  1  0  0  0  0
 26 27  1  0  0  0  0
 27 28  2  0  0  0  0
 26 29  2  0  0  0  0
 30 31  1  0  0  0  0
 31 32  2  0  0  0  0
 32 33  1  0  0  0  0
 33 34  2  0  0  0  0
 34 35  1  0  0  0  0
 30 35  2  0  0  0  0
 36 37  1  0  0  0  0
 32 36  1  0  0  0  0
 33 38  1  0  0  0  0
 28 30  1  0  0  0  0
 25 26  1  0  0  0  0
 22 25  1  0  0  0  0
M  END
>  <cdx:fragmentId>
5

$$$$
