94896.cdx
  Mrv1902 05222410282D          

 40 44  0  0  0  0            999 V2000
    3.1468   -8.8688    0.0000 C   0  0  0  0  0  0  0  0  0  0  0  0
    3.1468   -9.6937    0.0000 C   0  0  0  0  0  0  0  0  0  0  0  0
    3.8613  -10.1063    0.0000 C   0  0  0  0  0  0  0  0  0  0  0  0
    4.5757   -9.6937    0.0000 C   0  0  0  0  0  0  0  0  0  0  0  0
    4.5757   -8.8688    0.0000 C   0  0  0  0  0  0  0  0  0  0  0  0
    3.8613   -8.4563    0.0000 C   0  0  0  0  0  0  0  0  0  0  0  0
    5.2902  -10.1063    0.0000 C   0  0  0  0  0  0  0  0  0  0  0  0
    6.0047   -9.6937    0.0000 C   0  0  0  0  0  0  0  0  0  0  0  0
    6.0047   -8.8688    0.0000 C   0  0  0  0  0  0  0  0  0  0  0  0
    5.2902   -8.4563    0.0000 C   0  0  0  0  0  0  0  0  0  0  0  0
    6.7192   -8.4563    0.0000 C   0  0  0  0  0  0  0  0  0  0  0  0
    6.7192   -7.6313    0.0000 C   0  0  0  0  0  0  0  0  0  0  0  0
    6.0047   -7.2188    0.0000 C   0  0  0  0  0  0  0  0  0  0  0  0
    5.2902   -7.6313    0.0000 C   0  0  0  0  0  0  0  0  0  0  0  0
    8.3168   -9.0750    0.0000 C   0  0  0  0  0  0  0  0  0  0  0  0
    8.3168   -9.9000    0.0000 C   0  0  0  0  0  0  0  0  0  0  0  0
    9.0313  -10.3125    0.0000 C   0  0  0  0  0  0  0  0  0  0  0  0
    9.7457   -9.9000    0.0000 C   0  0  0  0  0  0  0  0  0  0  0  0
    9.0313   -8.6625    0.0000 C   0  0  0  0  0  0  0  0  0  0  0  0
   10.4602  -11.1375    0.0000 C   0  0  0  0  0  0  0  0  0  0  0  0
   10.4602  -10.3125    0.0000 C   0  0  0  0  0  0  0  0  0  0  0  0
   11.1747  -11.5500    0.0000 C   0  0  0  0  0  0  0  0  0  0  0  0
   11.8892  -11.1375    0.0000 C   0  0  0  0  0  0  0  0  0  0  0  0
   11.8892  -10.3125    0.0000 C   0  0  0  0  0  0  0  0  0  0  0  0
   11.1747   -9.9000    0.0000 C   0  0  0  0  0  0  0  0  0  0  0  0
    9.0313   -7.8375    0.0000 C   0  0  0  0  0  0  0  0  0  0  0  0
    8.3168   -7.4250    0.0000 C   0  0  0  0  0  0  0  0  0  0  0  0
    9.0313   -6.1875    0.0000 C   0  0  0  0  0  0  0  0  0  0  0  0
    8.3168   -6.6000    0.0000 C   0  0  0  0  0  0  0  0  0  0  0  0
    9.0313   -5.3625    0.0000 C   0  0  0  0  0  0  0  0  0  0  0  0
    8.3168   -4.9500    0.0000 C   0  0  0  0  0  0  0  0  0  0  0  0
    7.6023   -5.3625    0.0000 C   0  0  0  0  0  0  0  0  0  0  0  0
    7.6023   -6.1875    0.0000 C   0  0  0  0  0  0  0  0  0  0  0  0
    8.3168   -4.1250    0.0000 O   0  0  0  0  0  0  0  0  0  0  0  0
    2.4323  -10.1063    0.0000 O   0  0  0  0  0  0  0  0  0  0  0  0
    4.5757   -7.2188    0.0000 O   0  0  0  0  0  0  0  0  0  0  0  0
    4.5757   -6.3937    0.0000 C   0  0  0  0  0  0  0  0  0  0  0  0
    7.4336   -7.2188    0.0000 O   0  0  0  0  0  0  0  0  0  0  0  0
    7.6023  -10.3125    0.0000 O   0  0  0  0  0  0  0  0  0  0  0  0
   12.6036  -11.5500    0.0000 O   0  0  0  0  0  0  0  0  0  0  0  0
  1  2  2  0  0  0  0
  2  3  1  0  0  0  0
  3  4  2  0  0  0  0
  4  5  1  0  0  0  0
  5  6  2  0  0  0  0
  6  1  1  0  0  0  0
  4  7  1  0  0  0  0
  7  8  1  0  0  0  0
  8  9  1  0  0  0  0
  9 10  2  0  0  0  0
 10  5  1  0  0  0  0
  9 11  1  0  0  0  0
 11 12  2  0  0  0  0
 12 13  1  0  0  0  0
 13 14  2  0  0  0  0
 14 10  1  0  0  0  0
 15 16  1  0  0  0  0
 16 17  1  0  0  0  0
 17 18  1  0  0  0  0
 19 15  2  0  0  0  0
 20 21  2  0  0  0  0
 21 18  1  0  0  0  0
 20 22  1  0  0  0  0
 22 23  2  0  0  0  0
 23 24  1  0  0  0  0
 24 25  2  0  0  0  0
 25 21  1  0  0  0  0
 19 26  1  0  0  0  0
 26 27  2  0  0  0  0
 28 29  2  0  0  0  0
 29 27  1  0  0  0  0
 28 30  1  0  0  0  0
 30 31  2  0  0  0  0
 31 32  1  0  0  0  0
 32 33  2  0  0  0  0
 33 29  1  0  0  0  0
 31 34  1  0  0  0  0
  2 35  1  0  0  0  0
 14 36  1  0  0  0  0
 36 37  1  0  0  0  0
 12 38  1  0  0  0  0
 16 39  2  0  0  0  0
 23 40  1  0  0  0  0
 11 15  1  0  0  0  0
M  END
>  <cdx:fragmentId>
49

$$$$
