94892.cdx
  Mrv1902 05222410262D          

 20 22  0  0  0  0            999 V2000
    8.7741   -8.6710    0.0000 C   0  0  0  0  0  0  0  0  0  0  0  0
    8.7741   -7.8460    0.0000 C   0  0  0  0  0  0  0  0  0  0  0  0
    8.0596   -7.4335    0.0000 C   0  0  0  0  0  0  0  0  0  0  0  0
    7.3451   -7.8460    0.0000 C   0  0  0  0  0  0  0  0  0  0  0  0
    7.3451   -8.6710    0.0000 C   0  0  0  0  0  0  0  0  0  0  0  0
    6.6307   -9.0835    0.0000 C   0  0  0  0  0  0  0  0  0  0  0  0
    5.9162   -8.6710    0.0000 C   0  0  0  0  0  0  0  0  0  0  0  0
    5.2017   -9.0835    0.0000 C   0  0  0  0  0  0  0  0  0  0  0  0
    5.2017   -9.9085    0.0000 C   0  0  0  0  0  0  0  0  0  0  0  0
    5.9162  -10.3210    0.0000 C   0  0  0  0  0  0  0  0  0  0  0  0
    6.6307   -9.9085    0.0000 C   0  0  0  0  0  0  0  0  0  0  0  0
    7.3451  -10.3210    0.0000 C   0  0  0  0  0  0  0  0  0  0  0  0
    8.0596   -9.9085    0.0000 C   0  0  0  0  0  0  0  0  0  0  0  0
    8.0596   -9.0835    0.0000 C   0  0  0  0  0  0  0  0  0  0  0  0
    8.0596   -6.6085    0.0000 O   0  0  0  0  0  0  0  0  0  0  0  0
    4.4873  -10.3210    0.0000 O   0  0  0  0  0  0  0  0  0  0  0  0
    6.6307   -7.4335    0.0000 O   0  0  0  0  0  0  0  0  0  0  0  0
    5.9162   -7.8460    0.0000 C   0  0  0  0  0  0  0  0  0  0  0  0
    9.4885   -7.4335    0.0000 O   0  0  0  0  0  0  0  0  0  0  0  0
   10.2030   -7.8460    0.0000 C   0  0  0  0  0  0  0  0  0  0  0  0
  1  2  1  0  0  0  0
  2  3  2  0  0  0  0
  3  4  1  0  0  0  0
  4  5  2  0  0  0  0
  5  6  1  0  0  0  0
  6  7  2  0  0  0  0
  7  8  1  0  0  0  0
  8  9  2  0  0  0  0
  9 10  1  0  0  0  0
 10 11  2  0  0  0  0
  6 11  1  0  0  0  0
 11 12  1  0  0  0  0
 12 13  2  0  0  0  0
 13 14  1  0  0  0  0
  1 14  2  0  0  0  0
  5 14  1  0  0  0  0
  3 15  1  0  0  0  0
  9 16  1  0  0  0  0
 17 18  1  0  0  0  0
  4 17  1  0  0  0  0
 19 20  1  0  0  0  0
  2 19  1  0  0  0  0
M  END
>  <cdx:groupId>
64

>  <cdx:fragmentId>
5

$$$$
