94899.cdx
  Mrv1902 05222410192D          

 15 17  0  0  0  0            999 V2000
    7.5563   -8.0437    0.0000 C   0  0  0  0  0  0  0  0  0  0  0  0
    8.2708   -8.4563    0.0000 C   0  0  0  0  0  0  0  0  0  0  0  0
    8.2708   -9.2813    0.0000 C   0  0  0  0  0  0  0  0  0  0  0  0
    7.5563   -9.6937    0.0000 C   0  0  0  0  0  0  0  0  0  0  0  0
    6.8419   -9.2812    0.0000 C   0  0  0  0  0  0  0  0  0  0  0  0
    6.1274   -9.6937    0.0000 C   0  0  0  0  0  0  0  0  0  0  0  0
    5.4129   -9.2813    0.0000 C   0  0  0  0  0  0  0  0  0  0  0  0
    5.4129   -8.4562    0.0000 C   0  0  0  0  0  0  0  0  0  0  0  0
    6.1274   -8.0437    0.0000 C   0  0  0  0  0  0  0  0  0  0  0  0
    6.8419   -8.4562    0.0000 C   0  0  0  0  0  0  0  0  0  0  0  0
    8.2708   -7.6313    0.0000 C   0  0  0  0  0  0  0  0  0  0  0  0
    6.1274   -7.2187    0.0000 C   0  0  0  0  0  0  0  0  0  0  0  0
    6.8419  -10.1062    0.0000 C   0  0  0  0  0  0  0  0  0  0  0  0
    8.2708   -6.8062    0.0000 C   0  0  0  0  0  0  0  0  0  0  0  0
    8.9853   -7.2188    0.0000 C   0  0  0  0  0  0  0  0  0  0  0  0
  1  2  1  0  0  0  0
  2  3  1  0  0  0  0
  3  4  1  0  0  0  0
  4  5  1  0  0  0  0
  5  6  1  0  0  0  0
  6  7  1  0  0  0  0
  7  8  1  0  0  0  0
  8  9  1  0  0  0  0
  9 10  1  0  0  0  0
  1 10  1  0  0  0  0
  5 10  1  0  0  0  0
 11  1  1  0  0  0  0
 11  2  1  0  0  0  0
  9 12  2  0  0  0  0
  5 13  1  0  0  0  0
 11 14  1  0  0  0  0
 11 15  1  0  0  0  0
M  END
>  <cdx:groupId>
49

>  <cdx:fragmentId>
5

$$$$
