94893.cdx
  Mrv1902 05222410262D          

 20 21  0  0  0  0            999 V2000
    6.6307   -8.2585    0.0000 C   0  0  0  0  0  0  0  0  0  0  0  0
    5.9162   -7.8460    0.0000 C   0  0  0  0  0  0  0  0  0  0  0  0
    5.9162   -7.0210    0.0000 C   0  0  0  0  0  0  0  0  0  0  0  0
    5.2017   -6.6085    0.0000 C   0  0  0  0  0  0  0  0  0  0  0  0
    4.4873   -7.0210    0.0000 C   0  0  0  0  0  0  0  0  0  0  0  0
    4.4873   -7.8460    0.0000 C   0  0  0  0  0  0  0  0  0  0  0  0
    5.2017   -8.2585    0.0000 C   0  0  0  0  0  0  0  0  0  0  0  0
    7.3451   -7.8460    0.0000 C   0  0  0  0  0  0  0  0  0  0  0  0
    8.0596   -8.2585    0.0000 C   0  0  0  0  0  0  0  0  0  0  0  0
    8.7741   -7.8460    0.0000 C   0  0  0  0  0  0  0  0  0  0  0  0
    9.4885   -8.2585    0.0000 C   0  0  0  0  0  0  0  0  0  0  0  0
    9.4885   -9.0835    0.0000 C   0  0  0  0  0  0  0  0  0  0  0  0
    8.7741   -9.4960    0.0000 C   0  0  0  0  0  0  0  0  0  0  0  0
    8.0596   -9.0835    0.0000 C   0  0  0  0  0  0  0  0  0  0  0  0
   10.2030   -7.8460    0.0000 O   0  0  0  0  0  0  0  0  0  0  0  0
   10.9175   -8.2585    0.0000 C   0  0  0  0  0  0  0  0  0  0  0  0
    8.7741  -10.3210    0.0000 O   0  0  0  0  0  0  0  0  0  0  0  0
    8.7741   -7.0210    0.0000 O   0  0  0  0  0  0  0  0  0  0  0  0
    3.7728   -8.2585    0.0000 O   0  0  0  0  0  0  0  0  0  0  0  0
    6.6307   -6.6085    0.0000 O   0  0  0  0  0  0  0  0  0  0  0  0
  1  2  1  0  0  0  0
  2  3  1  0  0  0  0
  3  4  2  0  0  0  0
  4  5  1  0  0  0  0
  5  6  2  0  0  0  0
  6  7  1  0  0  0  0
  2  7  2  0  0  0  0
  8  9  1  0  0  0  0
  9 10  1  0  0  0  0
 10 11  2  0  0  0  0
 11 12  1  0  0  0  0
 12 13  2  0  0  0  0
 13 14  1  0  0  0  0
  9 14  2  0  0  0  0
  1  8  1  0  0  0  0
 15 16  1  0  0  0  0
 11 15  1  0  0  0  0
 13 17  1  0  0  0  0
 10 18  1  0  0  0  0
  6 19  1  0  0  0  0
  3 20  1  0  0  0  0
M  END
>  <cdx:groupId>
63

>  <cdx:fragmentId>
19

$$$$
