94898.cdx
  Mrv1902 05222410192D          

 23 24  0  0  0  0            999 V2000
    7.5494   -8.2585    0.0000 C   0  0  0  0  0  0  0  0  0  0  0  0
    6.8350   -8.6710    0.0000 C   0  0  0  0  0  0  0  0  0  0  0  0
    6.1205   -8.2585    0.0000 C   0  0  0  0  0  0  0  0  0  0  0  0
    5.4060   -8.6710    0.0000 C   0  0  0  0  0  0  0  0  0  0  0  0
    4.6916   -8.2585    0.0000 C   0  0  0  0  0  0  0  0  0  0  0  0
    3.9771   -8.6710    0.0000 C   0  0  0  0  0  0  0  0  0  0  0  0
    3.2626   -8.2585    0.0000 O   0  0  0  0  0  0  0  0  0  0  0  0
    2.5482   -8.6710    0.0000 C   0  0  0  0  0  0  0  0  0  0  0  0
    3.9771   -9.4960    0.0000 C   0  0  0  0  0  0  0  0  0  0  0  0
    3.2626   -9.9085    0.0000 O   0  0  0  0  0  0  0  0  0  0  0  0
    4.6916   -9.9085    0.0000 C   0  0  0  0  0  0  0  0  0  0  0  0
    5.4060   -9.4960    0.0000 C   0  0  0  0  0  0  0  0  0  0  0  0
    7.5494   -7.4335    0.0000 O   0  0  0  0  0  0  0  0  0  0  0  0
    8.2639   -8.6710    0.0000 O   0  0  0  0  0  0  0  0  0  0  0  0
    8.9784   -8.2585    0.0000 C   0  0  0  0  0  0  0  0  0  0  0  0
    9.6929   -8.6710    0.0000 C   0  0  0  0  0  0  0  0  0  0  0  0
   10.4073   -8.2585    0.0000 C   0  0  0  0  0  0  0  0  0  0  0  0
   11.1218   -8.6710    0.0000 C   0  0  0  0  0  0  0  0  0  0  0  0
   11.8363   -8.2585    0.0000 C   0  0  0  0  0  0  0  0  0  0  0  0
   11.8363   -7.4335    0.0000 C   0  0  0  0  0  0  0  0  0  0  0  0
   11.1218   -7.0210    0.0000 C   0  0  0  0  0  0  0  0  0  0  0  0
   10.4073   -7.4335    0.0000 C   0  0  0  0  0  0  0  0  0  0  0  0
   12.5507   -7.0210    0.0000 O   0  0  0  0  0  0  0  0  0  0  0  0
  1  2  1  0  0  0  0
  2  3  2  0  0  0  0
  3  4  1  0  0  0  0
  4  5  1  0  0  0  0
  5  6  2  0  0  0  0
  6  7  1  0  0  0  0
  7  8  1  0  0  0  0
  6  9  1  0  0  0  0
  9 10  1  0  0  0  0
  9 11  2  0  0  0  0
 11 12  1  0  0  0  0
  4 12  2  0  0  0  0
  1 13  2  0  0  0  0
  1 14  1  0  0  0  0
 15 16  1  0  0  0  0
 16 17  1  0  0  0  0
 17 18  1  0  0  0  0
 18 19  2  0  0  0  0
 19 20  1  0  0  0  0
 20 21  2  0  0  0  0
 21 22  1  0  0  0  0
 17 22  2  0  0  0  0
 14 15  1  0  0  0  0
 20 23  1  0  0  0  0
M  END
>  <cdx:groupId>
72

>  <cdx:fragmentId>
5

$$$$
