94907.cdx
  Mrv1902 05222410192D          

 27 29  0  0  0  0            999 V2000
    6.3287   -8.6981    0.0000 C   0  0  0  0  0  0  0  0  0  0  0  0
    7.1170   -8.4549    0.0000 O   0  0  0  0  0  0  0  0  0  0  0  0
    7.7987   -8.9197    0.0000 C   0  0  0  0  0  0  0  0  0  0  0  0
    7.8603   -9.7423    0.0000 C   0  0  0  0  0  0  0  0  0  0  0  0
    7.2556  -10.3035    0.0000 C   0  0  0  0  0  0  0  0  0  0  0  0
    6.4398  -10.1805    0.0000 O   0  0  0  0  0  0  0  0  0  0  0  0
    6.0273   -9.4661    0.0000 C   0  0  0  0  0  0  0  0  0  0  0  0
    6.3287   -9.7673    0.0000 C   0  0  0  0  0  0  0  0  0  0  0  0
    8.5132   -8.5072    0.0000 C   0  0  0  0  0  0  0  0  0  0  0  0
    8.5132   -7.6822    0.0000 O   0  0  0  0  0  0  0  0  0  0  0  0
    9.2276   -8.9197    0.0000 O   0  0  0  0  0  0  0  0  0  0  0  0
    5.6142  -10.1798    0.0000 O   0  0  0  0  0  0  0  0  0  0  0  0
    7.7987   -8.0947    0.0000 O   0  0  0  0  0  0  0  0  0  0  0  0
    5.2023   -9.4661    0.0000 C   0  0  0  0  0  0  0  0  0  0  0  0
    4.7898   -8.7516    0.0000 O   0  0  0  0  0  0  0  0  0  0  0  0
    3.9648   -8.7516    0.0000 C   0  0  0  0  0  0  0  0  0  0  0  0
    3.5523   -8.0371    0.0000 C   0  0  0  0  0  0  0  0  0  0  0  0
    2.7273   -8.0371    0.0000 C   0  0  0  0  0  0  0  0  0  0  0  0
    2.3148   -7.3226    0.0000 C   0  0  0  0  0  0  0  0  0  0  0  0
    2.7273   -6.6082    0.0000 C   0  0  0  0  0  0  0  0  0  0  0  0
    3.5523   -6.6082    0.0000 C   0  0  0  0  0  0  0  0  0  0  0  0
    3.9648   -7.3226    0.0000 C   0  0  0  0  0  0  0  0  0  0  0  0
    3.5523   -9.4661    0.0000 O   0  0  0  0  0  0  0  0  0  0  0  0
    9.9421   -8.5072    0.0000 C   0  0  0  0  0  0  0  0  0  0  0  0
   10.6566   -8.9197    0.0000 C   0  0  0  0  0  0  0  0  0  0  0  0
   11.3710   -8.5072    0.0000 C   0  0  0  0  0  0  0  0  0  0  0  0
   12.0855   -8.9197    0.0000 C   0  0  0  0  0  0  0  0  0  0  0  0
  1  2  1  0  0  0  0
  2  3  1  0  0  0  0
  3  4  1  0  0  0  0
  4  5  1  0  0  0  0
  5  6  1  0  0  0  0
  6  7  1  0  0  0  0
  1  7  1  0  0  0  0
  1  8  1  0  0  0  0
  8  5  1  0  0  0  0
  9 10  2  0  0  0  0
  9 11  1  0  0  0  0
  3  9  1  0  0  0  0
  8 12  1  0  0  0  0
  3 13  1  0  0  0  0
 16 17  1  0  0  0  0
 17 18  1  0  0  0  0
 18 19  2  0  0  0  0
 19 20  1  0  0  0  0
 20 21  2  0  0  0  0
 21 22  1  0  0  0  0
 17 22  2  0  0  0  0
 16 23  2  0  0  0  0
 15 16  1  0  0  0  0
 14 15  1  0  0  0  0
  7 14  1  0  0  0  0
 24 25  1  0  0  0  0
 25 26  1  0  0  0  0
 26 27  1  0  0  0  0
 11 24  1  0  0  0  0
M  END
>  <cdx:groupId>
85

>  <cdx:fragmentId>
5

$$$$
