94906.cdx
  Mrv1902 05222410182D          

 43 46  0  0  0  0            999 V2000
    7.5529   -9.0835    0.0000 C   0  0  0  0  0  0  0  0  0  0  0  0
    6.8384   -9.4960    0.0000 C   0  0  0  0  0  0  0  0  0  0  0  0
    6.1239   -9.0835    0.0000 C   0  0  0  0  0  0  0  0  0  0  0  0
    5.4095   -9.4960    0.0000 C   0  0  0  0  0  0  0  0  0  0  0  0
    5.4095  -10.3210    0.0000 C   0  0  0  0  0  0  0  0  0  0  0  0
    6.1239  -10.7335    0.0000 C   0  0  0  0  0  0  0  0  0  0  0  0
    6.8384  -10.3210    0.0000 C   0  0  0  0  0  0  0  0  0  0  0  0
    7.5529   -8.2585    0.0000 O   0  0  0  0  0  0  0  0  0  0  0  0
    8.2674   -9.4960    0.0000 O   0  0  0  0  0  0  0  0  0  0  0  0
    7.5529  -10.7335    0.0000 O   0  0  0  0  0  0  0  0  0  0  0  0
    6.1239   -8.2585    0.0000 O   0  0  0  0  0  0  0  0  0  0  0  0
    6.8384   -7.8460    0.0000 C   0  0  0  0  0  0  0  0  0  0  0  0
    4.6950   -9.0835    0.0000 O   0  0  0  0  0  0  0  0  0  0  0  0
    3.9805   -9.4960    0.0000 C   0  0  0  0  0  0  0  0  0  0  0  0
    3.9805  -10.3210    0.0000 C   0  0  2  0  0  0  0  0  0  0  0  0
    4.6950  -10.7335    0.0000 O   0  0  0  0  0  0  0  0  0  0  0  0
    3.2661  -10.7335    0.0000 C   0  0  1  0  0  0  0  0  0  0  0  0
    3.2661  -11.5585    0.0000 O   0  0  0  0  0  0  0  0  0  0  0  0
    2.5516  -10.3210    0.0000 C   0  0  2  0  0  0  0  0  0  0  0  0
    1.8371  -10.7335    0.0000 O   0  0  0  0  0  0  0  0  0  0  0  0
    2.5516   -9.4960    0.0000 C   0  0  2  0  0  0  0  0  0  0  0  0
    3.2661   -9.0835    0.0000 O   0  0  0  0  0  0  0  0  0  0  0  0
    1.8371   -9.0835    0.0000 C   0  0  0  0  0  0  0  0  0  0  0  0
    1.1226   -9.4960    0.0000 O   0  0  0  0  0  0  0  0  0  0  0  0
    8.9818   -9.0835    0.0000 C   0  0  0  0  0  0  0  0  0  0  0  0
    9.6963   -9.4960    0.0000 C   0  0  0  0  0  0  0  0  0  0  0  0
   10.4108   -9.0835    0.0000 C   0  0  0  0  0  0  0  0  0  0  0  0
   11.1252   -9.4960    0.0000 C   0  0  0  0  0  0  0  0  0  0  0  0
   11.1252  -10.3210    0.0000 C   0  0  0  0  0  0  0  0  0  0  0  0
   10.4108  -10.7335    0.0000 C   0  0  0  0  0  0  0  0  0  0  0  0
    9.6963  -10.3210    0.0000 C   0  0  0  0  0  0  0  0  0  0  0  0
   10.4108   -8.2585    0.0000 O   0  0  0  0  0  0  0  0  0  0  0  0
   11.1252   -7.8460    0.0000 C   0  0  1  0  0  0  0  0  0  0  0  0
   11.8397   -8.2585    0.0000 C   0  0  2  0  0  0  0  0  0  0  0  0
   11.8397   -9.0835    0.0000 O   0  0  0  0  0  0  0  0  0  0  0  0
   12.5542   -7.8460    0.0000 C   0  0  1  0  0  0  0  0  0  0  0  0
   13.2687   -8.2585    0.0000 O   0  0  0  0  0  0  0  0  0  0  0  0
   12.5542   -7.0210    0.0000 C   0  0  2  0  0  0  0  0  0  0  0  0
   13.2687   -6.6085    0.0000 O   0  0  0  0  0  0  0  0  0  0  0  0
   11.8397   -6.6085    0.0000 C   0  0  2  0  0  0  0  0  0  0  0  0
   11.1252   -7.0210    0.0000 O   0  0  0  0  0  0  0  0  0  0  0  0
   11.8397   -5.7835    0.0000 C   0  0  0  0  0  0  0  0  0  0  0  0
   12.5542   -5.3710    0.0000 O   0  0  0  0  0  0  0  0  0  0  0  0
  1  2  1  0  0  0  0
  2  3  1  0  0  0  0
  3  4  2  0  0  0  0
  4  5  1  0  0  0  0
  5  6  2  0  0  0  0
  6  7  1  0  0  0  0
  2  7  2  0  0  0  0
  1  8  2  0  0  0  0
  1  9  1  0  0  0  0
  7 10  1  0  0  0  0
 11 12  1  0  0  0  0
  3 11  1  0  0  0  0
 14 15  1  0  0  0  0
 15 16  1  6  0  0  0
 15 17  1  0  0  0  0
 17 18  1  1  0  0  0
 17 19  1  0  0  0  0
 19 20  1  6  0  0  0
 19 21  1  0  0  0  0
 21 22  1  0  0  0  0
 21 23  1  1  0  0  0
 23 24  1  0  0  0  0
 14 22  1  0  0  0  0
 13 14  1  0  0  0  0
  4 13  1  0  0  0  0
 25 26  1  0  0  0  0
 26 27  1  0  0  0  0
 27 28  2  0  0  0  0
 28 29  1  0  0  0  0
 29 30  2  0  0  0  0
 30 31  1  0  0  0  0
 26 31  2  0  0  0  0
 33 34  1  0  0  0  0
 34 35  1  1  0  0  0
 34 36  1  0  0  0  0
 36 37  1  6  0  0  0
 36 38  1  0  0  0  0
 38 39  1  1  0  0  0
 38 40  1  0  0  0  0
 40 41  1  0  0  0  0
 40 42  1  6  0  0  0
 42 43  1  0  0  0  0
 33 41  1  0  0  0  0
 33 32  1  6  0  0  0
 27 32  1  0  0  0  0
  9 25  1  0  0  0  0
M  END
>  <cdx:groupId>
134

>  <cdx:fragmentId>
31

$$$$
