94903.cdx
  Mrv1902 05222410192D          

 57 63  0  0  0  0            999 V2000
   12.9114   -8.1432    0.0000 C   0  0  0  0  0  0  0  0  0  0  0  0
    7.1956   -9.7932    0.0000 C   0  0  1  0  0  0  0  0  0  0  0  0
    7.1956   -8.9682    0.0000 C   0  0  0  0  0  0  0  0  0  0  0  0
    7.9101   -8.5557    0.0000 C   0  0  0  0  0  0  0  0  0  0  0  0
    7.9101  -10.2057    0.0000 C   0  0  0  0  0  0  0  0  0  0  0  0
    8.3226  -10.9201    0.0000 C   0  0  0  0  0  0  0  0  0  0  0  0
    7.4976  -10.9201    0.0000 C   0  0  0  0  0  0  0  0  0  0  0  0
    8.6246   -9.7932    0.0000 C   0  0  2  0  0  0  0  0  0  0  0  0
    8.6246  -10.6182    0.0000 H   0  0  0  0  0  0  0  0  0  0  0  0
    9.3391  -10.2057    0.0000 C   0  0  0  0  0  0  0  0  0  0  0  0
   10.0535   -9.7932    0.0000 C   0  0  0  0  0  0  0  0  0  0  0  0
   10.0535   -8.9682    0.0000 C   0  0  1  0  0  0  0  0  0  0  0  0
   10.0535   -8.1432    0.0000 C   0  0  0  0  0  0  0  0  0  0  0  0
   10.7680   -8.5557    0.0000 C   0  0  2  0  0  0  0  0  0  0  0  0
   10.7680   -9.3807    0.0000 C   0  0  0  0  0  0  0  0  0  0  0  0
   11.4825   -8.9682    0.0000 C   0  0  0  0  0  0  0  0  0  0  0  0
   12.1969   -8.5557    0.0000 C   0  0  0  0  0  0  0  0  0  0  0  0
   12.1969   -7.7307    0.0000 C   0  0  2  0  0  0  0  0  0  0  0  0
   12.9114   -7.3182    0.0000 C   0  0  0  0  0  0  0  0  0  0  0  0
   12.9114   -6.4932    0.0000 C   0  0  0  0  0  0  0  0  0  0  0  0
   12.1969   -6.0807    0.0000 C   0  0  0  0  0  0  0  0  0  0  0  0
   11.7844   -5.3662    0.0000 C   0  0  0  0  0  0  0  0  0  0  0  0
   12.6094   -5.3662    0.0000 C   0  0  0  0  0  0  0  0  0  0  0  0
   11.4825   -6.4932    0.0000 C   0  0  0  0  0  0  0  0  0  0  0  0
   11.4825   -7.3182    0.0000 C   0  0  1  0  0  0  0  0  0  0  0  0
   11.4825   -8.1432    0.0000 H   0  0  0  0  0  0  0  0  0  0  0  0
   10.7680   -7.7307    0.0000 C   0  0  0  0  0  0  0  0  0  0  0  0
   10.0535   -7.3182    0.0000 C   0  0  0  0  0  0  0  0  0  0  0  0
    9.3391   -7.7307    0.0000 C   0  0  0  0  0  0  0  0  0  0  0  0
    9.3391   -8.5557    0.0000 C   0  0  2  0  0  0  0  0  0  0  0  0
    8.6246   -8.9682    0.0000 C   0  0  1  0  0  0  0  0  0  0  0  0
    8.6246   -8.1432    0.0000 C   0  0  0  0  0  0  0  0  0  0  0  0
   12.9114   -8.9682    0.0000 O   0  0  0  0  0  0  0  0  0  0  0  0
   13.6259   -7.7307    0.0000 O   0  0  0  0  0  0  0  0  0  0  0  0
   11.4825   -9.7932    0.0000 O   0  0  0  0  0  0  0  0  0  0  0  0
    6.4812  -10.2057    0.0000 O   0  0  0  0  0  0  0  0  0  0  0  0
    5.7667   -9.7932    0.0000 C   0  0  1  0  0  0  0  0  0  0  0  0
    5.0522  -10.2057    0.0000 C   0  0  2  0  0  0  0  0  0  0  0  0
    5.0522  -11.0307    0.0000 O   0  0  0  0  0  0  0  0  0  0  0  0
    4.3378   -9.7932    0.0000 C   0  0  1  0  0  0  0  0  0  0  0  0
    3.6233  -10.2057    0.0000 O   0  0  0  0  0  0  0  0  0  0  0  0
    4.3378   -8.9682    0.0000 C   0  0  1  0  0  0  0  0  0  0  0  0
    3.6233   -8.5557    0.0000 O   0  0  0  0  0  0  0  0  0  0  0  0
    5.0522   -8.5557    0.0000 C   0  0  0  0  0  0  0  0  0  0  0  0
    5.7667   -8.9682    0.0000 O   0  0  0  0  0  0  0  0  0  0  0  0
    2.9088   -8.9682    0.0000 C   0  0  1  0  0  0  0  0  0  0  0  0
    2.1944   -8.5557    0.0000 C   0  0  2  0  0  0  0  0  0  0  0  0
    2.1944   -7.7307    0.0000 O   0  0  0  0  0  0  0  0  0  0  0  0
    1.4799   -8.9682    0.0000 C   0  0  1  0  0  0  0  0  0  0  0  0
    0.7654   -8.5557    0.0000 O   0  0  0  0  0  0  0  0  0  0  0  0
    1.4799   -9.7932    0.0000 C   0  0  2  0  0  0  0  0  0  0  0  0
    0.7654  -10.2057    0.0000 O   0  0  0  0  0  0  0  0  0  0  0  0
    2.1944  -10.2057    0.0000 C   0  0  2  0  0  0  0  0  0  0  0  0
    2.9088   -9.7932    0.0000 O   0  0  0  0  0  0  0  0  0  0  0  0
    2.1944  -11.0307    0.0000 C   0  0  0  0  0  0  0  0  0  0  0  0
    1.4799  -11.4432    0.0000 O   0  0  0  0  0  0  0  0  0  0  0  0
    9.3391   -9.3807    0.0000 H   0  0  0  0  0  0  0  0  0  0  0  0
  2  3  1  0  0  0  0
  3  4  1  0  0  0  0
  2  5  1  0  0  0  0
  5  6  1  0  0  0  0
  5  7  1  0  0  0  0
  5  8  1  0  0  0  0
  8  9  1  6  0  0  0
  8 10  1  0  0  0  0
 10 11  1  0  0  0  0
 11 12  1  0  0  0  0
 12 13  1  1  0  0  0
 12 14  1  0  0  0  0
 14 15  1  6  0  0  0
 14 16  1  0  0  0  0
 16 17  1  0  0  0  0
 17 18  1  0  0  0  0
 18  1  1  1  0  0  0
 18 19  1  0  0  0  0
 19 20  1  0  0  0  0
 20 21  1  0  0  0  0
 21 22  1  0  0  0  0
 21 23  1  0  0  0  0
 21 24  1  0  0  0  0
 24 25  1  0  0  0  0
 25 26  1  1  0  0  0
 18 25  1  0  0  0  0
 25 27  1  0  0  0  0
 14 27  1  0  0  0  0
 27 28  2  0  0  0  0
 28 29  1  0  0  0  0
 29 30  1  0  0  0  0
 12 30  1  0  0  0  0
 30 31  1  0  0  0  0
  4 31  1  0  0  0  0
  8 31  1  0  0  0  0
 31 32  1  1  0  0  0
  1 33  2  0  0  0  0
  1 34  1  0  0  0  0
 15 35  1  0  0  0  0
 37 36  1  1  0  0  0
 37 38  1  0  0  0  0
 38 39  1  6  0  0  0
 38 40  1  0  0  0  0
 40 41  1  1  0  0  0
 40 42  1  0  0  0  0
 42 43  1  1  0  0  0
 42 44  1  0  0  0  0
 44 45  1  0  0  0  0
 37 45  1  0  0  0  0
 46 47  1  0  0  0  0
 47 48  1  1  0  0  0
 47 49  1  0  0  0  0
 49 50  1  6  0  0  0
 49 51  1  0  0  0  0
 51 52  1  1  0  0  0
 51 53  1  0  0  0  0
 53 54  1  0  0  0  0
 53 55  1  6  0  0  0
 55 56  1  0  0  0  0
 46 54  1  0  0  0  0
 46 43  1  6  0  0  0
  2 36  1  1  0  0  0
 30 57  1  6  0  0  0
M  END
>  <cdx:fragmentId>
7

$$$$
