94902.cdx
  Mrv1902 05222410192D          

 57 63  0  0  0  0            999 V2000
   12.5825   -6.9731    0.0000 C   0  0  0  0  0  0  0  0  0  0  0  0
    6.8667   -8.6231    0.0000 C   0  0  1  0  0  0  0  0  0  0  0  0
    6.8667   -7.7981    0.0000 C   0  0  0  0  0  0  0  0  0  0  0  0
    7.5812   -7.3856    0.0000 C   0  0  0  0  0  0  0  0  0  0  0  0
    7.5812   -9.0356    0.0000 C   0  0  0  0  0  0  0  0  0  0  0  0
    7.9937   -9.7501    0.0000 C   0  0  0  0  0  0  0  0  0  0  0  0
    7.1687   -9.7501    0.0000 C   0  0  0  0  0  0  0  0  0  0  0  0
    8.2956   -8.6231    0.0000 C   0  0  2  0  0  0  0  0  0  0  0  0
    8.2956   -9.4481    0.0000 H   0  0  0  0  0  0  0  0  0  0  0  0
    9.0101   -9.0356    0.0000 C   0  0  0  0  0  0  0  0  0  0  0  0
    9.7246   -8.6231    0.0000 C   0  0  0  0  0  0  0  0  0  0  0  0
    9.7246   -7.7981    0.0000 C   0  0  1  0  0  0  0  0  0  0  0  0
    9.7246   -6.9731    0.0000 C   0  0  0  0  0  0  0  0  0  0  0  0
   10.4391   -7.3856    0.0000 C   0  0  2  0  0  0  0  0  0  0  0  0
   10.4391   -8.2106    0.0000 C   0  0  0  0  0  0  0  0  0  0  0  0
   11.1535   -7.7981    0.0000 C   0  0  0  0  0  0  0  0  0  0  0  0
   11.8680   -7.3856    0.0000 C   0  0  0  0  0  0  0  0  0  0  0  0
   11.8680   -6.5606    0.0000 C   0  0  2  0  0  0  0  0  0  0  0  0
   12.5825   -6.1481    0.0000 C   0  0  0  0  0  0  0  0  0  0  0  0
   12.5825   -5.3231    0.0000 C   0  0  0  0  0  0  0  0  0  0  0  0
   11.8680   -4.9106    0.0000 C   0  0  0  0  0  0  0  0  0  0  0  0
   11.4555   -4.1961    0.0000 C   0  0  0  0  0  0  0  0  0  0  0  0
   12.2805   -4.1961    0.0000 C   0  0  0  0  0  0  0  0  0  0  0  0
   11.1535   -5.3231    0.0000 C   0  0  0  0  0  0  0  0  0  0  0  0
   11.1535   -6.1481    0.0000 C   0  0  1  0  0  0  0  0  0  0  0  0
   11.1535   -6.9731    0.0000 H   0  0  0  0  0  0  0  0  0  0  0  0
   10.4391   -6.5606    0.0000 C   0  0  0  0  0  0  0  0  0  0  0  0
    9.7246   -6.1481    0.0000 C   0  0  0  0  0  0  0  0  0  0  0  0
    9.0101   -6.5606    0.0000 C   0  0  0  0  0  0  0  0  0  0  0  0
    9.0101   -7.3856    0.0000 C   0  0  2  0  0  0  0  0  0  0  0  0
    8.2956   -7.7981    0.0000 C   0  0  1  0  0  0  0  0  0  0  0  0
    8.2956   -6.9731    0.0000 C   0  0  0  0  0  0  0  0  0  0  0  0
   12.5825   -7.7981    0.0000 O   0  0  0  0  0  0  0  0  0  0  0  0
   13.2969   -6.5606    0.0000 O   0  0  0  0  0  0  0  0  0  0  0  0
   11.1535   -8.6231    0.0000 O   0  0  0  0  0  0  0  0  0  0  0  0
    9.0101   -8.2106    0.0000 H   0  0  0  0  0  0  0  0  0  0  0  0
    1.8654   -9.0370    0.0000 O   0  0  0  0  0  0  0  0  0  0  0  0
    1.8657   -9.8620    0.0000 C   0  0  0  0  0  0  0  0  0  0  0  0
    3.2946   -9.8616    0.0000 O   0  0  0  0  0  0  0  0  0  0  0  0
    2.5803  -10.2743    0.0000 C   0  0  1  0  0  0  0  0  0  0  0  0
    1.8662  -11.5120    0.0000 O   0  0  0  0  0  0  0  0  0  0  0  0
    2.5806  -11.0993    0.0000 C   0  0  1  0  0  0  0  0  0  0  0  0
    3.2954  -12.3366    0.0000 O   0  0  0  0  0  0  0  0  0  0  0  0
    3.2952  -11.5116    0.0000 C   0  0  2  0  0  0  0  0  0  0  0  0
    4.7241  -11.5111    0.0000 O   0  0  0  0  0  0  0  0  0  0  0  0
    4.0095  -11.0988    0.0000 C   0  0  1  0  0  0  0  0  0  0  0  0
    4.0092  -10.2738    0.0000 C   0  0  2  0  0  0  0  0  0  0  0  0
    5.4374   -7.7984    0.0000 O   0  0  0  0  0  0  0  0  0  0  0  0
    4.7228   -7.3861    0.0000 C   0  0  0  0  0  0  0  0  0  0  0  0
    3.2938   -7.3866    0.0000 O   0  0  0  0  0  0  0  0  0  0  0  0
    4.0084   -7.7988    0.0000 C   0  0  2  0  0  0  0  0  0  0  0  0
    3.2944   -9.0366    0.0000 O   0  0  0  0  0  0  0  0  0  0  0  0
    4.0087   -8.6238    0.0000 C   0  0  2  0  0  0  0  0  0  0  0  0
    4.7236   -9.8611    0.0000 O   0  0  0  0  0  0  0  0  0  0  0  0
    4.7233   -9.0361    0.0000 C   0  0  1  0  0  0  0  0  0  0  0  0
    5.4376   -8.6234    0.0000 C   0  0  2  0  0  0  0  0  0  0  0  0
    6.1522   -9.0356    0.0000 O   0  0  0  0  0  0  0  0  0  0  0  0
 47 54  1  1  0  0  0
 47 39  1  0  0  0  0
 38 37  1  0  0  0  0
 40 38  1  1  0  0  0
 40 39  1  0  0  0  0
 42 40  1  0  0  0  0
 42 41  1  6  0  0  0
 44 42  1  0  0  0  0
 44 43  1  1  0  0  0
 46 44  1  0  0  0  0
 46 45  1  6  0  0  0
 47 46  1  0  0  0  0
 56 48  1  0  0  0  0
 49 48  1  0  0  0  0
 51 49  1  0  0  0  0
 51 50  1  1  0  0  0
 53 51  1  0  0  0  0
 53 52  1  1  0  0  0
 55 53  1  0  0  0  0
 55 54  1  6  0  0  0
 56 55  1  0  0  0  0
  2  3  1  0  0  0  0
  3  4  1  0  0  0  0
  2  5  1  0  0  0  0
  5  6  1  0  0  0  0
  5  7  1  0  0  0  0
  5  8  1  0  0  0  0
  8  9  1  6  0  0  0
  8 10  1  0  0  0  0
 10 11  1  0  0  0  0
 11 12  1  0  0  0  0
 12 13  1  1  0  0  0
 12 14  1  0  0  0  0
 14 15  1  6  0  0  0
 14 16  1  0  0  0  0
 16 17  1  0  0  0  0
 17 18  1  0  0  0  0
 18  1  1  1  0  0  0
 18 19  1  0  0  0  0
 19 20  1  0  0  0  0
 20 21  1  0  0  0  0
 21 22  1  0  0  0  0
 21 23  1  0  0  0  0
 21 24  1  0  0  0  0
 24 25  1  0  0  0  0
 25 26  1  1  0  0  0
 18 25  1  0  0  0  0
 25 27  1  0  0  0  0
 14 27  1  0  0  0  0
 27 28  2  0  0  0  0
 28 29  1  0  0  0  0
 29 30  1  0  0  0  0
 12 30  1  0  0  0  0
 30 31  1  0  0  0  0
  4 31  1  0  0  0  0
  8 31  1  0  0  0  0
 31 32  1  1  0  0  0
  1 33  2  0  0  0  0
  1 34  1  0  0  0  0
 15 35  1  0  0  0  0
 56 57  1  1  0  0  0
  2 57  1  1  0  0  0
 30 36  1  6  0  0  0
M  END
>  <cdx:fragmentId>
7

$$$$
