94908.cdx
  Mrv1902 05222410282D          

 24 26  0  0  0  0            999 V2000
    8.0561   -8.9740    0.0000 C   0  0  0  0  0  0  0  0  0  0  0  0
    8.8604   -8.7904    0.0000 O   0  0  0  0  0  0  0  0  0  0  0  0
    9.2183   -8.0471    0.0000 C   0  0  0  0  0  0  0  0  0  0  0  0
    8.8604   -7.3038    0.0000 C   0  0  0  0  0  0  0  0  0  0  0  0
    8.0561   -7.1202    0.0000 C   0  0  0  0  0  0  0  0  0  0  0  0
    7.4110   -7.6346    0.0000 O   0  0  0  0  0  0  0  0  0  0  0  0
    7.4110   -8.4596    0.0000 C   0  0  0  0  0  0  0  0  0  0  0  0
    7.5214   -8.0481    0.0000 C   0  0  0  0  0  0  0  0  0  0  0  0
   10.0433   -8.0471    0.0000 C   0  0  0  0  0  0  0  0  0  0  0  0
   10.4558   -8.7616    0.0000 O   0  0  0  0  0  0  0  0  0  0  0  0
   10.4558   -7.3327    0.0000 O   0  0  0  0  0  0  0  0  0  0  0  0
    6.6964   -8.0481    0.0000 O   0  0  0  0  0  0  0  0  0  0  0  0
    9.6308   -7.3327    0.0000 O   0  0  0  0  0  0  0  0  0  0  0  0
    6.6966   -8.8721    0.0000 C   0  0  0  0  0  0  0  0  0  0  0  0
    5.9821   -8.4596    0.0000 O   0  0  0  0  0  0  0  0  0  0  0  0
    5.2676   -8.8721    0.0000 C   0  0  0  0  0  0  0  0  0  0  0  0
    4.5532   -8.4596    0.0000 C   0  0  0  0  0  0  0  0  0  0  0  0
    3.8387   -8.8721    0.0000 C   0  0  0  0  0  0  0  0  0  0  0  0
    3.1242   -8.4596    0.0000 C   0  0  0  0  0  0  0  0  0  0  0  0
    3.1242   -7.6346    0.0000 C   0  0  0  0  0  0  0  0  0  0  0  0
    3.8387   -7.2221    0.0000 C   0  0  0  0  0  0  0  0  0  0  0  0
    4.5532   -7.6346    0.0000 C   0  0  0  0  0  0  0  0  0  0  0  0
    5.2676   -9.6971    0.0000 O   0  0  0  0  0  0  0  0  0  0  0  0
   11.2808   -7.3327    0.0000 C   0  0  0  0  0  0  0  0  0  0  0  0
  1  2  1  0  0  0  0
  2  3  1  0  0  0  0
  3  4  1  0  0  0  0
  4  5  1  0  0  0  0
  5  6  1  0  0  0  0
  6  7  1  0  0  0  0
  1  7  1  0  0  0  0
  1  8  1  0  0  0  0
  8  5  1  0  0  0  0
  9 10  2  0  0  0  0
  9 11  1  0  0  0  0
  3  9  1  0  0  0  0
  8 12  1  0  0  0  0
  3 13  1  0  0  0  0
 16 17  1  0  0  0  0
 17 18  1  0  0  0  0
 18 19  2  0  0  0  0
 19 20  1  0  0  0  0
 20 21  2  0  0  0  0
 21 22  1  0  0  0  0
 17 22  2  0  0  0  0
 16 23  2  0  0  0  0
 15 16  1  0  0  0  0
 14 15  1  0  0  0  0
  7 14  1  0  0  0  0
 11 24  1  0  0  0  0
M  END
>  <cdx:groupId>
76

>  <cdx:fragmentId>
5

$$$$
