94904.cdx
  Mrv1902 05222410182D          

 29 31  0  0  0  0            999 V2000
    6.9474   -9.0553    0.0000 C   0  0  0  0  0  0  0  0  0  0  0  0
    7.7358   -8.8122    0.0000 O   0  0  0  0  0  0  0  0  0  0  0  0
    8.4174   -9.2769    0.0000 C   0  0  0  0  0  0  0  0  0  0  0  0
    8.4791  -10.0996    0.0000 C   0  0  0  0  0  0  0  0  0  0  0  0
    7.8743  -10.6607    0.0000 C   0  0  0  0  0  0  0  0  0  0  0  0
    7.0585  -10.5378    0.0000 O   0  0  0  0  0  0  0  0  0  0  0  0
    6.6460   -9.8233    0.0000 C   0  0  0  0  0  0  0  0  0  0  0  0
    6.9474  -10.1245    0.0000 C   0  0  0  0  0  0  0  0  0  0  0  0
    9.1319   -8.8644    0.0000 C   0  0  0  0  0  0  0  0  0  0  0  0
    9.1319   -8.0394    0.0000 O   0  0  0  0  0  0  0  0  0  0  0  0
    9.8464   -9.2769    0.0000 O   0  0  0  0  0  0  0  0  0  0  0  0
    6.2330  -10.5370    0.0000 O   0  0  0  0  0  0  0  0  0  0  0  0
    8.4174   -8.4519    0.0000 O   0  0  0  0  0  0  0  0  0  0  0  0
    5.8210   -9.8233    0.0000 C   0  0  0  0  0  0  0  0  0  0  0  0
    5.4085   -9.1088    0.0000 O   0  0  0  0  0  0  0  0  0  0  0  0
    4.5835   -9.1088    0.0000 C   0  0  0  0  0  0  0  0  0  0  0  0
    4.1710   -8.3944    0.0000 C   0  0  0  0  0  0  0  0  0  0  0  0
    3.3460   -8.3944    0.0000 C   0  0  0  0  0  0  0  0  0  0  0  0
    2.9335   -7.6799    0.0000 C   0  0  0  0  0  0  0  0  0  0  0  0
    2.1085   -7.6799    0.0000 C   0  0  0  0  0  0  0  0  0  0  0  0
    1.6960   -6.9654    0.0000 C   0  0  0  0  0  0  0  0  0  0  0  0
    2.1085   -6.2509    0.0000 C   0  0  0  0  0  0  0  0  0  0  0  0
    2.9335   -6.2509    0.0000 C   0  0  0  0  0  0  0  0  0  0  0  0
    3.3460   -6.9654    0.0000 C   0  0  0  0  0  0  0  0  0  0  0  0
    4.1710   -9.8233    0.0000 O   0  0  0  0  0  0  0  0  0  0  0  0
   10.5609   -8.8644    0.0000 C   0  0  0  0  0  0  0  0  0  0  0  0
   11.2753   -9.2769    0.0000 C   0  0  0  0  0  0  0  0  0  0  0  0
   11.9898   -8.8644    0.0000 C   0  0  0  0  0  0  0  0  0  0  0  0
   12.7043   -9.2769    0.0000 C   0  0  0  0  0  0  0  0  0  0  0  0
  1  2  1  0  0  0  0
  2  3  1  0  0  0  0
  3  4  1  0  0  0  0
  4  5  1  0  0  0  0
  5  6  1  0  0  0  0
  6  7  1  0  0  0  0
  1  7  1  0  0  0  0
  1  8  1  0  0  0  0
  8  5  1  0  0  0  0
  9 10  2  0  0  0  0
  9 11  1  0  0  0  0
  3  9  1  0  0  0  0
  8 12  1  0  0  0  0
  3 13  1  0  0  0  0
 16 17  1  0  0  0  0
 17 18  2  0  0  0  0
 18 19  1  0  0  0  0
 19 20  1  0  0  0  0
 20 21  2  0  0  0  0
 21 22  1  0  0  0  0
 22 23  2  0  0  0  0
 23 24  1  0  0  0  0
 19 24  2  0  0  0  0
 16 25  2  0  0  0  0
 15 16  1  0  0  0  0
 14 15  1  0  0  0  0
  7 14  1  0  0  0  0
 26 27  1  0  0  0  0
 27 28  1  0  0  0  0
 28 29  1  0  0  0  0
 11 26  1  0  0  0  0
M  END
>  <cdx:groupId>
91

>  <cdx:fragmentId>
5

$$$$
