949088.cdx
  Mrv1902 05222410212D          

 23 22  0  0  0  0            999 V2000
    4.8630  -10.2720    0.0000 C   0  0  0  0  0  0  0  0  0  0  0  0
    5.5774   -9.8595    0.0000 C   0  0  0  0  0  0  0  0  0  0  0  0
    6.2919  -10.2720    0.0000 C   0  0  0  0  0  0  0  0  0  0  0  0
    7.0064   -9.8595    0.0000 C   0  0  0  0  0  0  0  0  0  0  0  0
    7.7208  -10.2720    0.0000 C   0  0  0  0  0  0  0  0  0  0  0  0
    8.4353   -9.8595    0.0000 C   0  0  0  0  0  0  0  0  0  0  0  0
    9.1498  -10.2720    0.0000 C   0  0  0  0  0  0  0  0  0  0  0  0
    9.8643   -9.8595    0.0000 C   0  0  0  0  0  0  0  0  0  0  0  0
   10.5787  -10.2720    0.0000 C   0  0  0  0  0  0  0  0  0  0  0  0
   11.2932   -9.8595    0.0000 C   0  0  0  0  0  0  0  0  0  0  0  0
   11.2932   -9.0345    0.0000 C   0  0  0  0  0  0  0  0  0  0  0  0
   12.0077   -8.6220    0.0000 C   0  0  0  0  0  0  0  0  0  0  0  0
   12.0077   -7.7970    0.0000 C   0  0  0  0  0  0  0  0  0  0  0  0
   11.2932   -7.3845    0.0000 C   0  0  0  0  0  0  0  0  0  0  0  0
   11.2932   -6.5595    0.0000 C   0  0  0  0  0  0  0  0  0  0  0  0
   10.5787   -6.1470    0.0000 C   0  0  0  0  0  0  0  0  0  0  0  0
   10.5787   -5.3220    0.0000 C   0  0  0  0  0  0  0  0  0  0  0  0
    9.8643   -4.9095    0.0000 C   0  0  0  0  0  0  0  0  0  0  0  0
    4.8630  -11.0970    0.0000 O   0  0  0  0  0  0  0  0  0  0  0  0
    4.1485   -9.8595    0.0000 O   0  0  0  0  0  0  0  0  0  0  0  0
    3.4340  -10.2720    0.0000 C   0  0  0  0  0  0  0  0  0  0  0  0
    2.7195   -9.8595    0.0000 C   0  0  0  0  0  0  0  0  0  0  0  0
    2.0051  -10.2720    0.0000 C   0  0  0  0  0  0  0  0  0  0  0  0
  1  2  1  0  0  0  0
  2  3  1  0  0  0  0
  3  4  1  0  0  0  0
  4  5  1  0  0  0  0
  5  6  1  0  0  0  0
  6  7  1  0  0  0  0
  7  8  1  0  0  0  0
  8  9  1  0  0  0  0
  9 10  2  0  0  0  0
 10 11  1  0  0  0  0
 11 12  1  0  0  0  0
 12 13  2  0  0  0  0
 13 14  1  0  0  0  0
 14 15  1  0  0  0  0
 15 16  1  0  0  0  0
 16 17  1  0  0  0  0
 17 18  1  0  0  0  0
  1 19  2  0  0  0  0
  1 20  1  0  0  0  0
 21 22  1  0  0  0  0
 22 23  1  0  0  0  0
 20 21  1  0  0  0  0
M  END
>  <cdx:fragmentId>
5

$$$$
