94905.cdx
  Mrv1902 05222410182D          

 26 28  0  0  0  0            999 V2000
    8.1106   -8.7440    0.0000 C   0  0  0  0  0  0  0  0  0  0  0  0
    8.8990   -8.9872    0.0000 O   0  0  0  0  0  0  0  0  0  0  0  0
    9.2004   -9.7551    0.0000 C   0  0  0  0  0  0  0  0  0  0  0  0
    8.7879  -10.4696    0.0000 C   0  0  0  0  0  0  0  0  0  0  0  0
    7.9721  -10.5926    0.0000 C   0  0  0  0  0  0  0  0  0  0  0  0
    7.3673  -10.0314    0.0000 O   0  0  0  0  0  0  0  0  0  0  0  0
    7.4290   -9.2087    0.0000 C   0  0  0  0  0  0  0  0  0  0  0  0
    7.5083   -9.6274    0.0000 C   0  0  0  0  0  0  0  0  0  0  0  0
   10.0254   -9.7551    0.0000 C   0  0  0  0  0  0  0  0  0  0  0  0
   10.4379   -9.0407    0.0000 O   0  0  0  0  0  0  0  0  0  0  0  0
   10.4379  -10.4696    0.0000 O   0  0  0  0  0  0  0  0  0  0  0  0
    6.6833   -9.6274    0.0000 O   0  0  0  0  0  0  0  0  0  0  0  0
    9.6129  -10.4696    0.0000 O   0  0  0  0  0  0  0  0  0  0  0  0
    6.7145   -8.7962    0.0000 C   0  0  0  0  0  0  0  0  0  0  0  0
    6.0000   -9.2087    0.0000 O   0  0  0  0  0  0  0  0  0  0  0  0
    5.2856   -8.7962    0.0000 C   0  0  0  0  0  0  0  0  0  0  0  0
    4.5711   -9.2087    0.0000 C   0  0  0  0  0  0  0  0  0  0  0  0
    3.8566   -8.7962    0.0000 C   0  0  0  0  0  0  0  0  0  0  0  0
    3.8566   -7.9712    0.0000 C   0  0  0  0  0  0  0  0  0  0  0  0
    4.5711   -7.5587    0.0000 C   0  0  0  0  0  0  0  0  0  0  0  0
    4.5711   -6.7337    0.0000 C   0  0  0  0  0  0  0  0  0  0  0  0
    3.8566   -6.3212    0.0000 C   0  0  0  0  0  0  0  0  0  0  0  0
    3.1422   -6.7337    0.0000 C   0  0  0  0  0  0  0  0  0  0  0  0
    3.1422   -7.5587    0.0000 C   0  0  0  0  0  0  0  0  0  0  0  0
    5.2856   -7.9712    0.0000 O   0  0  0  0  0  0  0  0  0  0  0  0
   11.2629  -10.4696    0.0000 C   0  0  0  0  0  0  0  0  0  0  0  0
  1  2  1  0  0  0  0
  2  3  1  0  0  0  0
  3  4  1  0  0  0  0
  4  5  1  0  0  0  0
  5  6  1  0  0  0  0
  6  7  1  0  0  0  0
  1  7  1  0  0  0  0
  1  8  1  0  0  0  0
  8  5  1  0  0  0  0
  9 10  2  0  0  0  0
  9 11  1  0  0  0  0
  3  9  1  0  0  0  0
  8 12  1  0  0  0  0
  3 13  1  0  0  0  0
 16 17  1  0  0  0  0
 17 18  2  0  0  0  0
 18 19  1  0  0  0  0
 19 20  1  0  0  0  0
 20 21  2  0  0  0  0
 21 22  1  0  0  0  0
 22 23  2  0  0  0  0
 23 24  1  0  0  0  0
 19 24  2  0  0  0  0
 16 25  2  0  0  0  0
 15 16  1  0  0  0  0
 14 15  1  0  0  0  0
  7 14  1  0  0  0  0
 11 26  1  0  0  0  0
M  END
>  <cdx:groupId>
82

>  <cdx:fragmentId>
5

$$$$
