94901.cdx
  Mrv1902 05222410202D          

 65 72  0  0  0  0            999 V2000
   12.7869   -5.9006    0.0000 C   0  0  0  0  0  0  0  0  0  0  0  0
    7.0711   -7.5506    0.0000 C   0  0  1  0  0  0  0  0  0  0  0  0
    7.0711   -6.7256    0.0000 C   0  0  0  0  0  0  0  0  0  0  0  0
    7.7856   -6.3131    0.0000 C   0  0  0  0  0  0  0  0  0  0  0  0
    7.7856   -7.9631    0.0000 C   0  0  0  0  0  0  0  0  0  0  0  0
    8.1981   -8.6776    0.0000 C   0  0  0  0  0  0  0  0  0  0  0  0
    7.3731   -8.6776    0.0000 C   0  0  0  0  0  0  0  0  0  0  0  0
    8.5000   -7.5506    0.0000 C   0  0  2  0  0  0  0  0  0  0  0  0
    8.5000   -8.3756    0.0000 H   0  0  0  0  0  0  0  0  0  0  0  0
    9.2145   -7.9631    0.0000 C   0  0  0  0  0  0  0  0  0  0  0  0
    9.9290   -7.5506    0.0000 C   0  0  0  0  0  0  0  0  0  0  0  0
    9.9290   -6.7256    0.0000 C   0  0  1  0  0  0  0  0  0  0  0  0
    9.9290   -5.9006    0.0000 C   0  0  0  0  0  0  0  0  0  0  0  0
   10.6434   -6.3131    0.0000 C   0  0  2  0  0  0  0  0  0  0  0  0
   10.6434   -7.1381    0.0000 C   0  0  0  0  0  0  0  0  0  0  0  0
   11.3579   -6.7256    0.0000 C   0  0  0  0  0  0  0  0  0  0  0  0
   12.0724   -6.3131    0.0000 C   0  0  0  0  0  0  0  0  0  0  0  0
   12.0724   -5.4881    0.0000 C   0  0  2  0  0  0  0  0  0  0  0  0
   12.7869   -5.0756    0.0000 C   0  0  0  0  0  0  0  0  0  0  0  0
   12.7869   -4.2506    0.0000 C   0  0  0  0  0  0  0  0  0  0  0  0
   12.0724   -3.8381    0.0000 C   0  0  0  0  0  0  0  0  0  0  0  0
   11.6599   -3.1236    0.0000 C   0  0  0  0  0  0  0  0  0  0  0  0
   12.4849   -3.1236    0.0000 C   0  0  0  0  0  0  0  0  0  0  0  0
   11.3579   -4.2506    0.0000 C   0  0  0  0  0  0  0  0  0  0  0  0
   11.3579   -5.0756    0.0000 C   0  0  1  0  0  0  0  0  0  0  0  0
   11.3579   -5.9006    0.0000 H   0  0  0  0  0  0  0  0  0  0  0  0
   10.6434   -5.4881    0.0000 C   0  0  0  0  0  0  0  0  0  0  0  0
    9.9290   -5.0756    0.0000 C   0  0  0  0  0  0  0  0  0  0  0  0
    9.2145   -5.4881    0.0000 C   0  0  0  0  0  0  0  0  0  0  0  0
    9.2145   -6.3131    0.0000 C   0  0  2  0  0  0  0  0  0  0  0  0
    8.5000   -6.7256    0.0000 C   0  0  1  0  0  0  0  0  0  0  0  0
    8.5000   -5.9006    0.0000 C   0  0  0  0  0  0  0  0  0  0  0  0
   12.7869   -6.7256    0.0000 O   0  0  0  0  0  0  0  0  0  0  0  0
   13.5013   -5.4881    0.0000 O   0  0  0  0  0  0  0  0  0  0  0  0
   11.3579   -7.5506    0.0000 O   0  0  0  0  0  0  0  0  0  0  0  0
    9.2145   -7.1381    0.0000 H   0  0  0  0  0  0  0  0  0  0  0  0
    2.0664  -11.2588    0.0000 O   0  0  0  0  0  0  0  0  0  0  0  0
    1.3516  -11.6705    0.0000 C   0  0  0  0  0  0  0  0  0  0  0  0
    0.6358  -12.9073    0.0000 O   0  0  0  0  0  0  0  0  0  0  0  0
    1.3507  -12.4955    0.0000 C   0  0  2  0  0  0  0  0  0  0  0  0
    2.0639  -13.7338    0.0000 O   0  0  0  0  0  0  0  0  0  0  0  0
    2.0648  -12.9088    0.0000 C   0  0  2  0  0  0  0  0  0  0  0  0
    3.4937  -12.9102    0.0000 O   0  0  0  0  0  0  0  0  0  0  0  0
    2.7797  -12.4970    0.0000 C   0  0  1  0  0  0  0  0  0  0  0  0
    2.7805  -11.6720    0.0000 C   0  0  2  0  0  0  0  0  0  0  0  0
    2.0690   -8.7838    0.0000 C   0  0  0  0  0  0  0  0  0  0  0  0
    3.4979   -8.7852    0.0000 O   0  0  0  0  0  0  0  0  0  0  0  0
    2.7830   -9.1970    0.0000 C   0  0  2  0  0  0  0  0  0  0  0  0
    2.0673  -10.4338    0.0000 O   0  0  0  0  0  0  0  0  0  0  0  0
    2.7822  -10.0220    0.0000 C   0  0  2  0  0  0  0  0  0  0  0  0
    3.4954  -11.2602    0.0000 O   0  0  0  0  0  0  0  0  0  0  0  0
    3.4962  -10.4352    0.0000 C   0  0  1  0  0  0  0  0  0  0  0  0
    4.9252  -10.4367    0.0000 O   0  0  0  0  0  0  0  0  0  0  0  0
    4.2111  -10.0234    0.0000 C   0  0  1  0  0  0  0  0  0  0  0  0
    4.2119   -9.1984    0.0000 C   0  0  2  0  0  0  0  0  0  0  0  0
    5.6434   -6.7249    0.0000 O   0  0  0  0  0  0  0  0  0  0  0  0
    4.9293   -6.3117    0.0000 C   0  0  0  0  0  0  0  0  0  0  0  0
    3.5004   -6.3102    0.0000 O   0  0  0  0  0  0  0  0  0  0  0  0
    4.2145   -6.7234    0.0000 C   0  0  2  0  0  0  0  0  0  0  0  0
    3.4987   -7.9602    0.0000 O   0  0  0  0  0  0  0  0  0  0  0  0
    4.2136   -7.5484    0.0000 C   0  0  2  0  0  0  0  0  0  0  0  0
    4.9268   -8.7867    0.0000 O   0  0  0  0  0  0  0  0  0  0  0  0
    4.9277   -7.9617    0.0000 C   0  0  1  0  0  0  0  0  0  0  0  0
    5.6426   -7.5499    0.0000 C   0  0  2  0  0  0  0  0  0  0  0  0
    6.3566   -7.9631    0.0000 O   0  0  0  0  0  0  0  0  0  0  0  0
 55 62  1  1  0  0  0
 45 51  1  1  0  0  0
 45 37  1  0  0  0  0
 38 37  1  0  0  0  0
 40 38  1  0  0  0  0
 40 39  1  1  0  0  0
 42 40  1  0  0  0  0
 42 41  1  1  0  0  0
 44 42  1  0  0  0  0
 44 43  1  6  0  0  0
 45 44  1  0  0  0  0
 55 47  1  0  0  0  0
 48 46  1  6  0  0  0
 48 47  1  0  0  0  0
 50 48  1  0  0  0  0
 50 49  1  1  0  0  0
 52 50  1  0  0  0  0
 52 51  1  6  0  0  0
 54 52  1  0  0  0  0
 54 53  1  6  0  0  0
 55 54  1  0  0  0  0
 64 56  1  0  0  0  0
 57 56  1  0  0  0  0
 59 57  1  0  0  0  0
 59 58  1  1  0  0  0
 61 59  1  0  0  0  0
 61 60  1  1  0  0  0
 63 61  1  0  0  0  0
 63 62  1  6  0  0  0
  2  3  1  0  0  0  0
  3  4  1  0  0  0  0
  2  5  1  0  0  0  0
  5  6  1  0  0  0  0
  5  7  1  0  0  0  0
  5  8  1  0  0  0  0
  8  9  1  6  0  0  0
  8 10  1  0  0  0  0
 10 11  1  0  0  0  0
 11 12  1  0  0  0  0
 12 13  1  1  0  0  0
 12 14  1  0  0  0  0
 14 15  1  6  0  0  0
 14 16  1  0  0  0  0
 16 17  1  0  0  0  0
 17 18  1  0  0  0  0
 18  1  1  1  0  0  0
 18 19  1  0  0  0  0
 19 20  1  0  0  0  0
 20 21  1  0  0  0  0
 21 22  1  0  0  0  0
 21 23  1  0  0  0  0
 21 24  1  0  0  0  0
 24 25  1  0  0  0  0
 25 26  1  1  0  0  0
 18 25  1  0  0  0  0
 25 27  1  0  0  0  0
 14 27  1  0  0  0  0
 27 28  2  0  0  0  0
 28 29  1  0  0  0  0
 29 30  1  0  0  0  0
 12 30  1  0  0  0  0
 30 31  1  0  0  0  0
  4 31  1  0  0  0  0
  8 31  1  0  0  0  0
 31 32  1  1  0  0  0
  1 33  2  0  0  0  0
  1 34  1  0  0  0  0
 15 35  1  0  0  0  0
 64 63  1  0  0  0  0
 64 65  1  1  0  0  0
  2 65  1  1  0  0  0
 30 36  1  6  0  0  0
M  END
>  <cdx:fragmentId>
7

$$$$
