9491.cdx
  Mrv1902 05222410232D          

 25 28  0  0  0  0            999 V2000
    9.6208   -8.3695    0.0000 C   0  0  0  0  0  0  0  0  0  0  0  0
    9.6120   -7.5445    0.0000 C   0  0  0  0  0  0  0  0  0  0  0  0
    8.8932   -7.1396    0.0000 C   0  0  0  0  0  0  0  0  0  0  0  0
    8.1831   -7.5597    0.0000 C   0  0  0  0  0  0  0  0  0  0  0  0
    8.1919   -8.3847    0.0000 C   0  0  0  0  0  0  0  0  0  0  0  0
    8.9107   -8.7896    0.0000 C   0  0  0  0  0  0  0  0  0  0  0  0
    7.4643   -7.1549    0.0000 C   0  0  0  0  0  0  0  0  0  0  0  0
    6.7543   -7.5749    0.0000 C   0  0  0  0  0  0  0  0  0  0  0  0
    6.7630   -8.3999    0.0000 C   0  0  0  0  0  0  0  0  0  0  0  0
    7.4819   -8.8048    0.0000 C   0  0  0  0  0  0  0  0  0  0  0  0
    6.0354   -7.1701    0.0000 C   0  0  0  0  0  0  0  0  0  0  0  0
    5.3254   -7.5901    0.0000 C   0  0  0  0  0  0  0  0  0  0  0  0
    5.3342   -8.4151    0.0000 C   0  0  0  0  0  0  0  0  0  0  0  0
    6.0530   -8.8200    0.0000 C   0  0  0  0  0  0  0  0  0  0  0  0
    6.0618   -9.6449    0.0000 C   0  0  0  0  0  0  0  0  0  0  0  0
    6.7806  -10.0498    0.0000 C   0  0  0  0  0  0  0  0  0  0  0  0
    7.4906   -9.6297    0.0000 N   0  0  0  0  0  0  0  0  0  0  0  0
   10.3220   -7.1244    0.0000 O   0  0  0  0  0  0  0  0  0  0  0  0
   11.0408   -7.5293    0.0000 C   0  0  0  0  0  0  0  0  0  0  0  0
    7.4555   -6.3299    0.0000 O   0  0  0  0  0  0  0  0  0  0  0  0
    6.0267   -6.3451    0.0000 O   0  0  0  0  0  0  0  0  0  0  0  0
    4.6066   -7.1853    0.0000 O   0  0  0  0  0  0  0  0  0  0  0  0
    4.5978   -6.3603    0.0000 C   0  0  0  0  0  0  0  0  0  0  0  0
    4.6241   -8.8352    0.0000 O   0  0  0  0  0  0  0  0  0  0  0  0
    3.9053   -8.4303    0.0000 C   0  0  0  0  0  0  0  0  0  0  0  0
  1  2  1  0  0  0  0
  2  3  2  0  0  0  0
  3  4  1  0  0  0  0
  4  5  2  0  0  0  0
  5  6  1  0  0  0  0
  6  1  2  0  0  0  0
  4  7  1  0  0  0  0
  7  8  1  0  0  0  0
  8  9  1  0  0  0  0
  9 10  1  0  0  0  0
 10  5  1  0  0  0  0
  8 11  2  0  0  0  0
 11 12  1  0  0  0  0
 12 13  2  0  0  0  0
 13 14  1  0  0  0  0
 14  9  2  0  0  0  0
 14 15  1  0  0  0  0
 15 16  2  0  0  0  0
 16 17  1  0  0  0  0
 17 10  2  0  0  0  0
  2 18  1  0  0  0  0
 18 19  1  0  0  0  0
  7 20  2  0  0  0  0
 11 21  1  0  0  0  0
 12 22  1  0  0  0  0
 22 23  1  0  0  0  0
 13 24  1  0  0  0  0
 24 25  1  0  0  0  0
M  END
>  <cdx:fragmentId>
5

$$$$
