94921.cdx
  Mrv1902 05222410282D          

 40 44  0  0  0  0            999 V2000
    5.3765   -9.9259    0.0000 C   0  0  1  0  0  0  0  0  0  0  0  0
    5.3765   -9.1009    0.0000 C   0  0  0  0  0  0  0  0  0  0  0  0
    6.0910   -8.6884    0.0000 C   0  0  0  0  0  0  0  0  0  0  0  0
    6.0910  -10.3384    0.0000 C   0  0  2  0  0  0  0  0  0  0  0  0
    6.8055   -9.9259    0.0000 C   0  0  2  0  0  0  0  0  0  0  0  0
    6.8055  -10.7509    0.0000 H   0  0  0  0  0  0  0  0  0  0  0  0
    7.5199  -10.3384    0.0000 C   0  0  0  0  0  0  0  0  0  0  0  0
    8.2344   -9.9259    0.0000 C   0  0  0  0  0  0  0  0  0  0  0  0
    8.2344   -9.1009    0.0000 C   0  0  1  0  0  0  0  0  0  0  0  0
    8.2344   -8.2759    0.0000 C   0  0  0  0  0  0  0  0  0  0  0  0
    8.9489   -8.6884    0.0000 C   0  0  2  0  0  0  0  0  0  0  0  0
    8.9489   -9.5134    0.0000 C   0  0  0  0  0  0  0  0  0  0  0  0
    9.6634   -9.1009    0.0000 C   0  0  0  0  0  0  0  0  0  0  0  0
   10.3778   -8.6884    0.0000 C   0  0  0  0  0  0  0  0  0  0  0  0
   10.3778   -7.8634    0.0000 C   0  0  1  0  0  0  0  0  0  0  0  0
   11.0923   -8.2759    0.0000 C   0  0  0  0  0  0  0  0  0  0  0  0
   10.9909   -7.3113    0.0000 C   0  0  0  0  0  0  0  0  0  0  0  0
   10.6554   -6.5577    0.0000 C   0  0  0  0  0  0  0  0  0  0  0  0
    9.8349   -6.6439    0.0000 C   0  0  1  0  0  0  0  0  0  0  0  0
    9.2828   -6.0308    0.0000 C   0  0  0  0  0  0  0  0  0  0  0  0
    9.5378   -5.2462    0.0000 C   0  0  0  0  0  0  0  0  0  0  0  0
    8.4759   -6.2023    0.0000 C   0  0  0  0  0  0  0  0  0  0  0  0
    9.6634   -7.4509    0.0000 C   0  0  2  0  0  0  0  0  0  0  0  0
    9.6634   -8.2759    0.0000 H   0  0  0  0  0  0  0  0  0  0  0  0
    8.9489   -7.8634    0.0000 C   0  0  1  0  0  0  0  0  0  0  0  0
    8.9489   -7.0384    0.0000 H   0  0  0  0  0  0  0  0  0  0  0  0
    8.2344   -7.4509    0.0000 C   0  0  0  0  0  0  0  0  0  0  0  0
    7.5199   -7.8634    0.0000 C   0  0  0  0  0  0  0  0  0  0  0  0
    7.5199   -8.6884    0.0000 C   0  0  2  0  0  0  0  0  0  0  0  0
    6.8055   -9.1009    0.0000 C   0  0  1  0  0  0  0  0  0  0  0  0
    6.8055   -8.2759    0.0000 C   0  0  0  0  0  0  0  0  0  0  0  0
    4.6621  -10.3384    0.0000 O   0  0  0  0  0  0  0  0  0  0  0  0
    3.9476   -9.9259    0.0000 C   0  0  0  0  0  0  0  0  0  0  0  0
    3.9476   -9.1009    0.0000 O   0  0  0  0  0  0  0  0  0  0  0  0
    3.2331  -10.3384    0.0000 C   0  0  0  0  0  0  0  0  0  0  0  0
    7.5199   -9.5134    0.0000 H   0  0  0  0  0  0  0  0  0  0  0  0
    6.5035  -11.0528    0.0000 C   0  0  0  0  0  0  0  0  0  0  0  0
    5.6785  -11.0528    0.0000 C   0  0  0  0  0  0  0  0  0  0  0  0
    6.0910  -11.7673    0.0000 O   0  0  0  0  0  0  0  0  0  0  0  0
    4.8535  -11.0528    0.0000 O   0  0  0  0  0  0  0  0  0  0  0  0
  1  2  1  0  0  0  0
  2  3  1  0  0  0  0
  1  4  1  0  0  0  0
  4  5  1  0  0  0  0
  5  6  1  6  0  0  0
  5  7  1  0  0  0  0
  7  8  1  0  0  0  0
  8  9  1  0  0  0  0
  9 10  1  1  0  0  0
  9 11  1  0  0  0  0
 11 12  1  6  0  0  0
 11 13  1  0  0  0  0
 13 14  1  0  0  0  0
 14 15  1  0  0  0  0
 15 16  1  1  0  0  0
 15 17  1  0  0  0  0
 17 18  1  0  0  0  0
 18 19  1  0  0  0  0
 19 20  1  6  0  0  0
 20 21  2  0  0  0  0
 20 22  1  0  0  0  0
 19 23  1  0  0  0  0
 23 24  1  6  0  0  0
 15 23  1  0  0  0  0
 23 25  1  0  0  0  0
 11 25  1  0  0  0  0
 25 26  1  1  0  0  0
 25 27  1  0  0  0  0
 27 28  1  0  0  0  0
 28 29  1  0  0  0  0
  9 29  1  0  0  0  0
 29 30  1  0  0  0  0
  3 30  1  0  0  0  0
  5 30  1  0  0  0  0
 30 31  1  1  0  0  0
  1 32  1  1  0  0  0
 33 34  2  0  0  0  0
 33 35  1  0  0  0  0
 32 33  1  0  0  0  0
 29 36  1  6  0  0  0
  4 37  1  6  0  0  0
  4 38  1  1  0  0  0
 38 39  1  0  0  0  0
 38 40  2  0  0  0  0
M  END
>  <cdx:groupId>
126

>  <cdx:fragmentId>
5

$$$$
