94922.cdx
  Mrv1902 05222410272D          

 40 44  0  0  0  0            999 V2000
    7.7589   -7.3743    0.0000 C   0  0  1  0  0  0  0  0  0  0  0  0
    8.4695   -7.7935    0.0000 C   0  0  2  0  0  0  0  0  0  0  0  0
    9.1878   -7.3876    0.0000 O   0  0  0  0  0  0  0  0  0  0  0  0
    8.4618   -8.6184    0.0000 C   0  0  1  0  0  0  0  0  0  0  0  0
    9.1724   -9.0376    0.0000 O   0  0  0  0  0  0  0  0  0  0  0  0
    7.7436   -9.0243    0.0000 C   0  0  2  0  0  0  0  0  0  0  0  0
    7.7359   -9.8492    0.0000 O   0  0  0  0  0  0  0  0  0  0  0  0
    7.0330   -8.6051    0.0000 C   0  0  2  0  0  0  0  0  0  0  0  0
    7.0406   -7.7802    0.0000 O   0  0  0  0  0  0  0  0  0  0  0  0
    6.3147   -9.0110    0.0000 C   0  0  0  0  0  0  0  0  0  0  0  0
    6.3070   -9.8359    0.0000 O   0  0  0  0  0  0  0  0  0  0  0  0
    5.5887  -10.2417    0.0000 C   0  0  1  0  0  0  0  0  0  0  0  0
    5.4949  -11.0614    0.0000 C   0  0  2  0  0  0  0  0  0  0  0  0
    6.1028  -11.6191    0.0000 O   0  0  0  0  0  0  0  0  0  0  0  0
    4.6863  -11.2254    0.0000 C   0  0  2  0  0  0  0  0  0  0  0  0
    4.7649  -12.0466    0.0000 O   0  0  0  0  0  0  0  0  0  0  0  0
    4.2805  -10.5071    0.0000 C   0  0  0  0  0  0  0  0  0  0  0  0
    4.8382   -9.8992    0.0000 O   0  0  0  0  0  0  0  0  0  0  0  0
    4.0144  -11.7041    0.0000 C   0  0  0  0  0  0  0  0  0  0  0  0
    4.0930  -12.5253    0.0000 O   0  0  0  0  0  0  0  0  0  0  0  0
    7.7896   -4.0745    0.0000 O   0  0  0  0  0  0  0  0  0  0  0  0
    9.1955   -6.5627    0.0000 O   0  0  0  0  0  0  0  0  0  0  0  0
    3.4800   -6.5095    0.0000 O   0  0  0  0  0  0  0  0  0  0  0  0
    3.5030   -4.0346    0.0000 C   0  0  0  0  0  0  0  0  0  0  0  0
    3.4953   -4.8595    0.0000 O   0  0  0  0  0  0  0  0  0  0  0  0
    6.3608   -4.0612    0.0000 O   0  0  0  0  0  0  0  0  0  0  0  0
    5.6348   -5.2920    0.0000 C   0  0  0  0  0  0  0  0  0  0  0  0
    4.9242   -4.8728    0.0000 C   0  0  0  0  0  0  0  0  0  0  0  0
    4.2059   -5.2787    0.0000 C   0  0  0  0  0  0  0  0  0  0  0  0
    4.1982   -6.1036    0.0000 C   0  0  0  0  0  0  0  0  0  0  0  0
    4.9088   -6.5228    0.0000 C   0  0  0  0  0  0  0  0  0  0  0  0
    5.6271   -6.1169    0.0000 C   0  0  0  0  0  0  0  0  0  0  0  0
    6.3377   -6.5361    0.0000 O   0  0  0  0  0  0  0  0  0  0  0  0
    7.0560   -6.1302    0.0000 C   0  0  0  0  0  0  0  0  0  0  0  0
    7.7666   -6.5494    0.0000 C   0  0  0  0  0  0  0  0  0  0  0  0
    8.4849   -6.1435    0.0000 C   0  0  0  0  0  0  0  0  0  0  0  0
    8.4926   -5.3186    0.0000 C   0  0  0  0  0  0  0  0  0  0  0  0
    7.7820   -4.8994    0.0000 C   0  0  0  0  0  0  0  0  0  0  0  0
    7.0637   -5.3053    0.0000 C   0  0  0  0  0  0  0  0  0  0  0  0
    6.3531   -4.8861    0.0000 C   0  0  0  0  0  0  0  0  0  0  0  0
  1 35  1  1  0  0  0
  1  2  1  0  0  0  0
 38 21  1  0  0  0  0
 36 22  1  0  0  0  0
 30 23  1  0  0  0  0
 29 25  1  0  0  0  0
 25 24  1  0  0  0  0
 40 26  2  0  0  0  0
 40 27  1  0  0  0  0
 32 27  2  0  0  0  0
 28 27  1  0  0  0  0
 29 28  2  0  0  0  0
 30 29  1  0  0  0  0
 31 30  2  0  0  0  0
 32 31  1  0  0  0  0
 33 32  1  0  0  0  0
 34 33  1  0  0  0  0
 39 34  2  0  0  0  0
 35 34  1  0  0  0  0
 36 35  2  0  0  0  0
 37 36  1  0  0  0  0
 38 37  2  0  0  0  0
 39 38  1  0  0  0  0
 40 39  1  0  0  0  0
  2  3  1  6  0  0  0
  2  4  1  0  0  0  0
  4  5  1  1  0  0  0
  4  6  1  0  0  0  0
  6  7  1  6  0  0  0
  6  8  1  0  0  0  0
  8  9  1  0  0  0  0
  8 10  1  1  0  0  0
 10 11  1  0  0  0  0
  1  9  1  0  0  0  0
 12 13  1  0  0  0  0
 13 14  1  6  0  0  0
 13 15  1  0  0  0  0
 15 16  1  6  0  0  0
 15 17  1  0  0  0  0
 17 18  1  0  0  0  0
 15 19  1  0  0  0  0
 19 20  1  0  0  0  0
 12 18  1  0  0  0  0
 12 11  1  1  0  0  0
M  END
>  <cdx:fragmentId>
5

$$$$
