94925.cdx
  Mrv1902 05222410262D          

 56 61  0  0  0  0            999 V2000
   11.2084   -8.8085    0.0000 C   0  0  0  0  0  0  0  0  0  0  0  0
   11.2084   -7.9835    0.0000 C   0  0  0  0  0  0  0  0  0  0  0  0
   11.9228   -7.5710    0.0000 C   0  0  0  0  0  0  0  0  0  0  0  0
   12.6373   -7.9835    0.0000 C   0  0  0  0  0  0  0  0  0  0  0  0
   12.6373   -8.8085    0.0000 C   0  0  0  0  0  0  0  0  0  0  0  0
   11.9228   -9.2210    0.0000 C   0  0  0  0  0  0  0  0  0  0  0  0
   11.9228   -6.7460    0.0000 O   0  0  0  0  0  0  0  0  0  0  0  0
   12.6373   -6.3335    0.0000 C   0  0  0  0  0  0  0  0  0  0  0  0
   13.3518   -7.5710    0.0000 O   0  0  0  0  0  0  0  0  0  0  0  0
   11.2084  -10.4585    0.0000 O   0  0  0  0  0  0  0  0  0  0  0  0
    8.3505  -11.2835    0.0000 O   0  0  0  0  0  0  0  0  0  0  0  0
    6.9215   -8.8085    0.0000 O   0  0  0  0  0  0  0  0  0  0  0  0
    9.7794  -11.2835    0.0000 O   0  0  0  0  0  0  0  0  0  0  0  0
    9.7794   -8.8085    0.0000 O   0  0  0  0  0  0  0  0  0  0  0  0
    9.0649   -9.2210    0.0000 C   0  0  0  0  0  0  0  0  0  0  0  0
    8.3505   -8.8085    0.0000 C   0  0  0  0  0  0  0  0  0  0  0  0
    7.6360   -9.2210    0.0000 C   0  0  0  0  0  0  0  0  0  0  0  0
    7.6360  -10.0460    0.0000 C   0  0  0  0  0  0  0  0  0  0  0  0
    8.3505  -10.4585    0.0000 C   0  0  0  0  0  0  0  0  0  0  0  0
    9.0649  -10.0460    0.0000 C   0  0  0  0  0  0  0  0  0  0  0  0
    9.7794  -10.4585    0.0000 C   0  0  0  0  0  0  0  0  0  0  0  0
   10.4939  -10.0460    0.0000 C   0  0  0  0  0  0  0  0  0  0  0  0
   10.4939   -9.2210    0.0000 C   0  0  0  0  0  0  0  0  0  0  0  0
    9.7870  -13.7585    0.0000 O   0  0  0  0  0  0  0  0  0  0  0  0
   12.6469  -11.2870    0.0000 O   0  0  0  0  0  0  0  0  0  0  0  0
   12.6449  -12.9370    0.0000 O   0  0  0  0  0  0  0  0  0  0  0  0
   11.2149  -13.7602    0.0000 O   0  0  0  0  0  0  0  0  0  0  0  0
    9.7870  -12.9335    0.0000 C   0  0  0  0  0  0  0  0  0  0  0  0
   10.5020  -12.5219    0.0000 C   0  0  2  0  0  0  0  0  0  0  0  0
   11.2159  -12.9352    0.0000 C   0  0  2  0  0  0  0  0  0  0  0  0
   11.9309  -12.5236    0.0000 C   0  0  1  0  0  0  0  0  0  0  0  0
   11.9319  -11.6986    0.0000 C   0  0  2  0  0  0  0  0  0  0  0  0
   11.2179  -11.2852    0.0000 C   0  0  1  0  0  0  0  0  0  0  0  0
   10.5030  -11.6969    0.0000 O   0  0  0  0  0  0  0  0  0  0  0  0
    5.4835   -8.8085    0.0000 O   0  0  0  0  0  0  0  0  0  0  0  0
    6.1980   -9.2210    0.0000 C   0  0  2  0  0  0  0  0  0  0  0  0
    6.1980  -10.0460    0.0000 C   0  0  1  0  0  0  0  0  0  0  0  0
    5.4835  -10.4585    0.0000 C   0  0  2  0  0  0  0  0  0  0  0  0
    4.7690  -10.0460    0.0000 C   0  0  1  0  0  0  0  0  0  0  0  0
    4.7690   -9.2210    0.0000 C   0  0  1  0  0  0  0  0  0  0  0  0
    4.0546   -8.8085    0.0000 C   0  0  0  0  0  0  0  0  0  0  0  0
    3.3401   -9.2210    0.0000 O   0  0  0  0  0  0  0  0  0  0  0  0
    4.0546  -10.4585    0.0000 O   0  0  0  0  0  0  0  0  0  0  0  0
    5.4835  -11.2835    0.0000 O   0  0  0  0  0  0  0  0  0  0  0  0
    6.9125  -10.4585    0.0000 O   0  0  0  0  0  0  0  0  0  0  0  0
    2.6256   -8.8085    0.0000 C   0  0  2  0  0  0  0  0  0  0  0  0
    2.6256   -7.9835    0.0000 O   0  0  0  0  0  0  0  0  0  0  0  0
    1.9112   -7.5710    0.0000 C   0  0  1  0  0  0  0  0  0  0  0  0
    1.1967   -7.9835    0.0000 C   0  0  2  0  0  0  0  0  0  0  0  0
    1.1967   -8.8085    0.0000 C   0  0  1  0  0  0  0  0  0  0  0  0
    1.9112   -9.2210    0.0000 C   0  0  1  0  0  0  0  0  0  0  0  0
    1.9112   -6.7460    0.0000 C   0  0  0  0  0  0  0  0  0  0  0  0
    0.4822   -9.2210    0.0000 O   0  0  0  0  0  0  0  0  0  0  0  0
    1.9112  -10.0460    0.0000 O   0  0  0  0  0  0  0  0  0  0  0  0
    0.4822   -7.5710    0.0000 O   0  0  0  0  0  0  0  0  0  0  0  0
    1.1967   -6.3335    0.0000 O   0  0  0  0  0  0  0  0  0  0  0  0
 22 10  1  0  0  0  0
 19 11  1  0  0  0  0
 17 12  1  0  0  0  0
 23  1  1  0  0  0  0
 21 13  2  0  0  0  0
 23 14  1  0  0  0  0
 15 14  1  0  0  0  0
 20 15  2  0  0  0  0
 16 15  1  0  0  0  0
 17 16  2  0  0  0  0
 18 17  1  0  0  0  0
 19 18  2  0  0  0  0
 20 19  1  0  0  0  0
 21 20  1  0  0  0  0
 22 21  1  0  0  0  0
 23 22  2  0  0  0  0
  1  2  1  0  0  0  0
  2  3  2  0  0  0  0
  3  4  1  0  0  0  0
  4  5  2  0  0  0  0
  5  6  1  0  0  0  0
  1  6  2  0  0  0  0
  7  8  1  0  0  0  0
  3  7  1  0  0  0  0
  4  9  1  0  0  0  0
 32 25  1  6  0  0  0
 31 26  1  1  0  0  0
 30 27  1  6  0  0  0
 29 28  1  1  0  0  0
 34 29  1  0  0  0  0
 30 29  1  0  0  0  0
 31 30  1  0  0  0  0
 32 31  1  0  0  0  0
 33 32  1  0  0  0  0
 34 33  1  0  0  0  0
 28 24  1  0  0  0  0
 33 10  1  1  0  0  0
 35 36  1  0  0  0  0
 36 37  1  0  0  0  0
 37 38  1  0  0  0  0
 38 39  1  0  0  0  0
 39 40  1  0  0  0  0
 35 40  1  0  0  0  0
 41 42  1  0  0  0  0
 40 41  1  1  0  0  0
 39 43  1  6  0  0  0
 38 44  1  1  0  0  0
 37 45  1  6  0  0  0
 36 12  1  1  0  0  0
 46 42  1  1  0  0  0
 46 47  1  0  0  0  0
 47 48  1  0  0  0  0
 48 49  1  0  0  0  0
 49 50  1  0  0  0  0
 50 51  1  0  0  0  0
 51 46  1  0  0  0  0
 48 52  1  1  0  0  0
 50 53  1  1  0  0  0
 51 54  1  6  0  0  0
 49 55  1  6  0  0  0
 52 56  1  0  0  0  0
M  END
>  <cdx:fragmentId>
5

$$$$
