9492.cdx
  Mrv1902 05222410222D          

 61 68  0  0  0  0            999 V2000
    7.1365   -9.9534    0.0000 C   0  0  1  0  0  0  0  0  0  0  0  0
    7.1365   -9.1284    0.0000 C   0  0  2  0  0  0  0  0  0  0  0  0
    7.8510   -8.7159    0.0000 C   0  0  0  0  0  0  0  0  0  0  0  0
    7.8510  -10.3659    0.0000 C   0  0  2  0  0  0  0  0  0  0  0  0
    8.5655   -9.9534    0.0000 C   0  0  2  0  0  0  0  0  0  0  0  0
    8.5655  -10.7784    0.0000 H   0  0  0  0  0  0  0  0  0  0  0  0
    9.2799  -10.3659    0.0000 C   0  0  0  0  0  0  0  0  0  0  0  0
    9.9944   -9.9534    0.0000 C   0  0  0  0  0  0  0  0  0  0  0  0
    9.9944   -9.1284    0.0000 C   0  0  1  0  0  0  0  0  0  0  0  0
    9.9944   -8.3034    0.0000 C   0  0  0  0  0  0  0  0  0  0  0  0
   10.7089   -8.7159    0.0000 C   0  0  2  0  0  0  0  0  0  0  0  0
   10.7089   -9.5409    0.0000 C   0  0  0  0  0  0  0  0  0  0  0  0
   11.4234   -9.1284    0.0000 C   0  0  0  0  0  0  0  0  0  0  0  0
   12.1378   -8.7159    0.0000 C   0  0  1  0  0  0  0  0  0  0  0  0
   12.1378   -7.8909    0.0000 C   0  0  2  0  0  0  0  0  0  0  0  0
   12.8523   -8.3034    0.0000 C   0  0  0  0  0  0  0  0  0  0  0  0
   11.4234   -7.4784    0.0000 C   0  0  2  0  0  0  0  0  0  0  0  0
   10.7089   -7.0659    0.0000 H   0  0  0  0  0  0  0  0  0  0  0  0
   10.7089   -7.8909    0.0000 C   0  0  0  0  0  0  0  0  0  0  0  0
    9.9944   -7.4784    0.0000 C   0  0  0  0  0  0  0  0  0  0  0  0
    9.2799   -7.8909    0.0000 C   0  0  0  0  0  0  0  0  0  0  0  0
    9.2799   -8.7159    0.0000 C   0  0  2  0  0  0  0  0  0  0  0  0
    8.5655   -9.1284    0.0000 C   0  0  1  0  0  0  0  0  0  0  0  0
    8.5655   -8.3034    0.0000 C   0  0  0  0  0  0  0  0  0  0  0  0
    6.4221  -10.3659    0.0000 O   0  0  0  0  0  0  0  0  0  0  0  0
    9.2799   -9.5409    0.0000 H   0  0  0  0  0  0  0  0  0  0  0  0
    8.2635  -11.0803    0.0000 C   0  0  0  0  0  0  0  0  0  0  0  0
    7.4385  -11.0803    0.0000 C   0  0  0  0  0  0  0  0  0  0  0  0
   12.8523   -7.4784    0.0000 C   0  0  0  0  0  0  0  0  0  0  0  0
   12.8523   -6.6534    0.0000 C   0  0  1  0  0  0  0  0  0  0  0  0
   12.1378   -6.2409    0.0000 C   0  0  0  0  0  0  0  0  0  0  0  0
   11.4234   -6.6534    0.0000 C   0  0  0  0  0  0  0  0  0  0  0  0
    6.4221   -8.7159    0.0000 O   0  0  0  0  0  0  0  0  0  0  0  0
    7.8510  -11.7948    0.0000 O   0  0  0  0  0  0  0  0  0  0  0  0
   13.2648   -9.0178    0.0000 O   0  0  0  0  0  0  0  0  0  0  0  0
   13.5668   -7.0659    0.0000 O   0  0  0  0  0  0  0  0  0  0  0  0
   11.7253   -5.5264    0.0000 C   0  0  0  0  0  0  0  0  0  0  0  0
   12.5503   -5.5264    0.0000 C   0  0  0  0  0  0  0  0  0  0  0  0
   12.8523   -9.1284    0.0000 O   0  0  0  0  0  0  0  0  0  0  0  0
    5.7076   -9.9534    0.0000 C   0  0  2  0  0  0  0  0  0  0  0  0
    5.7076   -9.1284    0.0000 O   0  0  0  0  0  0  0  0  0  0  0  0
    4.9931   -8.7159    0.0000 C   0  0  1  0  0  0  0  0  0  0  0  0
    4.2786   -9.1284    0.0000 C   0  0  2  0  0  0  0  0  0  0  0  0
    4.2786   -9.9534    0.0000 C   0  0  1  0  0  0  0  0  0  0  0  0
    4.9931  -10.3659    0.0000 C   0  0  1  0  0  0  0  0  0  0  0  0
    4.9931   -7.8909    0.0000 C   0  0  0  0  0  0  0  0  0  0  0  0
    3.5642  -10.3659    0.0000 O   0  0  0  0  0  0  0  0  0  0  0  0
    4.9931  -11.1909    0.0000 O   0  0  0  0  0  0  0  0  0  0  0  0
    3.5642   -8.7159    0.0000 O   0  0  0  0  0  0  0  0  0  0  0  0
    4.2786   -7.4784    0.0000 O   0  0  0  0  0  0  0  0  0  0  0  0
    2.8497   -9.9534    0.0000 C   0  0  2  0  0  0  0  0  0  0  0  0
    2.8497   -9.1284    0.0000 O   0  0  0  0  0  0  0  0  0  0  0  0
    2.1352   -8.7159    0.0000 C   0  0  1  0  0  0  0  0  0  0  0  0
    1.4208   -9.1284    0.0000 C   0  0  2  0  0  0  0  0  0  0  0  0
    1.4208   -9.9534    0.0000 C   0  0  1  0  0  0  0  0  0  0  0  0
    2.1352  -10.3659    0.0000 C   0  0  1  0  0  0  0  0  0  0  0  0
    2.1352   -7.8909    0.0000 C   0  0  0  0  0  0  0  0  0  0  0  0
    0.7063  -10.3659    0.0000 O   0  0  0  0  0  0  0  0  0  0  0  0
    2.1352  -11.1909    0.0000 O   0  0  0  0  0  0  0  0  0  0  0  0
    0.7063   -8.7159    0.0000 O   0  0  0  0  0  0  0  0  0  0  0  0
    1.4208   -7.4784    0.0000 O   0  0  0  0  0  0  0  0  0  0  0  0
  1  2  1  0  0  0  0
  2  3  1  0  0  0  0
  1  4  1  0  0  0  0
  4  5  1  0  0  0  0
  5  6  1  6  0  0  0
  5  7  1  0  0  0  0
  7  8  1  0  0  0  0
  8  9  1  0  0  0  0
  9 10  1  1  0  0  0
  9 11  1  0  0  0  0
 11 12  1  6  0  0  0
 11 13  1  0  0  0  0
 13 14  1  0  0  0  0
 14 15  1  0  0  0  0
 15 16  1  1  0  0  0
 17 18  1  1  0  0  0
 15 17  1  0  0  0  0
 17 19  1  0  0  0  0
 11 19  1  0  0  0  0
 19 20  2  0  0  0  0
 20 21  1  0  0  0  0
 21 22  1  0  0  0  0
  9 22  1  0  0  0  0
 22 23  1  0  0  0  0
  3 23  1  0  0  0  0
  5 23  1  0  0  0  0
 23 24  1  1  0  0  0
  1 25  1  1  0  0  0
 22 26  1  6  0  0  0
  4 27  1  6  0  0  0
  4 28  1  1  0  0  0
 15 29  1  0  0  0  0
 29 30  1  0  0  0  0
 30 31  1  0  0  0  0
 31 32  1  0  0  0  0
 32 17  1  0  0  0  0
  2 33  1  1  0  0  0
 27 34  1  0  0  0  0
 16 35  2  0  0  0  0
 30 36  1  1  0  0  0
 36 16  1  0  0  0  0
 31 37  1  0  0  0  0
 31 38  1  0  0  0  0
 14 39  1  1  0  0  0
 40 25  1  1  0  0  0
 40 41  1  0  0  0  0
 41 42  1  0  0  0  0
 42 43  1  0  0  0  0
 43 44  1  0  0  0  0
 44 45  1  0  0  0  0
 45 40  1  0  0  0  0
 42 46  1  1  0  0  0
 44 47  1  1  0  0  0
 45 48  1  6  0  0  0
 43 49  1  6  0  0  0
 46 50  1  0  0  0  0
 51 47  1  1  0  0  0
 51 52  1  0  0  0  0
 52 53  1  0  0  0  0
 53 54  1  0  0  0  0
 54 55  1  0  0  0  0
 55 56  1  0  0  0  0
 56 51  1  0  0  0  0
 53 57  1  1  0  0  0
 55 58  1  1  0  0  0
 56 59  1  6  0  0  0
 54 60  1  6  0  0  0
 57 61  1  0  0  0  0
M  END
>  <cdx:groupId>
126

>  <cdx:fragmentId>
5

$$$$
