94924.cdx
  Mrv1902 05222410262D          

 15 16  0  0  0  0            999 V2000
    8.7237   -7.6395    0.0000 C   0  0  1  0  0  0  0  0  0  0  0  0
    9.2145   -8.3026    0.0000 C   0  0  0  0  0  0  0  0  0  0  0  0
    8.7355   -8.9743    0.0000 C   0  0  0  0  0  0  0  0  0  0  0  0
    7.9487   -8.7264    0.0000 C   0  0  0  0  0  0  0  0  0  0  0  0
    7.3083   -9.2465    0.0000 C   0  0  2  0  0  0  0  0  0  0  0  0
    6.5024   -9.0700    0.0000 C   0  0  0  0  0  0  0  0  0  0  0  0
    6.1378   -8.3299    0.0000 C   0  0  0  0  0  0  0  0  0  0  0  0
    6.4892   -7.5835    0.0000 C   0  0  2  0  0  0  0  0  0  0  0  0
    7.2918   -7.3928    0.0000 C   0  0  0  0  0  0  0  0  0  0  0  0
    7.9414   -7.9014    0.0000 C   0  0  0  0  0  0  0  0  0  0  0  0
    6.2636   -6.1725    0.0000 C   0  0  0  0  0  0  0  0  0  0  0  0
    5.9691   -6.9431    0.0000 C   0  0  0  0  0  0  0  0  0  0  0  0
    5.1544   -7.0733    0.0000 C   0  0  0  0  0  0  0  0  0  0  0  0
    7.4990  -10.0491    0.0000 C   0  0  0  0  0  0  0  0  0  0  0  0
    8.9717   -6.8527    0.0000 C   0  0  0  0  0  0  0  0  0  0  0  0
  1  2  1  0  0  0  0
  2  3  1  0  0  0  0
  3  4  1  0  0  0  0
  4  5  1  0  0  0  0
  5  6  1  0  0  0  0
  6  7  1  0  0  0  0
  7  8  1  0  0  0  0
  8  9  1  0  0  0  0
  9 10  1  0  0  0  0
  1 10  1  0  0  0  0
  4 10  2  0  0  0  0
 11 12  2  0  0  0  0
 12 13  1  0  0  0  0
  8 12  1  1  0  0  0
  5 14  1  1  0  0  0
  1 15  1  1  0  0  0
M  END
>  <cdx:fragmentId>
5

$$$$
