94926.cdx
  Mrv1902 05222410272D          

 69 75  0  0  0  0            999 V2000
   10.7191   -8.6701    0.0000 C   0  0  0  0  0  0  0  0  0  0  0  0
   10.7191   -9.4948    0.0000 C   0  0  0  0  0  0  0  0  0  0  0  0
   11.4334   -9.9072    0.0000 O   0  0  0  0  0  0  0  0  0  0  0  0
   10.0049   -9.9072    0.0000 C   0  0  0  0  0  0  0  0  0  0  0  0
   10.0049  -10.7319    0.0000 O   0  0  0  0  0  0  0  0  0  0  0  0
    9.2906   -9.4948    0.0000 C   0  0  0  0  0  0  0  0  0  0  0  0
    8.5764   -9.9072    0.0000 C   0  0  0  0  0  0  0  0  0  0  0  0
    8.5764  -10.7319    0.0000 O   0  0  0  0  0  0  0  0  0  0  0  0
    7.8621   -9.4948    0.0000 C   0  0  0  0  0  0  0  0  0  0  0  0
    7.8621   -8.6701    0.0000 C   0  0  0  0  0  0  0  0  0  0  0  0
    8.5764   -8.2577    0.0000 C   0  0  0  0  0  0  0  0  0  0  0  0
    9.2906   -8.6701    0.0000 C   0  0  0  0  0  0  0  0  0  0  0  0
   10.0049   -8.2577    0.0000 O   0  0  0  0  0  0  0  0  0  0  0  0
   11.4334   -8.2577    0.0000 C   0  0  0  0  0  0  0  0  0  0  0  0
   11.4334   -7.4330    0.0000 C   0  0  0  0  0  0  0  0  0  0  0  0
   12.1476   -7.0206    0.0000 C   0  0  0  0  0  0  0  0  0  0  0  0
   12.8618   -7.4330    0.0000 C   0  0  0  0  0  0  0  0  0  0  0  0
   13.5761   -7.0206    0.0000 O   0  0  0  0  0  0  0  0  0  0  0  0
   12.8618   -8.2577    0.0000 C   0  0  0  0  0  0  0  0  0  0  0  0
   12.1476   -8.6701    0.0000 C   0  0  0  0  0  0  0  0  0  0  0  0
    7.1479   -8.2577    0.0000 O   0  0  0  0  0  0  0  0  0  0  0  0
    6.4336   -8.6701    0.0000 C   0  0  1  0  0  0  0  0  0  0  0  0
    6.4336   -9.4948    0.0000 C   0  0  2  0  0  0  0  0  0  0  0  0
    7.1479   -9.9072    0.0000 O   0  0  0  0  0  0  0  0  0  0  0  0
    5.7194   -9.9072    0.0000 C   0  0  1  0  0  0  0  0  0  0  0  0
    5.7194  -10.7319    0.0000 O   0  0  0  0  0  0  0  0  0  0  0  0
    5.0051   -9.4948    0.0000 C   0  0  2  0  0  0  0  0  0  0  0  0
    4.2909   -9.9072    0.0000 O   0  0  0  0  0  0  0  0  0  0  0  0
    5.0051   -8.6701    0.0000 C   0  0  2  0  0  0  0  0  0  0  0  0
    5.7194   -8.2577    0.0000 O   0  0  0  0  0  0  0  0  0  0  0  0
    4.2909   -8.2577    0.0000 C   0  0  0  0  0  0  0  0  0  0  0  0
    3.5766   -8.6701    0.0000 O   0  0  0  0  0  0  0  0  0  0  0  0
    2.8624   -8.2577    0.0000 C   0  0  1  0  0  0  0  0  0  0  0  0
    2.1482   -8.6701    0.0000 C   0  0  2  0  0  0  0  0  0  0  0  0
    2.1482   -9.4948    0.0000 O   0  0  0  0  0  0  0  0  0  0  0  0
    1.4339   -8.2577    0.0000 C   0  0  1  0  0  0  0  0  0  0  0  0
    0.7197   -8.6701    0.0000 O   0  0  0  0  0  0  0  0  0  0  0  0
    1.4339   -7.4330    0.0000 C   0  0  2  0  0  0  0  0  0  0  0  0
    0.7197   -7.0206    0.0000 O   0  0  0  0  0  0  0  0  0  0  0  0
    2.1482   -7.0206    0.0000 C   0  0  2  0  0  0  0  0  0  0  0  0
    2.8624   -7.4330    0.0000 O   0  0  0  0  0  0  0  0  0  0  0  0
    2.1482   -6.1958    0.0000 C   0  0  0  0  0  0  0  0  0  0  0  0
    1.4339   -5.7835    0.0000 O   0  0  0  0  0  0  0  0  0  0  0  0
    2.8624   -9.9072    0.0000 C   0  0  0  0  0  0  0  0  0  0  0  0
    2.8624  -10.7319    0.0000 C   0  0  0  0  0  0  0  0  0  0  0  0
    3.5766  -11.1443    0.0000 C   0  0  0  0  0  0  0  0  0  0  0  0
    3.5766  -11.9690    0.0000 C   0  0  0  0  0  0  0  0  0  0  0  0
    4.2909  -12.3814    0.0000 C   0  0  0  0  0  0  0  0  0  0  0  0
    4.2909  -13.2061    0.0000 C   0  0  0  0  0  0  0  0  0  0  0  0
    5.0051  -13.6185    0.0000 O   0  0  0  0  0  0  0  0  0  0  0  0
    5.7194  -13.2061    0.0000 C   0  0  0  0  0  0  0  0  0  0  0  0
    3.5766  -13.6185    0.0000 C   0  0  0  0  0  0  0  0  0  0  0  0
    3.5766  -14.4433    0.0000 O   0  0  0  0  0  0  0  0  0  0  0  0
    2.8624  -13.2061    0.0000 C   0  0  0  0  0  0  0  0  0  0  0  0
    2.1482  -13.6185    0.0000 O   0  0  0  0  0  0  0  0  0  0  0  0
    1.4339  -13.2061    0.0000 C   0  0  0  0  0  0  0  0  0  0  0  0
    2.8624  -12.3814    0.0000 C   0  0  0  0  0  0  0  0  0  0  0  0
    3.5766   -9.4948    0.0000 O   0  0  0  0  0  0  0  0  0  0  0  0
   11.4334  -10.7322    0.0000 C   0  0  2  0  0  0  0  0  0  0  0  0
   10.7189  -11.1447    0.0000 O   0  0  0  0  0  0  0  0  0  0  0  0
   10.7189  -11.9697    0.0000 C   0  0  1  0  0  0  0  0  0  0  0  0
   11.4334  -12.3822    0.0000 C   0  0  2  0  0  0  0  0  0  0  0  0
   12.1478  -11.9697    0.0000 C   0  0  1  0  0  0  0  0  0  0  0  0
   12.1478  -11.1447    0.0000 C   0  0  1  0  0  0  0  0  0  0  0  0
   10.0044  -12.3822    0.0000 C   0  0  0  0  0  0  0  0  0  0  0  0
   12.8623  -12.3822    0.0000 O   0  0  0  0  0  0  0  0  0  0  0  0
   11.4334  -13.2072    0.0000 O   0  0  0  0  0  0  0  0  0  0  0  0
   12.8623  -10.7322    0.0000 O   0  0  0  0  0  0  0  0  0  0  0  0
   10.0044  -13.2072    0.0000 O   0  0  0  0  0  0  0  0  0  0  0  0
  1  2  2  0  0  0  0
  2  3  1  0  0  0  0
  2  4  1  0  0  0  0
  4  5  2  0  0  0  0
  4  6  1  0  0  0  0
  6  7  1  0  0  0  0
  7  8  1  0  0  0  0
  7  9  2  0  0  0  0
  9 10  1  0  0  0  0
 10 11  2  0  0  0  0
 11 12  1  0  0  0  0
  6 12  2  0  0  0  0
 12 13  1  0  0  0  0
  1 13  1  0  0  0  0
  1 14  1  0  0  0  0
 14 15  1  0  0  0  0
 15 16  2  0  0  0  0
 16 17  1  0  0  0  0
 17 18  1  0  0  0  0
 17 19  2  0  0  0  0
 19 20  1  0  0  0  0
 14 20  2  0  0  0  0
 22 21  1  1  0  0  0
 22 23  1  0  0  0  0
 23 24  1  6  0  0  0
 23 25  1  0  0  0  0
 25 26  1  1  0  0  0
 25 27  1  0  0  0  0
 27 28  1  6  0  0  0
 27 29  1  0  0  0  0
 29 30  1  0  0  0  0
 29 31  1  1  0  0  0
 31 32  1  0  0  0  0
 22 30  1  0  0  0  0
 33 34  1  0  0  0  0
 34 35  1  6  0  0  0
 34 36  1  0  0  0  0
 36 37  1  1  0  0  0
 36 38  1  0  0  0  0
 38 39  1  6  0  0  0
 38 40  1  0  0  0  0
 40 41  1  0  0  0  0
 40 42  1  1  0  0  0
 42 43  1  0  0  0  0
 33 41  1  0  0  0  0
 44 45  1  0  0  0  0
 45 46  2  0  0  0  0
 46 47  1  0  0  0  0
 47 48  1  0  0  0  0
 48 49  2  0  0  0  0
 49 50  1  0  0  0  0
 50 51  1  0  0  0  0
 49 52  1  0  0  0  0
 52 53  1  0  0  0  0
 52 54  2  0  0  0  0
 54 55  1  0  0  0  0
 55 56  1  0  0  0  0
 54 57  1  0  0  0  0
 47 57  2  0  0  0  0
 44 58  2  0  0  0  0
 35 44  1  0  0  0  0
 33 32  1  1  0  0  0
 10 21  1  0  0  0  0
 59  3  1  1  0  0  0
 59 60  1  0  0  0  0
 60 61  1  0  0  0  0
 61 62  1  0  0  0  0
 62 63  1  0  0  0  0
 63 64  1  0  0  0  0
 64 59  1  0  0  0  0
 61 65  1  1  0  0  0
 63 66  1  1  0  0  0
 62 67  1  6  0  0  0
 64 68  1  6  0  0  0
 65 69  1  0  0  0  0
M  END
>  <cdx:fragmentId>
91

$$$$
