94930.cdx
  Mrv1902 05222410262D          

 64 71  0  0  0  0            999 V2000
   17.2345   -5.4175    0.0000 C   0  0  0  0  0  0  0  0  0  0  0  0
   17.9490   -5.0050    0.0000 C   0  0  0  0  0  0  0  0  0  0  0  0
   18.6635   -5.4175    0.0000 C   0  0  0  0  0  0  0  0  0  0  0  0
   18.6635   -6.2425    0.0000 C   0  0  0  0  0  0  0  0  0  0  0  0
   17.9490   -6.6550    0.0000 C   0  0  2  0  0  0  0  0  0  0  0  0
   17.9490   -7.4800    0.0000 C   0  0  0  0  0  0  0  0  0  0  0  0
   17.2345   -7.8925    0.0000 C   0  0  0  0  0  0  0  0  0  0  0  0
   16.5200   -7.4800    0.0000 C   0  0  1  0  0  0  0  0  0  0  0  0
   15.8056   -7.8925    0.0000 C   0  0  2  0  0  0  0  0  0  0  0  0
   15.8056   -8.7175    0.0000 C   0  0  0  0  0  0  0  0  0  0  0  0
   15.0911   -9.1300    0.0000 C   0  0  0  0  0  0  0  0  0  0  0  0
   14.3766   -8.7175    0.0000 C   0  0  1  0  0  0  0  0  0  0  0  0
   13.6622   -9.1300    0.0000 C   0  0  0  0  0  0  0  0  0  0  0  0
   12.9477   -8.7175    0.0000 C   0  0  2  0  0  0  0  0  0  0  0  0
   12.9477   -7.8925    0.0000 C   0  0  0  0  0  0  0  0  0  0  0  0
   13.6622   -7.4800    0.0000 C   0  0  0  0  0  0  0  0  0  0  0  0
   14.3766   -7.8925    0.0000 C   0  0  2  0  0  0  0  0  0  0  0  0
   15.0911   -7.4800    0.0000 C   0  0  1  0  0  0  0  0  0  0  0  0
   15.0911   -6.6550    0.0000 C   0  0  0  0  0  0  0  0  0  0  0  0
   15.8056   -6.2425    0.0000 C   0  0  0  0  0  0  0  0  0  0  0  0
   16.5200   -6.6550    0.0000 C   0  0  0  0  0  0  0  0  0  0  0  0
   17.2345   -6.2425    0.0000 C   0  0  2  0  0  0  0  0  0  0  0  0
   18.6635   -7.0675    0.0000 C   0  0  0  0  0  0  0  0  0  0  0  0
   18.6635   -7.8925    0.0000 O   0  0  0  0  0  0  0  0  0  0  0  0
   14.0747   -9.8444    0.0000 C   0  0  0  0  0  0  0  0  0  0  0  0
   13.2497   -9.8444    0.0000 C   0  0  0  0  0  0  0  0  0  0  0  0
   17.5365   -4.2905    0.0000 C   0  0  0  0  0  0  0  0  0  0  0  0
   18.3615   -4.2905    0.0000 C   0  0  0  0  0  0  0  0  0  0  0  0
   12.2332   -9.1300    0.0000 O   0  0  0  0  0  0  0  0  0  0  0  0
   11.5187   -7.8925    0.0000 O   0  0  0  0  0  0  0  0  0  0  0  0
   11.5187   -8.7175    0.0000 C   0  0  2  0  0  0  0  0  0  0  0  0
   10.8043   -9.1300    0.0000 C   0  0  1  0  0  0  0  0  0  0  0  0
   10.0898   -8.7175    0.0000 C   0  0  2  0  0  0  0  0  0  0  0  0
   10.0898   -7.8925    0.0000 C   0  0  2  0  0  0  0  0  0  0  0  0
   10.8043   -7.4800    0.0000 C   0  0  0  0  0  0  0  0  0  0  0  0
    9.3753   -7.4800    0.0000 O   0  0  0  0  0  0  0  0  0  0  0  0
    9.3753   -9.1300    0.0000 O   0  0  0  0  0  0  0  0  0  0  0  0
   10.8043   -9.9550    0.0000 O   0  0  0  0  0  0  0  0  0  0  0  0
    9.3753   -9.9550    0.0000 O   0  0  0  0  0  0  0  0  0  0  0  0
   10.0898  -10.3675    0.0000 C   0  0  2  0  0  0  0  0  0  0  0  0
   10.0898  -11.1925    0.0000 C   0  0  1  0  0  0  0  0  0  0  0  0
    9.3753  -11.6050    0.0000 C   0  0  1  0  0  0  0  0  0  0  0  0
    8.6609  -11.1925    0.0000 C   0  0  2  0  0  0  0  0  0  0  0  0
    8.6609  -10.3675    0.0000 C   0  0  2  0  0  0  0  0  0  0  0  0
    7.9464   -9.9550    0.0000 C   0  0  0  0  0  0  0  0  0  0  0  0
    7.9464  -11.6050    0.0000 O   0  0  0  0  0  0  0  0  0  0  0  0
   10.8043  -11.6050    0.0000 O   0  0  0  0  0  0  0  0  0  0  0  0
    6.5091  -14.0629    0.0000 O   0  0  0  0  0  0  0  0  0  0  0  0
   14.3766   -9.5425    0.0000 H   0  0  0  0  0  0  0  0  0  0  0  0
   17.2345   -7.0675    0.0000 H   0  0  0  0  0  0  0  0  0  0  0  0
    9.3753  -14.0800    0.0000 O   0  0  0  0  0  0  0  0  0  0  0  0
    7.2319  -12.8425    0.0000 C   0  0  0  0  0  0  0  0  0  0  0  0
    7.2319  -13.6675    0.0000 C   0  0  2  0  0  0  0  0  0  0  0  0
    7.9464  -14.0800    0.0000 C   0  0  2  0  0  0  0  0  0  0  0  0
    8.6609  -13.6675    0.0000 C   0  0  2  0  0  0  0  0  0  0  0  0
    8.6609  -12.8425    0.0000 C   0  0  1  0  0  0  0  0  0  0  0  0
    7.9464  -12.4300    0.0000 O   0  0  0  0  0  0  0  0  0  0  0  0
    9.3753  -12.4300    0.0000 O   0  0  0  0  0  0  0  0  0  0  0  0
   19.3779   -6.6550    0.0000 O   0  0  0  0  0  0  0  0  0  0  0  0
   14.3766   -7.0675    0.0000 C   0  0  0  0  0  0  0  0  0  0  0  0
   15.8056   -7.0675    0.0000 C   0  0  0  0  0  0  0  0  0  0  0  0
   16.5200   -8.3050    0.0000 C   0  0  0  0  0  0  0  0  0  0  0  0
   15.0911   -8.3050    0.0000 H   0  0  0  0  0  0  0  0  0  0  0  0
    7.9464  -14.9050    0.0000 O   0  0  0  0  0  0  0  0  0  0  0  0
 56 58  1  1  0  0  0
 55 51  1  6  0  0  0
 57 52  1  0  0  0  0
 53 52  1  0  0  0  0
 54 53  1  0  0  0  0
  1  2  1  0  0  0  0
  2  3  1  0  0  0  0
  3  4  1  0  0  0  0
  4  5  1  0  0  0  0
  5  6  1  0  0  0  0
  6  7  1  0  0  0  0
  7  8  1  0  0  0  0
  8  9  1  0  0  0  0
  9 10  1  0  0  0  0
 10 11  1  0  0  0  0
 11 12  1  0  0  0  0
 12 13  1  0  0  0  0
 13 14  1  0  0  0  0
 14 15  1  0  0  0  0
 15 16  1  0  0  0  0
 16 17  1  0  0  0  0
 12 17  1  0  0  0  0
 17 18  1  0  0  0  0
  9 18  1  0  0  0  0
 18 19  1  0  0  0  0
 19 20  1  0  0  0  0
 20 21  2  0  0  0  0
  8 21  1  0  0  0  0
 21 22  1  0  0  0  0
  5 22  1  0  0  0  0
  1 22  1  0  0  0  0
 23 24  2  0  0  0  0
 23 59  1  0  0  0  0
  5 23  1  1  0  0  0
 13 25  1  0  0  0  0
 13 26  1  0  0  0  0
  2 27  1  0  0  0  0
  2 28  1  0  0  0  0
 30 31  1  0  0  0  0
 31 32  1  0  0  0  0
 32 33  1  0  0  0  0
 33 34  1  0  0  0  0
 34 35  1  0  0  0  0
 30 35  1  0  0  0  0
 34 36  1  1  0  0  0
 33 37  1  1  0  0  0
 39 40  1  0  0  0  0
 40 41  1  0  0  0  0
 41 42  1  0  0  0  0
 42 43  1  0  0  0  0
 43 44  1  0  0  0  0
 39 44  1  0  0  0  0
 44 45  1  6  0  0  0
 43 46  1  1  0  0  0
 41 47  1  6  0  0  0
 55 54  1  0  0  0  0
 56 55  1  0  0  0  0
 57 56  1  0  0  0  0
 42 58  1  6  0  0  0
 40 38  1  1  0  0  0
 32 38  1  6  0  0  0
 31 29  1  1  0  0  0
 14 29  1  1  0  0  0
 12 49  1  6  0  0  0
 22 50  1  1  0  0  0
 17 60  1  1  0  0  0
  9 61  1  1  0  0  0
  8 62  1  6  0  0  0
 18 63  1  6  0  0  0
 54 64  1  6  0  0  0
 53 48  1  6  0  0  0
M  END
>  <cdx:groupId>
181687

>  <cdx:fragmentId>
181457

$$$$
