94935.cdx
  Mrv1902 05222410282D          

 25 27  0  0  0  0            999 V2000
    8.1690   -7.6239    0.0000 O   0  0  0  0  0  0  0  0  0  0  0  0
    7.4500   -8.8588    0.0000 O   0  0  0  0  0  0  0  0  0  0  0  0
    8.1660   -8.4489    0.0000 C   0  0  2  0  0  0  0  0  0  0  0  0
    8.8790   -8.8639    0.0000 C   0  0  1  0  0  0  0  0  0  0  0  0
    8.8760   -9.6889    0.0000 C   0  0  2  0  0  0  0  0  0  0  0  0
    8.1600  -10.0988    0.0000 C   0  0  1  0  0  0  0  0  0  0  0  0
    7.4470   -9.6838    0.0000 C   0  0  1  0  0  0  0  0  0  0  0  0
    6.7311  -10.0937    0.0000 C   0  0  0  0  0  0  0  0  0  0  0  0
    6.0181   -9.6786    0.0000 O   0  0  0  0  0  0  0  0  0  0  0  0
    8.1570  -10.9238    0.0000 O   0  0  0  0  0  0  0  0  0  0  0  0
    9.5889  -10.1040    0.0000 O   0  0  0  0  0  0  0  0  0  0  0  0
    9.5949   -8.4540    0.0000 O   0  0  0  0  0  0  0  0  0  0  0  0
    8.8848   -6.3872    0.0000 C   0  0  0  0  0  0  0  0  0  0  0  0
    8.1708   -5.9739    0.0000 O   0  0  0  0  0  0  0  0  0  0  0  0
    3.8840   -5.9691    0.0000 O   0  0  0  0  0  0  0  0  0  0  0  0
    5.3130   -5.9707    0.0000 O   0  0  0  0  0  0  0  0  0  0  0  0
    6.0270   -6.3840    0.0000 C   0  0  0  0  0  0  0  0  0  0  0  0
    6.7419   -5.9723    0.0000 C   0  0  0  0  0  0  0  0  0  0  0  0
    7.4559   -6.3856    0.0000 C   0  0  0  0  0  0  0  0  0  0  0  0
    7.4550   -7.2106    0.0000 C   0  0  0  0  0  0  0  0  0  0  0  0
    6.7400   -7.6223    0.0000 C   0  0  0  0  0  0  0  0  0  0  0  0
    6.0260   -7.2090    0.0000 C   0  0  0  0  0  0  0  0  0  0  0  0
    5.3111   -7.6207    0.0000 C   0  0  0  0  0  0  0  0  0  0  0  0
    4.5971   -7.2074    0.0000 C   0  0  0  0  0  0  0  0  0  0  0  0
    4.5980   -6.3824    0.0000 C   0  0  0  0  0  0  0  0  0  0  0  0
 19 14  1  0  0  0  0
 14 13  1  0  0  0  0
 20  1  1  0  0  0  0
 25 15  2  0  0  0  0
 25 16  1  0  0  0  0
 17 16  1  0  0  0  0
 22 17  2  0  0  0  0
 18 17  1  0  0  0  0
 19 18  2  0  0  0  0
 20 19  1  0  0  0  0
 21 20  2  0  0  0  0
 22 21  1  0  0  0  0
 23 22  1  0  0  0  0
 24 23  2  0  0  0  0
 25 24  1  0  0  0  0
  2  3  1  0  0  0  0
  3  4  1  0  0  0  0
  4  5  1  0  0  0  0
  5  6  1  0  0  0  0
  6  7  1  0  0  0  0
  2  7  1  0  0  0  0
  8  9  1  0  0  0  0
  7  8  1  1  0  0  0
  6 10  1  6  0  0  0
  5 11  1  1  0  0  0
  4 12  1  6  0  0  0
  3  1  1  1  0  0  0
M  END
>  <cdx:fragmentId>
29

$$$$
