94936.cdx
  Mrv1902 05222410272D          

 22 22  0  0  0  0            999 V2000
    1.1925   -6.4157    0.0000 C   0  0  0  0  0  0  0  0  0  0  0  0
    0.6405   -7.0288    0.0000 C   0  0  0  0  0  0  0  0  0  0  0  0
    1.0530   -7.7433    0.0000 C   0  0  0  0  0  0  0  0  0  0  0  0
    1.8599   -7.5717    0.0000 C   0  0  0  0  0  0  0  0  0  0  0  0
    2.6607   -5.5137    0.0000 O   0  0  0  0  0  0  0  0  0  0  0  0
    1.9462   -6.7512    0.0000 N   0  0  0  0  0  0  0  0  0  0  0  0
    2.6607   -6.3388    0.0000 C   0  0  0  0  0  0  0  0  0  0  0  0
    3.3751   -6.7512    0.0000 C   0  0  0  0  0  0  0  0  0  0  0  0
    4.0896   -6.3388    0.0000 C   0  0  0  0  0  0  0  0  0  0  0  0
    4.8041   -6.7512    0.0000 C   0  0  0  0  0  0  0  0  0  0  0  0
    5.5185   -6.3388    0.0000 C   0  0  0  0  0  0  0  0  0  0  0  0
    6.2330   -6.7512    0.0000 C   0  0  0  0  0  0  0  0  0  0  0  0
    6.9475   -6.3388    0.0000 C   0  0  0  0  0  0  0  0  0  0  0  0
    7.6619   -6.7512    0.0000 C   0  0  0  0  0  0  0  0  0  0  0  0
    8.3764   -6.3388    0.0000 C   0  0  0  0  0  0  0  0  0  0  0  0
    9.0909   -6.7512    0.0000 C   0  0  0  0  0  0  0  0  0  0  0  0
    9.8054   -6.3388    0.0000 C   0  0  0  0  0  0  0  0  0  0  0  0
   10.5198   -6.7512    0.0000 C   0  0  0  0  0  0  0  0  0  0  0  0
   11.2343   -6.3388    0.0000 C   0  0  0  0  0  0  0  0  0  0  0  0
   11.9488   -6.7512    0.0000 C   0  0  0  0  0  0  0  0  0  0  0  0
   12.6632   -6.3388    0.0000 C   0  0  0  0  0  0  0  0  0  0  0  0
   13.3777   -6.7512    0.0000 C   0  0  0  0  0  0  0  0  0  0  0  0
  1  6  1  0  0  0  0
  2  1  1  0  0  0  0
  3  2  1  0  0  0  0
  4  3  1  0  0  0  0
  6  4  1  0  0  0  0
  7  5  2  0  0  0  0
  7  6  1  0  0  0  0
  8  7  1  0  0  0  0
  9  8  2  0  0  0  0
 10  9  1  0  0  0  0
 11 10  1  0  0  0  0
 12 11  1  0  0  0  0
 13 12  1  0  0  0  0
 14 13  1  0  0  0  0
 15 14  1  0  0  0  0
 16 15  1  0  0  0  0
 17 16  1  0  0  0  0
 18 17  1  0  0  0  0
 19 18  1  0  0  0  0
 20 19  1  0  0  0  0
 21 20  1  0  0  0  0
 22 21  1  0  0  0  0
M  END
>  <cdx:fragmentId>
3

$$$$
