94932.cdx
  Mrv1902 05222410272D          

 34 37  0  0  0  0            999 V2000
    4.6568   -7.4342    0.0000 C   0  0  0  0  0  0  0  0  0  0  0  0
    3.9423   -7.8467    0.0000 C   0  0  0  0  0  0  0  0  0  0  0  0
    3.9423   -8.6717    0.0000 C   0  0  1  0  0  0  0  0  0  0  0  0
    4.6568   -9.0842    0.0000 C   0  0  0  0  0  0  0  0  0  0  0  0
    5.3713   -8.6717    0.0000 C   0  0  0  0  0  0  0  0  0  0  0  0
    6.0857   -9.0842    0.0000 C   0  0  0  0  0  0  0  0  0  0  0  0
    6.8002   -8.6717    0.0000 C   0  0  0  0  0  0  0  0  0  0  0  0
    6.8002   -7.8467    0.0000 C   0  0  1  0  0  0  0  0  0  0  0  0
    7.5147   -7.4342    0.0000 C   0  0  2  0  0  0  0  0  0  0  0  0
    8.2993   -7.6891    0.0000 C   0  0  0  0  0  0  0  0  0  0  0  0
    8.7842   -7.0217    0.0000 C   0  0  0  0  0  0  0  0  0  0  0  0
    8.2993   -6.3542    0.0000 C   0  0  1  0  0  0  0  0  0  0  0  0
    7.5147   -6.6092    0.0000 C   0  0  1  0  0  0  0  0  0  0  0  0
    6.8002   -6.1967    0.0000 C   0  0  0  0  0  0  0  0  0  0  0  0
    6.0857   -6.6092    0.0000 C   0  0  0  0  0  0  0  0  0  0  0  0
    6.0857   -7.4342    0.0000 C   0  0  2  0  0  0  0  0  0  0  0  0
    5.3713   -7.8467    0.0000 C   0  0  1  0  0  0  0  0  0  0  0  0
    3.2279   -9.0842    0.0000 O   0  0  0  0  0  0  0  0  0  0  0  0
    8.0022   -4.9565    0.0000 C   0  0  0  0  0  0  0  0  0  0  0  0
    8.5542   -5.5696    0.0000 C   0  0  2  0  0  0  0  0  0  0  0  0
    9.3612   -5.3981    0.0000 C   0  0  0  0  0  0  0  0  0  0  0  0
    9.6162   -4.6135    0.0000 C   0  0  0  0  0  0  0  0  0  0  0  0
   10.1260   -3.0442    0.0000 C   0  0  0  0  0  0  0  0  0  0  0  0
    7.5147   -5.7842    0.0000 C   0  0  0  0  0  0  0  0  0  0  0  0
    5.3713   -7.0217    0.0000 C   0  0  0  0  0  0  0  0  0  0  0  0
    6.0857   -8.2592    0.0000 H   0  0  0  0  0  0  0  0  0  0  0  0
    7.5147   -8.2592    0.0000 H   0  0  0  0  0  0  0  0  0  0  0  0
   10.6781   -3.6573    0.0000 C   0  0  0  0  0  0  0  0  0  0  0  0
   11.4850   -3.4858    0.0000 C   0  0  0  0  0  0  0  0  0  0  0  0
   11.7821   -4.8835    0.0000 C   0  0  0  0  0  0  0  0  0  0  0  0
   10.9752   -5.0550    0.0000 C   0  0  0  0  0  0  0  0  0  0  0  0
   10.4231   -4.4419    0.0000 C   0  0  0  0  0  0  0  0  0  0  0  0
    9.0839   -6.0993    0.0000 H   0  0  0  0  0  0  0  0  0  0  0  0
    6.8002   -7.0217    0.0000 H   0  0  0  0  0  0  0  0  0  0  0  0
 32 28  1  0  0  0  0
 28 23  1  0  0  0  0
 29 28  1  0  0  0  0
 31 30  1  0  0  0  0
 32 31  2  0  0  0  0
  1  2  1  0  0  0  0
  2  3  1  0  0  0  0
  3  4  1  0  0  0  0
  4  5  1  0  0  0  0
  5  6  2  0  0  0  0
  6  7  1  0  0  0  0
  7  8  1  0  0  0  0
  8  9  1  0  0  0  0
  9 10  1  0  0  0  0
 10 11  1  0  0  0  0
 12 11  1  0  0  0  0
 12 13  1  0  0  0  0
  9 13  1  0  0  0  0
 13 14  1  0  0  0  0
 14 15  1  0  0  0  0
 15 16  1  0  0  0  0
  8 16  1  0  0  0  0
 16 17  1  0  0  0  0
  5 17  1  0  0  0  0
  1 17  1  0  0  0  0
  3 18  1  1  0  0  0
 20 19  1  6  0  0  0
 20 21  1  0  0  0  0
 21 22  1  0  0  0  0
 22 32  1  0  0  0  0
 12 20  1  0  0  0  0
 13 24  1  1  0  0  0
 17 25  1  1  0  0  0
 16 26  1  6  0  0  0
  9 27  1  6  0  0  0
 12 33  1  6  0  0  0
  8 34  1  1  0  0  0
M  END
>  <cdx:fragmentId>
27691

$$$$
