94938.cdx
  Mrv1902 05222410182D          

 14 13  0  0  0  0            999 V2000
    3.7920   -8.4700    0.0000 C   0  0  0  0  0  0  0  0  0  0  0  0
    5.9354   -6.4075    0.0000 O   0  0  0  0  0  0  0  0  0  0  0  0
    3.0775   -7.2325    0.0000 C   0  0  0  0  0  0  0  0  0  0  0  0
    3.7920   -7.6450    0.0000 C   0  0  0  0  0  0  0  0  0  0  0  0
    4.5065   -7.2325    0.0000 C   0  0  0  0  0  0  0  0  0  0  0  0
    5.2209   -7.6450    0.0000 N   0  0  0  0  0  0  0  0  0  0  0  0
    5.9354   -7.2325    0.0000 C   0  0  0  0  0  0  0  0  0  0  0  0
    6.6499   -7.6450    0.0000 C   0  0  0  0  0  0  0  0  0  0  0  0
    7.3644   -7.2325    0.0000 C   0  0  0  0  0  0  0  0  0  0  0  0
    8.0788   -7.6450    0.0000 C   0  0  0  0  0  0  0  0  0  0  0  0
    8.7933   -7.2325    0.0000 C   0  0  0  0  0  0  0  0  0  0  0  0
    9.5078   -7.6450    0.0000 C   0  0  0  0  0  0  0  0  0  0  0  0
   10.2222   -7.2325    0.0000 C   0  0  0  0  0  0  0  0  0  0  0  0
   10.9367   -7.6450    0.0000 C   0  0  0  0  0  0  0  0  0  0  0  0
  4  1  1  0  0  0  0
  7  2  2  0  0  0  0
  4  3  1  0  0  0  0
  5  4  1  0  0  0  0
  6  5  1  0  0  0  0
  7  6  1  0  0  0  0
  8  7  1  0  0  0  0
  9  8  2  0  0  0  0
 10  9  1  0  0  0  0
 11 10  2  0  0  0  0
 12 11  1  0  0  0  0
 13 12  1  0  0  0  0
 14 13  1  0  0  0  0
M  END
>  <cdx:fragmentId>
3

$$$$
