9493.cdx
  Mrv1902 05222410222D          

 78 86  0  0  0  0            999 V2000
   12.2515  -10.7509    0.0000 C   0  0  1  0  0  0  0  0  0  0  0  0
   12.2515   -9.9259    0.0000 C   0  0  2  0  0  0  0  0  0  0  0  0
   12.9660   -9.5134    0.0000 C   0  0  0  0  0  0  0  0  0  0  0  0
   12.9660  -11.1634    0.0000 C   0  0  2  0  0  0  0  0  0  0  0  0
   13.6805  -10.7509    0.0000 C   0  0  2  0  0  0  0  0  0  0  0  0
   13.6805  -11.5759    0.0000 H   0  0  0  0  0  0  0  0  0  0  0  0
   14.3949  -11.1634    0.0000 C   0  0  0  0  0  0  0  0  0  0  0  0
   15.1094  -10.7509    0.0000 C   0  0  0  0  0  0  0  0  0  0  0  0
   15.1094   -9.9259    0.0000 C   0  0  1  0  0  0  0  0  0  0  0  0
   15.1094   -9.1009    0.0000 C   0  0  0  0  0  0  0  0  0  0  0  0
   15.8239   -9.5134    0.0000 C   0  0  2  0  0  0  0  0  0  0  0  0
   15.8239  -10.3384    0.0000 C   0  0  0  0  0  0  0  0  0  0  0  0
   16.5384   -9.9259    0.0000 C   0  0  0  0  0  0  0  0  0  0  0  0
   17.2528   -9.5134    0.0000 C   0  0  2  0  0  0  0  0  0  0  0  0
   17.2528   -8.6884    0.0000 C   0  0  2  0  0  0  0  0  0  0  0  0
   17.9673   -9.1009    0.0000 C   0  0  0  0  0  0  0  0  0  0  0  0
   16.5384   -8.2759    0.0000 C   0  0  2  0  0  0  0  0  0  0  0  0
   15.8239   -7.8634    0.0000 H   0  0  0  0  0  0  0  0  0  0  0  0
   15.8239   -8.6884    0.0000 C   0  0  0  0  0  0  0  0  0  0  0  0
   15.1094   -8.2759    0.0000 C   0  0  0  0  0  0  0  0  0  0  0  0
   14.3949   -8.6884    0.0000 C   0  0  0  0  0  0  0  0  0  0  0  0
   14.3949   -9.5134    0.0000 C   0  0  2  0  0  0  0  0  0  0  0  0
   13.6805   -9.9259    0.0000 C   0  0  1  0  0  0  0  0  0  0  0  0
   13.6805   -9.1009    0.0000 C   0  0  0  0  0  0  0  0  0  0  0  0
   11.5371  -11.1634    0.0000 O   0  0  0  0  0  0  0  0  0  0  0  0
   14.3949  -10.3384    0.0000 H   0  0  0  0  0  0  0  0  0  0  0  0
   13.3785  -11.8778    0.0000 C   0  0  0  0  0  0  0  0  0  0  0  0
   12.5535  -11.8778    0.0000 C   0  0  0  0  0  0  0  0  0  0  0  0
   17.9673   -8.2759    0.0000 C   0  0  0  0  0  0  0  0  0  0  0  0
   17.9673   -7.4509    0.0000 C   0  0  0  0  0  0  0  0  0  0  0  0
   17.2528   -7.0384    0.0000 C   0  0  0  0  0  0  0  0  0  0  0  0
   16.5384   -7.4509    0.0000 C   0  0  0  0  0  0  0  0  0  0  0  0
   11.5371   -9.5134    0.0000 O   0  0  0  0  0  0  0  0  0  0  0  0
   12.9660  -12.5923    0.0000 O   0  0  0  0  0  0  0  0  0  0  0  0
   16.8403   -6.3239    0.0000 C   0  0  0  0  0  0  0  0  0  0  0  0
   17.6653   -6.3239    0.0000 C   0  0  0  0  0  0  0  0  0  0  0  0
   17.2528  -10.3384    0.0000 O   0  0  0  0  0  0  0  0  0  0  0  0
   10.8226  -10.7509    0.0000 C   0  0  2  0  0  0  0  0  0  0  0  0
   10.8226   -9.9259    0.0000 O   0  0  0  0  0  0  0  0  0  0  0  0
   10.1081   -9.5134    0.0000 C   0  0  2  0  0  0  0  0  0  0  0  0
    9.3936   -9.9259    0.0000 C   0  0  1  0  0  0  0  0  0  0  0  0
    9.3936  -10.7509    0.0000 C   0  0  2  0  0  0  0  0  0  0  0  0
   10.1081  -11.1634    0.0000 C   0  0  1  0  0  0  0  0  0  0  0  0
   10.1081   -8.6884    0.0000 C   0  0  0  0  0  0  0  0  0  0  0  0
    8.6792  -11.1634    0.0000 O   0  0  0  0  0  0  0  0  0  0  0  0
   10.1081  -11.9884    0.0000 O   0  0  0  0  0  0  0  0  0  0  0  0
    8.6792   -9.5134    0.0000 O   0  0  0  0  0  0  0  0  0  0  0  0
   18.6818   -8.6884    0.0000 O   0  0  0  0  0  0  0  0  0  0  0  0
   17.9673   -9.9259    0.0000 O   0  0  0  0  0  0  0  0  0  0  0  0
   19.3962   -9.1009    0.0000 C   0  0  2  0  0  0  0  0  0  0  0  0
   19.3962   -9.9259    0.0000 O   0  0  0  0  0  0  0  0  0  0  0  0
   20.1107  -10.3384    0.0000 C   0  0  1  0  0  0  0  0  0  0  0  0
   20.8252   -9.9259    0.0000 C   0  0  1  0  0  0  0  0  0  0  0  0
   20.8252   -9.1009    0.0000 C   0  0  1  0  0  0  0  0  0  0  0  0
   20.1107   -8.6884    0.0000 C   0  0  1  0  0  0  0  0  0  0  0  0
   21.5397  -10.3384    0.0000 O   0  0  0  0  0  0  0  0  0  0  0  0
   20.1107  -11.1634    0.0000 C   0  0  0  0  0  0  0  0  0  0  0  0
   21.5397   -8.6884    0.0000 O   0  0  0  0  0  0  0  0  0  0  0  0
   20.1107   -7.8634    0.0000 O   0  0  0  0  0  0  0  0  0  0  0  0
   20.8252   -7.4509    0.0000 C   0  0  2  0  0  0  0  0  0  0  0  0
   21.5397   -7.8634    0.0000 O   0  0  0  0  0  0  0  0  0  0  0  0
   22.2541   -7.4509    0.0000 C   0  0  2  0  0  0  0  0  0  0  0  0
   22.2541   -6.6259    0.0000 C   0  0  1  0  0  0  0  0  0  0  0  0
   21.5397   -6.2134    0.0000 C   0  0  2  0  0  0  0  0  0  0  0  0
   20.8252   -6.6259    0.0000 C   0  0  1  0  0  0  0  0  0  0  0  0
   22.9686   -6.2134    0.0000 O   0  0  0  0  0  0  0  0  0  0  0  0
   22.9686   -7.8634    0.0000 C   0  0  0  0  0  0  0  0  0  0  0  0
   20.1107   -6.2134    0.0000 O   0  0  0  0  0  0  0  0  0  0  0  0
   21.5397   -5.3884    0.0000 O   0  0  0  0  0  0  0  0  0  0  0  0
   23.6831   -6.6259    0.0000 C   0  0  2  0  0  0  0  0  0  0  0  0
   23.6831   -7.4509    0.0000 O   0  0  0  0  0  0  0  0  0  0  0  0
   24.3975   -7.8634    0.0000 C   0  0  0  0  0  0  0  0  0  0  0  0
   25.1120   -7.4509    0.0000 C   0  0  2  0  0  0  0  0  0  0  0  0
   25.1120   -6.6259    0.0000 C   0  0  1  0  0  0  0  0  0  0  0  0
   24.3975   -6.2134    0.0000 C   0  0  1  0  0  0  0  0  0  0  0  0
   24.3975   -5.3884    0.0000 O   0  0  0  0  0  0  0  0  0  0  0  0
   25.8265   -6.2134    0.0000 O   0  0  0  0  0  0  0  0  0  0  0  0
   25.8265   -7.8634    0.0000 O   0  0  0  0  0  0  0  0  0  0  0  0
  1  2  1  0  0  0  0
  2  3  1  0  0  0  0
  1  4  1  0  0  0  0
  4  5  1  0  0  0  0
  5  6  1  6  0  0  0
  5  7  1  0  0  0  0
  7  8  1  0  0  0  0
  8  9  1  0  0  0  0
  9 10  1  1  0  0  0
  9 11  1  0  0  0  0
 11 12  1  6  0  0  0
 11 13  1  0  0  0  0
 13 14  1  0  0  0  0
 14 15  1  0  0  0  0
 15 16  1  1  0  0  0
 17 18  1  1  0  0  0
 15 17  1  0  0  0  0
 17 19  1  0  0  0  0
 11 19  1  0  0  0  0
 19 20  2  0  0  0  0
 20 21  1  0  0  0  0
 21 22  1  0  0  0  0
  9 22  1  0  0  0  0
 22 23  1  0  0  0  0
  3 23  1  0  0  0  0
  5 23  1  0  0  0  0
 23 24  1  1  0  0  0
  1 25  1  1  0  0  0
 22 26  1  6  0  0  0
  4 27  1  6  0  0  0
  4 28  1  1  0  0  0
 15 29  1  0  0  0  0
 29 30  1  0  0  0  0
 30 31  1  0  0  0  0
 31 32  1  0  0  0  0
 32 17  1  0  0  0  0
  2 33  1  1  0  0  0
 27 34  1  0  0  0  0
 31 35  1  0  0  0  0
 31 36  1  0  0  0  0
 14 37  1  6  0  0  0
 38 25  1  1  0  0  0
 38 39  1  0  0  0  0
 39 40  1  0  0  0  0
 40 41  1  0  0  0  0
 41 42  1  0  0  0  0
 42 43  1  0  0  0  0
 43 38  1  0  0  0  0
 40 44  1  6  0  0  0
 42 45  1  6  0  0  0
 43 46  1  6  0  0  0
 41 47  1  1  0  0  0
 16 48  1  0  0  0  0
 16 49  2  0  0  0  0
 50 48  1  1  0  0  0
 50 51  1  0  0  0  0
 51 52  1  0  0  0  0
 52 53  1  0  0  0  0
 53 54  1  0  0  0  0
 54 55  1  0  0  0  0
 55 50  1  0  0  0  0
 53 56  1  1  0  0  0
 52 57  1  1  0  0  0
 54 58  1  1  0  0  0
 55 59  1  6  0  0  0
 60 59  1  1  0  0  0
 60 61  1  0  0  0  0
 61 62  1  0  0  0  0
 62 63  1  0  0  0  0
 63 64  1  0  0  0  0
 64 65  1  0  0  0  0
 65 60  1  0  0  0  0
 63 66  1  1  0  0  0
 62 67  1  6  0  0  0
 65 68  1  6  0  0  0
 64 69  1  6  0  0  0
 70 66  1  1  0  0  0
 70 71  1  0  0  0  0
 71 72  1  0  0  0  0
 72 73  1  0  0  0  0
 73 74  1  0  0  0  0
 74 75  1  0  0  0  0
 75 70  1  0  0  0  0
 75 76  1  6  0  0  0
 74 77  1  1  0  0  0
 73 78  1  6  0  0  0
M  END
>  <cdx:groupId>
126

>  <cdx:fragmentId>
5

$$$$
