94942.cdx
  Mrv1902 05222410252D          

 48 53  0  0  0  0            999 V2000
    7.4983   -9.8762    0.0000 C   0  0  2  0  0  0  0  0  0  0  0  0
    6.7838   -9.4637    0.0000 C   0  0  0  0  0  0  0  0  0  0  0  0
    6.7838  -10.2887    0.0000 C   0  0  1  0  0  0  0  0  0  0  0  0
    6.0694   -9.8762    0.0000 C   0  0  0  0  0  0  0  0  0  0  0  0
    5.3549  -10.2887    0.0000 C   0  0  0  0  0  0  0  0  0  0  0  0
    5.3549  -11.1137    0.0000 C   0  0  1  0  0  0  0  0  0  0  0  0
    6.0694  -11.5262    0.0000 C   0  0  0  0  0  0  0  0  0  0  0  0
    6.7838  -11.1137    0.0000 C   0  0  2  0  0  0  0  0  0  0  0  0
    7.4983  -11.5262    0.0000 C   0  0  0  0  0  0  0  0  0  0  0  0
    8.2128  -11.1137    0.0000 C   0  0  0  0  0  0  0  0  0  0  0  0
    8.2128  -10.2887    0.0000 C   0  0  0  0  0  0  0  0  0  0  0  0
    8.9273   -9.8762    0.0000 C   0  0  2  0  0  0  0  0  0  0  0  0
    9.7119  -10.1311    0.0000 C   0  0  2  0  0  0  0  0  0  0  0  0
   10.1968   -9.4637    0.0000 C   0  0  0  0  0  0  0  0  0  0  0  0
    9.7119   -8.7962    0.0000 C   0  0  1  0  0  0  0  0  0  0  0  0
    8.9273   -9.0512    0.0000 C   0  0  1  0  0  0  0  0  0  0  0  0
    8.2128   -8.6387    0.0000 C   0  0  0  0  0  0  0  0  0  0  0  0
    7.4983   -9.0512    0.0000 C   0  0  2  0  0  0  0  0  0  0  0  0
   11.0218   -9.4637    0.0000 O   0  0  0  0  0  0  0  0  0  0  0  0
    4.6404  -11.5262    0.0000 O   0  0  0  0  0  0  0  0  0  0  0  0
    3.9260  -10.2887    0.0000 O   0  0  0  0  0  0  0  0  0  0  0  0
    3.9260  -11.1137    0.0000 C   0  0  2  0  0  0  0  0  0  0  0  0
    3.2115  -11.5262    0.0000 C   0  0  1  0  0  0  0  0  0  0  0  0
    2.4970  -11.1137    0.0000 C   0  0  2  0  0  0  0  0  0  0  0  0
    2.4970  -10.2887    0.0000 C   0  0  1  0  0  0  0  0  0  0  0  0
    3.2115   -9.8762    0.0000 C   0  0  0  0  0  0  0  0  0  0  0  0
    1.7825   -9.8762    0.0000 O   0  0  0  0  0  0  0  0  0  0  0  0
    1.7825  -11.5262    0.0000 O   0  0  0  0  0  0  0  0  0  0  0  0
    3.2115  -12.3512    0.0000 O   0  0  0  0  0  0  0  0  0  0  0  0
    8.9273   -8.2262    0.0000 C   0  0  0  0  0  0  0  0  0  0  0  0
    8.9273  -10.7012    0.0000 C   0  0  0  0  0  0  0  0  0  0  0  0
    6.4819  -12.2406    0.0000 C   0  0  0  0  0  0  0  0  0  0  0  0
    5.6569  -12.2406    0.0000 C   0  0  0  0  0  0  0  0  0  0  0  0
    6.7838   -8.6387    0.0000 O   0  0  0  0  0  0  0  0  0  0  0  0
    9.4148   -7.3985    0.0000 C   0  0  0  0  0  0  0  0  0  0  0  0
    9.9668   -8.0116    0.0000 C   0  0  2  0  0  0  0  0  0  0  0  0
   10.7738   -7.8401    0.0000 C   0  0  0  0  0  0  0  0  0  0  0  0
   11.0287   -7.0555    0.0000 C   0  0  0  0  0  0  0  0  0  0  0  0
   11.8357   -6.8839    0.0000 C   0  0  1  0  0  0  0  0  0  0  0  0
   12.0906   -6.0993    0.0000 C   0  0  0  0  0  0  0  0  0  0  0  0
   11.2937   -5.8858    0.0000 C   0  0  0  0  0  0  0  0  0  0  0  0
   10.4767   -6.4424    0.0000 O   0  0  0  0  0  0  0  0  0  0  0  0
   12.8875   -6.3128    0.0000 C   0  0  0  0  0  0  0  0  0  0  0  0
   12.3456   -5.3147    0.0000 O   0  0  0  0  0  0  0  0  0  0  0  0
   12.3877   -7.4970    0.0000 O   0  0  0  0  0  0  0  0  0  0  0  0
    6.7838  -11.9387    0.0000 H   0  0  0  0  0  0  0  0  0  0  0  0
   10.4965   -8.5413    0.0000 H   0  0  0  0  0  0  0  0  0  0  0  0
    9.9668  -10.9157    0.0000 O   0  0  0  0  0  0  0  0  0  0  0  0
  1  2  1  1  0  0  0
  3  2  1  1  0  0  0
  3  4  1  0  0  0  0
  4  5  1  0  0  0  0
  5  6  1  0  0  0  0
  6  7  1  0  0  0  0
  7  8  1  0  0  0  0
  8  9  1  0  0  0  0
  9 10  1  0  0  0  0
 10 11  2  0  0  0  0
 11 12  1  0  0  0  0
 12 13  1  0  0  0  0
 13 14  1  0  0  0  0
 14 15  1  0  0  0  0
 15 16  1  0  0  0  0
 16 17  1  0  0  0  0
 17 18  1  0  0  0  0
  1 18  1  0  0  0  0
  1 11  1  0  0  0  0
  1  3  1  0  0  0  0
  3  8  1  0  0  0  0
 12 16  1  0  0  0  0
 14 19  2  0  0  0  0
 21 22  1  0  0  0  0
 22 23  1  0  0  0  0
 23 24  1  0  0  0  0
 24 25  1  0  0  0  0
 25 26  1  0  0  0  0
 21 26  1  0  0  0  0
 25 27  1  6  0  0  0
 24 28  1  1  0  0  0
 23 29  1  6  0  0  0
 22 20  1  1  0  0  0
  6 20  1  1  0  0  0
 16 30  1  1  0  0  0
 12 31  1  6  0  0  0
  7 32  1  0  0  0  0
  7 33  1  0  0  0  0
 18 34  1  1  0  0  0
 36 35  1  6  0  0  0
 36 37  1  0  0  0  0
 37 38  1  0  0  0  0
 38 39  1  0  0  0  0
 39 40  1  0  0  0  0
 40 41  1  0  0  0  0
 38 42  2  0  0  0  0
 40 43  1  0  0  0  0
 40 44  1  0  0  0  0
 39 45  1  1  0  0  0
 15 36  1  0  0  0  0
  8 46  1  6  0  0  0
 15 47  1  6  0  0  0
 13 48  1  6  0  0  0
M  END
>  <cdx:fragmentId>
9223

$$$$
