94940.cdx
  Mrv1902 05222410252D          

 14 13  0  0  0  0            999 V2000
    5.0522   -7.7292    0.0000 C   0  0  0  0  0  0  0  0  0  0  0  0
    4.3378   -8.1417    0.0000 C   0  0  0  0  0  0  0  0  0  0  0  0
    5.0522   -6.9042    0.0000 O   0  0  0  0  0  0  0  0  0  0  0  0
    5.7667   -8.1417    0.0000 O   0  0  0  0  0  0  0  0  0  0  0  0
    6.4812   -7.7292    0.0000 C   0  0  0  0  0  0  0  0  0  0  0  0
    7.1956   -8.1417    0.0000 C   0  0  0  0  0  0  0  0  0  0  0  0
    7.9101   -7.7292    0.0000 C   0  0  0  0  0  0  0  0  0  0  0  0
    8.6246   -8.1417    0.0000 C   0  0  0  0  0  0  0  0  0  0  0  0
    9.3391   -7.7292    0.0000 C   0  0  0  0  0  0  0  0  0  0  0  0
    9.3391   -6.9042    0.0000 C   0  0  0  0  0  0  0  0  0  0  0  0
    7.9101   -9.3792    0.0000 C   0  0  0  0  0  0  0  0  0  0  0  0
    7.1956   -8.9667    0.0000 C   0  0  0  0  0  0  0  0  0  0  0  0
    6.4812   -9.3792    0.0000 C   0  0  0  0  0  0  0  0  0  0  0  0
   10.0535   -8.1417    0.0000 C   0  0  0  0  0  0  0  0  0  0  0  0
  1  2  1  0  0  0  0
  1  3  2  0  0  0  0
  1  4  1  0  0  0  0
  5  6  1  0  0  0  0
  6  7  1  0  0  0  0
  7  8  1  0  0  0  0
  8  9  2  0  0  0  0
  9 10  1  0  0  0  0
 11 12  2  0  0  0  0
 12 13  1  0  0  0  0
  6 12  1  0  0  0  0
  9 14  1  0  0  0  0
  4  5  1  0  0  0  0
M  END
>  <cdx:groupId>
43

>  <cdx:fragmentId>
13

$$$$
