94943.cdx
  Mrv1902 05222410262D          

 44 50  0  0  0  0            999 V2000
    9.2282   -6.1925    0.0000 C   0  0  0  0  0  0  0  0  0  0  0  0
    7.0863   -6.6125    0.0000 O   0  0  0  0  0  0  0  0  0  0  0  0
    7.0957   -7.4113    0.0000 C   0  0  0  0  0  0  0  0  0  0  0  0
    3.5425   -7.8416    0.0000 C   0  0  0  0  0  0  0  0  0  0  0  0
    2.8235   -8.2461    0.0000 C   0  0  2  0  0  0  0  0  0  0  0  0
    9.8605   -5.3392    0.0000 C   0  0  0  0  0  0  0  0  0  0  0  0
    9.5998   -6.0467    0.0000 H   0  0  0  0  0  0  0  0  0  0  0  0
   10.9171   -8.1385    0.0000 O   0  0  0  0  0  0  0  0  0  0  0  0
    9.2369   -8.6674    0.0000 C   0  0  0  0  0  0  0  0  0  0  0  0
    7.0978   -9.9124    0.0000 H   0  0  0  0  0  0  0  0  0  0  0  0
    2.8143   -9.0711    0.0000 C   0  0  1  0  0  0  0  0  0  0  0  0
    3.5241   -9.4915    0.0000 C   0  0  2  0  0  0  0  0  0  0  0  0
   12.4754   -6.4925    0.0000 O   0  0  0  0  0  0  0  0  0  0  0  0
   11.8095   -8.0021    0.0000 O   0  0  0  0  0  0  0  0  0  0  0  0
    6.7969  -10.2155    0.0000 C   0  0  0  0  0  0  0  0  0  0  0  0
    5.9719  -10.2183    0.0000 C   0  0  0  0  0  0  0  0  0  0  0  0
   11.3223   -7.3364    0.0000 C   0  0  1  0  0  0  0  0  0  0  0  0
   11.6552   -6.5816    0.0000 C   0  0  0  0  0  0  0  0  0  0  0  0
   11.1679   -5.9158    0.0000 C   0  0  0  0  0  0  0  0  0  0  0  0
   10.3478   -6.0049    0.0000 C   0  0  2  0  0  0  0  0  0  0  0  0
   10.0195   -8.0946    0.0000 C   0  0  1  0  0  0  0  0  0  0  0  0
   10.5021   -7.4255    0.0000 C   0  0  2  0  0  0  0  0  0  0  0  0
   10.0148   -6.7598    0.0000 C   0  0  1  0  0  0  0  0  0  0  0  0
    9.2340   -7.8424    0.0000 C   0  0  1  0  0  0  0  0  0  0  0  0
    9.2311   -7.0175    0.0000 C   0  0  1  0  0  0  0  0  0  0  0  0
    8.5152   -6.6075    0.0000 C   0  0  0  0  0  0  0  0  0  0  0  0
    7.8022   -7.0225    0.0000 C   0  0  1  0  0  0  0  0  0  0  0  0
    7.8108   -9.4974    0.0000 C   0  0  0  0  0  0  0  0  0  0  0  0
    8.5239   -9.0824    0.0000 C   0  0  0  0  0  0  0  0  0  0  0  0
    8.5210   -8.2574    0.0000 C   0  0  0  0  0  0  0  0  0  0  0  0
    7.8051   -7.8474    0.0000 C   0  0  1  0  0  0  0  0  0  0  0  0
    6.3819   -9.5024    0.0000 C   0  0  0  0  0  0  0  0  0  0  0  0
    7.0949   -9.0874    0.0000 C   0  0  1  0  0  0  0  0  0  0  0  0
    7.0920   -8.2624    0.0000 C   0  0  1  0  0  0  0  0  0  0  0  0
    6.3761   -7.8524    0.0000 C   0  0  0  0  0  0  0  0  0  0  0  0
    4.2431   -9.0870    0.0000 C   0  0  1  0  0  0  0  0  0  0  0  0
    4.2523   -8.2620    0.0000 O   0  0  0  0  0  0  0  0  0  0  0  0
    5.6660   -9.0924    0.0000 C   0  0  2  0  0  0  0  0  0  0  0  0
    5.6631   -8.2674    0.0000 C   0  0  0  0  0  0  0  0  0  0  0  0
    3.5149  -10.3165    0.0000 O   0  0  0  0  0  0  0  0  0  0  0  0
    4.9530   -9.5074    0.0000 O   0  0  0  0  0  0  0  0  0  0  0  0
    2.0953   -9.4756    0.0000 O   0  0  0  0  0  0  0  0  0  0  0  0
    2.1137   -7.8257    0.0000 O   0  0  0  0  0  0  0  0  0  0  0  0
   10.2772   -8.8784    0.0000 O   0  0  0  0  0  0  0  0  0  0  0  0
 25  1  1  1  0  0  0
 27  2  1  1  0  0  0
 34  3  1  1  0  0  0
 20  6  1  6  0  0  0
 23  7  1  6  0  0  0
 22  8  1  6  0  0  0
 24  9  1  6  0  0  0
 33 10  1  6  0  0  0
 18 13  2  0  0  0  0
 17 14  1  6  0  0  0
 32 15  1  0  0  0  0
 32 16  1  0  0  0  0
 17 22  1  0  0  0  0
 18 17  1  0  0  0  0
 19 18  1  0  0  0  0
 20 19  1  0  0  0  0
 23 20  1  0  0  0  0
 21 24  1  0  0  0  0
 22 21  1  0  0  0  0
 23 22  1  0  0  0  0
 25 23  1  0  0  0  0
 24 30  1  0  0  0  0
 25 24  1  0  0  0  0
 26 25  1  0  0  0  0
 27 26  1  0  0  0  0
 31 27  1  0  0  0  0
 28 33  1  0  0  0  0
 29 28  1  0  0  0  0
 30 29  2  0  0  0  0
 31 30  1  0  0  0  0
 34 31  1  0  0  0  0
 32 38  1  0  0  0  0
 33 32  1  0  0  0  0
 34 33  1  0  0  0  0
 35 34  1  0  0  0  0
 39 35  1  0  0  0  0
 38 41  1  1  0  0  0
 39 38  1  0  0  0  0
  4  5  1  0  0  0  0
  5 11  1  0  0  0  0
 11 12  1  0  0  0  0
 12 36  1  0  0  0  0
 36 37  1  0  0  0  0
 37  4  1  0  0  0  0
 12 40  1  6  0  0  0
 36 41  1  1  0  0  0
 11 42  1  1  0  0  0
  5 43  1  6  0  0  0
 31  3  1  1  0  0  0
 21 44  1  6  0  0  0
M  END
>  <cdx:fragmentId>
5

$$$$
