94944.cdx
  Mrv1902 05222410242D          

 52 59  0  0  0  0            999 V2000
   10.6659   -7.2319    0.0000 C   0  0  2  0  0  0  0  0  0  0  0  0
   10.1810   -7.8993    0.0000 C   0  0  1  0  0  0  0  0  0  0  0  0
    9.3964   -7.6444    0.0000 C   0  0  1  0  0  0  0  0  0  0  0  0
    8.6819   -8.0569    0.0000 C   0  0  2  0  0  0  0  0  0  0  0  0
    8.6819   -8.8819    0.0000 C   0  0  0  0  0  0  0  0  0  0  0  0
    7.9674   -9.2944    0.0000 C   0  0  0  0  0  0  0  0  0  0  0  0
    7.2530   -8.8819    0.0000 C   0  0  1  0  0  0  0  0  0  0  0  0
    6.5385   -9.2944    0.0000 C   0  0  1  0  0  0  0  0  0  0  0  0
    5.8240   -8.8819    0.0000 C   0  0  2  0  0  0  0  0  0  0  0  0
    5.8240   -8.0569    0.0000 C   0  0  0  0  0  0  0  0  0  0  0  0
    6.5385   -7.6444    0.0000 C   0  0  0  0  0  0  0  0  0  0  0  0
    7.2530   -8.0569    0.0000 C   0  0  1  0  0  0  0  0  0  0  0  0
    7.2530   -7.2319    0.0000 C   0  0  0  0  0  0  0  0  0  0  0  0
    7.9674   -7.6444    0.0000 C   0  0  1  0  0  0  0  0  0  0  0  0
    7.9674   -6.8194    0.0000 C   0  0  0  0  0  0  0  0  0  0  0  0
    8.6819   -6.4069    0.0000 C   0  0  0  0  0  0  0  0  0  0  0  0
    9.3964   -6.8194    0.0000 C   0  0  2  0  0  0  0  0  0  0  0  0
   10.1810   -6.5645    0.0000 C   0  0  1  0  0  0  0  0  0  0  0  0
   10.4005   -5.7692    0.0000 C   0  0  1  0  0  0  0  0  0  0  0  0
   11.1591   -5.4449    0.0000 C   0  0  0  0  0  0  0  0  0  0  0  0
   11.8856   -5.8359    0.0000 C   0  0  2  0  0  0  0  0  0  0  0  0
   12.0329   -6.6476    0.0000 C   0  0  2  0  0  0  0  0  0  0  0  0
   11.4901   -7.2689    0.0000 O   0  0  0  0  0  0  0  0  0  0  0  0
   10.8738   -6.1814    0.0000 O   0  0  0  0  0  0  0  0  0  0  0  0
   10.4359   -8.6840    0.0000 O   0  0  0  0  0  0  0  0  0  0  0  0
    5.1096   -9.2944    0.0000 O   0  0  0  0  0  0  0  0  0  0  0  0
    9.7792   -5.2264    0.0000 C   0  0  0  0  0  0  0  0  0  0  0  0
    9.3964   -5.9944    0.0000 C   0  0  0  0  0  0  0  0  0  0  0  0
    6.9510  -10.0089    0.0000 C   0  0  0  0  0  0  0  0  0  0  0  0
    6.1260  -10.0089    0.0000 C   0  0  0  0  0  0  0  0  0  0  0  0
    9.3964   -8.4694    0.0000 C   0  0  0  0  0  0  0  0  0  0  0  0
   12.6146   -7.6640    0.0000 C   0  0  0  0  0  0  0  0  0  0  0  0
   12.8282   -6.8671    0.0000 C   0  0  0  0  0  0  0  0  0  0  0  0
   13.0417   -6.0702    0.0000 C   0  0  0  0  0  0  0  0  0  0  0  0
   13.6234   -7.0866    0.0000 O   0  0  0  0  0  0  0  0  0  0  0  0
    8.6819   -7.2319    0.0000 H   0  0  0  0  0  0  0  0  0  0  0  0
    7.2530   -9.7069    0.0000 H   0  0  0  0  0  0  0  0  0  0  0  0
    9.6928   -5.8994    0.0000 H   0  0  0  0  0  0  0  0  0  0  0  0
   12.5530   -5.3510    0.0000 H   0  0  0  0  0  0  0  0  0  0  0  0
   12.7474   -6.2351    0.0000 H   0  0  0  0  0  0  0  0  0  0  0  0
    4.3951   -8.8819    0.0000 C   0  0  2  0  0  0  0  0  0  0  0  0
    4.3951   -8.0569    0.0000 O   0  0  0  0  0  0  0  0  0  0  0  0
    3.6806   -7.6444    0.0000 C   0  0  0  0  0  0  0  0  0  0  0  0
    2.9661   -8.0569    0.0000 C   0  0  2  0  0  0  0  0  0  0  0  0
    2.9661   -8.8819    0.0000 C   0  0  1  0  0  0  0  0  0  0  0  0
    3.6806   -9.2944    0.0000 C   0  0  1  0  0  0  0  0  0  0  0  0
    3.6806  -10.1194    0.0000 O   0  0  0  0  0  0  0  0  0  0  0  0
    2.2517   -9.2944    0.0000 O   0  0  0  0  0  0  0  0  0  0  0  0
    2.2517   -7.6444    0.0000 O   0  0  0  0  0  0  0  0  0  0  0  0
    1.5372   -8.8819    0.0000 C   0  0  0  0  0  0  0  0  0  0  0  0
    0.8227   -9.2944    0.0000 C   0  0  0  0  0  0  0  0  0  0  0  0
    1.5372   -8.0569    0.0000 O   0  0  0  0  0  0  0  0  0  0  0  0
  1  2  1  0  0  0  0
  2  3  1  0  0  0  0
  3  4  1  0  0  0  0
  4  5  1  0  0  0  0
  5  6  1  0  0  0  0
  6  7  1  0  0  0  0
  7  8  1  0  0  0  0
  8  9  1  0  0  0  0
  9 10  1  0  0  0  0
 10 11  1  0  0  0  0
 11 12  1  0  0  0  0
 12 13  1  1  0  0  0
 14 13  1  1  0  0  0
 14 15  1  0  0  0  0
 15 16  1  0  0  0  0
 16 17  1  0  0  0  0
 17 18  1  0  0  0  0
 18 19  1  0  0  0  0
 19 20  1  0  0  0  0
 20 21  1  0  0  0  0
 21 22  1  0  0  0  0
 22 23  1  0  0  0  0
  1 23  1  0  0  0  0
  1 24  1  1  0  0  0
 21 24  1  0  0  0  0
  1 18  1  0  0  0  0
  3 17  1  0  0  0  0
 12 14  1  0  0  0  0
  4 14  1  0  0  0  0
  7 12  1  0  0  0  0
  2 25  1  6  0  0  0
  9 26  1  1  0  0  0
 19 27  1  6  0  0  0
 17 28  1  1  0  0  0
  8 29  1  0  0  0  0
  8 30  1  1  0  0  0
  3 31  1  6  0  0  0
 32 33  1  0  0  0  0
 33 34  1  0  0  0  0
 33 35  1  0  0  0  0
 22 33  1  0  0  0  0
  4 36  1  1  0  0  0
  7 37  1  6  0  0  0
 18 38  1  6  0  0  0
 21 39  1  1  0  0  0
 22 40  1  6  0  0  0
 41 26  1  1  0  0  0
 41 42  1  0  0  0  0
 42 43  1  0  0  0  0
 43 44  1  0  0  0  0
 44 45  1  0  0  0  0
 45 46  1  0  0  0  0
 46 41  1  0  0  0  0
 46 47  1  6  0  0  0
 45 48  1  1  0  0  0
 44 49  1  6  0  0  0
 48 50  1  0  0  0  0
 50 51  1  0  0  0  0
 50 52  2  0  0  0  0
M  END
>  <cdx:fragmentId>
74183

$$$$
