94941.cdx
  Mrv1902 05222410242D          

 47 53  0  0  0  0            999 V2000
    7.6065   -8.7436    0.0000 C   0  0  2  0  0  0  0  0  0  0  0  0
    6.8920   -8.3311    0.0000 C   0  0  0  0  0  0  0  0  0  0  0  0
    6.8920   -9.1561    0.0000 C   0  0  1  0  0  0  0  0  0  0  0  0
    6.1775   -8.7436    0.0000 C   0  0  0  0  0  0  0  0  0  0  0  0
    5.4631   -9.1561    0.0000 C   0  0  0  0  0  0  0  0  0  0  0  0
    5.4631   -9.9811    0.0000 C   0  0  1  0  0  0  0  0  0  0  0  0
    6.1775  -10.3936    0.0000 C   0  0  0  0  0  0  0  0  0  0  0  0
    6.8920   -9.9811    0.0000 C   0  0  2  0  0  0  0  0  0  0  0  0
    7.6065  -10.3936    0.0000 C   0  0  0  0  0  0  0  0  0  0  0  0
    8.3209   -9.9811    0.0000 C   0  0  0  0  0  0  0  0  0  0  0  0
    8.3209   -9.1561    0.0000 C   0  0  0  0  0  0  0  0  0  0  0  0
    9.0354   -8.7436    0.0000 C   0  0  2  0  0  0  0  0  0  0  0  0
    9.8200   -8.9986    0.0000 C   0  0  2  0  0  0  0  0  0  0  0  0
   10.3050   -8.3311    0.0000 C   0  0  0  0  0  0  0  0  0  0  0  0
    9.8200   -7.6637    0.0000 C   0  0  1  0  0  0  0  0  0  0  0  0
    9.0354   -7.9186    0.0000 C   0  0  1  0  0  0  0  0  0  0  0  0
    8.3209   -7.5061    0.0000 C   0  0  0  0  0  0  0  0  0  0  0  0
    7.6065   -7.9186    0.0000 C   0  0  2  0  0  0  0  0  0  0  0  0
   11.1300   -8.3311    0.0000 O   0  0  0  0  0  0  0  0  0  0  0  0
    9.0354   -7.0936    0.0000 C   0  0  0  0  0  0  0  0  0  0  0  0
    9.0354   -9.5686    0.0000 C   0  0  0  0  0  0  0  0  0  0  0  0
    6.5900  -11.1081    0.0000 C   0  0  0  0  0  0  0  0  0  0  0  0
    5.7650  -11.1081    0.0000 C   0  0  0  0  0  0  0  0  0  0  0  0
    6.8920   -7.5061    0.0000 O   0  0  0  0  0  0  0  0  0  0  0  0
    4.7486  -10.3936    0.0000 O   0  0  0  0  0  0  0  0  0  0  0  0
    9.5229   -6.2660    0.0000 C   0  0  0  0  0  0  0  0  0  0  0  0
   10.0750   -6.8791    0.0000 C   0  0  2  0  0  0  0  0  0  0  0  0
   10.8820   -6.7075    0.0000 C   0  0  0  0  0  0  0  0  0  0  0  0
   11.1369   -5.9229    0.0000 C   0  0  0  0  0  0  0  0  0  0  0  0
   10.5849   -5.3098    0.0000 O   0  0  0  0  0  0  0  0  0  0  0  0
   12.7285   -6.0063    0.0000 O   0  0  0  0  0  0  0  0  0  0  0  0
   11.9439   -5.7514    0.0000 C   0  0  2  0  0  0  0  0  0  0  0  0
   12.5570   -5.1994    0.0000 C   0  0  0  0  0  0  0  0  0  0  0  0
   12.3854   -4.3924    0.0000 C   0  0  0  0  0  0  0  0  0  0  0  0
   13.1701   -4.6473    0.0000 C   0  0  0  0  0  0  0  0  0  0  0  0
    6.8920  -10.8061    0.0000 H   0  0  0  0  0  0  0  0  0  0  0  0
   10.6047   -7.4087    0.0000 H   0  0  0  0  0  0  0  0  0  0  0  0
    4.0341   -9.9811    0.0000 C   0  0  2  0  0  0  0  0  0  0  0  0
    4.0341   -9.1561    0.0000 O   0  0  0  0  0  0  0  0  0  0  0  0
    3.3197   -8.7436    0.0000 C   0  0  0  0  0  0  0  0  0  0  0  0
    2.6052   -9.1561    0.0000 C   0  0  2  0  0  0  0  0  0  0  0  0
    2.6052   -9.9811    0.0000 C   0  0  1  0  0  0  0  0  0  0  0  0
    3.3197  -10.3936    0.0000 C   0  0  1  0  0  0  0  0  0  0  0  0
    3.3197  -11.2186    0.0000 O   0  0  0  0  0  0  0  0  0  0  0  0
    1.8907  -10.3936    0.0000 O   0  0  0  0  0  0  0  0  0  0  0  0
    1.8907   -8.7436    0.0000 O   0  0  0  0  0  0  0  0  0  0  0  0
   10.0750   -9.7832    0.0000 O   0  0  0  0  0  0  0  0  0  0  0  0
  1  2  1  1  0  0  0
  3  2  1  1  0  0  0
  3  4  1  0  0  0  0
  4  5  1  0  0  0  0
  5  6  1  0  0  0  0
  6  7  1  0  0  0  0
  7  8  1  0  0  0  0
  8  9  1  0  0  0  0
  9 10  1  0  0  0  0
 10 11  2  0  0  0  0
 11 12  1  0  0  0  0
 12 13  1  0  0  0  0
 13 14  1  0  0  0  0
 15 14  1  0  0  0  0
 15 16  1  0  0  0  0
 16 17  1  0  0  0  0
 17 18  1  0  0  0  0
  1 18  1  0  0  0  0
  1 11  1  0  0  0  0
 12 16  1  0  0  0  0
  3  8  1  0  0  0  0
  1  3  1  0  0  0  0
 14 19  2  0  0  0  0
 16 20  1  1  0  0  0
 12 21  1  6  0  0  0
  7 22  1  0  0  0  0
  7 23  1  0  0  0  0
 18 24  1  1  0  0  0
  6 25  1  1  0  0  0
 27 26  1  6  0  0  0
 27 28  1  0  0  0  0
 28 29  1  0  0  0  0
 29 30  2  0  0  0  0
 31 32  1  0  0  0  0
 32 33  1  0  0  0  0
 31 33  1  0  0  0  0
 33 34  1  0  0  0  0
 33 35  1  0  0  0  0
 32 29  1  1  0  0  0
 15 27  1  0  0  0  0
  8 36  1  6  0  0  0
 15 37  1  6  0  0  0
 38 25  1  1  0  0  0
 38 39  1  0  0  0  0
 39 40  1  0  0  0  0
 40 41  1  0  0  0  0
 41 42  1  0  0  0  0
 42 43  1  0  0  0  0
 43 38  1  0  0  0  0
 43 44  1  6  0  0  0
 42 45  1  1  0  0  0
 41 46  1  6  0  0  0
 13 47  1  6  0  0  0
M  END
>  <cdx:fragmentId>
48799

$$$$
