94945.cdx
  Mrv1902 05222410242D          

 60 68  0  0  0  0            999 V2000
   10.0884   -7.3694    0.0000 C   0  0  2  0  0  0  0  0  0  0  0  0
    9.6035   -8.0368    0.0000 C   0  0  1  0  0  0  0  0  0  0  0  0
    8.8189   -7.7819    0.0000 C   0  0  1  0  0  0  0  0  0  0  0  0
    8.1044   -8.1944    0.0000 C   0  0  2  0  0  0  0  0  0  0  0  0
    8.1044   -9.0194    0.0000 C   0  0  0  0  0  0  0  0  0  0  0  0
    7.3899   -9.4319    0.0000 C   0  0  0  0  0  0  0  0  0  0  0  0
    6.6755   -9.0194    0.0000 C   0  0  1  0  0  0  0  0  0  0  0  0
    5.9610   -9.4319    0.0000 C   0  0  1  0  0  0  0  0  0  0  0  0
    5.2465   -9.0194    0.0000 C   0  0  2  0  0  0  0  0  0  0  0  0
    5.2465   -8.1944    0.0000 C   0  0  0  0  0  0  0  0  0  0  0  0
    5.9610   -7.7819    0.0000 C   0  0  0  0  0  0  0  0  0  0  0  0
    6.6755   -8.1944    0.0000 C   0  0  1  0  0  0  0  0  0  0  0  0
    6.6755   -7.3694    0.0000 C   0  0  0  0  0  0  0  0  0  0  0  0
    7.3899   -7.7819    0.0000 C   0  0  1  0  0  0  0  0  0  0  0  0
    7.3899   -6.9569    0.0000 C   0  0  0  0  0  0  0  0  0  0  0  0
    8.1044   -6.5444    0.0000 C   0  0  0  0  0  0  0  0  0  0  0  0
    8.8189   -6.9569    0.0000 C   0  0  2  0  0  0  0  0  0  0  0  0
    9.6035   -6.7020    0.0000 C   0  0  1  0  0  0  0  0  0  0  0  0
    9.8230   -5.9067    0.0000 C   0  0  1  0  0  0  0  0  0  0  0  0
   10.5816   -5.5824    0.0000 C   0  0  0  0  0  0  0  0  0  0  0  0
   11.3081   -5.9734    0.0000 C   0  0  2  0  0  0  0  0  0  0  0  0
   11.4554   -6.7851    0.0000 C   0  0  2  0  0  0  0  0  0  0  0  0
   10.9126   -7.4064    0.0000 O   0  0  0  0  0  0  0  0  0  0  0  0
   10.2963   -6.3189    0.0000 O   0  0  0  0  0  0  0  0  0  0  0  0
    9.8584   -8.8215    0.0000 O   0  0  0  0  0  0  0  0  0  0  0  0
    4.5321   -9.4319    0.0000 O   0  0  0  0  0  0  0  0  0  0  0  0
    9.2017   -5.3639    0.0000 C   0  0  0  0  0  0  0  0  0  0  0  0
    8.8189   -6.1319    0.0000 C   0  0  0  0  0  0  0  0  0  0  0  0
    6.3735  -10.1464    0.0000 C   0  0  0  0  0  0  0  0  0  0  0  0
    5.5485  -10.1464    0.0000 C   0  0  0  0  0  0  0  0  0  0  0  0
    8.8189   -8.6069    0.0000 C   0  0  0  0  0  0  0  0  0  0  0  0
   12.0371   -7.8015    0.0000 C   0  0  0  0  0  0  0  0  0  0  0  0
   12.2507   -7.0046    0.0000 C   0  0  0  0  0  0  0  0  0  0  0  0
   12.4642   -6.2077    0.0000 C   0  0  0  0  0  0  0  0  0  0  0  0
   13.0459   -7.2241    0.0000 O   0  0  0  0  0  0  0  0  0  0  0  0
    8.1044   -7.3694    0.0000 H   0  0  0  0  0  0  0  0  0  0  0  0
    6.6755   -9.8444    0.0000 H   0  0  0  0  0  0  0  0  0  0  0  0
    9.1153   -6.0369    0.0000 H   0  0  0  0  0  0  0  0  0  0  0  0
   11.9755   -5.4885    0.0000 H   0  0  0  0  0  0  0  0  0  0  0  0
   12.1699   -6.3726    0.0000 H   0  0  0  0  0  0  0  0  0  0  0  0
    3.8176   -9.0194    0.0000 C   0  0  2  0  0  0  0  0  0  0  0  0
    3.8176   -8.1944    0.0000 O   0  0  0  0  0  0  0  0  0  0  0  0
    3.1031   -7.7819    0.0000 C   0  0  0  0  0  0  0  0  0  0  0  0
    2.3886   -8.1944    0.0000 C   0  0  1  0  0  0  0  0  0  0  0  0
    2.3886   -9.0194    0.0000 C   0  0  1  0  0  0  0  0  0  0  0  0
    3.1031   -9.4319    0.0000 C   0  0  1  0  0  0  0  0  0  0  0  0
    3.1031  -10.2569    0.0000 O   0  0  0  0  0  0  0  0  0  0  0  0
    1.6742   -9.4319    0.0000 O   0  0  0  0  0  0  0  0  0  0  0  0
    1.6742   -7.7819    0.0000 O   0  0  0  0  0  0  0  0  0  0  0  0
    9.4852   -9.5572    0.0000 C   0  0  2  0  0  0  0  0  0  0  0  0
    8.6614   -9.6019    0.0000 O   0  0  0  0  0  0  0  0  0  0  0  0
    8.2882  -10.3376    0.0000 C   0  0  1  0  0  0  0  0  0  0  0  0
    8.7388  -11.0287    0.0000 C   0  0  2  0  0  0  0  0  0  0  0  0
    9.5626  -10.9841    0.0000 C   0  0  1  0  0  0  0  0  0  0  0  0
    9.9358  -10.2483    0.0000 C   0  0  1  0  0  0  0  0  0  0  0  0
    7.4644  -10.3823    0.0000 C   0  0  0  0  0  0  0  0  0  0  0  0
   10.0132  -11.6751    0.0000 O   0  0  0  0  0  0  0  0  0  0  0  0
   10.7596  -10.2036    0.0000 O   0  0  0  0  0  0  0  0  0  0  0  0
    8.3656  -11.7645    0.0000 O   0  0  0  0  0  0  0  0  0  0  0  0
    7.0912  -11.1181    0.0000 O   0  0  0  0  0  0  0  0  0  0  0  0
  1  2  1  0  0  0  0
  2  3  1  0  0  0  0
  3  4  1  0  0  0  0
  4  5  1  0  0  0  0
  5  6  1  0  0  0  0
  6  7  1  0  0  0  0
  7  8  1  0  0  0  0
  8  9  1  0  0  0  0
  9 10  1  0  0  0  0
 10 11  1  0  0  0  0
 11 12  1  0  0  0  0
 12 13  1  1  0  0  0
 14 13  1  1  0  0  0
 14 15  1  0  0  0  0
 15 16  1  0  0  0  0
 16 17  1  0  0  0  0
 17 18  1  0  0  0  0
 18 19  1  0  0  0  0
 19 20  1  0  0  0  0
 20 21  1  0  0  0  0
 21 22  1  0  0  0  0
 22 23  1  0  0  0  0
  1 23  1  0  0  0  0
  1 24  1  1  0  0  0
 21 24  1  0  0  0  0
  1 18  1  0  0  0  0
  3 17  1  0  0  0  0
 12 14  1  0  0  0  0
  4 14  1  0  0  0  0
  7 12  1  0  0  0  0
  2 25  1  6  0  0  0
  9 26  1  1  0  0  0
 19 27  1  6  0  0  0
 17 28  1  1  0  0  0
  8 29  1  0  0  0  0
  8 30  1  1  0  0  0
  3 31  1  6  0  0  0
 32 33  1  0  0  0  0
 33 34  1  0  0  0  0
 33 35  1  0  0  0  0
 22 33  1  0  0  0  0
  4 36  1  1  0  0  0
  7 37  1  6  0  0  0
 18 38  1  6  0  0  0
 21 39  1  1  0  0  0
 22 40  1  6  0  0  0
 41 26  1  1  0  0  0
 41 42  1  0  0  0  0
 42 43  1  0  0  0  0
 43 44  1  0  0  0  0
 44 45  1  0  0  0  0
 45 46  1  0  0  0  0
 46 41  1  0  0  0  0
 46 47  1  6  0  0  0
 45 48  1  1  0  0  0
 44 49  1  1  0  0  0
 50 25  1  1  0  0  0
 50 51  1  0  0  0  0
 51 52  1  0  0  0  0
 52 53  1  0  0  0  0
 53 54  1  0  0  0  0
 54 55  1  0  0  0  0
 55 50  1  0  0  0  0
 52 56  1  1  0  0  0
 54 57  1  1  0  0  0
 55 58  1  6  0  0  0
 53 59  1  6  0  0  0
 56 60  1  0  0  0  0
M  END
>  <cdx:fragmentId>
74183

$$$$
