94951.cdx
  Mrv1902 05222410242D          

 56 61  0  0  0  0            999 V2000
    6.4331   -6.7512    0.0000 C   0  0  0  0  0  0  0  0  0  0  0  0
    6.4331   -7.5762    0.0000 C   0  0  0  0  0  0  0  0  0  0  0  0
    7.1475   -7.9888    0.0000 C   0  0  0  0  0  0  0  0  0  0  0  0
    7.8620   -7.5762    0.0000 C   0  0  0  0  0  0  0  0  0  0  0  0
    7.8620   -6.7512    0.0000 C   0  0  0  0  0  0  0  0  0  0  0  0
    7.1475   -6.3388    0.0000 C   0  0  0  0  0  0  0  0  0  0  0  0
    8.5765   -7.9888    0.0000 C   0  0  0  0  0  0  0  0  0  0  0  0
    9.2909   -7.5762    0.0000 C   0  0  0  0  0  0  0  0  0  0  0  0
    9.2909   -6.7512    0.0000 C   0  0  0  0  0  0  0  0  0  0  0  0
    8.5765   -6.3388    0.0000 O   0  0  0  0  0  0  0  0  0  0  0  0
   10.0054   -7.9888    0.0000 O   0  0  0  0  0  0  0  0  0  0  0  0
   10.7199   -6.7512    0.0000 C   0  0  0  0  0  0  0  0  0  0  0  0
   10.0054   -6.3388    0.0000 C   0  0  0  0  0  0  0  0  0  0  0  0
   11.4344   -6.3388    0.0000 C   0  0  0  0  0  0  0  0  0  0  0  0
   11.4344   -5.5137    0.0000 C   0  0  0  0  0  0  0  0  0  0  0  0
   10.7199   -5.1013    0.0000 C   0  0  0  0  0  0  0  0  0  0  0  0
   10.0054   -5.5137    0.0000 C   0  0  0  0  0  0  0  0  0  0  0  0
    5.7186   -6.3388    0.0000 O   0  0  0  0  0  0  0  0  0  0  0  0
    7.1475   -8.8138    0.0000 O   0  0  0  0  0  0  0  0  0  0  0  0
    8.5765   -8.8138    0.0000 O   0  0  0  0  0  0  0  0  0  0  0  0
   10.7199   -4.2763    0.0000 O   0  0  0  0  0  0  0  0  0  0  0  0
   12.1488   -5.1013    0.0000 O   0  0  0  0  0  0  0  0  0  0  0  0
   11.4344   -3.8638    0.0000 C   0  0  0  0  0  0  0  0  0  0  0  0
   10.0054   -8.8138    0.0000 C   0  0  2  0  0  0  0  0  0  0  0  0
    9.2909   -9.2263    0.0000 O   0  0  0  0  0  0  0  0  0  0  0  0
    9.2909  -10.0512    0.0000 C   0  0  1  0  0  0  0  0  0  0  0  0
   10.0054  -10.4637    0.0000 C   0  0  2  0  0  0  0  0  0  0  0  0
   10.7199  -10.0512    0.0000 C   0  0  1  0  0  0  0  0  0  0  0  0
   10.7199   -9.2263    0.0000 C   0  0  1  0  0  0  0  0  0  0  0  0
    8.5765  -10.4637    0.0000 C   0  0  0  0  0  0  0  0  0  0  0  0
   11.4344  -10.4637    0.0000 O   0  0  0  0  0  0  0  0  0  0  0  0
   11.4344   -8.8138    0.0000 O   0  0  0  0  0  0  0  0  0  0  0  0
   10.0054  -11.2888    0.0000 O   0  0  0  0  0  0  0  0  0  0  0  0
    8.5765  -11.2888    0.0000 O   0  0  0  0  0  0  0  0  0  0  0  0
    7.8620  -11.7012    0.0000 C   0  0  0  0  0  0  0  0  0  0  0  0
    7.8620  -12.5263    0.0000 O   0  0  0  0  0  0  0  0  0  0  0  0
    7.1475  -11.2888    0.0000 C   0  0  0  0  0  0  0  0  0  0  0  0
    6.4331  -11.7012    0.0000 C   0  0  0  0  0  0  0  0  0  0  0  0
    5.7186  -11.2888    0.0000 C   0  0  0  0  0  0  0  0  0  0  0  0
    5.7186  -10.4637    0.0000 C   0  0  0  0  0  0  0  0  0  0  0  0
    5.0041  -10.0512    0.0000 C   0  0  0  0  0  0  0  0  0  0  0  0
    4.2896  -10.4637    0.0000 C   0  0  0  0  0  0  0  0  0  0  0  0
    4.2896  -11.2888    0.0000 C   0  0  0  0  0  0  0  0  0  0  0  0
    5.0041  -11.7012    0.0000 C   0  0  0  0  0  0  0  0  0  0  0  0
    3.5752  -10.0512    0.0000 O   0  0  0  0  0  0  0  0  0  0  0  0
    5.0041   -6.7512    0.0000 C   0  0  0  0  0  0  0  0  0  0  0  0
    4.2896   -6.3387    0.0000 O   0  0  0  0  0  0  0  0  0  0  0  0
    3.5752   -6.7512    0.0000 C   0  0  0  0  0  0  0  0  0  0  0  0
    3.5752   -7.5762    0.0000 C   0  0  0  0  0  0  0  0  0  0  0  0
    4.2896   -7.9888    0.0000 C   0  0  0  0  0  0  0  0  0  0  0  0
    5.0041   -7.5762    0.0000 C   0  0  0  0  0  0  0  0  0  0  0  0
    2.8607   -6.3387    0.0000 C   0  0  0  0  0  0  0  0  0  0  0  0
    2.1462   -6.7512    0.0000 O   0  0  0  0  0  0  0  0  0  0  0  0
    2.8607   -7.9887    0.0000 O   0  0  0  0  0  0  0  0  0  0  0  0
    4.2896   -8.8138    0.0000 O   0  0  0  0  0  0  0  0  0  0  0  0
    5.7186   -7.9887    0.0000 O   0  0  0  0  0  0  0  0  0  0  0  0
  1  2  2  0  0  0  0
  2  3  1  0  0  0  0
  3  4  2  0  0  0  0
  4  5  1  0  0  0  0
  5  6  2  0  0  0  0
  6  1  1  0  0  0  0
  4  7  1  0  0  0  0
  7  8  1  0  0  0  0
  8  9  2  0  0  0  0
  9 10  1  0  0  0  0
 10  5  1  0  0  0  0
  8 11  1  0  0  0  0
 12 13  2  0  0  0  0
 13  9  1  0  0  0  0
 12 14  1  0  0  0  0
 14 15  2  0  0  0  0
 15 16  1  0  0  0  0
 16 17  2  0  0  0  0
 17 13  1  0  0  0  0
  1 18  1  0  0  0  0
  3 19  1  0  0  0  0
  7 20  2  0  0  0  0
 16 21  1  0  0  0  0
 15 22  1  0  0  0  0
 21 23  1  0  0  0  0
 24 11  1  1  0  0  0
 24 25  1  0  0  0  0
 25 26  1  0  0  0  0
 26 27  1  0  0  0  0
 27 28  1  0  0  0  0
 28 29  1  0  0  0  0
 29 24  1  0  0  0  0
 26 30  1  1  0  0  0
 28 31  1  1  0  0  0
 29 32  1  6  0  0  0
 27 33  1  6  0  0  0
 30 34  1  0  0  0  0
 34 35  1  0  0  0  0
 35 36  2  0  0  0  0
 35 37  1  0  0  0  0
 37 38  2  0  0  0  0
 38 39  1  0  0  0  0
 39 40  2  0  0  0  0
 40 41  1  0  0  0  0
 41 42  2  0  0  0  0
 42 43  1  0  0  0  0
 43 44  2  0  0  0  0
 44 39  1  0  0  0  0
 42 45  1  0  0  0  0
 18 46  1  0  0  0  0
 46 47  1  0  0  0  0
 47 48  1  0  0  0  0
 48 49  1  0  0  0  0
 49 50  1  0  0  0  0
 50 51  1  0  0  0  0
 51 46  1  0  0  0  0
 48 52  1  0  0  0  0
 52 53  1  0  0  0  0
 49 54  1  0  0  0  0
 50 55  1  0  0  0  0
 51 56  1  0  0  0  0
M  END
>  <cdx:fragmentId>
5

$$$$
