94954.cdx
  Mrv1902 05222410252D          

 12 12  0  0  0  0            999 V2000
    8.4843   -7.2801    0.0000 C   0  0  0  0  0  0  0  0  0  0  0  0
    8.0718   -6.5657    0.0000 C   0  0  0  0  0  0  0  0  0  0  0  0
    7.2648   -6.7372    0.0000 C   0  0  0  0  0  0  0  0  0  0  0  0
    7.1786   -7.5577    0.0000 C   0  0  0  0  0  0  0  0  0  0  0  0
    7.9323   -7.8932    0.0000 S   0  0  0  0  0  0  0  0  0  0  0  0
    6.4641   -7.9702    0.0000 C   0  0  0  0  0  0  0  0  0  0  0  0
    5.7497   -7.5577    0.0000 C   0  0  0  0  0  0  0  0  0  0  0  0
    5.0352   -7.9702    0.0000 C   0  0  0  0  0  0  0  0  0  0  0  0
    4.3207   -7.5577    0.0000 C   0  0  0  0  0  0  0  0  0  0  0  0
    3.6063   -7.9702    0.0000 C   0  0  0  0  0  0  0  0  0  0  0  0
    9.3048   -7.3664    0.0000 C   0  0  0  0  0  0  0  0  0  0  0  0
    9.7897   -6.6989    0.0000 O   0  0  0  0  0  0  0  0  0  0  0  0
  1  2  2  0  0  0  0
  2  3  1  0  0  0  0
  3  4  2  0  0  0  0
  4  5  1  0  0  0  0
  1  5  1  0  0  0  0
  6  7  1  0  0  0  0
  7  8  1  0  0  0  0
  8  9  1  0  0  0  0
  9 10  1  0  0  0  0
  4  6  1  0  0  0  0
 11 12  2  0  0  0  0
  1 11  1  0  0  0  0
M  END
>  <cdx:fragmentId>
5

$$$$
