94956.cdx
  Mrv1902 05222410252D          

 42 45  0  0  0  0            999 V2000
    2.6656   -4.4550    0.0000 C   0  0  0  0  0  0  0  0  0  0  0  0
    2.6656   -5.2800    0.0000 C   0  0  0  0  0  0  0  0  0  0  0  0
    3.3800   -5.6925    0.0000 C   0  0  0  0  0  0  0  0  0  0  0  0
    4.0945   -5.2800    0.0000 C   0  0  0  0  0  0  0  0  0  0  0  0
    4.0945   -4.4550    0.0000 C   0  0  0  0  0  0  0  0  0  0  0  0
    3.3800   -4.0425    0.0000 C   0  0  0  0  0  0  0  0  0  0  0  0
    1.9511   -4.0425    0.0000 O   0  0  0  0  0  0  0  0  0  0  0  0
    4.8090   -5.6925    0.0000 C   0  0  0  0  0  0  0  0  0  0  0  0
    5.5234   -5.2800    0.0000 C   0  0  0  0  0  0  0  0  0  0  0  0
    6.2379   -5.6925    0.0000 C   0  0  0  0  0  0  0  0  0  0  0  0
    6.9524   -5.2800    0.0000 O   0  0  0  0  0  0  0  0  0  0  0  0
    6.2379   -6.5175    0.0000 O   0  0  0  0  0  0  0  0  0  0  0  0
    6.9524   -6.9300    0.0000 C   0  0  2  0  0  0  0  0  0  0  0  0
    6.9524   -7.7550    0.0000 C   0  0  0  0  0  0  0  0  0  0  0  0
    7.6669   -8.1675    0.0000 C   0  0  0  0  0  0  0  0  0  0  0  0
    8.3813   -7.7550    0.0000 C   0  0  2  0  0  0  0  0  0  0  0  0
    8.3813   -6.9300    0.0000 C   0  0  1  0  0  0  0  0  0  0  0  0
    9.0958   -8.1675    0.0000 C   0  0  0  0  0  0  0  0  0  0  0  0
    9.8103   -7.7550    0.0000 O   0  0  0  0  0  0  0  0  0  0  0  0
    9.8103   -6.9300    0.0000 C   0  0  0  0  0  0  0  0  0  0  0  0
    9.0958   -6.5175    0.0000 C   0  0  0  0  0  0  0  0  0  0  0  0
    7.6669   -8.9925    0.0000 C   0  0  0  0  0  0  0  0  0  0  0  0
    9.0958   -5.6925    0.0000 C   0  0  0  0  0  0  0  0  0  0  0  0
    9.0958   -8.9925    0.0000 O   0  0  0  0  0  0  0  0  0  0  0  0
    6.9524   -9.4050    0.0000 O   0  0  0  0  0  0  0  0  0  0  0  0
    6.9524  -10.2300    0.0000 C   0  0  0  0  0  0  0  0  0  0  0  0
    8.3813   -5.2800    0.0000 O   0  0  0  0  0  0  0  0  0  0  0  0
    9.8103   -5.2800    0.0000 O   0  0  0  0  0  0  0  0  0  0  0  0
   10.5247   -5.6925    0.0000 C   0  0  0  0  0  0  0  0  0  0  0  0
    9.8103   -9.4050    0.0000 C   0  0  0  0  0  0  0  0  0  0  0  0
    9.8103  -10.2300    0.0000 O   0  0  0  0  0  0  0  0  0  0  0  0
   10.5247  -10.6425    0.0000 C   0  0  1  0  0  0  0  0  0  0  0  0
   11.2392  -10.2300    0.0000 C   0  0  2  0  0  0  0  0  0  0  0  0
   11.2392   -9.4050    0.0000 C   0  0  1  0  0  0  0  0  0  0  0  0
   10.5247   -8.9925    0.0000 C   0  0  1  0  0  0  0  0  0  0  0  0
   11.9537   -8.9925    0.0000 O   0  0  0  0  0  0  0  0  0  0  0  0
   10.5247  -11.4675    0.0000 C   0  0  0  0  0  0  0  0  0  0  0  0
   11.2392  -11.8800    0.0000 O   0  0  0  0  0  0  0  0  0  0  0  0
   10.5247   -8.1675    0.0000 O   0  0  0  0  0  0  0  0  0  0  0  0
   11.9537  -10.6425    0.0000 O   0  0  0  0  0  0  0  0  0  0  0  0
    8.1678   -6.1331    0.0000 H   0  0  0  0  0  0  0  0  0  0  0  0
    8.1678   -8.5519    0.0000 H   0  0  0  0  0  0  0  0  0  0  0  0
  1  2  2  0  0  0  0
  2  3  1  0  0  0  0
  3  4  2  0  0  0  0
  4  5  1  0  0  0  0
  5  6  2  0  0  0  0
  6  1  1  0  0  0  0
  1  7  1  0  0  0  0
  4  8  1  0  0  0  0
  8  9  2  0  0  0  0
  9 10  1  0  0  0  0
 10 11  2  0  0  0  0
 10 12  1  0  0  0  0
 13 12  1  1  0  0  0
 13 14  1  0  0  0  0
 14 15  2  0  0  0  0
 15 16  1  0  0  0  0
 16 17  1  0  0  0  0
 13 17  1  0  0  0  0
 16 18  1  0  0  0  0
 18 19  1  0  0  0  0
 19 20  1  0  0  0  0
 20 21  2  0  0  0  0
 21 17  1  0  0  0  0
 15 22  1  0  0  0  0
 21 23  1  0  0  0  0
 18 24  1  0  0  0  0
 22 25  1  0  0  0  0
 25 26  1  0  0  0  0
 23 27  2  0  0  0  0
 23 28  1  0  0  0  0
 28 29  1  0  0  0  0
 24 30  1  0  0  0  0
 30 31  1  0  0  0  0
 31 32  1  0  0  0  0
 32 33  1  0  0  0  0
 33 34  1  0  0  0  0
 34 35  1  0  0  0  0
 35 30  1  0  0  0  0
 34 36  1  1  0  0  0
 32 37  1  1  0  0  0
 37 38  1  0  0  0  0
 35 39  1  6  0  0  0
 33 40  1  6  0  0  0
 17 41  1  1  0  0  0
 16 42  1  1  0  0  0
M  END
>  <cdx:fragmentId>
5

$$$$
