9496.cdx
  Mrv1902 05222410212D          

 57 64  0  0  0  0            999 V2000
    7.1553   -7.6037    0.0000 C   0  0  0  0  0  0  0  0  0  0  0  0
    7.1553   -8.4288    0.0000 C   0  0  1  0  0  0  0  0  0  0  0  0
    7.8698   -8.8413    0.0000 C   0  0  1  0  0  0  0  0  0  0  0  0
    8.5843   -8.4288    0.0000 C   0  0  1  0  0  0  0  0  0  0  0  0
    8.5843   -7.6037    0.0000 C   0  0  2  0  0  0  0  0  0  0  0  0
    7.8698   -7.1913    0.0000 C   0  0  0  0  0  0  0  0  0  0  0  0
    9.2987   -8.8413    0.0000 C   0  0  0  0  0  0  0  0  0  0  0  0
   10.0132   -8.4288    0.0000 C   0  0  0  0  0  0  0  0  0  0  0  0
   10.0132   -7.6037    0.0000 C   0  0  2  0  0  0  0  0  0  0  0  0
    9.2987   -7.1913    0.0000 C   0  0  2  0  0  0  0  0  0  0  0  0
   10.7277   -7.1913    0.0000 C   0  0  1  0  0  0  0  0  0  0  0  0
   10.7277   -6.3662    0.0000 C   0  0  2  0  0  0  0  0  0  0  0  0
   10.0132   -5.9538    0.0000 C   0  0  0  0  0  0  0  0  0  0  0  0
    9.2987   -6.3662    0.0000 C   0  0  0  0  0  0  0  0  0  0  0  0
   11.4421   -7.6037    0.0000 C   0  0  0  0  0  0  0  0  0  0  0  0
   12.1566   -7.1913    0.0000 C   0  0  2  0  0  0  0  0  0  0  0  0
   12.1566   -6.3662    0.0000 C   0  0  2  0  0  0  0  0  0  0  0  0
   11.4421   -5.9538    0.0000 C   0  0  1  0  0  0  0  0  0  0  0  0
   12.8711   -5.9538    0.0000 C   0  0  0  0  0  0  0  0  0  0  0  0
   12.8711   -5.1287    0.0000 C   0  0  0  0  0  0  0  0  0  0  0  0
   12.1566   -4.7162    0.0000 C   0  0  1  0  0  0  0  0  0  0  0  0
   11.4421   -5.1287    0.0000 C   0  0  0  0  0  0  0  0  0  0  0  0
    6.4408   -8.8413    0.0000 O   0  0  0  0  0  0  0  0  0  0  0  0
    7.4573   -9.5557    0.0000 C   0  0  0  0  0  0  0  0  0  0  0  0
    8.5843   -6.7788    0.0000 C   0  0  0  0  0  0  0  0  0  0  0  0
   10.0132   -6.7788    0.0000 C   0  0  0  0  0  0  0  0  0  0  0  0
   10.7277   -5.5413    0.0000 O   0  0  0  0  0  0  0  0  0  0  0  0
   11.4421   -6.7788    0.0000 H   0  0  0  0  0  0  0  0  0  0  0  0
   12.1566   -5.5413    0.0000 C   0  0  0  0  0  0  0  0  0  0  0  0
   12.5691   -4.0018    0.0000 C   0  0  0  0  0  0  0  0  0  0  0  0
    8.2823   -9.5557    0.0000 C   0  0  0  0  0  0  0  0  0  0  0  0
    8.5843   -9.2538    0.0000 H   0  0  0  0  0  0  0  0  0  0  0  0
    9.2987   -8.0162    0.0000 H   0  0  0  0  0  0  0  0  0  0  0  0
   10.7277   -8.0162    0.0000 C   0  0  0  0  0  0  0  0  0  0  0  0
   12.8711   -7.6037    0.0000 O   0  0  0  0  0  0  0  0  0  0  0  0
   11.7441   -4.0018    0.0000 C   0  0  0  0  0  0  0  0  0  0  0  0
   12.1566   -3.2873    0.0000 O   0  0  0  0  0  0  0  0  0  0  0  0
    5.0042   -7.1761    0.0000 C   0  0  0  0  0  0  0  0  0  0  0  0
    4.2895   -7.5883    0.0000 C   0  0  1  0  0  0  0  0  0  0  0  0
    4.2892   -8.4133    0.0000 C   0  0  1  0  0  0  0  0  0  0  0  0
    5.0035   -8.8261    0.0000 C   0  0  2  0  0  0  0  0  0  0  0  0
    5.7182   -8.4139    0.0000 C   0  0  1  0  0  0  0  0  0  0  0  0
    5.7185   -7.5889    0.0000 O   0  0  0  0  0  0  0  0  0  0  0  0
    3.5746   -8.8256    0.0000 O   0  0  0  0  0  0  0  0  0  0  0  0
    3.5752   -7.1756    0.0000 O   0  0  0  0  0  0  0  0  0  0  0  0
    5.0032   -9.6511    0.0000 O   0  0  0  0  0  0  0  0  0  0  0  0
    2.8507  -10.0801    0.0000 C   0  0  2  0  0  0  0  0  0  0  0  0
    2.8568  -10.9051    0.0000 C   0  0  2  0  0  0  0  0  0  0  0  0
    3.5743  -11.3123    0.0000 C   0  0  1  0  0  0  0  0  0  0  0  0
    4.2857  -10.8946    0.0000 C   0  0  2  0  0  0  0  0  0  0  0  0
    4.2796  -10.0696    0.0000 C   0  0  1  0  0  0  0  0  0  0  0  0
    3.5621   -9.6624    0.0000 O   0  0  0  0  0  0  0  0  0  0  0  0
    2.1332   -9.6729    0.0000 C   0  0  0  0  0  0  0  0  0  0  0  0
    3.5803  -12.1373    0.0000 O   0  0  0  0  0  0  0  0  0  0  0  0
    2.1454  -11.3229    0.0000 O   0  0  0  0  0  0  0  0  0  0  0  0
    5.0032  -11.3018    0.0000 O   0  0  0  0  0  0  0  0  0  0  0  0
    1.4218  -10.0906    0.0000 O   0  0  0  0  0  0  0  0  0  0  0  0
  1  2  1  0  0  0  0
  2  3  1  0  0  0  0
  3  4  1  0  0  0  0
  4  5  1  0  0  0  0
  5  6  1  0  0  0  0
  6  1  1  0  0  0  0
  4  7  1  0  0  0  0
  7  8  1  0  0  0  0
  8  9  1  0  0  0  0
  9 10  1  0  0  0  0
 10  5  1  0  0  0  0
  9 11  1  0  0  0  0
 11 12  1  0  0  0  0
 12 13  1  0  0  0  0
 13 14  1  0  0  0  0
 14 10  1  0  0  0  0
 11 15  1  0  0  0  0
 15 16  1  0  0  0  0
 16 17  1  0  0  0  0
 17 18  1  0  0  0  0
 18 12  1  0  0  0  0
 17 19  1  0  0  0  0
 19 20  1  0  0  0  0
 20 21  1  0  0  0  0
 21 22  1  0  0  0  0
 22 18  1  0  0  0  0
  2 23  1  1  0  0  0
  3 24  1  1  0  0  0
  5 25  1  1  0  0  0
  9 26  1  1  0  0  0
 12 27  1  1  0  0  0
 18 28  1  1  0  0  0
 17 29  1  1  0  0  0
 21 30  1  1  0  0  0
  3 31  1  6  0  0  0
  4 32  1  6  0  0  0
 10 33  1  6  0  0  0
 11 34  1  6  0  0  0
 16 35  1  6  0  0  0
 21 36  1  6  0  0  0
 29 27  1  0  0  0  0
 30 37  2  0  0  0  0
 38 39  1  0  0  0  0
 39 40  1  0  0  0  0
 40 41  1  0  0  0  0
 41 42  1  0  0  0  0
 42 43  1  0  0  0  0
 43 38  1  0  0  0  0
 40 44  1  1  0  0  0
 39 45  1  1  0  0  0
 41 46  1  6  0  0  0
 42 23  1  1  0  0  0
 47 48  1  0  0  0  0
 48 49  1  0  0  0  0
 49 50  1  0  0  0  0
 50 51  1  0  0  0  0
 51 52  1  0  0  0  0
 52 47  1  0  0  0  0
 47 53  1  1  0  0  0
 49 54  1  1  0  0  0
 48 55  1  6  0  0  0
 50 56  1  6  0  0  0
 53 57  1  0  0  0  0
 51 46  1  1  0  0  0
M  END
>  <cdx:fragmentId>
108

$$$$
