94966.cdx
  Mrv1902 05222410202D          

 41 45  0  0  0  0            999 V2000
    9.6963   -9.0835    0.0000 C   0  0  0  0  0  0  0  0  0  0  0  0
    9.6963   -9.9085    0.0000 C   0  0  0  0  0  0  0  0  0  0  0  0
    8.9818  -10.3210    0.0000 C   0  0  0  0  0  0  0  0  0  0  0  0
    8.9818  -11.1460    0.0000 O   0  0  0  0  0  0  0  0  0  0  0  0
    8.2674   -9.9085    0.0000 C   0  0  0  0  0  0  0  0  0  0  0  0
    7.5529  -10.3210    0.0000 C   0  0  0  0  0  0  0  0  0  0  0  0
    7.5529  -11.1460    0.0000 O   0  0  0  0  0  0  0  0  0  0  0  0
    6.8384   -9.9085    0.0000 C   0  0  0  0  0  0  0  0  0  0  0  0
    6.8384   -9.0835    0.0000 C   0  0  0  0  0  0  0  0  0  0  0  0
    7.5529   -8.6710    0.0000 C   0  0  0  0  0  0  0  0  0  0  0  0
    8.2674   -9.0835    0.0000 C   0  0  0  0  0  0  0  0  0  0  0  0
    8.9818   -8.6710    0.0000 O   0  0  0  0  0  0  0  0  0  0  0  0
   10.4108   -8.6710    0.0000 C   0  0  0  0  0  0  0  0  0  0  0  0
   10.4108   -7.8460    0.0000 C   0  0  0  0  0  0  0  0  0  0  0  0
   11.1252   -7.4335    0.0000 C   0  0  0  0  0  0  0  0  0  0  0  0
   11.8397   -7.8460    0.0000 C   0  0  0  0  0  0  0  0  0  0  0  0
   12.5542   -7.4335    0.0000 O   0  0  0  0  0  0  0  0  0  0  0  0
   11.8397   -8.6710    0.0000 C   0  0  0  0  0  0  0  0  0  0  0  0
   11.1252   -9.0835    0.0000 C   0  0  0  0  0  0  0  0  0  0  0  0
    6.1239   -8.6710    0.0000 O   0  0  0  0  0  0  0  0  0  0  0  0
    5.4095   -9.0835    0.0000 C   0  0  1  0  0  0  0  0  0  0  0  0
    4.6950   -8.6710    0.0000 C   0  0  2  0  0  0  0  0  0  0  0  0
    4.6950   -7.8460    0.0000 O   0  0  0  0  0  0  0  0  0  0  0  0
    3.9805   -9.0835    0.0000 C   0  0  1  0  0  0  0  0  0  0  0  0
    3.2661   -8.6710    0.0000 O   0  0  0  0  0  0  0  0  0  0  0  0
    3.9805   -9.9085    0.0000 C   0  0  2  0  0  0  0  0  0  0  0  0
    3.2661  -10.3210    0.0000 O   0  0  0  0  0  0  0  0  0  0  0  0
    4.6950  -10.3210    0.0000 C   0  0  2  0  0  0  0  0  0  0  0  0
    5.4095   -9.9085    0.0000 O   0  0  0  0  0  0  0  0  0  0  0  0
    4.6950  -11.1460    0.0000 C   0  0  0  0  0  0  0  0  0  0  0  0
    3.9805  -11.5585    0.0000 O   0  0  0  0  0  0  0  0  0  0  0  0
    3.9805   -7.4335    0.0000 C   0  0  1  0  0  0  0  0  0  0  0  0
    3.9805   -6.6085    0.0000 C   0  0  2  0  0  0  0  0  0  0  0  0
    4.6950   -6.1960    0.0000 O   0  0  0  0  0  0  0  0  0  0  0  0
    3.2661   -6.1960    0.0000 C   0  0  2  0  0  0  0  0  0  0  0  0
    3.2661   -5.3710    0.0000 O   0  0  0  0  0  0  0  0  0  0  0  0
    2.5516   -6.6085    0.0000 C   0  0  1  0  0  0  0  0  0  0  0  0
    1.8371   -6.1960    0.0000 O   0  0  0  0  0  0  0  0  0  0  0  0
    2.5516   -7.4335    0.0000 C   0  0  1  0  0  0  0  0  0  0  0  0
    3.2661   -7.8460    0.0000 O   0  0  0  0  0  0  0  0  0  0  0  0
    1.8371   -7.8460    0.0000 C   0  0  0  0  0  0  0  0  0  0  0  0
  1  2  1  0  0  0  0
  2  3  1  0  0  0  0
  3  4  2  0  0  0  0
  3  5  1  0  0  0  0
  5  6  1  0  0  0  0
  6  7  1  0  0  0  0
  6  8  2  0  0  0  0
  8  9  1  0  0  0  0
  9 10  2  0  0  0  0
 10 11  1  0  0  0  0
  5 11  2  0  0  0  0
 11 12  1  0  0  0  0
  1 12  1  0  0  0  0
  1 13  1  0  0  0  0
 13 14  1  0  0  0  0
 14 15  2  0  0  0  0
 15 16  1  0  0  0  0
 16 17  1  0  0  0  0
 16 18  2  0  0  0  0
 18 19  1  0  0  0  0
 13 19  2  0  0  0  0
 21 20  1  6  0  0  0
 21 22  1  0  0  0  0
 22 23  1  1  0  0  0
 22 24  1  0  0  0  0
 24 25  1  6  0  0  0
 24 26  1  0  0  0  0
 26 27  1  1  0  0  0
 26 28  1  0  0  0  0
 28 29  1  0  0  0  0
 28 30  1  6  0  0  0
 30 31  1  0  0  0  0
 21 29  1  0  0  0  0
 32 33  1  0  0  0  0
 33 34  1  1  0  0  0
 33 35  1  0  0  0  0
 35 36  1  1  0  0  0
 35 37  1  0  0  0  0
 37 38  1  6  0  0  0
 37 39  1  0  0  0  0
 39 40  1  0  0  0  0
 39 41  1  1  0  0  0
 32 40  1  0  0  0  0
 32 23  1  6  0  0  0
  9 20  1  0  0  0  0
M  END
>  <cdx:groupId>
129

>  <cdx:fragmentId>
41

$$$$
