94961.cdx
  Mrv1902 05222410222D          

 34 37  0  0  0  0            999 V2000
    6.4812   -7.0210    0.0000 C   0  0  0  0  0  0  0  0  0  0  0  0
    6.4812   -7.8460    0.0000 C   0  0  0  0  0  0  0  0  0  0  0  0
    5.7667   -8.2585    0.0000 C   0  0  0  0  0  0  0  0  0  0  0  0
    5.7667   -9.0835    0.0000 O   0  0  0  0  0  0  0  0  0  0  0  0
    5.0522   -7.8460    0.0000 C   0  0  0  0  0  0  0  0  0  0  0  0
    4.3378   -8.2585    0.0000 C   0  0  0  0  0  0  0  0  0  0  0  0
    4.3378   -9.0835    0.0000 O   0  0  0  0  0  0  0  0  0  0  0  0
    3.6233   -7.8460    0.0000 C   0  0  0  0  0  0  0  0  0  0  0  0
    3.6233   -7.0210    0.0000 C   0  0  0  0  0  0  0  0  0  0  0  0
    2.9088   -6.6085    0.0000 O   0  0  0  0  0  0  0  0  0  0  0  0
    4.3378   -6.6085    0.0000 C   0  0  0  0  0  0  0  0  0  0  0  0
    5.0522   -7.0210    0.0000 C   0  0  0  0  0  0  0  0  0  0  0  0
    5.7667   -6.6085    0.0000 O   0  0  0  0  0  0  0  0  0  0  0  0
    7.1956   -6.6085    0.0000 C   0  0  0  0  0  0  0  0  0  0  0  0
    7.1956   -5.7835    0.0000 C   0  0  0  0  0  0  0  0  0  0  0  0
    7.9101   -5.3710    0.0000 C   0  0  0  0  0  0  0  0  0  0  0  0
    8.6246   -5.7835    0.0000 C   0  0  0  0  0  0  0  0  0  0  0  0
    9.3391   -5.3710    0.0000 O   0  0  0  0  0  0  0  0  0  0  0  0
    8.6246   -6.6085    0.0000 C   0  0  0  0  0  0  0  0  0  0  0  0
    7.9101   -7.0210    0.0000 C   0  0  0  0  0  0  0  0  0  0  0  0
    7.1956   -8.2585    0.0000 O   0  0  0  0  0  0  0  0  0  0  0  0
    7.1956   -9.0835    0.0000 C   0  0  1  0  0  0  0  0  0  0  0  0
    7.9101   -9.4960    0.0000 C   0  0  2  0  0  0  0  0  0  0  0  0
    8.6246   -9.0835    0.0000 O   0  0  0  0  0  0  0  0  0  0  0  0
    7.9101  -10.3210    0.0000 C   0  0  1  0  0  0  0  0  0  0  0  0
    8.6246  -10.7335    0.0000 O   0  0  0  0  0  0  0  0  0  0  0  0
    7.1956  -10.7335    0.0000 C   0  0  2  0  0  0  0  0  0  0  0  0
    7.1956  -11.5585    0.0000 O   0  0  0  0  0  0  0  0  0  0  0  0
    6.4812  -10.3210    0.0000 C   0  0  2  0  0  0  0  0  0  0  0  0
    6.4812   -9.4960    0.0000 O   0  0  0  0  0  0  0  0  0  0  0  0
    5.7667  -10.7335    0.0000 C   0  0  0  0  0  0  0  0  0  0  0  0
    5.0522  -10.3210    0.0000 O   0  0  0  0  0  0  0  0  0  0  0  0
    5.7667  -11.5585    0.0000 O   0  0  0  0  0  0  0  0  0  0  0  0
    4.3378  -10.7335    0.0000 C   0  0  0  0  0  0  0  0  0  0  0  0
  1  2  2  0  0  0  0
  2  3  1  0  0  0  0
  3  4  2  0  0  0  0
  3  5  1  0  0  0  0
  5  6  1  0  0  0  0
  6  7  1  0  0  0  0
  6  8  2  0  0  0  0
  8  9  1  0  0  0  0
  9 10  1  0  0  0  0
  9 11  2  0  0  0  0
 11 12  1  0  0  0  0
  5 12  2  0  0  0  0
 12 13  1  0  0  0  0
  1 13  1  0  0  0  0
  1 14  1  0  0  0  0
 14 15  1  0  0  0  0
 15 16  2  0  0  0  0
 16 17  1  0  0  0  0
 17 18  1  0  0  0  0
 17 19  2  0  0  0  0
 19 20  1  0  0  0  0
 14 20  2  0  0  0  0
 22 21  1  1  0  0  0
 22 23  1  0  0  0  0
 23 24  1  6  0  0  0
 23 25  1  0  0  0  0
 25 26  1  1  0  0  0
 25 27  1  0  0  0  0
 27 28  1  6  0  0  0
 27 29  1  0  0  0  0
 29 30  1  0  0  0  0
 29 31  1  1  0  0  0
 31 32  1  0  0  0  0
 22 30  1  0  0  0  0
  2 21  1  0  0  0  0
 31 33  2  0  0  0  0
 32 34  1  0  0  0  0
M  END
>  <cdx:groupId>
132

>  <cdx:fragmentId>
43

$$$$
