94972.cdx
  Mrv1902 05222410202D          

 22 24  0  0  0  0            999 V2000
    6.4150  -10.3963    0.0000 N   0  0  0  0  0  0  0  0  0  0  0  0
    6.8999   -9.7289    0.0000 C   0  0  0  0  0  0  0  0  0  0  0  0
    6.4150   -9.0614    0.0000 C   0  0  0  0  0  0  0  0  0  0  0  0
    5.6303   -9.3164    0.0000 C   0  0  0  0  0  0  0  0  0  0  0  0
    4.9159   -8.9039    0.0000 C   0  0  0  0  0  0  0  0  0  0  0  0
    4.2014   -9.3164    0.0000 C   0  0  0  0  0  0  0  0  0  0  0  0
    4.2014  -10.1414    0.0000 C   0  0  0  0  0  0  0  0  0  0  0  0
    4.9159  -10.5539    0.0000 C   0  0  0  0  0  0  0  0  0  0  0  0
    5.6303  -10.1414    0.0000 C   0  0  0  0  0  0  0  0  0  0  0  0
    7.7249   -9.7289    0.0000 O   0  0  0  0  0  0  0  0  0  0  0  0
    6.6699   -8.2768    0.0000 C   0  0  0  0  0  0  0  0  0  0  0  0
    7.4769   -8.1053    0.0000 C   0  0  0  0  0  0  0  0  0  0  0  0
    8.0289   -8.7184    0.0000 C   0  0  0  0  0  0  0  0  0  0  0  0
    8.8359   -8.5469    0.0000 C   0  0  0  0  0  0  0  0  0  0  0  0
    9.0908   -7.7622    0.0000 C   0  0  0  0  0  0  0  0  0  0  0  0
    8.5388   -7.1491    0.0000 C   0  0  0  0  0  0  0  0  0  0  0  0
    7.7318   -7.3207    0.0000 C   0  0  0  0  0  0  0  0  0  0  0  0
    8.7937   -6.3645    0.0000 O   0  0  0  0  0  0  0  0  0  0  0  0
    9.6007   -6.1930    0.0000 C   0  0  0  0  0  0  0  0  0  0  0  0
    9.3879   -9.1599    0.0000 O   0  0  0  0  0  0  0  0  0  0  0  0
   10.1949   -8.9884    0.0000 C   0  0  0  0  0  0  0  0  0  0  0  0
    9.8978   -7.5907    0.0000 O   0  0  0  0  0  0  0  0  0  0  0  0
  1  2  1  0  0  0  0
  2  3  1  0  0  0  0
  3  4  1  0  0  0  0
  4  5  1  0  0  0  0
  5  6  2  0  0  0  0
  6  7  1  0  0  0  0
  7  8  2  0  0  0  0
  8  9  1  0  0  0  0
  1  9  1  0  0  0  0
  4  9  2  0  0  0  0
  2 10  2  0  0  0  0
 11 12  1  0  0  0  0
 12 13  1  0  0  0  0
 13 14  2  0  0  0  0
 14 15  1  0  0  0  0
 15 16  2  0  0  0  0
 16 17  1  0  0  0  0
 12 17  2  0  0  0  0
 18 19  1  0  0  0  0
 16 18  1  0  0  0  0
 20 21  1  0  0  0  0
 14 20  1  0  0  0  0
 15 22  1  0  0  0  0
  3 11  2  0  0  0  0
M  END
>  <cdx:groupId>
70

>  <cdx:fragmentId>
25

$$$$
