94978.cdx
  Mrv1902 05222410242D          

 30 31  0  0  0  0            999 V2000
    7.5004   -6.3885    0.0000 C   0  0  0  0  0  0  0  0  0  0  0  0
    8.2149   -5.9760    0.0000 C   0  0  0  0  0  0  0  0  0  0  0  0
    8.9294   -6.3885    0.0000 C   0  0  0  0  0  0  0  0  0  0  0  0
    9.6439   -5.9760    0.0000 C   0  0  0  0  0  0  0  0  0  0  0  0
   10.3583   -6.3885    0.0000 C   0  0  0  0  0  0  0  0  0  0  0  0
   11.0728   -5.9760    0.0000 C   0  0  0  0  0  0  0  0  0  0  0  0
   11.7873   -6.3885    0.0000 C   0  0  0  0  0  0  0  0  0  0  0  0
   11.7873   -7.2135    0.0000 C   0  0  0  0  0  0  0  0  0  0  0  0
   11.0728   -7.6260    0.0000 C   0  0  0  0  0  0  0  0  0  0  0  0
   10.3583   -7.2135    0.0000 C   0  0  0  0  0  0  0  0  0  0  0  0
   12.5017   -7.6260    0.0000 O   0  0  0  0  0  0  0  0  0  0  0  0
   12.5017   -5.9760    0.0000 O   0  0  0  0  0  0  0  0  0  0  0  0
    8.2149   -5.1510    0.0000 O   0  0  0  0  0  0  0  0  0  0  0  0
    6.0715   -3.9135    0.0000 C   0  0  0  0  0  0  0  0  0  0  0  0
    5.3570   -5.1510    0.0000 O   0  0  0  0  0  0  0  0  0  0  0  0
    6.0715   -4.7385    0.0000 C   0  0  0  0  0  0  0  0  0  0  0  0
    6.7860   -5.1510    0.0000 O   0  0  0  0  0  0  0  0  0  0  0  0
    3.9281   -8.4510    0.0000 O   0  0  0  0  0  0  0  0  0  0  0  0
    2.4991   -7.6260    0.0000 O   0  0  0  0  0  0  0  0  0  0  0  0
    1.7847   -6.3885    0.0000 C   0  0  0  0  0  0  0  0  0  0  0  0
    2.4991   -5.9760    0.0000 O   0  0  0  0  0  0  0  0  0  0  0  0
    3.9281   -5.9760    0.0000 C   0  0  0  0  0  0  0  0  0  0  0  0
    3.2136   -6.3885    0.0000 C   0  0  0  0  0  0  0  0  0  0  0  0
    3.2136   -7.2135    0.0000 C   0  0  0  0  0  0  0  0  0  0  0  0
    3.9281   -7.6260    0.0000 C   0  0  0  0  0  0  0  0  0  0  0  0
    4.6426   -7.2135    0.0000 C   0  0  0  0  0  0  0  0  0  0  0  0
    4.6426   -6.3885    0.0000 C   0  0  0  0  0  0  0  0  0  0  0  0
    6.7860   -5.9760    0.0000 C   0  0  0  0  0  0  0  0  0  0  0  0
    6.0715   -6.3885    0.0000 C   0  0  0  0  0  0  0  0  0  0  0  0
    5.3570   -5.9760    0.0000 C   0  0  0  0  0  0  0  0  0  0  0  0
 28 17  1  0  0  0  0
 17 16  1  0  0  0  0
 16 14  1  0  0  0  0
 16 15  2  0  0  0  0
 30 27  1  0  0  0  0
 25 18  1  0  0  0  0
 24 19  1  0  0  0  0
 23 21  1  0  0  0  0
 21 20  1  0  0  0  0
 27 22  2  0  0  0  0
 23 22  1  0  0  0  0
 24 23  2  0  0  0  0
 25 24  1  0  0  0  0
 26 25  2  0  0  0  0
 27 26  1  0  0  0  0
 29 28  1  0  0  0  0
 30 29  1  0  0  0  0
 28  1  1  0  0  0  0
  1  2  1  0  0  0  0
  2  3  1  0  0  0  0
  3  4  1  0  0  0  0
  5  6  1  0  0  0  0
  6  7  2  0  0  0  0
  7  8  1  0  0  0  0
  8  9  2  0  0  0  0
  9 10  1  0  0  0  0
  5 10  2  0  0  0  0
  8 11  1  0  0  0  0
  7 12  1  0  0  0  0
  4  5  1  0  0  0  0
  2 13  1  0  0  0  0
M  END
>  <cdx:groupId>
93

>  <cdx:fragmentId>
19

$$$$
