94970.cdx
  Mrv1902 05222410212D          

 44 47  0  0  0  0            999 V2000
    8.5918   -7.8237    0.0000 C   0  0  0  0  0  0  0  0  0  0  0  0
    8.5918   -8.6487    0.0000 C   0  0  0  0  0  0  0  0  0  0  0  0
    9.3063   -9.0613    0.0000 C   0  0  0  0  0  0  0  0  0  0  0  0
   10.0207   -8.6487    0.0000 C   0  0  0  0  0  0  0  0  0  0  0  0
   10.0207   -7.8237    0.0000 C   0  0  0  0  0  0  0  0  0  0  0  0
    9.3063   -7.4112    0.0000 C   0  0  0  0  0  0  0  0  0  0  0  0
   10.7352   -7.4112    0.0000 C   0  0  0  0  0  0  0  0  0  0  0  0
   11.4497   -7.8237    0.0000 C   0  0  0  0  0  0  0  0  0  0  0  0
   12.1642   -7.4112    0.0000 C   0  0  0  0  0  0  0  0  0  0  0  0
   12.8786   -7.8237    0.0000 C   0  0  0  0  0  0  0  0  0  0  0  0
   12.1642   -6.5862    0.0000 O   0  0  0  0  0  0  0  0  0  0  0  0
    7.8773   -9.0613    0.0000 O   0  0  0  0  0  0  0  0  0  0  0  0
    7.1629   -8.6487    0.0000 C   0  0  2  0  0  0  0  0  0  0  0  0
    7.1629   -7.8237    0.0000 O   0  0  0  0  0  0  0  0  0  0  0  0
    6.4484   -7.4112    0.0000 C   0  0  1  0  0  0  0  0  0  0  0  0
    5.7339   -7.8237    0.0000 C   0  0  2  0  0  0  0  0  0  0  0  0
    5.7339   -8.6487    0.0000 C   0  0  1  0  0  0  0  0  0  0  0  0
    6.4484   -9.0612    0.0000 C   0  0  1  0  0  0  0  0  0  0  0  0
    6.4484   -6.5863    0.0000 C   0  0  0  0  0  0  0  0  0  0  0  0
    5.0194   -9.0613    0.0000 O   0  0  0  0  0  0  0  0  0  0  0  0
    5.7339   -6.1737    0.0000 O   0  0  0  0  0  0  0  0  0  0  0  0
    5.0194   -7.4112    0.0000 O   0  0  0  0  0  0  0  0  0  0  0  0
    6.4484   -9.8862    0.0000 O   0  0  0  0  0  0  0  0  0  0  0  0
    7.1629  -10.2988    0.0000 C   0  0  0  0  0  0  0  0  0  0  0  0
    7.1629  -11.1237    0.0000 C   0  0  0  0  0  0  0  0  0  0  0  0
    7.8773   -9.8862    0.0000 O   0  0  0  0  0  0  0  0  0  0  0  0
    7.8773  -12.3613    0.0000 C   0  0  0  0  0  0  0  0  0  0  0  0
    7.8773  -11.5362    0.0000 C   0  0  0  0  0  0  0  0  0  0  0  0
    8.5918  -12.7737    0.0000 C   0  0  0  0  0  0  0  0  0  0  0  0
    4.3248   -2.8726    0.0000 O   0  0  0  0  0  0  0  0  0  0  0  0
    2.8947   -3.6957    0.0000 O   0  0  0  0  0  0  0  0  0  0  0  0
    2.8924   -5.3457    0.0000 O   0  0  0  0  0  0  0  0  0  0  0  0
    5.0375   -4.1111    0.0000 C   0  0  0  0  0  0  0  0  0  0  0  0
    4.3236   -3.6976    0.0000 C   0  0  0  0  0  0  0  0  0  0  0  0
    3.6086   -4.1091    0.0000 C   0  0  0  0  0  0  0  0  0  0  0  0
    3.6075   -4.9341    0.0000 C   0  0  0  0  0  0  0  0  0  0  0  0
    4.3214   -5.3476    0.0000 C   0  0  0  0  0  0  0  0  0  0  0  0
    6.4653   -4.9381    0.0000 O   0  0  0  0  0  0  0  0  0  0  0  0
    5.0364   -4.9361    0.0000 C   0  0  0  0  0  0  0  0  0  0  0  0
    5.7503   -5.3496    0.0000 C   0  0  0  0  0  0  0  0  0  0  0  0
    7.1629  -12.7737    0.0000 C   0  0  0  0  0  0  0  0  0  0  0  0
    7.1629  -13.5988    0.0000 C   0  0  0  0  0  0  0  0  0  0  0  0
    7.8773  -14.0113    0.0000 C   0  0  0  0  0  0  0  0  0  0  0  0
    8.5918  -13.5988    0.0000 C   0  0  0  0  0  0  0  0  0  0  0  0
  1  2  2  0  0  0  0
  2  3  1  0  0  0  0
  3  4  2  0  0  0  0
  4  5  1  0  0  0  0
  5  6  2  0  0  0  0
  6  1  1  0  0  0  0
  5  7  1  0  0  0  0
  7  8  1  0  0  0  0
  8  9  1  0  0  0  0
  9 10  1  0  0  0  0
  9 11  2  0  0  0  0
  2 12  1  0  0  0  0
 13 12  1  1  0  0  0
 13 14  1  0  0  0  0
 14 15  1  0  0  0  0
 15 16  1  0  0  0  0
 16 17  1  0  0  0  0
 17 18  1  0  0  0  0
 18 13  1  0  0  0  0
 15 19  1  1  0  0  0
 17 20  1  1  0  0  0
 19 21  1  0  0  0  0
 16 22  1  6  0  0  0
 18 23  1  6  0  0  0
 23 24  1  0  0  0  0
 24 25  1  0  0  0  0
 24 26  2  0  0  0  0
 27 28  1  0  0  0  0
 28 25  2  0  0  0  0
 27 29  2  0  0  0  0
 34 30  1  0  0  0  0
 35 31  1  0  0  0  0
 36 32  1  0  0  0  0
 33 39  1  0  0  0  0
 34 33  2  0  0  0  0
 35 34  1  0  0  0  0
 36 35  2  0  0  0  0
 37 36  1  0  0  0  0
 39 37  2  0  0  0  0
 40 38  2  0  0  0  0
 40 39  1  0  0  0  0
 40 21  1  0  0  0  0
 27 41  1  0  0  0  0
 41 42  2  0  0  0  0
 42 43  1  0  0  0  0
 43 44  2  0  0  0  0
 44 29  1  0  0  0  0
M  END
>  <cdx:fragmentId>
5

$$$$
