94979.cdx
  Mrv1902 05222410242D          

 30 31  0  0  0  0            999 V2000
    7.0317   -6.4710    0.0000 C   0  0  0  0  0  0  0  0  0  0  0  0
    7.7462   -6.0585    0.0000 C   0  0  0  0  0  0  0  0  0  0  0  0
    8.4606   -6.4710    0.0000 C   0  0  0  0  0  0  0  0  0  0  0  0
    9.1751   -6.0585    0.0000 C   0  0  0  0  0  0  0  0  0  0  0  0
    9.8896   -6.4710    0.0000 C   0  0  0  0  0  0  0  0  0  0  0  0
    9.8896   -7.2960    0.0000 C   0  0  0  0  0  0  0  0  0  0  0  0
   10.6041   -7.7085    0.0000 C   0  0  0  0  0  0  0  0  0  0  0  0
   11.3185   -7.2960    0.0000 C   0  0  0  0  0  0  0  0  0  0  0  0
   11.3185   -6.4710    0.0000 C   0  0  0  0  0  0  0  0  0  0  0  0
   10.6041   -6.0585    0.0000 C   0  0  0  0  0  0  0  0  0  0  0  0
   12.0330   -6.0585    0.0000 O   0  0  0  0  0  0  0  0  0  0  0  0
   12.7475   -6.4710    0.0000 C   0  0  0  0  0  0  0  0  0  0  0  0
   12.0330   -7.7085    0.0000 O   0  0  0  0  0  0  0  0  0  0  0  0
   10.6041   -8.5335    0.0000 O   0  0  0  0  0  0  0  0  0  0  0  0
    7.7462   -5.2335    0.0000 O   0  0  0  0  0  0  0  0  0  0  0  0
    5.6028   -3.9960    0.0000 C   0  0  0  0  0  0  0  0  0  0  0  0
    4.8883   -5.2335    0.0000 O   0  0  0  0  0  0  0  0  0  0  0  0
    5.6028   -4.8210    0.0000 C   0  0  0  0  0  0  0  0  0  0  0  0
    6.3172   -5.2335    0.0000 O   0  0  0  0  0  0  0  0  0  0  0  0
    3.4594   -8.5335    0.0000 O   0  0  0  0  0  0  0  0  0  0  0  0
    2.0304   -7.7085    0.0000 O   0  0  0  0  0  0  0  0  0  0  0  0
    3.4594   -6.0585    0.0000 C   0  0  0  0  0  0  0  0  0  0  0  0
    2.7449   -6.4710    0.0000 C   0  0  0  0  0  0  0  0  0  0  0  0
    2.7449   -7.2960    0.0000 C   0  0  0  0  0  0  0  0  0  0  0  0
    3.4594   -7.7085    0.0000 C   0  0  0  0  0  0  0  0  0  0  0  0
    4.1738   -7.2960    0.0000 C   0  0  0  0  0  0  0  0  0  0  0  0
    4.1738   -6.4710    0.0000 C   0  0  0  0  0  0  0  0  0  0  0  0
    6.3172   -6.0585    0.0000 C   0  0  0  0  0  0  0  0  0  0  0  0
    5.6028   -6.4710    0.0000 C   0  0  0  0  0  0  0  0  0  0  0  0
    4.8883   -6.0585    0.0000 C   0  0  0  0  0  0  0  0  0  0  0  0
 28 19  1  0  0  0  0
 19 18  1  0  0  0  0
 18 16  1  0  0  0  0
 18 17  2  0  0  0  0
 30 27  1  0  0  0  0
 25 20  1  0  0  0  0
 24 21  1  0  0  0  0
 27 22  2  0  0  0  0
 23 22  1  0  0  0  0
 24 23  2  0  0  0  0
 25 24  1  0  0  0  0
 26 25  2  0  0  0  0
 27 26  1  0  0  0  0
 29 28  1  0  0  0  0
 30 29  1  0  0  0  0
 28  1  1  0  0  0  0
  1  2  1  0  0  0  0
  2  3  1  0  0  0  0
  3  4  1  0  0  0  0
  5  6  1  0  0  0  0
  6  7  2  0  0  0  0
  7  8  1  0  0  0  0
  8  9  2  0  0  0  0
  9 10  1  0  0  0  0
  5 10  2  0  0  0  0
 11 12  1  0  0  0  0
  9 11  1  0  0  0  0
  8 13  1  0  0  0  0
  7 14  1  0  0  0  0
  4  5  1  0  0  0  0
  2 15  1  0  0  0  0
M  END
>  <cdx:groupId>
93

>  <cdx:fragmentId>
19

$$$$
