94982.cdx
  Mrv1902 05222410242D          

 27 28  0  0  0  0            999 V2000
    5.9745  -10.3210    0.0000 C   0  0  0  0  0  0  0  0  0  0  0  0
    6.6889   -9.9085    0.0000 C   0  0  0  0  0  0  0  0  0  0  0  0
    7.4034  -10.3210    0.0000 C   0  0  0  0  0  0  0  0  0  0  0  0
    8.1179   -9.9085    0.0000 C   0  0  0  0  0  0  0  0  0  0  0  0
    8.8323  -10.3210    0.0000 C   0  0  0  0  0  0  0  0  0  0  0  0
    9.5468   -9.9085    0.0000 C   0  0  0  0  0  0  0  0  0  0  0  0
   10.2613  -10.3210    0.0000 C   0  0  0  0  0  0  0  0  0  0  0  0
   10.2613  -11.1460    0.0000 C   0  0  0  0  0  0  0  0  0  0  0  0
    9.5468  -11.5585    0.0000 C   0  0  0  0  0  0  0  0  0  0  0  0
    8.8323  -11.1460    0.0000 C   0  0  0  0  0  0  0  0  0  0  0  0
   10.9758  -11.5585    0.0000 O   0  0  0  0  0  0  0  0  0  0  0  0
   10.9758   -9.9085    0.0000 O   0  0  0  0  0  0  0  0  0  0  0  0
    6.6889   -9.0835    0.0000 O   0  0  0  0  0  0  0  0  0  0  0  0
    4.5455   -7.8460    0.0000 C   0  0  0  0  0  0  0  0  0  0  0  0
    3.8310   -9.0835    0.0000 O   0  0  0  0  0  0  0  0  0  0  0  0
    4.5455   -8.6710    0.0000 C   0  0  0  0  0  0  0  0  0  0  0  0
    5.2600   -9.0835    0.0000 O   0  0  0  0  0  0  0  0  0  0  0  0
    0.9732  -11.5585    0.0000 O   0  0  0  0  0  0  0  0  0  0  0  0
    2.4021   -9.9085    0.0000 C   0  0  0  0  0  0  0  0  0  0  0  0
    1.6876  -10.3210    0.0000 C   0  0  0  0  0  0  0  0  0  0  0  0
    1.6876  -11.1460    0.0000 C   0  0  0  0  0  0  0  0  0  0  0  0
    2.4021  -11.5585    0.0000 C   0  0  0  0  0  0  0  0  0  0  0  0
    3.1166  -11.1460    0.0000 C   0  0  0  0  0  0  0  0  0  0  0  0
    3.1166  -10.3210    0.0000 C   0  0  0  0  0  0  0  0  0  0  0  0
    5.2600   -9.9085    0.0000 C   0  0  0  0  0  0  0  0  0  0  0  0
    4.5455  -10.3210    0.0000 C   0  0  0  0  0  0  0  0  0  0  0  0
    3.8310   -9.9085    0.0000 C   0  0  0  0  0  0  0  0  0  0  0  0
 25 17  1  0  0  0  0
 17 16  1  0  0  0  0
 16 14  1  0  0  0  0
 16 15  2  0  0  0  0
 27 24  1  0  0  0  0
 21 18  1  0  0  0  0
 24 19  2  0  0  0  0
 20 19  1  0  0  0  0
 21 20  2  0  0  0  0
 22 21  1  0  0  0  0
 23 22  2  0  0  0  0
 24 23  1  0  0  0  0
 26 25  1  0  0  0  0
 27 26  1  0  0  0  0
 25  1  1  0  0  0  0
  1  2  1  0  0  0  0
  2  3  1  0  0  0  0
  3  4  1  0  0  0  0
  5  6  1  0  0  0  0
  6  7  2  0  0  0  0
  7  8  1  0  0  0  0
  8  9  2  0  0  0  0
  9 10  1  0  0  0  0
  5 10  2  0  0  0  0
  8 11  1  0  0  0  0
  7 12  1  0  0  0  0
  4  5  1  0  0  0  0
  2 13  1  0  0  0  0
M  END
>  <cdx:groupId>
84

>  <cdx:fragmentId>
19

$$$$
