94987.cdx
  Mrv1902 05222410242D          

 12 12  0  0  0  0            999 V2000
    8.6246   -8.3204    0.0000 C   0  0  0  0  0  0  0  0  0  0  0  0
    7.9101   -8.7329    0.0000 C   0  0  0  0  0  0  0  0  0  0  0  0
    8.6246   -7.4954    0.0000 O   0  0  0  0  0  0  0  0  0  0  0  0
    9.3391   -8.7329    0.0000 O   0  0  0  0  0  0  0  0  0  0  0  0
    7.1956   -8.3204    0.0000 C   0  0  0  0  0  0  0  0  0  0  0  0
    6.4812   -8.7329    0.0000 C   0  0  0  0  0  0  0  0  0  0  0  0
    5.7667   -8.3204    0.0000 C   0  0  0  0  0  0  0  0  0  0  0  0
    5.7667   -7.4954    0.0000 C   0  0  0  0  0  0  0  0  0  0  0  0
    6.4812   -7.0829    0.0000 C   0  0  0  0  0  0  0  0  0  0  0  0
    7.1956   -7.4954    0.0000 C   0  0  0  0  0  0  0  0  0  0  0  0
    5.0522   -7.0829    0.0000 O   0  0  0  0  0  0  0  0  0  0  0  0
    7.1956   -9.1454    0.0000 O   0  0  0  0  0  0  0  0  0  0  0  0
  1  2  1  0  0  0  0
  1  3  2  0  0  0  0
  1  4  1  0  0  0  0
  5  6  1  0  0  0  0
  6  7  1  0  0  0  0
  7  8  1  0  0  0  0
  8  9  1  0  0  0  0
  9 10  1  0  0  0  0
  5 10  1  0  0  0  0
  8 11  1  0  0  0  0
  5 12  1  0  0  0  0
  2  5  1  0  0  0  0
M  END
>  <cdx:groupId>
38

>  <cdx:fragmentId>
13

$$$$
