101949804.cdx
  Mrv1902 05222410272D          

 42 46  0  0  0  0            999 V2000
   10.7533  -12.7490    0.0000 C   0  0  0  0  0  0  0  0  0  0  0  0
   10.7533  -13.5740    0.0000 C   0  0  0  0  0  0  0  0  0  0  0  0
   10.0388  -13.9865    0.0000 C   0  0  0  0  0  0  0  0  0  0  0  0
   10.0388  -14.8115    0.0000 C   0  0  0  0  0  0  0  0  0  0  0  0
   11.4678  -12.3365    0.0000 O   0  0  0  0  0  0  0  0  0  0  0  0
   11.4678  -13.9865    0.0000 C   0  0  0  0  0  0  0  0  0  0  0  0
    8.1250  -14.9691    0.0000 C   0  0  1  0  0  0  0  0  0  0  0  0
    8.6099  -15.6365    0.0000 C   0  0  0  0  0  0  0  0  0  0  0  0
    7.8954  -15.2240    0.0000 O   0  0  0  0  0  0  0  0  0  0  0  0
    7.1809  -15.6365    0.0000 C   0  0  0  0  0  0  0  0  0  0  0  0
    6.4665  -15.2240    0.0000 C   0  0  0  0  0  0  0  0  0  0  0  0
    5.7520  -15.6365    0.0000 C   0  0  0  0  0  0  0  0  0  0  0  0
    5.7520  -16.4615    0.0000 C   0  0  0  0  0  0  0  0  0  0  0  0
    6.4665  -16.8740    0.0000 C   0  0  0  0  0  0  0  0  0  0  0  0
    7.1809  -16.4615    0.0000 C   0  0  0  0  0  0  0  0  0  0  0  0
    7.8954  -16.8740    0.0000 C   0  0  0  0  0  0  0  0  0  0  0  0
    8.6099  -16.4615    0.0000 C   0  0  0  0  0  0  0  0  0  0  0  0
    9.3244  -16.8740    0.0000 C   0  0  0  0  0  0  0  0  0  0  0  0
   10.0388  -16.4615    0.0000 C   0  0  2  0  0  0  0  0  0  0  0  0
   10.0388  -15.6365    0.0000 C   0  0  0  0  0  0  0  0  0  0  0  0
    9.3244  -15.2240    0.0000 C   0  0  2  0  0  0  0  0  0  0  0  0
    9.2947  -14.3995    0.0000 O   0  0  0  0  0  0  0  0  0  0  0  0
    8.4877  -14.2280    0.0000 C   0  0  0  0  0  0  0  0  0  0  0  0
    8.9879  -14.9502    0.0000 C   0  0  0  0  0  0  0  0  0  0  0  0
   10.7533  -15.2240    0.0000 O   0  0  0  0  0  0  0  0  0  0  0  0
    7.8954  -17.6990    0.0000 O   0  0  0  0  0  0  0  0  0  0  0  0
    5.0375  -16.8740    0.0000 C   0  0  0  0  0  0  0  0  0  0  0  0
    4.3231  -16.4615    0.0000 C   0  0  0  0  0  0  0  0  0  0  0  0
    3.6086  -16.8740    0.0000 C   0  0  0  0  0  0  0  0  0  0  0  0
    3.6086  -17.6990    0.0000 C   0  0  0  0  0  0  0  0  0  0  0  0
    2.8941  -16.4615    0.0000 C   0  0  0  0  0  0  0  0  0  0  0  0
    6.4665  -14.3990    0.0000 C   0  0  0  0  0  0  0  0  0  0  0  0
    5.7520  -13.9865    0.0000 C   0  0  0  0  0  0  0  0  0  0  0  0
    5.7520  -13.1615    0.0000 C   0  0  0  0  0  0  0  0  0  0  0  0
    6.4665  -12.7490    0.0000 C   0  0  0  0  0  0  0  0  0  0  0  0
    5.0375  -12.7490    0.0000 C   0  0  0  0  0  0  0  0  0  0  0  0
    7.7732  -13.8155    0.0000 C   0  0  0  0  0  0  0  0  0  0  0  0
    8.4877  -13.4030    0.0000 C   0  0  0  0  0  0  0  0  0  0  0  0
    6.4665  -17.6990    0.0000 O   0  0  0  0  0  0  0  0  0  0  0  0
    5.0375  -15.2240    0.0000 O   0  0  0  0  0  0  0  0  0  0  0  0
    7.4930  -14.4388    0.0000 H   0  0  0  0  0  0  0  0  0  0  0  0
   10.7533  -16.8740    0.0000 H   0  0  0  0  0  0  0  0  0  0  0  0
  1  2  1  0  0  0  0
  2  3  2  0  0  0  0
  3  4  1  0  0  0  0
  1  5  2  0  0  0  0
  2  6  1  0  0  0  0
  7  8  1  0  0  0  0
  8  9  1  0  0  0  0
  9 10  1  0  0  0  0
 10 11  2  0  0  0  0
 11 12  1  0  0  0  0
 12 13  2  0  0  0  0
 13 14  1  0  0  0  0
 14 15  2  0  0  0  0
 15 16  1  0  0  0  0
 16 17  1  0  0  0  0
 17 18  2  0  0  0  0
 18 19  1  0  0  0  0
 19 20  1  0  0  0  0
 20 21  1  0  0  0  0
 21 22  1  0  0  0  0
 22 23  1  0  0  0  0
  7 23  1  0  0  0  0
  7 24  1  6  0  0  0
 19 24  1  6  0  0  0
  8 21  1  0  0  0  0
  8 17  1  0  0  0  0
 10 15  1  0  0  0  0
 20 25  2  0  0  0  0
 16 26  2  0  0  0  0
 27 28  1  0  0  0  0
 28 29  2  0  0  0  0
 29 30  1  0  0  0  0
 29 31  1  0  0  0  0
 13 27  1  0  0  0  0
 32 33  1  0  0  0  0
 33 34  2  0  0  0  0
 34 35  1  0  0  0  0
 34 36  1  0  0  0  0
 11 32  1  0  0  0  0
 23 37  1  0  0  0  0
 23 38  1  0  0  0  0
 14 39  1  0  0  0  0
 12 40  1  0  0  0  0
 21  4  1  1  0  0  0
  7 41  1  0  0  0  0
 19 42  1  0  0  0  0
M  END
>  <cdx:groupId>
9920

>  <cdx:fragmentId>
9805

$$$$
