94984.cdx
  Mrv1902 05222410232D          

 29 30  0  0  0  0            999 V2000
    4.4351   -6.4477    0.0000 C   0  0  0  0  0  0  0  0  0  0  0  0
    5.1564   -6.0473    0.0000 C   0  0  0  0  0  0  0  0  0  0  0  0
    5.8638   -6.4717    0.0000 C   0  0  0  0  0  0  0  0  0  0  0  0
    6.5851   -6.0713    0.0000 C   0  0  0  0  0  0  0  0  0  0  0  0
    7.2925   -6.4958    0.0000 C   0  0  0  0  0  0  0  0  0  0  0  0
    8.0138   -6.0953    0.0000 C   0  0  0  0  0  0  0  0  0  0  0  0
    8.7213   -6.5198    0.0000 C   0  0  0  0  0  0  0  0  0  0  0  0
    9.4426   -6.1193    0.0000 C   0  0  0  0  0  0  0  0  0  0  0  0
   10.1500   -6.5438    0.0000 C   0  0  0  0  0  0  0  0  0  0  0  0
    6.5990   -5.2464    0.0000 O   0  0  0  0  0  0  0  0  0  0  0  0
    8.0277   -5.2704    0.0000 O   0  0  0  0  0  0  0  0  0  0  0  0
    3.7276   -6.0233    0.0000 C   0  0  0  0  0  0  0  0  0  0  0  0
    3.0063   -6.4237    0.0000 C   0  0  0  0  0  0  0  0  0  0  0  0
    2.9925   -7.2486    0.0000 C   0  0  0  0  0  0  0  0  0  0  0  0
    3.6999   -7.6731    0.0000 C   0  0  0  0  0  0  0  0  0  0  0  0
    4.4212   -7.2726    0.0000 C   0  0  0  0  0  0  0  0  0  0  0  0
    2.2989   -5.9993    0.0000 O   0  0  0  0  0  0  0  0  0  0  0  0
    1.5776   -6.3997    0.0000 C   0  0  0  0  0  0  0  0  0  0  0  0
    2.2712   -7.6491    0.0000 O   0  0  0  0  0  0  0  0  0  0  0  0
    3.6860   -8.4980    0.0000 O   0  0  0  0  0  0  0  0  0  0  0  0
    2.9647   -8.8984    0.0000 C   0  0  0  0  0  0  0  0  0  0  0  0
   10.1362   -7.3686    0.0000 C   0  0  0  0  0  0  0  0  0  0  0  0
   10.8436   -7.7931    0.0000 C   0  0  0  0  0  0  0  0  0  0  0  0
   11.5649   -7.3927    0.0000 C   0  0  0  0  0  0  0  0  0  0  0  0
   11.5788   -6.5678    0.0000 C   0  0  0  0  0  0  0  0  0  0  0  0
   10.8713   -6.1433    0.0000 C   0  0  0  0  0  0  0  0  0  0  0  0
   12.2723   -7.8171    0.0000 O   0  0  0  0  0  0  0  0  0  0  0  0
   12.3001   -6.1673    0.0000 O   0  0  0  0  0  0  0  0  0  0  0  0
   13.0075   -6.5918    0.0000 C   0  0  0  0  0  0  0  0  0  0  0  0
  1  2  1  0  0  0  0
  2  3  1  0  0  0  0
  3  4  1  0  0  0  0
  4  5  1  0  0  0  0
  5  6  1  0  0  0  0
  6  7  1  0  0  0  0
  7  8  1  0  0  0  0
  8  9  1  0  0  0  0
  4 10  2  0  0  0  0
  6 11  1  0  0  0  0
  1 12  2  0  0  0  0
 12 13  1  0  0  0  0
 13 14  2  0  0  0  0
 14 15  1  0  0  0  0
 15 16  2  0  0  0  0
 16  1  1  0  0  0  0
 13 17  1  0  0  0  0
 17 18  1  0  0  0  0
 14 19  1  0  0  0  0
 15 20  1  0  0  0  0
 20 21  1  0  0  0  0
  9 22  2  0  0  0  0
 22 23  1  0  0  0  0
 23 24  2  0  0  0  0
 24 25  1  0  0  0  0
 25 26  2  0  0  0  0
 26  9  1  0  0  0  0
 24 27  1  0  0  0  0
 25 28  1  0  0  0  0
 28 29  1  0  0  0  0
M  END
>  <cdx:fragmentId>
96

$$$$
