94985.cdx
  Mrv1902 05222410232D          

 28 31  0  0  0  0            999 V2000
    3.9581   -7.5900    0.0000 C   0  0  0  0  0  0  0  0  0  0  0  0
    3.9581   -8.4150    0.0000 C   0  0  0  0  0  0  0  0  0  0  0  0
    4.6725   -8.8275    0.0000 C   0  0  0  0  0  0  0  0  0  0  0  0
    5.3870   -8.4150    0.0000 C   0  0  0  0  0  0  0  0  0  0  0  0
    5.3870   -7.5900    0.0000 C   0  0  0  0  0  0  0  0  0  0  0  0
    4.6725   -7.1775    0.0000 C   0  0  0  0  0  0  0  0  0  0  0  0
    3.2436   -7.1775    0.0000 O   0  0  0  0  0  0  0  0  0  0  0  0
    2.5291   -7.5900    0.0000 C   0  0  0  0  0  0  0  0  0  0  0  0
    6.1015   -8.8275    0.0000 O   0  0  0  0  0  0  0  0  0  0  0  0
    6.8159   -8.4150    0.0000 C   0  0  0  0  0  0  0  0  0  0  0  0
    6.8159   -7.5900    0.0000 C   0  0  2  0  0  0  0  0  0  0  0  0
    6.1015   -7.1775    0.0000 C   0  0  1  0  0  0  0  0  0  0  0  0
    7.5304   -7.1775    0.0000 C   0  0  2  0  0  0  0  0  0  0  0  0
    8.2449   -7.5900    0.0000 C   0  0  1  0  0  0  0  0  0  0  0  0
    8.9594   -7.1775    0.0000 C   0  0  0  0  0  0  0  0  0  0  0  0
    8.9594   -6.3525    0.0000 C   0  0  0  0  0  0  0  0  0  0  0  0
    8.2449   -5.9400    0.0000 O   0  0  0  0  0  0  0  0  0  0  0  0
    7.5304   -6.3525    0.0000 C   0  0  0  0  0  0  0  0  0  0  0  0
    9.6738   -7.5900    0.0000 C   0  0  0  0  0  0  0  0  0  0  0  0
   10.3883   -7.1775    0.0000 C   0  0  0  0  0  0  0  0  0  0  0  0
   10.3883   -6.3525    0.0000 C   0  0  0  0  0  0  0  0  0  0  0  0
    9.6738   -5.9400    0.0000 C   0  0  0  0  0  0  0  0  0  0  0  0
   11.1028   -7.5900    0.0000 O   0  0  0  0  0  0  0  0  0  0  0  0
   11.8172   -7.1775    0.0000 C   0  0  0  0  0  0  0  0  0  0  0  0
    6.1015   -6.3525    0.0000 O   0  0  0  0  0  0  0  0  0  0  0  0
    7.5304   -8.0025    0.0000 H   0  0  0  0  0  0  0  0  0  0  0  0
    6.8159   -6.7650    0.0000 H   0  0  0  0  0  0  0  0  0  0  0  0
    8.2449   -8.4150    0.0000 O   0  0  0  0  0  0  0  0  0  0  0  0
  1  2  2  0  0  0  0
  2  3  1  0  0  0  0
  3  4  2  0  0  0  0
  4  5  1  0  0  0  0
  5  6  2  0  0  0  0
  6  1  1  0  0  0  0
  1  7  1  0  0  0  0
  7  8  1  0  0  0  0
  4  9  1  0  0  0  0
  9 10  1  0  0  0  0
 10 11  1  0  0  0  0
 11 12  1  0  0  0  0
 12  5  1  0  0  0  0
 11 13  1  0  0  0  0
 13 14  1  0  0  0  0
 14 15  1  0  0  0  0
 15 16  2  0  0  0  0
 16 17  1  0  0  0  0
 17 18  1  0  0  0  0
 18 13  1  0  0  0  0
 15 19  1  0  0  0  0
 19 20  2  0  0  0  0
 20 21  1  0  0  0  0
 21 22  2  0  0  0  0
 22 16  1  0  0  0  0
 20 23  1  0  0  0  0
 23 24  1  0  0  0  0
 12 25  1  6  0  0  0
 13 26  1  6  0  0  0
 11 27  1  1  0  0  0
 14 28  1  1  0  0  0
M  END
>  <cdx:fragmentId>
5

$$$$
