94980.cdx
  Mrv1902 05222410252D          

 29 30  0  0  0  0            999 V2000
    7.0455   -6.8422    0.0000 C   0  0  0  0  0  0  0  0  0  0  0  0
    7.7599   -6.4297    0.0000 C   0  0  0  0  0  0  0  0  0  0  0  0
    8.4744   -6.8422    0.0000 C   0  0  0  0  0  0  0  0  0  0  0  0
    9.1889   -6.4297    0.0000 C   0  0  0  0  0  0  0  0  0  0  0  0
    9.9033   -6.8422    0.0000 C   0  0  0  0  0  0  0  0  0  0  0  0
   10.6178   -6.4297    0.0000 C   0  0  0  0  0  0  0  0  0  0  0  0
   11.3323   -6.8422    0.0000 C   0  0  0  0  0  0  0  0  0  0  0  0
   11.3323   -7.6672    0.0000 C   0  0  0  0  0  0  0  0  0  0  0  0
   10.6178   -8.0797    0.0000 C   0  0  0  0  0  0  0  0  0  0  0  0
    9.9033   -7.6672    0.0000 C   0  0  0  0  0  0  0  0  0  0  0  0
   12.0468   -6.4297    0.0000 O   0  0  0  0  0  0  0  0  0  0  0  0
   12.7612   -6.8422    0.0000 C   0  0  0  0  0  0  0  0  0  0  0  0
   12.0468   -8.0797    0.0000 O   0  0  0  0  0  0  0  0  0  0  0  0
    7.7599   -5.6047    0.0000 O   0  0  0  0  0  0  0  0  0  0  0  0
    5.6165   -4.3672    0.0000 C   0  0  0  0  0  0  0  0  0  0  0  0
    4.9020   -5.6047    0.0000 O   0  0  0  0  0  0  0  0  0  0  0  0
    5.6165   -5.1922    0.0000 C   0  0  0  0  0  0  0  0  0  0  0  0
    6.3310   -5.6047    0.0000 O   0  0  0  0  0  0  0  0  0  0  0  0
    3.4731   -8.9047    0.0000 O   0  0  0  0  0  0  0  0  0  0  0  0
    2.0442   -8.0797    0.0000 O   0  0  0  0  0  0  0  0  0  0  0  0
    3.4731   -6.4297    0.0000 C   0  0  0  0  0  0  0  0  0  0  0  0
    2.7586   -6.8422    0.0000 C   0  0  0  0  0  0  0  0  0  0  0  0
    2.7586   -7.6672    0.0000 C   0  0  0  0  0  0  0  0  0  0  0  0
    3.4731   -8.0797    0.0000 C   0  0  0  0  0  0  0  0  0  0  0  0
    4.1876   -7.6672    0.0000 C   0  0  0  0  0  0  0  0  0  0  0  0
    4.1876   -6.8422    0.0000 C   0  0  0  0  0  0  0  0  0  0  0  0
    6.3310   -6.4297    0.0000 C   0  0  0  0  0  0  0  0  0  0  0  0
    5.6165   -6.8422    0.0000 C   0  0  0  0  0  0  0  0  0  0  0  0
    4.9020   -6.4297    0.0000 C   0  0  0  0  0  0  0  0  0  0  0  0
 27 18  1  0  0  0  0
 18 17  1  0  0  0  0
 17 15  1  0  0  0  0
 17 16  2  0  0  0  0
 29 26  1  0  0  0  0
 24 19  1  0  0  0  0
 23 20  1  0  0  0  0
 26 21  2  0  0  0  0
 22 21  1  0  0  0  0
 23 22  2  0  0  0  0
 24 23  1  0  0  0  0
 25 24  2  0  0  0  0
 26 25  1  0  0  0  0
 28 27  1  0  0  0  0
 29 28  1  0  0  0  0
 27  1  1  0  0  0  0
  1  2  1  0  0  0  0
  2  3  1  0  0  0  0
  3  4  1  0  0  0  0
  5  6  1  0  0  0  0
  6  7  2  0  0  0  0
  7  8  1  0  0  0  0
  8  9  2  0  0  0  0
  9 10  1  0  0  0  0
  5 10  2  0  0  0  0
 11 12  1  0  0  0  0
  7 11  1  0  0  0  0
  8 13  1  0  0  0  0
  4  5  1  0  0  0  0
  2 14  1  0  0  0  0
M  END
>  <cdx:groupId>
90

>  <cdx:fragmentId>
19

$$$$
