94983.cdx
  Mrv1902 05222410252D          

 32 33  0  0  0  0            999 V2000
    6.7564   -8.6710    0.0000 C   0  0  0  0  0  0  0  0  0  0  0  0
    7.4709   -8.2585    0.0000 C   0  0  0  0  0  0  0  0  0  0  0  0
    8.1854   -8.6710    0.0000 C   0  0  0  0  0  0  0  0  0  0  0  0
    8.8999   -8.2585    0.0000 C   0  0  0  0  0  0  0  0  0  0  0  0
    9.6143   -8.6710    0.0000 C   0  0  0  0  0  0  0  0  0  0  0  0
    9.6143   -9.4960    0.0000 C   0  0  0  0  0  0  0  0  0  0  0  0
   10.3288   -9.9085    0.0000 C   0  0  0  0  0  0  0  0  0  0  0  0
   11.0433   -9.4960    0.0000 C   0  0  0  0  0  0  0  0  0  0  0  0
   11.0433   -8.6710    0.0000 C   0  0  0  0  0  0  0  0  0  0  0  0
   10.3288   -8.2585    0.0000 C   0  0  0  0  0  0  0  0  0  0  0  0
   11.7577   -8.2585    0.0000 O   0  0  0  0  0  0  0  0  0  0  0  0
   12.4722   -8.6710    0.0000 C   0  0  0  0  0  0  0  0  0  0  0  0
   11.7577   -9.9085    0.0000 O   0  0  0  0  0  0  0  0  0  0  0  0
   10.3288  -10.7335    0.0000 O   0  0  0  0  0  0  0  0  0  0  0  0
    7.4709   -7.4335    0.0000 O   0  0  0  0  0  0  0  0  0  0  0  0
    5.3275   -6.1960    0.0000 C   0  0  0  0  0  0  0  0  0  0  0  0
    4.6130   -7.4335    0.0000 O   0  0  0  0  0  0  0  0  0  0  0  0
    5.3275   -7.0210    0.0000 C   0  0  0  0  0  0  0  0  0  0  0  0
    6.0420   -7.4335    0.0000 O   0  0  0  0  0  0  0  0  0  0  0  0
    3.1841  -10.7335    0.0000 O   0  0  0  0  0  0  0  0  0  0  0  0
    1.7551   -9.9085    0.0000 O   0  0  0  0  0  0  0  0  0  0  0  0
    1.0407   -8.6710    0.0000 C   0  0  0  0  0  0  0  0  0  0  0  0
    1.7551   -8.2585    0.0000 O   0  0  0  0  0  0  0  0  0  0  0  0
    3.1841   -8.2585    0.0000 C   0  0  0  0  0  0  0  0  0  0  0  0
    2.4696   -8.6710    0.0000 C   0  0  0  0  0  0  0  0  0  0  0  0
    2.4696   -9.4960    0.0000 C   0  0  0  0  0  0  0  0  0  0  0  0
    3.1841   -9.9085    0.0000 C   0  0  0  0  0  0  0  0  0  0  0  0
    3.8986   -9.4960    0.0000 C   0  0  0  0  0  0  0  0  0  0  0  0
    3.8986   -8.6710    0.0000 C   0  0  0  0  0  0  0  0  0  0  0  0
    6.0420   -8.2585    0.0000 C   0  0  0  0  0  0  0  0  0  0  0  0
    5.3275   -8.6710    0.0000 C   0  0  0  0  0  0  0  0  0  0  0  0
    4.6130   -8.2585    0.0000 C   0  0  0  0  0  0  0  0  0  0  0  0
 30 19  1  0  0  0  0
 19 18  1  0  0  0  0
 18 16  1  0  0  0  0
 18 17  2  0  0  0  0
 32 29  1  0  0  0  0
 27 20  1  0  0  0  0
 26 21  1  0  0  0  0
 25 23  1  0  0  0  0
 23 22  1  0  0  0  0
 29 24  2  0  0  0  0
 25 24  1  0  0  0  0
 26 25  2  0  0  0  0
 27 26  1  0  0  0  0
 28 27  2  0  0  0  0
 29 28  1  0  0  0  0
 31 30  1  0  0  0  0
 32 31  1  0  0  0  0
 30  1  1  0  0  0  0
  1  2  1  0  0  0  0
  2  3  1  0  0  0  0
  3  4  1  0  0  0  0
  5  6  1  0  0  0  0
  6  7  2  0  0  0  0
  7  8  1  0  0  0  0
  8  9  2  0  0  0  0
  9 10  1  0  0  0  0
  5 10  2  0  0  0  0
 11 12  1  0  0  0  0
  9 11  1  0  0  0  0
  8 13  1  0  0  0  0
  7 14  1  0  0  0  0
  4  5  1  0  0  0  0
  2 15  1  0  0  0  0
M  END
>  <cdx:groupId>
99

>  <cdx:fragmentId>
19

$$$$
