94996.cdx
  Mrv1902 05222410242D          

 21 23  0  0  0  0            999 V2000
    5.7667   -9.9635    0.0000 C   0  0  0  0  0  0  0  0  0  0  0  0
    5.0522   -9.5510    0.0000 C   0  0  0  0  0  0  0  0  0  0  0  0
    5.0522   -8.7260    0.0000 C   0  0  0  0  0  0  0  0  0  0  0  0
    5.7667   -8.3135    0.0000 C   0  0  0  0  0  0  0  0  0  0  0  0
    6.4812   -8.7260    0.0000 C   0  0  0  0  0  0  0  0  0  0  0  0
    7.1956   -8.3135    0.0000 C   0  0  0  0  0  0  0  0  0  0  0  0
    7.1956   -7.4885    0.0000 C   0  0  0  0  0  0  0  0  0  0  0  0
    7.9101   -7.0760    0.0000 C   0  0  0  0  0  0  0  0  0  0  0  0
    8.6246   -7.4885    0.0000 C   0  0  0  0  0  0  0  0  0  0  0  0
    8.6246   -8.3135    0.0000 C   0  0  0  0  0  0  0  0  0  0  0  0
    7.9101   -8.7260    0.0000 C   0  0  0  0  0  0  0  0  0  0  0  0
    7.9101   -9.5510    0.0000 C   0  0  0  0  0  0  0  0  0  0  0  0
    7.1956   -9.9635    0.0000 C   0  0  0  0  0  0  0  0  0  0  0  0
    6.4812   -9.5510    0.0000 C   0  0  0  0  0  0  0  0  0  0  0  0
    6.4812   -7.0760    0.0000 C   0  0  0  0  0  0  0  0  0  0  0  0
    5.7667   -7.4885    0.0000 C   0  0  0  0  0  0  0  0  0  0  0  0
    5.7667  -10.7885    0.0000 C   0  0  0  0  0  0  0  0  0  0  0  0
    4.3378   -9.9635    0.0000 O   0  0  0  0  0  0  0  0  0  0  0  0
    9.3391   -7.0760    0.0000 C   0  0  0  0  0  0  0  0  0  0  0  0
    9.3391   -6.2510    0.0000 O   0  0  0  0  0  0  0  0  0  0  0  0
   10.0535   -7.4885    0.0000 O   0  0  0  0  0  0  0  0  0  0  0  0
  1  2  1  0  0  0  0
  2  3  2  0  0  0  0
  3  4  1  0  0  0  0
  4  5  2  0  0  0  0
  5  6  1  0  0  0  0
  6  7  1  0  0  0  0
  7  8  2  0  0  0  0
  8  9  1  0  0  0  0
  9 10  2  0  0  0  0
 10 11  1  0  0  0  0
  6 11  2  0  0  0  0
 11 12  1  0  0  0  0
 12 13  1  0  0  0  0
 13 14  1  0  0  0  0
  1 14  2  0  0  0  0
  5 14  1  0  0  0  0
 15 16  2  0  0  0  0
  7 15  1  0  0  0  0
  1 17  1  0  0  0  0
  2 18  1  0  0  0  0
 19 20  2  0  0  0  0
 19 21  1  0  0  0  0
  9 19  1  0  0  0  0
M  END
>  <cdx:groupId>
67

>  <cdx:fragmentId>
5

$$$$
