94999.cdx
  Mrv1902 05222410202D          

 32 33  0  0  0  0            999 V2000
   10.0105   -9.4341    0.0000 C   0  0  0  0  0  0  0  0  0  0  0  0
   10.7250   -9.0216    0.0000 C   0  0  0  0  0  0  0  0  0  0  0  0
   11.4395   -9.4341    0.0000 C   0  0  0  0  0  0  0  0  0  0  0  0
    9.2961   -9.0216    0.0000 C   0  0  0  0  0  0  0  0  0  0  0  0
    9.2961   -8.1966    0.0000 O   0  0  0  0  0  0  0  0  0  0  0  0
    8.5816   -9.4341    0.0000 O   0  0  0  0  0  0  0  0  0  0  0  0
   12.1539   -9.0216    0.0000 C   0  0  0  0  0  0  0  0  0  0  0  0
   12.1539   -8.1966    0.0000 O   0  0  0  0  0  0  0  0  0  0  0  0
   12.8684   -9.4341    0.0000 O   0  0  0  0  0  0  0  0  0  0  0  0
   10.7250   -9.8466    0.0000 O   0  0  0  0  0  0  0  0  0  0  0  0
    7.8671   -9.0216    0.0000 C   0  0  0  0  0  0  0  0  0  0  0  0
    7.1526   -9.4341    0.0000 C   0  0  0  0  0  0  0  0  0  0  0  0
    7.1526  -10.2591    0.0000 C   0  0  0  0  0  0  0  0  0  0  0  0
    6.4382  -10.6716    0.0000 C   0  0  0  0  0  0  0  0  0  0  0  0
    5.7237  -10.2591    0.0000 C   0  0  0  0  0  0  0  0  0  0  0  0
    5.7237   -9.4341    0.0000 C   0  0  0  0  0  0  0  0  0  0  0  0
    6.4382   -9.0216    0.0000 C   0  0  0  0  0  0  0  0  0  0  0  0
    3.5909  -11.5147    0.0000 O   0  0  0  0  0  0  0  0  0  0  0  0
    2.1516  -10.7080    0.0000 O   0  0  0  0  0  0  0  0  0  0  0  0
    2.1306   -9.0581    0.0000 O   0  0  0  0  0  0  0  0  0  0  0  0
    2.8292   -7.8116    0.0000 O   0  0  0  0  0  0  0  0  0  0  0  0
    3.5489   -8.2150    0.0000 C   0  0  0  0  0  0  0  0  0  0  0  0
    3.5594   -9.0399    0.0000 C   0  0  2  0  0  0  0  0  0  0  0  0
    2.8502   -9.4615    0.0000 C   0  0  2  0  0  0  0  0  0  0  0  0
    2.8607  -10.2864    0.0000 C   0  0  1  0  0  0  0  0  0  0  0  0
    3.5804  -10.6898    0.0000 C   0  0  2  0  0  0  0  0  0  0  0  0
    4.2896  -10.2682    0.0000 C   0  0  1  0  0  0  0  0  0  0  0  0
    4.2791   -9.4433    0.0000 O   0  0  0  0  0  0  0  0  0  0  0  0
    5.0092  -10.6716    0.0000 O   0  0  0  0  0  0  0  0  0  0  0  0
   10.0105   -7.7841    0.0000 O   0  0  0  0  0  0  0  0  0  0  0  0
   11.4395   -7.7841    0.0000 O   0  0  0  0  0  0  0  0  0  0  0  0
   10.7250   -8.1966    0.0000 C   0  0  0  0  0  0  0  0  0  0  0  0
 27 29  1  1  0  0  0
 26 18  1  6  0  0  0
 25 19  1  1  0  0  0
 24 20  1  6  0  0  0
 23 22  1  1  0  0  0
 22 21  1  0  0  0  0
 28 23  1  0  0  0  0
 24 23  1  0  0  0  0
 25 24  1  0  0  0  0
 26 25  1  0  0  0  0
 27 26  1  0  0  0  0
 28 27  1  0  0  0  0
 32 30  1  0  0  0  0
  1  2  1  0  0  0  0
  2  3  1  0  0  0  0
  4  5  2  0  0  0  0
  4  6  1  0  0  0  0
  1  4  1  0  0  0  0
 32 31  2  0  0  0  0
  2 32  1  0  0  0  0
  7  8  2  0  0  0  0
  7  9  1  0  0  0  0
  3  7  1  0  0  0  0
  2 10  1  0  0  0  0
 12 13  1  0  0  0  0
 13 14  2  0  0  0  0
 14 15  1  0  0  0  0
 15 16  2  0  0  0  0
 16 17  1  0  0  0  0
 12 17  2  0  0  0  0
 15 29  1  0  0  0  0
 11 12  1  0  0  0  0
  6 11  1  0  0  0  0
M  END
>  <cdx:fragmentId>
3377

$$$$
