94991.cdx
  Mrv1902 05222410232D          

 13 13  0  0  0  0            999 V2000
    4.1231   -6.4763    0.0000 C   0  0  0  0  0  0  0  0  0  0  0  0
    4.1231   -7.3012    0.0000 C   0  0  0  0  0  0  0  0  0  0  0  0
    4.8375   -7.7138    0.0000 C   0  0  0  0  0  0  0  0  0  0  0  0
    5.5520   -7.3012    0.0000 C   0  0  0  0  0  0  0  0  0  0  0  0
    5.5520   -6.4763    0.0000 C   0  0  0  0  0  0  0  0  0  0  0  0
    4.8375   -6.0638    0.0000 C   0  0  0  0  0  0  0  0  0  0  0  0
    6.2665   -6.0637    0.0000 C   0  0  1  0  0  0  0  0  0  0  0  0
    6.9809   -6.4762    0.0000 C   0  0  1  0  0  0  0  0  0  0  0  0
    7.6954   -6.0637    0.0000 N   0  0  0  0  0  0  0  0  0  0  0  0
    8.4099   -6.4762    0.0000 C   0  0  0  0  0  0  0  0  0  0  0  0
    7.6954   -5.2387    0.0000 C   0  0  0  0  0  0  0  0  0  0  0  0
    6.9809   -7.3012    0.0000 C   0  0  0  0  0  0  0  0  0  0  0  0
    6.2665   -5.2387    0.0000 O   0  0  0  0  0  0  0  0  0  0  0  0
  1  2  2  0  0  0  0
  2  3  1  0  0  0  0
  3  4  2  0  0  0  0
  4  5  1  0  0  0  0
  5  6  2  0  0  0  0
  6  1  1  0  0  0  0
  5  7  1  0  0  0  0
  7  8  1  0  0  0  0
  8  9  1  1  0  0  0
  9 10  1  0  0  0  0
  9 11  1  0  0  0  0
  8 12  1  0  0  0  0
  7 13  1  6  0  0  0
M  END
>  <cdx:fragmentId>
5

$$$$
