94990.cdx
  Mrv1902 05222410232D          

 31 33  0  0  0  0            999 V2000
    7.7135   -5.5635    0.0000 C   0  0  0  0  0  0  0  0  0  0  0  0
    7.7135   -6.3885    0.0000 C   0  0  0  0  0  0  0  0  0  0  0  0
    6.9990   -6.8010    0.0000 C   0  0  0  0  0  0  0  0  0  0  0  0
    6.9990   -7.6260    0.0000 O   0  0  0  0  0  0  0  0  0  0  0  0
    6.2845   -6.3885    0.0000 C   0  0  0  0  0  0  0  0  0  0  0  0
    5.5701   -6.8010    0.0000 C   0  0  0  0  0  0  0  0  0  0  0  0
    4.8556   -6.3885    0.0000 C   0  0  0  0  0  0  0  0  0  0  0  0
    4.8556   -5.5635    0.0000 C   0  0  0  0  0  0  0  0  0  0  0  0
    5.5701   -5.1510    0.0000 C   0  0  0  0  0  0  0  0  0  0  0  0
    6.2845   -5.5635    0.0000 C   0  0  0  0  0  0  0  0  0  0  0  0
    6.9990   -5.1510    0.0000 O   0  0  0  0  0  0  0  0  0  0  0  0
    8.4280   -5.1510    0.0000 C   0  0  0  0  0  0  0  0  0  0  0  0
    9.1424   -5.5635    0.0000 C   0  0  0  0  0  0  0  0  0  0  0  0
    9.8569   -5.1510    0.0000 C   0  0  0  0  0  0  0  0  0  0  0  0
    9.8569   -4.3260    0.0000 C   0  0  0  0  0  0  0  0  0  0  0  0
    9.1424   -3.9135    0.0000 C   0  0  0  0  0  0  0  0  0  0  0  0
    8.4280   -4.3260    0.0000 C   0  0  0  0  0  0  0  0  0  0  0  0
    5.5701   -4.3260    0.0000 O   0  0  0  0  0  0  0  0  0  0  0  0
    4.8556   -3.9135    0.0000 C   0  0  0  0  0  0  0  0  0  0  0  0
    4.1411   -5.1510    0.0000 O   0  0  0  0  0  0  0  0  0  0  0  0
    3.4267   -5.5635    0.0000 C   0  0  0  0  0  0  0  0  0  0  0  0
    4.1411   -6.8010    0.0000 O   0  0  0  0  0  0  0  0  0  0  0  0
    3.4267   -6.3885    0.0000 C   0  0  0  0  0  0  0  0  0  0  0  0
    5.5701   -7.6260    0.0000 O   0  0  0  0  0  0  0  0  0  0  0  0
    4.8556   -8.0385    0.0000 C   0  0  0  0  0  0  0  0  0  0  0  0
   10.5714   -3.9135    0.0000 O   0  0  0  0  0  0  0  0  0  0  0  0
   11.2858   -4.3260    0.0000 C   0  0  0  0  0  0  0  0  0  0  0  0
   10.5714   -5.5635    0.0000 O   0  0  0  0  0  0  0  0  0  0  0  0
   11.2858   -5.1510    0.0000 C   0  0  0  0  0  0  0  0  0  0  0  0
    8.4280   -6.8010    0.0000 O   0  0  0  0  0  0  0  0  0  0  0  0
    9.1424   -6.3885    0.0000 C   0  0  0  0  0  0  0  0  0  0  0  0
  1  2  2  0  0  0  0
  2  3  1  0  0  0  0
  3  4  2  0  0  0  0
  3  5  1  0  0  0  0
  5  6  1  0  0  0  0
  6  7  2  0  0  0  0
  7  8  1  0  0  0  0
  8  9  2  0  0  0  0
  9 10  1  0  0  0  0
  5 10  2  0  0  0  0
 10 11  1  0  0  0  0
  1 11  1  0  0  0  0
  1 12  1  0  0  0  0
 12 13  1  0  0  0  0
 13 14  2  0  0  0  0
 14 15  1  0  0  0  0
 15 16  2  0  0  0  0
 16 17  1  0  0  0  0
 12 17  2  0  0  0  0
 18 19  1  0  0  0  0
  9 18  1  0  0  0  0
 20 21  1  0  0  0  0
  8 20  1  0  0  0  0
 22 23  1  0  0  0  0
  7 22  1  0  0  0  0
 24 25  1  0  0  0  0
  6 24  1  0  0  0  0
 26 27  1  0  0  0  0
 15 26  1  0  0  0  0
 28 29  1  0  0  0  0
 14 28  1  0  0  0  0
 30 31  1  0  0  0  0
  2 30  1  0  0  0  0
M  END
>  <cdx:fragmentId>
899

$$$$
