94997.cdx
  Mrv1902 05222410252D          

 16 18  0  0  0  0            999 V2000
    6.5563   -6.0918    0.0000 C   0  0  0  0  0  0  0  0  0  0  0  0
    6.1438   -6.8062    0.0000 C   0  0  1  0  0  0  0  0  0  0  0  0
    6.5563   -7.5207    0.0000 C   0  0  0  0  0  0  0  0  0  0  0  0
    7.3813   -7.5207    0.0000 C   0  0  2  0  0  0  0  0  0  0  0  0
    7.7938   -6.8062    0.0000 C   0  0  1  0  0  0  0  0  0  0  0  0
    7.3813   -6.0918    0.0000 C   0  0  0  0  0  0  0  0  0  0  0  0
    6.1438   -8.2352    0.0000 C   0  0  0  0  0  0  0  0  0  0  0  0
    6.5563   -8.9497    0.0000 C   0  0  0  0  0  0  0  0  0  0  0  0
    7.3813   -8.9497    0.0000 C   0  0  2  0  0  0  0  0  0  0  0  0
    7.7938   -8.2352    0.0000 C   0  0  1  0  0  0  0  0  0  0  0  0
    8.2063   -8.9497    0.0000 C   0  0  0  0  0  0  0  0  0  0  0  0
    8.4198   -9.7466    0.0000 C   0  0  0  0  0  0  0  0  0  0  0  0
    9.0032   -8.7361    0.0000 C   0  0  0  0  0  0  0  0  0  0  0  0
    8.6188   -6.8062    0.0000 C   0  0  0  0  0  0  0  0  0  0  0  0
    8.2063   -7.5207    0.0000 C   0  0  0  0  0  0  0  0  0  0  0  0
    5.3188   -6.8062    0.0000 O   0  0  0  0  0  0  0  0  0  0  0  0
  1  2  1  0  0  0  0
  2  3  1  0  0  0  0
  3  4  1  0  0  0  0
  4  5  1  0  0  0  0
  5  6  1  0  0  0  0
  6  1  1  0  0  0  0
  3  7  2  0  0  0  0
  7  8  1  0  0  0  0
  8  9  1  0  0  0  0
  9 10  1  0  0  0  0
 10  4  1  0  0  0  0
  9 11  1  6  0  0  0
 10 11  1  6  0  0  0
 11 12  1  0  0  0  0
 11 13  1  0  0  0  0
  5 14  1  1  0  0  0
  4 15  1  1  0  0  0
  2 16  1  1  0  0  0
M  END
>  <cdx:fragmentId>
66

$$$$
