94992.cdx
  Mrv1902 05222410242D          

 35 38  0  0  0  0            999 V2000
    5.7410   -6.8888    0.0000 C   0  0  2  0  0  0  0  0  0  0  0  0
    5.7410   -7.7138    0.0000 C   0  0  1  0  0  0  0  0  0  0  0  0
    6.3860   -8.2281    0.0000 C   0  0  2  0  0  0  0  0  0  0  0  0
    7.1903   -8.0445    0.0000 C   0  0  0  0  0  0  0  0  0  0  0  0
    7.5482   -7.3012    0.0000 C   0  0  2  0  0  0  0  0  0  0  0  0
    7.1903   -6.5580    0.0000 C   0  0  0  0  0  0  0  0  0  0  0  0
    6.3860   -6.3744    0.0000 C   0  0  0  0  0  0  0  0  0  0  0  0
    4.9563   -6.6338    0.0000 C   0  0  0  0  0  0  0  0  0  0  0  0
    4.4714   -7.3012    0.0000 C   0  0  1  0  0  0  0  0  0  0  0  0
    4.9563   -7.9687    0.0000 C   0  0  0  0  0  0  0  0  0  0  0  0
    3.6464   -7.3012    0.0000 H   0  0  0  0  0  0  0  0  0  0  0  0
    5.5274   -6.0919    0.0000 H   0  0  0  0  0  0  0  0  0  0  0  0
    5.5274   -8.5106    0.0000 H   0  0  0  0  0  0  0  0  0  0  0  0
    6.3120   -9.0498    0.0000 O   0  0  0  0  0  0  0  0  0  0  0  0
    7.0706   -9.3741    0.0000 C   0  0  0  0  0  0  0  0  0  0  0  0
    7.6134   -8.7528    0.0000 C   0  0  1  0  0  0  0  0  0  0  0  0
    8.3732   -7.3012    0.0000 O   0  0  0  0  0  0  0  0  0  0  0  0
    8.4351   -8.8267    0.0000 C   0  0  0  0  0  0  0  0  0  0  0  0
    6.2024   -5.5701    0.0000 C   0  0  0  0  0  0  0  0  0  0  0  0
    4.7014   -8.7533    0.0000 C   0  0  0  0  0  0  0  0  0  0  0  0
    7.2542  -10.1784    0.0000 O   0  0  0  0  0  0  0  0  0  0  0  0
    9.0870   -6.8850    0.0000 C   0  0  1  0  0  0  0  0  0  0  0  0
    9.8012   -7.2979    0.0000 C   0  0  1  0  0  0  0  0  0  0  0  0
   10.5160   -6.8858    0.0000 C   0  0  2  0  0  0  0  0  0  0  0  0
   10.5165   -6.0608    0.0000 C   0  0  1  0  0  0  0  0  0  0  0  0
    9.8022   -5.6479    0.0000 C   0  0  2  0  0  0  0  0  0  0  0  0
    9.0875   -6.0600    0.0000 O   0  0  0  0  0  0  0  0  0  0  0  0
    9.8027   -4.8229    0.0000 C   0  0  0  0  0  0  0  0  0  0  0  0
   11.2302   -7.2988    0.0000 O   0  0  0  0  0  0  0  0  0  0  0  0
    9.8007   -8.1229    0.0000 O   0  0  0  0  0  0  0  0  0  0  0  0
   11.2312   -5.6488    0.0000 O   0  0  0  0  0  0  0  0  0  0  0  0
   10.5175   -4.4108    0.0000 O   0  0  0  0  0  0  0  0  0  0  0  0
   10.5180   -3.5858    0.0000 C   0  0  0  0  0  0  0  0  0  0  0  0
   11.2327   -3.1738    0.0000 C   0  0  0  0  0  0  0  0  0  0  0  0
    9.8037   -3.1729    0.0000 O   0  0  0  0  0  0  0  0  0  0  0  0
  1  2  1  0  0  0  0
  2  3  1  0  0  0  0
  3  4  1  0  0  0  0
  4  5  1  0  0  0  0
  5  6  1  0  0  0  0
  6  7  1  0  0  0  0
  7  1  1  0  0  0  0
  1  8  1  0  0  0  0
  8  9  1  0  0  0  0
  9 10  1  0  0  0  0
 10  2  1  0  0  0  0
  9 11  1  6  0  0  0
  1 12  1  6  0  0  0
  2 13  1  6  0  0  0
  3 14  1  6  0  0  0
 14 15  1  0  0  0  0
 15 16  1  0  0  0  0
 16  4  1  0  0  0  0
  5 17  1  6  0  0  0
 16 18  1  6  0  0  0
  7 19  2  0  0  0  0
 10 20  2  0  0  0  0
 15 21  2  0  0  0  0
 22 23  1  0  0  0  0
 23 24  1  0  0  0  0
 24 25  1  0  0  0  0
 25 26  1  0  0  0  0
 26 27  1  0  0  0  0
 27 22  1  0  0  0  0
 26 28  1  6  0  0  0
 24 29  1  6  0  0  0
 23 30  1  1  0  0  0
 25 31  1  1  0  0  0
 28 32  1  0  0  0  0
 32 33  1  0  0  0  0
 33 34  1  0  0  0  0
 33 35  2  0  0  0  0
 22 17  1  6  0  0  0
M  END
>  <cdx:fragmentId>
5

$$$$
