94998.cdx
  Mrv1902 05222410212D          

 56 61  0  0  0  0            999 V2000
    4.8445   -4.9585    0.0000 C   0  0  0  0  0  0  0  0  0  0  0  0
    4.8445   -5.7835    0.0000 C   0  0  0  0  0  0  0  0  0  0  0  0
    4.1300   -6.1960    0.0000 C   0  0  0  0  0  0  0  0  0  0  0  0
    4.1300   -7.0210    0.0000 O   0  0  0  0  0  0  0  0  0  0  0  0
    3.4155   -5.7835    0.0000 C   0  0  0  0  0  0  0  0  0  0  0  0
    2.7011   -6.1960    0.0000 C   0  0  0  0  0  0  0  0  0  0  0  0
    2.7011   -7.0210    0.0000 O   0  0  0  0  0  0  0  0  0  0  0  0
    1.9866   -5.7835    0.0000 C   0  0  0  0  0  0  0  0  0  0  0  0
    1.9866   -4.9585    0.0000 C   0  0  0  0  0  0  0  0  0  0  0  0
    1.2721   -4.5460    0.0000 O   0  0  0  0  0  0  0  0  0  0  0  0
    2.7011   -4.5460    0.0000 C   0  0  0  0  0  0  0  0  0  0  0  0
    3.4155   -4.9585    0.0000 C   0  0  0  0  0  0  0  0  0  0  0  0
    4.1300   -4.5460    0.0000 O   0  0  0  0  0  0  0  0  0  0  0  0
    5.5590   -4.5460    0.0000 C   0  0  0  0  0  0  0  0  0  0  0  0
    5.5590   -3.7210    0.0000 C   0  0  0  0  0  0  0  0  0  0  0  0
    6.2734   -3.3085    0.0000 C   0  0  0  0  0  0  0  0  0  0  0  0
    6.9879   -3.7210    0.0000 C   0  0  0  0  0  0  0  0  0  0  0  0
    7.7024   -3.3085    0.0000 O   0  0  0  0  0  0  0  0  0  0  0  0
    6.9879   -4.5460    0.0000 C   0  0  0  0  0  0  0  0  0  0  0  0
    6.2734   -4.9585    0.0000 C   0  0  0  0  0  0  0  0  0  0  0  0
    5.5590   -6.1960    0.0000 O   0  0  0  0  0  0  0  0  0  0  0  0
    5.5590   -7.0210    0.0000 C   0  0  1  0  0  0  0  0  0  0  0  0
    6.2734   -7.4335    0.0000 C   0  0  2  0  0  0  0  0  0  0  0  0
    6.9879   -7.0210    0.0000 O   0  0  0  0  0  0  0  0  0  0  0  0
    6.2734   -8.2585    0.0000 C   0  0  1  0  0  0  0  0  0  0  0  0
    6.9879   -8.6710    0.0000 O   0  0  0  0  0  0  0  0  0  0  0  0
    5.5590   -8.6710    0.0000 C   0  0  1  0  0  0  0  0  0  0  0  0
    5.5590   -9.4960    0.0000 O   0  0  0  0  0  0  0  0  0  0  0  0
    4.8445   -8.2585    0.0000 C   0  0  2  0  0  0  0  0  0  0  0  0
    4.8445   -7.4335    0.0000 O   0  0  0  0  0  0  0  0  0  0  0  0
    4.1300   -8.6710    0.0000 C   0  0  0  0  0  0  0  0  0  0  0  0
    3.4155   -8.2585    0.0000 O   0  0  0  0  0  0  0  0  0  0  0  0
    7.7024   -7.4335    0.0000 C   0  0  1  0  0  0  0  0  0  0  0  0
    8.4168   -7.0210    0.0000 C   0  0  2  0  0  0  0  0  0  0  0  0
    8.4168   -6.1960    0.0000 O   0  0  0  0  0  0  0  0  0  0  0  0
    9.1313   -7.4335    0.0000 C   0  0  1  0  0  0  0  0  0  0  0  0
    9.8458   -7.0210    0.0000 O   0  0  0  0  0  0  0  0  0  0  0  0
    9.1313   -8.2585    0.0000 C   0  0  2  0  0  0  0  0  0  0  0  0
    9.8458   -8.6710    0.0000 O   0  0  0  0  0  0  0  0  0  0  0  0
    8.4168   -8.6710    0.0000 C   0  0  2  0  0  0  0  0  0  0  0  0
    7.7024   -8.2585    0.0000 O   0  0  0  0  0  0  0  0  0  0  0  0
    8.4168   -9.4960    0.0000 C   0  0  0  0  0  0  0  0  0  0  0  0
    9.1313   -9.9085    0.0000 O   0  0  0  0  0  0  0  0  0  0  0  0
    9.1313  -10.7335    0.0000 C   0  0  0  0  0  0  0  0  0  0  0  0
    9.8458  -11.1460    0.0000 C   0  0  0  0  0  0  0  0  0  0  0  0
    9.8458  -11.9710    0.0000 C   0  0  0  0  0  0  0  0  0  0  0  0
   10.5603  -12.3835    0.0000 C   0  0  0  0  0  0  0  0  0  0  0  0
   11.2747  -11.9710    0.0000 C   0  0  0  0  0  0  0  0  0  0  0  0
   11.9892  -12.3835    0.0000 C   0  0  0  0  0  0  0  0  0  0  0  0
   12.7037  -11.9710    0.0000 O   0  0  0  0  0  0  0  0  0  0  0  0
   13.4181  -12.3835    0.0000 C   0  0  0  0  0  0  0  0  0  0  0  0
   11.9892  -13.2085    0.0000 C   0  0  0  0  0  0  0  0  0  0  0  0
   12.7037  -13.6210    0.0000 O   0  0  0  0  0  0  0  0  0  0  0  0
   11.2747  -13.6210    0.0000 C   0  0  0  0  0  0  0  0  0  0  0  0
   10.5603  -13.2085    0.0000 C   0  0  0  0  0  0  0  0  0  0  0  0
    8.4168  -11.1460    0.0000 O   0  0  0  0  0  0  0  0  0  0  0  0
  1  2  2  0  0  0  0
  2  3  1  0  0  0  0
  3  4  2  0  0  0  0
  3  5  1  0  0  0  0
  5  6  1  0  0  0  0
  6  7  1  0  0  0  0
  6  8  2  0  0  0  0
  8  9  1  0  0  0  0
  9 10  1  0  0  0  0
  9 11  2  0  0  0  0
 11 12  1  0  0  0  0
  5 12  2  0  0  0  0
 12 13  1  0  0  0  0
  1 13  1  0  0  0  0
  1 14  1  0  0  0  0
 14 15  1  0  0  0  0
 15 16  2  0  0  0  0
 16 17  1  0  0  0  0
 17 18  1  0  0  0  0
 17 19  2  0  0  0  0
 19 20  1  0  0  0  0
 14 20  2  0  0  0  0
 22 21  1  1  0  0  0
 22 23  1  0  0  0  0
 23 24  1  6  0  0  0
 23 25  1  0  0  0  0
 25 26  1  1  0  0  0
 25 27  1  0  0  0  0
 27 28  1  1  0  0  0
 27 29  1  0  0  0  0
 29 30  1  0  0  0  0
 29 31  1  1  0  0  0
 31 32  1  0  0  0  0
 22 30  1  0  0  0  0
 33 34  1  0  0  0  0
 34 35  1  6  0  0  0
 34 36  1  0  0  0  0
 36 37  1  1  0  0  0
 36 38  1  0  0  0  0
 38 39  1  6  0  0  0
 38 40  1  0  0  0  0
 40 41  1  0  0  0  0
 40 42  1  1  0  0  0
 42 43  1  0  0  0  0
 33 41  1  0  0  0  0
 44 45  1  0  0  0  0
 45 46  2  0  0  0  0
 46 47  1  0  0  0  0
 47 48  1  0  0  0  0
 48 49  2  0  0  0  0
 49 50  1  0  0  0  0
 50 51  1  0  0  0  0
 49 52  1  0  0  0  0
 52 53  1  0  0  0  0
 52 54  2  0  0  0  0
 54 55  1  0  0  0  0
 47 55  2  0  0  0  0
 44 56  2  0  0  0  0
 43 44  1  0  0  0  0
 33 24  1  1  0  0  0
  2 21  1  0  0  0  0
M  END
>  <cdx:groupId>
175

>  <cdx:fragmentId>
91

$$$$
