95006.cdx
  Mrv1902 05222410192D          

 18 20  0  0  0  0            999 V2000
    8.5744   -7.2914    0.0000 N   0  0  0  0  0  0  0  0  0  0  0  0
    9.2889   -7.7039    0.0000 C   0  0  0  0  0  0  0  0  0  0  0  0
    9.2889   -8.5289    0.0000 N   0  0  0  0  0  0  0  0  0  0  0  0
    8.5744   -8.9414    0.0000 C   0  0  0  0  0  0  0  0  0  0  0  0
    7.8599   -8.5289    0.0000 C   0  0  0  0  0  0  0  0  0  0  0  0
    7.1455   -8.9414    0.0000 C   0  0  0  0  0  0  0  0  0  0  0  0
    6.4310   -8.5289    0.0000 C   0  0  0  0  0  0  0  0  0  0  0  0
    6.4310   -7.7039    0.0000 C   0  0  0  0  0  0  0  0  0  0  0  0
    7.1455   -7.2914    0.0000 C   0  0  0  0  0  0  0  0  0  0  0  0
    7.8599   -7.7039    0.0000 C   0  0  0  0  0  0  0  0  0  0  0  0
    5.7165   -8.9414    0.0000 N   0  0  0  0  0  0  0  0  0  0  0  0
    5.7165   -7.2914    0.0000 N   0  0  0  0  0  0  0  0  0  0  0  0
    5.0020   -7.7039    0.0000 C   0  0  0  0  0  0  0  0  0  0  0  0
    5.0020   -8.5289    0.0000 C   0  0  0  0  0  0  0  0  0  0  0  0
   10.0033   -7.2914    0.0000 O   0  0  0  0  0  0  0  0  0  0  0  0
    8.5744   -9.7664    0.0000 O   0  0  0  0  0  0  0  0  0  0  0  0
    4.2876   -7.2914    0.0000 C   0  0  0  0  0  0  0  0  0  0  0  0
    4.2876   -8.9414    0.0000 C   0  0  0  0  0  0  0  0  0  0  0  0
  1  2  1  0  0  0  0
  2  3  1  0  0  0  0
  3  4  1  0  0  0  0
  4  5  1  0  0  0  0
  5  6  2  0  0  0  0
  6  7  1  0  0  0  0
  7  8  1  0  0  0  0
  8  9  1  0  0  0  0
  9 10  2  0  0  0  0
  1 10  1  0  0  0  0
  5 10  1  0  0  0  0
 12 13  1  0  0  0  0
 13 14  2  0  0  0  0
 11 14  1  0  0  0  0
 11  7  2  0  0  0  0
 12  8  2  0  0  0  0
  2 15  2  0  0  0  0
  4 16  2  0  0  0  0
 13 17  1  0  0  0  0
 14 18  1  0  0  0  0
M  END
>  <cdx:groupId>
58

>  <cdx:fragmentId>
5

$$$$
