95008.cdx
  Mrv1902 05222410282D          

 36 39  0  0  0  0            999 V2000
    3.6541  -10.8727    0.0000 C   0  0  1  0  0  0  0  0  0  0  0  0
    3.6541  -10.0477    0.0000 C   0  0  0  0  0  0  0  0  0  0  0  0
    4.3685   -9.6352    0.0000 C   0  0  0  0  0  0  0  0  0  0  0  0
    4.3685  -11.2852    0.0000 C   0  0  2  0  0  0  0  0  0  0  0  0
    4.7810  -11.9997    0.0000 C   0  0  0  0  0  0  0  0  0  0  0  0
    3.9560  -11.9997    0.0000 C   0  0  0  0  0  0  0  0  0  0  0  0
    5.0830  -10.8727    0.0000 C   0  0  0  0  0  0  0  0  0  0  0  0
    5.7975  -11.2852    0.0000 C   0  0  0  0  0  0  0  0  0  0  0  0
    6.5119  -10.8727    0.0000 C   0  0  0  0  0  0  0  0  0  0  0  0
    6.5119  -10.0477    0.0000 C   0  0  1  0  0  0  0  0  0  0  0  0
    6.5119   -9.2227    0.0000 C   0  0  0  0  0  0  0  0  0  0  0  0
    7.2264   -9.6352    0.0000 C   0  0  2  0  0  0  0  0  0  0  0  0
    7.2264  -10.4602    0.0000 C   0  0  0  0  0  0  0  0  0  0  0  0
    8.0110   -9.8902    0.0000 C   0  0  0  0  0  0  0  0  0  0  0  0
    8.4960   -9.2227    0.0000 C   0  0  0  0  0  0  0  0  0  0  0  0
    8.0110   -8.5553    0.0000 C   0  0  2  0  0  0  0  0  0  0  0  0
    8.2660   -7.7707    0.0000 C   0  0  1  0  0  0  0  0  0  0  0  0
    9.0729   -7.5992    0.0000 C   0  0  0  0  0  0  0  0  0  0  0  0
    9.3279   -6.8145    0.0000 C   0  0  0  0  0  0  0  0  0  0  0  0
   10.1349   -6.6430    0.0000 C   0  0  0  0  0  0  0  0  0  0  0  0
   10.3898   -5.8584    0.0000 C   0  0  0  0  0  0  0  0  0  0  0  0
    9.6052   -5.6034    0.0000 C   0  0  0  0  0  0  0  0  0  0  0  0
   10.2183   -5.0514    0.0000 C   0  0  0  0  0  0  0  0  0  0  0  0
    8.0944   -6.9637    0.0000 C   0  0  0  0  0  0  0  0  0  0  0  0
    7.2264   -8.8102    0.0000 C   0  0  1  0  0  0  0  0  0  0  0  0
    7.2264   -7.9852    0.0000 H   0  0  0  0  0  0  0  0  0  0  0  0
    6.5119   -8.3977    0.0000 C   0  0  0  0  0  0  0  0  0  0  0  0
    5.7975   -8.8102    0.0000 C   0  0  0  0  0  0  0  0  0  0  0  0
    5.7975   -9.6352    0.0000 C   0  0  2  0  0  0  0  0  0  0  0  0
    5.0830  -10.0477    0.0000 C   0  0  1  0  0  0  0  0  0  0  0  0
    5.0830   -9.2227    0.0000 C   0  0  0  0  0  0  0  0  0  0  0  0
    2.9396  -11.2852    0.0000 O   0  0  0  0  0  0  0  0  0  0  0  0
    7.4814   -7.5157    0.0000 O   0  0  0  0  0  0  0  0  0  0  0  0
   11.1968   -5.6869    0.0000 O   0  0  0  0  0  0  0  0  0  0  0  0
   11.4517   -4.9022    0.0000 O   0  0  0  0  0  0  0  0  0  0  0  0
    5.7975  -10.4602    0.0000 H   0  0  0  0  0  0  0  0  0  0  0  0
  1  2  1  0  0  0  0
  2  3  1  0  0  0  0
  1  4  1  0  0  0  0
  4  5  1  6  0  0  0
  4  6  1  1  0  0  0
  4  7  1  0  0  0  0
  7  8  1  0  0  0  0
  8  9  1  0  0  0  0
  9 10  1  0  0  0  0
 10 11  1  1  0  0  0
 10 12  1  0  0  0  0
 12 13  1  6  0  0  0
 12 14  1  0  0  0  0
 14 15  1  0  0  0  0
 16 15  1  1  0  0  0
 16 17  1  0  0  0  0
 17 18  1  0  0  0  0
 18 19  1  0  0  0  0
 19 20  2  0  0  0  0
 20 21  1  0  0  0  0
 21 22  1  0  0  0  0
 21 23  1  0  0  0  0
 17 24  1  6  0  0  0
 16 25  1  0  0  0  0
 12 25  1  0  0  0  0
 25 26  1  1  0  0  0
 25 27  1  0  0  0  0
 27 28  1  0  0  0  0
 28 29  1  0  0  0  0
 10 29  1  0  0  0  0
 29 30  1  0  0  0  0
  3 30  1  0  0  0  0
  7 30  1  0  0  0  0
 30 31  1  1  0  0  0
  1 32  1  1  0  0  0
 17 33  1  1  0  0  0
 34 35  1  0  0  0  0
 21 34  1  0  0  0  0
 29 36  1  6  0  0  0
M  END
>  <cdx:groupId>
113

>  <cdx:fragmentId>
5

$$$$
