95003.cdx
  Mrv1902 05222410192D          

 16 15  0  0  0  0            999 V2000
    8.2674   -8.2654    0.0000 C   0  0  0  0  0  0  0  0  0  0  0  0
    7.5529   -8.6779    0.0000 C   0  0  0  0  0  0  0  0  0  0  0  0
    6.8384   -8.2654    0.0000 C   0  0  0  0  0  0  0  0  0  0  0  0
    6.1239   -8.6779    0.0000 C   0  0  0  0  0  0  0  0  0  0  0  0
    5.4095   -8.2654    0.0000 C   0  0  0  0  0  0  0  0  0  0  0  0
    4.6950   -8.6779    0.0000 C   0  0  0  0  0  0  0  0  0  0  0  0
    3.9805   -8.2654    0.0000 C   0  0  0  0  0  0  0  0  0  0  0  0
    3.2661   -8.6779    0.0000 C   0  0  0  0  0  0  0  0  0  0  0  0
    3.2661   -9.5029    0.0000 C   0  0  0  0  0  0  0  0  0  0  0  0
    8.2674   -7.4404    0.0000 O   0  0  0  0  0  0  0  0  0  0  0  0
    8.9818   -8.6779    0.0000 N   0  0  0  0  0  0  0  0  0  0  0  0
    2.5516   -8.2654    0.0000 C   0  0  0  0  0  0  0  0  0  0  0  0
    9.6963   -8.2654    0.0000 C   0  0  0  0  0  0  0  0  0  0  0  0
   10.4108   -8.6779    0.0000 C   0  0  0  0  0  0  0  0  0  0  0  0
   11.1252   -8.2654    0.0000 C   0  0  0  0  0  0  0  0  0  0  0  0
   11.8397   -8.6779    0.0000 C   0  0  0  0  0  0  0  0  0  0  0  0
  1  2  1  0  0  0  0
  2  3  1  0  0  0  0
  3  4  1  0  0  0  0
  4  5  1  0  0  0  0
  5  6  1  0  0  0  0
  6  7  1  0  0  0  0
  7  8  1  0  0  0  0
  8  9  1  0  0  0  0
  1 10  2  0  0  0  0
  1 11  1  0  0  0  0
  8 12  1  0  0  0  0
 13 14  1  0  0  0  0
 14 15  1  0  0  0  0
 15 16  1  0  0  0  0
 11 13  1  0  0  0  0
M  END
>  <cdx:groupId>
49

>  <cdx:fragmentId>
5

$$$$
