95002.cdx
  Mrv1902 05222410192D          

 15 14  0  0  0  0            999 V2000
    7.9101   -8.5577    0.0000 C   0  0  0  0  0  0  0  0  0  0  0  0
    7.1956   -8.9702    0.0000 C   0  0  0  0  0  0  0  0  0  0  0  0
    6.4812   -8.5577    0.0000 C   0  0  0  0  0  0  0  0  0  0  0  0
    5.7667   -8.9702    0.0000 C   0  0  0  0  0  0  0  0  0  0  0  0
    5.0522   -8.5577    0.0000 C   0  0  0  0  0  0  0  0  0  0  0  0
    4.3378   -8.9702    0.0000 C   0  0  0  0  0  0  0  0  0  0  0  0
    3.6233   -8.5577    0.0000 C   0  0  0  0  0  0  0  0  0  0  0  0
    3.6233   -7.7327    0.0000 C   0  0  0  0  0  0  0  0  0  0  0  0
    7.9101   -7.7327    0.0000 O   0  0  0  0  0  0  0  0  0  0  0  0
    8.6246   -8.9702    0.0000 N   0  0  0  0  0  0  0  0  0  0  0  0
    2.9088   -8.9702    0.0000 C   0  0  0  0  0  0  0  0  0  0  0  0
    9.3391   -8.5577    0.0000 C   0  0  0  0  0  0  0  0  0  0  0  0
   10.0535   -8.9702    0.0000 C   0  0  0  0  0  0  0  0  0  0  0  0
   10.7680   -8.5577    0.0000 C   0  0  0  0  0  0  0  0  0  0  0  0
   11.4825   -8.9702    0.0000 C   0  0  0  0  0  0  0  0  0  0  0  0
  1  2  1  0  0  0  0
  2  3  1  0  0  0  0
  3  4  1  0  0  0  0
  4  5  1  0  0  0  0
  5  6  1  0  0  0  0
  6  7  1  0  0  0  0
  7  8  1  0  0  0  0
  1  9  2  0  0  0  0
  1 10  1  0  0  0  0
  7 11  1  0  0  0  0
 12 13  1  0  0  0  0
 13 14  1  0  0  0  0
 14 15  1  0  0  0  0
 10 12  1  0  0  0  0
M  END
>  <cdx:groupId>
266

>  <cdx:fragmentId>
225

$$$$
