95015.cdx
  Mrv1902 05222410202D          

 80 88  0  0  0  0            999 V2000
   11.5433   -9.1533    0.0000 C   0  0  0  0  0  0  0  0  0  0  0  0
   10.8290   -9.5657    0.0000 C   0  0  0  0  0  0  0  0  0  0  0  0
   10.8290  -10.3904    0.0000 C   0  0  1  0  0  0  0  0  0  0  0  0
   11.5433  -10.8028    0.0000 C   0  0  2  0  0  0  0  0  0  0  0  0
   12.2575  -10.3904    0.0000 C   0  0  2  0  0  0  0  0  0  0  0  0
   12.9718  -10.8028    0.0000 C   0  0  0  0  0  0  0  0  0  0  0  0
   13.6860  -10.3904    0.0000 C   0  0  0  0  0  0  0  0  0  0  0  0
   13.6860   -9.5657    0.0000 C   0  0  1  0  0  0  0  0  0  0  0  0
   14.4003   -9.1533    0.0000 C   0  0  2  0  0  0  0  0  0  0  0  0
   15.1145   -9.5657    0.0000 C   0  0  0  0  0  0  0  0  0  0  0  0
   15.8288   -9.1533    0.0000 C   0  0  0  0  0  0  0  0  0  0  0  0
   15.8288   -8.3285    0.0000 C   0  0  1  0  0  0  0  0  0  0  0  0
   16.5430   -7.9162    0.0000 C   0  0  0  0  0  0  0  0  0  0  0  0
   16.5430   -7.0914    0.0000 C   0  0  1  0  0  0  0  0  0  0  0  0
   15.8288   -6.6791    0.0000 C   0  0  0  0  0  0  0  0  0  0  0  0
   15.1145   -7.0914    0.0000 C   0  0  0  0  0  0  0  0  0  0  0  0
   15.1145   -7.9162    0.0000 C   0  0  1  0  0  0  0  0  0  0  0  0
   14.4003   -8.3285    0.0000 C   0  0  0  0  0  0  0  0  0  0  0  0
   13.6860   -7.9162    0.0000 C   0  0  0  0  0  0  0  0  0  0  0  0
   12.9718   -8.3285    0.0000 C   0  0  0  0  0  0  0  0  0  0  0  0
   12.9718   -9.1533    0.0000 C   0  0  2  0  0  0  0  0  0  0  0  0
   12.2575   -9.5657    0.0000 C   0  0  1  0  0  0  0  0  0  0  0  0
   10.1148  -10.8028    0.0000 O   0  0  0  0  0  0  0  0  0  0  0  0
   17.2573   -6.6791    0.0000 O   0  0  0  0  0  0  0  0  0  0  0  0
   12.2575   -8.7409    0.0000 C   0  0  0  0  0  0  0  0  0  0  0  0
   15.4164   -5.9648    0.0000 C   0  0  0  0  0  0  0  0  0  0  0  0
   16.2411   -5.9648    0.0000 C   0  0  0  0  0  0  0  0  0  0  0  0
   16.5430   -8.7409    0.0000 C   0  0  0  0  0  0  0  0  0  0  0  0
   14.4003   -9.9780    0.0000 C   0  0  0  0  0  0  0  0  0  0  0  0
   13.6860   -8.7409    0.0000 C   0  0  0  0  0  0  0  0  0  0  0  0
   11.1309  -11.5170    0.0000 C   0  0  0  0  0  0  0  0  0  0  0  0
   11.9557  -11.5170    0.0000 C   0  0  0  0  0  0  0  0  0  0  0  0
   11.5433  -12.2313    0.0000 O   0  0  0  0  0  0  0  0  0  0  0  0
   12.2575  -11.2151    0.0000 H   0  0  0  0  0  0  0  0  0  0  0  0
   15.1145   -8.7409    0.0000 H   0  0  0  0  0  0  0  0  0  0  0  0
   12.9718   -9.9780    0.0000 H   0  0  0  0  0  0  0  0  0  0  0  0
   17.9715   -7.0914    0.0000 C   0  0  2  0  0  0  0  0  0  0  0  0
   17.9715   -7.9162    0.0000 O   0  0  0  0  0  0  0  0  0  0  0  0
   18.6858   -8.3285    0.0000 C   0  0  1  0  0  0  0  0  0  0  0  0
   19.4000   -7.9162    0.0000 C   0  0  2  0  0  0  0  0  0  0  0  0
   19.4000   -7.0914    0.0000 C   0  0  1  0  0  0  0  0  0  0  0  0
   18.6858   -6.6791    0.0000 C   0  0  1  0  0  0  0  0  0  0  0  0
   20.1142   -6.6791    0.0000 O   0  0  0  0  0  0  0  0  0  0  0  0
   18.6858   -9.1533    0.0000 C   0  0  0  0  0  0  0  0  0  0  0  0
   18.6858   -5.8543    0.0000 O   0  0  0  0  0  0  0  0  0  0  0  0
   20.1142   -8.3285    0.0000 O   0  0  0  0  0  0  0  0  0  0  0  0
   19.4000   -9.5657    0.0000 O   0  0  0  0  0  0  0  0  0  0  0  0
    7.9821   -9.5413    0.0000 C   0  0  1  0  0  0  0  0  0  0  0  0
    7.9821  -10.3661    0.0000 C   0  0  1  0  0  0  0  0  0  0  0  0
    8.6964  -10.7784    0.0000 C   0  0  2  0  0  0  0  0  0  0  0  0
    9.4106  -10.3661    0.0000 C   0  0  1  0  0  0  0  0  0  0  0  0
    9.4106   -9.5413    0.0000 O   0  0  0  0  0  0  0  0  0  0  0  0
    8.6964   -9.1290    0.0000 C   0  0  2  0  0  0  0  0  0  0  0  0
    8.6964   -8.3042    0.0000 C   0  0  0  0  0  0  0  0  0  0  0  0
    7.9821   -7.8919    0.0000 O   0  0  0  0  0  0  0  0  0  0  0  0
    9.4106   -7.8919    0.0000 O   0  0  0  0  0  0  0  0  0  0  0  0
    7.2679   -9.1290    0.0000 O   0  0  0  0  0  0  0  0  0  0  0  0
    7.2679  -10.7784    0.0000 O   0  0  0  0  0  0  0  0  0  0  0  0
    8.6964  -11.6032    0.0000 O   0  0  0  0  0  0  0  0  0  0  0  0
    7.9821  -12.0156    0.0000 C   0  0  2  0  0  0  0  0  0  0  0  0
    7.2679  -11.6032    0.0000 O   0  0  0  0  0  0  0  0  0  0  0  0
    6.5536  -12.0156    0.0000 C   0  0  1  0  0  0  0  0  0  0  0  0
    6.5536  -12.8403    0.0000 C   0  0  1  0  0  0  0  0  0  0  0  0
    7.2679  -13.2527    0.0000 C   0  0  1  0  0  0  0  0  0  0  0  0
    7.9821  -12.8403    0.0000 C   0  0  1  0  0  0  0  0  0  0  0  0
    5.8394  -11.6032    0.0000 C   0  0  0  0  0  0  0  0  0  0  0  0
    5.1249  -12.0157    0.0000 O   0  0  0  0  0  0  0  0  0  0  0  0
    5.8394  -13.2527    0.0000 O   0  0  0  0  0  0  0  0  0  0  0  0
    7.2679  -14.0774    0.0000 O   0  0  0  0  0  0  0  0  0  0  0  0
    8.6964  -13.2527    0.0000 O   0  0  0  0  0  0  0  0  0  0  0  0
    8.6964  -14.0774    0.0000 C   0  0  2  0  0  0  0  0  0  0  0  0
    7.9821  -14.4898    0.0000 O   0  0  0  0  0  0  0  0  0  0  0  0
    7.9821  -15.3145    0.0000 C   0  0  2  0  0  0  0  0  0  0  0  0
    8.6964  -15.7269    0.0000 C   0  0  1  0  0  0  0  0  0  0  0  0
    9.4106  -15.3145    0.0000 C   0  0  2  0  0  0  0  0  0  0  0  0
    9.4106  -14.4898    0.0000 C   0  0  1  0  0  0  0  0  0  0  0  0
   10.1248  -14.0774    0.0000 O   0  0  0  0  0  0  0  0  0  0  0  0
   10.1248  -15.7269    0.0000 O   0  0  0  0  0  0  0  0  0  0  0  0
    8.6964  -16.5516    0.0000 O   0  0  0  0  0  0  0  0  0  0  0  0
    7.2679  -15.7269    0.0000 C   0  0  0  0  0  0  0  0  0  0  0  0
  1  2  1  0  0  0  0
  2  3  1  0  0  0  0
  3  4  1  0  0  0  0
  4  5  1  0  0  0  0
  5  6  1  0  0  0  0
  6  7  1  0  0  0  0
  7  8  1  0  0  0  0
  8  9  1  0  0  0  0
  9 10  1  0  0  0  0
 10 11  1  0  0  0  0
 11 12  1  0  0  0  0
 12 13  1  0  0  0  0
 13 14  1  0  0  0  0
 14 15  1  0  0  0  0
 15 16  1  0  0  0  0
 16 17  1  0  0  0  0
 12 17  1  0  0  0  0
 17 18  1  0  0  0  0
  9 18  1  0  0  0  0
 18 19  2  0  0  0  0
 19 20  1  0  0  0  0
 20 21  1  0  0  0  0
  8 21  1  0  0  0  0
 21 22  1  0  0  0  0
  5 22  1  0  0  0  0
  1 22  1  0  0  0  0
  3 23  1  1  0  0  0
 14 24  1  1  0  0  0
 22 25  1  1  0  0  0
 15 26  1  0  0  0  0
 15 27  1  0  0  0  0
 12 28  1  1  0  0  0
  9 29  1  6  0  0  0
  8 30  1  1  0  0  0
  4 31  1  6  0  0  0
 32 33  1  0  0  0  0
  4 32  1  0  0  0  0
  5 34  1  6  0  0  0
 17 35  1  1  0  0  0
 21 36  1  6  0  0  0
 37 24  1  1  0  0  0
 37 38  1  0  0  0  0
 38 39  1  0  0  0  0
 39 40  1  0  0  0  0
 40 41  1  0  0  0  0
 41 42  1  0  0  0  0
 42 37  1  0  0  0  0
 41 43  1  1  0  0  0
 39 44  1  1  0  0  0
 42 45  1  6  0  0  0
 40 46  1  6  0  0  0
 44 47  1  0  0  0  0
 48 49  1  0  0  0  0
 49 50  1  0  0  0  0
 50 51  1  0  0  0  0
 51 52  1  0  0  0  0
 52 53  1  0  0  0  0
 53 48  1  0  0  0  0
 53 54  1  1  0  0  0
 54 55  1  0  0  0  0
 54 56  2  0  0  0  0
 48 57  1  6  0  0  0
 49 58  1  1  0  0  0
 50 59  1  6  0  0  0
 60 59  1  1  0  0  0
 60 61  1  0  0  0  0
 61 62  1  0  0  0  0
 62 63  1  0  0  0  0
 63 64  1  0  0  0  0
 64 65  1  0  0  0  0
 65 60  1  0  0  0  0
 62 66  1  1  0  0  0
 66 67  1  0  0  0  0
 63 68  1  1  0  0  0
 64 69  1  1  0  0  0
 65 70  1  6  0  0  0
 71 70  1  1  0  0  0
 71 72  1  0  0  0  0
 72 73  1  0  0  0  0
 73 74  1  0  0  0  0
 74 75  1  0  0  0  0
 75 76  1  0  0  0  0
 76 71  1  0  0  0  0
 76 77  1  6  0  0  0
 75 78  1  6  0  0  0
 74 79  1  1  0  0  0
 73 80  1  6  0  0  0
 51 23  1  1  0  0  0
M  END
>  <cdx:fragmentId>
5

$$$$
