95016.cdx
  Mrv1902 05222410192D          

 60 66  0  0  0  0            999 V2000
   11.0583   -4.1425    0.0000 C   0  0  0  0  0  0  0  0  0  0  0  0
   11.7728   -3.7300    0.0000 C   0  0  0  0  0  0  0  0  0  0  0  0
   12.4873   -4.1425    0.0000 C   0  0  2  0  0  0  0  0  0  0  0  0
   12.4873   -4.9675    0.0000 C   0  0  2  0  0  0  0  0  0  0  0  0
   11.7728   -5.3800    0.0000 C   0  0  2  0  0  0  0  0  0  0  0  0
   11.7728   -6.2050    0.0000 C   0  0  0  0  0  0  0  0  0  0  0  0
   11.0583   -6.6175    0.0000 C   0  0  0  0  0  0  0  0  0  0  0  0
   10.3439   -6.2050    0.0000 C   0  0  1  0  0  0  0  0  0  0  0  0
    9.6294   -6.6175    0.0000 C   0  0  2  0  0  0  0  0  0  0  0  0
    9.6294   -7.4425    0.0000 C   0  0  0  0  0  0  0  0  0  0  0  0
    8.9149   -7.8550    0.0000 C   0  0  0  0  0  0  0  0  0  0  0  0
    8.2005   -7.4425    0.0000 C   0  0  1  0  0  0  0  0  0  0  0  0
    7.4860   -7.8550    0.0000 C   0  0  1  0  0  0  0  0  0  0  0  0
    6.7715   -7.4425    0.0000 C   0  0  2  0  0  0  0  0  0  0  0  0
    6.7715   -6.6175    0.0000 C   0  0  0  0  0  0  0  0  0  0  0  0
    7.4860   -6.2050    0.0000 C   0  0  0  0  0  0  0  0  0  0  0  0
    8.2005   -6.6175    0.0000 C   0  0  2  0  0  0  0  0  0  0  0  0
    8.9149   -6.2050    0.0000 C   0  0  1  0  0  0  0  0  0  0  0  0
    8.9149   -5.3800    0.0000 C   0  0  0  0  0  0  0  0  0  0  0  0
    9.6294   -4.9675    0.0000 C   0  0  0  0  0  0  0  0  0  0  0  0
   10.3439   -5.3800    0.0000 C   0  0  0  0  0  0  0  0  0  0  0  0
   11.0583   -4.9675    0.0000 C   0  0  2  0  0  0  0  0  0  0  0  0
   13.2018   -3.7300    0.0000 O   0  0  0  0  0  0  0  0  0  0  0  0
   13.2018   -5.3800    0.0000 O   0  0  0  0  0  0  0  0  0  0  0  0
    6.0570   -7.8550    0.0000 O   0  0  0  0  0  0  0  0  0  0  0  0
    8.2005   -5.7925    0.0000 C   0  0  0  0  0  0  0  0  0  0  0  0
    7.0735   -8.5694    0.0000 C   0  0  0  0  0  0  0  0  0  0  0  0
   11.7728   -4.5550    0.0000 C   0  0  0  0  0  0  0  0  0  0  0  0
   11.3603   -3.0155    0.0000 C   0  0  0  0  0  0  0  0  0  0  0  0
   12.1853   -3.0155    0.0000 C   0  0  0  0  0  0  0  0  0  0  0  0
    7.8985   -8.5694    0.0000 C   0  0  0  0  0  0  0  0  0  0  0  0
    7.4860   -9.2839    0.0000 O   0  0  0  0  0  0  0  0  0  0  0  0
    8.2005   -8.2675    0.0000 H   0  0  0  0  0  0  0  0  0  0  0  0
   11.0583   -5.7925    0.0000 H   0  0  0  0  0  0  0  0  0  0  0  0
    9.6294   -5.7925    0.0000 C   0  0  0  0  0  0  0  0  0  0  0  0
   10.3439   -7.0300    0.0000 C   0  0  0  0  0  0  0  0  0  0  0  0
    8.9149   -7.0300    0.0000 H   0  0  0  0  0  0  0  0  0  0  0  0
    5.3426   -7.4425    0.0000 C   0  0  2  0  0  0  0  0  0  0  0  0
    5.3426   -6.6175    0.0000 O   0  0  0  0  0  0  0  0  0  0  0  0
    4.6281   -6.2050    0.0000 C   0  0  1  0  0  0  0  0  0  0  0  0
    3.9136   -6.6175    0.0000 C   0  0  2  0  0  0  0  0  0  0  0  0
    3.9136   -7.4425    0.0000 C   0  0  1  0  0  0  0  0  0  0  0  0
    4.6281   -7.8550    0.0000 C   0  0  1  0  0  0  0  0  0  0  0  0
    4.6281   -5.3800    0.0000 C   0  0  0  0  0  0  0  0  0  0  0  0
    3.1992   -7.8550    0.0000 O   0  0  0  0  0  0  0  0  0  0  0  0
    3.1992   -6.2050    0.0000 O   0  0  0  0  0  0  0  0  0  0  0  0
    4.6281   -8.6800    0.0000 O   0  0  0  0  0  0  0  0  0  0  0  0
    3.9136   -4.9675    0.0000 O   0  0  0  0  0  0  0  0  0  0  0  0
    5.3426   -4.9675    0.0000 O   0  0  0  0  0  0  0  0  0  0  0  0
    3.9136   -9.0925    0.0000 C   0  0  2  0  0  0  0  0  0  0  0  0
    3.1992   -8.6800    0.0000 O   0  0  0  0  0  0  0  0  0  0  0  0
    2.4847   -9.0925    0.0000 C   0  0  1  0  0  0  0  0  0  0  0  0
    2.4847   -9.9175    0.0000 C   0  0  1  0  0  0  0  0  0  0  0  0
    3.1992  -10.3300    0.0000 C   0  0  1  0  0  0  0  0  0  0  0  0
    3.9136   -9.9175    0.0000 C   0  0  1  0  0  0  0  0  0  0  0  0
    1.7702   -8.6800    0.0000 C   0  0  0  0  0  0  0  0  0  0  0  0
    1.7702  -10.3300    0.0000 O   0  0  0  0  0  0  0  0  0  0  0  0
    3.1992  -11.1550    0.0000 O   0  0  0  0  0  0  0  0  0  0  0  0
    4.6281  -10.3300    0.0000 O   0  0  0  0  0  0  0  0  0  0  0  0
    1.0557   -9.0925    0.0000 O   0  0  0  0  0  0  0  0  0  0  0  0
  1  2  1  0  0  0  0
  2  3  1  0  0  0  0
  3  4  1  0  0  0  0
  4  5  1  0  0  0  0
  5  6  1  0  0  0  0
  6  7  1  0  0  0  0
  7  8  1  0  0  0  0
  8  9  1  0  0  0  0
  9 10  1  0  0  0  0
 10 11  1  0  0  0  0
 11 12  1  0  0  0  0
 12 13  1  0  0  0  0
 13 14  1  0  0  0  0
 14 15  1  0  0  0  0
 15 16  1  0  0  0  0
 16 17  1  0  0  0  0
 12 17  1  0  0  0  0
 17 18  1  0  0  0  0
  9 18  1  0  0  0  0
 18 19  1  0  0  0  0
 19 20  1  0  0  0  0
 20 21  2  0  0  0  0
  8 21  1  0  0  0  0
 21 22  1  0  0  0  0
  5 22  1  0  0  0  0
  1 22  1  0  0  0  0
  3 23  1  1  0  0  0
  4 24  1  1  0  0  0
 14 25  1  1  0  0  0
 17 26  1  1  0  0  0
 13 27  1  6  0  0  0
  5 28  1  1  0  0  0
  2 29  1  0  0  0  0
  2 30  1  0  0  0  0
 31 32  1  0  0  0  0
 13 31  1  0  0  0  0
 12 33  1  6  0  0  0
 22 34  1  1  0  0  0
  9 35  1  1  0  0  0
  8 36  1  6  0  0  0
 18 37  1  6  0  0  0
 38 25  1  1  0  0  0
 38 39  1  0  0  0  0
 39 40  1  0  0  0  0
 40 41  1  0  0  0  0
 41 42  1  0  0  0  0
 42 43  1  0  0  0  0
 43 38  1  0  0  0  0
 40 44  1  1  0  0  0
 42 45  1  1  0  0  0
 41 46  1  6  0  0  0
 43 47  1  6  0  0  0
 44 48  1  0  0  0  0
 44 49  2  0  0  0  0
 50 47  1  1  0  0  0
 50 51  1  0  0  0  0
 51 52  1  0  0  0  0
 52 53  1  0  0  0  0
 53 54  1  0  0  0  0
 54 55  1  0  0  0  0
 55 50  1  0  0  0  0
 52 56  1  1  0  0  0
 53 57  1  1  0  0  0
 54 58  1  1  0  0  0
 55 59  1  6  0  0  0
 56 60  1  0  0  0  0
M  END
>  <cdx:fragmentId>
5

$$$$
