95017.cdx
  Mrv1902 05222410192D          

 69 76  0  0  0  0            999 V2000
   15.1048   -6.8440    0.0000 C   0  0  0  0  0  0  0  0  0  0  0  0
   15.8191   -6.4316    0.0000 C   0  0  0  0  0  0  0  0  0  0  0  0
   16.5333   -6.8440    0.0000 C   0  0  2  0  0  0  0  0  0  0  0  0
   16.5333   -7.6687    0.0000 C   0  0  2  0  0  0  0  0  0  0  0  0
   15.8191   -8.0811    0.0000 C   0  0  2  0  0  0  0  0  0  0  0  0
   15.8191   -8.9058    0.0000 C   0  0  0  0  0  0  0  0  0  0  0  0
   15.1048   -9.3182    0.0000 C   0  0  0  0  0  0  0  0  0  0  0  0
   14.3906   -8.9058    0.0000 C   0  0  1  0  0  0  0  0  0  0  0  0
   13.6763   -9.3182    0.0000 C   0  0  2  0  0  0  0  0  0  0  0  0
   13.6763  -10.1429    0.0000 C   0  0  0  0  0  0  0  0  0  0  0  0
   12.9621  -10.5553    0.0000 C   0  0  0  0  0  0  0  0  0  0  0  0
   12.2478  -10.1429    0.0000 C   0  0  1  0  0  0  0  0  0  0  0  0
   11.5336  -10.5553    0.0000 C   0  0  1  0  0  0  0  0  0  0  0  0
   10.8193  -10.1429    0.0000 C   0  0  2  0  0  0  0  0  0  0  0  0
   10.8193   -9.3182    0.0000 C   0  0  0  0  0  0  0  0  0  0  0  0
   11.5336   -8.9058    0.0000 C   0  0  0  0  0  0  0  0  0  0  0  0
   12.2478   -9.3182    0.0000 C   0  0  2  0  0  0  0  0  0  0  0  0
   12.9621   -8.9058    0.0000 C   0  0  1  0  0  0  0  0  0  0  0  0
   12.9621   -8.0811    0.0000 C   0  0  0  0  0  0  0  0  0  0  0  0
   13.6763   -7.6687    0.0000 C   0  0  0  0  0  0  0  0  0  0  0  0
   14.3906   -8.0811    0.0000 C   0  0  0  0  0  0  0  0  0  0  0  0
   15.1048   -7.6687    0.0000 C   0  0  2  0  0  0  0  0  0  0  0  0
   17.2475   -6.4316    0.0000 O   0  0  0  0  0  0  0  0  0  0  0  0
   10.1051  -10.5553    0.0000 O   0  0  0  0  0  0  0  0  0  0  0  0
   12.2478   -8.4935    0.0000 C   0  0  0  0  0  0  0  0  0  0  0  0
   11.1212  -11.2695    0.0000 C   0  0  0  0  0  0  0  0  0  0  0  0
   15.8191   -7.2561    0.0000 C   0  0  0  0  0  0  0  0  0  0  0  0
   15.4067   -5.7174    0.0000 C   0  0  0  0  0  0  0  0  0  0  0  0
   16.2314   -5.7174    0.0000 C   0  0  0  0  0  0  0  0  0  0  0  0
   11.9459  -11.2695    0.0000 C   0  0  0  0  0  0  0  0  0  0  0  0
   11.5336  -11.9838    0.0000 O   0  0  0  0  0  0  0  0  0  0  0  0
   12.2478  -10.9677    0.0000 H   0  0  0  0  0  0  0  0  0  0  0  0
   15.1048   -8.4935    0.0000 H   0  0  0  0  0  0  0  0  0  0  0  0
   13.6763   -8.4932    0.0000 C   0  0  0  0  0  0  0  0  0  0  0  0
   12.9621   -9.7308    0.0000 H   0  0  0  0  0  0  0  0  0  0  0  0
   14.3906   -9.7308    0.0000 C   0  0  0  0  0  0  0  0  0  0  0  0
   18.6760   -8.9058    0.0000 O   0  0  0  0  0  0  0  0  0  0  0  0
   18.6760  -10.5553    0.0000 O   0  0  0  0  0  0  0  0  0  0  0  0
   17.2475  -11.3800    0.0000 O   0  0  0  0  0  0  0  0  0  0  0  0
   16.5333   -9.3182    0.0000 O   0  0  0  0  0  0  0  0  0  0  0  0
   16.5333  -10.1429    0.0000 C   0  0  0  0  0  0  0  0  0  0  0  0
   17.2475  -10.5553    0.0000 C   0  0  1  0  0  0  0  0  0  0  0  0
   17.9618  -10.1429    0.0000 C   0  0  1  0  0  0  0  0  0  0  0  0
   17.9618   -9.3182    0.0000 C   0  0  2  0  0  0  0  0  0  0  0  0
   17.2475   -8.9058    0.0000 C   0  0  2  0  0  0  0  0  0  0  0  0
   17.2475   -8.0811    0.0000 O   0  0  0  0  0  0  0  0  0  0  0  0
    9.4066  -10.1511    0.0000 C   0  0  2  0  0  0  0  0  0  0  0  0
    9.4066   -9.3264    0.0000 O   0  0  0  0  0  0  0  0  0  0  0  0
    8.6923   -8.9140    0.0000 C   0  0  1  0  0  0  0  0  0  0  0  0
    7.9781   -9.3264    0.0000 C   0  0  2  0  0  0  0  0  0  0  0  0
    7.9781  -10.1511    0.0000 C   0  0  1  0  0  0  0  0  0  0  0  0
    8.6923  -10.5635    0.0000 C   0  0  1  0  0  0  0  0  0  0  0  0
    8.6923   -8.0893    0.0000 C   0  0  0  0  0  0  0  0  0  0  0  0
    7.2638  -10.5635    0.0000 O   0  0  0  0  0  0  0  0  0  0  0  0
    7.2638   -8.9140    0.0000 O   0  0  0  0  0  0  0  0  0  0  0  0
    8.6923  -11.3883    0.0000 O   0  0  0  0  0  0  0  0  0  0  0  0
    7.9781   -7.6769    0.0000 O   0  0  0  0  0  0  0  0  0  0  0  0
    9.4066   -7.6769    0.0000 O   0  0  0  0  0  0  0  0  0  0  0  0
    7.9781  -11.8006    0.0000 C   0  0  2  0  0  0  0  0  0  0  0  0
    7.2638  -11.3883    0.0000 O   0  0  0  0  0  0  0  0  0  0  0  0
    6.5496  -11.8006    0.0000 C   0  0  1  0  0  0  0  0  0  0  0  0
    6.5496  -12.6254    0.0000 C   0  0  1  0  0  0  0  0  0  0  0  0
    7.2638  -13.0377    0.0000 C   0  0  1  0  0  0  0  0  0  0  0  0
    7.9781  -12.6254    0.0000 C   0  0  1  0  0  0  0  0  0  0  0  0
    5.8353  -11.3883    0.0000 C   0  0  0  0  0  0  0  0  0  0  0  0
    5.8353  -13.0377    0.0000 O   0  0  0  0  0  0  0  0  0  0  0  0
    7.2638  -13.8625    0.0000 O   0  0  0  0  0  0  0  0  0  0  0  0
    8.6923  -13.0377    0.0000 O   0  0  0  0  0  0  0  0  0  0  0  0
    5.1211  -11.8006    0.0000 O   0  0  0  0  0  0  0  0  0  0  0  0
 44 37  1  6  0  0  0
  1  2  1  0  0  0  0
  2  3  1  0  0  0  0
  3  4  1  0  0  0  0
  4  5  1  0  0  0  0
  5  6  1  0  0  0  0
  6  7  1  0  0  0  0
  7  8  1  0  0  0  0
  8  9  1  0  0  0  0
  9 10  1  0  0  0  0
 10 11  1  0  0  0  0
 11 12  1  0  0  0  0
 12 13  1  0  0  0  0
 13 14  1  0  0  0  0
 14 15  1  0  0  0  0
 15 16  1  0  0  0  0
 16 17  1  0  0  0  0
 12 17  1  0  0  0  0
 17 18  1  0  0  0  0
  9 18  1  0  0  0  0
 18 19  1  0  0  0  0
 19 20  1  0  0  0  0
 20 21  2  0  0  0  0
  8 21  1  0  0  0  0
 21 22  1  0  0  0  0
  5 22  1  0  0  0  0
  1 22  1  0  0  0  0
  3 23  1  1  0  0  0
  4 46  1  1  0  0  0
 14 24  1  1  0  0  0
 17 25  1  1  0  0  0
 13 26  1  6  0  0  0
  5 27  1  1  0  0  0
  2 28  1  0  0  0  0
  2 29  1  0  0  0  0
 30 31  1  0  0  0  0
 13 30  1  0  0  0  0
 12 32  1  6  0  0  0
 22 33  1  1  0  0  0
  9 34  1  1  0  0  0
 18 35  1  6  0  0  0
  8 36  1  6  0  0  0
 43 38  1  1  0  0  0
 42 39  1  1  0  0  0
 40 45  1  0  0  0  0
 41 40  1  0  0  0  0
 42 41  1  0  0  0  0
 43 42  1  0  0  0  0
 44 43  1  0  0  0  0
 45 44  1  0  0  0  0
 45 46  1  1  0  0  0
 47 48  1  0  0  0  0
 48 49  1  0  0  0  0
 49 50  1  0  0  0  0
 50 51  1  0  0  0  0
 51 52  1  0  0  0  0
 52 47  1  0  0  0  0
 49 53  1  1  0  0  0
 51 54  1  1  0  0  0
 50 55  1  6  0  0  0
 52 56  1  6  0  0  0
 53 57  1  0  0  0  0
 53 58  2  0  0  0  0
 59 56  1  1  0  0  0
 59 60  1  0  0  0  0
 60 61  1  0  0  0  0
 61 62  1  0  0  0  0
 62 63  1  0  0  0  0
 63 64  1  0  0  0  0
 64 59  1  0  0  0  0
 61 65  1  1  0  0  0
 62 66  1  1  0  0  0
 63 67  1  1  0  0  0
 64 68  1  6  0  0  0
 65 69  1  0  0  0  0
 47 24  1  1  0  0  0
M  END
>  <cdx:fragmentId>
5

$$$$
