95010.cdx
  Mrv1902 05222410182D          

 42 42  0  0  0  0            999 V2000
    3.9046   -8.7935    0.0000 C   0  0  0  0  0  0  0  0  0  0  0  0
    3.1891   -8.3833    0.0000 C   0  0  0  0  0  0  0  0  0  0  0  0
    3.9071   -9.6182    0.0000 O   0  0  0  0  0  0  0  0  0  0  0  0
    4.6175   -8.3789    0.0000 O   0  0  0  0  0  0  0  0  0  0  0  0
    5.3330   -8.7891    0.0000 C   0  0  0  0  0  0  0  0  0  0  0  0
    6.0460   -8.3745    0.0000 C   0  0  0  0  0  0  0  0  0  0  0  0
    6.7615   -8.7847    0.0000 C   0  0  0  0  0  0  0  0  0  0  0  0
    7.4745   -8.3702    0.0000 C   0  0  0  0  0  0  0  0  0  0  0  0
    8.1900   -8.7803    0.0000 C   0  0  0  0  0  0  0  0  0  0  0  0
    8.9030   -8.3658    0.0000 C   0  0  0  0  0  0  0  0  0  0  0  0
    9.6185   -8.7759    0.0000 C   0  0  0  0  0  0  0  0  0  0  0  0
   10.3315   -8.3614    0.0000 C   0  0  0  0  0  0  0  0  0  0  0  0
   11.0470   -8.7716    0.0000 C   0  0  0  0  0  0  0  0  0  0  0  0
   11.7600   -8.3570    0.0000 C   0  0  0  0  0  0  0  0  0  0  0  0
   12.4755   -8.7672    0.0000 C   0  0  0  0  0  0  0  0  0  0  0  0
   13.1884   -8.3526    0.0000 C   0  0  0  0  0  0  0  0  0  0  0  0
   13.9040   -8.7628    0.0000 C   0  0  0  0  0  0  0  0  0  0  0  0
   14.6169   -8.3482    0.0000 C   0  0  0  0  0  0  0  0  0  0  0  0
   15.3324   -8.7584    0.0000 C   0  0  0  0  0  0  0  0  0  0  0  0
   16.0454   -8.3438    0.0000 C   0  0  0  0  0  0  0  0  0  0  0  0
   16.7609   -8.7540    0.0000 C   0  0  0  0  0  0  0  0  0  0  0  0
   17.4739   -8.3395    0.0000 C   0  0  0  0  0  0  0  0  0  0  0  0
   18.1894   -8.7496    0.0000 C   0  0  0  0  0  0  0  0  0  0  0  0
   18.9024   -8.3351    0.0000 C   0  0  0  0  0  0  0  0  0  0  0  0
   19.6179   -8.7452    0.0000 C   0  0  0  0  0  0  0  0  0  0  0  0
   20.3309   -8.3307    0.0000 C   0  0  0  0  0  0  0  0  0  0  0  0
   21.0464   -8.7409    0.0000 C   0  0  0  0  0  0  0  0  0  0  0  0
   21.7594   -8.3263    0.0000 C   0  0  0  0  0  0  0  0  0  0  0  0
   22.4749   -8.7365    0.0000 C   0  0  0  0  0  0  0  0  0  0  0  0
   23.1878   -8.3219    0.0000 C   0  0  0  0  0  0  0  0  0  0  0  0
   23.9034   -8.7321    0.0000 C   0  0  0  0  0  0  0  0  0  0  0  0
   24.6163   -8.3175    0.0000 C   0  0  0  0  0  0  0  0  0  0  0  0
   25.3318   -8.7277    0.0000 C   0  0  0  0  0  0  0  0  0  0  0  0
   26.0448   -8.3131    0.0000 C   0  0  0  0  0  0  0  0  0  0  0  0
    2.4758   -8.7980    0.0000 C   0  0  0  0  0  0  0  0  0  0  0  0
    2.4784   -9.6230    0.0000 C   0  0  0  0  0  0  0  0  0  0  0  0
    3.1982  -10.0262    0.0000 C   0  0  0  0  0  0  0  0  0  0  0  0
    3.2089  -10.8511    0.0000 C   0  0  0  0  0  0  0  0  0  0  0  0
    2.4999  -11.2729    0.0000 C   0  0  0  0  0  0  0  0  0  0  0  0
    1.7930  -10.8483    0.0000 C   0  0  0  0  0  0  0  0  0  0  0  0
    1.7950  -10.0020    0.0000 C   0  0  0  0  0  0  0  0  0  0  0  0
    2.4982  -12.0979    0.0000 O   0  0  0  0  0  0  0  0  0  0  0  0
  1  2  1  0  0  0  0
  1  3  2  0  0  0  0
  1  4  1  0  0  0  0
  5  6  1  0  0  0  0
  6  7  1  0  0  0  0
  7  8  1  0  0  0  0
  8  9  1  0  0  0  0
  9 10  1  0  0  0  0
 10 11  1  0  0  0  0
 11 12  1  0  0  0  0
 12 13  1  0  0  0  0
 13 14  1  0  0  0  0
 14 15  1  0  0  0  0
 15 16  1  0  0  0  0
 16 17  1  0  0  0  0
 17 18  1  0  0  0  0
 18 19  1  0  0  0  0
 19 20  1  0  0  0  0
 20 21  1  0  0  0  0
 21 22  1  0  0  0  0
 22 23  1  0  0  0  0
 23 24  1  0  0  0  0
 24 25  1  0  0  0  0
 25 26  1  0  0  0  0
 26 27  1  0  0  0  0
 27 28  1  0  0  0  0
 28 29  1  0  0  0  0
 29 30  1  0  0  0  0
 30 31  1  0  0  0  0
 31 32  1  0  0  0  0
 32 33  1  0  0  0  0
 33 34  1  0  0  0  0
  4  5  1  0  0  0  0
  2 35  2  0  0  0  0
 35 36  1  0  0  0  0
 36 37  2  0  0  0  0
 37 38  1  0  0  0  0
 38 39  2  0  0  0  0
 39 40  1  0  0  0  0
 40 41  2  0  0  0  0
 41 36  1  0  0  0  0
 39 42  1  0  0  0  0
M  END
>  <cdx:groupId>
128

>  <cdx:fragmentId>
29

$$$$
