95018.cdx
  Mrv1902 05222410262D          

 22 24  0  0  0  0            999 V2000
    7.6578   -9.5664    0.0000 C   0  0  0  0  0  0  0  0  0  0  0  0
    8.3721   -9.1536    0.0000 N   0  3  0  0  0  0  0  0  0  0  0  0
    8.3724   -8.3286    0.0000 C   0  0  0  0  0  0  0  0  0  0  0  0
    7.6583   -7.9154    0.0000 C   0  0  0  0  0  0  0  0  0  0  0  0
    6.9439   -8.3279    0.0000 C   0  0  0  0  0  0  0  0  0  0  0  0
    6.2294   -7.9154    0.0000 C   0  0  0  0  0  0  0  0  0  0  0  0
    5.5149   -8.3279    0.0000 C   0  0  0  0  0  0  0  0  0  0  0  0
    5.5149   -9.1529    0.0000 C   0  0  0  0  0  0  0  0  0  0  0  0
    6.2294   -9.5654    0.0000 C   0  0  0  0  0  0  0  0  0  0  0  0
    6.9439   -9.1529    0.0000 C   0  0  0  0  0  0  0  0  0  0  0  0
    9.0866   -9.5661    0.0000 C   0  0  0  0  0  0  0  0  0  0  0  0
    7.6574  -10.3914    0.0000 C   0  0  0  0  0  0  0  0  0  0  0  0
    8.3716  -10.8042    0.0000 C   0  0  0  0  0  0  0  0  0  0  0  0
    8.3710  -11.6292    0.0000 C   0  0  0  0  0  0  0  0  0  0  0  0
    9.0852  -12.0422    0.0000 C   0  0  0  0  0  0  0  0  0  0  0  0
    9.8000  -11.6292    0.0000 C   0  0  0  0  0  0  0  0  0  0  0  0
    9.8000  -10.8042    0.0000 C   0  0  0  0  0  0  0  0  0  0  0  0
    9.0852  -10.3912    0.0000 C   0  0  0  0  0  0  0  0  0  0  0  0
   10.5145  -12.0416    0.0000 O   0  0  0  0  0  0  0  0  0  0  0  0
    4.8004   -9.5654    0.0000 O   0  0  0  0  0  0  0  0  0  0  0  0
    4.0860   -9.1529    0.0000 C   0  0  0  0  0  0  0  0  0  0  0  0
    4.8004   -7.9154    0.0000 O   0  0  0  0  0  0  0  0  0  0  0  0
  1  2  2  0  0  0  0
  2  3  1  0  0  0  0
  3  4  1  0  0  0  0
  4  5  1  0  0  0  0
  5  6  2  0  0  0  0
  6  7  1  0  0  0  0
  7  8  2  0  0  0  0
  8  9  1  0  0  0  0
  9 10  2  0  0  0  0
  1 10  1  0  0  0  0
  5 10  1  0  0  0  0
  2 11  1  0  0  0  0
  1 12  1  0  0  0  0
 12 13  1  0  0  0  0
 13 14  2  0  0  0  0
 14 15  1  0  0  0  0
 15 16  2  0  0  0  0
 16 17  1  0  0  0  0
 17 18  2  0  0  0  0
 18 13  1  0  0  0  0
 16 19  1  0  0  0  0
  8 20  1  0  0  0  0
 20 21  1  0  0  0  0
  7 22  1  0  0  0  0
M  CHG  1   2   1
M  END
>  <cdx:fragmentId>
5

$$$$
