95026.cdx
  Mrv1902 05222410272D          

 80 89  0  0  0  0            999 V2000
   15.8136  -10.2795    0.0000 C   0  0  1  0  0  0  0  0  0  0  0  0
   16.5281   -9.8670    0.0000 C   0  0  2  0  0  0  0  0  0  0  0  0
   17.3127  -10.1219    0.0000 C   0  0  0  0  0  0  0  0  0  0  0  0
   17.7976   -9.4545    0.0000 C   0  0  2  0  0  0  0  0  0  0  0  0
   18.5823   -9.1995    0.0000 O   0  0  0  0  0  0  0  0  0  0  0  0
   18.5823   -8.3745    0.0000 C   0  0  2  0  0  0  0  0  0  0  0  0
   17.7976   -8.1196    0.0000 C   0  0  2  0  0  0  0  0  0  0  0  0
   17.3127   -8.7870    0.0000 C   0  0  2  0  0  0  0  0  0  0  0  0
   16.5281   -9.0420    0.0000 C   0  0  1  0  0  0  0  0  0  0  0  0
   15.8136   -8.6295    0.0000 C   0  0  0  0  0  0  0  0  0  0  0  0
   15.0992   -9.0420    0.0000 C   0  0  0  0  0  0  0  0  0  0  0  0
   15.0992   -9.8670    0.0000 C   0  0  2  0  0  0  0  0  0  0  0  0
   14.3847  -10.2795    0.0000 C   0  0  1  0  0  0  0  0  0  0  0  0
   13.6702   -9.8670    0.0000 C   0  0  0  0  0  0  0  0  0  0  0  0
   12.9557  -10.2795    0.0000 C   0  0  0  0  0  0  0  0  0  0  0  0
   12.9557  -11.1045    0.0000 C   0  0  1  0  0  0  0  0  0  0  0  0
   13.6702  -11.5170    0.0000 C   0  0  0  0  0  0  0  0  0  0  0  0
   14.3847  -11.1045    0.0000 C   0  0  2  0  0  0  0  0  0  0  0  0
   15.0992  -11.5170    0.0000 C   0  0  0  0  0  0  0  0  0  0  0  0
   15.8136  -11.1045    0.0000 C   0  0  0  0  0  0  0  0  0  0  0  0
   18.4960   -7.5541    0.0000 O   0  0  0  0  0  0  0  0  0  0  0  0
   19.3359   -8.7101    0.0000 C   0  0  0  0  0  0  0  0  0  0  0  0
   20.0034   -8.2252    0.0000 C   0  0  0  0  0  0  0  0  0  0  0  0
   19.9171   -7.4047    0.0000 C   0  0  1  0  0  0  0  0  0  0  0  0
   19.1635   -7.0691    0.0000 C   0  0  0  0  0  0  0  0  0  0  0  0
   14.3847   -9.4545    0.0000 C   0  0  0  0  0  0  0  0  0  0  0  0
   16.5281   -8.2170    0.0000 C   0  0  0  0  0  0  0  0  0  0  0  0
   17.5427   -7.3350    0.0000 C   0  0  0  0  0  0  0  0  0  0  0  0
   20.5846   -6.9198    0.0000 C   0  0  0  0  0  0  0  0  0  0  0  0
   12.2413  -11.5170    0.0000 O   0  0  0  0  0  0  0  0  0  0  0  0
   15.8136   -9.4545    0.0000 H   0  0  0  0  0  0  0  0  0  0  0  0
   16.5281  -10.6920    0.0000 H   0  0  0  0  0  0  0  0  0  0  0  0
   18.2826  -10.1219    0.0000 H   0  0  0  0  0  0  0  0  0  0  0  0
   16.9511   -8.0455    0.0000 H   0  0  0  0  0  0  0  0  0  0  0  0
   15.0992  -10.6920    0.0000 H   0  0  0  0  0  0  0  0  0  0  0  0
   14.3847  -11.9295    0.0000 H   0  0  0  0  0  0  0  0  0  0  0  0
   11.5164  -11.1019    0.0000 C   0  0  1  0  0  0  0  0  0  0  0  0
   10.8015  -11.5137    0.0000 C   0  0  2  0  0  0  0  0  0  0  0  0
   10.8007  -12.3387    0.0000 O   0  0  0  0  0  0  0  0  0  0  0  0
   10.0875  -11.1005    0.0000 C   0  0  1  0  0  0  0  0  0  0  0  0
    9.3726  -11.5123    0.0000 O   0  0  0  0  0  0  0  0  0  0  0  0
   10.0883  -10.2755    0.0000 C   0  0  1  0  0  0  0  0  0  0  0  0
    9.3743   -9.8623    0.0000 O   0  0  0  0  0  0  0  0  0  0  0  0
   10.8032   -9.8637    0.0000 C   0  0  2  0  0  0  0  0  0  0  0  0
   11.5173  -10.2769    0.0000 O   0  0  0  0  0  0  0  0  0  0  0  0
   10.8040   -9.0387    0.0000 C   0  0  0  0  0  0  0  0  0  0  0  0
   10.0900   -8.6255    0.0000 O   0  0  0  0  0  0  0  0  0  0  0  0
    8.5493   -9.8638    0.0000 C   0  0  2  0  0  0  0  0  0  0  0  0
    8.1361   -9.1497    0.0000 O   0  0  0  0  0  0  0  0  0  0  0  0
    7.3097   -9.1529    0.0000 C   0  0  1  0  0  0  0  0  0  0  0  0
    6.8993   -9.8686    0.0000 C   0  0  2  0  0  0  0  0  0  0  0  0
    7.3138  -10.5835    0.0000 C   0  0  1  0  0  0  0  0  0  0  0  0
    8.1388  -10.5795    0.0000 C   0  0  1  0  0  0  0  0  0  0  0  0
    8.5541  -11.2923    0.0000 O   0  0  0  0  0  0  0  0  0  0  0  0
    6.9037  -11.2994    0.0000 O   0  0  0  0  0  0  0  0  0  0  0  0
    6.0743   -9.8705    0.0000 O   0  0  0  0  0  0  0  0  0  0  0  0
    6.8948   -8.4398    0.0000 C   0  0  0  0  0  0  0  0  0  0  0  0
    6.0698   -8.4426    0.0000 O   0  0  0  0  0  0  0  0  0  0  0  0
    8.5727  -12.1171    0.0000 C   0  0  2  0  0  0  0  0  0  0  0  0
    7.8685  -12.5470    0.0000 O   0  0  0  0  0  0  0  0  0  0  0  0
    7.8887  -13.3717    0.0000 C   0  0  1  0  0  0  0  0  0  0  0  0
    8.6059  -13.7709    0.0000 C   0  0  2  0  0  0  0  0  0  0  0  0
    9.3125  -13.3452    0.0000 C   0  0  1  0  0  0  0  0  0  0  0  0
    9.2948  -12.5246    0.0000 C   0  0  1  0  0  0  0  0  0  0  0  0
    7.1826  -13.7985    0.0000 C   0  0  0  0  0  0  0  0  0  0  0  0
   10.0352  -13.7433    0.0000 O   0  0  0  0  0  0  0  0  0  0  0  0
   10.0027  -12.1009    0.0000 O   0  0  0  0  0  0  0  0  0  0  0  0
    8.6201  -14.5958    0.0000 O   0  0  0  0  0  0  0  0  0  0  0  0
    7.1992  -14.6233    0.0000 O   0  0  0  0  0  0  0  0  0  0  0  0
    6.0788  -11.3023    0.0000 C   0  0  2  0  0  0  0  0  0  0  0  0
    5.6625  -10.5900    0.0000 O   0  0  0  0  0  0  0  0  0  0  0  0
    4.8375  -10.5900    0.0000 C   0  0  1  0  0  0  0  0  0  0  0  0
    4.4288  -11.3023    0.0000 C   0  0  2  0  0  0  0  0  0  0  0  0
    4.8375  -12.0145    0.0000 C   0  0  1  0  0  0  0  0  0  0  0  0
    5.6625  -12.0145    0.0000 C   0  0  1  0  0  0  0  0  0  0  0  0
    4.4240   -9.8761    0.0000 C   0  0  0  0  0  0  0  0  0  0  0  0
    4.4240  -12.7285    0.0000 O   0  0  0  0  0  0  0  0  0  0  0  0
    6.0731  -12.7301    0.0000 O   0  0  0  0  0  0  0  0  0  0  0  0
    3.6038  -11.3023    0.0000 O   0  0  0  0  0  0  0  0  0  0  0  0
    3.5990   -9.8772    0.0000 O   0  0  0  0  0  0  0  0  0  0  0  0
  1  2  1  0  0  0  0
  2  3  1  0  0  0  0
  3  4  1  0  0  0  0
  4  5  1  0  0  0  0
  6  5  1  6  0  0  0
  6  7  1  0  0  0  0
  7  8  1  0  0  0  0
  8  9  1  0  0  0  0
  9 10  1  0  0  0  0
 10 11  1  0  0  0  0
 11 12  1  0  0  0  0
 12 13  1  0  0  0  0
 13 14  1  0  0  0  0
 14 15  1  0  0  0  0
 15 16  1  0  0  0  0
 16 17  1  0  0  0  0
 17 18  1  0  0  0  0
 18 19  1  0  0  0  0
 19 20  1  0  0  0  0
  1 20  1  0  0  0  0
  1 12  1  0  0  0  0
 13 18  1  0  0  0  0
  2  9  1  0  0  0  0
  4  8  1  0  0  0  0
 22 23  1  0  0  0  0
 23 24  1  0  0  0  0
 24 25  1  0  0  0  0
 21 25  1  0  0  0  0
  6 21  1  0  0  0  0
  6 22  1  0  0  0  0
 13 26  1  1  0  0  0
  9 27  1  1  0  0  0
  7 28  1  6  0  0  0
 24 29  1  1  0  0  0
 16 30  1  1  0  0  0
  1 31  1  1  0  0  0
  2 32  1  6  0  0  0
  4 33  1  6  0  0  0
  8 34  1  6  0  0  0
 12 35  1  6  0  0  0
 18 36  1  6  0  0  0
 37 38  1  0  0  0  0
 38 39  1  6  0  0  0
 38 40  1  0  0  0  0
 40 41  1  1  0  0  0
 40 42  1  0  0  0  0
 42 43  1  1  0  0  0
 42 44  1  0  0  0  0
 44 45  1  0  0  0  0
 44 46  1  1  0  0  0
 46 47  1  0  0  0  0
 37 45  1  0  0  0  0
 37 30  1  1  0  0  0
 48 43  1  1  0  0  0
 48 49  1  0  0  0  0
 49 50  1  0  0  0  0
 50 51  1  0  0  0  0
 51 52  1  0  0  0  0
 52 53  1  0  0  0  0
 53 48  1  0  0  0  0
 53 54  1  6  0  0  0
 52 55  1  1  0  0  0
 51 56  1  6  0  0  0
 50 57  1  1  0  0  0
 57 58  1  0  0  0  0
 59 54  1  1  0  0  0
 59 60  1  0  0  0  0
 60 61  1  0  0  0  0
 61 62  1  0  0  0  0
 62 63  1  0  0  0  0
 63 64  1  0  0  0  0
 64 59  1  0  0  0  0
 61 65  1  1  0  0  0
 63 66  1  1  0  0  0
 64 67  1  6  0  0  0
 62 68  1  6  0  0  0
 65 69  1  0  0  0  0
 70 55  1  1  0  0  0
 70 71  1  0  0  0  0
 71 72  1  0  0  0  0
 72 73  1  0  0  0  0
 73 74  1  0  0  0  0
 74 75  1  0  0  0  0
 75 70  1  0  0  0  0
 72 76  1  1  0  0  0
 74 77  1  1  0  0  0
 75 78  1  6  0  0  0
 73 79  1  6  0  0  0
 76 80  1  0  0  0  0
M  END
>  <cdx:fragmentId>
5

$$$$
