95027.cdx
  Mrv1902 05222410272D          

 44 48  0  0  0  0            999 V2000
    6.5095   -6.0929    0.0000 C   0  0  0  0  0  0  0  0  0  0  0  0
    6.5095   -6.9179    0.0000 C   0  0  0  0  0  0  0  0  0  0  0  0
    5.7950   -7.3304    0.0000 C   0  0  0  0  0  0  0  0  0  0  0  0
    5.7950   -8.1554    0.0000 O   0  0  0  0  0  0  0  0  0  0  0  0
    5.0805   -6.9179    0.0000 C   0  0  0  0  0  0  0  0  0  0  0  0
    4.3661   -7.3304    0.0000 C   0  0  0  0  0  0  0  0  0  0  0  0
    4.3661   -8.1554    0.0000 O   0  0  0  0  0  0  0  0  0  0  0  0
    3.6516   -6.9179    0.0000 C   0  0  0  0  0  0  0  0  0  0  0  0
    3.6516   -6.0929    0.0000 C   0  0  0  0  0  0  0  0  0  0  0  0
    2.9371   -5.6804    0.0000 O   0  0  0  0  0  0  0  0  0  0  0  0
    4.3661   -5.6804    0.0000 C   0  0  0  0  0  0  0  0  0  0  0  0
    5.0805   -6.0929    0.0000 C   0  0  0  0  0  0  0  0  0  0  0  0
    5.7950   -5.6804    0.0000 O   0  0  0  0  0  0  0  0  0  0  0  0
    7.2239   -5.6804    0.0000 C   0  0  0  0  0  0  0  0  0  0  0  0
    7.9384   -6.0929    0.0000 C   0  0  0  0  0  0  0  0  0  0  0  0
    8.6529   -5.6804    0.0000 C   0  0  0  0  0  0  0  0  0  0  0  0
    9.3674   -6.0929    0.0000 O   0  0  0  0  0  0  0  0  0  0  0  0
    8.6529   -4.8554    0.0000 C   0  0  0  0  0  0  0  0  0  0  0  0
    9.3674   -4.4429    0.0000 O   0  0  0  0  0  0  0  0  0  0  0  0
    7.9384   -4.4429    0.0000 C   0  0  0  0  0  0  0  0  0  0  0  0
    7.2239   -4.8554    0.0000 C   0  0  0  0  0  0  0  0  0  0  0  0
    7.2239   -7.3304    0.0000 O   0  0  0  0  0  0  0  0  0  0  0  0
    7.2239   -8.1554    0.0000 C   0  0  0  0  0  0  0  0  0  0  0  0
    7.9384   -8.5679    0.0000 C   0  0  2  0  0  0  0  0  0  0  0  0
    8.6529   -8.1554    0.0000 O   0  0  0  0  0  0  0  0  0  0  0  0
    7.9384   -9.3929    0.0000 C   0  0  1  0  0  0  0  0  0  0  0  0
    8.6529   -9.8054    0.0000 O   0  0  0  0  0  0  0  0  0  0  0  0
    7.2239   -9.8054    0.0000 C   0  0  2  0  0  0  0  0  0  0  0  0
    7.2239  -10.6304    0.0000 O   0  0  0  0  0  0  0  0  0  0  0  0
    6.5095   -9.3929    0.0000 C   0  0  2  0  0  0  0  0  0  0  0  0
    6.5095   -8.5679    0.0000 O   0  0  0  0  0  0  0  0  0  0  0  0
    5.7950   -9.8054    0.0000 C   0  0  0  0  0  0  0  0  0  0  0  0
    5.0805   -9.3929    0.0000 O   0  0  0  0  0  0  0  0  0  0  0  0
    9.3672   -8.5650    0.0000 C   0  0  0  0  0  0  0  0  0  0  0  0
   10.0806   -8.1506    0.0000 C   0  0  2  0  0  0  0  0  0  0  0  0
   10.0784   -7.3256    0.0000 O   0  0  0  0  0  0  0  0  0  0  0  0
   10.7961   -8.5613    0.0000 C   0  0  1  0  0  0  0  0  0  0  0  0
   11.5095   -8.1469    0.0000 O   0  0  0  0  0  0  0  0  0  0  0  0
   10.7982   -9.3863    0.0000 C   0  0  2  0  0  0  0  0  0  0  0  0
   11.5138   -9.7969    0.0000 O   0  0  0  0  0  0  0  0  0  0  0  0
   10.0848   -9.8006    0.0000 C   0  0  2  0  0  0  0  0  0  0  0  0
    9.3693   -9.3900    0.0000 O   0  0  0  0  0  0  0  0  0  0  0  0
   10.0870  -10.6256    0.0000 C   0  0  0  0  0  0  0  0  0  0  0  0
    9.3736  -11.0400    0.0000 O   0  0  0  0  0  0  0  0  0  0  0  0
  1  2  2  0  0  0  0
  2  3  1  0  0  0  0
  3  4  2  0  0  0  0
  3  5  1  0  0  0  0
  5  6  1  0  0  0  0
  6  7  1  0  0  0  0
  6  8  2  0  0  0  0
  8  9  1  0  0  0  0
  9 10  1  0  0  0  0
  9 11  2  0  0  0  0
 11 12  1  0  0  0  0
  5 12  2  0  0  0  0
 12 13  1  0  0  0  0
  1 13  1  0  0  0  0
  1 14  1  0  0  0  0
 14 15  1  0  0  0  0
 15 16  2  0  0  0  0
 16 17  1  0  0  0  0
 16 18  1  0  0  0  0
 18 19  1  0  0  0  0
 18 20  2  0  0  0  0
 20 21  1  0  0  0  0
 14 21  2  0  0  0  0
 22 23  1  0  0  0  0
 23 24  1  0  0  0  0
 24 25  1  6  0  0  0
 24 26  1  0  0  0  0
 26 27  1  1  0  0  0
 26 28  1  0  0  0  0
 28 29  1  6  0  0  0
 28 30  1  0  0  0  0
 30 31  1  0  0  0  0
 30 32  1  1  0  0  0
 32 33  1  0  0  0  0
 23 31  1  0  0  0  0
  2 22  1  0  0  0  0
 34 35  1  0  0  0  0
 35 36  1  6  0  0  0
 35 37  1  0  0  0  0
 37 38  1  1  0  0  0
 37 39  1  0  0  0  0
 39 40  1  6  0  0  0
 39 41  1  0  0  0  0
 41 42  1  0  0  0  0
 41 43  1  1  0  0  0
 43 44  1  0  0  0  0
 34 42  1  0  0  0  0
 34 25  1  0  0  0  0
M  END
>  <cdx:groupId>
140

>  <cdx:fragmentId>
47

$$$$
