95025.cdx
  Mrv1902 05222410262D          

 17 19  0  0  0  0            999 V2000
    6.8432   -7.7834    0.0000 C   0  0  1  0  0  0  0  0  0  0  0  0
    6.8432   -8.6084    0.0000 C   0  0  1  0  0  0  0  0  0  0  0  0
    6.1287   -9.0209    0.0000 C   0  0  2  0  0  0  0  0  0  0  0  0
    5.4142   -8.6084    0.0000 C   0  0  0  0  0  0  0  0  0  0  0  0
    5.4142   -7.7834    0.0000 C   0  0  0  0  0  0  0  0  0  0  0  0
    6.1287   -7.3709    0.0000 C   0  0  1  0  0  0  0  0  0  0  0  0
    7.5576   -8.1959    0.0000 C   0  0  1  0  0  0  0  0  0  0  0  0
    8.1707   -7.6439    0.0000 C   0  0  0  0  0  0  0  0  0  0  0  0
    7.8352   -6.8902    0.0000 C   0  0  0  0  0  0  0  0  0  0  0  0
    7.0147   -6.9764    0.0000 C   0  0  0  0  0  0  0  0  0  0  0  0
    6.1287   -9.8459    0.0000 C   0  0  0  0  0  0  0  0  0  0  0  0
    6.8432  -10.2584    0.0000 C   0  0  0  0  0  0  0  0  0  0  0  0
    5.4142  -10.2584    0.0000 C   0  0  0  0  0  0  0  0  0  0  0  0
    8.9777   -7.8154    0.0000 C   0  0  0  0  0  0  0  0  0  0  0  0
    6.1287   -6.5459    0.0000 C   0  0  0  0  0  0  0  0  0  0  0  0
    8.0425   -8.8634    0.0000 H   0  0  0  0  0  0  0  0  0  0  0  0
    7.2557   -9.3229    0.0000 H   0  0  0  0  0  0  0  0  0  0  0  0
  1  2  1  0  0  0  0
  2  3  1  0  0  0  0
  3  4  1  0  0  0  0
  4  5  1  0  0  0  0
  5  6  1  0  0  0  0
  1  6  1  0  0  0  0
  8  9  1  0  0  0  0
  9 10  1  0  0  0  0
  8  7  1  0  0  0  0
  7  1  1  0  0  0  0
  1 10  1  6  0  0  0
  7  2  1  0  0  0  0
 11 12  1  0  0  0  0
 11 13  1  0  0  0  0
  3 11  1  1  0  0  0
  8 14  2  0  0  0  0
  6 15  1  1  0  0  0
  7 16  1  1  0  0  0
  2 17  1  1  0  0  0
M  END
>  <cdx:groupId>
55

>  <cdx:fragmentId>
5

$$$$
