95020.cdx
  Mrv1902 05222410282D          

 68 75  0  0  0  0            999 V2000
   12.9530   -9.1300    0.0000 C   0  0  0  0  0  0  0  0  0  0  0  0
   12.9530   -9.9550    0.0000 C   0  0  1  0  0  0  0  0  0  0  0  0
   13.6675  -10.3675    0.0000 C   0  0  1  0  0  0  0  0  0  0  0  0
   14.3820   -9.9550    0.0000 C   0  0  1  0  0  0  0  0  0  0  0  0
   14.3820   -9.1300    0.0000 C   0  0  2  0  0  0  0  0  0  0  0  0
   13.6675   -8.7175    0.0000 C   0  0  0  0  0  0  0  0  0  0  0  0
   15.0964  -10.3675    0.0000 C   0  0  0  0  0  0  0  0  0  0  0  0
   15.8109   -9.9550    0.0000 C   0  0  0  0  0  0  0  0  0  0  0  0
   15.8109   -9.1300    0.0000 C   0  0  2  0  0  0  0  0  0  0  0  0
   15.0964   -8.7175    0.0000 C   0  0  2  0  0  0  0  0  0  0  0  0
   16.5254   -8.7175    0.0000 C   0  0  1  0  0  0  0  0  0  0  0  0
   16.5254   -7.8925    0.0000 C   0  0  0  0  0  0  0  0  0  0  0  0
   15.8109   -7.4800    0.0000 C   0  0  0  0  0  0  0  0  0  0  0  0
   15.0964   -7.8925    0.0000 C   0  0  0  0  0  0  0  0  0  0  0  0
   17.2399   -9.1300    0.0000 C   0  0  0  0  0  0  0  0  0  0  0  0
   17.9543   -8.7175    0.0000 C   0  0  0  0  0  0  0  0  0  0  0  0
   17.9543   -7.8925    0.0000 C   0  0  2  0  0  0  0  0  0  0  0  0
   17.2399   -7.4800    0.0000 C   0  0  1  0  0  0  0  0  0  0  0  0
   18.6688   -7.4800    0.0000 C   0  0  0  0  0  0  0  0  0  0  0  0
   18.6688   -6.6550    0.0000 C   0  0  0  0  0  0  0  0  0  0  0  0
   17.9543   -6.2425    0.0000 C   0  0  0  0  0  0  0  0  0  0  0  0
   17.2399   -6.6550    0.0000 C   0  0  0  0  0  0  0  0  0  0  0  0
   17.5418   -5.5280    0.0000 C   0  0  0  0  0  0  0  0  0  0  0  0
   18.3668   -5.5280    0.0000 C   0  0  0  0  0  0  0  0  0  0  0  0
   17.2399   -8.3050    0.0000 H   0  0  0  0  0  0  0  0  0  0  0  0
   18.6688   -8.3050    0.0000 C   0  0  0  0  0  0  0  0  0  0  0  0
   15.8109   -8.3050    0.0000 C   0  0  0  0  0  0  0  0  0  0  0  0
   16.5254   -9.5425    0.0000 C   0  0  0  0  0  0  0  0  0  0  0  0
   15.0964   -9.5425    0.0000 H   0  0  0  0  0  0  0  0  0  0  0  0
   14.3820   -8.3050    0.0000 C   0  0  0  0  0  0  0  0  0  0  0  0
   14.3820  -10.7800    0.0000 H   0  0  0  0  0  0  0  0  0  0  0  0
   14.0800  -11.0820    0.0000 C   0  0  0  0  0  0  0  0  0  0  0  0
   13.2550  -11.0820    0.0000 C   0  0  0  0  0  0  0  0  0  0  0  0
   19.3833   -7.8925    0.0000 O   0  0  0  0  0  0  0  0  0  0  0  0
   18.6688   -9.1300    0.0000 O   0  0  0  0  0  0  0  0  0  0  0  0
   12.2386  -10.3675    0.0000 O   0  0  0  0  0  0  0  0  0  0  0  0
   11.5241   -9.9550    0.0000 C   0  0  2  0  0  0  0  0  0  0  0  0
   11.5241   -9.1300    0.0000 O   0  0  0  0  0  0  0  0  0  0  0  0
   10.8096   -8.7175    0.0000 C   0  0  1  0  0  0  0  0  0  0  0  0
   10.0951   -9.1300    0.0000 C   0  0  1  0  0  0  0  0  0  0  0  0
   10.0951   -9.9550    0.0000 C   0  0  1  0  0  0  0  0  0  0  0  0
   10.8096  -10.3675    0.0000 C   0  0  1  0  0  0  0  0  0  0  0  0
   10.8096   -7.8925    0.0000 C   0  0  0  0  0  0  0  0  0  0  0  0
    9.3807   -8.7175    0.0000 O   0  0  0  0  0  0  0  0  0  0  0  0
    9.3807  -10.3675    0.0000 O   0  0  0  0  0  0  0  0  0  0  0  0
   10.8096  -11.1925    0.0000 O   0  0  0  0  0  0  0  0  0  0  0  0
   10.0951   -7.4800    0.0000 O   0  0  0  0  0  0  0  0  0  0  0  0
   13.6675  -11.7964    0.0000 O   0  0  0  0  0  0  0  0  0  0  0  0
   13.2550  -12.5109    0.0000 C   0  0  2  0  0  0  0  0  0  0  0  0
   12.4300  -12.5109    0.0000 O   0  0  0  0  0  0  0  0  0  0  0  0
   12.0175  -13.2254    0.0000 C   0  0  1  0  0  0  0  0  0  0  0  0
   12.4300  -13.9399    0.0000 C   0  0  1  0  0  0  0  0  0  0  0  0
   13.2550  -13.9399    0.0000 C   0  0  1  0  0  0  0  0  0  0  0  0
   13.6675  -13.2254    0.0000 C   0  0  1  0  0  0  0  0  0  0  0  0
   11.1925  -13.2254    0.0000 C   0  0  0  0  0  0  0  0  0  0  0  0
   14.4925  -13.2254    0.0000 O   0  0  0  0  0  0  0  0  0  0  0  0
   13.6675  -14.6543    0.0000 O   0  0  0  0  0  0  0  0  0  0  0  0
   12.0175  -14.6543    0.0000 O   0  0  0  0  0  0  0  0  0  0  0  0
   10.7800  -13.9399    0.0000 O   0  0  0  0  0  0  0  0  0  0  0  0
    9.9550  -13.9399    0.0000 C   0  0  2  0  0  0  0  0  0  0  0  0
    9.5425  -13.2254    0.0000 O   0  0  0  0  0  0  0  0  0  0  0  0
    8.7175  -13.2254    0.0000 C   0  0  0  0  0  0  0  0  0  0  0  0
    8.3050  -13.9399    0.0000 C   0  0  2  0  0  0  0  0  0  0  0  0
    8.7175  -14.6543    0.0000 C   0  0  1  0  0  0  0  0  0  0  0  0
    9.5425  -14.6543    0.0000 C   0  0  1  0  0  0  0  0  0  0  0  0
    9.9550  -15.3688    0.0000 O   0  0  0  0  0  0  0  0  0  0  0  0
    8.3050  -15.3688    0.0000 O   0  0  0  0  0  0  0  0  0  0  0  0
    7.4800  -13.9399    0.0000 O   0  0  0  0  0  0  0  0  0  0  0  0
  1  2  1  0  0  0  0
  2  3  1  0  0  0  0
  3  4  1  0  0  0  0
  4  5  1  0  0  0  0
  5  6  1  0  0  0  0
  6  1  1  0  0  0  0
  4  7  1  0  0  0  0
  7  8  1  0  0  0  0
  8  9  1  0  0  0  0
  9 10  1  0  0  0  0
 10  5  1  0  0  0  0
  9 11  1  0  0  0  0
 11 12  1  0  0  0  0
 12 13  2  0  0  0  0
 13 14  1  0  0  0  0
 14 10  1  0  0  0  0
 11 15  1  0  0  0  0
 15 16  1  0  0  0  0
 16 17  1  0  0  0  0
 17 18  1  0  0  0  0
 18 12  1  0  0  0  0
 17 19  1  0  0  0  0
 19 20  1  0  0  0  0
 20 21  1  0  0  0  0
 21 22  1  0  0  0  0
 22 18  1  0  0  0  0
 21 23  1  0  0  0  0
 21 24  1  0  0  0  0
 18 25  1  1  0  0  0
 17 26  1  1  0  0  0
  9 27  1  1  0  0  0
 11 28  1  6  0  0  0
 10 29  1  6  0  0  0
  5 30  1  1  0  0  0
  4 31  1  6  0  0  0
  3 32  1  1  0  0  0
  3 33  1  0  0  0  0
 26 34  1  0  0  0  0
 26 35  2  0  0  0  0
  2 36  1  1  0  0  0
 37 36  1  1  0  0  0
 37 38  1  0  0  0  0
 38 39  1  0  0  0  0
 39 40  1  0  0  0  0
 40 41  1  0  0  0  0
 41 42  1  0  0  0  0
 42 37  1  0  0  0  0
 39 43  1  1  0  0  0
 40 44  1  1  0  0  0
 41 45  1  1  0  0  0
 42 46  1  6  0  0  0
 43 47  1  0  0  0  0
 33 48  1  0  0  0  0
 49 48  1  1  0  0  0
 49 50  1  0  0  0  0
 50 51  1  0  0  0  0
 51 52  1  0  0  0  0
 52 53  1  0  0  0  0
 53 54  1  0  0  0  0
 54 49  1  0  0  0  0
 51 55  1  1  0  0  0
 54 56  1  6  0  0  0
 53 57  1  1  0  0  0
 52 58  1  1  0  0  0
 55 59  1  0  0  0  0
 60 59  1  1  0  0  0
 60 61  1  0  0  0  0
 61 62  1  0  0  0  0
 62 63  1  0  0  0  0
 63 64  1  0  0  0  0
 64 65  1  0  0  0  0
 65 60  1  0  0  0  0
 65 66  1  6  0  0  0
 64 67  1  1  0  0  0
 63 68  1  6  0  0  0
M  END
>  <cdx:fragmentId>
385

$$$$
