95024.cdx
  Mrv1902 05222410262D          

 15 16  0  0  0  0            999 V2000
    7.0318   -7.9826    0.0000 C   0  0  0  0  0  0  0  0  0  0  0  0
    7.0318   -8.8076    0.0000 C   0  0  0  0  0  0  0  0  0  0  0  0
    6.3868   -9.3220    0.0000 C   0  0  0  0  0  0  0  0  0  0  0  0
    5.5825   -9.1384    0.0000 C   0  0  0  0  0  0  0  0  0  0  0  0
    5.2245   -8.3951    0.0000 C   0  0  0  0  0  0  0  0  0  0  0  0
    5.5825   -7.6518    0.0000 C   0  0  0  0  0  0  0  0  0  0  0  0
    6.3868   -7.4683    0.0000 C   0  0  0  0  0  0  0  0  0  0  0  0
    7.7462   -9.2201    0.0000 C   0  0  0  0  0  0  0  0  0  0  0  0
    8.4607   -8.8076    0.0000 C   0  0  0  0  0  0  0  0  0  0  0  0
    8.4607   -7.9826    0.0000 C   0  0  0  0  0  0  0  0  0  0  0  0
    7.7462   -7.5701    0.0000 C   0  0  0  0  0  0  0  0  0  0  0  0
    6.5703  -10.1263    0.0000 C   0  0  0  0  0  0  0  0  0  0  0  0
    6.9479   -6.8635    0.0000 C   0  0  0  0  0  0  0  0  0  0  0  0
    6.1436   -6.6799    0.0000 C   0  0  0  0  0  0  0  0  0  0  0  0
    9.1752   -7.5701    0.0000 C   0  0  0  0  0  0  0  0  0  0  0  0
  1  2  1  0  0  0  0
  2  3  1  0  0  0  0
  3  4  1  0  0  0  0
  4  5  1  0  0  0  0
  5  6  1  0  0  0  0
  6  7  1  0  0  0  0
  1  7  1  0  0  0  0
  8  9  1  0  0  0  0
  9 10  1  0  0  0  0
 10 11  2  0  0  0  0
 11  1  1  0  0  0  0
  8  2  1  0  0  0  0
  3 12  2  0  0  0  0
  7 13  1  0  0  0  0
  7 14  1  0  0  0  0
 10 15  1  0  0  0  0
M  END
>  <cdx:fragmentId>
5

$$$$
