95033.cdx
  Mrv1902 05222410272D          

 34 37  0  0  0  0            999 V2000
    8.6246   -9.2416    0.0000 C   0  0  0  0  0  0  0  0  0  0  0  0
    8.6246  -10.0666    0.0000 C   0  0  0  0  0  0  0  0  0  0  0  0
    7.9101  -10.4791    0.0000 C   0  0  0  0  0  0  0  0  0  0  0  0
    7.9101  -11.3041    0.0000 O   0  0  0  0  0  0  0  0  0  0  0  0
    7.1956  -10.0666    0.0000 C   0  0  0  0  0  0  0  0  0  0  0  0
    6.4812  -10.4791    0.0000 C   0  0  0  0  0  0  0  0  0  0  0  0
    6.4812  -11.3041    0.0000 O   0  0  0  0  0  0  0  0  0  0  0  0
    5.7667  -10.0666    0.0000 C   0  0  0  0  0  0  0  0  0  0  0  0
    5.7667   -9.2416    0.0000 C   0  0  0  0  0  0  0  0  0  0  0  0
    6.4812   -8.8291    0.0000 C   0  0  0  0  0  0  0  0  0  0  0  0
    7.1956   -9.2416    0.0000 C   0  0  0  0  0  0  0  0  0  0  0  0
    7.9101   -8.8291    0.0000 O   0  0  0  0  0  0  0  0  0  0  0  0
    9.3391   -8.8291    0.0000 C   0  0  0  0  0  0  0  0  0  0  0  0
    9.3391   -8.0041    0.0000 C   0  0  0  0  0  0  0  0  0  0  0  0
   10.0535   -7.5916    0.0000 C   0  0  0  0  0  0  0  0  0  0  0  0
   10.7680   -8.0041    0.0000 C   0  0  0  0  0  0  0  0  0  0  0  0
   11.4825   -7.5916    0.0000 O   0  0  0  0  0  0  0  0  0  0  0  0
   10.7680   -8.8291    0.0000 C   0  0  0  0  0  0  0  0  0  0  0  0
   10.0535   -9.2416    0.0000 C   0  0  0  0  0  0  0  0  0  0  0  0
    5.0522  -10.4791    0.0000 O   0  0  0  0  0  0  0  0  0  0  0  0
    4.3378  -10.0666    0.0000 C   0  0  0  0  0  0  0  0  0  0  0  0
    5.0522   -8.8291    0.0000 O   0  0  0  0  0  0  0  0  0  0  0  0
    5.0522   -8.0041    0.0000 C   0  0  0  0  0  0  0  0  0  0  0  0
    5.7667   -7.5916    0.0000 C   0  0  2  0  0  0  0  0  0  0  0  0
    6.4812   -8.0041    0.0000 O   0  0  0  0  0  0  0  0  0  0  0  0
    5.7667   -6.7666    0.0000 C   0  0  1  0  0  0  0  0  0  0  0  0
    6.4812   -6.3541    0.0000 O   0  0  0  0  0  0  0  0  0  0  0  0
    5.0522   -6.3541    0.0000 C   0  0  2  0  0  0  0  0  0  0  0  0
    5.0522   -5.5291    0.0000 O   0  0  0  0  0  0  0  0  0  0  0  0
    4.3378   -6.7666    0.0000 C   0  0  2  0  0  0  0  0  0  0  0  0
    4.3378   -7.5916    0.0000 O   0  0  0  0  0  0  0  0  0  0  0  0
    3.6233   -6.3541    0.0000 C   0  0  0  0  0  0  0  0  0  0  0  0
    3.6233   -5.5291    0.0000 O   0  0  0  0  0  0  0  0  0  0  0  0
    2.9088   -6.7666    0.0000 O   0  0  0  0  0  0  0  0  0  0  0  0
  1  2  1  0  0  0  0
  2  3  1  0  0  0  0
  3  4  2  0  0  0  0
  3  5  1  0  0  0  0
  5  6  1  0  0  0  0
  6  7  1  0  0  0  0
  6  8  2  0  0  0  0
  8  9  1  0  0  0  0
  9 10  2  0  0  0  0
 10 11  1  0  0  0  0
  5 11  2  0  0  0  0
 11 12  1  0  0  0  0
  1 12  1  0  0  0  0
  1 13  1  0  0  0  0
 13 14  1  0  0  0  0
 14 15  2  0  0  0  0
 15 16  1  0  0  0  0
 16 17  1  0  0  0  0
 16 18  2  0  0  0  0
 18 19  1  0  0  0  0
 13 19  2  0  0  0  0
 20 21  1  0  0  0  0
  8 20  1  0  0  0  0
 22 23  1  0  0  0  0
 23 24  1  0  0  0  0
 24 25  1  1  0  0  0
 24 26  1  0  0  0  0
 26 27  1  6  0  0  0
 26 28  1  0  0  0  0
 28 29  1  1  0  0  0
 28 30  1  0  0  0  0
 30 31  1  0  0  0  0
 30 32  1  6  0  0  0
 23 31  1  0  0  0  0
 32 33  2  0  0  0  0
 32 34  1  0  0  0  0
  9 22  1  0  0  0  0
M  END
>  <cdx:groupId>
107

>  <cdx:fragmentId>
5

$$$$
