95035.cdx
  Mrv1902 05222410282D          

 41 45  0  0  0  0            999 V2000
    4.6572   -4.8812    0.0000 C   0  0  0  0  0  0  0  0  0  0  0  0
    4.6572   -4.0563    0.0000 C   0  0  0  0  0  0  0  0  0  0  0  0
    5.3717   -5.2938    0.0000 C   0  0  0  0  0  0  0  0  0  0  0  0
    6.0861   -4.8812    0.0000 N   0  0  0  0  0  0  0  0  0  0  0  0
    6.0861   -4.0563    0.0000 C   0  0  0  0  0  0  0  0  0  0  0  0
    5.3717   -3.6437    0.0000 C   0  0  0  0  0  0  0  0  0  0  0  0
    6.8006   -3.6437    0.0000 C   0  0  0  0  0  0  0  0  0  0  0  0
    7.5151   -4.0562    0.0000 O   0  0  0  0  0  0  0  0  0  0  0  0
    6.8006   -2.8188    0.0000 O   0  0  0  0  0  0  0  0  0  0  0  0
    5.3717   -6.1188    0.0000 C   0  0  0  0  0  0  0  0  0  0  0  0
    6.0861   -6.5313    0.0000 C   0  0  2  0  0  0  0  0  0  0  0  0
    6.0861   -7.3563    0.0000 C   0  0  0  0  0  0  0  0  0  0  0  0
    6.8006   -7.7687    0.0000 C   0  0  0  0  0  0  0  0  0  0  0  0
    7.5151   -7.3563    0.0000 O   0  0  0  0  0  0  0  0  0  0  0  0
    7.5151   -6.5313    0.0000 C   0  0  2  0  0  0  0  0  0  0  0  0
    6.8006   -6.1188    0.0000 C   0  0  2  0  0  0  0  0  0  0  0  0
    5.3717   -7.7687    0.0000 C   0  0  0  0  0  0  0  0  0  0  0  0
    4.6572   -7.3563    0.0000 O   0  0  0  0  0  0  0  0  0  0  0  0
    5.3717   -8.5938    0.0000 O   0  0  0  0  0  0  0  0  0  0  0  0
    6.8006   -5.2938    0.0000 C   0  0  0  0  0  0  0  0  0  0  0  0
    7.5151   -4.8812    0.0000 C   0  0  0  0  0  0  0  0  0  0  0  0
    8.2295   -6.1188    0.0000 O   0  0  0  0  0  0  0  0  0  0  0  0
    8.9440   -6.5313    0.0000 C   0  0  2  0  0  0  0  0  0  0  0  0
    8.9440   -7.3563    0.0000 O   0  0  0  0  0  0  0  0  0  0  0  0
    9.6585   -7.7687    0.0000 C   0  0  1  0  0  0  0  0  0  0  0  0
   10.3730   -7.3563    0.0000 C   0  0  2  0  0  0  0  0  0  0  0  0
   10.3730   -6.5313    0.0000 C   0  0  1  0  0  0  0  0  0  0  0  0
    9.6585   -6.1188    0.0000 C   0  0  1  0  0  0  0  0  0  0  0  0
   11.0874   -6.1188    0.0000 O   0  0  0  0  0  0  0  0  0  0  0  0
    9.6585   -8.5938    0.0000 C   0  0  0  0  0  0  0  0  0  0  0  0
    9.6585   -5.2938    0.0000 O   0  0  0  0  0  0  0  0  0  0  0  0
   11.0874   -7.7687    0.0000 O   0  0  0  0  0  0  0  0  0  0  0  0
   10.3730   -9.0062    0.0000 O   0  0  0  0  0  0  0  0  0  0  0  0
    4.6572   -9.0062    0.0000 C   0  0  0  0  0  0  0  0  0  0  0  0
    3.8726   -3.8013    0.0000 C   0  0  0  0  0  0  0  0  0  0  0  0
    3.3876   -4.4688    0.0000 C   0  0  0  0  0  0  0  0  0  0  0  0
    3.8726   -5.1362    0.0000 N   0  0  0  0  0  0  0  0  0  0  0  0
    3.5370   -3.0476    0.0000 C   0  0  0  0  0  0  0  0  0  0  0  0
    2.7165   -2.9614    0.0000 C   0  0  0  0  0  0  0  0  0  0  0  0
    2.2316   -3.6288    0.0000 C   0  0  0  0  0  0  0  0  0  0  0  0
    2.5672   -4.3825    0.0000 C   0  0  0  0  0  0  0  0  0  0  0  0
  1  2  2  0  0  0  0
  1  3  1  0  0  0  0
  3  4  2  0  0  0  0
  4  5  1  0  0  0  0
  5  6  2  0  0  0  0
  6  2  1  0  0  0  0
  5  7  1  0  0  0  0
  7  8  1  0  0  0  0
  7  9  2  0  0  0  0
  3 10  1  0  0  0  0
 11 10  1  1  0  0  0
 11 12  1  0  0  0  0
 12 13  2  0  0  0  0
 13 14  1  0  0  0  0
 14 15  1  0  0  0  0
 15 16  1  0  0  0  0
 16 11  1  0  0  0  0
 12 17  1  0  0  0  0
 17 18  2  0  0  0  0
 17 19  1  0  0  0  0
 16 20  1  1  0  0  0
 20 21  2  0  0  0  0
 15 22  1  6  0  0  0
 23 22  1  1  0  0  0
 23 24  1  0  0  0  0
 24 25  1  0  0  0  0
 25 26  1  0  0  0  0
 26 27  1  0  0  0  0
 27 28  1  0  0  0  0
 28 23  1  0  0  0  0
 27 29  1  1  0  0  0
 25 30  1  1  0  0  0
 28 31  1  6  0  0  0
 26 32  1  6  0  0  0
 30 33  1  0  0  0  0
 19 34  1  0  0  0  0
  2 35  1  0  0  0  0
 35 36  2  0  0  0  0
 36 37  1  0  0  0  0
 37  1  1  0  0  0  0
 35 38  1  0  0  0  0
 38 39  2  0  0  0  0
 39 40  1  0  0  0  0
 40 41  2  0  0  0  0
 41 36  1  0  0  0  0
M  END
>  <cdx:fragmentId>
5

$$$$
