950353.cdx
  Mrv1902 05222410192D          

 36 40  0  0  0  0            999 V2000
    5.9637   -8.1854    0.0000 C   0  0  1  0  0  0  0  0  0  0  0  0
    5.2493   -8.5979    0.0000 C   0  0  0  0  0  0  0  0  0  0  0  0
    5.2493   -9.4229    0.0000 C   0  0  2  0  0  0  0  0  0  0  0  0
    5.9637   -9.8354    0.0000 C   0  0  0  0  0  0  0  0  0  0  0  0
    6.6782   -9.4229    0.0000 C   0  0  2  0  0  0  0  0  0  0  0  0
    7.3927   -9.8354    0.0000 C   0  0  0  0  0  0  0  0  0  0  0  0
    8.1071   -9.4229    0.0000 C   0  0  2  0  0  0  0  0  0  0  0  0
    8.1071   -8.5979    0.0000 C   0  0  1  0  0  0  0  0  0  0  0  0
    8.8216   -8.1854    0.0000 C   0  0  2  0  0  0  0  0  0  0  0  0
    9.6062   -8.4403    0.0000 C   0  0  0  0  0  0  0  0  0  0  0  0
   10.0912   -7.7729    0.0000 C   0  0  0  0  0  0  0  0  0  0  0  0
    9.6062   -7.1054    0.0000 C   0  0  2  0  0  0  0  0  0  0  0  0
    8.8216   -7.3604    0.0000 C   0  0  2  0  0  0  0  0  0  0  0  0
    8.1071   -6.9479    0.0000 C   0  0  0  0  0  0  0  0  0  0  0  0
    7.3927   -7.3604    0.0000 C   0  0  1  0  0  0  0  0  0  0  0  0
    7.3927   -8.1854    0.0000 C   0  0  2  0  0  0  0  0  0  0  0  0
    6.6782   -8.5979    0.0000 C   0  0  1  0  0  0  0  0  0  0  0  0
    9.8612   -9.2249    0.0000 O   0  0  0  0  0  0  0  0  0  0  0  0
    8.9079   -6.5399    0.0000 C   0  0  0  0  0  0  0  0  0  0  0  0
    8.1071   -7.7729    0.0000 C   0  0  0  0  0  0  0  0  0  0  0  0
    6.3762  -10.5498    0.0000 C   0  0  0  0  0  0  0  0  0  0  0  0
    5.5512  -10.5498    0.0000 C   0  0  0  0  0  0  0  0  0  0  0  0
    6.6825   -7.7000    0.0000 C   0  0  0  0  0  0  0  0  0  0  0  0
    6.0991   -7.1166    0.0000 O   0  0  0  0  0  0  0  0  0  0  0  0
    6.6782   -6.9479    0.0000 O   0  0  0  0  0  0  0  0  0  0  0  0
    8.8216   -9.8354    0.0000 O   0  0  0  0  0  0  0  0  0  0  0  0
    4.5348   -9.8354    0.0000 O   0  0  0  0  0  0  0  0  0  0  0  0
    5.8205   -7.3729    0.0000 O   0  0  0  0  0  0  0  0  0  0  0  0
   10.6458   -5.2409    0.0000 O   0  0  0  0  0  0  0  0  0  0  0  0
   10.6458   -6.0659    0.0000 C   0  0  0  0  0  0  0  0  0  0  0  0
    9.8612   -6.3208    0.0000 C   0  0  0  0  0  0  0  0  0  0  0  0
    9.3763   -5.6534    0.0000 C   0  0  0  0  0  0  0  0  0  0  0  0
    9.8612   -4.9859    0.0000 C   0  0  0  0  0  0  0  0  0  0  0  0
    6.6782  -10.2479    0.0000 H   0  0  0  0  0  0  0  0  0  0  0  0
    7.3927   -9.0104    0.0000 H   0  0  0  0  0  0  0  0  0  0  0  0
    8.8216   -9.0104    0.0000 H   0  0  0  0  0  0  0  0  0  0  0  0
  1  2  1  0  0  0  0
  2  3  1  0  0  0  0
  3  4  1  0  0  0  0
  4  5  1  0  0  0  0
  5  6  1  0  0  0  0
  6  7  1  0  0  0  0
  7  8  1  0  0  0  0
  8  9  1  0  0  0  0
  9 10  1  0  0  0  0
 10 11  1  0  0  0  0
 11 12  1  0  0  0  0
 12 13  1  0  0  0  0
  9 13  1  0  0  0  0
 13 14  1  0  0  0  0
 14 15  1  0  0  0  0
 15 16  1  0  0  0  0
  8 16  1  0  0  0  0
 16 17  1  0  0  0  0
  5 17  1  0  0  0  0
  1 17  1  0  0  0  0
 10 18  2  0  0  0  0
 13 19  1  6  0  0  0
  8 20  1  1  0  0  0
  4 21  1  0  0  0  0
  4 22  1  0  0  0  0
 23 24  1  0  0  0  0
 17 23  1  1  0  0  0
 15 25  1  1  0  0  0
  7 26  1  6  0  0  0
  3 27  1  6  0  0  0
  1 28  1  6  0  0  0
 29 30  1  0  0  0  0
 30 31  2  0  0  0  0
 31 32  1  0  0  0  0
 32 33  2  0  0  0  0
 29 33  1  0  0  0  0
 12 31  1  6  0  0  0
  5 34  1  6  0  0  0
 16 35  1  6  0  0  0
  9 36  1  6  0  0  0
M  END
>  <cdx:fragmentId>
48124

$$$$
