95039.cdx
  Mrv1902 05222410182D          

 13 13  0  0  0  0            999 V2000
    9.1896   -8.9380    0.0000 C   0  0  0  0  0  0  0  0  0  0  0  0
    8.4751   -8.5255    0.0000 C   0  0  0  0  0  0  0  0  0  0  0  0
    7.7606   -8.9380    0.0000 C   0  0  0  0  0  0  0  0  0  0  0  0
    9.9040   -8.5255    0.0000 O   0  0  0  0  0  0  0  0  0  0  0  0
    8.4751   -7.7005    0.0000 O   0  0  0  0  0  0  0  0  0  0  0  0
    7.0462   -8.5255    0.0000 C   0  0  0  0  0  0  0  0  0  0  0  0
    6.3317   -8.9380    0.0000 C   0  0  0  0  0  0  0  0  0  0  0  0
    5.6172   -8.5255    0.0000 C   0  0  0  0  0  0  0  0  0  0  0  0
    5.6172   -7.7005    0.0000 C   0  0  0  0  0  0  0  0  0  0  0  0
    6.3317   -7.2880    0.0000 C   0  0  0  0  0  0  0  0  0  0  0  0
    7.0462   -7.7005    0.0000 C   0  0  0  0  0  0  0  0  0  0  0  0
    4.9028   -7.2880    0.0000 O   0  0  0  0  0  0  0  0  0  0  0  0
    4.1883   -7.7005    0.0000 C   0  0  0  0  0  0  0  0  0  0  0  0
  1  2  1  0  0  0  0
  2  3  1  0  0  0  0
  1  4  1  0  0  0  0
  2  5  1  0  0  0  0
  6  7  1  0  0  0  0
  7  8  2  0  0  0  0
  8  9  1  0  0  0  0
  9 10  2  0  0  0  0
 10 11  1  0  0  0  0
  6 11  2  0  0  0  0
 12 13  1  0  0  0  0
  9 12  1  0  0  0  0
  3  6  1  0  0  0  0
M  END
>  <cdx:groupId>
41

>  <cdx:fragmentId>
15

$$$$
