95030.cdx
  Mrv1902 05222410262D          

 22 24  0  0  0  0            999 V2000
    7.5529   -8.2104    0.0000 C   0  0  0  0  0  0  0  0  0  0  0  0
    7.5529   -9.0354    0.0000 C   0  0  0  0  0  0  0  0  0  0  0  0
    6.8384   -9.4479    0.0000 C   0  0  0  0  0  0  0  0  0  0  0  0
    6.8384  -10.2729    0.0000 O   0  0  0  0  0  0  0  0  0  0  0  0
    6.1239   -9.0354    0.0000 C   0  0  0  0  0  0  0  0  0  0  0  0
    5.4095   -9.4479    0.0000 C   0  0  0  0  0  0  0  0  0  0  0  0
    4.6950   -9.0354    0.0000 C   0  0  0  0  0  0  0  0  0  0  0  0
    4.6950   -8.2104    0.0000 C   0  0  0  0  0  0  0  0  0  0  0  0
    5.4095   -7.7979    0.0000 C   0  0  0  0  0  0  0  0  0  0  0  0
    6.1239   -8.2104    0.0000 C   0  0  0  0  0  0  0  0  0  0  0  0
    6.8384   -7.7979    0.0000 O   0  0  0  0  0  0  0  0  0  0  0  0
    8.2674   -7.7979    0.0000 C   0  0  0  0  0  0  0  0  0  0  0  0
    8.2674   -6.9729    0.0000 C   0  0  0  0  0  0  0  0  0  0  0  0
    8.9818   -6.5604    0.0000 C   0  0  0  0  0  0  0  0  0  0  0  0
    9.6963   -6.9729    0.0000 C   0  0  0  0  0  0  0  0  0  0  0  0
    9.6963   -7.7979    0.0000 C   0  0  0  0  0  0  0  0  0  0  0  0
    8.9818   -8.2104    0.0000 C   0  0  0  0  0  0  0  0  0  0  0  0
   10.4108   -6.5604    0.0000 O   0  0  0  0  0  0  0  0  0  0  0  0
    3.9805   -7.7979    0.0000 O   0  0  0  0  0  0  0  0  0  0  0  0
    3.9805   -9.4479    0.0000 O   0  0  0  0  0  0  0  0  0  0  0  0
    5.4095  -10.2729    0.0000 O   0  0  0  0  0  0  0  0  0  0  0  0
    8.2674   -9.4479    0.0000 O   0  0  0  0  0  0  0  0  0  0  0  0
  1  2  1  0  0  0  0
  2  3  1  0  0  0  0
  3  4  2  0  0  0  0
  3  5  1  0  0  0  0
  5  6  1  0  0  0  0
  6  7  2  0  0  0  0
  7  8  1  0  0  0  0
  8  9  2  0  0  0  0
  9 10  1  0  0  0  0
  5 10  2  0  0  0  0
 10 11  1  0  0  0  0
  1 11  1  0  0  0  0
  1 12  1  0  0  0  0
 12 13  1  0  0  0  0
 13 14  2  0  0  0  0
 14 15  1  0  0  0  0
 15 16  2  0  0  0  0
 16 17  1  0  0  0  0
 12 17  2  0  0  0  0
 15 18  1  0  0  0  0
  8 19  1  0  0  0  0
  7 20  1  0  0  0  0
  6 21  1  0  0  0  0
  2 22  1  0  0  0  0
M  END
>  <cdx:groupId>
70

>  <cdx:fragmentId>
5

$$$$
