95032.cdx
  Mrv1902 05222410272D          

 34 37  0  0  0  0            999 V2000
    8.9818   -8.0041    0.0000 C   0  0  0  0  0  0  0  0  0  0  0  0
    8.9818   -8.8291    0.0000 C   0  0  0  0  0  0  0  0  0  0  0  0
    8.2674   -9.2416    0.0000 C   0  0  0  0  0  0  0  0  0  0  0  0
    8.2674  -10.0666    0.0000 O   0  0  0  0  0  0  0  0  0  0  0  0
    7.5529   -8.8291    0.0000 C   0  0  0  0  0  0  0  0  0  0  0  0
    6.8384   -9.2416    0.0000 C   0  0  0  0  0  0  0  0  0  0  0  0
    6.8384  -10.0666    0.0000 O   0  0  0  0  0  0  0  0  0  0  0  0
    6.1239   -8.8291    0.0000 C   0  0  0  0  0  0  0  0  0  0  0  0
    6.1239   -8.0041    0.0000 C   0  0  0  0  0  0  0  0  0  0  0  0
    6.8384   -7.5916    0.0000 C   0  0  0  0  0  0  0  0  0  0  0  0
    7.5529   -8.0041    0.0000 C   0  0  0  0  0  0  0  0  0  0  0  0
    8.2674   -7.5916    0.0000 O   0  0  0  0  0  0  0  0  0  0  0  0
    9.6963   -7.5916    0.0000 C   0  0  0  0  0  0  0  0  0  0  0  0
   10.4108   -8.0041    0.0000 C   0  0  0  0  0  0  0  0  0  0  0  0
   11.1252   -7.5916    0.0000 C   0  0  0  0  0  0  0  0  0  0  0  0
   11.8397   -8.0041    0.0000 O   0  0  0  0  0  0  0  0  0  0  0  0
   11.1252   -6.7666    0.0000 C   0  0  0  0  0  0  0  0  0  0  0  0
   11.8397   -6.3541    0.0000 O   0  0  0  0  0  0  0  0  0  0  0  0
   10.4108   -6.3541    0.0000 C   0  0  0  0  0  0  0  0  0  0  0  0
    9.6963   -6.7666    0.0000 C   0  0  0  0  0  0  0  0  0  0  0  0
    5.4095   -9.2416    0.0000 O   0  0  0  0  0  0  0  0  0  0  0  0
    5.4095   -7.5916    0.0000 O   0  0  0  0  0  0  0  0  0  0  0  0
    4.6950   -8.0041    0.0000 C   0  0  0  0  0  0  0  0  0  0  0  0
    3.9805   -7.5916    0.0000 C   0  0  2  0  0  0  0  0  0  0  0  0
    3.9805   -6.7666    0.0000 O   0  0  0  0  0  0  0  0  0  0  0  0
    3.2661   -8.0041    0.0000 C   0  0  1  0  0  0  0  0  0  0  0  0
    2.5516   -7.5916    0.0000 O   0  0  0  0  0  0  0  0  0  0  0  0
    3.2661   -8.8291    0.0000 C   0  0  2  0  0  0  0  0  0  0  0  0
    2.5516   -9.2416    0.0000 O   0  0  0  0  0  0  0  0  0  0  0  0
    3.9805   -9.2416    0.0000 C   0  0  2  0  0  0  0  0  0  0  0  0
    4.6950   -8.8291    0.0000 O   0  0  0  0  0  0  0  0  0  0  0  0
    3.9805  -10.0666    0.0000 C   0  0  0  0  0  0  0  0  0  0  0  0
    4.6950  -10.4791    0.0000 O   0  0  0  0  0  0  0  0  0  0  0  0
    3.2661  -10.4791    0.0000 O   0  0  0  0  0  0  0  0  0  0  0  0
  1  2  2  0  0  0  0
  2  3  1  0  0  0  0
  3  4  2  0  0  0  0
  3  5  1  0  0  0  0
  5  6  1  0  0  0  0
  6  7  1  0  0  0  0
  6  8  2  0  0  0  0
  8  9  1  0  0  0  0
  9 10  2  0  0  0  0
 10 11  1  0  0  0  0
  5 11  2  0  0  0  0
 11 12  1  0  0  0  0
  1 12  1  0  0  0  0
  1 13  1  0  0  0  0
 13 14  1  0  0  0  0
 14 15  2  0  0  0  0
 15 16  1  0  0  0  0
 15 17  1  0  0  0  0
 17 18  1  0  0  0  0
 17 19  2  0  0  0  0
 19 20  1  0  0  0  0
 13 20  2  0  0  0  0
  8 21  1  0  0  0  0
 22 23  1  0  0  0  0
 23 24  1  0  0  0  0
 24 25  1  1  0  0  0
 24 26  1  0  0  0  0
 26 27  1  6  0  0  0
 26 28  1  0  0  0  0
 28 29  1  1  0  0  0
 28 30  1  0  0  0  0
 30 31  1  0  0  0  0
 30 32  1  6  0  0  0
 23 31  1  0  0  0  0
 32 33  2  0  0  0  0
 32 34  1  0  0  0  0
  9 22  1  0  0  0  0
M  END
>  <cdx:groupId>
107

>  <cdx:fragmentId>
5

$$$$
