95042.cdx
  Mrv1902 05222410252D          

 42 47  0  0  0  0            999 V2000
    5.4498   -5.3047    0.0000 C   0  0  2  0  0  0  0  0  0  0  0  0
    4.7408   -4.8829    0.0000 C   0  0  0  0  0  0  0  0  0  0  0  0
    3.9529   -5.1276    0.0000 N   0  0  0  0  0  0  0  0  0  0  0  0
    3.4767   -4.4539    0.0000 C   0  0  0  0  0  0  0  0  0  0  0  0
    2.6574   -4.3570    0.0000 C   0  0  0  0  0  0  0  0  0  0  0  0
    2.3317   -3.5990    0.0000 C   0  0  0  0  0  0  0  0  0  0  0  0
    2.8253   -2.9379    0.0000 C   0  0  0  0  0  0  0  0  0  0  0  0
    3.6446   -3.0349    0.0000 C   0  0  0  0  0  0  0  0  0  0  0  0
    3.9703   -3.7928    0.0000 C   0  0  0  0  0  0  0  0  0  0  0  0
    4.7515   -4.0580    0.0000 C   0  0  0  0  0  0  0  0  0  0  0  0
    5.4713   -3.6548    0.0000 C   0  0  0  0  0  0  0  0  0  0  0  0
    6.1804   -4.0766    0.0000 C   0  0  0  0  0  0  0  0  0  0  0  0
    6.1696   -4.9015    0.0000 N   0  0  0  0  0  0  0  0  0  0  0  0
    6.9336   -5.2129    0.0000 C   0  0  0  0  0  0  0  0  0  0  0  0
    7.1665   -6.0043    0.0000 C   0  0  2  0  0  0  0  0  0  0  0  0
    6.6929   -6.6799    0.0000 C   0  0  1  0  0  0  0  0  0  0  0  0
    7.1487   -7.3675    0.0000 C   0  0  1  0  0  0  0  0  0  0  0  0
    6.7811   -8.1061    0.0000 O   0  0  0  0  0  0  0  0  0  0  0  0
    5.9577   -8.1570    0.0000 C   0  0  0  0  0  0  0  0  0  0  0  0
    5.5019   -7.4694    0.0000 C   0  0  0  0  0  0  0  0  0  0  0  0
    5.8695   -6.7308    0.0000 C   0  0  1  0  0  0  0  0  0  0  0  0
    5.3163   -6.1188    0.0000 C   0  0  0  0  0  0  0  0  0  0  0  0
    7.9634   -6.2179    0.0000 O   0  0  0  0  0  0  0  0  0  0  0  0
    7.9722   -7.3166    0.0000 O   0  0  0  0  0  0  0  0  0  0  0  0
    8.0604   -8.7428    0.0000 O   0  0  0  0  0  0  0  0  0  0  0  0
    8.4280   -8.0042    0.0000 C   0  0  2  0  0  0  0  0  0  0  0  0
    9.2514   -7.9533    0.0000 C   0  0  1  0  0  0  0  0  0  0  0  0
    9.7072   -8.6409    0.0000 C   0  0  2  0  0  0  0  0  0  0  0  0
    9.3396   -9.3795    0.0000 C   0  0  1  0  0  0  0  0  0  0  0  0
    8.5162   -9.4305    0.0000 C   0  0  1  0  0  0  0  0  0  0  0  0
    8.1486  -10.1690    0.0000 C   0  0  0  0  0  0  0  0  0  0  0  0
    8.6044  -10.8567    0.0000 O   0  0  0  0  0  0  0  0  0  0  0  0
    9.7954  -10.0672    0.0000 O   0  0  0  0  0  0  0  0  0  0  0  0
   10.5307   -8.5900    0.0000 O   0  0  0  0  0  0  0  0  0  0  0  0
    9.6190   -7.2147    0.0000 O   0  0  0  0  0  0  0  0  0  0  0  0
    3.4874   -8.3098    0.0000 C   0  0  0  0  0  0  0  0  0  0  0  0
    4.3108   -8.2589    0.0000 O   0  0  0  0  0  0  0  0  0  0  0  0
    4.1972   -6.8502    0.0000 O   0  0  0  0  0  0  0  0  0  0  0  0
    4.6785   -7.5203    0.0000 C   0  0  0  0  0  0  0  0  0  0  0  0
    5.0461   -6.7817    0.0000 H   0  0  0  0  0  0  0  0  0  0  0  0
    7.5163   -6.6289    0.0000 H   0  0  0  0  0  0  0  0  0  0  0  0
    4.7354   -5.7172    0.0000 H   0  0  0  0  0  0  0  0  0  0  0  0
 37 36  1  0  0  0  0
 39 37  1  0  0  0  0
 39 38  2  0  0  0  0
  1  2  1  0  0  0  0
  2  3  1  0  0  0  0
  3  4  1  0  0  0  0
  4  5  2  0  0  0  0
  5  6  1  0  0  0  0
  6  7  2  0  0  0  0
  7  8  1  0  0  0  0
  8  9  2  0  0  0  0
  9 10  1  0  0  0  0
 10 11  1  0  0  0  0
 11 12  1  0  0  0  0
 12 13  1  0  0  0  0
 13 14  1  0  0  0  0
 14 15  1  0  0  0  0
 15 16  1  0  0  0  0
 16 17  1  0  0  0  0
 17 18  1  0  0  0  0
 18 19  1  0  0  0  0
 19 20  2  0  0  0  0
 20 21  1  0  0  0  0
 21 22  1  0  0  0  0
  1 22  1  0  0  0  0
 15 23  1  1  0  0  0
  1 13  1  0  0  0  0
  2 10  2  0  0  0  0
  4  9  1  0  0  0  0
 16 21  1  0  0  0  0
 20 39  1  0  0  0  0
 25 26  1  0  0  0  0
 26 27  1  0  0  0  0
 27 28  1  0  0  0  0
 28 29  1  0  0  0  0
 29 30  1  0  0  0  0
 25 30  1  0  0  0  0
 31 32  1  0  0  0  0
 30 31  1  1  0  0  0
 29 33  1  6  0  0  0
 28 34  1  1  0  0  0
 27 35  1  6  0  0  0
 26 24  1  1  0  0  0
 17 24  1  6  0  0  0
 21 40  1  6  0  0  0
 16 41  1  6  0  0  0
  1 42  1  1  0  0  0
M  END
>  <cdx:fragmentId>
8

$$$$
