950494.cdx
  Mrv1902 05222410222D          

 50 55  0  0  0  0            999 V2000
    6.1698   -9.7667    0.0000 H   0  0  0  0  0  0  0  0  0  0  0  0
    7.5337   -9.8575    0.0000 H   0  0  0  0  0  0  0  0  0  0  0  0
    8.9542   -6.2404    0.0000 H   0  0  0  0  0  0  0  0  0  0  0  0
    6.8524   -8.5113    0.0000 H   0  0  0  0  0  0  0  0  0  0  0  0
   11.5761   -8.6685    0.0000 C   0  0  0  0  0  0  0  0  0  0  0  0
   10.7518   -8.7019    0.0000 C   0  0  0  0  0  0  0  0  0  0  0  0
   10.4653   -7.9283    0.0000 C   0  0  0  0  0  0  0  0  0  0  0  0
   11.1125   -7.4167    0.0000 C   0  0  0  0  0  0  0  0  0  0  0  0
   11.7990   -7.8741    0.0000 O   0  0  0  0  0  0  0  0  0  0  0  0
    4.0376   -9.4089    0.0000 O   0  0  0  0  0  0  0  0  0  0  0  0
    7.4308   -4.8371    0.0000 C   0  0  0  0  0  0  0  0  0  0  0  0
    6.9331   -5.4950    0.0000 O   0  0  0  0  0  0  0  0  0  0  0  0
    6.1487   -7.2920    0.0000 C   0  0  0  0  0  0  0  0  0  0  0  0
    9.0448   -9.0417    0.0000 C   0  0  0  0  0  0  0  0  0  0  0  0
    7.5772   -7.2554    0.0000 C   0  0  0  0  0  0  0  0  0  0  0  0
    4.8553   -9.9269    0.0000 C   0  0  0  0  0  0  0  0  0  0  0  0
    9.7726  -10.0874    0.0000 C   0  0  0  0  0  0  0  0  0  0  0  0
    7.6405  -10.5546    0.0000 O   0  0  0  0  0  0  0  0  0  0  0  0
    9.8149  -11.7369    0.0000 C   0  0  0  0  0  0  0  0  0  0  0  0
    9.0901  -11.3428    0.0000 C   0  0  0  0  0  0  0  0  0  0  0  0
    9.0690  -10.5180    0.0000 C   0  0  0  0  0  0  0  0  0  0  0  0
    8.3442  -10.1240    0.0000 C   0  0  0  0  0  0  0  0  0  0  0  0
    8.3231   -9.2992    0.0000 O   0  0  0  0  0  0  0  0  0  0  0  0
    6.1698   -8.9417    0.0000 C   0  0  2  0  0  0  0  0  0  0  0  0
    5.4239   -7.7229    0.0000 C   0  0  1  0  0  0  0  0  0  0  0  0
    4.7202   -8.1535    0.0000 C   0  0  0  0  0  0  0  0  0  0  0  0
    4.7413   -8.9783    0.0000 C   0  0  2  0  0  0  0  0  0  0  0  0
    5.4661   -9.3724    0.0000 C   0  0  2  0  0  0  0  0  0  0  0  0
    5.7889  -10.1326    0.0000 C   0  0  0  0  0  0  0  0  0  0  0  0
    6.6137  -10.1115    0.0000 O   0  0  0  0  0  0  0  0  0  0  0  0
    6.8946   -9.3358    0.0000 C   0  0  1  0  0  0  0  0  0  0  0  0
    7.5983   -8.9051    0.0000 C   0  0  2  0  0  0  0  0  0  0  0  0
    7.5772   -8.0804    0.0000 C   0  0  2  0  0  0  0  0  0  0  0  0
    8.3372   -7.7595    0.0000 C   0  0  0  0  0  0  0  0  0  0  0  0
    9.0237   -8.2169    0.0000 C   0  0  0  0  0  0  0  0  0  0  0  0
    9.6709   -7.7053    0.0000 C   0  0  1  0  0  0  0  0  0  0  0  0
    9.3844   -6.9317    0.0000 C   0  0  0  0  0  0  0  0  0  0  0  0
    8.5601   -6.9651    0.0000 C   0  0  2  0  0  0  0  0  0  0  0  0
    8.0781   -6.2956    0.0000 O   0  0  0  0  0  0  0  0  0  0  0  0
    7.2541   -6.2550    0.0000 C   0  0  2  0  0  0  0  0  0  0  0  0
    6.7086   -6.8740    0.0000 C   0  0  0  0  0  0  0  0  0  0  0  0
    6.8524   -7.6863    0.0000 C   0  0  2  0  0  0  0  0  0  0  0  0
    6.1487   -8.1170    0.0000 C   0  0  1  0  0  0  0  0  0  0  0  0
    5.3606   -5.2487    0.0000 C   0  0  0  0  0  0  0  0  0  0  0  0
    5.4028   -6.8982    0.0000 O   0  0  0  0  0  0  0  0  0  0  0  0
    3.9743   -6.9347    0.0000 O   0  0  0  0  0  0  0  0  0  0  0  0
    3.9110   -4.4605    0.0000 C   0  0  0  0  0  0  0  0  0  0  0  0
    3.9321   -5.2853    0.0000 C   0  0  0  0  0  0  0  0  0  0  0  0
    4.6569   -5.6794    0.0000 C   0  0  0  0  0  0  0  0  0  0  0  0
    4.6780   -6.5041    0.0000 C   0  0  0  0  0  0  0  0  0  0  0  0
 24  1  1  6  0  0  0
 31  2  1  1  0  0  0
 38  3  1  6  0  0  0
 42  4  1  6  0  0  0
 25 45  1  6  0  0  0
 36  7  1  1  0  0  0
  9  5  1  0  0  0  0
  6  5  2  0  0  0  0
  7  6  1  0  0  0  0
  8  7  2  0  0  0  0
  9  8  1  0  0  0  0
 27 10  1  6  0  0  0
 40 12  1  6  0  0  0
 12 11  1  0  0  0  0
 43 13  1  1  0  0  0
 35 14  1  0  0  0  0
 33 15  1  1  0  0  0
 28 16  1  1  0  0  0
 32 23  1  6  0  0  0
 23 22  1  0  0  0  0
 21 17  1  0  0  0  0
 22 18  2  0  0  0  0
 20 19  1  0  0  0  0
 21 20  2  0  0  0  0
 22 21  1  0  0  0  0
 28 24  1  0  0  0  0
 38 34  1  0  0  0  0
 42 33  1  0  0  0  0
 24 31  1  0  0  0  0
 43 24  1  0  0  0  0
 43 25  1  0  0  0  0
 26 25  1  0  0  0  0
 27 26  1  0  0  0  0
 28 27  1  0  0  0  0
 29 28  1  0  0  0  0
 30 29  1  0  0  0  0
 31 30  1  0  0  0  0
 32 31  1  0  0  0  0
 33 32  1  0  0  0  0
 34 33  1  0  0  0  0
 35 34  2  0  0  0  0
 36 35  1  0  0  0  0
 37 36  1  0  0  0  0
 38 37  1  0  0  0  0
 39 38  1  0  0  0  0
 40 39  1  0  0  0  0
 41 40  1  0  0  0  0
 42 41  1  0  0  0  0
 43 42  1  0  0  0  0
 49 44  1  0  0  0  0
 50 45  1  0  0  0  0
 50 46  2  0  0  0  0
 48 47  1  0  0  0  0
 49 48  2  0  0  0  0
 50 49  1  0  0  0  0
M  END
>  <cdx:fragmentId>
190643

$$$$
