95043.cdx
  Mrv1902 05222410252D          

 26 29  0  0  0  0            999 V2000
    8.2649   -7.3851    0.0000 C   0  0  0  0  0  0  0  0  0  0  0  0
    8.9789   -6.9719    0.0000 C   0  0  0  0  0  0  0  0  0  0  0  0
    9.6938   -7.3837    0.0000 C   0  0  0  0  0  0  0  0  0  0  0  0
    9.6946   -8.2087    0.0000 C   0  0  0  0  0  0  0  0  0  0  0  0
    8.9806   -8.6219    0.0000 C   0  0  0  0  0  0  0  0  0  0  0  0
    8.9814   -9.4469    0.0000 C   0  0  0  0  0  0  0  0  0  0  0  0
    8.2673   -9.8601    0.0000 C   0  0  0  0  0  0  0  0  0  0  0  0
    7.5525   -9.4483    0.0000 N   0  0  0  0  0  0  0  0  0  0  0  0
    6.8384   -9.8615    0.0000 C   0  0  0  0  0  0  0  0  0  0  0  0
    6.1235   -9.4498    0.0000 C   0  0  0  0  0  0  0  0  0  0  0  0
    5.4095   -9.8630    0.0000 C   0  0  0  0  0  0  0  0  0  0  0  0
    4.6946   -9.4512    0.0000 C   0  0  0  0  0  0  0  0  0  0  0  0
    4.6938   -8.6262    0.0000 C   0  0  0  0  0  0  0  0  0  0  0  0
    5.4078   -8.2130    0.0000 C   0  0  0  0  0  0  0  0  0  0  0  0
    6.1227   -8.6248    0.0000 C   0  0  0  0  0  0  0  0  0  0  0  0
    6.8368   -8.2115    0.0000 C   0  0  0  0  0  0  0  0  0  0  0  0
    7.5516   -8.6233    0.0000 C   0  0  0  0  0  0  0  0  0  0  0  0
    8.2657   -8.2101    0.0000 C   0  0  0  0  0  0  0  0  0  0  0  0
    3.9805   -9.8644    0.0000 O   0  0  0  0  0  0  0  0  0  0  0  0
    3.2660   -9.4519    0.0000 C   0  0  0  0  0  0  0  0  0  0  0  0
    5.4103  -10.6880    0.0000 O   0  0  0  0  0  0  0  0  0  0  0  0
    4.6962  -11.1012    0.0000 C   0  0  0  0  0  0  0  0  0  0  0  0
   10.4079   -6.9705    0.0000 O   0  0  0  0  0  0  0  0  0  0  0  0
   10.4071   -6.1455    0.0000 C   0  0  0  0  0  0  0  0  0  0  0  0
    6.8359   -7.3866    0.0000 C   0  0  0  0  0  0  0  0  0  0  0  0
    8.9781   -6.1469    0.0000 O   0  0  0  0  0  0  0  0  0  0  0  0
  1  2  1  0  0  0  0
  2  3  2  0  0  0  0
  3  4  1  0  0  0  0
  4  5  2  0  0  0  0
  5  6  1  0  0  0  0
  6  7  1  0  0  0  0
  7  8  1  0  0  0  0
  8  9  1  0  0  0  0
  9 10  1  0  0  0  0
 10 11  1  0  0  0  0
 11 12  2  0  0  0  0
 12 13  1  0  0  0  0
 13 14  2  0  0  0  0
 14 15  1  0  0  0  0
 10 15  2  0  0  0  0
 15 16  1  0  0  0  0
 16 17  1  0  0  0  0
  8 17  1  0  0  0  0
 17 18  1  0  0  0  0
  5 18  1  0  0  0  0
  1 18  2  0  0  0  0
 19 20  1  0  0  0  0
 12 19  1  0  0  0  0
 21 22  1  0  0  0  0
 11 21  1  0  0  0  0
 23 24  1  0  0  0  0
  3 23  1  0  0  0  0
 16 25  1  0  0  0  0
  2 26  1  0  0  0  0
M  END
>  <cdx:fragmentId>
5

$$$$
