95040.cdx
  Mrv1902 05222410252D          

 11 11  0  0  0  0            999 V2000
    8.4751   -8.0512    0.0000 C   0  0  0  0  0  0  0  0  0  0  0  0
    8.4751   -8.8762    0.0000 C   0  0  0  0  0  0  0  0  0  0  0  0
    7.7606   -9.2887    0.0000 C   0  0  0  0  0  0  0  0  0  0  0  0
    7.0462   -8.8762    0.0000 C   0  0  0  0  0  0  0  0  0  0  0  0
    7.0462   -8.0512    0.0000 C   0  0  0  0  0  0  0  0  0  0  0  0
    7.7606   -7.6387    0.0000 C   0  0  0  0  0  0  0  0  0  0  0  0
    9.1896   -7.6387    0.0000 O   0  0  0  0  0  0  0  0  0  0  0  0
    6.3317   -9.2887    0.0000 C   0  0  0  0  0  0  0  0  0  0  0  0
    5.6172   -8.8762    0.0000 C   0  0  0  0  0  0  0  0  0  0  0  0
    4.9028   -9.2887    0.0000 C   0  0  0  0  0  0  0  0  0  0  0  0
    5.6172   -8.0512    0.0000 O   0  0  0  0  0  0  0  0  0  0  0  0
  1  2  1  0  0  0  0
  2  3  2  0  0  0  0
  3  4  1  0  0  0  0
  4  5  2  0  0  0  0
  5  6  1  0  0  0  0
  1  6  2  0  0  0  0
  1  7  1  0  0  0  0
  8  9  1  0  0  0  0
  9 10  1  0  0  0  0
  9 11  1  0  0  0  0
  4  8  1  0  0  0  0
M  END
>  <cdx:groupId>
35

>  <cdx:fragmentId>
5

$$$$
