95041.cdx
  Mrv1902 05222410252D          

 26 29  0  0  0  0            999 V2000
    8.2089   -6.5058    0.0000 C   0  0  0  0  0  0  0  0  0  0  0  0
    7.4904   -6.9112    0.0000 C   0  0  0  0  0  0  0  0  0  0  0  0
    7.4822   -7.7362    0.0000 C   0  0  0  0  0  0  0  0  0  0  0  0
    8.1926   -8.1557    0.0000 C   0  0  0  0  0  0  0  0  0  0  0  0
    8.9111   -7.7503    0.0000 C   0  0  0  0  0  0  0  0  0  0  0  0
    8.9192   -6.9253    0.0000 C   0  0  0  0  0  0  0  0  0  0  0  0
    6.7637   -8.1416    0.0000 C   0  0  0  0  0  0  0  0  0  0  0  0
    6.7555   -8.9665    0.0000 C   0  0  0  0  0  0  0  0  0  0  0  0
    7.4659   -9.3861    0.0000 C   0  0  0  0  0  0  0  0  0  0  0  0
    8.1844   -8.9807    0.0000 C   0  0  0  0  0  0  0  0  0  0  0  0
    8.8948   -9.4002    0.0000 N   0  0  0  0  0  0  0  0  0  0  0  0
    9.6133   -8.9948    0.0000 C   0  0  0  0  0  0  0  0  0  0  0  0
    9.6214   -8.1698    0.0000 C   0  0  0  0  0  0  0  0  0  0  0  0
    6.0533   -7.7220    0.0000 C   0  0  0  0  0  0  0  0  0  0  0  0
    5.3348   -8.1275    0.0000 C   0  0  0  0  0  0  0  0  0  0  0  0
    5.3267   -8.9524    0.0000 C   0  0  0  0  0  0  0  0  0  0  0  0
    6.0370   -9.3720    0.0000 C   0  0  0  0  0  0  0  0  0  0  0  0
    8.2170   -5.6808    0.0000 O   0  0  0  0  0  0  0  0  0  0  0  0
    6.7800   -6.4917    0.0000 O   0  0  0  0  0  0  0  0  0  0  0  0
    6.7882   -5.6667    0.0000 C   0  0  0  0  0  0  0  0  0  0  0  0
    6.0615   -6.8971    0.0000 O   0  0  0  0  0  0  0  0  0  0  0  0
    5.3511   -6.4775    0.0000 C   0  0  0  0  0  0  0  0  0  0  0  0
    4.6245   -7.7079    0.0000 O   0  0  0  0  0  0  0  0  0  0  0  0
    3.9060   -8.1133    0.0000 C   0  0  0  0  0  0  0  0  0  0  0  0
    8.8866  -10.2252    0.0000 C   0  0  0  0  0  0  0  0  0  0  0  0
    8.9356   -5.2754    0.0000 C   0  0  0  0  0  0  0  0  0  0  0  0
  1  2  2  0  0  0  0
  2  3  1  0  0  0  0
  3  4  2  0  0  0  0
  4  5  1  0  0  0  0
  5  6  2  0  0  0  0
  6  1  1  0  0  0  0
  3  7  1  0  0  0  0
  7  8  2  0  0  0  0
  8  9  1  0  0  0  0
  9 10  1  0  0  0  0
 10  4  1  0  0  0  0
 10 11  1  0  0  0  0
 11 12  1  0  0  0  0
 12 13  1  0  0  0  0
 13  5  1  0  0  0  0
  7 14  1  0  0  0  0
 14 15  2  0  0  0  0
 15 16  1  0  0  0  0
 16 17  2  0  0  0  0
 17  8  1  0  0  0  0
  1 18  1  0  0  0  0
  2 19  1  0  0  0  0
 19 20  1  0  0  0  0
 14 21  1  0  0  0  0
 21 22  1  0  0  0  0
 15 23  1  0  0  0  0
 23 24  1  0  0  0  0
 11 25  1  0  0  0  0
 18 26  1  0  0  0  0
M  END
>  <cdx:fragmentId>
5

$$$$
