95045.cdx
  Mrv1902 05222410242D          

 25 28  0  0  0  0            999 V2000
    9.3353  -10.1164    0.0000 N   0  3  0  0  0  0  0  0  0  0  0  0
   10.0496   -9.7036    0.0000 C   0  0  0  0  0  0  0  0  0  0  0  0
   10.0499   -8.8786    0.0000 C   0  0  0  0  0  0  0  0  0  0  0  0
    9.3358   -8.4654    0.0000 C   0  0  0  0  0  0  0  0  0  0  0  0
    8.6214   -8.8779    0.0000 C   0  0  0  0  0  0  0  0  0  0  0  0
    7.9069   -8.4654    0.0000 C   0  0  0  0  0  0  0  0  0  0  0  0
    7.1924   -8.8779    0.0000 C   0  0  0  0  0  0  0  0  0  0  0  0
    7.1924   -9.7029    0.0000 C   0  0  0  0  0  0  0  0  0  0  0  0
    7.9069  -10.1154    0.0000 C   0  0  0  0  0  0  0  0  0  0  0  0
    8.6214   -9.7029    0.0000 C   0  0  0  0  0  0  0  0  0  0  0  0
    7.9069   -7.6404    0.0000 C   0  0  0  0  0  0  0  0  0  0  0  0
    8.6214   -7.2279    0.0000 C   0  0  0  0  0  0  0  0  0  0  0  0
    9.3358   -7.6404    0.0000 C   0  0  0  0  0  0  0  0  0  0  0  0
    6.4779  -10.1154    0.0000 C   0  0  0  0  0  0  0  0  0  0  0  0
    5.7635   -9.7029    0.0000 C   0  0  0  0  0  0  0  0  0  0  0  0
    5.7635   -8.8779    0.0000 C   0  0  0  0  0  0  0  0  0  0  0  0
    6.4779   -8.4654    0.0000 C   0  0  0  0  0  0  0  0  0  0  0  0
    8.9228  -10.8308    0.0000 C   0  0  0  0  0  0  0  0  0  0  0  0
    9.7478  -10.8308    0.0000 C   0  0  0  0  0  0  0  0  0  0  0  0
    5.0490   -8.4654    0.0000 O   0  0  0  0  0  0  0  0  0  0  0  0
    4.3345   -8.8779    0.0000 C   0  0  0  0  0  0  0  0  0  0  0  0
    8.6214   -6.4029    0.0000 O   0  0  0  0  0  0  0  0  0  0  0  0
    9.3358   -5.9904    0.0000 C   0  0  0  0  0  0  0  0  0  0  0  0
    6.4779   -7.6404    0.0000 O   0  0  0  0  0  0  0  0  0  0  0  0
    7.1924   -7.2279    0.0000 O   0  0  0  0  0  0  0  0  0  0  0  0
  1  2  1  0  0  0  0
  2  3  1  0  0  0  0
  3  4  1  0  0  0  0
  4  5  1  0  0  0  0
  5  6  2  0  0  0  0
  6  7  1  0  0  0  0
  7  8  1  0  0  0  0
  8  9  1  0  0  0  0
  9 10  1  0  0  0  0
  1 10  1  0  0  0  0
  5 10  1  0  0  0  0
 11 12  2  0  0  0  0
 12 13  1  0  0  0  0
 13  4  2  0  0  0  0
 11  6  1  0  0  0  0
 14 15  1  0  0  0  0
 15 16  2  0  0  0  0
 16 17  1  0  0  0  0
 17  7  2  0  0  0  0
 14  8  2  0  0  0  0
  1 18  1  0  0  0  0
  1 19  1  0  0  0  0
 20 21  1  0  0  0  0
 16 20  1  0  0  0  0
 22 23  1  0  0  0  0
 12 22  1  0  0  0  0
 17 24  1  0  0  0  0
 11 25  1  0  0  0  0
M  CHG  1   1   1
M  END
>  <cdx:groupId>
80

>  <cdx:fragmentId>
5

$$$$
