95047.cdx
  Mrv1902 05222410232D          

 25 28  0  0  0  0            999 V2000
    9.1280   -9.9668    0.0000 N   0  3  0  0  0  0  0  0  0  0  0  0
    9.8423   -9.5541    0.0000 C   0  0  0  0  0  0  0  0  0  0  0  0
    9.8426   -8.7291    0.0000 C   0  0  0  0  0  0  0  0  0  0  0  0
    9.1276   -8.3175    0.0000 C   0  0  0  0  0  0  0  0  0  0  0  0
    8.4131   -8.7300    0.0000 C   0  0  0  0  0  0  0  0  0  0  0  0
    7.6987   -8.3175    0.0000 C   0  0  0  0  0  0  0  0  0  0  0  0
    6.9842   -8.7300    0.0000 C   0  0  0  0  0  0  0  0  0  0  0  0
    6.9842   -9.5550    0.0000 C   0  0  0  0  0  0  0  0  0  0  0  0
    7.6987   -9.9675    0.0000 C   0  0  0  0  0  0  0  0  0  0  0  0
    8.4131   -9.5550    0.0000 C   0  0  0  0  0  0  0  0  0  0  0  0
    7.6987   -7.4925    0.0000 C   0  0  0  0  0  0  0  0  0  0  0  0
    8.4131   -7.0800    0.0000 C   0  0  0  0  0  0  0  0  0  0  0  0
    9.1276   -7.4925    0.0000 C   0  0  0  0  0  0  0  0  0  0  0  0
    6.2697   -9.9675    0.0000 C   0  0  0  0  0  0  0  0  0  0  0  0
    5.5552   -9.5550    0.0000 C   0  0  0  0  0  0  0  0  0  0  0  0
    5.5552   -8.7300    0.0000 C   0  0  0  0  0  0  0  0  0  0  0  0
    6.2697   -8.3175    0.0000 C   0  0  0  0  0  0  0  0  0  0  0  0
    8.7155  -10.6813    0.0000 C   0  0  0  0  0  0  0  0  0  0  0  0
    9.5405  -10.6813    0.0000 C   0  0  0  0  0  0  0  0  0  0  0  0
    6.2697   -7.4925    0.0000 O   0  0  0  0  0  0  0  0  0  0  0  0
    5.5552   -7.0800    0.0000 C   0  0  0  0  0  0  0  0  0  0  0  0
    6.9842   -7.0800    0.0000 O   0  0  0  0  0  0  0  0  0  0  0  0
    6.9842   -6.2550    0.0000 C   0  0  0  0  0  0  0  0  0  0  0  0
    4.8408   -8.3175    0.0000 O   0  0  0  0  0  0  0  0  0  0  0  0
    8.4131   -6.2550    0.0000 O   0  0  0  0  0  0  0  0  0  0  0  0
  1  2  1  0  0  0  0
  2  3  1  0  0  0  0
  3  4  1  0  0  0  0
  4  5  1  0  0  0  0
  5  6  2  0  0  0  0
  6  7  1  0  0  0  0
  7  8  1  0  0  0  0
  8  9  1  0  0  0  0
  9 10  1  0  0  0  0
  1 10  1  0  0  0  0
  5 10  1  0  0  0  0
 11 12  2  0  0  0  0
 12 13  1  0  0  0  0
 13  4  2  0  0  0  0
 11  6  1  0  0  0  0
 14 15  1  0  0  0  0
 15 16  2  0  0  0  0
 16 17  1  0  0  0  0
 17  7  2  0  0  0  0
 14  8  2  0  0  0  0
  1 18  1  0  0  0  0
  1 19  1  0  0  0  0
 20 21  1  0  0  0  0
 17 20  1  0  0  0  0
 22 23  1  0  0  0  0
 11 22  1  0  0  0  0
 16 24  1  0  0  0  0
 12 25  1  0  0  0  0
M  CHG  1   1   1
M  END
>  <cdx:groupId>
80

>  <cdx:fragmentId>
5

$$$$
