95050.cdx
  Mrv1902 05222410242D          

 26 29  0  0  0  0            999 V2000
    8.2674   -8.0531    0.0000 C   0  0  0  0  0  0  0  0  0  0  0  0
    8.9818   -8.4656    0.0000 C   0  0  0  0  0  0  0  0  0  0  0  0
    8.9818   -9.2906    0.0000 C   0  0  0  0  0  0  0  0  0  0  0  0
    8.2674   -9.7031    0.0000 C   0  0  0  0  0  0  0  0  0  0  0  0
    7.5529   -9.2906    0.0000 N   0  3  0  0  0  0  0  0  0  0  0  0
    6.8384   -9.7031    0.0000 C   0  0  0  0  0  0  0  0  0  0  0  0
    6.1239   -9.2906    0.0000 C   0  0  0  0  0  0  0  0  0  0  0  0
    6.1239   -8.4656    0.0000 C   0  0  0  0  0  0  0  0  0  0  0  0
    6.8384   -8.0531    0.0000 C   0  0  0  0  0  0  0  0  0  0  0  0
    7.5529   -8.4656    0.0000 C   0  0  0  0  0  0  0  0  0  0  0  0
    9.6963   -8.0531    0.0000 C   0  0  0  0  0  0  0  0  0  0  0  0
    9.6963   -7.2281    0.0000 C   0  0  0  0  0  0  0  0  0  0  0  0
    8.9818   -6.8156    0.0000 C   0  0  0  0  0  0  0  0  0  0  0  0
    8.2674   -7.2281    0.0000 C   0  0  0  0  0  0  0  0  0  0  0  0
    5.4095   -8.0531    0.0000 C   0  0  0  0  0  0  0  0  0  0  0  0
    4.6950   -8.4656    0.0000 C   0  0  0  0  0  0  0  0  0  0  0  0
    4.6950   -9.2906    0.0000 C   0  0  0  0  0  0  0  0  0  0  0  0
    5.4095   -9.7031    0.0000 C   0  0  0  0  0  0  0  0  0  0  0  0
    7.5529  -10.1156    0.0000 C   0  0  0  0  0  0  0  0  0  0  0  0
    3.9805   -9.7031    0.0000 O   0  0  0  0  0  0  0  0  0  0  0  0
    3.2661   -9.2906    0.0000 C   0  0  0  0  0  0  0  0  0  0  0  0
    5.4095  -10.5281    0.0000 O   0  0  0  0  0  0  0  0  0  0  0  0
    4.6950  -10.9406    0.0000 C   0  0  0  0  0  0  0  0  0  0  0  0
   10.4108   -6.8156    0.0000 O   0  0  0  0  0  0  0  0  0  0  0  0
   11.1252   -7.2281    0.0000 C   0  0  0  0  0  0  0  0  0  0  0  0
    8.9818   -5.9906    0.0000 O   0  0  0  0  0  0  0  0  0  0  0  0
  1  2  1  0  0  0  0
  2  3  1  0  0  0  0
  3  4  1  0  0  0  0
  4  5  1  0  0  0  0
  5  6  1  0  0  0  0
  6  7  1  0  0  0  0
  7  8  1  0  0  0  0
  8  9  1  0  0  0  0
  9 10  1  0  0  0  0
  5 10  1  0  0  0  0
  1 10  1  0  0  0  0
 11 12  1  0  0  0  0
 12 13  2  0  0  0  0
 13 14  1  0  0  0  0
 14  1  2  0  0  0  0
 11  2  2  0  0  0  0
 15 16  1  0  0  0  0
 16 17  2  0  0  0  0
 17 18  1  0  0  0  0
 18  7  2  0  0  0  0
 15  8  2  0  0  0  0
  5 19  1  0  0  0  0
 20 21  1  0  0  0  0
 17 20  1  0  0  0  0
 22 23  1  0  0  0  0
 18 22  1  0  0  0  0
 24 25  1  0  0  0  0
 12 24  1  0  0  0  0
 13 26  1  0  0  0  0
M  CHG  1   5   1
M  END
>  <cdx:groupId>
83

>  <cdx:fragmentId>
5

$$$$
