95055.cdx
  Mrv1902 05222410252D          

 39 42  0  0  0  0            999 V2000
    9.3635   -8.2104    0.0000 C   0  0  1  0  0  0  0  0  0  0  0  0
   10.0780   -7.7979    0.0000 C   0  0  1  0  0  0  0  0  0  0  0  0
   10.0780   -6.9729    0.0000 C   0  0  1  0  0  0  0  0  0  0  0  0
    9.3635   -6.5604    0.0000 C   0  0  0  0  0  0  0  0  0  0  0  0
    8.6490   -6.9729    0.0000 C   0  0  0  0  0  0  0  0  0  0  0  0
    8.6490   -7.7979    0.0000 O   0  0  0  0  0  0  0  0  0  0  0  0
   10.8626   -6.7179    0.0000 C   0  0  0  0  0  0  0  0  0  0  0  0
   11.3475   -7.3854    0.0000 C   0  0  1  0  0  0  0  0  0  0  0  0
   10.8626   -8.0528    0.0000 C   0  0  2  0  0  0  0  0  0  0  0  0
    9.3635   -5.7354    0.0000 C   0  0  0  0  0  0  0  0  0  0  0  0
   10.0780   -5.3229    0.0000 O   0  0  0  0  0  0  0  0  0  0  0  0
    8.6490   -5.3229    0.0000 O   0  0  0  0  0  0  0  0  0  0  0  0
    9.3635   -9.0354    0.0000 O   0  0  0  0  0  0  0  0  0  0  0  0
    7.9346   -9.0354    0.0000 O   0  0  0  0  0  0  0  0  0  0  0  0
    8.6490   -9.4479    0.0000 C   0  0  2  0  0  0  0  0  0  0  0  0
    8.6490  -10.2729    0.0000 C   0  0  1  0  0  0  0  0  0  0  0  0
    7.9346  -10.6854    0.0000 C   0  0  2  0  0  0  0  0  0  0  0  0
    7.2201  -10.2729    0.0000 C   0  0  1  0  0  0  0  0  0  0  0  0
    7.2201   -9.4479    0.0000 C   0  0  1  0  0  0  0  0  0  0  0  0
    6.5056   -9.0354    0.0000 C   0  0  0  0  0  0  0  0  0  0  0  0
    6.5056  -10.6854    0.0000 O   0  0  0  0  0  0  0  0  0  0  0  0
    7.9346  -11.5104    0.0000 O   0  0  0  0  0  0  0  0  0  0  0  0
    9.3635  -10.6854    0.0000 O   0  0  0  0  0  0  0  0  0  0  0  0
   11.1175   -8.8374    0.0000 C   0  0  0  0  0  0  0  0  0  0  0  0
   12.1725   -7.3854    0.0000 O   0  0  0  0  0  0  0  0  0  0  0  0
   10.1642   -6.1524    0.0000 H   0  0  0  0  0  0  0  0  0  0  0  0
   10.1642   -8.6183    0.0000 H   0  0  0  0  0  0  0  0  0  0  0  0
    4.3661  -10.2797    0.0000 O   0  0  0  0  0  0  0  0  0  0  0  0
    2.9333   -9.4615    0.0000 O   0  0  0  0  0  0  0  0  0  0  0  0
    2.9254   -7.8115    0.0000 O   0  0  0  0  0  0  0  0  0  0  0  0
    3.6340   -6.5706    0.0000 O   0  0  0  0  0  0  0  0  0  0  0  0
    4.3504   -6.9797    0.0000 C   0  0  0  0  0  0  0  0  0  0  0  0
    4.3544   -7.8047    0.0000 C   0  0  2  0  0  0  0  0  0  0  0  0
    3.6419   -8.2206    0.0000 C   0  0  2  0  0  0  0  0  0  0  0  0
    3.6458   -9.0456    0.0000 C   0  0  1  0  0  0  0  0  0  0  0  0
    4.3622   -9.4547    0.0000 C   0  0  2  0  0  0  0  0  0  0  0  0
    5.0747   -9.0388    0.0000 C   0  0  1  0  0  0  0  0  0  0  0  0
    5.0708   -8.2138    0.0000 O   0  0  0  0  0  0  0  0  0  0  0  0
    5.7911   -9.4479    0.0000 O   0  0  0  0  0  0  0  0  0  0  0  0
 37 39  1  1  0  0  0
 36 28  1  6  0  0  0
 35 29  1  1  0  0  0
 34 30  1  6  0  0  0
 33 32  1  1  0  0  0
 32 31  1  0  0  0  0
 38 33  1  0  0  0  0
 34 33  1  0  0  0  0
 35 34  1  0  0  0  0
 36 35  1  0  0  0  0
 37 36  1  0  0  0  0
 38 37  1  0  0  0  0
  1  2  1  0  0  0  0
  2  3  1  0  0  0  0
  3  4  1  0  0  0  0
  4  5  2  0  0  0  0
  5  6  1  0  0  0  0
  1  6  1  0  0  0  0
  7  8  1  0  0  0  0
  8  9  1  0  0  0  0
  9  2  1  0  0  0  0
  7  3  1  0  0  0  0
 10 11  2  0  0  0  0
 10 12  1  0  0  0  0
  4 10  1  0  0  0  0
 14 15  1  0  0  0  0
 15 16  1  0  0  0  0
 16 17  1  0  0  0  0
 17 18  1  0  0  0  0
 18 19  1  0  0  0  0
 14 19  1  0  0  0  0
 20 39  1  0  0  0  0
 19 20  1  1  0  0  0
 18 21  1  6  0  0  0
 17 22  1  1  0  0  0
 16 23  1  6  0  0  0
 15 13  1  1  0  0  0
  1 13  1  6  0  0  0
  9 24  1  6  0  0  0
  8 25  1  6  0  0  0
  3 26  1  6  0  0  0
  2 27  1  6  0  0  0
M  END
>  <cdx:fragmentId>
47

$$$$
