95054.cdx
  Mrv1902 05222410252D          

 29 31  0  0  0  0            999 V2000
    8.4270  -10.9558    0.0000 O   0  0  0  0  0  0  0  0  0  0  0  0
    6.2843  -10.5393    0.0000 O   0  0  0  0  0  0  0  0  0  0  0  0
    6.9981  -10.9531    0.0000 C   0  0  0  0  0  0  0  0  0  0  0  0
    7.7133  -10.5420    0.0000 C   0  0  0  0  0  0  0  0  0  0  0  0
    7.7148   -9.7170    0.0000 O   0  0  0  0  0  0  0  0  0  0  0  0
    7.7179   -8.0670    0.0000 O   0  0  0  0  0  0  0  0  0  0  0  0
    6.2859   -9.7143    0.0000 C   0  0  2  0  0  0  0  0  0  0  0  0
    7.0011   -9.3031    0.0000 C   0  0  2  0  0  0  0  0  0  0  0  0
    7.7072   -7.2420    0.0000 C   0  0  2  0  0  0  0  0  0  0  0  0
    6.9874   -6.8388    0.0000 O   0  0  0  0  0  0  0  0  0  0  0  0
    7.0026   -8.4781    0.0000 C   0  0  1  0  0  0  0  0  0  0  0  0
    6.2889   -8.0643    0.0000 O   0  0  0  0  0  0  0  0  0  0  0  0
    8.4162   -6.8203    0.0000 C   0  0  1  0  0  0  0  0  0  0  0  0
    8.4055   -5.9954    0.0000 C   0  0  1  0  0  0  0  0  0  0  0  0
    7.6857   -5.5922    0.0000 C   0  0  0  0  0  0  0  0  0  0  0  0
    6.9767   -6.0139    0.0000 C   0  0  0  0  0  0  0  0  0  0  0  0
    9.1146   -5.5736    0.0000 C   0  0  0  0  0  0  0  0  0  0  0  0
    9.1039   -4.7487    0.0000 C   0  0  0  0  0  0  0  0  0  0  0  0
    8.3841   -4.3455    0.0000 O   0  0  0  0  0  0  0  0  0  0  0  0
    7.6750   -4.7672    0.0000 C   0  0  0  0  0  0  0  0  0  0  0  0
    4.8569   -9.7117    0.0000 O   0  0  0  0  0  0  0  0  0  0  0  0
    5.5722   -9.3005    0.0000 C   0  0  2  0  0  0  0  0  0  0  0  0
    5.5737   -8.4755    0.0000 C   0  0  1  0  0  0  0  0  0  0  0  0
    9.1467   -8.0484    0.0000 C   0  0  0  0  0  0  0  0  0  0  0  0
    9.1360   -7.2235    0.0000 C   0  0  0  0  0  0  0  0  0  0  0  0
    4.8600   -8.0617    0.0000 C   0  0  0  0  0  0  0  0  0  0  0  0
    4.1448   -8.4728    0.0000 O   0  0  0  0  0  0  0  0  0  0  0  0
    6.9553   -4.3640    0.0000 O   0  0  0  0  0  0  0  0  0  0  0  0
    9.1253   -6.3986    0.0000 O   0  0  0  0  0  0  0  0  0  0  0  0
  4  1  2  0  0  0  0
  7  2  1  1  0  0  0
  4  3  1  0  0  0  0
  5  4  1  0  0  0  0
  8  5  1  6  0  0  0
 11  6  1  1  0  0  0
  7 22  1  0  0  0  0
  8  7  1  0  0  0  0
 11  8  1  0  0  0  0
 12 11  1  0  0  0  0
 23 12  1  0  0  0  0
  9  6  1  6  0  0  0
  9 10  1  0  0  0  0
 22 21  1  6  0  0  0
  9 13  1  0  0  0  0
 13 14  1  0  0  0  0
 14 15  1  0  0  0  0
 15 16  2  0  0  0  0
 16 10  1  0  0  0  0
 14 17  1  0  0  0  0
 17 18  1  0  0  0  0
 18 19  1  0  0  0  0
 19 20  1  0  0  0  0
 20 15  1  0  0  0  0
 23 22  1  0  0  0  0
 23 26  1  1  0  0  0
 27 26  1  0  0  0  0
 24 25  2  0  0  0  0
 13 25  1  1  0  0  0
 20 28  2  0  0  0  0
 14 29  1  6  0  0  0
M  END
>  <cdx:fragmentId>
5

$$$$
