50591.cdx
  Mrv1902 05222410182D          

 24 26  0  0  0  0            999 V2000
    3.1881   -7.5476    0.0000 C   0  0  0  0  0  0  0  0  0  0  0  0
    3.1881   -8.3726    0.0000 C   0  0  0  0  0  0  0  0  0  0  0  0
    3.9025   -8.7851    0.0000 C   0  0  0  0  0  0  0  0  0  0  0  0
    4.6170   -8.3726    0.0000 C   0  0  0  0  0  0  0  0  0  0  0  0
    4.6170   -7.5476    0.0000 C   0  0  0  0  0  0  0  0  0  0  0  0
    3.9025   -7.1351    0.0000 C   0  0  0  0  0  0  0  0  0  0  0  0
    5.3315   -8.7851    0.0000 C   0  0  0  0  0  0  0  0  0  0  0  0
    6.0459   -8.3726    0.0000 C   0  0  0  0  0  0  0  0  0  0  0  0
    6.0459   -7.5476    0.0000 C   0  0  0  0  0  0  0  0  0  0  0  0
    5.3315   -7.1351    0.0000 O   0  0  0  0  0  0  0  0  0  0  0  0
    3.9025   -9.6101    0.0000 O   0  0  0  0  0  0  0  0  0  0  0  0
    5.3315   -9.6101    0.0000 O   0  0  0  0  0  0  0  0  0  0  0  0
    6.7604   -8.7851    0.0000 O   0  0  0  0  0  0  0  0  0  0  0  0
    7.4749   -7.5476    0.0000 C   0  0  0  0  0  0  0  0  0  0  0  0
    6.7604   -7.1351    0.0000 C   0  0  0  0  0  0  0  0  0  0  0  0
    8.1894   -7.1351    0.0000 C   0  0  0  0  0  0  0  0  0  0  0  0
    8.1894   -6.3101    0.0000 C   0  0  0  0  0  0  0  0  0  0  0  0
    7.4749   -5.8976    0.0000 C   0  0  0  0  0  0  0  0  0  0  0  0
    6.7604   -6.3101    0.0000 C   0  0  0  0  0  0  0  0  0  0  0  0
    3.1881  -10.0226    0.0000 C   0  0  0  0  0  0  0  0  0  0  0  0
    2.4736   -7.1351    0.0000 O   0  0  0  0  0  0  0  0  0  0  0  0
    8.9038   -7.5476    0.0000 O   0  0  0  0  0  0  0  0  0  0  0  0
    8.9038   -5.8976    0.0000 O   0  0  0  0  0  0  0  0  0  0  0  0
    7.4749   -5.0726    0.0000 O   0  0  0  0  0  0  0  0  0  0  0  0
  1  2  2  0  0  0  0
  2  3  1  0  0  0  0
  3  4  2  0  0  0  0
  4  5  1  0  0  0  0
  5  6  2  0  0  0  0
  6  1  1  0  0  0  0
  4  7  1  0  0  0  0
  7  8  1  0  0  0  0
  8  9  2  0  0  0  0
  9 10  1  0  0  0  0
 10  5  1  0  0  0  0
  3 11  1  0  0  0  0
 12  7  2  0  0  0  0
 13  8  1  0  0  0  0
 14 15  2  0  0  0  0
 15  9  1  0  0  0  0
 14 16  1  0  0  0  0
 16 17  2  0  0  0  0
 17 18  1  0  0  0  0
 18 19  2  0  0  0  0
 19 15  1  0  0  0  0
 11 20  1  0  0  0  0
  1 21  1  0  0  0  0
 16 22  1  0  0  0  0
 17 23  1  0  0  0  0
 18 24  1  0  0  0  0
M  END
>  <cdx:fragmentId>
5

$$$$
