95052.cdx
  Mrv1902 05222410232D          

 35 39  0  0  0  0            999 V2000
    5.5590   -8.2104    0.0000 C   0  0  2  0  0  0  0  0  0  0  0  0
    5.5590   -9.0354    0.0000 C   0  0  2  0  0  0  0  0  0  0  0  0
    4.8445   -9.4479    0.0000 C   0  0  0  0  0  0  0  0  0  0  0  0
    4.1300   -9.0354    0.0000 C   0  0  0  0  0  0  0  0  0  0  0  0
    3.4155   -9.4479    0.0000 C   0  0  0  0  0  0  0  0  0  0  0  0
    2.7011   -9.0354    0.0000 C   0  0  0  0  0  0  0  0  0  0  0  0
    2.7011   -8.2104    0.0000 C   0  0  0  0  0  0  0  0  0  0  0  0
    3.4155   -7.7979    0.0000 C   0  0  0  0  0  0  0  0  0  0  0  0
    4.1300   -8.2104    0.0000 C   0  0  0  0  0  0  0  0  0  0  0  0
    4.8445   -7.7979    0.0000 O   0  0  0  0  0  0  0  0  0  0  0  0
    4.8445  -10.2729    0.0000 O   0  0  0  0  0  0  0  0  0  0  0  0
    8.4168   -6.5604    0.0000 O   0  0  0  0  0  0  0  0  0  0  0  0
    9.1313   -6.9729    0.0000 C   0  0  1  0  0  0  0  0  0  0  0  0
    9.1313   -7.7979    0.0000 C   0  0  1  0  0  0  0  0  0  0  0  0
    8.4168   -8.2104    0.0000 O   0  0  0  0  0  0  0  0  0  0  0  0
    7.7024   -7.7979    0.0000 C   0  0  0  0  0  0  0  0  0  0  0  0
    7.7024   -6.9729    0.0000 C   0  0  0  0  0  0  0  0  0  0  0  0
    6.9879   -8.2104    0.0000 C   0  0  0  0  0  0  0  0  0  0  0  0
    6.2734   -7.7979    0.0000 C   0  0  0  0  0  0  0  0  0  0  0  0
    6.2734   -6.9729    0.0000 C   0  0  0  0  0  0  0  0  0  0  0  0
    6.9879   -6.5604    0.0000 C   0  0  0  0  0  0  0  0  0  0  0  0
    9.8458   -6.5604    0.0000 C   0  0  0  0  0  0  0  0  0  0  0  0
   10.5603   -6.9729    0.0000 O   0  0  0  0  0  0  0  0  0  0  0  0
    9.8458   -8.2104    0.0000 C   0  0  0  0  0  0  0  0  0  0  0  0
   10.5603   -7.7979    0.0000 C   0  0  0  0  0  0  0  0  0  0  0  0
   11.2747   -8.2104    0.0000 C   0  0  0  0  0  0  0  0  0  0  0  0
   11.2747   -9.0354    0.0000 C   0  0  0  0  0  0  0  0  0  0  0  0
   10.5603   -9.4479    0.0000 C   0  0  0  0  0  0  0  0  0  0  0  0
    9.8458   -9.0354    0.0000 C   0  0  0  0  0  0  0  0  0  0  0  0
   11.9892   -7.7979    0.0000 O   0  0  0  0  0  0  0  0  0  0  0  0
   12.7037   -8.2104    0.0000 C   0  0  0  0  0  0  0  0  0  0  0  0
   11.9892   -9.4479    0.0000 O   0  0  0  0  0  0  0  0  0  0  0  0
    1.9866   -7.7979    0.0000 O   0  0  0  0  0  0  0  0  0  0  0  0
    3.4155  -10.2729    0.0000 O   0  0  0  0  0  0  0  0  0  0  0  0
    6.2734   -9.4479    0.0000 O   0  0  0  0  0  0  0  0  0  0  0  0
  1  2  1  0  0  0  0
  2  3  1  0  0  0  0
  3  4  1  0  0  0  0
  4  5  1  0  0  0  0
  5  6  2  0  0  0  0
  6  7  1  0  0  0  0
  7  8  2  0  0  0  0
  8  9  1  0  0  0  0
  4  9  2  0  0  0  0
  9 10  1  0  0  0  0
  1 10  1  0  0  0  0
  3 11  2  0  0  0  0
 12 13  1  0  0  0  0
 13 14  1  0  0  0  0
 14 15  1  0  0  0  0
 15 16  1  0  0  0  0
 16 17  1  0  0  0  0
 12 17  1  0  0  0  0
 18 19  1  0  0  0  0
 19 20  2  0  0  0  0
 20 21  1  0  0  0  0
 21 17  2  0  0  0  0
 18 16  2  0  0  0  0
 22 23  1  0  0  0  0
 13 22  1  6  0  0  0
 24 25  1  0  0  0  0
 25 26  2  0  0  0  0
 26 27  1  0  0  0  0
 27 28  2  0  0  0  0
 28 29  1  0  0  0  0
 24 29  2  0  0  0  0
 30 31  1  0  0  0  0
 26 30  1  0  0  0  0
 27 32  1  0  0  0  0
 14 24  1  6  0  0  0
  1 19  1  6  0  0  0
  7 33  1  0  0  0  0
  5 34  1  0  0  0  0
  2 35  1  1  0  0  0
M  END
>  <cdx:fragmentId>
27

$$$$
