95064.cdx
  Mrv1902 05222410212D          

 14 14  0  0  0  0            999 V2000
    7.2321   -7.1970    0.0000 C   0  0  0  0  0  0  0  0  0  0  0  0
    6.5208   -7.6150    0.0000 C   0  0  0  0  0  0  0  0  0  0  0  0
    6.5272   -8.4399    0.0000 C   0  0  0  0  0  0  0  0  0  0  0  0
    7.2448   -8.8470    0.0000 C   0  0  0  0  0  0  0  0  0  0  0  0
    7.9561   -8.4290    0.0000 C   0  0  0  0  0  0  0  0  0  0  0  0
    7.9497   -7.6040    0.0000 C   0  0  0  0  0  0  0  0  0  0  0  0
    8.6610   -7.1861    0.0000 C   0  0  0  0  0  0  0  0  0  0  0  0
    9.3786   -7.5931    0.0000 O   0  0  0  0  0  0  0  0  0  0  0  0
    7.2258   -6.3720    0.0000 O   0  0  0  0  0  0  0  0  0  0  0  0
    6.5082   -5.9650    0.0000 C   0  0  0  0  0  0  0  0  0  0  0  0
    5.8159   -8.8579    0.0000 O   0  0  0  0  0  0  0  0  0  0  0  0
    5.8159   -9.6829    0.0000 C   0  0  0  0  0  0  0  0  0  0  0  0
    7.2511   -9.6719    0.0000 O   0  0  0  0  0  0  0  0  0  0  0  0
    7.9687  -10.0789    0.0000 C   0  0  0  0  0  0  0  0  0  0  0  0
  1  2  2  0  0  0  0
  2  3  1  0  0  0  0
  3  4  2  0  0  0  0
  4  5  1  0  0  0  0
  5  6  2  0  0  0  0
  6  1  1  0  0  0  0
  6  7  1  0  0  0  0
  7  8  2  0  0  0  0
  1  9  1  0  0  0  0
  9 10  1  0  0  0  0
  3 11  1  0  0  0  0
 11 12  1  0  0  0  0
  4 13  1  0  0  0  0
 13 14  1  0  0  0  0
M  END
>  <cdx:fragmentId>
62

$$$$
