95065.cdx
  Mrv1902 05222410212D          

 16 16  0  0  0  0            999 V2000
    6.7253   -7.8832    0.0000 C   0  0  0  0  0  0  0  0  0  0  0  0
    7.4491   -8.2792    0.0000 C   0  0  0  0  0  0  0  0  0  0  0  0
    8.1539   -7.8504    0.0000 C   0  0  0  0  0  0  0  0  0  0  0  0
    8.1350   -7.0257    0.0000 C   0  0  0  0  0  0  0  0  0  0  0  0
    7.4112   -6.6297    0.0000 C   0  0  0  0  0  0  0  0  0  0  0  0
    6.7064   -7.0585    0.0000 C   0  0  0  0  0  0  0  0  0  0  0  0
    8.8777   -8.2464    0.0000 O   0  0  0  0  0  0  0  0  0  0  0  0
    9.5825   -7.8176    0.0000 C   0  0  0  0  0  0  0  0  0  0  0  0
    7.4680   -9.1040    0.0000 O   0  0  0  0  0  0  0  0  0  0  0  0
    8.1918   -9.5000    0.0000 C   0  0  0  0  0  0  0  0  0  0  0  0
    5.9826   -6.6625    0.0000 O   0  0  0  0  0  0  0  0  0  0  0  0
    5.2778   -7.0913    0.0000 C   0  0  0  0  0  0  0  0  0  0  0  0
    7.3923   -5.8049    0.0000 C   0  0  0  0  0  0  0  0  0  0  0  0
    8.0971   -5.3761    0.0000 C   0  0  0  0  0  0  0  0  0  0  0  0
    8.0781   -4.5513    0.0000 C   0  0  0  0  0  0  0  0  0  0  0  0
    8.7830   -4.1225    0.0000 O   0  0  0  0  0  0  0  0  0  0  0  0
  1  2  2  0  0  0  0
  2  3  1  0  0  0  0
  3  4  2  0  0  0  0
  4  5  1  0  0  0  0
  5  6  2  0  0  0  0
  6  1  1  0  0  0  0
  3  7  1  0  0  0  0
  7  8  1  0  0  0  0
  2  9  1  0  0  0  0
  9 10  1  0  0  0  0
  6 11  1  0  0  0  0
 11 12  1  0  0  0  0
  5 13  1  0  0  0  0
 13 14  2  0  0  0  0
 14 15  1  0  0  0  0
 15 16  1  0  0  0  0
M  END
>  <cdx:fragmentId>
5

$$$$
