95060.cdx
  Mrv1902 05222410222D          

 33 36  0  0  0  0            999 V2000
    5.2781   -5.9400    0.0000 C   0  0  0  0  0  0  0  0  0  0  0  0
    5.2781   -6.7650    0.0000 C   0  0  0  0  0  0  0  0  0  0  0  0
    5.9925   -7.1775    0.0000 C   0  0  0  0  0  0  0  0  0  0  0  0
    6.7070   -6.7650    0.0000 C   0  0  0  0  0  0  0  0  0  0  0  0
    6.7070   -5.9400    0.0000 C   0  0  0  0  0  0  0  0  0  0  0  0
    5.9925   -5.5275    0.0000 C   0  0  0  0  0  0  0  0  0  0  0  0
    7.4215   -7.1775    0.0000 C   0  0  0  0  0  0  0  0  0  0  0  0
    8.1359   -6.7650    0.0000 C   0  0  0  0  0  0  0  0  0  0  0  0
    8.1359   -5.9400    0.0000 C   0  0  0  0  0  0  0  0  0  0  0  0
    7.4215   -5.5275    0.0000 O   0  0  0  0  0  0  0  0  0  0  0  0
    9.5649   -5.9400    0.0000 C   0  0  0  0  0  0  0  0  0  0  0  0
    8.8504   -5.5275    0.0000 C   0  0  0  0  0  0  0  0  0  0  0  0
   10.2794   -5.5275    0.0000 C   0  0  0  0  0  0  0  0  0  0  0  0
   10.2794   -4.7025    0.0000 C   0  0  0  0  0  0  0  0  0  0  0  0
    9.5649   -4.2900    0.0000 C   0  0  0  0  0  0  0  0  0  0  0  0
    8.8504   -4.7025    0.0000 C   0  0  0  0  0  0  0  0  0  0  0  0
    4.5636   -5.5275    0.0000 O   0  0  0  0  0  0  0  0  0  0  0  0
    4.5636   -7.1775    0.0000 O   0  0  0  0  0  0  0  0  0  0  0  0
    5.9925   -8.0025    0.0000 O   0  0  0  0  0  0  0  0  0  0  0  0
    7.4215   -8.0025    0.0000 O   0  0  0  0  0  0  0  0  0  0  0  0
   10.9938   -4.2900    0.0000 O   0  0  0  0  0  0  0  0  0  0  0  0
    4.5636   -4.7025    0.0000 C   0  0  0  0  0  0  0  0  0  0  0  0
    5.2781   -4.2900    0.0000 O   0  0  0  0  0  0  0  0  0  0  0  0
    5.2781   -3.4650    0.0000 C   0  0  1  0  0  0  0  0  0  0  0  0
    4.5636   -3.0525    0.0000 C   0  0  2  0  0  0  0  0  0  0  0  0
    3.8491   -3.4650    0.0000 C   0  0  1  0  0  0  0  0  0  0  0  0
    3.8491   -4.2900    0.0000 C   0  0  1  0  0  0  0  0  0  0  0  0
    3.1346   -3.0525    0.0000 O   0  0  0  0  0  0  0  0  0  0  0  0
    5.9925   -3.0525    0.0000 C   0  0  0  0  0  0  0  0  0  0  0  0
    3.1346   -4.7025    0.0000 O   0  0  0  0  0  0  0  0  0  0  0  0
    4.5636   -2.2275    0.0000 O   0  0  0  0  0  0  0  0  0  0  0  0
    6.7070   -3.4650    0.0000 O   0  0  0  0  0  0  0  0  0  0  0  0
    5.9925   -2.2275    0.0000 O   0  0  0  0  0  0  0  0  0  0  0  0
  1  2  2  0  0  0  0
  2  3  1  0  0  0  0
  3  4  2  0  0  0  0
  4  5  1  0  0  0  0
  5  6  2  0  0  0  0
  6  1  1  0  0  0  0
  4  7  1  0  0  0  0
  7  8  1  0  0  0  0
  8  9  2  0  0  0  0
  9 10  1  0  0  0  0
 10  5  1  0  0  0  0
 11 12  2  0  0  0  0
 12  9  1  0  0  0  0
 11 13  1  0  0  0  0
 13 14  2  0  0  0  0
 14 15  1  0  0  0  0
 15 16  2  0  0  0  0
 16 12  1  0  0  0  0
  1 17  1  0  0  0  0
  2 18  1  0  0  0  0
  3 19  1  0  0  0  0
  7 20  2  0  0  0  0
 14 21  1  0  0  0  0
 17 22  1  0  0  0  0
 22 23  1  0  0  0  0
 23 24  1  0  0  0  0
 24 25  1  0  0  0  0
 25 26  1  0  0  0  0
 26 27  1  0  0  0  0
 27 22  1  0  0  0  0
 26 28  1  1  0  0  0
 24 29  1  1  0  0  0
 27 30  1  6  0  0  0
 25 31  1  6  0  0  0
 29 32  1  0  0  0  0
 29 33  2  0  0  0  0
M  END
>  <cdx:fragmentId>
5

$$$$
