95063.cdx
  Mrv1902 05222410232D          

 43 47  0  0  0  0            999 V2000
    6.5904   -7.0141    0.0000 C   0  0  0  0  0  0  0  0  0  0  0  0
    6.5904   -7.8391    0.0000 C   0  0  0  0  0  0  0  0  0  0  0  0
    5.8759   -8.2516    0.0000 C   0  0  0  0  0  0  0  0  0  0  0  0
    5.8759   -9.0766    0.0000 O   0  0  0  0  0  0  0  0  0  0  0  0
    5.1614   -7.8391    0.0000 C   0  0  0  0  0  0  0  0  0  0  0  0
    4.4470   -8.2516    0.0000 C   0  0  0  0  0  0  0  0  0  0  0  0
    4.4470   -9.0766    0.0000 O   0  0  0  0  0  0  0  0  0  0  0  0
    3.7325   -7.8391    0.0000 C   0  0  0  0  0  0  0  0  0  0  0  0
    3.7325   -7.0141    0.0000 C   0  0  0  0  0  0  0  0  0  0  0  0
    3.0180   -6.6016    0.0000 O   0  0  0  0  0  0  0  0  0  0  0  0
    4.4470   -6.6016    0.0000 C   0  0  0  0  0  0  0  0  0  0  0  0
    5.1614   -7.0141    0.0000 C   0  0  0  0  0  0  0  0  0  0  0  0
    5.8759   -6.6016    0.0000 O   0  0  0  0  0  0  0  0  0  0  0  0
    7.3049   -8.2516    0.0000 O   0  0  0  0  0  0  0  0  0  0  0  0
    7.3049   -9.0766    0.0000 C   0  0  1  0  0  0  0  0  0  0  0  0
    8.0193   -9.4891    0.0000 C   0  0  2  0  0  0  0  0  0  0  0  0
    8.7338   -9.0766    0.0000 O   0  0  0  0  0  0  0  0  0  0  0  0
    8.0193  -10.3141    0.0000 C   0  0  2  0  0  0  0  0  0  0  0  0
    8.7338  -10.7266    0.0000 O   0  0  0  0  0  0  0  0  0  0  0  0
    7.3049  -10.7266    0.0000 C   0  0  1  0  0  0  0  0  0  0  0  0
    7.3049  -11.5516    0.0000 O   0  0  0  0  0  0  0  0  0  0  0  0
    6.5904  -10.3141    0.0000 C   0  0  1  0  0  0  0  0  0  0  0  0
    6.5904   -9.4891    0.0000 O   0  0  0  0  0  0  0  0  0  0  0  0
    5.8759  -10.7266    0.0000 C   0  0  0  0  0  0  0  0  0  0  0  0
    8.0193   -7.0141    0.0000 C   0  0  0  0  0  0  0  0  0  0  0  0
    8.7338   -6.6016    0.0000 C   0  0  0  0  0  0  0  0  0  0  0  0
    9.4483   -5.3641    0.0000 O   0  0  0  0  0  0  0  0  0  0  0  0
    8.7338   -5.7766    0.0000 C   0  0  0  0  0  0  0  0  0  0  0  0
    8.0193   -4.5391    0.0000 O   0  0  0  0  0  0  0  0  0  0  0  0
    8.0193   -5.3641    0.0000 C   0  0  0  0  0  0  0  0  0  0  0  0
    7.3049   -5.7766    0.0000 C   0  0  0  0  0  0  0  0  0  0  0  0
    7.3049   -6.6016    0.0000 C   0  0  0  0  0  0  0  0  0  0  0  0
    9.4557   -9.4859    0.0000 C   0  0  0  0  0  0  0  0  0  0  0  0
   10.1661   -9.0664    0.0000 C   0  0  0  0  0  0  0  0  0  0  0  0
    9.4638  -10.3109    0.0000 O   0  0  0  0  0  0  0  0  0  0  0  0
   10.8846   -9.4719    0.0000 C   0  0  0  0  0  0  0  0  0  0  0  0
   11.5950   -9.0524    0.0000 C   0  0  0  0  0  0  0  0  0  0  0  0
   11.5868   -8.2274    0.0000 C   0  0  0  0  0  0  0  0  0  0  0  0
   10.8684   -7.8220    0.0000 C   0  0  0  0  0  0  0  0  0  0  0  0
   10.1580   -8.2415    0.0000 C   0  0  0  0  0  0  0  0  0  0  0  0
   10.8602   -6.9970    0.0000 O   0  0  0  0  0  0  0  0  0  0  0  0
   12.2972   -7.8079    0.0000 O   0  0  0  0  0  0  0  0  0  0  0  0
   12.3135   -9.4578    0.0000 O   0  0  0  0  0  0  0  0  0  0  0  0
 32 25  2  0  0  0  0
 26 25  1  0  0  0  0
 28 26  2  0  0  0  0
 28 27  1  0  0  0  0
 30 28  1  0  0  0  0
 30 29  1  0  0  0  0
 31 30  2  0  0  0  0
 32 31  1  0  0  0  0
  1  2  2  0  0  0  0
  2  3  1  0  0  0  0
  3  4  2  0  0  0  0
  3  5  1  0  0  0  0
  5  6  1  0  0  0  0
  6  7  1  0  0  0  0
  6  8  2  0  0  0  0
  8  9  1  0  0  0  0
  9 10  1  0  0  0  0
  9 11  2  0  0  0  0
 11 12  1  0  0  0  0
  5 12  2  0  0  0  0
 12 13  1  0  0  0  0
  1 13  1  0  0  0  0
  1 32  1  0  0  0  0
 15 14  1  1  0  0  0
 15 16  1  0  0  0  0
 16 17  1  6  0  0  0
 16 18  1  0  0  0  0
 18 19  1  6  0  0  0
 18 20  1  0  0  0  0
 20 21  1  1  0  0  0
 20 22  1  0  0  0  0
 22 23  1  0  0  0  0
 22 24  1  6  0  0  0
 15 23  1  0  0  0  0
  2 14  1  0  0  0  0
 33 34  1  0  0  0  0
 33 35  2  0  0  0  0
 34 36  2  0  0  0  0
 36 37  1  0  0  0  0
 37 38  2  0  0  0  0
 38 39  1  0  0  0  0
 39 40  2  0  0  0  0
 40 34  1  0  0  0  0
 39 41  1  0  0  0  0
 38 42  1  0  0  0  0
 37 43  1  0  0  0  0
 33 17  1  0  0  0  0
M  END
>  <cdx:fragmentId>
5

$$$$
