950654.cdx
  Mrv1902 05222410222D          

 37 41  0  0  0  0            999 V2000
    6.7672   -8.9708    0.0000 C   0  0  2  0  0  0  0  0  0  0  0  0
    7.2521   -8.3034    0.0000 C   0  0  2  0  0  0  0  0  0  0  0  0
    6.7672   -7.6360    0.0000 C   0  0  1  0  0  0  0  0  0  0  0  0
    5.9826   -7.8909    0.0000 C   0  0  0  0  0  0  0  0  0  0  0  0
    5.2681   -7.4784    0.0000 C   0  0  0  0  0  0  0  0  0  0  0  0
    4.5536   -7.8909    0.0000 C   0  0  0  0  0  0  0  0  0  0  0  0
    4.5536   -8.7159    0.0000 C   0  0  0  0  0  0  0  0  0  0  0  0
    5.2681   -9.1284    0.0000 C   0  0  0  0  0  0  0  0  0  0  0  0
    5.9826   -8.7159    0.0000 C   0  0  0  0  0  0  0  0  0  0  0  0
    5.2681   -6.6534    0.0000 O   0  0  0  0  0  0  0  0  0  0  0  0
    3.8392   -9.1284    0.0000 O   0  0  0  0  0  0  0  0  0  0  0  0
    7.0221   -9.7555    0.0000 C   0  0  2  0  0  0  0  0  0  0  0  0
    7.8190   -9.9690    0.0000 O   0  0  0  0  0  0  0  0  0  0  0  0
    8.0326  -10.7659    0.0000 C   0  0  0  0  0  0  0  0  0  0  0  0
    6.4388  -10.3388    0.0000 C   0  0  0  0  0  0  0  0  0  0  0  0
    6.6523  -11.1357    0.0000 C   0  0  0  0  0  0  0  0  0  0  0  0
    6.0689  -11.7191    0.0000 C   0  0  0  0  0  0  0  0  0  0  0  0
    5.2721  -11.5056    0.0000 C   0  0  0  0  0  0  0  0  0  0  0  0
    5.0585  -10.7087    0.0000 C   0  0  0  0  0  0  0  0  0  0  0  0
    5.6419  -10.1253    0.0000 C   0  0  0  0  0  0  0  0  0  0  0  0
    4.6887  -12.0889    0.0000 O   0  0  0  0  0  0  0  0  0  0  0  0
    8.0771   -8.3034    0.0000 C   0  0  0  0  0  0  0  0  0  0  0  0
    8.4896   -7.5889    0.0000 C   0  0  0  0  0  0  0  0  0  0  0  0
    9.3146   -7.5889    0.0000 C   0  0  0  0  0  0  0  0  0  0  0  0
    9.7271   -8.3034    0.0000 C   0  0  0  0  0  0  0  0  0  0  0  0
    9.3146   -9.0179    0.0000 C   0  0  0  0  0  0  0  0  0  0  0  0
    8.4896   -9.0179    0.0000 C   0  0  0  0  0  0  0  0  0  0  0  0
   10.5521   -8.3034    0.0000 O   0  0  0  0  0  0  0  0  0  0  0  0
    7.0221   -6.8513    0.0000 C   0  0  0  0  0  0  0  0  0  0  0  0
    6.4701   -6.2383    0.0000 C   0  0  0  0  0  0  0  0  0  0  0  0
    6.7251   -5.4536    0.0000 C   0  0  0  0  0  0  0  0  0  0  0  0
    7.5320   -5.2821    0.0000 C   0  0  0  0  0  0  0  0  0  0  0  0
    8.0841   -5.8952    0.0000 C   0  0  0  0  0  0  0  0  0  0  0  0
    7.8291   -6.6798    0.0000 C   0  0  0  0  0  0  0  0  0  0  0  0
    8.8910   -5.7237    0.0000 O   0  0  0  0  0  0  0  0  0  0  0  0
    6.1730   -4.8405    0.0000 O   0  0  0  0  0  0  0  0  0  0  0  0
    6.1838   -9.5542    0.0000 H   0  0  0  0  0  0  0  0  0  0  0  0
  1  2  1  0  0  0  0
  2  3  1  0  0  0  0
  3  4  1  0  0  0  0
  4  5  1  0  0  0  0
  5  6  2  0  0  0  0
  6  7  1  0  0  0  0
  7  8  2  0  0  0  0
  8  9  1  0  0  0  0
  1  9  1  0  0  0  0
  4  9  2  0  0  0  0
  5 10  1  0  0  0  0
  7 11  1  0  0  0  0
 13 14  1  0  0  0  0
 12 13  1  6  0  0  0
 15 16  1  0  0  0  0
 16 17  2  0  0  0  0
 17 18  1  0  0  0  0
 18 19  2  0  0  0  0
 19 20  1  0  0  0  0
 15 20  2  0  0  0  0
 18 21  1  0  0  0  0
 12 15  1  0  0  0  0
  1 12  1  0  0  0  0
 22 23  1  0  0  0  0
 23 24  2  0  0  0  0
 24 25  1  0  0  0  0
 25 26  2  0  0  0  0
 26 27  1  0  0  0  0
 22 27  2  0  0  0  0
 25 28  1  0  0  0  0
  2 22  1  6  0  0  0
 29 30  1  0  0  0  0
 30 31  2  0  0  0  0
 31 32  1  0  0  0  0
 32 33  2  0  0  0  0
 33 34  1  0  0  0  0
 29 34  2  0  0  0  0
 33 35  1  0  0  0  0
 31 36  1  0  0  0  0
  3 29  1  1  0  0  0
  1 37  1  6  0  0  0
M  END
>  <cdx:fragmentId>
5

$$$$
