950633.cdx
  Mrv1902 05222410182D          

 48 53  0  0  0  0            999 V2000
    4.5769  -10.3882    0.0000 H   0  0  0  0  0  0  0  0  0  0  0  0
    6.6488  -11.7245    0.0000 H   0  0  0  0  0  0  0  0  0  0  0  0
    8.1152   -8.1258    0.0000 H   0  0  0  0  0  0  0  0  0  0  0  0
    5.2755   -9.1416    0.0000 H   0  0  0  0  0  0  0  0  0  0  0  0
    2.4602  -12.4780    0.0000 C   0  0  0  0  0  0  0  0  0  0  0  0
    3.8890  -12.4597    0.0000 O   0  0  0  0  0  0  0  0  0  0  0  0
    3.1693  -12.0564    0.0000 C   0  0  0  0  0  0  0  0  0  0  0  0
    3.1587  -11.2314    0.0000 O   0  0  0  0  0  0  0  0  0  0  0  0
    6.2987   -5.9392    0.0000 C   0  0  0  0  0  0  0  0  0  0  0  0
    6.6099   -6.7032    0.0000 C   0  0  0  0  0  0  0  0  0  0  0  0
    6.1038   -7.3548    0.0000 O   0  0  0  0  0  0  0  0  0  0  0  0
   10.7060  -10.5872    0.0000 C   0  0  0  0  0  0  0  0  0  0  0  0
    9.8813  -10.6101    0.0000 C   0  0  0  0  0  0  0  0  0  0  0  0
    9.6047   -9.8329    0.0000 C   0  0  0  0  0  0  0  0  0  0  0  0
   10.2584   -9.3296    0.0000 C   0  0  0  0  0  0  0  0  0  0  0  0
   10.9390   -9.7958    0.0000 O   0  0  0  0  0  0  0  0  0  0  0  0
    7.4452  -11.1764    0.0000 O   0  0  0  0  0  0  0  0  0  0  0  0
    6.0058  -10.3698    0.0000 C   0  0  0  0  0  0  0  0  0  0  0  0
    8.1702  -10.9281    0.0000 C   0  0  0  0  0  0  0  0  0  0  0  0
    7.4346  -10.3515    0.0000 C   0  0  0  0  0  0  0  0  0  0  0  0
    3.9697  -11.7598    0.0000 C   0  0  0  0  0  0  0  0  0  0  0  0
    5.2966  -10.7915    0.0000 C   0  0  2  0  0  0  0  0  0  0  0  0
    4.5663   -9.5632    0.0000 C   0  0  1  0  0  0  0  0  0  0  0  0
    3.8572   -9.9849    0.0000 C   0  0  0  0  0  0  0  0  0  0  0  0
    3.8678  -10.8098    0.0000 C   0  0  2  0  0  0  0  0  0  0  0  0
    4.5875  -11.2131    0.0000 C   0  0  2  0  0  0  0  0  0  0  0  0
    4.9006  -11.9774    0.0000 C   0  0  0  0  0  0  0  0  0  0  0  0
    5.7256  -11.9668    0.0000 O   0  0  0  0  0  0  0  0  0  0  0  0
    6.0163  -11.1948    0.0000 C   0  0  1  0  0  0  0  0  0  0  0  0
    6.7255  -10.7731    0.0000 C   0  0  2  0  0  0  0  0  0  0  0  0
    6.7149   -9.9482    0.0000 C   0  0  2  0  0  0  0  0  0  0  0  0
    7.4789   -9.6369    0.0000 C   0  0  0  0  0  0  0  0  0  0  0  0
    8.1596  -10.1031    0.0000 C   0  0  0  0  0  0  0  0  0  0  0  0
    8.8133   -9.5998    0.0000 C   0  0  1  0  0  0  0  0  0  0  0  0
    8.5366   -8.8226    0.0000 C   0  0  0  0  0  0  0  0  0  0  0  0
    7.7119   -8.8455    0.0000 C   0  0  2  0  0  0  0  0  0  0  0  0
    7.2385   -8.1699    0.0000 O   0  0  0  0  0  0  0  0  0  0  0  0
    6.4151   -8.1188    0.0000 C   0  0  2  0  0  0  0  0  0  0  0  0
    5.8617   -8.7308    0.0000 C   0  0  0  0  0  0  0  0  0  0  0  0
    5.9952   -9.5449    0.0000 C   0  0  2  0  0  0  0  0  0  0  0  0
    5.2861   -9.9665    0.0000 C   0  0  1  0  0  0  0  0  0  0  0  0
    4.5346   -7.0884    0.0000 C   0  0  0  0  0  0  0  0  0  0  0  0
    4.5558   -8.7383    0.0000 O   0  0  0  0  0  0  0  0  0  0  0  0
    3.1269   -8.7566    0.0000 O   0  0  0  0  0  0  0  0  0  0  0  0
    3.0952   -6.2819    0.0000 C   0  0  0  0  0  0  0  0  0  0  0  0
    3.1058   -7.1068    0.0000 C   0  0  0  0  0  0  0  0  0  0  0  0
    3.8255   -7.5101    0.0000 C   0  0  0  0  0  0  0  0  0  0  0  0
    3.8360   -8.3350    0.0000 C   0  0  0  0  0  0  0  0  0  0  0  0
 22  1  1  6  0  0  0
 29  2  1  1  0  0  0
 36  3  1  6  0  0  0
 40  4  1  6  0  0  0
 23 43  1  6  0  0  0
 25  8  1  6  0  0  0
  8  7  1  0  0  0  0
  7  5  1  0  0  0  0
  7  6  2  0  0  0  0
 38 11  1  6  0  0  0
 11 10  1  0  0  0  0
 10  9  1  0  0  0  0
 34 14  1  1  0  0  0
 16 12  1  0  0  0  0
 13 12  2  0  0  0  0
 14 13  1  0  0  0  0
 15 14  2  0  0  0  0
 16 15  1  0  0  0  0
 30 17  1  6  0  0  0
 41 18  1  1  0  0  0
 33 19  1  0  0  0  0
 31 20  1  1  0  0  0
 26 21  1  1  0  0  0
 26 22  1  0  0  0  0
 36 32  1  0  0  0  0
 40 31  1  0  0  0  0
 22 29  1  0  0  0  0
 41 22  1  0  0  0  0
 41 23  1  0  0  0  0
 24 23  1  0  0  0  0
 25 24  1  0  0  0  0
 26 25  1  0  0  0  0
 27 26  1  0  0  0  0
 28 27  1  0  0  0  0
 29 28  1  0  0  0  0
 30 29  1  0  0  0  0
 31 30  1  0  0  0  0
 32 31  1  0  0  0  0
 33 32  2  0  0  0  0
 34 33  1  0  0  0  0
 35 34  1  0  0  0  0
 36 35  1  0  0  0  0
 37 36  1  0  0  0  0
 38 37  1  0  0  0  0
 39 38  1  0  0  0  0
 40 39  1  0  0  0  0
 41 40  1  0  0  0  0
 47 42  1  0  0  0  0
 48 43  1  0  0  0  0
 48 44  2  0  0  0  0
 46 45  1  0  0  0  0
 47 46  2  0  0  0  0
 48 47  1  0  0  0  0
M  END
>  <cdx:fragmentId>
191048

$$$$
