95061.cdx
  Mrv1902 05222410222D          

 33 36  0  0  0  0            999 V2000
    7.4582   -9.6541    0.0000 O   0  0  0  0  0  0  0  0  0  0  0  0
    6.0293   -7.1791    0.0000 O   0  0  0  0  0  0  0  0  0  0  0  0
    7.4582   -6.3541    0.0000 O   0  0  0  0  0  0  0  0  0  0  0  0
   12.4595   -5.9416    0.0000 O   0  0  0  0  0  0  0  0  0  0  0  0
   10.3161   -6.3541    0.0000 C   0  0  0  0  0  0  0  0  0  0  0  0
   11.0306   -5.9416    0.0000 C   0  0  0  0  0  0  0  0  0  0  0  0
   11.7450   -6.3541    0.0000 C   0  0  0  0  0  0  0  0  0  0  0  0
   11.7450   -7.1791    0.0000 C   0  0  0  0  0  0  0  0  0  0  0  0
   11.0306   -7.5916    0.0000 C   0  0  0  0  0  0  0  0  0  0  0  0
   10.3161   -7.1791    0.0000 C   0  0  0  0  0  0  0  0  0  0  0  0
    8.8872   -9.6541    0.0000 O   0  0  0  0  0  0  0  0  0  0  0  0
    8.8872   -7.1791    0.0000 O   0  0  0  0  0  0  0  0  0  0  0  0
    8.1727   -7.5916    0.0000 C   0  0  0  0  0  0  0  0  0  0  0  0
    7.4582   -7.1791    0.0000 C   0  0  0  0  0  0  0  0  0  0  0  0
    6.7438   -7.5916    0.0000 C   0  0  0  0  0  0  0  0  0  0  0  0
    6.7438   -8.4166    0.0000 C   0  0  0  0  0  0  0  0  0  0  0  0
    7.4582   -8.8291    0.0000 C   0  0  0  0  0  0  0  0  0  0  0  0
    8.1727   -8.4166    0.0000 C   0  0  0  0  0  0  0  0  0  0  0  0
    8.8872   -8.8291    0.0000 C   0  0  0  0  0  0  0  0  0  0  0  0
    9.6016   -8.4166    0.0000 C   0  0  0  0  0  0  0  0  0  0  0  0
    9.6016   -7.5916    0.0000 C   0  0  0  0  0  0  0  0  0  0  0  0
    5.3115   -7.6044    0.0000 C   0  0  0  0  0  0  0  0  0  0  0  0
    4.5961   -7.1935    0.0000 O   0  0  0  0  0  0  0  0  0  0  0  0
    3.8825   -7.6075    0.0000 C   0  0  1  0  0  0  0  0  0  0  0  0
    3.8843   -8.4325    0.0000 C   0  0  2  0  0  0  0  0  0  0  0  0
    4.5997   -8.8435    0.0000 C   0  0  1  0  0  0  0  0  0  0  0  0
    5.3133   -8.4294    0.0000 C   0  0  1  0  0  0  0  0  0  0  0  0
    4.6015   -9.6685    0.0000 O   0  0  0  0  0  0  0  0  0  0  0  0
    3.1672   -7.1966    0.0000 C   0  0  0  0  0  0  0  0  0  0  0  0
    6.0286   -8.8404    0.0000 O   0  0  0  0  0  0  0  0  0  0  0  0
    3.1708   -8.8466    0.0000 O   0  0  0  0  0  0  0  0  0  0  0  0
    3.1654   -6.3716    0.0000 O   0  0  0  0  0  0  0  0  0  0  0  0
    2.4536   -7.6107    0.0000 O   0  0  0  0  0  0  0  0  0  0  0  0
 17  1  1  0  0  0  0
 15  2  1  0  0  0  0
 14  3  1  0  0  0  0
 21 10  1  0  0  0  0
  7  4  1  0  0  0  0
 10  5  2  0  0  0  0
  6  5  1  0  0  0  0
  7  6  2  0  0  0  0
  8  7  1  0  0  0  0
  9  8  2  0  0  0  0
 10  9  1  0  0  0  0
 19 11  2  0  0  0  0
 21 12  1  0  0  0  0
 13 12  1  0  0  0  0
 18 13  2  0  0  0  0
 14 13  1  0  0  0  0
 15 14  2  0  0  0  0
 16 15  1  0  0  0  0
 17 16  2  0  0  0  0
 18 17  1  0  0  0  0
 19 18  1  0  0  0  0
 20 19  1  0  0  0  0
 21 20  2  0  0  0  0
 22 23  1  0  0  0  0
 23 24  1  0  0  0  0
 24 25  1  0  0  0  0
 25 26  1  0  0  0  0
 26 27  1  0  0  0  0
 27 22  1  0  0  0  0
 26 28  1  1  0  0  0
 24 29  1  1  0  0  0
 27 30  1  6  0  0  0
 25 31  1  6  0  0  0
 29 32  1  0  0  0  0
 29 33  2  0  0  0  0
 22  2  1  0  0  0  0
M  END
>  <cdx:groupId>
67

>  <cdx:fragmentId>
5

$$$$
