950634.cdx
  Mrv1902 05222410202D          

 42 47  0  0  0  0            999 V2000
    4.9167   -7.4732    0.0000 C   0  0  0  0  0  0  0  0  0  0  0  0
    4.2004   -7.8825    0.0000 C   0  0  0  0  0  0  0  0  0  0  0  0
    3.4877   -7.4669    0.0000 C   0  0  0  0  0  0  0  0  0  0  0  0
    2.7714   -7.8762    0.0000 C   0  0  0  0  0  0  0  0  0  0  0  0
    4.9203   -6.6482    0.0000 O   0  0  0  0  0  0  0  0  0  0  0  0
    5.6293   -7.8889    0.0000 O   0  0  0  0  0  0  0  0  0  0  0  0
    4.1967   -8.7075    0.0000 C   0  0  0  0  0  0  0  0  0  0  0  0
    7.0473  -10.3702    0.0000 C   0  0  2  0  0  0  0  0  0  0  0  0
    7.7636   -9.9609    0.0000 C   0  0  1  0  0  0  0  0  0  0  0  0
    8.5470  -10.2193    0.0000 O   0  0  0  0  0  0  0  0  0  0  0  0
    9.0349   -9.5540    0.0000 C   0  0  2  0  0  0  0  0  0  0  0  0
    9.8207   -9.3025    0.0000 C   0  0  2  0  0  0  0  0  0  0  0  0
    9.8243   -8.4775    0.0000 C   0  0  0  0  0  0  0  0  0  0  0  0
    9.0408   -8.2191    0.0000 C   0  0  0  0  0  0  0  0  0  0  0  0
    8.5530   -8.8844    0.0000 C   0  0  0  0  0  0  0  0  0  0  0  0
    7.7672   -9.1359    0.0000 C   0  0  1  0  0  0  0  0  0  0  0  0
    7.0546   -8.7202    0.0000 C   0  0  1  0  0  0  0  0  0  0  0  0
    6.3383   -9.1295    0.0000 C   0  0  1  0  0  0  0  0  0  0  0  0
    5.6256   -8.7139    0.0000 C   0  0  2  0  0  0  0  0  0  0  0  0
    4.9094   -9.1232    0.0000 C   0  0  0  0  0  0  0  0  0  0  0  0
    4.9057   -9.9482    0.0000 C   0  0  2  0  0  0  0  0  0  0  0  0
    5.6183  -10.3639    0.0000 C   0  0  1  0  0  0  0  0  0  0  0  0
    5.9156  -11.1334    0.0000 C   0  0  0  0  0  0  0  0  0  0  0  0
    6.7406  -11.1371    0.0000 O   0  0  0  0  0  0  0  0  0  0  0  0
    6.3346   -9.9545    0.0000 C   0  0  2  0  0  0  0  0  0  0  0  0
    7.0582   -7.8952    0.0000 C   0  0  0  0  0  0  0  0  0  0  0  0
    6.3456   -7.4796    0.0000 C   0  0  0  0  0  0  0  0  0  0  0  0
    6.3493   -6.6546    0.0000 O   0  0  0  0  0  0  0  0  0  0  0  0
    4.9904  -10.8989    0.0000 C   0  0  0  0  0  0  0  0  0  0  0  0
    6.3419   -8.3045    0.0000 C   0  0  0  0  0  0  0  0  0  0  0  0
    7.7709   -8.3109    0.0000 C   0  0  0  0  0  0  0  0  0  0  0  0
    8.7894   -7.4334    0.0000 C   0  0  0  0  0  0  0  0  0  0  0  0
    4.1894  -10.3575    0.0000 O   0  0  0  0  0  0  0  0  0  0  0  0
   11.2658  -10.8738    0.0000 O   0  0  0  0  0  0  0  0  0  0  0  0
   10.4823  -10.6154    0.0000 C   0  0  0  0  0  0  0  0  0  0  0  0
   10.4859   -9.7904    0.0000 C   0  0  0  0  0  0  0  0  0  0  0  0
   11.2717   -9.5390    0.0000 C   0  0  0  0  0  0  0  0  0  0  0  0
   11.7536  -10.2085    0.0000 C   0  0  0  0  0  0  0  0  0  0  0  0
    7.0509   -9.5452    0.0000 H   0  0  0  0  0  0  0  0  0  0  0  0
    7.7599  -10.7859    0.0000 H   0  0  0  0  0  0  0  0  0  0  0  0
    9.5169  -10.2236    0.0000 H   0  0  0  0  0  0  0  0  0  0  0  0
    6.3310  -10.7795    0.0000 H   0  0  0  0  0  0  0  0  0  0  0  0
  1  2  1  0  0  0  0
  2  3  2  0  0  0  0
  3  4  1  0  0  0  0
  1  5  2  0  0  0  0
  1  6  1  0  0  0  0
  2  7  1  0  0  0  0
  8  9  1  0  0  0  0
  9 10  1  0  0  0  0
 10 11  1  0  0  0  0
 11 12  1  0  0  0  0
 12 13  1  0  0  0  0
 13 14  1  0  0  0  0
 14 15  2  0  0  0  0
 15 16  1  0  0  0  0
 16 17  1  0  0  0  0
 17 18  1  0  0  0  0
 18 19  1  0  0  0  0
 19 20  1  0  0  0  0
 20 21  1  0  0  0  0
 21 22  1  0  0  0  0
 22 23  1  0  0  0  0
 23 24  1  0  0  0  0
  8 24  1  0  0  0  0
  8 25  1  0  0  0  0
 25 18  1  0  0  0  0
  9 16  1  0  0  0  0
 11 15  1  0  0  0  0
 22 25  1  0  0  0  0
 26 27  1  0  0  0  0
 27 28  2  0  0  0  0
 17 26  1  1  0  0  0
 22 29  1  1  0  0  0
 18 30  1  1  0  0  0
 16 31  1  1  0  0  0
 14 32  1  0  0  0  0
 21 33  1  6  0  0  0
 34 35  1  0  0  0  0
 35 36  2  0  0  0  0
 36 37  1  0  0  0  0
 37 38  2  0  0  0  0
 34 38  1  0  0  0  0
 12 36  1  6  0  0  0
 19  6  1  6  0  0  0
  8 39  1  1  0  0  0
  9 40  1  1  0  0  0
 11 41  1  6  0  0  0
 25 42  1  6  0  0  0
M  END
>  <cdx:fragmentId>
191206

$$$$
