950632.cdx
  Mrv1902 05222410192D          

 50 55  0  0  0  0            999 V2000
    4.6687   -9.1756    0.0000 H   0  0  0  0  0  0  0  0  0  0  0  0
    6.7186  -10.5454    0.0000 H   0  0  0  0  0  0  0  0  0  0  0  0
    8.2433   -6.9709    0.0000 H   0  0  0  0  0  0  0  0  0  0  0  0
    5.3874   -7.9405    0.0000 H   0  0  0  0  0  0  0  0  0  0  0  0
    2.5184  -11.2308    0.0000 C   0  0  0  0  0  0  0  0  0  0  0  0
    3.9473  -11.2357    0.0000 O   0  0  0  0  0  0  0  0  0  0  0  0
    3.2342  -10.8207    0.0000 C   0  0  0  0  0  0  0  0  0  0  0  0
    3.2370   -9.9957    0.0000 O   0  0  0  0  0  0  0  0  0  0  0  0
    3.9640   -6.2857    0.0000 C   0  0  0  0  0  0  0  0  0  0  0  0
    3.2454   -7.5208    0.0000 O   0  0  0  0  0  0  0  0  0  0  0  0
    3.9612   -7.1107    0.0000 C   0  0  0  0  0  0  0  0  0  0  0  0
    4.6743   -7.5256    0.0000 O   0  0  0  0  0  0  0  0  0  0  0  0
   10.7938   -9.4739    0.0000 C   0  0  0  0  0  0  0  0  0  0  0  0
    9.9688   -9.4835    0.0000 C   0  0  0  0  0  0  0  0  0  0  0  0
    9.7048   -8.7019    0.0000 C   0  0  0  0  0  0  0  0  0  0  0  0
   10.3666   -8.2093    0.0000 C   0  0  0  0  0  0  0  0  0  0  0  0
   11.0396   -8.6864    0.0000 O   0  0  0  0  0  0  0  0  0  0  0  0
    6.7612   -5.5241    0.0000 C   0  0  0  0  0  0  0  0  0  0  0  0
    6.2446   -6.1674    0.0000 O   0  0  0  0  0  0  0  0  0  0  0  0
    6.0977   -9.1804    0.0000 C   0  0  0  0  0  0  0  0  0  0  0  0
    8.2527   -9.7737    0.0000 C   0  0  0  0  0  0  0  0  0  0  0  0
    7.5266   -9.1852    0.0000 C   0  0  0  0  0  0  0  0  0  0  0  0
    4.0393  -10.5372    0.0000 C   0  0  0  0  0  0  0  0  0  0  0  0
    5.3818   -9.5905    0.0000 C   0  0  2  0  0  0  0  0  0  0  0  0
    4.6715   -8.3506    0.0000 C   0  0  1  0  0  0  0  0  0  0  0  0
    3.9557   -8.7607    0.0000 C   0  0  0  0  0  0  0  0  0  0  0  0
    3.9529   -9.5857    0.0000 C   0  0  2  0  0  0  0  0  0  0  0  0
    4.6659  -10.0006    0.0000 C   0  0  2  0  0  0  0  0  0  0  0  0
    4.9666  -10.7698    0.0000 C   0  0  0  0  0  0  0  0  0  0  0  0
    5.7916  -10.7726    0.0000 O   0  0  0  0  0  0  0  0  0  0  0  0
    6.0949  -10.0054    0.0000 C   0  0  1  0  0  0  0  0  0  0  0  0
    6.8107   -9.5953    0.0000 C   0  0  2  0  0  0  0  0  0  0  0  0
    6.8135   -8.7703    0.0000 C   0  0  2  0  0  0  0  0  0  0  0  0
    7.5825   -8.4715    0.0000 C   0  0  0  0  0  0  0  0  0  0  0  0
    8.2555   -8.9487    0.0000 C   0  0  0  0  0  0  0  0  0  0  0  0
    8.9173   -8.4560    0.0000 C   0  0  1  0  0  0  0  0  0  0  0  0
    8.6533   -7.6744    0.0000 C   0  0  0  0  0  0  0  0  0  0  0  0
    7.8283   -7.6840    0.0000 C   0  0  2  0  0  0  0  0  0  0  0  0
    7.3659   -7.0008    0.0000 O   0  0  0  0  0  0  0  0  0  0  0  0
    6.5434   -6.9363    0.0000 C   0  0  1  0  0  0  0  0  0  0  0  0
    5.9802   -7.5392    0.0000 C   0  0  0  0  0  0  0  0  0  0  0  0
    6.1004   -8.3554    0.0000 C   0  0  2  0  0  0  0  0  0  0  0  0
    5.3846   -8.7655    0.0000 C   0  0  1  0  0  0  0  0  0  0  0  0
    8.9500  -10.8400    0.0000 C   0  0  0  0  0  0  0  0  0  0  0  0
    7.5238  -10.0102    0.0000 O   0  0  0  0  0  0  0  0  0  0  0  0
    6.8052  -11.2453    0.0000 O   0  0  0  0  0  0  0  0  0  0  0  0
    8.9444  -12.4900    0.0000 C   0  0  0  0  0  0  0  0  0  0  0  0
    8.2313  -12.0751    0.0000 C   0  0  0  0  0  0  0  0  0  0  0  0
    8.2341  -11.2501    0.0000 C   0  0  0  0  0  0  0  0  0  0  0  0
    7.5210  -10.8352    0.0000 C   0  0  0  0  0  0  0  0  0  0  0  0
 24  1  1  6  0  0  0
 31  2  1  1  0  0  0
 38  3  1  6  0  0  0
 42  4  1  6  0  0  0
 32 45  1  6  0  0  0
 27  8  1  6  0  0  0
  8  7  1  0  0  0  0
  7  5  1  0  0  0  0
  7  6  2  0  0  0  0
 25 12  1  6  0  0  0
 12 11  1  0  0  0  0
 11  9  1  0  0  0  0
 11 10  2  0  0  0  0
 36 15  1  1  0  0  0
 17 13  1  0  0  0  0
 14 13  2  0  0  0  0
 15 14  1  0  0  0  0
 16 15  2  0  0  0  0
 17 16  1  0  0  0  0
 40 19  1  1  0  0  0
 19 18  1  0  0  0  0
 43 20  1  1  0  0  0
 35 21  1  0  0  0  0
 33 22  1  1  0  0  0
 28 23  1  1  0  0  0
 28 24  1  0  0  0  0
 38 34  1  0  0  0  0
 42 33  1  0  0  0  0
 24 31  1  0  0  0  0
 43 24  1  0  0  0  0
 43 25  1  0  0  0  0
 26 25  1  0  0  0  0
 27 26  1  0  0  0  0
 28 27  1  0  0  0  0
 29 28  1  0  0  0  0
 30 29  1  0  0  0  0
 31 30  1  0  0  0  0
 32 31  1  0  0  0  0
 33 32  1  0  0  0  0
 34 33  1  0  0  0  0
 35 34  2  0  0  0  0
 36 35  1  0  0  0  0
 37 36  1  0  0  0  0
 38 37  1  0  0  0  0
 39 38  1  0  0  0  0
 40 39  1  0  0  0  0
 41 40  1  0  0  0  0
 42 41  1  0  0  0  0
 43 42  1  0  0  0  0
 49 44  1  0  0  0  0
 50 45  1  0  0  0  0
 50 46  2  0  0  0  0
 48 47  1  0  0  0  0
 49 48  2  0  0  0  0
 50 49  1  0  0  0  0
M  END
>  <cdx:fragmentId>
190884

$$$$
