95066.cdx
  Mrv1902 05222410212D          

 14 14  0  0  0  0            999 V2000
    6.8432   -7.0586    0.0000 C   0  0  0  0  0  0  0  0  0  0  0  0
    7.5583   -7.4700    0.0000 C   0  0  0  0  0  0  0  0  0  0  0  0
    8.2722   -7.0564    0.0000 C   0  0  0  0  0  0  0  0  0  0  0  0
    8.2709   -6.2314    0.0000 C   0  0  0  0  0  0  0  0  0  0  0  0
    7.5558   -5.8200    0.0000 C   0  0  0  0  0  0  0  0  0  0  0  0
    6.8419   -6.2336    0.0000 C   0  0  0  0  0  0  0  0  0  0  0  0
    8.9873   -7.4678    0.0000 O   0  0  0  0  0  0  0  0  0  0  0  0
    9.7011   -7.0541    0.0000 C   0  0  0  0  0  0  0  0  0  0  0  0
    7.5596   -8.2950    0.0000 O   0  0  0  0  0  0  0  0  0  0  0  0
    8.2747   -8.7064    0.0000 C   0  0  0  0  0  0  0  0  0  0  0  0
    7.5545   -4.9950    0.0000 C   0  0  0  0  0  0  0  0  0  0  0  0
    8.2683   -4.5814    0.0000 C   0  0  0  0  0  0  0  0  0  0  0  0
    8.2670   -3.7564    0.0000 C   0  0  0  0  0  0  0  0  0  0  0  0
    6.1294   -7.4722    0.0000 O   0  0  0  0  0  0  0  0  0  0  0  0
  1  2  2  0  0  0  0
  2  3  1  0  0  0  0
  3  4  2  0  0  0  0
  4  5  1  0  0  0  0
  5  6  2  0  0  0  0
  6  1  1  0  0  0  0
  3  7  1  0  0  0  0
  7  8  1  0  0  0  0
  2  9  1  0  0  0  0
  9 10  1  0  0  0  0
  5 11  1  0  0  0  0
 11 12  2  0  0  0  0
 12 13  1  0  0  0  0
  1 14  1  0  0  0  0
M  END
>  <cdx:fragmentId>
5

$$$$
