95068.cdx
  Mrv1902 05222410252D          

 28 30  0  0  0  0            999 V2000
    8.1179   -9.2416    0.0000 O   0  0  0  0  0  0  0  0  0  0  0  0
    8.8323   -8.8291    0.0000 C   0  0  1  0  0  0  0  0  0  0  0  0
    8.8323   -8.0041    0.0000 C   0  0  2  0  0  0  0  0  0  0  0  0
    8.1179   -7.5916    0.0000 O   0  0  0  0  0  0  0  0  0  0  0  0
    7.4034   -8.0041    0.0000 C   0  0  0  0  0  0  0  0  0  0  0  0
    7.4034   -8.8291    0.0000 C   0  0  0  0  0  0  0  0  0  0  0  0
    6.6889   -7.5916    0.0000 C   0  0  0  0  0  0  0  0  0  0  0  0
    5.9745   -8.0041    0.0000 C   0  0  0  0  0  0  0  0  0  0  0  0
    5.9745   -8.8291    0.0000 C   0  0  0  0  0  0  0  0  0  0  0  0
    6.6889   -9.2416    0.0000 C   0  0  0  0  0  0  0  0  0  0  0  0
    5.2600   -9.2416    0.0000 C   0  0  0  0  0  0  0  0  0  0  0  0
    4.5455   -8.8291    0.0000 C   0  0  0  0  0  0  0  0  0  0  0  0
    3.8310   -9.2416    0.0000 N   0  0  0  0  0  0  0  0  0  0  0  0
    3.1166   -8.8291    0.0000 C   0  0  0  0  0  0  0  0  0  0  0  0
    3.1166   -8.0041    0.0000 O   0  0  0  0  0  0  0  0  0  0  0  0
    2.4021   -9.2416    0.0000 C   0  0  0  0  0  0  0  0  0  0  0  0
    9.5468   -7.5916    0.0000 N   0  0  0  0  0  0  0  0  0  0  0  0
    9.5468   -6.7666    0.0000 C   0  0  0  0  0  0  0  0  0  0  0  0
    8.8323   -6.3541    0.0000 O   0  0  0  0  0  0  0  0  0  0  0  0
   10.2613   -6.3541    0.0000 C   0  0  0  0  0  0  0  0  0  0  0  0
    9.5468   -9.2416    0.0000 C   0  0  0  0  0  0  0  0  0  0  0  0
   10.2613   -8.8291    0.0000 C   0  0  0  0  0  0  0  0  0  0  0  0
   10.9758   -9.2416    0.0000 C   0  0  0  0  0  0  0  0  0  0  0  0
   10.9758  -10.0666    0.0000 C   0  0  0  0  0  0  0  0  0  0  0  0
   10.2613  -10.4791    0.0000 C   0  0  0  0  0  0  0  0  0  0  0  0
    9.5468  -10.0666    0.0000 C   0  0  0  0  0  0  0  0  0  0  0  0
   11.6902  -10.4791    0.0000 O   0  0  0  0  0  0  0  0  0  0  0  0
   11.6902   -8.8291    0.0000 O   0  0  0  0  0  0  0  0  0  0  0  0
  1  2  1  0  0  0  0
  2  3  1  0  0  0  0
  3  4  1  0  0  0  0
  4  5  1  0  0  0  0
  5  6  1  0  0  0  0
  1  6  1  0  0  0  0
  7  8  1  0  0  0  0
  8  9  2  0  0  0  0
  9 10  1  0  0  0  0
 10  6  2  0  0  0  0
  7  5  2  0  0  0  0
 11 12  1  0  0  0  0
 12 13  1  0  0  0  0
 14 15  2  0  0  0  0
 14 16  1  0  0  0  0
 13 14  1  0  0  0  0
  9 11  1  0  0  0  0
 18 19  2  0  0  0  0
 18 20  1  0  0  0  0
 17 18  1  0  0  0  0
  3 17  1  6  0  0  0
 21 22  1  0  0  0  0
 22 23  2  0  0  0  0
 23 24  1  0  0  0  0
 24 25  2  0  0  0  0
 25 26  1  0  0  0  0
 21 26  2  0  0  0  0
 24 27  1  0  0  0  0
 23 28  1  0  0  0  0
  2 21  1  1  0  0  0
M  END
>  <cdx:groupId>
88

>  <cdx:fragmentId>
5

$$$$
