95062.cdx
  Mrv1902 05222410232D          

 41 45  0  0  0  0            999 V2000
    5.9029   -6.4856    0.0000 C   0  0  0  0  0  0  0  0  0  0  0  0
    5.9029   -7.3106    0.0000 C   0  0  0  0  0  0  0  0  0  0  0  0
    5.1884   -7.7231    0.0000 C   0  0  0  0  0  0  0  0  0  0  0  0
    5.1884   -8.5481    0.0000 O   0  0  0  0  0  0  0  0  0  0  0  0
    4.4739   -7.3106    0.0000 C   0  0  0  0  0  0  0  0  0  0  0  0
    3.7595   -7.7231    0.0000 C   0  0  0  0  0  0  0  0  0  0  0  0
    3.7595   -8.5481    0.0000 O   0  0  0  0  0  0  0  0  0  0  0  0
    3.0450   -7.3106    0.0000 C   0  0  0  0  0  0  0  0  0  0  0  0
    3.0450   -6.4856    0.0000 C   0  0  0  0  0  0  0  0  0  0  0  0
    2.3305   -6.0731    0.0000 O   0  0  0  0  0  0  0  0  0  0  0  0
    3.7595   -6.0731    0.0000 C   0  0  0  0  0  0  0  0  0  0  0  0
    4.4739   -6.4856    0.0000 C   0  0  0  0  0  0  0  0  0  0  0  0
    5.1884   -6.0731    0.0000 O   0  0  0  0  0  0  0  0  0  0  0  0
    6.6174   -6.0731    0.0000 C   0  0  0  0  0  0  0  0  0  0  0  0
    6.6174   -5.2481    0.0000 C   0  0  0  0  0  0  0  0  0  0  0  0
    7.3318   -4.8356    0.0000 C   0  0  0  0  0  0  0  0  0  0  0  0
    8.0463   -5.2481    0.0000 C   0  0  0  0  0  0  0  0  0  0  0  0
    8.7608   -4.8356    0.0000 O   0  0  0  0  0  0  0  0  0  0  0  0
    8.0463   -6.0731    0.0000 C   0  0  0  0  0  0  0  0  0  0  0  0
    7.3318   -6.4856    0.0000 C   0  0  0  0  0  0  0  0  0  0  0  0
    6.6174   -7.7231    0.0000 O   0  0  0  0  0  0  0  0  0  0  0  0
    6.6174   -8.5481    0.0000 C   0  0  1  0  0  0  0  0  0  0  0  0
    7.2848   -9.0330    0.0000 C   0  0  2  0  0  0  0  0  0  0  0  0
    8.0694   -8.7781    0.0000 O   0  0  0  0  0  0  0  0  0  0  0  0
    7.0299   -9.8177    0.0000 C   0  0  1  0  0  0  0  0  0  0  0  0
    7.5148  -10.4851    0.0000 O   0  0  0  0  0  0  0  0  0  0  0  0
    6.2049   -9.8177    0.0000 C   0  0  1  0  0  0  0  0  0  0  0  0
    5.9499   -9.0330    0.0000 O   0  0  0  0  0  0  0  0  0  0  0  0
    5.7199  -10.4851    0.0000 C   0  0  0  0  0  0  0  0  0  0  0  0
    6.1324  -11.1996    0.0000 O   0  0  0  0  0  0  0  0  0  0  0  0
    8.6721   -9.3414    0.0000 C   0  0  0  0  0  0  0  0  0  0  0  0
    9.4614   -9.1011    0.0000 C   0  0  0  0  0  0  0  0  0  0  0  0
    8.4856  -10.1451    0.0000 O   0  0  0  0  0  0  0  0  0  0  0  0
   10.0641   -9.6645    0.0000 C   0  0  0  0  0  0  0  0  0  0  0  0
   10.8533   -9.4242    0.0000 C   0  0  0  0  0  0  0  0  0  0  0  0
   11.0398   -8.6205    0.0000 C   0  0  0  0  0  0  0  0  0  0  0  0
   10.4371   -8.0572    0.0000 C   0  0  0  0  0  0  0  0  0  0  0  0
    9.6479   -8.2975    0.0000 C   0  0  0  0  0  0  0  0  0  0  0  0
   10.6236   -7.2536    0.0000 O   0  0  0  0  0  0  0  0  0  0  0  0
   11.8290   -8.3802    0.0000 O   0  0  0  0  0  0  0  0  0  0  0  0
   11.4560   -9.9875    0.0000 O   0  0  0  0  0  0  0  0  0  0  0  0
  1  2  2  0  0  0  0
  2  3  1  0  0  0  0
  3  4  2  0  0  0  0
  3  5  1  0  0  0  0
  5  6  1  0  0  0  0
  6  7  1  0  0  0  0
  6  8  2  0  0  0  0
  8  9  1  0  0  0  0
  9 10  1  0  0  0  0
  9 11  2  0  0  0  0
 11 12  1  0  0  0  0
  5 12  2  0  0  0  0
 12 13  1  0  0  0  0
  1 13  1  0  0  0  0
  1 14  1  0  0  0  0
 14 15  1  0  0  0  0
 15 16  2  0  0  0  0
 16 17  1  0  0  0  0
 17 18  1  0  0  0  0
 17 19  2  0  0  0  0
 19 20  1  0  0  0  0
 14 20  2  0  0  0  0
 22 21  1  1  0  0  0
 22 23  1  0  0  0  0
 23 24  1  6  0  0  0
 23 25  1  0  0  0  0
 25 26  1  1  0  0  0
 25 27  1  0  0  0  0
 27 28  1  0  0  0  0
 27 29  1  6  0  0  0
 29 30  1  0  0  0  0
 22 28  1  0  0  0  0
  2 21  1  0  0  0  0
 24 31  1  0  0  0  0
 31 32  1  0  0  0  0
 31 33  2  0  0  0  0
 32 34  2  0  0  0  0
 34 35  1  0  0  0  0
 35 36  2  0  0  0  0
 36 37  1  0  0  0  0
 37 38  2  0  0  0  0
 38 32  1  0  0  0  0
 37 39  1  0  0  0  0
 36 40  1  0  0  0  0
 35 41  1  0  0  0  0
M  END
>  <cdx:fragmentId>
5

$$$$
