950765.cdx
  Mrv1902 05222410262D          

 47 51  0  0  0  0            999 V2000
    4.7935   -6.8468    0.0000 C   0  0  0  0  0  0  0  0  0  0  0  0
    4.0791   -7.2593    0.0000 C   0  0  0  0  0  0  0  0  0  0  0  0
    3.3646   -6.8468    0.0000 C   0  0  0  0  0  0  0  0  0  0  0  0
    2.6501   -7.2593    0.0000 C   0  0  0  0  0  0  0  0  0  0  0  0
    4.7935   -6.0218    0.0000 O   0  0  0  0  0  0  0  0  0  0  0  0
    5.5080   -7.2593    0.0000 O   0  0  0  0  0  0  0  0  0  0  0  0
    4.0791   -8.0843    0.0000 C   0  0  0  0  0  0  0  0  0  0  0  0
    7.6514   -8.4968    0.0000 C   0  0  1  0  0  0  0  0  0  0  0  0
    8.4194   -8.1954    0.0000 C   0  0  0  0  0  0  0  0  0  0  0  0
    9.0940   -8.6703    0.0000 C   0  0  0  0  0  0  0  0  0  0  0  0
    9.7541   -8.1754    0.0000 C   0  0  1  0  0  0  0  0  0  0  0  0
    9.4875   -7.3947    0.0000 C   0  0  0  0  0  0  0  0  0  0  0  0
    8.6625   -7.4070    0.0000 C   0  0  2  0  0  0  0  0  0  0  0  0
    8.1978   -6.7254    0.0000 O   0  0  0  0  0  0  0  0  0  0  0  0
    7.3751   -6.6637    0.0000 C   0  0  2  0  0  0  0  0  0  0  0  0
    6.8140   -7.2685    0.0000 C   0  0  0  0  0  0  0  0  0  0  0  0
    6.9369   -8.0843    0.0000 C   0  0  2  0  0  0  0  0  0  0  0  0
    6.2225   -8.4968    0.0000 C   0  0  1  0  0  0  0  0  0  0  0  0
    5.5080   -8.0843    0.0000 C   0  0  2  0  0  0  0  0  0  0  0  0
    4.7935   -8.4968    0.0000 C   0  0  0  0  0  0  0  0  0  0  0  0
    4.7935   -9.3218    0.0000 C   0  0  2  0  0  0  0  0  0  0  0  0
    5.5080   -9.7343    0.0000 C   0  0  1  0  0  0  0  0  0  0  0  0
    6.2225   -9.3218    0.0000 C   0  0  2  0  0  0  0  0  0  0  0  0
    6.9369   -9.7343    0.0000 C   0  0  2  0  0  0  0  0  0  0  0  0
    7.6514   -9.3218    0.0000 C   0  0  1  0  0  0  0  0  0  0  0  0
    5.0955  -10.4488    0.0000 C   0  0  0  0  0  0  0  0  0  0  0  0
    6.2225   -7.6718    0.0000 C   0  0  0  0  0  0  0  0  0  0  0  0
    9.0940   -9.4953    0.0000 C   0  0  0  0  0  0  0  0  0  0  0  0
    7.6514   -7.6718    0.0000 C   0  0  0  0  0  0  0  0  0  0  0  0
    7.0737   -5.8958    0.0000 O   0  0  0  0  0  0  0  0  0  0  0  0
    6.2579   -5.7728    0.0000 C   0  0  0  0  0  0  0  0  0  0  0  0
    8.3659   -9.7343    0.0000 O   0  0  0  0  0  0  0  0  0  0  0  0
    4.0791   -9.7343    0.0000 O   0  0  0  0  0  0  0  0  0  0  0  0
   11.6340   -9.1870    0.0000 O   0  0  0  0  0  0  0  0  0  0  0  0
   10.8091   -9.1993    0.0000 C   0  0  0  0  0  0  0  0  0  0  0  0
   10.5425   -8.4186    0.0000 C   0  0  0  0  0  0  0  0  0  0  0  0
   11.2026   -7.9237    0.0000 C   0  0  0  0  0  0  0  0  0  0  0  0
   11.8772   -8.3986    0.0000 C   0  0  0  0  0  0  0  0  0  0  0  0
    5.9205  -10.4488    0.0000 C   0  0  0  0  0  0  0  0  0  0  0  0
    5.5080  -11.1632    0.0000 O   0  0  0  0  0  0  0  0  0  0  0  0
    6.9369  -10.5593    0.0000 O   0  0  0  0  0  0  0  0  0  0  0  0
    7.6514  -10.9718    0.0000 C   0  0  0  0  0  0  0  0  0  0  0  0
    7.6514  -11.7968    0.0000 O   0  0  0  0  0  0  0  0  0  0  0  0
    8.3659  -10.5593    0.0000 C   0  0  0  0  0  0  0  0  0  0  0  0
    9.0750   -6.6926    0.0000 H   0  0  0  0  0  0  0  0  0  0  0  0
    6.9369   -8.9093    0.0000 H   0  0  0  0  0  0  0  0  0  0  0  0
    6.2225  -10.1468    0.0000 H   0  0  0  0  0  0  0  0  0  0  0  0
  1  2  1  0  0  0  0
  2  3  2  0  0  0  0
  3  4  1  0  0  0  0
  1  5  2  0  0  0  0
  1  6  1  0  0  0  0
  2  7  1  0  0  0  0
  8  9  1  0  0  0  0
  9 10  2  0  0  0  0
 10 11  1  0  0  0  0
 11 12  1  0  0  0  0
 12 13  1  0  0  0  0
 13 14  1  0  0  0  0
 14 15  1  0  0  0  0
 15 16  1  0  0  0  0
 16 17  1  0  0  0  0
 17 18  1  0  0  0  0
 18 19  1  0  0  0  0
 19 20  1  0  0  0  0
 20 21  1  0  0  0  0
 21 22  1  0  0  0  0
 22 23  1  0  0  0  0
 23 24  1  0  0  0  0
 24 25  1  0  0  0  0
  8 25  1  0  0  0  0
  8 17  1  0  0  0  0
 18 23  1  0  0  0  0
  9 13  1  0  0  0  0
 22 26  1  1  0  0  0
 18 27  1  1  0  0  0
 10 28  1  0  0  0  0
  8 29  1  1  0  0  0
 30 31  1  0  0  0  0
 15 30  1  6  0  0  0
 25 32  1  6  0  0  0
 21 33  1  6  0  0  0
 34 35  1  0  0  0  0
 35 36  2  0  0  0  0
 36 37  1  0  0  0  0
 37 38  2  0  0  0  0
 34 38  1  0  0  0  0
 11 36  1  1  0  0  0
 39 40  2  0  0  0  0
 22 39  1  6  0  0  0
 42 43  2  0  0  0  0
 42 44  1  0  0  0  0
 41 42  1  0  0  0  0
 24 41  1  6  0  0  0
 19  6  1  6  0  0  0
 13 45  1  6  0  0  0
 17 46  1  6  0  0  0
 23 47  1  6  0  0  0
M  END
>  <cdx:fragmentId>
191740

$$$$
