950763.cdx
  Mrv1902 05222410272D          

 48 53  0  0  0  0            999 V2000
    4.7476   -7.3350    0.0000 C   0  0  0  0  0  0  0  0  0  0  0  0
    4.0333   -7.7478    0.0000 C   0  0  0  0  0  0  0  0  0  0  0  0
    3.3186   -7.3357    0.0000 C   0  0  0  0  0  0  0  0  0  0  0  0
    2.6044   -7.7485    0.0000 C   0  0  0  0  0  0  0  0  0  0  0  0
    4.7472   -6.5100    0.0000 O   0  0  0  0  0  0  0  0  0  0  0  0
    5.4622   -7.7471    0.0000 O   0  0  0  0  0  0  0  0  0  0  0  0
    4.0337   -8.5728    0.0000 C   0  0  0  0  0  0  0  0  0  0  0  0
    6.8924  -10.2214    0.0000 C   0  0  2  0  0  0  0  0  0  0  0  0
    7.6067   -9.8086    0.0000 C   0  0  1  0  0  0  0  0  0  0  0  0
    8.3914  -10.0631    0.0000 O   0  0  0  0  0  0  0  0  0  0  0  0
    8.8760   -9.3955    0.0000 C   0  0  2  0  0  0  0  0  0  0  0  0
    9.6605   -9.1401    0.0000 C   0  0  2  0  0  0  0  0  0  0  0  0
    9.6601   -8.3151    0.0000 C   0  0  0  0  0  0  0  0  0  0  0  0
    8.8754   -8.0606    0.0000 C   0  0  0  0  0  0  0  0  0  0  0  0
    8.3908   -8.7283    0.0000 C   0  0  0  0  0  0  0  0  0  0  0  0
    7.6063   -8.9836    0.0000 C   0  0  1  0  0  0  0  0  0  0  0  0
    6.8916   -8.5714    0.0000 C   0  0  1  0  0  0  0  0  0  0  0  0
    6.1773   -8.9843    0.0000 C   0  0  1  0  0  0  0  0  0  0  0  0
    5.4627   -8.5721    0.0000 C   0  0  2  0  0  0  0  0  0  0  0  0
    4.7484   -8.9850    0.0000 C   0  0  0  0  0  0  0  0  0  0  0  0
    4.7488   -9.8100    0.0000 C   0  0  2  0  0  0  0  0  0  0  0  0
    5.4635  -10.2221    0.0000 C   0  0  1  0  0  0  0  0  0  0  0  0
    5.7645  -10.9902    0.0000 C   0  0  0  0  0  0  0  0  0  0  0  0
    6.5895  -10.9898    0.0000 O   0  0  0  0  0  0  0  0  0  0  0  0
    6.1777   -9.8093    0.0000 C   0  0  2  0  0  0  0  0  0  0  0  0
    4.8381  -10.7603    0.0000 C   0  0  0  0  0  0  0  0  0  0  0  0
    6.1769   -8.1593    0.0000 C   0  0  0  0  0  0  0  0  0  0  0  0
    7.6059   -8.1586    0.0000 C   0  0  0  0  0  0  0  0  0  0  0  0
    8.6200   -7.2761    0.0000 C   0  0  0  0  0  0  0  0  0  0  0  0
   11.1133  -10.7043    0.0000 O   0  0  0  0  0  0  0  0  0  0  0  0
   10.3286  -10.4497    0.0000 C   0  0  0  0  0  0  0  0  0  0  0  0
   10.3282   -9.6247    0.0000 C   0  0  0  0  0  0  0  0  0  0  0  0
   11.1127   -9.3694    0.0000 C   0  0  0  0  0  0  0  0  0  0  0  0
   11.5979  -10.0366    0.0000 C   0  0  0  0  0  0  0  0  0  0  0  0
    6.8911   -7.4989    0.0000 C   0  0  0  0  0  0  0  0  0  0  0  0
    7.6053   -7.0861    0.0000 C   0  0  0  0  0  0  0  0  0  0  0  0
    7.6049   -6.2611    0.0000 O   0  0  0  0  0  0  0  0  0  0  0  0
    8.3192   -5.8482    0.0000 C   0  0  0  0  0  0  0  0  0  0  0  0
    8.3200   -7.4982    0.0000 O   0  0  0  0  0  0  0  0  0  0  0  0
    8.3203   -8.1170    0.0000 C   0  0  0  0  0  0  0  0  0  0  0  0
    4.0345  -10.2228    0.0000 O   0  0  0  0  0  0  0  0  0  0  0  0
    3.3198   -9.8107    0.0000 C   0  0  0  0  0  0  0  0  0  0  0  0
    3.3194   -8.9857    0.0000 O   0  0  0  0  0  0  0  0  0  0  0  0
    2.6056  -10.2235    0.0000 C   0  0  0  0  0  0  0  0  0  0  0  0
    6.8920   -9.3964    0.0000 H   0  0  0  0  0  0  0  0  0  0  0  0
    7.6071  -10.6336    0.0000 H   0  0  0  0  0  0  0  0  0  0  0  0
    9.3613  -10.0627    0.0000 H   0  0  0  0  0  0  0  0  0  0  0  0
    6.1781  -10.6343    0.0000 H   0  0  0  0  0  0  0  0  0  0  0  0
  1  2  1  0  0  0  0
  2  3  2  0  0  0  0
  3  4  1  0  0  0  0
  1  5  2  0  0  0  0
  1  6  1  0  0  0  0
  2  7  1  0  0  0  0
  8  9  1  0  0  0  0
  9 10  1  0  0  0  0
 10 11  1  0  0  0  0
 11 12  1  0  0  0  0
 12 13  1  0  0  0  0
 13 14  1  0  0  0  0
 14 15  2  0  0  0  0
 15 16  1  0  0  0  0
 16 17  1  0  0  0  0
 17 18  1  0  0  0  0
 18 19  1  0  0  0  0
 19 20  1  0  0  0  0
 20 21  1  0  0  0  0
 21 22  1  0  0  0  0
 22 23  1  0  0  0  0
 23 24  1  0  0  0  0
  8 24  1  0  0  0  0
  8 25  1  0  0  0  0
 25 18  1  0  0  0  0
  9 16  1  0  0  0  0
 11 15  1  0  0  0  0
 22 25  1  0  0  0  0
 22 26  1  1  0  0  0
 18 27  1  1  0  0  0
 16 28  1  1  0  0  0
 14 29  1  0  0  0  0
 30 31  1  0  0  0  0
 31 32  2  0  0  0  0
 32 33  1  0  0  0  0
 33 34  2  0  0  0  0
 30 34  1  0  0  0  0
 12 32  1  6  0  0  0
 35 36  1  0  0  0  0
 37 38  1  0  0  0  0
 36 37  1  0  0  0  0
 39 40  1  0  0  0  0
 36 39  1  0  0  0  0
 17 35  1  1  0  0  0
 42 43  2  0  0  0  0
 42 44  1  0  0  0  0
 41 42  1  0  0  0  0
 21 41  1  6  0  0  0
 19  6  1  6  0  0  0
  8 45  1  1  0  0  0
  9 46  1  1  0  0  0
 11 47  1  6  0  0  0
 25 48  1  6  0  0  0
M  END
>  <cdx:fragmentId>
48256

$$$$
