950764.cdx
  Mrv1902 05222410262D          

 45 49  0  0  0  0            999 V2000
    5.0578  -11.0407    0.0000 C   0  0  0  0  0  0  0  0  0  0  0  0
    4.3433  -10.6282    0.0000 C   0  0  0  0  0  0  0  0  0  0  0  0
    3.6288  -11.0407    0.0000 C   0  0  0  0  0  0  0  0  0  0  0  0
    2.9143  -10.6282    0.0000 C   0  0  0  0  0  0  0  0  0  0  0  0
    5.0578  -11.8657    0.0000 O   0  0  0  0  0  0  0  0  0  0  0  0
    5.7722  -10.6282    0.0000 O   0  0  0  0  0  0  0  0  0  0  0  0
    4.3433   -9.8032    0.0000 C   0  0  0  0  0  0  0  0  0  0  0  0
    7.9156   -8.5657    0.0000 C   0  0  2  0  0  0  0  0  0  0  0  0
    7.2012   -8.1532    0.0000 C   0  0  1  0  0  0  0  0  0  0  0  0
    6.4867   -8.5657    0.0000 C   0  0  1  0  0  0  0  0  0  0  0  0
    5.7722   -8.1532    0.0000 C   0  0  2  0  0  0  0  0  0  0  0  0
    5.0578   -8.5657    0.0000 C   0  0  1  0  0  0  0  0  0  0  0  0
    5.0578   -9.3907    0.0000 C   0  0  0  0  0  0  0  0  0  0  0  0
    5.7722   -9.8032    0.0000 C   0  0  1  0  0  0  0  0  0  0  0  0
    6.4867   -9.3907    0.0000 C   0  0  2  0  0  0  0  0  0  0  0  0
    7.2012   -9.8032    0.0000 C   0  0  2  0  0  0  0  0  0  0  0  0
    7.9156   -9.3907    0.0000 C   0  0  2  0  0  0  0  0  0  0  0  0
    8.7003   -9.6456    0.0000 C   0  0  0  0  0  0  0  0  0  0  0  0
    9.1852  -10.3131    0.0000 C   0  0  0  0  0  0  0  0  0  0  0  0
    9.9698  -10.0581    0.0000 C   0  0  0  0  0  0  0  0  0  0  0  0
    9.9698   -9.2331    0.0000 C   0  0  1  0  0  0  0  0  0  0  0  0
    9.1852   -8.9782    0.0000 C   0  0  1  0  0  0  0  0  0  0  0  0
    8.7003   -8.3107    0.0000 O   0  0  0  0  0  0  0  0  0  0  0  0
    7.2012  -10.6282    0.0000 C   0  0  0  0  0  0  0  0  0  0  0  0
    6.4867  -11.0407    0.0000 C   0  0  0  0  0  0  0  0  0  0  0  0
    6.4867  -11.8657    0.0000 O   0  0  0  0  0  0  0  0  0  0  0  0
    8.9302  -11.0977    0.0000 C   0  0  0  0  0  0  0  0  0  0  0  0
    8.0019  -10.2112    0.0000 C   0  0  0  0  0  0  0  0  0  0  0  0
    6.4867  -10.2157    0.0000 C   0  0  0  0  0  0  0  0  0  0  0  0
    6.1847   -7.4387    0.0000 C   0  0  0  0  0  0  0  0  0  0  0  0
    4.3433   -8.1532    0.0000 O   0  0  0  0  0  0  0  0  0  0  0  0
   11.9068   -8.3357    0.0000 O   0  0  0  0  0  0  0  0  0  0  0  0
   11.4219   -9.0031    0.0000 C   0  0  0  0  0  0  0  0  0  0  0  0
   10.6372   -8.7482    0.0000 C   0  0  0  0  0  0  0  0  0  0  0  0
   10.6372   -7.9232    0.0000 C   0  0  0  0  0  0  0  0  0  0  0  0
   11.4219   -7.6683    0.0000 C   0  0  0  0  0  0  0  0  0  0  0  0
    5.3597   -7.4387    0.0000 C   0  0  0  0  0  0  0  0  0  0  0  0
    4.5347   -7.4387    0.0000 O   0  0  0  0  0  0  0  0  0  0  0  0
    7.2012   -7.3282    0.0000 O   0  0  0  0  0  0  0  0  0  0  0  0
    7.9156   -6.9157    0.0000 C   0  0  0  0  0  0  0  0  0  0  0  0
    7.9156   -6.0907    0.0000 O   0  0  0  0  0  0  0  0  0  0  0  0
    8.6301   -7.3282    0.0000 C   0  0  0  0  0  0  0  0  0  0  0  0
    8.0019   -7.7452    0.0000 H   0  0  0  0  0  0  0  0  0  0  0  0
    6.4867   -7.7407    0.0000 H   0  0  0  0  0  0  0  0  0  0  0  0
    9.6701   -8.3107    0.0000 H   0  0  0  0  0  0  0  0  0  0  0  0
  1  2  1  0  0  0  0
  2  3  2  0  0  0  0
  3  4  1  0  0  0  0
  1  5  2  0  0  0  0
  1  6  1  0  0  0  0
  2  7  1  0  0  0  0
  8  9  1  0  0  0  0
  9 10  1  0  0  0  0
 10 11  1  0  0  0  0
 11 12  1  0  0  0  0
 12 13  1  0  0  0  0
 13 14  1  0  0  0  0
 14 15  1  0  0  0  0
 15 16  1  0  0  0  0
 16 17  1  0  0  0  0
 17 18  1  0  0  0  0
 18 19  2  0  0  0  0
 19 20  1  0  0  0  0
 20 21  1  0  0  0  0
 21 22  1  0  0  0  0
 22 23  1  0  0  0  0
  8 23  1  0  0  0  0
  8 17  1  0  0  0  0
 18 22  1  0  0  0  0
 10 15  1  0  0  0  0
 24 25  1  0  0  0  0
 25 26  2  0  0  0  0
 16 24  1  6  0  0  0
 19 27  1  0  0  0  0
 17 28  1  6  0  0  0
 15 29  1  6  0  0  0
 11 30  1  6  0  0  0
 12 31  1  1  0  0  0
 32 33  1  0  0  0  0
 33 34  2  0  0  0  0
 34 35  1  0  0  0  0
 35 36  2  0  0  0  0
 32 36  1  0  0  0  0
 21 34  1  1  0  0  0
 37 38  2  0  0  0  0
 11 37  1  1  0  0  0
 40 41  2  0  0  0  0
 40 42  1  0  0  0  0
 39 40  1  0  0  0  0
  9 39  1  1  0  0  0
 14  6  1  1  0  0  0
  8 43  1  6  0  0  0
 10 44  1  1  0  0  0
 22 45  1  1  0  0  0
M  END
>  <cdx:fragmentId>
191591

$$$$
