95071.cdx
  Mrv1902 05222410212D          

 35 37  0  0  0  0            999 V2000
    5.1628  -10.1612    0.0000 O   0  0  0  0  0  0  0  0  0  0  0  0
    6.5917  -10.9863    0.0000 O   0  0  0  0  0  0  0  0  0  0  0  0
    6.5917   -8.5113    0.0000 C   0  0  1  0  0  0  0  0  0  0  0  0
    7.0042   -7.7968    0.0000 C   0  0  0  0  0  0  0  0  0  0  0  0
    6.5917   -7.0823    0.0000 O   0  0  0  0  0  0  0  0  0  0  0  0
    7.8292   -7.7968    0.0000 O   0  0  0  0  0  0  0  0  0  0  0  0
    6.1792   -7.7968    0.0000 O   0  0  0  0  0  0  0  0  0  0  0  0
    8.7351   -7.2737    0.0000 O   0  0  0  0  0  0  0  0  0  0  0  0
   10.1641   -6.4487    0.0000 O   0  0  0  0  0  0  0  0  0  0  0  0
    5.8772   -8.9238    0.0000 C   0  0  0  0  0  0  0  0  0  0  0  0
    5.8772   -9.7487    0.0000 C   0  0  2  0  0  0  0  0  0  0  0  0
    6.5917  -10.1612    0.0000 C   0  0  1  0  0  0  0  0  0  0  0  0
    7.3062   -8.9238    0.0000 C   0  0  0  0  0  0  0  0  0  0  0  0
    7.3062   -9.7487    0.0000 C   0  0  1  0  0  0  0  0  0  0  0  0
    8.0206  -10.1612    0.0000 O   0  0  0  0  0  0  0  0  0  0  0  0
    8.7351   -8.9238    0.0000 O   0  0  0  0  0  0  0  0  0  0  0  0
    8.7351   -9.7487    0.0000 C   0  0  0  0  0  0  0  0  0  0  0  0
    9.4496  -10.1612    0.0000 C   0  0  0  0  0  0  0  0  0  0  0  0
   10.1641   -9.7487    0.0000 C   0  0  0  0  0  0  0  0  0  0  0  0
   10.1641   -7.2738    0.0000 C   0  0  0  0  0  0  0  0  0  0  0  0
    9.4496   -7.6863    0.0000 C   0  0  0  0  0  0  0  0  0  0  0  0
    9.4496   -8.5113    0.0000 C   0  0  0  0  0  0  0  0  0  0  0  0
   10.1641   -8.9238    0.0000 C   0  0  0  0  0  0  0  0  0  0  0  0
   10.8785   -8.5113    0.0000 C   0  0  0  0  0  0  0  0  0  0  0  0
   10.8785   -7.6863    0.0000 C   0  0  0  0  0  0  0  0  0  0  0  0
    5.3542   -7.7968    0.0000 C   0  0  0  0  0  0  0  0  0  0  0  0
    4.9417   -7.0823    0.0000 C   0  0  0  0  0  0  0  0  0  0  0  0
    4.9417   -8.5112    0.0000 O   0  0  0  0  0  0  0  0  0  0  0  0
    4.1167   -7.0823    0.0000 C   0  0  0  0  0  0  0  0  0  0  0  0
    3.7042   -6.3678    0.0000 C   0  0  0  0  0  0  0  0  0  0  0  0
    4.1167   -5.6534    0.0000 C   0  0  0  0  0  0  0  0  0  0  0  0
    3.7042   -4.9389    0.0000 C   0  0  0  0  0  0  0  0  0  0  0  0
    2.8792   -4.9389    0.0000 C   0  0  0  0  0  0  0  0  0  0  0  0
    2.4667   -5.6534    0.0000 C   0  0  0  0  0  0  0  0  0  0  0  0
    2.8792   -6.3678    0.0000 C   0  0  0  0  0  0  0  0  0  0  0  0
 11  1  1  6  0  0  0
 12  2  1  1  0  0  0
  3  4  1  0  0  0  0
  4  5  2  0  0  0  0
  4  6  1  0  0  0  0
 21  8  1  0  0  0  0
 20  9  1  0  0  0  0
  3 13  1  0  0  0  0
 10  3  1  0  0  0  0
 11 10  1  0  0  0  0
 12 11  1  0  0  0  0
 14 12  1  0  0  0  0
  3  7  1  1  0  0  0
 14 13  1  0  0  0  0
 14 15  1  1  0  0  0
 17 15  1  0  0  0  0
 17 16  2  0  0  0  0
 18 17  1  0  0  0  0
 19 18  2  0  0  0  0
 23 19  1  0  0  0  0
 20 25  1  0  0  0  0
 21 20  2  0  0  0  0
 22 21  1  0  0  0  0
 23 22  2  0  0  0  0
 24 23  1  0  0  0  0
 25 24  2  0  0  0  0
  7 26  1  0  0  0  0
 26 27  1  0  0  0  0
 26 28  2  0  0  0  0
 27 29  1  0  0  0  0
 29 30  1  0  0  0  0
 30 31  2  0  0  0  0
 31 32  1  0  0  0  0
 32 33  2  0  0  0  0
 33 34  1  0  0  0  0
 34 35  2  0  0  0  0
 35 30  1  0  0  0  0
M  END
>  <cdx:fragmentId>
5

$$$$
