95072.cdx
  Mrv1902 05222410212D          

 48 51  0  0  0  0            999 V2000
    8.7378  -11.4537    0.0000 O   0  0  0  0  0  0  0  0  0  0  0  0
   10.1667  -12.2788    0.0000 O   0  0  0  0  0  0  0  0  0  0  0  0
   10.1667   -9.8038    0.0000 C   0  0  2  0  0  0  0  0  0  0  0  0
   10.5792   -9.0893    0.0000 C   0  0  0  0  0  0  0  0  0  0  0  0
   10.1667   -8.3748    0.0000 O   0  0  0  0  0  0  0  0  0  0  0  0
   11.4042   -9.0893    0.0000 O   0  0  0  0  0  0  0  0  0  0  0  0
    9.7542   -9.0893    0.0000 O   0  0  0  0  0  0  0  0  0  0  0  0
    9.4522  -10.2163    0.0000 C   0  0  0  0  0  0  0  0  0  0  0  0
    9.4522  -11.0412    0.0000 C   0  0  2  0  0  0  0  0  0  0  0  0
   10.1667  -11.4537    0.0000 C   0  0  2  0  0  0  0  0  0  0  0  0
   10.8812  -10.2163    0.0000 C   0  0  0  0  0  0  0  0  0  0  0  0
   10.8812  -11.0412    0.0000 C   0  0  1  0  0  0  0  0  0  0  0  0
   11.5956  -11.4537    0.0000 O   0  0  0  0  0  0  0  0  0  0  0  0
    8.9292   -9.0893    0.0000 C   0  0  0  0  0  0  0  0  0  0  0  0
    8.5167   -8.3748    0.0000 C   0  0  0  0  0  0  0  0  0  0  0  0
    8.5167   -9.8037    0.0000 O   0  0  0  0  0  0  0  0  0  0  0  0
    7.6917   -8.3748    0.0000 C   0  0  0  0  0  0  0  0  0  0  0  0
    7.2792   -7.6603    0.0000 C   0  0  0  0  0  0  0  0  0  0  0  0
    7.6917   -6.9459    0.0000 C   0  0  0  0  0  0  0  0  0  0  0  0
    7.2792   -6.2314    0.0000 C   0  0  0  0  0  0  0  0  0  0  0  0
    6.4542   -6.2314    0.0000 C   0  0  0  0  0  0  0  0  0  0  0  0
    6.0417   -6.9459    0.0000 C   0  0  0  0  0  0  0  0  0  0  0  0
    6.4542   -7.6603    0.0000 C   0  0  0  0  0  0  0  0  0  0  0  0
    8.0233  -11.0412    0.0000 C   0  0  0  0  0  0  0  0  0  0  0  0
    7.3088  -11.4537    0.0000 C   0  0  0  0  0  0  0  0  0  0  0  0
    8.0233  -10.2163    0.0000 O   0  0  0  0  0  0  0  0  0  0  0  0
    6.5944  -11.0412    0.0000 C   0  0  0  0  0  0  0  0  0  0  0  0
    5.8799  -11.4537    0.0000 C   0  0  0  0  0  0  0  0  0  0  0  0
    5.1654  -11.0412    0.0000 C   0  0  0  0  0  0  0  0  0  0  0  0
    4.4509  -11.4537    0.0000 C   0  0  0  0  0  0  0  0  0  0  0  0
    4.4509  -12.2788    0.0000 C   0  0  0  0  0  0  0  0  0  0  0  0
    5.1654  -12.6913    0.0000 C   0  0  0  0  0  0  0  0  0  0  0  0
    5.8799  -12.2788    0.0000 C   0  0  0  0  0  0  0  0  0  0  0  0
    3.7365  -11.0412    0.0000 O   0  0  0  0  0  0  0  0  0  0  0  0
    3.7365  -12.6913    0.0000 O   0  0  0  0  0  0  0  0  0  0  0  0
    6.0417   -5.5169    0.0000 O   0  0  0  0  0  0  0  0  0  0  0  0
    7.6917   -5.5169    0.0000 O   0  0  0  0  0  0  0  0  0  0  0  0
    5.2167   -5.5169    0.0000 C   0  0  2  0  0  0  0  0  0  0  0  0
    4.8042   -4.8025    0.0000 O   0  0  0  0  0  0  0  0  0  0  0  0
    3.9792   -4.8025    0.0000 C   0  0  1  0  0  0  0  0  0  0  0  0
    3.5667   -5.5169    0.0000 C   0  0  2  0  0  0  0  0  0  0  0  0
    3.9792   -6.2314    0.0000 C   0  0  1  0  0  0  0  0  0  0  0  0
    4.8042   -6.2314    0.0000 C   0  0  1  0  0  0  0  0  0  0  0  0
    3.5667   -4.0880    0.0000 C   0  0  0  0  0  0  0  0  0  0  0  0
    3.5667   -6.9459    0.0000 O   0  0  0  0  0  0  0  0  0  0  0  0
    5.2167   -6.9459    0.0000 O   0  0  0  0  0  0  0  0  0  0  0  0
    2.7417   -5.5169    0.0000 O   0  0  0  0  0  0  0  0  0  0  0  0
    2.7417   -4.0880    0.0000 O   0  0  0  0  0  0  0  0  0  0  0  0
  9  1  1  6  0  0  0
 10  2  1  6  0  0  0
  3  4  1  0  0  0  0
  4  5  2  0  0  0  0
  4  6  1  0  0  0  0
  3 11  1  0  0  0  0
  8  3  1  0  0  0  0
  9  8  1  0  0  0  0
 10  9  1  0  0  0  0
 12 10  1  0  0  0  0
  3  7  1  6  0  0  0
 12 11  1  0  0  0  0
 12 13  1  1  0  0  0
  7 14  1  0  0  0  0
 14 15  1  0  0  0  0
 14 16  2  0  0  0  0
 15 17  2  0  0  0  0
 17 18  1  0  0  0  0
 18 19  2  0  0  0  0
 19 20  1  0  0  0  0
 20 21  2  0  0  0  0
 21 22  1  0  0  0  0
 22 23  2  0  0  0  0
 23 18  1  0  0  0  0
  1 24  1  0  0  0  0
 24 25  1  0  0  0  0
 24 26  2  0  0  0  0
 25 27  2  0  0  0  0
 27 28  1  0  0  0  0
 28 29  2  0  0  0  0
 29 30  1  0  0  0  0
 30 31  2  0  0  0  0
 31 32  1  0  0  0  0
 32 33  2  0  0  0  0
 33 28  1  0  0  0  0
 30 34  1  0  0  0  0
 31 35  1  0  0  0  0
 21 36  1  0  0  0  0
 20 37  1  0  0  0  0
 38 36  1  1  0  0  0
 38 39  1  0  0  0  0
 39 40  1  0  0  0  0
 40 41  1  0  0  0  0
 41 42  1  0  0  0  0
 42 43  1  0  0  0  0
 43 38  1  0  0  0  0
 40 44  1  1  0  0  0
 42 45  1  1  0  0  0
 43 46  1  6  0  0  0
 41 47  1  6  0  0  0
 44 48  1  0  0  0  0
M  END
>  <cdx:fragmentId>
5

$$$$
