95073.cdx
  Mrv1902 05222410212D          

 48 51  0  0  0  0            999 V2000
    7.9678  -10.1888    0.0000 O   0  0  0  0  0  0  0  0  0  0  0  0
    9.3967  -11.0137    0.0000 O   0  0  0  0  0  0  0  0  0  0  0  0
    9.3967   -8.5388    0.0000 C   0  0  1  0  0  0  0  0  0  0  0  0
    9.8092   -7.8243    0.0000 C   0  0  0  0  0  0  0  0  0  0  0  0
    9.3967   -7.1098    0.0000 O   0  0  0  0  0  0  0  0  0  0  0  0
   10.6342   -7.8243    0.0000 O   0  0  0  0  0  0  0  0  0  0  0  0
    8.9842   -7.8243    0.0000 O   0  0  0  0  0  0  0  0  0  0  0  0
    8.6822   -8.9513    0.0000 C   0  0  0  0  0  0  0  0  0  0  0  0
    8.6822   -9.7763    0.0000 C   0  0  2  0  0  0  0  0  0  0  0  0
    9.3967  -10.1888    0.0000 C   0  0  1  0  0  0  0  0  0  0  0  0
   10.1112   -8.9513    0.0000 C   0  0  0  0  0  0  0  0  0  0  0  0
   10.1112   -9.7763    0.0000 C   0  0  1  0  0  0  0  0  0  0  0  0
   10.8256  -10.1888    0.0000 O   0  0  0  0  0  0  0  0  0  0  0  0
    8.1592   -7.8243    0.0000 C   0  0  0  0  0  0  0  0  0  0  0  0
    7.7467   -7.1098    0.0000 C   0  0  0  0  0  0  0  0  0  0  0  0
    7.7467   -8.5387    0.0000 O   0  0  0  0  0  0  0  0  0  0  0  0
    6.9217   -7.1098    0.0000 C   0  0  0  0  0  0  0  0  0  0  0  0
    6.5092   -6.3953    0.0000 C   0  0  0  0  0  0  0  0  0  0  0  0
    6.9217   -5.6809    0.0000 C   0  0  0  0  0  0  0  0  0  0  0  0
    6.5092   -4.9664    0.0000 C   0  0  0  0  0  0  0  0  0  0  0  0
    5.6842   -4.9664    0.0000 C   0  0  0  0  0  0  0  0  0  0  0  0
    5.2717   -5.6809    0.0000 C   0  0  0  0  0  0  0  0  0  0  0  0
    5.6842   -6.3953    0.0000 C   0  0  0  0  0  0  0  0  0  0  0  0
    7.2533   -9.7763    0.0000 C   0  0  0  0  0  0  0  0  0  0  0  0
    6.5388  -10.1888    0.0000 C   0  0  0  0  0  0  0  0  0  0  0  0
    7.2533   -8.9513    0.0000 O   0  0  0  0  0  0  0  0  0  0  0  0
    5.8244   -9.7763    0.0000 C   0  0  0  0  0  0  0  0  0  0  0  0
    5.1099  -10.1888    0.0000 C   0  0  0  0  0  0  0  0  0  0  0  0
    4.3954   -9.7763    0.0000 C   0  0  0  0  0  0  0  0  0  0  0  0
    3.6809  -10.1888    0.0000 C   0  0  0  0  0  0  0  0  0  0  0  0
    3.6809  -11.0137    0.0000 C   0  0  0  0  0  0  0  0  0  0  0  0
    4.3954  -11.4262    0.0000 C   0  0  0  0  0  0  0  0  0  0  0  0
    5.1099  -11.0137    0.0000 C   0  0  0  0  0  0  0  0  0  0  0  0
    2.9665   -9.7763    0.0000 O   0  0  0  0  0  0  0  0  0  0  0  0
    2.9665  -11.4262    0.0000 O   0  0  0  0  0  0  0  0  0  0  0  0
    5.2717   -4.2519    0.0000 O   0  0  0  0  0  0  0  0  0  0  0  0
    6.9217   -4.2519    0.0000 O   0  0  0  0  0  0  0  0  0  0  0  0
    4.4467   -4.2519    0.0000 C   0  0  2  0  0  0  0  0  0  0  0  0
    4.0342   -3.5375    0.0000 O   0  0  0  0  0  0  0  0  0  0  0  0
    3.2092   -3.5375    0.0000 C   0  0  1  0  0  0  0  0  0  0  0  0
    2.7967   -4.2519    0.0000 C   0  0  2  0  0  0  0  0  0  0  0  0
    3.2092   -4.9664    0.0000 C   0  0  1  0  0  0  0  0  0  0  0  0
    4.0342   -4.9664    0.0000 C   0  0  1  0  0  0  0  0  0  0  0  0
    2.7967   -2.8230    0.0000 C   0  0  0  0  0  0  0  0  0  0  0  0
    2.7967   -5.6809    0.0000 O   0  0  0  0  0  0  0  0  0  0  0  0
    4.4467   -5.6809    0.0000 O   0  0  0  0  0  0  0  0  0  0  0  0
    1.9717   -4.2519    0.0000 O   0  0  0  0  0  0  0  0  0  0  0  0
    1.9717   -2.8230    0.0000 O   0  0  0  0  0  0  0  0  0  0  0  0
  9  1  1  6  0  0  0
 10  2  1  1  0  0  0
  3  4  1  0  0  0  0
  4  5  2  0  0  0  0
  4  6  1  0  0  0  0
  3 11  1  0  0  0  0
  8  3  1  0  0  0  0
  9  8  1  0  0  0  0
 10  9  1  0  0  0  0
 12 10  1  0  0  0  0
  3  7  1  1  0  0  0
 12 11  1  0  0  0  0
 12 13  1  1  0  0  0
  7 14  1  0  0  0  0
 14 15  1  0  0  0  0
 14 16  2  0  0  0  0
 15 17  2  0  0  0  0
 17 18  1  0  0  0  0
 18 19  2  0  0  0  0
 19 20  1  0  0  0  0
 20 21  2  0  0  0  0
 21 22  1  0  0  0  0
 22 23  2  0  0  0  0
 23 18  1  0  0  0  0
  1 24  1  0  0  0  0
 24 25  1  0  0  0  0
 24 26  2  0  0  0  0
 25 27  2  0  0  0  0
 27 28  1  0  0  0  0
 28 29  2  0  0  0  0
 29 30  1  0  0  0  0
 30 31  2  0  0  0  0
 31 32  1  0  0  0  0
 32 33  2  0  0  0  0
 33 28  1  0  0  0  0
 30 34  1  0  0  0  0
 31 35  1  0  0  0  0
 21 36  1  0  0  0  0
 20 37  1  0  0  0  0
 38 36  1  1  0  0  0
 38 39  1  0  0  0  0
 39 40  1  0  0  0  0
 40 41  1  0  0  0  0
 41 42  1  0  0  0  0
 42 43  1  0  0  0  0
 43 38  1  0  0  0  0
 40 44  1  1  0  0  0
 42 45  1  1  0  0  0
 43 46  1  6  0  0  0
 41 47  1  6  0  0  0
 44 48  1  0  0  0  0
M  END
>  <cdx:fragmentId>
5

$$$$
