95070.cdx
  Mrv1902 05222410212D          

 15 18  0  0  0  0            999 V2000
    7.8144   -7.9093    0.0000 C   0  0  0  0  0  0  0  0  0  0  0  0
    8.5990   -7.6543    0.0000 C   0  0  0  0  0  0  0  0  0  0  0  0
    9.4195   -7.5681    0.0000 C   0  0  0  0  0  0  0  0  0  0  0  0
    9.0839   -8.3218    0.0000 C   0  0  0  0  0  0  0  0  0  0  0  0
    8.5990   -8.9892    0.0000 C   0  0  0  0  0  0  0  0  0  0  0  0
    7.8144   -8.9130    0.0000 C   0  0  0  0  0  0  0  0  0  0  0  0
    7.0999   -9.1468    0.0000 C   0  0  0  0  0  0  0  0  0  0  0  0
    6.3854   -8.7343    0.0000 C   0  0  0  0  0  0  0  0  0  0  0  0
    6.3854   -7.9093    0.0000 C   0  0  0  0  0  0  0  0  0  0  0  0
    7.0999   -7.4968    0.0000 C   0  0  0  0  0  0  0  0  0  0  0  0
    5.6709   -9.9718    0.0000 C   0  0  0  0  0  0  0  0  0  0  0  0
    5.6709   -9.1468    0.0000 C   0  0  0  0  0  0  0  0  0  0  0  0
    4.9565   -8.7343    0.0000 C   0  0  0  0  0  0  0  0  0  0  0  0
    8.4274   -6.8473    0.0000 C   0  0  0  0  0  0  0  0  0  0  0  0
    7.8144   -7.0843    0.0000 C   0  0  0  0  0  0  0  0  0  0  0  0
  1  2  1  0  0  0  0
  2  3  1  0  0  0  0
  3  4  1  0  0  0  0
  4  5  1  0  0  0  0
  5  6  1  0  0  0  0
  6  7  1  0  0  0  0
  7  8  1  0  0  0  0
  8  9  1  0  0  0  0
  9 10  1  0  0  0  0
  1 10  1  0  0  0  0
  1  6  1  0  0  0  0
  3  7  1  0  0  0  0
  2  4  1  0  0  0  0
 11 12  1  0  0  0  0
 12 13  1  0  0  0  0
  8 12  1  0  0  0  0
  2 14  1  0  0  0  0
  1 15  1  0  0  0  0
M  END
>  <cdx:groupId>
50

>  <cdx:fragmentId>
5

$$$$
