95089.cdx
  Mrv1902 05222410232D          

 35 37  0  0  0  0            999 V2000
    8.4712   -7.9189    0.0000 C   0  0  2  0  0  0  0  0  0  0  0  0
    8.0587   -7.2044    0.0000 O   0  0  0  0  0  0  0  0  0  0  0  0
    8.8837   -7.2044    0.0000 C   0  0  0  0  0  0  0  0  0  0  0  0
    8.4712   -6.4900    0.0000 O   0  0  0  0  0  0  0  0  0  0  0  0
    9.7087   -7.2044    0.0000 O   0  0  0  0  0  0  0  0  0  0  0  0
    7.2337   -7.2044    0.0000 C   0  0  0  0  0  0  0  0  0  0  0  0
    6.8212   -6.4900    0.0000 C   0  0  0  0  0  0  0  0  0  0  0  0
    7.0423   -9.5689    0.0000 O   0  0  0  0  0  0  0  0  0  0  0  0
    6.8212   -7.9189    0.0000 O   0  0  0  0  0  0  0  0  0  0  0  0
    5.9962   -6.4900    0.0000 C   0  0  0  0  0  0  0  0  0  0  0  0
    5.5837   -5.7755    0.0000 C   0  0  0  0  0  0  0  0  0  0  0  0
    8.4712  -10.3939    0.0000 O   0  0  0  0  0  0  0  0  0  0  0  0
    9.9002   -9.5689    0.0000 O   0  0  0  0  0  0  0  0  0  0  0  0
    7.7568   -8.3314    0.0000 C   0  0  0  0  0  0  0  0  0  0  0  0
    7.7568   -9.1564    0.0000 C   0  0  2  0  0  0  0  0  0  0  0  0
    8.4712   -9.5689    0.0000 C   0  0  1  0  0  0  0  0  0  0  0  0
    9.1857   -9.1564    0.0000 C   0  0  1  0  0  0  0  0  0  0  0  0
    9.1857   -8.3314    0.0000 C   0  0  0  0  0  0  0  0  0  0  0  0
    5.9962   -5.0610    0.0000 C   0  0  0  0  0  0  0  0  0  0  0  0
    5.5837   -4.3465    0.0000 C   0  0  0  0  0  0  0  0  0  0  0  0
    4.7587   -4.3465    0.0000 C   0  0  0  0  0  0  0  0  0  0  0  0
    4.3462   -5.0610    0.0000 C   0  0  0  0  0  0  0  0  0  0  0  0
    4.7587   -5.7755    0.0000 C   0  0  0  0  0  0  0  0  0  0  0  0
    6.3278   -9.1564    0.0000 C   0  0  0  0  0  0  0  0  0  0  0  0
    5.6133   -9.5689    0.0000 C   0  0  0  0  0  0  0  0  0  0  0  0
    6.3278   -8.3314    0.0000 O   0  0  0  0  0  0  0  0  0  0  0  0
    4.8989   -9.1564    0.0000 C   0  0  0  0  0  0  0  0  0  0  0  0
    4.1844   -9.5689    0.0000 C   0  0  0  0  0  0  0  0  0  0  0  0
    3.4699   -9.1564    0.0000 C   0  0  0  0  0  0  0  0  0  0  0  0
    2.7555   -9.5689    0.0000 C   0  0  0  0  0  0  0  0  0  0  0  0
    2.7555  -10.3939    0.0000 C   0  0  0  0  0  0  0  0  0  0  0  0
    3.4699  -10.8064    0.0000 C   0  0  0  0  0  0  0  0  0  0  0  0
    4.1844  -10.3939    0.0000 C   0  0  0  0  0  0  0  0  0  0  0  0
    2.0410   -9.1564    0.0000 O   0  0  0  0  0  0  0  0  0  0  0  0
    2.0410  -10.8064    0.0000 O   0  0  0  0  0  0  0  0  0  0  0  0
  1  2  1  1  0  0  0
  1  3  1  0  0  0  0
  3  4  2  0  0  0  0
  3  5  1  0  0  0  0
  2  6  1  0  0  0  0
 15  8  1  6  0  0  0
  6  7  1  0  0  0  0
  6  9  2  0  0  0  0
  7 10  1  0  0  0  0
 16 12  1  1  0  0  0
 17 13  1  1  0  0  0
  1 18  1  0  0  0  0
 14  1  1  0  0  0  0
 15 14  1  0  0  0  0
 16 15  1  0  0  0  0
 17 16  1  0  0  0  0
 18 17  1  0  0  0  0
 10 11  1  0  0  0  0
 11 19  2  0  0  0  0
 19 20  1  0  0  0  0
 20 21  2  0  0  0  0
 21 22  1  0  0  0  0
 22 23  2  0  0  0  0
 23 11  1  0  0  0  0
  8 24  1  0  0  0  0
 24 25  1  0  0  0  0
 24 26  2  0  0  0  0
 25 27  2  0  0  0  0
 27 28  1  0  0  0  0
 28 29  2  0  0  0  0
 29 30  1  0  0  0  0
 30 31  2  0  0  0  0
 31 32  1  0  0  0  0
 32 33  2  0  0  0  0
 33 28  1  0  0  0  0
 30 34  1  0  0  0  0
 31 35  1  0  0  0  0
M  END
>  <cdx:fragmentId>
139

$$$$
