95088.cdx
  Mrv1902 05222410232D          

 43 45  0  0  0  0            999 V2000
    5.3606   -6.1039    0.0000 C   0  0  0  0  0  0  0  0  0  0  0  0
    5.3606   -6.9289    0.0000 C   0  0  2  0  0  0  0  0  0  0  0  0
    6.0750   -7.3414    0.0000 C   0  0  1  0  0  0  0  0  0  0  0  0
    6.7895   -6.9289    0.0000 C   0  0  1  0  0  0  0  0  0  0  0  0
    6.7895   -6.1039    0.0000 C   0  0  0  0  0  0  0  0  0  0  0  0
    6.0750   -5.6914    0.0000 C   0  0  2  0  0  0  0  0  0  0  0  0
    4.6461   -7.3414    0.0000 O   0  0  0  0  0  0  0  0  0  0  0  0
    6.0750   -8.1664    0.0000 O   0  0  0  0  0  0  0  0  0  0  0  0
    5.3606   -8.5789    0.0000 C   0  0  0  0  0  0  0  0  0  0  0  0
    5.3606   -9.4039    0.0000 C   0  0  0  0  0  0  0  0  0  0  0  0
    4.6461   -8.1664    0.0000 O   0  0  0  0  0  0  0  0  0  0  0  0
    4.6461   -9.8164    0.0000 C   0  0  0  0  0  0  0  0  0  0  0  0
    4.6461  -10.6414    0.0000 C   0  0  0  0  0  0  0  0  0  0  0  0
    3.9316  -11.0539    0.0000 C   0  0  0  0  0  0  0  0  0  0  0  0
    3.9316  -11.8789    0.0000 C   0  0  0  0  0  0  0  0  0  0  0  0
    4.6461  -12.2914    0.0000 C   0  0  0  0  0  0  0  0  0  0  0  0
    5.3606  -11.8789    0.0000 C   0  0  0  0  0  0  0  0  0  0  0  0
    5.3606  -11.0539    0.0000 C   0  0  0  0  0  0  0  0  0  0  0  0
    4.6461  -13.1164    0.0000 O   0  0  0  0  0  0  0  0  0  0  0  0
    3.2171  -12.2914    0.0000 O   0  0  0  0  0  0  0  0  0  0  0  0
    5.6625   -4.9769    0.0000 O   0  0  0  0  0  0  0  0  0  0  0  0
    6.4875   -4.9769    0.0000 C   0  0  0  0  0  0  0  0  0  0  0  0
    6.0750   -4.2625    0.0000 O   0  0  0  0  0  0  0  0  0  0  0  0
    7.3125   -4.9769    0.0000 O   0  0  0  0  0  0  0  0  0  0  0  0
    7.5040   -7.3414    0.0000 O   0  0  0  0  0  0  0  0  0  0  0  0
    8.2184   -6.9289    0.0000 C   0  0  0  0  0  0  0  0  0  0  0  0
    8.9329   -7.3414    0.0000 C   0  0  0  0  0  0  0  0  0  0  0  0
    8.2184   -6.1039    0.0000 O   0  0  0  0  0  0  0  0  0  0  0  0
    9.6474   -6.9289    0.0000 C   0  0  0  0  0  0  0  0  0  0  0  0
   10.3619   -7.3414    0.0000 C   0  0  0  0  0  0  0  0  0  0  0  0
   10.3619   -8.1664    0.0000 C   0  0  0  0  0  0  0  0  0  0  0  0
   11.0763   -8.5789    0.0000 C   0  0  0  0  0  0  0  0  0  0  0  0
   11.7908   -8.1664    0.0000 C   0  0  0  0  0  0  0  0  0  0  0  0
   11.7908   -7.3414    0.0000 C   0  0  0  0  0  0  0  0  0  0  0  0
   11.0763   -6.9289    0.0000 C   0  0  0  0  0  0  0  0  0  0  0  0
   12.5053   -8.5789    0.0000 O   0  0  0  0  0  0  0  0  0  0  0  0
   12.5053   -6.9289    0.0000 O   0  0  0  0  0  0  0  0  0  0  0  0
    3.9316   -6.9289    0.0000 C   0  0  0  0  0  0  0  0  0  0  0  0
    3.2171   -7.3414    0.0000 C   0  0  0  0  0  0  0  0  0  0  0  0
    3.9316   -6.1039    0.0000 O   0  0  0  0  0  0  0  0  0  0  0  0
    2.5027   -6.9289    0.0000 C   0  0  0  0  0  0  0  0  0  0  0  0
    1.7882   -7.3414    0.0000 O   0  0  0  0  0  0  0  0  0  0  0  0
    2.5027   -6.1039    0.0000 O   0  0  0  0  0  0  0  0  0  0  0  0
  1  2  1  0  0  0  0
  2  3  1  0  0  0  0
  3  4  1  0  0  0  0
  4  5  1  0  0  0  0
  5  6  1  0  0  0  0
  6  1  1  0  0  0  0
  2  7  1  6  0  0  0
  3  8  1  1  0  0  0
  8  9  1  0  0  0  0
  9 10  1  0  0  0  0
  9 11  2  0  0  0  0
 10 12  2  0  0  0  0
 12 13  1  0  0  0  0
 13 14  2  0  0  0  0
 14 15  1  0  0  0  0
 15 16  2  0  0  0  0
 16 17  1  0  0  0  0
 17 18  2  0  0  0  0
 18 13  1  0  0  0  0
 16 19  1  0  0  0  0
 15 20  1  0  0  0  0
  6 21  1  1  0  0  0
  6 22  1  0  0  0  0
 22 23  2  0  0  0  0
 22 24  1  0  0  0  0
  4 25  1  1  0  0  0
 25 26  1  0  0  0  0
 26 27  1  0  0  0  0
 26 28  2  0  0  0  0
 27 29  2  0  0  0  0
 29 30  1  0  0  0  0
 30 31  2  0  0  0  0
 31 32  1  0  0  0  0
 32 33  2  0  0  0  0
 33 34  1  0  0  0  0
 34 35  2  0  0  0  0
 35 30  1  0  0  0  0
 33 36  1  0  0  0  0
 34 37  1  0  0  0  0
  7 38  1  0  0  0  0
 38 39  1  0  0  0  0
 38 40  2  0  0  0  0
 39 41  1  0  0  0  0
 41 42  1  0  0  0  0
 41 43  2  0  0  0  0
M  END
>  <cdx:fragmentId>
137

$$$$
