95083.cdx
  Mrv1902 05222410252D          

 37 39  0  0  0  0            999 V2000
    8.7490   -6.7321    0.0000 C   0  0  0  0  0  0  0  0  0  0  0  0
    8.7490   -7.4746    0.0000 C   0  0  2  0  0  0  0  0  0  0  0  0
    9.3920   -7.8459    0.0000 C   0  0  1  0  0  0  0  0  0  0  0  0
   10.0350   -7.4746    0.0000 C   0  0  1  0  0  0  0  0  0  0  0  0
   10.0350   -6.7321    0.0000 C   0  0  0  0  0  0  0  0  0  0  0  0
    9.3920   -6.3609    0.0000 C   0  0  2  0  0  0  0  0  0  0  0  0
    8.1060   -7.8459    0.0000 O   0  0  0  0  0  0  0  0  0  0  0  0
    9.3920   -8.5884    0.0000 O   0  0  0  0  0  0  0  0  0  0  0  0
   10.6780   -7.8459    0.0000 O   0  0  0  0  0  0  0  0  0  0  0  0
    4.1942   -7.7920    0.0000 C   0  0  0  0  0  0  0  0  0  0  0  0
    4.1808   -8.5344    0.0000 C   0  0  0  0  0  0  0  0  0  0  0  0
    4.8170   -8.9172    0.0000 C   0  0  0  0  0  0  0  0  0  0  0  0
    5.4667   -8.5576    0.0000 C   0  0  0  0  0  0  0  0  0  0  0  0
    5.4801   -7.8153    0.0000 C   0  0  0  0  0  0  0  0  0  0  0  0
    4.8439   -7.4325    0.0000 C   0  0  0  0  0  0  0  0  0  0  0  0
    3.5312   -8.8940    0.0000 O   0  0  0  0  0  0  0  0  0  0  0  0
    6.1297   -7.4557    0.0000 C   0  0  0  0  0  0  0  0  0  0  0  0
    6.7659   -7.8385    0.0000 C   0  0  0  0  0  0  0  0  0  0  0  0
    7.4156   -7.4790    0.0000 C   0  0  0  0  0  0  0  0  0  0  0  0
    7.4290   -6.7366    0.0000 O   0  0  0  0  0  0  0  0  0  0  0  0
    3.5348   -7.4070    0.0000 O   0  0  0  0  0  0  0  0  0  0  0  0
    8.7500   -8.9648    0.0000 C   0  0  0  0  0  0  0  0  0  0  0  0
    8.7545   -9.7073    0.0000 C   0  0  0  0  0  0  0  0  0  0  0  0
    8.1048   -8.5974    0.0000 O   0  0  0  0  0  0  0  0  0  0  0  0
    8.1137  -10.0824    0.0000 C   0  0  0  0  0  0  0  0  0  0  0  0
    8.1181  -10.8249    0.0000 C   0  0  0  0  0  0  0  0  0  0  0  0
    7.4773  -11.2000    0.0000 C   0  0  0  0  0  0  0  0  0  0  0  0
    7.4818  -11.9424    0.0000 C   0  0  0  0  0  0  0  0  0  0  0  0
    8.1270  -12.3098    0.0000 C   0  0  0  0  0  0  0  0  0  0  0  0
    8.7678  -11.9348    0.0000 C   0  0  0  0  0  0  0  0  0  0  0  0
    8.7633  -11.1923    0.0000 C   0  0  0  0  0  0  0  0  0  0  0  0
    6.8410  -12.3175    0.0000 O   0  0  0  0  0  0  0  0  0  0  0  0
    8.1314  -13.0523    0.0000 O   0  0  0  0  0  0  0  0  0  0  0  0
    8.9795   -5.6464    0.0000 O   0  0  0  0  0  0  0  0  0  0  0  0
    9.8045   -5.6464    0.0000 C   0  0  0  0  0  0  0  0  0  0  0  0
    9.3920   -4.9319    0.0000 O   0  0  0  0  0  0  0  0  0  0  0  0
   10.6295   -5.6464    0.0000 O   0  0  0  0  0  0  0  0  0  0  0  0
  1  2  1  0  0  0  0
  2  3  1  0  0  0  0
  3  4  1  0  0  0  0
  4  5  1  0  0  0  0
  5  6  1  0  0  0  0
  6  1  1  0  0  0  0
  2  7  1  6  0  0  0
  3  8  1  1  0  0  0
  4  9  1  1  0  0  0
 10 11  2  0  0  0  0
 11 12  1  0  0  0  0
 12 13  2  0  0  0  0
 13 14  1  0  0  0  0
 14 15  2  0  0  0  0
 15 10  1  0  0  0  0
 11 16  1  0  0  0  0
 14 17  1  0  0  0  0
 17 18  1  0  0  0  0
 18 19  1  0  0  0  0
 19 20  2  0  0  0  0
 10 21  1  0  0  0  0
 22 23  1  0  0  0  0
 22 24  2  0  0  0  0
 23 25  2  0  0  0  0
 25 26  1  0  0  0  0
 26 27  2  0  0  0  0
 27 28  1  0  0  0  0
 28 29  2  0  0  0  0
 29 30  1  0  0  0  0
 30 31  2  0  0  0  0
 31 26  1  0  0  0  0
 28 32  1  0  0  0  0
 29 33  1  0  0  0  0
 22  8  1  0  0  0  0
 19  7  1  0  0  0  0
  6 34  1  1  0  0  0
  6 35  1  0  0  0  0
 35 36  2  0  0  0  0
 35 37  1  0  0  0  0
M  END
>  <cdx:fragmentId>
5

$$$$
