95085.cdx
  Mrv1902 05222410232D          

 13 13  0  0  0  0            999 V2000
    6.7888   -3.3902    0.0000 C   0  0  0  0  0  0  0  0  0  0  0  0
    6.0743   -3.8027    0.0000 C   0  0  0  0  0  0  0  0  0  0  0  0
    5.3599   -3.3902    0.0000 C   0  0  0  0  0  0  0  0  0  0  0  0
    4.6454   -3.8027    0.0000 C   0  0  0  0  0  0  0  0  0  0  0  0
    4.6454   -4.6277    0.0000 C   0  0  0  0  0  0  0  0  0  0  0  0
    5.3599   -5.0402    0.0000 C   0  0  0  0  0  0  0  0  0  0  0  0
    6.0743   -4.6277    0.0000 C   0  0  0  0  0  0  0  0  0  0  0  0
    6.7888   -2.5652    0.0000 O   0  0  0  0  0  0  0  0  0  0  0  0
    7.5033   -3.8027    0.0000 O   0  0  0  0  0  0  0  0  0  0  0  0
    3.9309   -5.0402    0.0000 O   0  0  0  0  0  0  0  0  0  0  0  0
    3.9309   -3.3902    0.0000 O   0  0  0  0  0  0  0  0  0  0  0  0
    3.2165   -3.8027    0.0000 C   0  0  0  0  0  0  0  0  0  0  0  0
    2.5020   -3.3902    0.0000 C   0  0  0  0  0  0  0  0  0  0  0  0
  1  2  1  0  0  0  0
  2  3  1  0  0  0  0
  3  4  2  0  0  0  0
  4  5  1  0  0  0  0
  5  6  2  0  0  0  0
  6  7  1  0  0  0  0
  2  7  2  0  0  0  0
  1  8  2  0  0  0  0
  1  9  1  0  0  0  0
  5 10  1  0  0  0  0
 12 13  1  0  0  0  0
 11 12  1  0  0  0  0
  4 11  1  0  0  0  0
M  END
>  <cdx:groupId>
41

>  <cdx:fragmentId>
5

$$$$
