95082.cdx
  Mrv1902 05222410252D          

 35 37  0  0  0  0            999 V2000
    5.8862   -7.2039    0.0000 C   0  0  2  0  0  0  0  0  0  0  0  0
    5.4737   -6.4894    0.0000 O   0  0  0  0  0  0  0  0  0  0  0  0
    6.2987   -6.4894    0.0000 C   0  0  0  0  0  0  0  0  0  0  0  0
    5.8862   -5.7750    0.0000 O   0  0  0  0  0  0  0  0  0  0  0  0
    7.1237   -6.4894    0.0000 O   0  0  0  0  0  0  0  0  0  0  0  0
    4.6487   -6.4894    0.0000 C   0  0  0  0  0  0  0  0  0  0  0  0
    4.2362   -5.7750    0.0000 C   0  0  0  0  0  0  0  0  0  0  0  0
    4.4573   -8.8539    0.0000 O   0  0  0  0  0  0  0  0  0  0  0  0
    4.2362   -7.2039    0.0000 O   0  0  0  0  0  0  0  0  0  0  0  0
    3.4112   -5.7750    0.0000 C   0  0  0  0  0  0  0  0  0  0  0  0
    2.9987   -5.0605    0.0000 C   0  0  0  0  0  0  0  0  0  0  0  0
   12.3165  -10.0914    0.0000 O   0  0  0  0  0  0  0  0  0  0  0  0
   12.3165   -8.4414    0.0000 O   0  0  0  0  0  0  0  0  0  0  0  0
   10.1731   -9.6789    0.0000 C   0  0  0  0  0  0  0  0  0  0  0  0
   10.8875  -10.0914    0.0000 C   0  0  0  0  0  0  0  0  0  0  0  0
   11.6020   -9.6789    0.0000 C   0  0  0  0  0  0  0  0  0  0  0  0
   11.6020   -8.8539    0.0000 C   0  0  0  0  0  0  0  0  0  0  0  0
   10.8875   -8.4414    0.0000 C   0  0  0  0  0  0  0  0  0  0  0  0
   10.1731   -8.8539    0.0000 C   0  0  0  0  0  0  0  0  0  0  0  0
    9.4586   -8.4414    0.0000 C   0  0  0  0  0  0  0  0  0  0  0  0
    8.0296   -7.6164    0.0000 O   0  0  0  0  0  0  0  0  0  0  0  0
    8.7441   -8.8539    0.0000 C   0  0  0  0  0  0  0  0  0  0  0  0
    8.0296   -8.4414    0.0000 C   0  0  0  0  0  0  0  0  0  0  0  0
    5.8862   -9.6789    0.0000 O   0  0  0  0  0  0  0  0  0  0  0  0
    7.3152   -8.8539    0.0000 O   0  0  0  0  0  0  0  0  0  0  0  0
    5.1718   -7.6164    0.0000 C   0  0  0  0  0  0  0  0  0  0  0  0
    5.1718   -8.4414    0.0000 C   0  0  2  0  0  0  0  0  0  0  0  0
    5.8862   -8.8539    0.0000 C   0  0  1  0  0  0  0  0  0  0  0  0
    6.6007   -8.4414    0.0000 C   0  0  1  0  0  0  0  0  0  0  0  0
    6.6007   -7.6164    0.0000 C   0  0  0  0  0  0  0  0  0  0  0  0
    3.4112   -4.3460    0.0000 C   0  0  0  0  0  0  0  0  0  0  0  0
    2.9987   -3.6315    0.0000 C   0  0  0  0  0  0  0  0  0  0  0  0
    2.1737   -3.6315    0.0000 C   0  0  0  0  0  0  0  0  0  0  0  0
    1.7612   -4.3460    0.0000 C   0  0  0  0  0  0  0  0  0  0  0  0
    2.1737   -5.0605    0.0000 C   0  0  0  0  0  0  0  0  0  0  0  0
  1  2  1  1  0  0  0
  1  3  1  0  0  0  0
  3  4  2  0  0  0  0
  3  5  1  0  0  0  0
  2  6  1  0  0  0  0
 27  8  1  6  0  0  0
  6  7  1  0  0  0  0
  6  9  2  0  0  0  0
  7 10  1  0  0  0  0
 16 12  1  0  0  0  0
 17 13  1  0  0  0  0
 14 19  1  0  0  0  0
 15 14  2  0  0  0  0
 16 15  1  0  0  0  0
 17 16  2  0  0  0  0
 18 17  1  0  0  0  0
 19 18  2  0  0  0  0
 20 19  1  0  0  0  0
 22 20  2  0  0  0  0
 23 21  2  0  0  0  0
 23 22  1  0  0  0  0
 25 23  1  0  0  0  0
 28 24  1  1  0  0  0
 29 25  1  1  0  0  0
  1 30  1  0  0  0  0
 26  1  1  0  0  0  0
 27 26  1  0  0  0  0
 28 27  1  0  0  0  0
 29 28  1  0  0  0  0
 30 29  1  0  0  0  0
 10 11  1  0  0  0  0
 11 31  2  0  0  0  0
 31 32  1  0  0  0  0
 32 33  2  0  0  0  0
 33 34  1  0  0  0  0
 34 35  2  0  0  0  0
 35 11  1  0  0  0  0
M  END
>  <cdx:fragmentId>
139

$$$$
