95084.cdx
  Mrv1902 05222410232D          

 48 51  0  0  0  0            999 V2000
    9.6595   -7.8648    0.0000 O   0  0  0  0  0  0  0  0  0  0  0  0
    9.6641   -8.6898    0.0000 C   0  0  0  0  0  0  0  0  0  0  0  0
    8.9519   -9.1063    0.0000 C   0  0  0  0  0  0  0  0  0  0  0  0
    8.2352   -8.6978    0.0000 C   0  0  0  0  0  0  0  0  0  0  0  0
    6.0987   -9.9473    0.0000 C   0  0  0  0  0  0  0  0  0  0  0  0
    6.8155  -10.3558    0.0000 C   0  0  0  0  0  0  0  0  0  0  0  0
    7.5276   -9.9393    0.0000 C   0  0  0  0  0  0  0  0  0  0  0  0
    7.5230   -9.1143    0.0000 C   0  0  0  0  0  0  0  0  0  0  0  0
    6.8062   -8.7058    0.0000 C   0  0  0  0  0  0  0  0  0  0  0  0
    6.0941   -9.1223    0.0000 C   0  0  0  0  0  0  0  0  0  0  0  0
    5.3866  -10.3638    0.0000 O   0  0  0  0  0  0  0  0  0  0  0  0
    5.3773   -8.7138    0.0000 O   0  0  0  0  0  0  0  0  0  0  0  0
   11.8020   -7.4007    0.0000 C   0  0  2  0  0  0  0  0  0  0  0  0
   12.2138   -6.6858    0.0000 C   0  0  0  0  0  0  0  0  0  0  0  0
   11.3888   -6.6867    0.0000 O   0  0  0  0  0  0  0  0  0  0  0  0
   11.8005   -5.9718    0.0000 O   0  0  0  0  0  0  0  0  0  0  0  0
   13.0388   -6.6849    0.0000 O   0  0  0  0  0  0  0  0  0  0  0  0
    8.1698   -3.7403    0.0000 C   0  0  0  0  0  0  0  0  0  0  0  0
    7.7431   -4.4465    0.0000 C   0  0  0  0  0  0  0  0  0  0  0  0
    8.1413   -5.1690    0.0000 C   0  0  0  0  0  0  0  0  0  0  0  0
    8.9662   -5.1854    0.0000 C   0  0  0  0  0  0  0  0  0  0  0  0
    9.3928   -4.4793    0.0000 C   0  0  0  0  0  0  0  0  0  0  0  0
    8.9946   -3.7568    0.0000 C   0  0  0  0  0  0  0  0  0  0  0  0
    7.7716   -3.0178    0.0000 O   0  0  0  0  0  0  0  0  0  0  0  0
    9.4213   -3.0507    0.0000 O   0  0  0  0  0  0  0  0  0  0  0  0
    9.3644   -5.9080    0.0000 C   0  0  0  0  0  0  0  0  0  0  0  0
   10.1892   -5.9244    0.0000 C   0  0  0  0  0  0  0  0  0  0  0  0
   10.5874   -6.6469    0.0000 C   0  0  0  0  0  0  0  0  0  0  0  0
   10.1607   -7.3531    0.0000 O   0  0  0  0  0  0  0  0  0  0  0  0
   13.2327   -9.0492    0.0000 O   0  0  0  0  0  0  0  0  0  0  0  0
   11.8046   -9.8757    0.0000 O   0  0  0  0  0  0  0  0  0  0  0  0
   10.3748   -9.0522    0.0000 O   0  0  0  0  0  0  0  0  0  0  0  0
   11.0889   -8.6389    0.0000 C   0  0  1  0  0  0  0  0  0  0  0  0
   11.8038   -9.0507    0.0000 C   0  0  1  0  0  0  0  0  0  0  0  0
   12.5178   -8.6375    0.0000 C   0  0  1  0  0  0  0  0  0  0  0  0
   12.5169   -7.8125    0.0000 C   0  0  0  0  0  0  0  0  0  0  0  0
   11.0880   -7.8139    0.0000 C   0  0  0  0  0  0  0  0  0  0  0  0
    4.6698   -9.9553    0.0000 C   0  0  2  0  0  0  0  0  0  0  0  0
    4.6629   -9.1303    0.0000 O   0  0  0  0  0  0  0  0  0  0  0  0
    3.9449   -8.7239    0.0000 C   0  0  1  0  0  0  0  0  0  0  0  0
    3.2340   -9.1303    0.0000 C   0  0  2  0  0  0  0  0  0  0  0  0
    3.2340   -9.9553    0.0000 C   0  0  1  0  0  0  0  0  0  0  0  0
    3.9449  -10.3618    0.0000 C   0  0  1  0  0  0  0  0  0  0  0  0
    3.9432   -7.8989    0.0000 C   0  0  0  0  0  0  0  0  0  0  0  0
    2.5204  -10.3693    0.0000 O   0  0  0  0  0  0  0  0  0  0  0  0
    3.9415  -11.1868    0.0000 O   0  0  0  0  0  0  0  0  0  0  0  0
    2.5204   -8.7163    0.0000 O   0  0  0  0  0  0  0  0  0  0  0  0
    3.2279   -7.4879    0.0000 O   0  0  0  0  0  0  0  0  0  0  0  0
  2 32  1  0  0  0  0
  2  1  2  0  0  0  0
  3  2  1  0  0  0  0
  4  3  2  0  0  0  0
  8  4  1  0  0  0  0
  5  6  2  0  0  0  0
  6  7  1  0  0  0  0
  7  8  2  0  0  0  0
  8  9  1  0  0  0  0
  9 10  2  0  0  0  0
 10  5  1  0  0  0  0
  5 11  1  0  0  0  0
 10 12  1  0  0  0  0
 13 14  1  0  0  0  0
 13 15  1  1  0  0  0
 14 16  1  0  0  0  0
 14 17  2  0  0  0  0
 18 19  2  0  0  0  0
 19 20  1  0  0  0  0
 20 21  2  0  0  0  0
 21 22  1  0  0  0  0
 22 23  2  0  0  0  0
 23 18  1  0  0  0  0
 18 24  1  0  0  0  0
 23 25  1  0  0  0  0
 21 26  1  0  0  0  0
 26 27  2  0  0  0  0
 27 28  1  0  0  0  0
 28 29  2  0  0  0  0
 35 30  1  1  0  0  0
 34 31  1  1  0  0  0
 33 32  1  6  0  0  0
 33 37  1  0  0  0  0
 34 33  1  0  0  0  0
 35 34  1  0  0  0  0
 36 35  1  0  0  0  0
 13 36  1  0  0  0  0
 37 13  1  0  0  0  0
 28 15  1  0  0  0  0
 38 11  1  1  0  0  0
 38 39  1  0  0  0  0
 39 40  1  0  0  0  0
 40 41  1  0  0  0  0
 41 42  1  0  0  0  0
 42 43  1  0  0  0  0
 43 38  1  0  0  0  0
 40 44  1  1  0  0  0
 42 45  1  1  0  0  0
 43 46  1  6  0  0  0
 41 47  1  6  0  0  0
 44 48  1  0  0  0  0
M  END
>  <cdx:fragmentId>
5

$$$$
