95080.cdx
  Mrv1902 05222410252D          

 31 32  0  0  0  0            999 V2000
   10.8040   -4.1805    0.0000 O   0  0  0  0  0  0  0  0  0  0  0  0
   10.8040   -5.6094    0.0000 O   0  0  0  0  0  0  0  0  0  0  0  0
   10.3915   -4.8950    0.0000 C   0  0  0  0  0  0  0  0  0  0  0  0
    9.5665   -6.3239    0.0000 O   0  0  0  0  0  0  0  0  0  0  0  0
    9.5665   -4.8950    0.0000 C   0  0  0  0  0  0  0  0  0  0  0  0
    9.1540   -5.6094    0.0000 C   0  0  0  0  0  0  0  0  0  0  0  0
    6.4875   -7.9739    0.0000 O   0  0  0  0  0  0  0  0  0  0  0  0
    6.6790   -5.6094    0.0000 O   0  0  0  0  0  0  0  0  0  0  0  0
    7.9165   -4.8950    0.0000 O   0  0  0  0  0  0  0  0  0  0  0  0
    7.5040   -5.6094    0.0000 C   0  0  0  0  0  0  0  0  0  0  0  0
    8.3290   -5.6094    0.0000 O   0  0  0  0  0  0  0  0  0  0  0  0
    7.9165   -8.7989    0.0000 O   0  0  0  0  0  0  0  0  0  0  0  0
    7.2020   -9.2114    0.0000 C   0  0  0  0  0  0  0  0  0  0  0  0
    7.2020  -10.0364    0.0000 C   0  0  0  0  0  0  0  0  0  0  0  0
    6.4875   -8.7989    0.0000 O   0  0  0  0  0  0  0  0  0  0  0  0
    6.4875  -10.4489    0.0000 C   0  0  0  0  0  0  0  0  0  0  0  0
    6.4875  -11.2739    0.0000 C   0  0  0  0  0  0  0  0  0  0  0  0
    5.7731  -11.6864    0.0000 C   0  0  0  0  0  0  0  0  0  0  0  0
    5.7731  -12.5114    0.0000 C   0  0  0  0  0  0  0  0  0  0  0  0
    6.4875  -12.9239    0.0000 C   0  0  0  0  0  0  0  0  0  0  0  0
    7.2020  -12.5114    0.0000 C   0  0  0  0  0  0  0  0  0  0  0  0
    7.2020  -11.6864    0.0000 C   0  0  0  0  0  0  0  0  0  0  0  0
    6.4875  -13.7489    0.0000 O   0  0  0  0  0  0  0  0  0  0  0  0
    5.0586  -12.9239    0.0000 O   0  0  0  0  0  0  0  0  0  0  0  0
    9.3454   -7.9739    0.0000 O   0  0  0  0  0  0  0  0  0  0  0  0
    7.9165   -6.3239    0.0000 C   0  0  0  0  0  0  0  0  0  0  0  0
    7.2020   -6.7364    0.0000 C   0  0  0  0  0  0  0  0  0  0  0  0
    7.2020   -7.5614    0.0000 C   0  0  2  0  0  0  0  0  0  0  0  0
    7.9165   -7.9739    0.0000 C   0  0  0  0  0  0  0  0  0  0  0  0
    8.6309   -7.5614    0.0000 C   0  0  1  0  0  0  0  0  0  0  0  0
    8.6309   -6.7364    0.0000 C   0  0  0  0  0  0  0  0  0  0  0  0
  3  1  1  0  0  0  0
  3  2  2  0  0  0  0
  5  3  1  0  0  0  0
  6  4  1  0  0  0  0
  6  5  1  0  0  0  0
 11  6  1  0  0  0  0
 28  7  1  6  0  0  0
 10  8  1  0  0  0  0
 10  9  2  0  0  0  0
 26 10  1  0  0  0  0
 26 11  1  0  0  0  0
 12 13  1  0  0  0  0
 13 14  1  0  0  0  0
 13 15  2  0  0  0  0
 14 16  2  0  0  0  0
 16 17  1  0  0  0  0
 17 18  2  0  0  0  0
 18 19  1  0  0  0  0
 19 20  2  0  0  0  0
 20 21  1  0  0  0  0
 21 22  2  0  0  0  0
 22 17  1  0  0  0  0
 20 23  1  0  0  0  0
 29 12  1  0  0  0  0
 19 24  1  0  0  0  0
 30 25  1  1  0  0  0
 26 31  1  0  0  0  0
 27 26  1  0  0  0  0
 28 27  1  0  0  0  0
 29 28  1  0  0  0  0
 30 29  1  0  0  0  0
 31 30  1  0  0  0  0
M  END
>  <cdx:fragmentId>
139

$$$$
