95086.cdx
  Mrv1902 05222410242D          

 48 51  0  0  0  0            999 V2000
    7.9545   -7.6448    0.0000 O   0  0  0  0  0  0  0  0  0  0  0  0
    7.9591   -8.4698    0.0000 C   0  0  0  0  0  0  0  0  0  0  0  0
    7.2469   -8.8863    0.0000 C   0  0  0  0  0  0  0  0  0  0  0  0
    6.5302   -8.4778    0.0000 C   0  0  0  0  0  0  0  0  0  0  0  0
    4.3937   -9.7273    0.0000 C   0  0  0  0  0  0  0  0  0  0  0  0
    5.1105  -10.1358    0.0000 C   0  0  0  0  0  0  0  0  0  0  0  0
    5.8226   -9.7193    0.0000 C   0  0  0  0  0  0  0  0  0  0  0  0
    5.8180   -8.8943    0.0000 C   0  0  0  0  0  0  0  0  0  0  0  0
    5.1012   -8.4858    0.0000 C   0  0  0  0  0  0  0  0  0  0  0  0
    4.3891   -8.9023    0.0000 C   0  0  0  0  0  0  0  0  0  0  0  0
    3.6816  -10.1438    0.0000 O   0  0  0  0  0  0  0  0  0  0  0  0
    3.6723   -8.4938    0.0000 O   0  0  0  0  0  0  0  0  0  0  0  0
   10.0970   -7.1807    0.0000 C   0  0  2  0  0  0  0  0  0  0  0  0
   10.5088   -6.4658    0.0000 C   0  0  0  0  0  0  0  0  0  0  0  0
    9.6838   -6.4667    0.0000 O   0  0  0  0  0  0  0  0  0  0  0  0
   10.0955   -5.7518    0.0000 O   0  0  0  0  0  0  0  0  0  0  0  0
   11.3338   -6.4649    0.0000 O   0  0  0  0  0  0  0  0  0  0  0  0
   10.0996   -9.6557    0.0000 O   0  0  0  0  0  0  0  0  0  0  0  0
    8.6698   -8.8322    0.0000 O   0  0  0  0  0  0  0  0  0  0  0  0
    9.3839   -8.4189    0.0000 C   0  0  1  0  0  0  0  0  0  0  0  0
   10.0988   -8.8307    0.0000 C   0  0  1  0  0  0  0  0  0  0  0  0
   10.8128   -8.4175    0.0000 C   0  0  1  0  0  0  0  0  0  0  0  0
   10.8119   -7.5925    0.0000 C   0  0  0  0  0  0  0  0  0  0  0  0
    9.3830   -7.5939    0.0000 C   0  0  0  0  0  0  0  0  0  0  0  0
    2.9648   -9.7353    0.0000 C   0  0  2  0  0  0  0  0  0  0  0  0
    2.9579   -8.9103    0.0000 O   0  0  0  0  0  0  0  0  0  0  0  0
    2.2399   -8.5039    0.0000 C   0  0  1  0  0  0  0  0  0  0  0  0
    1.5290   -8.9103    0.0000 C   0  0  2  0  0  0  0  0  0  0  0  0
    1.5290   -9.7353    0.0000 C   0  0  1  0  0  0  0  0  0  0  0  0
    2.2399  -10.1418    0.0000 C   0  0  1  0  0  0  0  0  0  0  0  0
    2.2382   -7.6789    0.0000 C   0  0  0  0  0  0  0  0  0  0  0  0
    0.8154  -10.1493    0.0000 O   0  0  0  0  0  0  0  0  0  0  0  0
    2.2365  -10.9668    0.0000 O   0  0  0  0  0  0  0  0  0  0  0  0
    0.8154   -8.4963    0.0000 O   0  0  0  0  0  0  0  0  0  0  0  0
    1.5229   -7.2679    0.0000 O   0  0  0  0  0  0  0  0  0  0  0  0
   14.3893   -9.6523    0.0000 C   0  0  0  0  0  0  0  0  0  0  0  0
   15.1033  -10.0633    0.0000 C   0  0  0  0  0  0  0  0  0  0  0  0
   15.8169   -9.6493    0.0000 C   0  0  0  0  0  0  0  0  0  0  0  0
   15.8145   -8.8255    0.0000 C   0  0  0  0  0  0  0  0  0  0  0  0
   15.0999   -8.4133    0.0000 C   0  0  0  0  0  0  0  0  0  0  0  0
   14.3856   -8.8262    0.0000 C   0  0  0  0  0  0  0  0  0  0  0  0
   13.6707   -8.4145    0.0000 C   0  0  0  0  0  0  0  0  0  0  0  0
   12.9567   -8.8277    0.0000 C   0  0  0  0  0  0  0  0  0  0  0  0
   12.2409   -7.5910    0.0000 O   0  0  0  0  0  0  0  0  0  0  0  0
   12.2418   -8.4160    0.0000 C   0  0  0  0  0  0  0  0  0  0  0  0
   11.5277   -8.8292    0.0000 O   0  0  0  0  0  0  0  0  0  0  0  0
   16.5283   -8.4117    0.0000 O   0  0  0  0  0  0  0  0  0  0  0  0
   16.5324  -10.0601    0.0000 O   0  0  0  0  0  0  0  0  0  0  0  0
  2 19  1  0  0  0  0
  2  1  2  0  0  0  0
  3  2  1  0  0  0  0
  4  3  2  0  0  0  0
  8  4  1  0  0  0  0
  5  6  2  0  0  0  0
  6  7  1  0  0  0  0
  7  8  2  0  0  0  0
  8  9  1  0  0  0  0
  9 10  2  0  0  0  0
 10  5  1  0  0  0  0
  5 11  1  0  0  0  0
 10 12  1  0  0  0  0
 13 14  1  0  0  0  0
 13 15  1  1  0  0  0
 14 16  1  0  0  0  0
 14 17  2  0  0  0  0
 22 46  1  1  0  0  0
 36 41  1  0  0  0  0
 21 18  1  1  0  0  0
 20 19  1  6  0  0  0
 20 24  1  0  0  0  0
 21 20  1  0  0  0  0
 22 21  1  0  0  0  0
 23 22  1  0  0  0  0
 13 23  1  0  0  0  0
 24 13  1  0  0  0  0
 25 11  1  1  0  0  0
 25 26  1  0  0  0  0
 26 27  1  0  0  0  0
 27 28  1  0  0  0  0
 28 29  1  0  0  0  0
 29 30  1  0  0  0  0
 30 25  1  0  0  0  0
 27 31  1  1  0  0  0
 29 32  1  1  0  0  0
 30 33  1  6  0  0  0
 28 34  1  6  0  0  0
 31 35  1  0  0  0  0
 37 36  2  0  0  0  0
 38 37  1  0  0  0  0
 39 38  2  0  0  0  0
 40 39  1  0  0  0  0
 41 40  2  0  0  0  0
 42 41  1  0  0  0  0
 43 42  2  0  0  0  0
 45 43  1  0  0  0  0
 45 44  2  0  0  0  0
 46 45  1  0  0  0  0
 39 47  1  0  0  0  0
 38 48  1  0  0  0  0
M  END
>  <cdx:fragmentId>
5

$$$$
