95090.cdx
  Mrv1902 05222410232D          

 48 51  0  0  0  0            999 V2000
    5.4415   -2.0371    0.0000 O   0  0  0  0  0  0  0  0  0  0  0  0
    3.7915   -2.0371    0.0000 O   0  0  0  0  0  0  0  0  0  0  0  0
    6.4875   -7.9739    0.0000 O   0  0  0  0  0  0  0  0  0  0  0  0
    5.4415   -3.4660    0.0000 C   0  0  0  0  0  0  0  0  0  0  0  0
    5.0290   -2.7515    0.0000 C   0  0  0  0  0  0  0  0  0  0  0  0
    4.2040   -2.7515    0.0000 C   0  0  0  0  0  0  0  0  0  0  0  0
    3.7915   -3.4660    0.0000 C   0  0  0  0  0  0  0  0  0  0  0  0
    4.2040   -4.1805    0.0000 C   0  0  0  0  0  0  0  0  0  0  0  0
    7.9165   -6.3239    0.0000 C   0  0  0  0  0  0  0  0  0  0  0  0
    7.5040   -5.6094    0.0000 O   0  0  0  0  0  0  0  0  0  0  0  0
    7.9165   -8.7989    0.0000 O   0  0  0  0  0  0  0  0  0  0  0  0
    7.2020   -9.2114    0.0000 C   0  0  0  0  0  0  0  0  0  0  0  0
    7.2020  -10.0364    0.0000 C   0  0  0  0  0  0  0  0  0  0  0  0
    6.4875   -8.7989    0.0000 O   0  0  0  0  0  0  0  0  0  0  0  0
    6.4875  -10.4489    0.0000 C   0  0  0  0  0  0  0  0  0  0  0  0
    6.4875  -11.2739    0.0000 C   0  0  0  0  0  0  0  0  0  0  0  0
    5.7731  -11.6864    0.0000 C   0  0  0  0  0  0  0  0  0  0  0  0
    5.7731  -12.5114    0.0000 C   0  0  0  0  0  0  0  0  0  0  0  0
    6.4875  -12.9239    0.0000 C   0  0  0  0  0  0  0  0  0  0  0  0
    7.2020  -12.5114    0.0000 C   0  0  0  0  0  0  0  0  0  0  0  0
    7.2020  -11.6864    0.0000 C   0  0  0  0  0  0  0  0  0  0  0  0
    6.4875  -13.7489    0.0000 O   0  0  0  0  0  0  0  0  0  0  0  0
    5.0586  -12.9239    0.0000 O   0  0  0  0  0  0  0  0  0  0  0  0
    9.3454   -7.9739    0.0000 O   0  0  0  0  0  0  0  0  0  0  0  0
    8.3290   -5.6094    0.0000 C   0  0  0  0  0  0  0  0  0  0  0  0
    7.2020   -6.7364    0.0000 C   0  0  0  0  0  0  0  0  0  0  0  0
    7.2020   -7.5614    0.0000 C   0  0  2  0  0  0  0  0  0  0  0  0
    7.9165   -7.9739    0.0000 C   0  0  0  0  0  0  0  0  0  0  0  0
    8.6309   -7.5614    0.0000 C   0  0  1  0  0  0  0  0  0  0  0  0
    8.6309   -6.7364    0.0000 C   0  0  0  0  0  0  0  0  0  0  0  0
    7.2020  -14.1614    0.0000 C   0  0  2  0  0  0  0  0  0  0  0  0
    7.2020  -14.9864    0.0000 O   0  0  0  0  0  0  0  0  0  0  0  0
    7.9165  -15.3989    0.0000 C   0  0  1  0  0  0  0  0  0  0  0  0
    8.6309  -14.9864    0.0000 C   0  0  2  0  0  0  0  0  0  0  0  0
    8.6309  -14.1614    0.0000 C   0  0  1  0  0  0  0  0  0  0  0  0
    7.9165  -13.7489    0.0000 C   0  0  1  0  0  0  0  0  0  0  0  0
    7.9165  -16.2239    0.0000 C   0  0  0  0  0  0  0  0  0  0  0  0
    9.3454  -13.7489    0.0000 O   0  0  0  0  0  0  0  0  0  0  0  0
    9.3454  -15.3989    0.0000 O   0  0  0  0  0  0  0  0  0  0  0  0
    7.9165  -12.9239    0.0000 O   0  0  0  0  0  0  0  0  0  0  0  0
    8.6309  -16.6364    0.0000 O   0  0  0  0  0  0  0  0  0  0  0  0
    7.9165   -4.8950    0.0000 O   0  0  0  0  0  0  0  0  0  0  0  0
    9.1540   -5.6094    0.0000 O   0  0  0  0  0  0  0  0  0  0  0  0
    6.6790   -5.6094    0.0000 C   0  0  0  0  0  0  0  0  0  0  0  0
    6.2665   -4.8950    0.0000 C   0  0  0  0  0  0  0  0  0  0  0  0
    6.2665   -6.3239    0.0000 O   0  0  0  0  0  0  0  0  0  0  0  0
    5.4415   -4.8950    0.0000 C   0  0  0  0  0  0  0  0  0  0  0  0
    5.0290   -4.1805    0.0000 C   0  0  0  0  0  0  0  0  0  0  0  0
  5  1  1  0  0  0  0
  6  2  1  0  0  0  0
  4 48  1  0  0  0  0
  5  4  2  0  0  0  0
  6  5  1  0  0  0  0
  7  6  2  0  0  0  0
  8  7  1  0  0  0  0
 48  8  2  0  0  0  0
 27  3  1  6  0  0  0
  9 10  1  0  0  0  0
 11 12  1  0  0  0  0
 12 13  1  0  0  0  0
 12 14  2  0  0  0  0
 13 15  2  0  0  0  0
 15 16  1  0  0  0  0
 16 17  2  0  0  0  0
 17 18  1  0  0  0  0
 18 19  2  0  0  0  0
 19 20  1  0  0  0  0
 20 21  2  0  0  0  0
 21 16  1  0  0  0  0
 19 22  1  0  0  0  0
 28 11  1  0  0  0  0
 18 23  1  0  0  0  0
 29 24  1  1  0  0  0
  9 30  1  0  0  0  0
 26  9  1  0  0  0  0
 27 26  1  0  0  0  0
 28 27  1  0  0  0  0
 29 28  1  0  0  0  0
 30 29  1  0  0  0  0
 31 22  1  1  0  0  0
 31 32  1  0  0  0  0
 32 33  1  0  0  0  0
 33 34  1  0  0  0  0
 34 35  1  0  0  0  0
 35 36  1  0  0  0  0
 36 31  1  0  0  0  0
 33 37  1  1  0  0  0
 35 38  1  1  0  0  0
 34 39  1  6  0  0  0
 36 40  1  6  0  0  0
 37 41  1  0  0  0  0
  9 25  1  0  0  0  0
 25 42  2  0  0  0  0
 25 43  1  0  0  0  0
 10 44  1  0  0  0  0
 44 45  1  0  0  0  0
 44 46  2  0  0  0  0
 45 47  2  0  0  0  0
 47 48  1  0  0  0  0
M  END
>  <cdx:fragmentId>
139

$$$$
