95094.cdx
  Mrv1902 05222410252D          

 44 46  0  0  0  0            999 V2000
    5.6075   -7.1764    0.0000 O   0  0  0  0  0  0  0  0  0  0  0  0
    7.0365   -5.5264    0.0000 C   0  0  2  0  0  0  0  0  0  0  0  0
    6.6240   -4.8119    0.0000 O   0  0  0  0  0  0  0  0  0  0  0  0
    7.0365   -8.0014    0.0000 O   0  0  0  0  0  0  0  0  0  0  0  0
    8.4654   -7.1764    0.0000 O   0  0  0  0  0  0  0  0  0  0  0  0
    7.4490   -4.8119    0.0000 C   0  0  0  0  0  0  0  0  0  0  0  0
    6.3220   -5.9389    0.0000 C   0  0  0  0  0  0  0  0  0  0  0  0
    6.3220   -6.7639    0.0000 C   0  0  2  0  0  0  0  0  0  0  0  0
    7.0365   -7.1764    0.0000 C   0  0  1  0  0  0  0  0  0  0  0  0
    7.7509   -6.7639    0.0000 C   0  0  1  0  0  0  0  0  0  0  0  0
    7.7509   -5.9389    0.0000 C   0  0  0  0  0  0  0  0  0  0  0  0
    7.0365   -4.0975    0.0000 O   0  0  0  0  0  0  0  0  0  0  0  0
    8.2740   -4.8119    0.0000 O   0  0  0  0  0  0  0  0  0  0  0  0
    4.8931   -6.7639    0.0000 C   0  0  0  0  0  0  0  0  0  0  0  0
    4.1786   -7.1764    0.0000 C   0  0  0  0  0  0  0  0  0  0  0  0
    4.8931   -5.9389    0.0000 O   0  0  0  0  0  0  0  0  0  0  0  0
    3.4641   -6.7639    0.0000 C   0  0  0  0  0  0  0  0  0  0  0  0
    2.7496   -7.1764    0.0000 C   0  0  0  0  0  0  0  0  0  0  0  0
    2.0352   -6.7639    0.0000 C   0  0  0  0  0  0  0  0  0  0  0  0
    1.3207   -7.1764    0.0000 C   0  0  0  0  0  0  0  0  0  0  0  0
    1.3207   -8.0014    0.0000 C   0  0  0  0  0  0  0  0  0  0  0  0
    2.0352   -8.4139    0.0000 C   0  0  0  0  0  0  0  0  0  0  0  0
    2.7496   -8.0014    0.0000 C   0  0  0  0  0  0  0  0  0  0  0  0
    0.6062   -8.4139    0.0000 O   0  0  0  0  0  0  0  0  0  0  0  0
    0.6062   -6.7639    0.0000 O   0  0  0  0  0  0  0  0  0  0  0  0
    9.1799   -6.7639    0.0000 C   0  0  0  0  0  0  0  0  0  0  0  0
    9.8944   -7.1764    0.0000 C   0  0  0  0  0  0  0  0  0  0  0  0
    9.1799   -5.9389    0.0000 O   0  0  0  0  0  0  0  0  0  0  0  0
   10.6088   -6.7639    0.0000 C   0  0  0  0  0  0  0  0  0  0  0  0
   11.3233   -7.1764    0.0000 C   0  0  0  0  0  0  0  0  0  0  0  0
   11.3233   -8.0014    0.0000 C   0  0  0  0  0  0  0  0  0  0  0  0
   12.0378   -8.4139    0.0000 C   0  0  0  0  0  0  0  0  0  0  0  0
   12.7522   -8.0014    0.0000 C   0  0  0  0  0  0  0  0  0  0  0  0
   12.7522   -7.1764    0.0000 C   0  0  0  0  0  0  0  0  0  0  0  0
   12.0378   -6.7639    0.0000 C   0  0  0  0  0  0  0  0  0  0  0  0
   13.4667   -6.7639    0.0000 O   0  0  0  0  0  0  0  0  0  0  0  0
   13.4667   -8.4139    0.0000 O   0  0  0  0  0  0  0  0  0  0  0  0
   14.1812   -7.1764    0.0000 C   0  0  0  0  0  0  0  0  0  0  0  0
    5.7990   -4.8119    0.0000 C   0  0  0  0  0  0  0  0  0  0  0  0
    5.3865   -4.0975    0.0000 C   0  0  0  0  0  0  0  0  0  0  0  0
    5.3865   -5.5264    0.0000 O   0  0  0  0  0  0  0  0  0  0  0  0
    4.5615   -4.0975    0.0000 C   0  0  0  0  0  0  0  0  0  0  0  0
    4.1490   -4.8119    0.0000 O   0  0  0  0  0  0  0  0  0  0  0  0
    4.1490   -3.3830    0.0000 O   0  0  0  0  0  0  0  0  0  0  0  0
  8  1  1  6  0  0  0
  2  3  1  1  0  0  0
  9  4  1  1  0  0  0
 10  5  1  1  0  0  0
  2 11  1  0  0  0  0
  7  2  1  0  0  0  0
  8  7  1  0  0  0  0
  9  8  1  0  0  0  0
 10  9  1  0  0  0  0
 11 10  1  0  0  0  0
  2  6  1  0  0  0  0
  6 12  2  0  0  0  0
  6 13  1  0  0  0  0
  1 14  1  0  0  0  0
 14 15  1  0  0  0  0
 14 16  2  0  0  0  0
 15 17  2  0  0  0  0
 17 18  1  0  0  0  0
 18 19  2  0  0  0  0
 19 20  1  0  0  0  0
 20 21  2  0  0  0  0
 21 22  1  0  0  0  0
 22 23  2  0  0  0  0
 23 18  1  0  0  0  0
 21 24  1  0  0  0  0
 20 25  1  0  0  0  0
  5 26  1  0  0  0  0
 26 27  1  0  0  0  0
 26 28  2  0  0  0  0
 27 29  2  0  0  0  0
 29 30  1  0  0  0  0
 30 31  2  0  0  0  0
 31 32  1  0  0  0  0
 32 33  2  0  0  0  0
 33 34  1  0  0  0  0
 34 35  2  0  0  0  0
 35 30  1  0  0  0  0
 34 36  1  0  0  0  0
 33 37  1  0  0  0  0
 36 38  1  0  0  0  0
  3 39  1  0  0  0  0
 39 40  1  0  0  0  0
 39 41  2  0  0  0  0
 40 42  1  0  0  0  0
 42 43  2  0  0  0  0
 42 44  1  0  0  0  0
M  END
>  <cdx:fragmentId>
139

$$$$
