95098.cdx
  Mrv1902 05222410202D          

 31 32  0  0  0  0            999 V2000
    6.7342  -13.3113    0.0000 O   0  0  0  0  0  0  0  0  0  0  0  0
    5.3347  -14.1855    0.0000 O   0  0  0  0  0  0  0  0  0  0  0  0
    4.5491  -12.1490    0.0000 C   0  0  0  0  0  0  0  0  0  0  0  0
    4.5777  -12.9735    0.0000 C   0  0  0  0  0  0  0  0  0  0  0  0
    5.3061  -13.3610    0.0000 C   0  0  0  0  0  0  0  0  0  0  0  0
    6.0058  -12.9239    0.0000 C   0  0  0  0  0  0  0  0  0  0  0  0
    5.9772  -12.0994    0.0000 C   0  0  0  0  0  0  0  0  0  0  0  0
    5.1629   -9.2384    0.0000 O   0  0  0  0  0  0  0  0  0  0  0  0
    5.2488  -11.7119    0.0000 C   0  0  0  0  0  0  0  0  0  0  0  0
    5.2202  -10.8874    0.0000 C   0  0  0  0  0  0  0  0  0  0  0  0
    5.9199  -10.4504    0.0000 C   0  0  0  0  0  0  0  0  0  0  0  0
    5.8912   -9.6259    0.0000 C   0  0  0  0  0  0  0  0  0  0  0  0
    6.5910   -9.1888    0.0000 O   0  0  0  0  0  0  0  0  0  0  0  0
    5.8740   -7.0904    0.0000 C   0  0  0  0  0  0  0  0  0  0  0  0
    5.8615   -7.9153    0.0000 C   0  0  2  0  0  0  0  0  0  0  0  0
    6.5696   -8.3386    0.0000 C   0  0  1  0  0  0  0  0  0  0  0  0
    7.2902   -7.9370    0.0000 C   0  0  1  0  0  0  0  0  0  0  0  0
    7.3027   -7.1120    0.0000 C   0  0  0  0  0  0  0  0  0  0  0  0
    6.5946   -6.6888    0.0000 C   0  0  1  0  0  0  0  0  0  0  0  0
    7.0179   -5.9806    0.0000 C   0  0  0  0  0  0  0  0  0  0  0  0
    7.8428   -5.9931    0.0000 O   0  0  0  0  0  0  0  0  0  0  0  0
    6.6163   -5.2600    0.0000 O   0  0  0  0  0  0  0  0  0  0  0  0
    7.9984   -8.3602    0.0000 O   0  0  0  0  0  0  0  0  0  0  0  0
    5.1408   -8.3169    0.0000 O   0  0  0  0  0  0  0  0  0  0  0  0
    6.1711   -5.9808    0.0000 O   0  0  0  0  0  0  0  0  0  0  0  0
    8.7190   -7.9586    0.0000 C   0  0  0  0  0  0  0  0  0  0  0  0
    9.4272   -8.3819    0.0000 C   0  0  0  0  0  0  0  0  0  0  0  0
    8.7315   -7.1337    0.0000 O   0  0  0  0  0  0  0  0  0  0  0  0
   10.1478   -7.9803    0.0000 C   0  0  0  0  0  0  0  0  0  0  0  0
   10.8559   -8.4035    0.0000 O   0  0  0  0  0  0  0  0  0  0  0  0
   10.1603   -7.1554    0.0000 O   0  0  0  0  0  0  0  0  0  0  0  0
  6  1  1  0  0  0  0
  5  2  1  0  0  0  0
  3  9  1  0  0  0  0
  4  3  2  0  0  0  0
  5  4  1  0  0  0  0
  6  5  2  0  0  0  0
  7  6  1  0  0  0  0
  9  7  2  0  0  0  0
 12  8  2  0  0  0  0
 10  9  1  0  0  0  0
 11 10  2  0  0  0  0
 12 11  1  0  0  0  0
 13 12  1  0  0  0  0
 14 15  1  0  0  0  0
 15 16  1  0  0  0  0
 16 17  1  0  0  0  0
 17 18  1  0  0  0  0
 18 19  1  0  0  0  0
 19 14  1  0  0  0  0
 19 20  1  0  0  0  0
 20 21  1  0  0  0  0
 20 22  2  0  0  0  0
 17 23  1  1  0  0  0
 15 24  1  6  0  0  0
 16 13  1  1  0  0  0
 19 25  1  1  0  0  0
 23 26  1  0  0  0  0
 26 27  1  0  0  0  0
 26 28  2  0  0  0  0
 27 29  1  0  0  0  0
 29 30  1  0  0  0  0
 29 31  2  0  0  0  0
M  END
>  <cdx:fragmentId>
5

$$$$
