95093.cdx
  Mrv1902 05222410242D          

 43 45  0  0  0  0            999 V2000
    5.6075   -7.1764    0.0000 O   0  0  0  0  0  0  0  0  0  0  0  0
    7.0365   -5.5264    0.0000 C   0  0  2  0  0  0  0  0  0  0  0  0
    6.6240   -4.8119    0.0000 O   0  0  0  0  0  0  0  0  0  0  0  0
    7.0365   -8.0014    0.0000 O   0  0  0  0  0  0  0  0  0  0  0  0
    6.3220   -8.4139    0.0000 C   0  0  0  0  0  0  0  0  0  0  0  0
    6.3220   -9.2389    0.0000 C   0  0  0  0  0  0  0  0  0  0  0  0
    5.6075   -8.0014    0.0000 O   0  0  0  0  0  0  0  0  0  0  0  0
    8.4654   -7.1764    0.0000 O   0  0  0  0  0  0  0  0  0  0  0  0
    7.4490   -4.8119    0.0000 C   0  0  0  0  0  0  0  0  0  0  0  0
    6.3220   -5.9389    0.0000 C   0  0  0  0  0  0  0  0  0  0  0  0
    6.3220   -6.7639    0.0000 C   0  0  2  0  0  0  0  0  0  0  0  0
    7.0365   -7.1764    0.0000 C   0  0  1  0  0  0  0  0  0  0  0  0
    7.7509   -6.7639    0.0000 C   0  0  1  0  0  0  0  0  0  0  0  0
    7.7509   -5.9389    0.0000 C   0  0  0  0  0  0  0  0  0  0  0  0
    7.0365   -4.0975    0.0000 O   0  0  0  0  0  0  0  0  0  0  0  0
    8.2740   -4.8119    0.0000 O   0  0  0  0  0  0  0  0  0  0  0  0
    4.8931   -6.7639    0.0000 C   0  0  0  0  0  0  0  0  0  0  0  0
    4.1786   -7.1764    0.0000 C   0  0  0  0  0  0  0  0  0  0  0  0
    4.8931   -5.9389    0.0000 O   0  0  0  0  0  0  0  0  0  0  0  0
    3.4641   -6.7639    0.0000 C   0  0  0  0  0  0  0  0  0  0  0  0
    2.7496   -7.1764    0.0000 C   0  0  0  0  0  0  0  0  0  0  0  0
    2.0352   -6.7639    0.0000 C   0  0  0  0  0  0  0  0  0  0  0  0
    1.3207   -7.1764    0.0000 C   0  0  0  0  0  0  0  0  0  0  0  0
    1.3207   -8.0014    0.0000 C   0  0  0  0  0  0  0  0  0  0  0  0
    2.0352   -8.4139    0.0000 C   0  0  0  0  0  0  0  0  0  0  0  0
    2.7496   -8.0014    0.0000 C   0  0  0  0  0  0  0  0  0  0  0  0
    0.6062   -8.4139    0.0000 O   0  0  0  0  0  0  0  0  0  0  0  0
    0.6062   -6.7639    0.0000 O   0  0  0  0  0  0  0  0  0  0  0  0
    5.6075   -9.6514    0.0000 C   0  0  0  0  0  0  0  0  0  0  0  0
    4.8931   -9.2389    0.0000 O   0  0  0  0  0  0  0  0  0  0  0  0
    5.6075  -10.4764    0.0000 O   0  0  0  0  0  0  0  0  0  0  0  0
    9.1799   -6.7639    0.0000 C   0  0  0  0  0  0  0  0  0  0  0  0
    9.8944   -7.1764    0.0000 C   0  0  0  0  0  0  0  0  0  0  0  0
    9.1799   -5.9389    0.0000 O   0  0  0  0  0  0  0  0  0  0  0  0
   10.6088   -6.7639    0.0000 C   0  0  0  0  0  0  0  0  0  0  0  0
   11.3233   -7.1764    0.0000 C   0  0  0  0  0  0  0  0  0  0  0  0
   11.3233   -8.0014    0.0000 C   0  0  0  0  0  0  0  0  0  0  0  0
   12.0378   -8.4139    0.0000 C   0  0  0  0  0  0  0  0  0  0  0  0
   12.7522   -8.0014    0.0000 C   0  0  0  0  0  0  0  0  0  0  0  0
   12.7522   -7.1764    0.0000 C   0  0  0  0  0  0  0  0  0  0  0  0
   12.0378   -6.7639    0.0000 C   0  0  0  0  0  0  0  0  0  0  0  0
   13.4667   -6.7639    0.0000 O   0  0  0  0  0  0  0  0  0  0  0  0
   13.4667   -8.4139    0.0000 O   0  0  0  0  0  0  0  0  0  0  0  0
 11  1  1  6  0  0  0
  2  3  1  1  0  0  0
  4  5  1  0  0  0  0
  5  6  1  0  0  0  0
  5  7  2  0  0  0  0
 12  4  1  1  0  0  0
 13  8  1  1  0  0  0
  2 14  1  0  0  0  0
 10  2  1  0  0  0  0
 11 10  1  0  0  0  0
 12 11  1  0  0  0  0
 13 12  1  0  0  0  0
 14 13  1  0  0  0  0
  2  9  1  0  0  0  0
  9 15  2  0  0  0  0
  9 16  1  0  0  0  0
  1 17  1  0  0  0  0
 17 18  1  0  0  0  0
 17 19  2  0  0  0  0
 18 20  2  0  0  0  0
 20 21  1  0  0  0  0
 21 22  2  0  0  0  0
 22 23  1  0  0  0  0
 23 24  2  0  0  0  0
 24 25  1  0  0  0  0
 25 26  2  0  0  0  0
 26 21  1  0  0  0  0
 24 27  1  0  0  0  0
 23 28  1  0  0  0  0
  6 29  1  0  0  0  0
 29 30  2  0  0  0  0
 29 31  1  0  0  0  0
  8 32  1  0  0  0  0
 32 33  1  0  0  0  0
 32 34  2  0  0  0  0
 33 35  2  0  0  0  0
 35 36  1  0  0  0  0
 36 37  2  0  0  0  0
 37 38  1  0  0  0  0
 38 39  2  0  0  0  0
 39 40  1  0  0  0  0
 40 41  2  0  0  0  0
 41 36  1  0  0  0  0
 40 42  1  0  0  0  0
 39 43  1  0  0  0  0
M  END
>  <cdx:fragmentId>
139

$$$$
