95091.cdx
  Mrv1902 05222410232D          

 48 51  0  0  0  0            999 V2000
    6.9000   -6.8189    0.0000 O   0  0  0  0  0  0  0  0  0  0  0  0
    8.3290   -5.1689    0.0000 C   0  0  2  0  0  0  0  0  0  0  0  0
    7.9165   -4.4544    0.0000 O   0  0  0  0  0  0  0  0  0  0  0  0
    8.3290   -7.6439    0.0000 O   0  0  0  0  0  0  0  0  0  0  0  0
    7.6145   -8.0564    0.0000 C   0  0  0  0  0  0  0  0  0  0  0  0
    7.6145   -8.8814    0.0000 C   0  0  0  0  0  0  0  0  0  0  0  0
    6.9000   -7.6439    0.0000 O   0  0  0  0  0  0  0  0  0  0  0  0
    6.9000   -9.2939    0.0000 C   0  0  0  0  0  0  0  0  0  0  0  0
    6.9000  -10.1189    0.0000 C   0  0  0  0  0  0  0  0  0  0  0  0
    6.1856  -10.5314    0.0000 C   0  0  0  0  0  0  0  0  0  0  0  0
    6.1856  -11.3564    0.0000 C   0  0  0  0  0  0  0  0  0  0  0  0
    6.9000  -11.7689    0.0000 C   0  0  0  0  0  0  0  0  0  0  0  0
    7.6145  -11.3564    0.0000 C   0  0  0  0  0  0  0  0  0  0  0  0
    7.6145  -10.5314    0.0000 C   0  0  0  0  0  0  0  0  0  0  0  0
    6.9000  -12.5939    0.0000 O   0  0  0  0  0  0  0  0  0  0  0  0
    5.4711  -11.7689    0.0000 O   0  0  0  0  0  0  0  0  0  0  0  0
    9.7579   -6.8189    0.0000 O   0  0  0  0  0  0  0  0  0  0  0  0
    8.7415   -4.4544    0.0000 C   0  0  0  0  0  0  0  0  0  0  0  0
    7.6145   -5.5814    0.0000 C   0  0  0  0  0  0  0  0  0  0  0  0
    7.6145   -6.4064    0.0000 C   0  0  2  0  0  0  0  0  0  0  0  0
    8.3290   -6.8189    0.0000 C   0  0  1  0  0  0  0  0  0  0  0  0
    9.0434   -6.4064    0.0000 C   0  0  1  0  0  0  0  0  0  0  0  0
    9.0434   -5.5814    0.0000 C   0  0  0  0  0  0  0  0  0  0  0  0
    7.6145  -13.0064    0.0000 C   0  0  2  0  0  0  0  0  0  0  0  0
    7.6145  -13.8314    0.0000 O   0  0  0  0  0  0  0  0  0  0  0  0
    8.3290  -14.2439    0.0000 C   0  0  1  0  0  0  0  0  0  0  0  0
    9.0434  -13.8314    0.0000 C   0  0  2  0  0  0  0  0  0  0  0  0
    9.0434  -13.0064    0.0000 C   0  0  1  0  0  0  0  0  0  0  0  0
    8.3290  -12.5939    0.0000 C   0  0  1  0  0  0  0  0  0  0  0  0
    8.3290  -15.0689    0.0000 C   0  0  0  0  0  0  0  0  0  0  0  0
    9.7579  -12.5939    0.0000 O   0  0  0  0  0  0  0  0  0  0  0  0
    9.7579  -14.2439    0.0000 O   0  0  0  0  0  0  0  0  0  0  0  0
    8.3290  -11.7689    0.0000 O   0  0  0  0  0  0  0  0  0  0  0  0
    9.0434  -15.4814    0.0000 O   0  0  0  0  0  0  0  0  0  0  0  0
    8.3290   -3.7400    0.0000 O   0  0  0  0  0  0  0  0  0  0  0  0
    9.5665   -4.4544    0.0000 O   0  0  0  0  0  0  0  0  0  0  0  0
    6.1856   -6.4064    0.0000 C   0  0  0  0  0  0  0  0  0  0  0  0
    5.4711   -6.8189    0.0000 C   0  0  0  0  0  0  0  0  0  0  0  0
    6.1856   -5.5814    0.0000 O   0  0  0  0  0  0  0  0  0  0  0  0
    4.7566   -6.4064    0.0000 C   0  0  0  0  0  0  0  0  0  0  0  0
    4.0421   -6.8189    0.0000 C   0  0  0  0  0  0  0  0  0  0  0  0
    3.3277   -6.4064    0.0000 C   0  0  0  0  0  0  0  0  0  0  0  0
    2.6132   -6.8189    0.0000 C   0  0  0  0  0  0  0  0  0  0  0  0
    2.6132   -7.6439    0.0000 C   0  0  0  0  0  0  0  0  0  0  0  0
    3.3277   -8.0564    0.0000 C   0  0  0  0  0  0  0  0  0  0  0  0
    4.0421   -7.6439    0.0000 C   0  0  0  0  0  0  0  0  0  0  0  0
    1.8987   -8.0564    0.0000 O   0  0  0  0  0  0  0  0  0  0  0  0
    1.8987   -6.4064    0.0000 O   0  0  0  0  0  0  0  0  0  0  0  0
 20  1  1  6  0  0  0
  2  3  1  1  0  0  0
  4  5  1  0  0  0  0
  5  6  1  0  0  0  0
  5  7  2  0  0  0  0
  6  8  2  0  0  0  0
  8  9  1  0  0  0  0
  9 10  2  0  0  0  0
 10 11  1  0  0  0  0
 11 12  2  0  0  0  0
 12 13  1  0  0  0  0
 13 14  2  0  0  0  0
 14  9  1  0  0  0  0
 12 15  1  0  0  0  0
 21  4  1  1  0  0  0
 11 16  1  0  0  0  0
 22 17  1  1  0  0  0
  2 23  1  0  0  0  0
 19  2  1  0  0  0  0
 20 19  1  0  0  0  0
 21 20  1  0  0  0  0
 22 21  1  0  0  0  0
 23 22  1  0  0  0  0
 24 15  1  1  0  0  0
 24 25  1  0  0  0  0
 25 26  1  0  0  0  0
 26 27  1  0  0  0  0
 27 28  1  0  0  0  0
 28 29  1  0  0  0  0
 29 24  1  0  0  0  0
 26 30  1  1  0  0  0
 28 31  1  1  0  0  0
 27 32  1  6  0  0  0
 29 33  1  6  0  0  0
 30 34  1  0  0  0  0
  2 18  1  0  0  0  0
 18 35  2  0  0  0  0
 18 36  1  0  0  0  0
  1 37  1  0  0  0  0
 37 38  1  0  0  0  0
 37 39  2  0  0  0  0
 38 40  2  0  0  0  0
 40 41  1  0  0  0  0
 41 42  2  0  0  0  0
 42 43  1  0  0  0  0
 43 44  2  0  0  0  0
 44 45  1  0  0  0  0
 45 46  2  0  0  0  0
 46 41  1  0  0  0  0
 44 47  1  0  0  0  0
 43 48  1  0  0  0  0
M  END
>  <cdx:fragmentId>
139

$$$$
