95095.cdx
  Mrv1902 05222410252D          

 44 46  0  0  0  0            999 V2000
    3.8756   -5.8564    0.0000 C   0  0  0  0  0  0  0  0  0  0  0  0
    3.8756   -6.6814    0.0000 C   0  0  2  0  0  0  0  0  0  0  0  0
    4.5900   -7.0939    0.0000 C   0  0  1  0  0  0  0  0  0  0  0  0
    5.3045   -6.6814    0.0000 C   0  0  1  0  0  0  0  0  0  0  0  0
    5.3045   -5.8564    0.0000 C   0  0  0  0  0  0  0  0  0  0  0  0
    4.5900   -5.4439    0.0000 C   0  0  2  0  0  0  0  0  0  0  0  0
    3.1611   -7.0939    0.0000 O   0  0  0  0  0  0  0  0  0  0  0  0
    4.5900   -7.9189    0.0000 O   0  0  0  0  0  0  0  0  0  0  0  0
    3.8756   -8.3314    0.0000 C   0  0  0  0  0  0  0  0  0  0  0  0
    3.8756   -9.1564    0.0000 C   0  0  0  0  0  0  0  0  0  0  0  0
    3.1611   -7.9189    0.0000 O   0  0  0  0  0  0  0  0  0  0  0  0
    3.1611   -9.5689    0.0000 C   0  0  0  0  0  0  0  0  0  0  0  0
    3.1611  -10.3939    0.0000 C   0  0  0  0  0  0  0  0  0  0  0  0
    2.4466  -10.8064    0.0000 C   0  0  0  0  0  0  0  0  0  0  0  0
    2.4466  -11.6314    0.0000 C   0  0  0  0  0  0  0  0  0  0  0  0
    3.1611  -12.0439    0.0000 C   0  0  0  0  0  0  0  0  0  0  0  0
    3.8756  -11.6314    0.0000 C   0  0  0  0  0  0  0  0  0  0  0  0
    3.8756  -10.8064    0.0000 C   0  0  0  0  0  0  0  0  0  0  0  0
    3.1611  -12.8689    0.0000 O   0  0  0  0  0  0  0  0  0  0  0  0
    1.7321  -12.0439    0.0000 O   0  0  0  0  0  0  0  0  0  0  0  0
    4.1775   -4.7294    0.0000 O   0  0  0  0  0  0  0  0  0  0  0  0
    5.0025   -4.7294    0.0000 C   0  0  0  0  0  0  0  0  0  0  0  0
    4.5900   -4.0150    0.0000 O   0  0  0  0  0  0  0  0  0  0  0  0
    5.8275   -4.7294    0.0000 O   0  0  0  0  0  0  0  0  0  0  0  0
    6.0190   -7.0939    0.0000 O   0  0  0  0  0  0  0  0  0  0  0  0
    3.3525   -4.7294    0.0000 C   0  0  0  0  0  0  0  0  0  0  0  0
    2.9400   -4.0150    0.0000 C   0  0  0  0  0  0  0  0  0  0  0  0
    2.9400   -5.4439    0.0000 O   0  0  0  0  0  0  0  0  0  0  0  0
    2.1150   -4.0150    0.0000 C   0  0  0  0  0  0  0  0  0  0  0  0
    1.7025   -4.7294    0.0000 O   0  0  0  0  0  0  0  0  0  0  0  0
    1.7025   -3.3005    0.0000 O   0  0  0  0  0  0  0  0  0  0  0  0
    6.7334   -6.6814    0.0000 C   0  0  0  0  0  0  0  0  0  0  0  0
    7.4479   -7.0939    0.0000 C   0  0  0  0  0  0  0  0  0  0  0  0
    6.7334   -5.8564    0.0000 O   0  0  0  0  0  0  0  0  0  0  0  0
    8.1624   -6.6814    0.0000 C   0  0  0  0  0  0  0  0  0  0  0  0
    8.8769   -7.0939    0.0000 C   0  0  0  0  0  0  0  0  0  0  0  0
    8.8769   -7.9189    0.0000 C   0  0  0  0  0  0  0  0  0  0  0  0
    9.5913   -8.3314    0.0000 C   0  0  0  0  0  0  0  0  0  0  0  0
   10.3058   -7.9189    0.0000 C   0  0  0  0  0  0  0  0  0  0  0  0
   10.3058   -7.0939    0.0000 C   0  0  0  0  0  0  0  0  0  0  0  0
    9.5913   -6.6814    0.0000 C   0  0  0  0  0  0  0  0  0  0  0  0
   11.0203   -8.3314    0.0000 O   0  0  0  0  0  0  0  0  0  0  0  0
   11.0203   -6.6814    0.0000 O   0  0  0  0  0  0  0  0  0  0  0  0
   11.7347   -7.0939    0.0000 C   0  0  0  0  0  0  0  0  0  0  0  0
  1  2  1  0  0  0  0
  2  3  1  0  0  0  0
  3  4  1  0  0  0  0
  4  5  1  0  0  0  0
  5  6  1  0  0  0  0
  6  1  1  0  0  0  0
  2  7  1  6  0  0  0
  3  8  1  1  0  0  0
  8  9  1  0  0  0  0
  9 10  1  0  0  0  0
  9 11  2  0  0  0  0
 10 12  2  0  0  0  0
 12 13  1  0  0  0  0
 13 14  2  0  0  0  0
 14 15  1  0  0  0  0
 15 16  2  0  0  0  0
 16 17  1  0  0  0  0
 17 18  2  0  0  0  0
 18 13  1  0  0  0  0
 16 19  1  0  0  0  0
 15 20  1  0  0  0  0
  6 21  1  1  0  0  0
  6 22  1  0  0  0  0
 22 23  2  0  0  0  0
 22 24  1  0  0  0  0
  4 25  1  1  0  0  0
 21 26  1  0  0  0  0
 26 27  1  0  0  0  0
 26 28  2  0  0  0  0
 27 29  1  0  0  0  0
 29 30  2  0  0  0  0
 29 31  1  0  0  0  0
 25 32  1  0  0  0  0
 32 33  1  0  0  0  0
 32 34  2  0  0  0  0
 33 35  2  0  0  0  0
 35 36  1  0  0  0  0
 36 37  2  0  0  0  0
 37 38  1  0  0  0  0
 38 39  2  0  0  0  0
 39 40  1  0  0  0  0
 40 41  2  0  0  0  0
 41 36  1  0  0  0  0
 39 42  1  0  0  0  0
 40 43  1  0  0  0  0
 43 44  1  0  0  0  0
M  END
>  <cdx:fragmentId>
137

$$$$
