95099.cdx
  Mrv1902 05222410212D          

 31 32  0  0  0  0            999 V2000
    6.7547  -13.2606    0.0000 O   0  0  0  0  0  0  0  0  0  0  0  0
    5.3608  -14.1434    0.0000 O   0  0  0  0  0  0  0  0  0  0  0  0
    4.5624  -12.1119    0.0000 C   0  0  0  0  0  0  0  0  0  0  0  0
    4.5962  -12.9362    0.0000 C   0  0  0  0  0  0  0  0  0  0  0  0
    5.3270  -13.3191    0.0000 C   0  0  0  0  0  0  0  0  0  0  0  0
    6.0240  -12.8777    0.0000 C   0  0  0  0  0  0  0  0  0  0  0  0
    5.9902  -12.0534    0.0000 C   0  0  0  0  0  0  0  0  0  0  0  0
    5.1580   -9.1976    0.0000 O   0  0  0  0  0  0  0  0  0  0  0  0
    5.2594  -11.6705    0.0000 C   0  0  0  0  0  0  0  0  0  0  0  0
    5.2256  -10.8462    0.0000 C   0  0  0  0  0  0  0  0  0  0  0  0
    5.9226  -10.4048    0.0000 C   0  0  0  0  0  0  0  0  0  0  0  0
    5.8888   -9.5804    0.0000 C   0  0  0  0  0  0  0  0  0  0  0  0
    6.5857   -9.1390    0.0000 O   0  0  0  0  0  0  0  0  0  0  0  0
    5.8556   -7.0451    0.0000 C   0  0  0  0  0  0  0  0  0  0  0  0
    5.8483   -7.8701    0.0000 C   0  0  2  0  0  0  0  0  0  0  0  0
    6.5591   -8.2889    0.0000 C   0  0  1  0  0  0  0  0  0  0  0  0
    7.2772   -7.8828    0.0000 C   0  0  1  0  0  0  0  0  0  0  0  0
    7.2845   -7.0578    0.0000 C   0  0  0  0  0  0  0  0  0  0  0  0
    6.5738   -6.6390    0.0000 C   0  0  1  0  0  0  0  0  0  0  0  0
    6.9926   -5.9282    0.0000 C   0  0  0  0  0  0  0  0  0  0  0  0
    7.8176   -5.9356    0.0000 O   0  0  0  0  0  0  0  0  0  0  0  0
    6.5865   -5.2101    0.0000 O   0  0  0  0  0  0  0  0  0  0  0  0
    7.9880   -8.3016    0.0000 O   0  0  0  0  0  0  0  0  0  0  0  0
    5.1302   -8.2762    0.0000 O   0  0  0  0  0  0  0  0  0  0  0  0
    4.4194   -7.8574    0.0000 C   0  0  0  0  0  0  0  0  0  0  0  0
    3.7013   -8.2635    0.0000 C   0  0  0  0  0  0  0  0  0  0  0  0
    4.4268   -7.0324    0.0000 O   0  0  0  0  0  0  0  0  0  0  0  0
    2.9905   -7.8446    0.0000 C   0  0  0  0  0  0  0  0  0  0  0  0
    2.2724   -8.2508    0.0000 O   0  0  0  0  0  0  0  0  0  0  0  0
    2.9979   -7.0197    0.0000 O   0  0  0  0  0  0  0  0  0  0  0  0
    6.1458   -5.9337    0.0000 O   0  0  0  0  0  0  0  0  0  0  0  0
  6  1  1  0  0  0  0
  5  2  1  0  0  0  0
  3  9  1  0  0  0  0
  4  3  2  0  0  0  0
  5  4  1  0  0  0  0
  6  5  2  0  0  0  0
  7  6  1  0  0  0  0
  9  7  2  0  0  0  0
 12  8  2  0  0  0  0
 10  9  1  0  0  0  0
 11 10  2  0  0  0  0
 12 11  1  0  0  0  0
 13 12  1  0  0  0  0
 14 15  1  0  0  0  0
 15 16  1  0  0  0  0
 16 17  1  0  0  0  0
 17 18  1  0  0  0  0
 18 19  1  0  0  0  0
 19 14  1  0  0  0  0
 19 20  1  0  0  0  0
 20 21  1  0  0  0  0
 20 22  2  0  0  0  0
 17 23  1  1  0  0  0
 15 24  1  6  0  0  0
 16 13  1  1  0  0  0
 24 25  1  0  0  0  0
 25 26  1  0  0  0  0
 25 27  2  0  0  0  0
 26 28  1  0  0  0  0
 28 29  1  0  0  0  0
 28 30  2  0  0  0  0
 19 31  1  1  0  0  0
M  END
>  <cdx:fragmentId>
5

$$$$
