95092.cdx
  Mrv1902 05222410242D          

 31 32  0  0  0  0            999 V2000
    6.9000   -6.8189    0.0000 O   0  0  0  0  0  0  0  0  0  0  0  0
    8.3290   -5.1689    0.0000 C   0  0  2  0  0  0  0  0  0  0  0  0
    7.9165   -4.4544    0.0000 O   0  0  0  0  0  0  0  0  0  0  0  0
    8.3290   -7.6439    0.0000 O   0  0  0  0  0  0  0  0  0  0  0  0
    7.6145   -8.0564    0.0000 C   0  0  0  0  0  0  0  0  0  0  0  0
    7.6145   -8.8814    0.0000 C   0  0  0  0  0  0  0  0  0  0  0  0
    6.9000   -7.6439    0.0000 O   0  0  0  0  0  0  0  0  0  0  0  0
    9.7579   -6.8189    0.0000 O   0  0  0  0  0  0  0  0  0  0  0  0
    8.7415   -4.4544    0.0000 C   0  0  0  0  0  0  0  0  0  0  0  0
    7.6145   -5.5814    0.0000 C   0  0  0  0  0  0  0  0  0  0  0  0
    7.6145   -6.4064    0.0000 C   0  0  2  0  0  0  0  0  0  0  0  0
    8.3290   -6.8189    0.0000 C   0  0  1  0  0  0  0  0  0  0  0  0
    9.0434   -6.4064    0.0000 C   0  0  1  0  0  0  0  0  0  0  0  0
    9.0434   -5.5814    0.0000 C   0  0  0  0  0  0  0  0  0  0  0  0
    8.3290   -3.7400    0.0000 O   0  0  0  0  0  0  0  0  0  0  0  0
    9.5665   -4.4544    0.0000 O   0  0  0  0  0  0  0  0  0  0  0  0
    6.1856   -6.4064    0.0000 C   0  0  0  0  0  0  0  0  0  0  0  0
    5.4711   -6.8189    0.0000 C   0  0  0  0  0  0  0  0  0  0  0  0
    6.1856   -5.5814    0.0000 O   0  0  0  0  0  0  0  0  0  0  0  0
    4.7566   -6.4064    0.0000 C   0  0  0  0  0  0  0  0  0  0  0  0
    4.0421   -6.8189    0.0000 C   0  0  0  0  0  0  0  0  0  0  0  0
    3.3277   -6.4064    0.0000 C   0  0  0  0  0  0  0  0  0  0  0  0
    2.6132   -6.8189    0.0000 C   0  0  0  0  0  0  0  0  0  0  0  0
    2.6132   -7.6439    0.0000 C   0  0  0  0  0  0  0  0  0  0  0  0
    3.3277   -8.0564    0.0000 C   0  0  0  0  0  0  0  0  0  0  0  0
    4.0421   -7.6439    0.0000 C   0  0  0  0  0  0  0  0  0  0  0  0
    1.8987   -8.0564    0.0000 O   0  0  0  0  0  0  0  0  0  0  0  0
    1.8987   -6.4064    0.0000 O   0  0  0  0  0  0  0  0  0  0  0  0
    6.9000   -9.2939    0.0000 C   0  0  0  0  0  0  0  0  0  0  0  0
    6.1856   -8.8814    0.0000 O   0  0  0  0  0  0  0  0  0  0  0  0
    6.9000  -10.1189    0.0000 O   0  0  0  0  0  0  0  0  0  0  0  0
 11  1  1  6  0  0  0
  2  3  1  1  0  0  0
  4  5  1  0  0  0  0
  5  6  1  0  0  0  0
  5  7  2  0  0  0  0
 12  4  1  1  0  0  0
 13  8  1  1  0  0  0
  2 14  1  0  0  0  0
 10  2  1  0  0  0  0
 11 10  1  0  0  0  0
 12 11  1  0  0  0  0
 13 12  1  0  0  0  0
 14 13  1  0  0  0  0
  2  9  1  0  0  0  0
  9 15  2  0  0  0  0
  9 16  1  0  0  0  0
  1 17  1  0  0  0  0
 17 18  1  0  0  0  0
 17 19  2  0  0  0  0
 18 20  2  0  0  0  0
 20 21  1  0  0  0  0
 21 22  2  0  0  0  0
 22 23  1  0  0  0  0
 23 24  2  0  0  0  0
 24 25  1  0  0  0  0
 25 26  2  0  0  0  0
 26 21  1  0  0  0  0
 24 27  1  0  0  0  0
 23 28  1  0  0  0  0
  6 29  1  0  0  0  0
 29 30  2  0  0  0  0
 29 31  1  0  0  0  0
M  END
>  <cdx:fragmentId>
139

$$$$
