95107.cdx
  Mrv1902 05222410202D          

 36 39  0  0  0  0            999 V2000
    7.6568   -9.2400    0.0000 C   0  0  2  0  0  0  0  0  0  0  0  0
    7.6568  -10.0650    0.0000 C   0  0  2  0  0  0  0  0  0  0  0  0
    8.3713  -10.4775    0.0000 C   0  0  1  0  0  0  0  0  0  0  0  0
    9.0857  -10.0650    0.0000 C   0  0  2  0  0  0  0  0  0  0  0  0
    9.0857   -9.2400    0.0000 C   0  0  1  0  0  0  0  0  0  0  0  0
    8.3713   -8.8275    0.0000 O   0  0  0  0  0  0  0  0  0  0  0  0
    6.9423   -8.8275    0.0000 C   0  0  0  0  0  0  0  0  0  0  0  0
    9.8002   -8.8275    0.0000 O   0  0  0  0  0  0  0  0  0  0  0  0
    8.3713  -11.3025    0.0000 O   0  0  0  0  0  0  0  0  0  0  0  0
    6.9423  -10.4775    0.0000 O   0  0  0  0  0  0  0  0  0  0  0  0
    9.8002  -10.4775    0.0000 O   0  0  0  0  0  0  0  0  0  0  0  0
    6.2279   -9.2400    0.0000 O   0  0  0  0  0  0  0  0  0  0  0  0
    9.8002   -8.0025    0.0000 C   0  0  0  0  0  0  0  0  0  0  0  0
   10.5147   -7.5900    0.0000 C   0  0  0  0  0  0  0  0  0  0  0  0
   10.5147   -6.7650    0.0000 C   0  0  0  0  0  0  0  0  0  0  0  0
    9.8002   -6.3525    0.0000 C   0  0  0  0  0  0  0  0  0  0  0  0
    9.0857   -6.7650    0.0000 C   0  0  0  0  0  0  0  0  0  0  0  0
    9.0857   -7.5900    0.0000 C   0  0  0  0  0  0  0  0  0  0  0  0
    9.8002   -5.5275    0.0000 C   0  0  0  0  0  0  0  0  0  0  0  0
   10.5147   -5.1150    0.0000 O   0  0  0  0  0  0  0  0  0  0  0  0
    5.5134   -8.8275    0.0000 C   0  0  0  0  0  0  0  0  0  0  0  0
    4.7989   -9.2400    0.0000 C   0  0  0  0  0  0  0  0  0  0  0  0
    4.0844   -8.8275    0.0000 C   0  0  0  0  0  0  0  0  0  0  0  0
    3.3700   -9.2400    0.0000 C   0  0  0  0  0  0  0  0  0  0  0  0
    3.3700  -10.0650    0.0000 C   0  0  0  0  0  0  0  0  0  0  0  0
    4.0844  -10.4775    0.0000 C   0  0  0  0  0  0  0  0  0  0  0  0
    4.7989  -10.0650    0.0000 C   0  0  0  0  0  0  0  0  0  0  0  0
    2.6555  -10.4775    0.0000 O   0  0  0  0  0  0  0  0  0  0  0  0
   10.5147   -4.2900    0.0000 C   0  0  0  0  0  0  0  0  0  0  0  0
    9.8002   -3.8775    0.0000 C   0  0  0  0  0  0  0  0  0  0  0  0
    9.8002   -3.0525    0.0000 C   0  0  0  0  0  0  0  0  0  0  0  0
    9.0857   -2.6400    0.0000 C   0  0  0  0  0  0  0  0  0  0  0  0
    8.3713   -3.0525    0.0000 C   0  0  0  0  0  0  0  0  0  0  0  0
    8.3713   -3.8775    0.0000 C   0  0  0  0  0  0  0  0  0  0  0  0
    9.0857   -4.2900    0.0000 C   0  0  0  0  0  0  0  0  0  0  0  0
    7.6568   -2.6400    0.0000 O   0  0  0  0  0  0  0  0  0  0  0  0
  1  2  1  0  0  0  0
  2  3  1  0  0  0  0
  3  4  1  0  0  0  0
  4  5  1  0  0  0  0
  5  6  1  0  0  0  0
  6  1  1  0  0  0  0
  1  7  1  1  0  0  0
  5  8  1  1  0  0  0
  3  9  1  1  0  0  0
  2 10  1  6  0  0  0
  4 11  1  6  0  0  0
  7 12  1  0  0  0  0
  8 13  1  0  0  0  0
 13 14  2  0  0  0  0
 14 15  1  0  0  0  0
 15 16  2  0  0  0  0
 16 17  1  0  0  0  0
 17 18  2  0  0  0  0
 18 13  1  0  0  0  0
 16 19  1  0  0  0  0
 19 20  1  0  0  0  0
 12 21  1  0  0  0  0
 21 22  1  0  0  0  0
 22 23  2  0  0  0  0
 23 24  1  0  0  0  0
 24 25  2  0  0  0  0
 25 26  1  0  0  0  0
 26 27  2  0  0  0  0
 27 22  1  0  0  0  0
 25 28  1  0  0  0  0
 20 29  1  0  0  0  0
 29 30  1  0  0  0  0
 30 31  2  0  0  0  0
 31 32  1  0  0  0  0
 32 33  2  0  0  0  0
 33 34  1  0  0  0  0
 34 35  2  0  0  0  0
 35 30  1  0  0  0  0
 33 36  1  0  0  0  0
M  END
>  <cdx:fragmentId>
117

$$$$
