95101.cdx
  Mrv1902 05222410222D          

 28 30  0  0  0  0            999 V2000
    8.7018   -5.7338    0.0000 C   0  0  0  0  0  0  0  0  0  0  0  0
    8.7018   -6.5587    0.0000 C   0  0  0  0  0  0  0  0  0  0  0  0
    9.4163   -6.9712    0.0000 C   0  0  0  0  0  0  0  0  0  0  0  0
   10.1307   -6.5587    0.0000 C   0  0  0  0  0  0  0  0  0  0  0  0
   10.1307   -5.7338    0.0000 C   0  0  0  0  0  0  0  0  0  0  0  0
    9.4163   -5.3213    0.0000 C   0  0  0  0  0  0  0  0  0  0  0  0
    9.4163   -4.4962    0.0000 C   0  0  0  0  0  0  0  0  0  0  0  0
   10.1307   -4.0838    0.0000 O   0  0  0  0  0  0  0  0  0  0  0  0
    9.4163   -7.7963    0.0000 O   0  0  0  0  0  0  0  0  0  0  0  0
    8.7018   -8.2088    0.0000 C   0  0  2  0  0  0  0  0  0  0  0  0
    7.9873   -7.7963    0.0000 O   0  0  0  0  0  0  0  0  0  0  0  0
    7.2729   -8.2088    0.0000 C   0  0  1  0  0  0  0  0  0  0  0  0
    7.2729   -9.0337    0.0000 C   0  0  2  0  0  0  0  0  0  0  0  0
    7.9873   -9.4462    0.0000 C   0  0  1  0  0  0  0  0  0  0  0  0
    8.7018   -9.0337    0.0000 C   0  0  1  0  0  0  0  0  0  0  0  0
    6.5584   -7.7963    0.0000 C   0  0  0  0  0  0  0  0  0  0  0  0
    5.8439   -8.2088    0.0000 O   0  0  0  0  0  0  0  0  0  0  0  0
    5.1294   -7.7963    0.0000 C   0  0  0  0  0  0  0  0  0  0  0  0
    4.4150   -8.2088    0.0000 C   0  0  0  0  0  0  0  0  0  0  0  0
    7.9873  -10.2713    0.0000 O   0  0  0  0  0  0  0  0  0  0  0  0
    6.5584   -9.4462    0.0000 O   0  0  0  0  0  0  0  0  0  0  0  0
    9.4163   -9.4462    0.0000 O   0  0  0  0  0  0  0  0  0  0  0  0
    3.7005   -7.7963    0.0000 C   0  0  0  0  0  0  0  0  0  0  0  0
    2.9860   -8.2088    0.0000 C   0  0  0  0  0  0  0  0  0  0  0  0
    2.9860   -9.0337    0.0000 C   0  0  0  0  0  0  0  0  0  0  0  0
    3.7005   -9.4462    0.0000 C   0  0  0  0  0  0  0  0  0  0  0  0
    4.4150   -9.0337    0.0000 C   0  0  0  0  0  0  0  0  0  0  0  0
    2.2716   -9.4462    0.0000 O   0  0  0  0  0  0  0  0  0  0  0  0
  1  2  2  0  0  0  0
  2  3  1  0  0  0  0
  3  4  2  0  0  0  0
  4  5  1  0  0  0  0
  5  6  2  0  0  0  0
  6  1  1  0  0  0  0
  6  7  1  0  0  0  0
  7  8  1  0  0  0  0
  3  9  1  0  0  0  0
 10  9  1  1  0  0  0
 10 11  1  0  0  0  0
 11 12  1  0  0  0  0
 12 13  1  0  0  0  0
 13 14  1  0  0  0  0
 14 15  1  0  0  0  0
 15 10  1  0  0  0  0
 12 16  1  1  0  0  0
 16 17  1  0  0  0  0
 17 18  1  0  0  0  0
 18 19  1  0  0  0  0
 14 20  1  1  0  0  0
 13 21  1  6  0  0  0
 15 22  1  6  0  0  0
 19 23  2  0  0  0  0
 23 24  1  0  0  0  0
 24 25  2  0  0  0  0
 25 26  1  0  0  0  0
 26 27  2  0  0  0  0
 27 19  1  0  0  0  0
 25 28  1  0  0  0  0
M  END
>  <cdx:fragmentId>
5

$$$$
