951001.cdx
  Mrv1902 05222410202D          

 36 39  0  0  0  0            999 V2000
    4.4118  -10.0650    0.0000 C   0  0  0  0  0  0  0  0  0  0  0  0
    4.4118  -10.8900    0.0000 C   0  0  0  0  0  0  0  0  0  0  0  0
    5.1263  -11.3025    0.0000 C   0  0  0  0  0  0  0  0  0  0  0  0
    5.8407  -10.8900    0.0000 C   0  0  0  0  0  0  0  0  0  0  0  0
    5.8407  -10.0650    0.0000 C   0  0  0  0  0  0  0  0  0  0  0  0
    5.1263   -9.6525    0.0000 C   0  0  0  0  0  0  0  0  0  0  0  0
    5.1263   -8.8275    0.0000 C   0  0  0  0  0  0  0  0  0  0  0  0
    5.8407   -8.4150    0.0000 O   0  0  0  0  0  0  0  0  0  0  0  0
    5.1263  -12.1275    0.0000 O   0  0  0  0  0  0  0  0  0  0  0  0
    4.4118  -12.5400    0.0000 C   0  0  2  0  0  0  0  0  0  0  0  0
    3.6973  -12.1275    0.0000 O   0  0  0  0  0  0  0  0  0  0  0  0
    2.9829  -12.5400    0.0000 C   0  0  1  0  0  0  0  0  0  0  0  0
    2.9829  -13.3650    0.0000 C   0  0  2  0  0  0  0  0  0  0  0  0
    3.6973  -13.7775    0.0000 C   0  0  1  0  0  0  0  0  0  0  0  0
    4.4118  -13.3650    0.0000 C   0  0  1  0  0  0  0  0  0  0  0  0
    2.2684  -12.1275    0.0000 C   0  0  0  0  0  0  0  0  0  0  0  0
    1.5539  -12.5400    0.0000 O   0  0  0  0  0  0  0  0  0  0  0  0
    3.6973  -14.6025    0.0000 O   0  0  0  0  0  0  0  0  0  0  0  0
    2.2684  -13.7775    0.0000 O   0  0  0  0  0  0  0  0  0  0  0  0
    5.1263  -13.7775    0.0000 O   0  0  0  0  0  0  0  0  0  0  0  0
    6.5552   -8.8275    0.0000 C   0  0  0  0  0  0  0  0  0  0  0  0
    7.2697   -8.4150    0.0000 C   0  0  0  0  0  0  0  0  0  0  0  0
    7.9842   -8.8275    0.0000 C   0  0  0  0  0  0  0  0  0  0  0  0
    8.6986   -8.4150    0.0000 C   0  0  0  0  0  0  0  0  0  0  0  0
    8.6986   -7.5900    0.0000 C   0  0  0  0  0  0  0  0  0  0  0  0
    7.9842   -7.1775    0.0000 C   0  0  0  0  0  0  0  0  0  0  0  0
    7.2697   -7.5900    0.0000 C   0  0  0  0  0  0  0  0  0  0  0  0
    9.4131   -8.8275    0.0000 C   0  0  0  0  0  0  0  0  0  0  0  0
   10.1276   -8.4150    0.0000 C   0  0  0  0  0  0  0  0  0  0  0  0
   10.8420   -8.8275    0.0000 C   0  0  0  0  0  0  0  0  0  0  0  0
   11.5565   -8.4150    0.0000 C   0  0  0  0  0  0  0  0  0  0  0  0
   11.5565   -7.5900    0.0000 C   0  0  0  0  0  0  0  0  0  0  0  0
   10.8420   -7.1775    0.0000 C   0  0  0  0  0  0  0  0  0  0  0  0
   10.1276   -7.5900    0.0000 C   0  0  0  0  0  0  0  0  0  0  0  0
   12.2710   -7.1775    0.0000 O   0  0  0  0  0  0  0  0  0  0  0  0
    9.4131   -7.1775    0.0000 O   0  0  0  0  0  0  0  0  0  0  0  0
  1  2  2  0  0  0  0
  2  3  1  0  0  0  0
  3  4  2  0  0  0  0
  4  5  1  0  0  0  0
  5  6  2  0  0  0  0
  6  1  1  0  0  0  0
  6  7  1  0  0  0  0
  7  8  1  0  0  0  0
  3  9  1  0  0  0  0
 10  9  1  1  0  0  0
 10 11  1  0  0  0  0
 11 12  1  0  0  0  0
 12 13  1  0  0  0  0
 13 14  1  0  0  0  0
 14 15  1  0  0  0  0
 15 10  1  0  0  0  0
 12 16  1  1  0  0  0
 16 17  1  0  0  0  0
 14 18  1  1  0  0  0
 13 19  1  6  0  0  0
 15 20  1  6  0  0  0
  8 21  1  0  0  0  0
 21 22  1  0  0  0  0
 22 23  1  0  0  0  0
 23 24  2  0  0  0  0
 24 25  1  0  0  0  0
 25 26  2  0  0  0  0
 26 27  1  0  0  0  0
 27 22  2  0  0  0  0
 24 28  1  0  0  0  0
 28 29  1  0  0  0  0
 29 30  1  0  0  0  0
 30 31  2  0  0  0  0
 31 32  1  0  0  0  0
 32 33  2  0  0  0  0
 33 34  1  0  0  0  0
 34 29  2  0  0  0  0
 32 35  1  0  0  0  0
 25 36  1  0  0  0  0
M  END
>  <cdx:fragmentId>
5

$$$$
