95109.cdx
  Mrv1902 05222410252D          

 35 38  0  0  0  0            999 V2000
    3.5548  -10.8727    0.0000 C   0  0  0  0  0  0  0  0  0  0  0  0
    3.5548  -10.0477    0.0000 C   0  0  0  0  0  0  0  0  0  0  0  0
    4.2692   -9.6352    0.0000 C   0  0  0  0  0  0  0  0  0  0  0  0
    4.2692  -11.2852    0.0000 C   0  0  0  0  0  0  0  0  0  0  0  0
    4.6817  -11.9997    0.0000 C   0  0  0  0  0  0  0  0  0  0  0  0
    3.8567  -11.9997    0.0000 C   0  0  0  0  0  0  0  0  0  0  0  0
    4.9837  -10.8727    0.0000 C   0  0  2  0  0  0  0  0  0  0  0  0
    5.6982  -11.2852    0.0000 C   0  0  0  0  0  0  0  0  0  0  0  0
    6.4126  -10.8727    0.0000 C   0  0  0  0  0  0  0  0  0  0  0  0
    6.4126  -10.0477    0.0000 C   0  0  0  0  0  0  0  0  0  0  0  0
    7.1271   -9.6352    0.0000 C   0  0  2  0  0  0  0  0  0  0  0  0
    7.1271  -10.4602    0.0000 C   0  0  0  0  0  0  0  0  0  0  0  0
    7.9117   -9.8902    0.0000 C   0  0  0  0  0  0  0  0  0  0  0  0
    8.3967   -9.2227    0.0000 C   0  0  0  0  0  0  0  0  0  0  0  0
    7.9117   -8.5553    0.0000 C   0  0  2  0  0  0  0  0  0  0  0  0
    8.1667   -7.7707    0.0000 C   0  0  2  0  0  0  0  0  0  0  0  0
    7.6146   -7.1576    0.0000 C   0  0  0  0  0  0  0  0  0  0  0  0
    7.1271   -8.8102    0.0000 C   0  0  2  0  0  0  0  0  0  0  0  0
    7.1271   -7.9852    0.0000 C   0  0  0  0  0  0  0  0  0  0  0  0
    6.4126   -8.3977    0.0000 C   0  0  0  0  0  0  0  0  0  0  0  0
    5.6982   -8.8102    0.0000 C   0  0  0  0  0  0  0  0  0  0  0  0
    5.6982   -9.6352    0.0000 C   0  0  0  0  0  0  0  0  0  0  0  0
    4.9837  -10.0477    0.0000 C   0  0  1  0  0  0  0  0  0  0  0  0
    4.9837   -9.2227    0.0000 C   0  0  0  0  0  0  0  0  0  0  0  0
    2.8403  -11.2852    0.0000 O   0  0  0  0  0  0  0  0  0  0  0  0
   10.5876   -7.2561    0.0000 O   0  0  0  0  0  0  0  0  0  0  0  0
   11.3524   -4.9022    0.0000 O   0  0  0  0  0  0  0  0  0  0  0  0
    9.7385   -5.2453    0.0000 C   0  0  0  0  0  0  0  0  0  0  0  0
   11.0975   -5.6869    0.0000 C   0  0  0  0  0  0  0  0  0  0  0  0
   10.2905   -5.8584    0.0000 C   0  0  0  0  0  0  0  0  0  0  0  0
   10.0356   -6.6430    0.0000 C   0  0  2  0  0  0  0  0  0  0  0  0
    9.2286   -6.8145    0.0000 C   0  0  0  0  0  0  0  0  0  0  0  0
    8.9737   -7.5992    0.0000 C   0  0  0  0  0  0  0  0  0  0  0  0
    4.9837  -11.6977    0.0000 H   0  0  0  0  0  0  0  0  0  0  0  0
    8.7086   -8.3418    0.0000 H   0  0  0  0  0  0  0  0  0  0  0  0
 31 26  1  1  0  0  0
  1  2  1  0  0  0  0
  2  3  1  0  0  0  0
  1  4  1  0  0  0  0
  4  5  1  0  0  0  0
  4  6  1  0  0  0  0
  4  7  1  0  0  0  0
  7  8  1  0  0  0  0
  8  9  1  0  0  0  0
  9 10  2  0  0  0  0
 10 11  1  0  0  0  0
 11 12  1  6  0  0  0
 11 13  1  0  0  0  0
 13 14  1  0  0  0  0
 15 14  1  0  0  0  0
 15 16  1  0  0  0  0
 16 33  1  0  0  0  0
 16 17  1  6  0  0  0
 15 18  1  0  0  0  0
 11 18  1  0  0  0  0
 18 19  1  1  0  0  0
 18 20  1  0  0  0  0
 20 21  1  0  0  0  0
 21 22  2  0  0  0  0
 10 22  1  0  0  0  0
 22 23  1  0  0  0  0
  3 23  1  0  0  0  0
  7 23  1  0  0  0  0
 23 24  1  1  0  0  0
  1 25  2  0  0  0  0
 29 27  1  0  0  0  0
 30 28  2  0  0  0  0
 30 29  1  0  0  0  0
 31 30  1  0  0  0  0
 32 31  1  0  0  0  0
 33 32  1  0  0  0  0
  7 34  1  6  0  0  0
 15 35  1  6  0  0  0
M  END
>  <cdx:fragmentId>
5

$$$$
