95105.cdx
  Mrv1902 05222410212D          

 31 33  0  0  0  0            999 V2000
    7.9593   -8.8550    0.0000 C   0  0  2  0  0  0  0  0  0  0  0  0
    7.9593   -9.6800    0.0000 C   0  0  2  0  0  0  0  0  0  0  0  0
    8.6738  -10.0925    0.0000 C   0  0  1  0  0  0  0  0  0  0  0  0
    9.3882   -9.6800    0.0000 C   0  0  2  0  0  0  0  0  0  0  0  0
    9.3882   -8.8550    0.0000 C   0  0  1  0  0  0  0  0  0  0  0  0
    8.6738   -8.4425    0.0000 O   0  0  0  0  0  0  0  0  0  0  0  0
    7.2448   -8.4425    0.0000 C   0  0  0  0  0  0  0  0  0  0  0  0
   10.1027   -8.4425    0.0000 O   0  0  0  0  0  0  0  0  0  0  0  0
    8.6738  -10.9175    0.0000 O   0  0  0  0  0  0  0  0  0  0  0  0
    7.2448  -10.0925    0.0000 O   0  0  0  0  0  0  0  0  0  0  0  0
   10.1027  -10.0925    0.0000 O   0  0  0  0  0  0  0  0  0  0  0  0
    6.5304   -8.8550    0.0000 O   0  0  0  0  0  0  0  0  0  0  0  0
    5.8159   -8.4425    0.0000 C   0  0  1  0  0  0  0  0  0  0  0  0
    5.8159   -7.6175    0.0000 O   0  0  0  0  0  0  0  0  0  0  0  0
    5.1014   -7.2050    0.0000 C   0  0  1  0  0  0  0  0  0  0  0  0
    4.3869   -7.6175    0.0000 C   0  0  2  0  0  0  0  0  0  0  0  0
    4.3869   -8.4425    0.0000 C   0  0  1  0  0  0  0  0  0  0  0  0
    5.1014   -8.8550    0.0000 C   0  0  1  0  0  0  0  0  0  0  0  0
    5.1014   -9.6800    0.0000 O   0  0  0  0  0  0  0  0  0  0  0  0
    3.6725   -7.2050    0.0000 O   0  0  0  0  0  0  0  0  0  0  0  0
    3.6725   -8.8550    0.0000 O   0  0  0  0  0  0  0  0  0  0  0  0
    5.1014   -6.3800    0.0000 C   0  0  0  0  0  0  0  0  0  0  0  0
    4.3869   -5.9675    0.0000 O   0  0  0  0  0  0  0  0  0  0  0  0
   10.1027   -7.6175    0.0000 C   0  0  0  0  0  0  0  0  0  0  0  0
   10.8172   -7.2050    0.0000 C   0  0  0  0  0  0  0  0  0  0  0  0
   10.8172   -6.3800    0.0000 C   0  0  0  0  0  0  0  0  0  0  0  0
   10.1027   -5.9675    0.0000 C   0  0  0  0  0  0  0  0  0  0  0  0
    9.3882   -6.3800    0.0000 C   0  0  0  0  0  0  0  0  0  0  0  0
    9.3882   -7.2050    0.0000 C   0  0  0  0  0  0  0  0  0  0  0  0
   10.1027   -5.1425    0.0000 C   0  0  0  0  0  0  0  0  0  0  0  0
   10.8172   -4.7300    0.0000 O   0  0  0  0  0  0  0  0  0  0  0  0
  1  2  1  0  0  0  0
  2  3  1  0  0  0  0
  3  4  1  0  0  0  0
  4  5  1  0  0  0  0
  5  6  1  0  0  0  0
  6  1  1  0  0  0  0
  1  7  1  1  0  0  0
  5  8  1  1  0  0  0
  3  9  1  1  0  0  0
  2 10  1  6  0  0  0
  4 11  1  6  0  0  0
  7 12  1  0  0  0  0
 13 12  1  6  0  0  0
 13 14  1  0  0  0  0
 14 15  1  0  0  0  0
 15 16  1  0  0  0  0
 16 17  1  0  0  0  0
 17 18  1  0  0  0  0
 18 13  1  0  0  0  0
 18 19  1  6  0  0  0
 16 20  1  6  0  0  0
 17 21  1  1  0  0  0
 15 22  1  1  0  0  0
 22 23  1  0  0  0  0
  8 24  1  0  0  0  0
 24 25  2  0  0  0  0
 25 26  1  0  0  0  0
 26 27  2  0  0  0  0
 27 28  1  0  0  0  0
 28 29  2  0  0  0  0
 29 24  1  0  0  0  0
 27 30  1  0  0  0  0
 30 31  1  0  0  0  0
M  END
>  <cdx:fragmentId>
117

$$$$
