95100.cdx
  Mrv1902 05222410222D          

 23 24  0  0  0  0            999 V2000
    8.3168   -6.3800    0.0000 C   0  0  0  0  0  0  0  0  0  0  0  0
    8.3168   -7.2050    0.0000 C   0  0  0  0  0  0  0  0  0  0  0  0
    9.0313   -7.6175    0.0000 C   0  0  0  0  0  0  0  0  0  0  0  0
    9.7457   -7.2050    0.0000 C   0  0  0  0  0  0  0  0  0  0  0  0
    9.7457   -6.3800    0.0000 C   0  0  0  0  0  0  0  0  0  0  0  0
    9.0313   -5.9675    0.0000 C   0  0  0  0  0  0  0  0  0  0  0  0
    9.0313   -5.1425    0.0000 C   0  0  0  0  0  0  0  0  0  0  0  0
    9.7457   -4.7300    0.0000 O   0  0  0  0  0  0  0  0  0  0  0  0
    9.0313   -8.4425    0.0000 O   0  0  0  0  0  0  0  0  0  0  0  0
    8.3168   -8.8550    0.0000 C   0  0  2  0  0  0  0  0  0  0  0  0
    7.6023   -8.4425    0.0000 O   0  0  0  0  0  0  0  0  0  0  0  0
    6.8879   -8.8550    0.0000 C   0  0  1  0  0  0  0  0  0  0  0  0
    6.8879   -9.6800    0.0000 C   0  0  2  0  0  0  0  0  0  0  0  0
    7.6023  -10.0925    0.0000 C   0  0  1  0  0  0  0  0  0  0  0  0
    8.3168   -9.6800    0.0000 C   0  0  1  0  0  0  0  0  0  0  0  0
    6.1734   -8.4425    0.0000 C   0  0  0  0  0  0  0  0  0  0  0  0
    5.4589   -8.8550    0.0000 O   0  0  0  0  0  0  0  0  0  0  0  0
    4.7444   -8.4425    0.0000 C   0  0  0  0  0  0  0  0  0  0  0  0
    4.0300   -8.8550    0.0000 C   0  0  0  0  0  0  0  0  0  0  0  0
    4.7444   -7.6175    0.0000 O   0  0  0  0  0  0  0  0  0  0  0  0
    7.6023  -10.9175    0.0000 O   0  0  0  0  0  0  0  0  0  0  0  0
    6.1734  -10.0925    0.0000 O   0  0  0  0  0  0  0  0  0  0  0  0
    9.0313  -10.0925    0.0000 O   0  0  0  0  0  0  0  0  0  0  0  0
  1  2  2  0  0  0  0
  2  3  1  0  0  0  0
  3  4  2  0  0  0  0
  4  5  1  0  0  0  0
  5  6  2  0  0  0  0
  6  1  1  0  0  0  0
  6  7  1  0  0  0  0
  7  8  1  0  0  0  0
  3  9  1  0  0  0  0
 10  9  1  1  0  0  0
 10 11  1  0  0  0  0
 11 12  1  0  0  0  0
 12 13  1  0  0  0  0
 13 14  1  0  0  0  0
 14 15  1  0  0  0  0
 15 10  1  0  0  0  0
 12 16  1  1  0  0  0
 16 17  1  0  0  0  0
 17 18  1  0  0  0  0
 18 19  1  0  0  0  0
 18 20  2  0  0  0  0
 14 21  1  1  0  0  0
 13 22  1  6  0  0  0
 15 23  1  6  0  0  0
M  END
>  <cdx:fragmentId>
5

$$$$
