95104.cdx
  Mrv1902 05222410212D          

 28 30  0  0  0  0            999 V2000
    4.8931   -5.9400    0.0000 C   0  0  2  0  0  0  0  0  0  0  0  0
    4.8931   -6.7650    0.0000 C   0  0  2  0  0  0  0  0  0  0  0  0
    5.6075   -7.1775    0.0000 C   0  0  1  0  0  0  0  0  0  0  0  0
    6.3220   -6.7650    0.0000 C   0  0  2  0  0  0  0  0  0  0  0  0
    6.3220   -5.9400    0.0000 C   0  0  1  0  0  0  0  0  0  0  0  0
    5.6075   -5.5275    0.0000 O   0  0  0  0  0  0  0  0  0  0  0  0
    4.1786   -5.5275    0.0000 C   0  0  0  0  0  0  0  0  0  0  0  0
    7.0365   -5.5275    0.0000 O   0  0  0  0  0  0  0  0  0  0  0  0
    5.6075   -8.0025    0.0000 O   0  0  0  0  0  0  0  0  0  0  0  0
    4.1786   -7.1775    0.0000 O   0  0  0  0  0  0  0  0  0  0  0  0
    7.0365   -7.1775    0.0000 O   0  0  0  0  0  0  0  0  0  0  0  0
    3.4641   -5.9400    0.0000 O   0  0  0  0  0  0  0  0  0  0  0  0
    7.7509   -5.9400    0.0000 C   0  0  0  0  0  0  0  0  0  0  0  0
    7.7509   -6.7650    0.0000 C   0  0  0  0  0  0  0  0  0  0  0  0
    8.4654   -7.1775    0.0000 C   0  0  0  0  0  0  0  0  0  0  0  0
    9.1799   -6.7650    0.0000 C   0  0  0  0  0  0  0  0  0  0  0  0
    9.1799   -5.9400    0.0000 C   0  0  0  0  0  0  0  0  0  0  0  0
    8.4654   -5.5275    0.0000 C   0  0  0  0  0  0  0  0  0  0  0  0
    9.8944   -7.1775    0.0000 C   0  0  0  0  0  0  0  0  0  0  0  0
   10.6088   -6.7650    0.0000 O   0  0  0  0  0  0  0  0  0  0  0  0
    7.0365   -8.0025    0.0000 C   0  0  0  0  0  0  0  0  0  0  0  0
    7.7509   -8.4150    0.0000 C   0  0  0  0  0  0  0  0  0  0  0  0
    7.7509   -9.2400    0.0000 C   0  0  0  0  0  0  0  0  0  0  0  0
    8.4654   -9.6525    0.0000 C   0  0  0  0  0  0  0  0  0  0  0  0
    9.1799   -9.2400    0.0000 C   0  0  0  0  0  0  0  0  0  0  0  0
    9.1799   -8.4150    0.0000 C   0  0  0  0  0  0  0  0  0  0  0  0
    8.4654   -8.0025    0.0000 C   0  0  0  0  0  0  0  0  0  0  0  0
    9.8944   -9.6525    0.0000 O   0  0  0  0  0  0  0  0  0  0  0  0
  1  2  1  0  0  0  0
  2  3  1  0  0  0  0
  3  4  1  0  0  0  0
  4  5  1  0  0  0  0
  5  6  1  0  0  0  0
  6  1  1  0  0  0  0
  1  7  1  1  0  0  0
  5  8  1  1  0  0  0
  3  9  1  1  0  0  0
  2 10  1  6  0  0  0
  4 11  1  6  0  0  0
  7 12  1  0  0  0  0
  8 13  1  0  0  0  0
 13 14  2  0  0  0  0
 14 15  1  0  0  0  0
 15 16  2  0  0  0  0
 16 17  1  0  0  0  0
 17 18  2  0  0  0  0
 18 13  1  0  0  0  0
 16 19  1  0  0  0  0
 19 20  1  0  0  0  0
 11 21  1  0  0  0  0
 21 22  1  0  0  0  0
 22 23  2  0  0  0  0
 23 24  1  0  0  0  0
 24 25  2  0  0  0  0
 25 26  1  0  0  0  0
 26 27  2  0  0  0  0
 27 22  1  0  0  0  0
 25 28  1  0  0  0  0
M  END
>  <cdx:fragmentId>
5

$$$$
