95102.cdx
  Mrv1902 05222410222D          

 36 39  0  0  0  0            999 V2000
    5.6356   -7.2462    0.0000 C   0  0  2  0  0  0  0  0  0  0  0  0
    5.6356   -8.0713    0.0000 C   0  0  2  0  0  0  0  0  0  0  0  0
    6.3500   -8.4838    0.0000 C   0  0  1  0  0  0  0  0  0  0  0  0
    7.0645   -8.0713    0.0000 C   0  0  2  0  0  0  0  0  0  0  0  0
    7.0645   -7.2462    0.0000 C   0  0  1  0  0  0  0  0  0  0  0  0
    6.3500   -6.8338    0.0000 O   0  0  0  0  0  0  0  0  0  0  0  0
    4.9211   -6.8338    0.0000 C   0  0  0  0  0  0  0  0  0  0  0  0
    7.7790   -6.8338    0.0000 O   0  0  0  0  0  0  0  0  0  0  0  0
    6.3500   -9.3087    0.0000 O   0  0  0  0  0  0  0  0  0  0  0  0
    4.9211   -8.4838    0.0000 O   0  0  0  0  0  0  0  0  0  0  0  0
    7.7790   -8.4838    0.0000 O   0  0  0  0  0  0  0  0  0  0  0  0
    4.2066   -7.2462    0.0000 O   0  0  0  0  0  0  0  0  0  0  0  0
    8.4934   -7.2462    0.0000 C   0  0  0  0  0  0  0  0  0  0  0  0
    8.4934   -8.0713    0.0000 C   0  0  0  0  0  0  0  0  0  0  0  0
    9.2079   -8.4838    0.0000 C   0  0  0  0  0  0  0  0  0  0  0  0
    9.9224   -8.0713    0.0000 C   0  0  0  0  0  0  0  0  0  0  0  0
    9.9224   -7.2462    0.0000 C   0  0  0  0  0  0  0  0  0  0  0  0
    9.2079   -6.8338    0.0000 C   0  0  0  0  0  0  0  0  0  0  0  0
   10.6369   -8.4838    0.0000 C   0  0  0  0  0  0  0  0  0  0  0  0
   11.3513   -8.0713    0.0000 O   0  0  0  0  0  0  0  0  0  0  0  0
    7.7790   -9.3087    0.0000 C   0  0  0  0  0  0  0  0  0  0  0  0
    8.4934   -9.7212    0.0000 C   0  0  0  0  0  0  0  0  0  0  0  0
    8.4934  -10.5463    0.0000 C   0  0  0  0  0  0  0  0  0  0  0  0
    9.2079  -10.9588    0.0000 C   0  0  0  0  0  0  0  0  0  0  0  0
    9.9224  -10.5463    0.0000 C   0  0  0  0  0  0  0  0  0  0  0  0
    9.9224   -9.7212    0.0000 C   0  0  0  0  0  0  0  0  0  0  0  0
    9.2079   -9.3087    0.0000 C   0  0  0  0  0  0  0  0  0  0  0  0
   10.6369  -10.9588    0.0000 O   0  0  0  0  0  0  0  0  0  0  0  0
    3.4921   -6.8338    0.0000 C   0  0  0  0  0  0  0  0  0  0  0  0
    3.4921   -6.0088    0.0000 C   0  0  0  0  0  0  0  0  0  0  0  0
    4.2066   -5.5962    0.0000 C   0  0  0  0  0  0  0  0  0  0  0  0
    4.2066   -4.7713    0.0000 C   0  0  0  0  0  0  0  0  0  0  0  0
    3.4921   -4.3587    0.0000 C   0  0  0  0  0  0  0  0  0  0  0  0
    2.7777   -4.7713    0.0000 C   0  0  0  0  0  0  0  0  0  0  0  0
    2.7777   -5.5962    0.0000 C   0  0  0  0  0  0  0  0  0  0  0  0
    3.4921   -3.5337    0.0000 O   0  0  0  0  0  0  0  0  0  0  0  0
  1  2  1  0  0  0  0
  2  3  1  0  0  0  0
  3  4  1  0  0  0  0
  4  5  1  0  0  0  0
  5  6  1  0  0  0  0
  6  1  1  0  0  0  0
  1  7  1  1  0  0  0
  5  8  1  1  0  0  0
  3  9  1  1  0  0  0
  2 10  1  6  0  0  0
  4 11  1  6  0  0  0
  7 12  1  0  0  0  0
  8 13  1  0  0  0  0
 13 14  2  0  0  0  0
 14 15  1  0  0  0  0
 15 16  2  0  0  0  0
 16 17  1  0  0  0  0
 17 18  2  0  0  0  0
 18 13  1  0  0  0  0
 16 19  1  0  0  0  0
 19 20  1  0  0  0  0
 11 21  1  0  0  0  0
 21 22  1  0  0  0  0
 22 23  2  0  0  0  0
 23 24  1  0  0  0  0
 24 25  2  0  0  0  0
 25 26  1  0  0  0  0
 26 27  2  0  0  0  0
 27 22  1  0  0  0  0
 25 28  1  0  0  0  0
 12 29  1  0  0  0  0
 29 30  1  0  0  0  0
 30 31  2  0  0  0  0
 31 32  1  0  0  0  0
 32 33  2  0  0  0  0
 33 34  1  0  0  0  0
 34 35  2  0  0  0  0
 35 30  1  0  0  0  0
 33 36  1  0  0  0  0
M  END
>  <cdx:fragmentId>
5

$$$$
