95103.cdx
  Mrv1902 05222410232D          

 36 39  0  0  0  0            999 V2000
    3.3118   -7.5762    0.0000 C   0  0  2  0  0  0  0  0  0  0  0  0
    3.3118   -8.4013    0.0000 C   0  0  2  0  0  0  0  0  0  0  0  0
    4.0263   -8.8138    0.0000 C   0  0  1  0  0  0  0  0  0  0  0  0
    4.7407   -8.4013    0.0000 C   0  0  2  0  0  0  0  0  0  0  0  0
    4.7407   -7.5762    0.0000 C   0  0  1  0  0  0  0  0  0  0  0  0
    4.0263   -7.1638    0.0000 O   0  0  0  0  0  0  0  0  0  0  0  0
    2.5973   -7.1638    0.0000 C   0  0  0  0  0  0  0  0  0  0  0  0
    5.4552   -7.1638    0.0000 O   0  0  0  0  0  0  0  0  0  0  0  0
    4.0263   -9.6387    0.0000 O   0  0  0  0  0  0  0  0  0  0  0  0
    2.5973   -8.8138    0.0000 O   0  0  0  0  0  0  0  0  0  0  0  0
    5.4552   -8.8138    0.0000 O   0  0  0  0  0  0  0  0  0  0  0  0
    1.8829   -7.5762    0.0000 O   0  0  0  0  0  0  0  0  0  0  0  0
    6.1697   -7.5762    0.0000 C   0  0  0  0  0  0  0  0  0  0  0  0
    6.1697   -8.4013    0.0000 C   0  0  0  0  0  0  0  0  0  0  0  0
    6.8842   -8.8138    0.0000 C   0  0  0  0  0  0  0  0  0  0  0  0
    7.5986   -8.4013    0.0000 C   0  0  0  0  0  0  0  0  0  0  0  0
    7.5986   -7.5762    0.0000 C   0  0  0  0  0  0  0  0  0  0  0  0
    6.8842   -7.1638    0.0000 C   0  0  0  0  0  0  0  0  0  0  0  0
    8.3131   -8.8138    0.0000 C   0  0  0  0  0  0  0  0  0  0  0  0
    9.0276   -8.4013    0.0000 O   0  0  0  0  0  0  0  0  0  0  0  0
    5.4552   -9.6387    0.0000 C   0  0  0  0  0  0  0  0  0  0  0  0
    6.1697  -10.0512    0.0000 C   0  0  0  0  0  0  0  0  0  0  0  0
    6.1697  -10.8762    0.0000 C   0  0  0  0  0  0  0  0  0  0  0  0
    6.8842  -11.2888    0.0000 C   0  0  0  0  0  0  0  0  0  0  0  0
    7.5986  -10.8762    0.0000 C   0  0  0  0  0  0  0  0  0  0  0  0
    7.5986  -10.0512    0.0000 C   0  0  0  0  0  0  0  0  0  0  0  0
    6.8842   -9.6387    0.0000 C   0  0  0  0  0  0  0  0  0  0  0  0
    8.3131  -11.2888    0.0000 O   0  0  0  0  0  0  0  0  0  0  0  0
    9.0276   -7.5762    0.0000 C   0  0  0  0  0  0  0  0  0  0  0  0
    9.7420   -7.1638    0.0000 C   0  0  0  0  0  0  0  0  0  0  0  0
   10.4565   -7.5762    0.0000 C   0  0  0  0  0  0  0  0  0  0  0  0
   11.1710   -7.1638    0.0000 C   0  0  0  0  0  0  0  0  0  0  0  0
   11.1710   -6.3388    0.0000 C   0  0  0  0  0  0  0  0  0  0  0  0
   10.4565   -5.9262    0.0000 C   0  0  0  0  0  0  0  0  0  0  0  0
    9.7420   -6.3388    0.0000 C   0  0  0  0  0  0  0  0  0  0  0  0
   11.8855   -5.9262    0.0000 O   0  0  0  0  0  0  0  0  0  0  0  0
  1  2  1  0  0  0  0
  2  3  1  0  0  0  0
  3  4  1  0  0  0  0
  4  5  1  0  0  0  0
  5  6  1  0  0  0  0
  6  1  1  0  0  0  0
  1  7  1  1  0  0  0
  5  8  1  1  0  0  0
  3  9  1  1  0  0  0
  2 10  1  6  0  0  0
  4 11  1  6  0  0  0
  7 12  1  0  0  0  0
  8 13  1  0  0  0  0
 13 14  2  0  0  0  0
 14 15  1  0  0  0  0
 15 16  2  0  0  0  0
 16 17  1  0  0  0  0
 17 18  2  0  0  0  0
 18 13  1  0  0  0  0
 16 19  1  0  0  0  0
 19 20  1  0  0  0  0
 11 21  1  0  0  0  0
 21 22  1  0  0  0  0
 22 23  2  0  0  0  0
 23 24  1  0  0  0  0
 24 25  2  0  0  0  0
 25 26  1  0  0  0  0
 26 27  2  0  0  0  0
 27 22  1  0  0  0  0
 25 28  1  0  0  0  0
 20 29  1  0  0  0  0
 29 30  1  0  0  0  0
 30 31  2  0  0  0  0
 31 32  1  0  0  0  0
 32 33  2  0  0  0  0
 33 34  1  0  0  0  0
 34 35  2  0  0  0  0
 35 30  1  0  0  0  0
 33 36  1  0  0  0  0
M  END
>  <cdx:fragmentId>
5

$$$$
