95106.cdx
  Mrv1902 05222410212D          

 28 30  0  0  0  0            999 V2000
    6.8868   -7.7000    0.0000 C   0  0  2  0  0  0  0  0  0  0  0  0
    6.8868   -8.5250    0.0000 C   0  0  2  0  0  0  0  0  0  0  0  0
    7.6013   -8.9375    0.0000 C   0  0  1  0  0  0  0  0  0  0  0  0
    8.3157   -8.5250    0.0000 C   0  0  2  0  0  0  0  0  0  0  0  0
    8.3157   -7.7000    0.0000 C   0  0  1  0  0  0  0  0  0  0  0  0
    7.6013   -7.2875    0.0000 O   0  0  0  0  0  0  0  0  0  0  0  0
    6.1723   -7.2875    0.0000 C   0  0  0  0  0  0  0  0  0  0  0  0
    9.0302   -7.2875    0.0000 O   0  0  0  0  0  0  0  0  0  0  0  0
    7.6013   -9.7625    0.0000 O   0  0  0  0  0  0  0  0  0  0  0  0
    6.1723   -8.9375    0.0000 O   0  0  0  0  0  0  0  0  0  0  0  0
    9.0302   -8.9375    0.0000 O   0  0  0  0  0  0  0  0  0  0  0  0
    5.4579   -7.7000    0.0000 O   0  0  0  0  0  0  0  0  0  0  0  0
    9.0302   -6.4625    0.0000 C   0  0  0  0  0  0  0  0  0  0  0  0
    9.7447   -6.0500    0.0000 C   0  0  0  0  0  0  0  0  0  0  0  0
    9.7447   -5.2250    0.0000 C   0  0  0  0  0  0  0  0  0  0  0  0
    9.0302   -4.8125    0.0000 C   0  0  0  0  0  0  0  0  0  0  0  0
    8.3157   -5.2250    0.0000 C   0  0  0  0  0  0  0  0  0  0  0  0
    8.3157   -6.0500    0.0000 C   0  0  0  0  0  0  0  0  0  0  0  0
    9.0302   -3.9875    0.0000 C   0  0  0  0  0  0  0  0  0  0  0  0
    9.7447   -3.5750    0.0000 O   0  0  0  0  0  0  0  0  0  0  0  0
    6.1723   -9.7625    0.0000 C   0  0  0  0  0  0  0  0  0  0  0  0
    5.4579  -10.1750    0.0000 C   0  0  0  0  0  0  0  0  0  0  0  0
    4.7434   -9.7625    0.0000 C   0  0  0  0  0  0  0  0  0  0  0  0
    4.0289  -10.1750    0.0000 C   0  0  0  0  0  0  0  0  0  0  0  0
    4.0289  -11.0000    0.0000 C   0  0  0  0  0  0  0  0  0  0  0  0
    4.7434  -11.4125    0.0000 C   0  0  0  0  0  0  0  0  0  0  0  0
    5.4579  -11.0000    0.0000 C   0  0  0  0  0  0  0  0  0  0  0  0
    3.3144  -11.4125    0.0000 O   0  0  0  0  0  0  0  0  0  0  0  0
  1  2  1  0  0  0  0
  2  3  1  0  0  0  0
  3  4  1  0  0  0  0
  4  5  1  0  0  0  0
  5  6  1  0  0  0  0
  6  1  1  0  0  0  0
  1  7  1  1  0  0  0
  5  8  1  1  0  0  0
  3  9  1  1  0  0  0
  2 10  1  6  0  0  0
  4 11  1  6  0  0  0
  7 12  1  0  0  0  0
  8 13  1  0  0  0  0
 13 14  2  0  0  0  0
 14 15  1  0  0  0  0
 15 16  2  0  0  0  0
 16 17  1  0  0  0  0
 17 18  2  0  0  0  0
 18 13  1  0  0  0  0
 16 19  1  0  0  0  0
 19 20  1  0  0  0  0
 10 21  1  0  0  0  0
 21 22  1  0  0  0  0
 22 23  2  0  0  0  0
 23 24  1  0  0  0  0
 24 25  2  0  0  0  0
 25 26  1  0  0  0  0
 26 27  2  0  0  0  0
 27 22  1  0  0  0  0
 25 28  1  0  0  0  0
M  END
>  <cdx:fragmentId>
117

$$$$
