95112.cdx
  Mrv1902 05222410212D          

 45 49  0  0  0  0            999 V2000
    1.8261   -9.0879    0.0000 C   0  0  0  0  0  0  0  0  0  0  0  0
    1.1116   -9.5004    0.0000 O   0  0  0  0  0  0  0  0  0  0  0  0
    2.5344   -9.5109    0.0000 C   0  0  1  0  0  0  0  0  0  0  0  0
    3.2548   -9.1090    0.0000 O   0  0  0  0  0  0  0  0  0  0  0  0
    2.5222  -10.3358    0.0000 C   0  0  2  0  0  0  0  0  0  0  0  0
    3.2306  -10.7588    0.0000 C   0  0  1  0  0  0  0  0  0  0  0  0
    3.9510  -10.3569    0.0000 C   0  0  2  0  0  0  0  0  0  0  0  0
    3.9632   -9.5319    0.0000 C   0  0  2  0  0  0  0  0  0  0  0  0
    4.6593  -10.7798    0.0000 O   0  0  0  0  0  0  0  0  0  0  0  0
    4.6836   -9.1300    0.0000 O   0  0  0  0  0  0  0  0  0  0  0  0
    4.6836   -8.3050    0.0000 C   0  0  0  0  0  0  0  0  0  0  0  0
    5.3981   -7.8925    0.0000 C   0  0  0  0  0  0  0  0  0  0  0  0
    5.3981   -7.0675    0.0000 C   0  0  0  0  0  0  0  0  0  0  0  0
    4.6836   -6.6550    0.0000 C   0  0  0  0  0  0  0  0  0  0  0  0
    3.9692   -7.0675    0.0000 C   0  0  0  0  0  0  0  0  0  0  0  0
    3.9692   -7.8925    0.0000 C   0  0  0  0  0  0  0  0  0  0  0  0
    3.2547   -6.6550    0.0000 O   0  0  0  0  0  0  0  0  0  0  0  0
    6.1126   -8.3050    0.0000 C   0  0  0  0  0  0  0  0  0  0  0  0
    6.8270   -7.8925    0.0000 C   0  0  1  0  0  0  0  0  0  0  0  0
    6.2841   -9.1120    0.0000 C   0  0  0  0  0  0  0  0  0  0  0  0
    7.1046   -9.1982    0.0000 C   0  0  0  0  0  0  0  0  0  0  0  0
    7.4401   -8.4445    0.0000 O   0  0  0  0  0  0  0  0  0  0  0  0
    7.5171   -9.9127    0.0000 O   0  0  0  0  0  0  0  0  0  0  0  0
    6.9133   -7.0720    0.0000 C   0  0  0  0  0  0  0  0  0  0  0  0
    7.6277   -6.6595    0.0000 C   0  0  0  0  0  0  0  0  0  0  0  0
    8.3422   -7.0720    0.0000 C   0  0  0  0  0  0  0  0  0  0  0  0
    9.0567   -6.6595    0.0000 C   0  0  0  0  0  0  0  0  0  0  0  0
    9.0567   -5.8345    0.0000 C   0  0  0  0  0  0  0  0  0  0  0  0
    8.3422   -5.4220    0.0000 C   0  0  0  0  0  0  0  0  0  0  0  0
    7.6277   -5.8345    0.0000 C   0  0  0  0  0  0  0  0  0  0  0  0
    9.7712   -5.4220    0.0000 O   0  0  0  0  0  0  0  0  0  0  0  0
    3.2184  -11.5837    0.0000 O   0  0  0  0  0  0  0  0  0  0  0  0
    1.8018  -10.7378    0.0000 O   0  0  0  0  0  0  0  0  0  0  0  0
    2.5402   -7.0675    0.0000 C   0  0  0  0  0  0  0  0  0  0  0  0
   10.4863   -5.8334    0.0000 C   0  0  2  0  0  0  0  0  0  0  0  0
   10.4875   -6.6584    0.0000 O   0  0  0  0  0  0  0  0  0  0  0  0
   11.2027   -7.0698    0.0000 C   0  0  1  0  0  0  0  0  0  0  0  0
   11.9165   -6.6562    0.0000 C   0  0  2  0  0  0  0  0  0  0  0  0
   11.9152   -5.8312    0.0000 C   0  0  1  0  0  0  0  0  0  0  0  0
   11.2001   -5.4198    0.0000 C   0  0  1  0  0  0  0  0  0  0  0  0
   12.6290   -5.4176    0.0000 O   0  0  0  0  0  0  0  0  0  0  0  0
   11.2039   -7.8948    0.0000 C   0  0  0  0  0  0  0  0  0  0  0  0
   11.1988   -4.5948    0.0000 O   0  0  0  0  0  0  0  0  0  0  0  0
   12.6316   -7.0676    0.0000 O   0  0  0  0  0  0  0  0  0  0  0  0
   11.9190   -8.3062    0.0000 O   0  0  0  0  0  0  0  0  0  0  0  0
  1  2  1  0  0  0  0
  3  1  1  1  0  0  0
  3  4  1  0  0  0  0
  3  5  1  0  0  0  0
  5  6  1  0  0  0  0
  6  7  1  0  0  0  0
  7  8  1  0  0  0  0
  8  4  1  0  0  0  0
  7  9  1  6  0  0  0
  8 10  1  1  0  0  0
 10 11  1  0  0  0  0
 11 12  2  0  0  0  0
 12 13  1  0  0  0  0
 13 14  2  0  0  0  0
 14 15  1  0  0  0  0
 15 16  2  0  0  0  0
 16 11  1  0  0  0  0
 15 17  1  0  0  0  0
 12 18  1  0  0  0  0
 18 19  1  0  0  0  0
 18 20  2  0  0  0  0
 20 21  1  0  0  0  0
 21 22  1  0  0  0  0
 22 19  1  0  0  0  0
 21 23  2  0  0  0  0
 19 24  1  6  0  0  0
 24 25  1  0  0  0  0
 25 26  2  0  0  0  0
 26 27  1  0  0  0  0
 27 28  2  0  0  0  0
 28 29  1  0  0  0  0
 29 30  2  0  0  0  0
 30 25  1  0  0  0  0
 28 31  1  0  0  0  0
  6 32  1  1  0  0  0
  5 33  1  6  0  0  0
 17 34  1  0  0  0  0
 35 31  1  1  0  0  0
 35 36  1  0  0  0  0
 36 37  1  0  0  0  0
 37 38  1  0  0  0  0
 38 39  1  0  0  0  0
 39 40  1  0  0  0  0
 40 35  1  0  0  0  0
 39 41  1  1  0  0  0
 37 42  1  1  0  0  0
 40 43  1  6  0  0  0
 38 44  1  6  0  0  0
 42 45  1  0  0  0  0
M  END
>  <cdx:fragmentId>
5

$$$$
