95115.cdx
  Mrv1902 05222410222D          

 77 85  0  0  0  0            999 V2000
   10.8058  -11.4125    0.0000 C   0  0  1  0  0  0  0  0  0  0  0  0
   10.8058  -10.5875    0.0000 C   0  0  0  0  0  0  0  0  0  0  0  0
   11.5203  -10.1750    0.0000 C   0  0  2  0  0  0  0  0  0  0  0  0
   11.5203  -11.8250    0.0000 C   0  0  0  0  0  0  0  0  0  0  0  0
   12.2347  -11.4125    0.0000 C   0  0  0  0  0  0  0  0  0  0  0  0
   12.9492  -11.8250    0.0000 C   0  0  0  0  0  0  0  0  0  0  0  0
   13.6637  -11.4125    0.0000 C   0  0  0  0  0  0  0  0  0  0  0  0
   13.6637  -10.5875    0.0000 C   0  0  1  0  0  0  0  0  0  0  0  0
   14.3782  -10.1750    0.0000 C   0  0  2  0  0  0  0  0  0  0  0  0
   15.1628  -10.4299    0.0000 C   0  0  0  0  0  0  0  0  0  0  0  0
   15.6477   -9.7625    0.0000 C   0  0  2  0  0  0  0  0  0  0  0  0
   16.1326  -10.4299    0.0000 H   0  0  0  0  0  0  0  0  0  0  0  0
   16.4323   -9.5076    0.0000 O   0  0  0  0  0  0  0  0  0  0  0  0
   15.1628   -9.0951    0.0000 C   0  0  2  0  0  0  0  0  0  0  0  0
   14.8011   -8.3536    0.0000 H   0  0  0  0  0  0  0  0  0  0  0  0
   15.6477   -8.4276    0.0000 C   0  0  1  0  0  0  0  0  0  0  0  0
   16.4323   -8.6826    0.0000 C   0  0  1  0  0  0  0  0  0  0  0  0
   17.2528   -8.5963    0.0000 C   0  0  0  0  0  0  0  0  0  0  0  0
   17.7377   -9.2638    0.0000 C   0  0  0  0  0  0  0  0  0  0  0  0
   18.5582   -9.1775    0.0000 C   0  0  1  0  0  0  0  0  0  0  0  0
   19.0431   -9.8450    0.0000 C   0  0  0  0  0  0  0  0  0  0  0  0
   15.3928   -7.6430    0.0000 C   0  0  0  0  0  0  0  0  0  0  0  0
   14.3782   -9.3500    0.0000 C   0  0  2  0  0  0  0  0  0  0  0  0
   14.3782   -8.5250    0.0000 C   0  0  0  0  0  0  0  0  0  0  0  0
   13.6637   -8.9375    0.0000 C   0  0  0  0  0  0  0  0  0  0  0  0
   12.9492   -9.3500    0.0000 C   0  0  0  0  0  0  0  0  0  0  0  0
   12.9492  -10.1750    0.0000 C   0  0  2  0  0  0  0  0  0  0  0  0
   12.2347  -10.5875    0.0000 C   0  0  1  0  0  0  0  0  0  0  0  0
   12.2347   -9.7625    0.0000 C   0  0  0  0  0  0  0  0  0  0  0  0
   12.9492  -11.0000    0.0000 H   0  0  0  0  0  0  0  0  0  0  0  0
   13.6637   -9.7625    0.0000 H   0  0  0  0  0  0  0  0  0  0  0  0
   14.3782  -11.0000    0.0000 H   0  0  0  0  0  0  0  0  0  0  0  0
   10.0913  -11.8250    0.0000 O   0  0  0  0  0  0  0  0  0  0  0  0
   19.8636   -9.7587    0.0000 O   0  0  0  0  0  0  0  0  0  0  0  0
   20.3485  -10.4262    0.0000 C   0  0  2  0  0  0  0  0  0  0  0  0
   20.0130  -11.1798    0.0000 O   0  0  0  0  0  0  0  0  0  0  0  0
   20.4979  -11.8473    0.0000 C   0  0  1  0  0  0  0  0  0  0  0  0
   21.3184  -11.7610    0.0000 C   0  0  2  0  0  0  0  0  0  0  0  0
   21.6539  -11.0074    0.0000 C   0  0  1  0  0  0  0  0  0  0  0  0
   21.1690  -10.3399    0.0000 C   0  0  1  0  0  0  0  0  0  0  0  0
   20.1623  -12.6010    0.0000 C   0  0  0  0  0  0  0  0  0  0  0  0
   22.4744  -10.9211    0.0000 O   0  0  0  0  0  0  0  0  0  0  0  0
   21.5046   -9.5863    0.0000 O   0  0  0  0  0  0  0  0  0  0  0  0
   21.8033  -12.4285    0.0000 O   0  0  0  0  0  0  0  0  0  0  0  0
   20.6473  -13.2684    0.0000 O   0  0  0  0  0  0  0  0  0  0  0  0
   18.8938   -8.4238    0.0000 C   0  0  0  0  0  0  0  0  0  0  0  0
   16.6458   -7.8857    0.0000 O   0  0  0  0  0  0  0  0  0  0  0  0
   11.5203   -9.3500    0.0000 O   0  0  0  0  0  0  0  0  0  0  0  0
   11.1028   -8.6384    0.0000 C   0  0  2  0  0  0  0  0  0  0  0  0
   11.5103   -7.9211    0.0000 O   0  0  0  0  0  0  0  0  0  0  0  0
   11.0928   -7.2095    0.0000 C   0  0  1  0  0  0  0  0  0  0  0  0
   10.2678   -7.2153    0.0000 C   0  0  1  0  0  0  0  0  0  0  0  0
    9.8603   -7.9326    0.0000 C   0  0  1  0  0  0  0  0  0  0  0  0
   10.2778   -8.6442    0.0000 C   0  0  1  0  0  0  0  0  0  0  0  0
   11.5003   -6.4922    0.0000 C   0  0  0  0  0  0  0  0  0  0  0  0
    9.8703   -9.3615    0.0000 O   0  0  0  0  0  0  0  0  0  0  0  0
    9.0353   -7.9384    0.0000 O   0  0  0  0  0  0  0  0  0  0  0  0
    9.8503   -6.5037    0.0000 O   0  0  0  0  0  0  0  0  0  0  0  0
    9.1534   -9.7699    0.0000 C   0  0  2  0  0  0  0  0  0  0  0  0
    8.4399   -9.3557    0.0000 O   0  0  0  0  0  0  0  0  0  0  0  0
    7.7202   -9.7590    0.0000 C   0  0  2  0  0  0  0  0  0  0  0  0
    7.7141  -10.5764    0.0000 C   0  0  1  0  0  0  0  0  0  0  0  0
    8.4145  -10.9979    0.0000 C   0  0  2  0  0  0  0  0  0  0  0  0
    9.1341  -10.5946    0.0000 C   0  0  1  0  0  0  0  0  0  0  0  0
    8.6178   -7.2268    0.0000 C   0  0  2  0  0  0  0  0  0  0  0  0
    9.0203   -6.5067    0.0000 O   0  0  0  0  0  0  0  0  0  0  0  0
    8.6178   -5.7980    0.0000 C   0  0  0  0  0  0  0  0  0  0  0  0
    7.7929   -5.7980    0.0000 C   0  0  2  0  0  0  0  0  0  0  0  0
    7.3905   -6.5067    0.0000 C   0  0  1  0  0  0  0  0  0  0  0  0
    7.7929   -7.2268    0.0000 C   0  0  1  0  0  0  0  0  0  0  0  0
    6.9944  -10.9797    0.0000 O   0  0  0  0  0  0  0  0  0  0  0  0
    8.4017  -11.8228    0.0000 O   0  0  0  0  0  0  0  0  0  0  0  0
    9.8410  -11.0200    0.0000 O   0  0  0  0  0  0  0  0  0  0  0  0
    7.0100   -9.3392    0.0000 C   0  0  0  0  0  0  0  0  0  0  0  0
    6.5655   -6.5038    0.0000 O   0  0  0  0  0  0  0  0  0  0  0  0
    7.3779   -5.0850    0.0000 O   0  0  0  0  0  0  0  0  0  0  0  0
    7.3754   -7.9384    0.0000 O   0  0  0  0  0  0  0  0  0  0  0  0
  1  2  1  0  0  0  0
  2  3  1  0  0  0  0
  1  4  1  0  0  0  0
  4  5  1  0  0  0  0
  5  6  2  0  0  0  0
  6  7  1  0  0  0  0
  7  8  1  0  0  0  0
  8  9  1  0  0  0  0
  9 10  1  0  0  0  0
 10 11  1  0  0  0  0
 11 12  1  6  0  0  0
 11 13  1  0  0  0  0
 11 14  1  0  0  0  0
 14 15  1  6  0  0  0
 14 16  1  0  0  0  0
 16 17  1  0  0  0  0
 13 17  1  0  0  0  0
 17 18  1  0  0  0  0
 18 19  1  0  0  0  0
 19 20  1  0  0  0  0
 20 21  1  0  0  0  0
 16 22  1  6  0  0  0
 14 23  1  0  0  0  0
  9 23  1  0  0  0  0
 23 24  1  1  0  0  0
 23 25  1  0  0  0  0
 25 26  1  0  0  0  0
 26 27  1  0  0  0  0
  8 27  1  0  0  0  0
 27 28  1  0  0  0  0
  3 28  1  0  0  0  0
  5 28  1  0  0  0  0
 28 29  1  1  0  0  0
 27 30  1  6  0  0  0
  8 31  1  1  0  0  0
  9 32  1  6  0  0  0
  1 33  1  1  0  0  0
 21 34  1  0  0  0  0
 35 34  1  1  0  0  0
 35 36  1  0  0  0  0
 36 37  1  0  0  0  0
 37 38  1  0  0  0  0
 38 39  1  0  0  0  0
 39 40  1  0  0  0  0
 40 35  1  0  0  0  0
 37 41  1  1  0  0  0
 39 42  1  1  0  0  0
 40 43  1  6  0  0  0
 38 44  1  6  0  0  0
 41 45  1  0  0  0  0
 20 46  1  6  0  0  0
 17 47  1  6  0  0  0
  3 48  1  1  0  0  0
 49 48  1  1  0  0  0
 49 50  1  0  0  0  0
 50 51  1  0  0  0  0
 51 52  1  0  0  0  0
 52 53  1  0  0  0  0
 53 54  1  0  0  0  0
 54 49  1  0  0  0  0
 51 55  1  1  0  0  0
 54 56  1  6  0  0  0
 53 57  1  1  0  0  0
 52 58  1  1  0  0  0
 59 56  1  1  0  0  0
 59 60  1  0  0  0  0
 60 61  1  0  0  0  0
 61 62  1  0  0  0  0
 62 63  1  0  0  0  0
 63 64  1  0  0  0  0
 64 59  1  0  0  0  0
 65 57  1  1  0  0  0
 65 66  1  0  0  0  0
 66 67  1  0  0  0  0
 67 68  1  0  0  0  0
 68 69  1  0  0  0  0
 69 70  1  0  0  0  0
 70 65  1  0  0  0  0
 62 71  1  1  0  0  0
 63 72  1  6  0  0  0
 64 73  1  6  0  0  0
 61 74  1  6  0  0  0
 69 75  1  1  0  0  0
 68 76  1  6  0  0  0
 70 77  1  6  0  0  0
M  END
>  <cdx:fragmentId>
5

$$$$
