951155.cdx
  Mrv1902 05222410232D          

 78 87  0  0  0  0            999 V2000
   12.8878   -5.5819    0.0000 C   0  0  2  0  0  0  0  0  0  0  0  0
   12.8878   -6.4069    0.0000 C   0  0  1  0  0  0  0  0  0  0  0  0
   12.1733   -6.8194    0.0000 C   0  0  0  0  0  0  0  0  0  0  0  0
   11.4588   -6.4069    0.0000 C   0  0  1  0  0  0  0  0  0  0  0  0
   10.7444   -6.8194    0.0000 C   0  0  2  0  0  0  0  0  0  0  0  0
   10.7444   -7.6444    0.0000 C   0  0  0  0  0  0  0  0  0  0  0  0
   10.0299   -8.0569    0.0000 C   0  0  0  0  0  0  0  0  0  0  0  0
    9.3154   -7.6444    0.0000 C   0  0  1  0  0  0  0  0  0  0  0  0
    8.6009   -8.0569    0.0000 C   0  0  0  0  0  0  0  0  0  0  0  0
    7.8865   -7.6444    0.0000 C   0  0  2  0  0  0  0  0  0  0  0  0
    7.8865   -6.8194    0.0000 C   0  0  0  0  0  0  0  0  0  0  0  0
    8.6009   -6.4069    0.0000 C   0  0  0  0  0  0  0  0  0  0  0  0
    9.3154   -6.8194    0.0000 C   0  0  2  0  0  0  0  0  0  0  0  0
   10.0299   -6.4069    0.0000 C   0  0  1  0  0  0  0  0  0  0  0  0
   10.0299   -5.5819    0.0000 C   0  0  0  0  0  0  0  0  0  0  0  0
   10.7444   -5.1694    0.0000 C   0  0  0  0  0  0  0  0  0  0  0  0
   11.4588   -5.5819    0.0000 C   0  0  2  0  0  0  0  0  0  0  0  0
   12.1733   -5.1694    0.0000 C   0  0  2  0  0  0  0  0  0  0  0  0
   12.1733   -4.3444    0.0000 C   0  0  0  0  0  0  0  0  0  0  0  0
   12.8878   -3.9319    0.0000 C   0  0  2  0  0  0  0  0  0  0  0  0
   13.6022   -4.3444    0.0000 C   0  0  0  0  0  0  0  0  0  0  0  0
   13.6022   -5.1694    0.0000 C   0  0  0  0  0  0  0  0  0  0  0  0
   12.8878   -3.1069    0.0000 C   0  0  0  0  0  0  0  0  0  0  0  0
   12.1733   -2.6944    0.0000 O   0  0  0  0  0  0  0  0  0  0  0  0
   13.6022   -2.6944    0.0000 O   0  0  0  0  0  0  0  0  0  0  0  0
   13.6022   -3.5194    0.0000 C   0  0  0  0  0  0  0  0  0  0  0  0
    9.3154   -5.9944    0.0000 C   0  0  0  0  0  0  0  0  0  0  0  0
    9.0134   -8.7714    0.0000 C   0  0  0  0  0  0  0  0  0  0  0  0
    8.1884   -8.7714    0.0000 C   0  0  0  0  0  0  0  0  0  0  0  0
   10.7444   -5.9944    0.0000 C   0  0  0  0  0  0  0  0  0  0  0  0
   11.4588   -7.2319    0.0000 C   0  0  0  0  0  0  0  0  0  0  0  0
   13.6022   -6.8194    0.0000 O   0  0  0  0  0  0  0  0  0  0  0  0
    7.1720   -8.0569    0.0000 O   0  0  0  0  0  0  0  0  0  0  0  0
    5.7431   -8.0569    0.0000 O   0  0  0  0  0  0  0  0  0  0  0  0
    6.4575   -7.6444    0.0000 C   0  0  2  0  0  0  0  0  0  0  0  0
    6.4575   -6.8194    0.0000 C   0  0  1  0  0  0  0  0  0  0  0  0
    5.7431   -6.4069    0.0000 C   0  0  2  0  0  0  0  0  0  0  0  0
    5.0286   -6.8194    0.0000 C   0  0  2  0  0  0  0  0  0  0  0  0
    5.0286   -7.6444    0.0000 C   0  0  0  0  0  0  0  0  0  0  0  0
    7.1720   -6.4069    0.0000 O   0  0  0  0  0  0  0  0  0  0  0  0
    6.4575   -5.1694    0.0000 O   0  0  0  0  0  0  0  0  0  0  0  0
    7.1720   -5.5819    0.0000 C   0  0  2  0  0  0  0  0  0  0  0  0
    7.8865   -5.1694    0.0000 C   0  0  1  0  0  0  0  0  0  0  0  0
    7.8865   -4.3444    0.0000 C   0  0  2  0  0  0  0  0  0  0  0  0
    7.1720   -3.9319    0.0000 C   0  0  1  0  0  0  0  0  0  0  0  0
    6.4575   -4.3444    0.0000 C   0  0  1  0  0  0  0  0  0  0  0  0
    5.7431   -3.9319    0.0000 C   0  0  0  0  0  0  0  0  0  0  0  0
    5.0286   -4.3444    0.0000 O   0  0  0  0  0  0  0  0  0  0  0  0
    7.1720   -3.1069    0.0000 O   0  0  0  0  0  0  0  0  0  0  0  0
    8.6009   -3.9319    0.0000 O   0  0  0  0  0  0  0  0  0  0  0  0
    8.6009   -5.5819    0.0000 O   0  0  0  0  0  0  0  0  0  0  0  0
    5.7431   -5.5819    0.0000 O   0  0  0  0  0  0  0  0  0  0  0  0
    4.3141   -6.4069    0.0000 O   0  0  0  0  0  0  0  0  0  0  0  0
    2.8852   -6.4069    0.0000 O   0  0  0  0  0  0  0  0  0  0  0  0
    3.5996   -6.8194    0.0000 C   0  0  2  0  0  0  0  0  0  0  0  0
    3.5996   -7.6444    0.0000 C   0  0  1  0  0  0  0  0  0  0  0  0
    2.8852   -8.0569    0.0000 C   0  0  2  0  0  0  0  0  0  0  0  0
    2.1707   -7.6444    0.0000 C   0  0  1  0  0  0  0  0  0  0  0  0
    2.1707   -6.8194    0.0000 C   0  0  1  0  0  0  0  0  0  0  0  0
    4.3141   -8.0569    0.0000 O   0  0  0  0  0  0  0  0  0  0  0  0
    3.5996   -9.2944    0.0000 O   0  0  0  0  0  0  0  0  0  0  0  0
    4.3141   -8.8819    0.0000 C   0  0  2  0  0  0  0  0  0  0  0  0
    5.0286   -9.2944    0.0000 C   0  0  1  0  0  0  0  0  0  0  0  0
    5.0286  -10.1194    0.0000 C   0  0  2  0  0  0  0  0  0  0  0  0
    4.3141  -10.5319    0.0000 C   0  0  1  0  0  0  0  0  0  0  0  0
    3.5996  -10.1194    0.0000 C   0  0  0  0  0  0  0  0  0  0  0  0
    4.3141  -11.3569    0.0000 O   0  0  0  0  0  0  0  0  0  0  0  0
    5.7431  -10.5319    0.0000 O   0  0  0  0  0  0  0  0  0  0  0  0
    5.7431   -8.8819    0.0000 O   0  0  0  0  0  0  0  0  0  0  0  0
    1.4562   -6.4069    0.0000 C   0  0  0  0  0  0  0  0  0  0  0  0
    0.7418   -6.8194    0.0000 O   0  0  0  0  0  0  0  0  0  0  0  0
    1.4562   -8.0569    0.0000 O   0  0  0  0  0  0  0  0  0  0  0  0
    2.8852   -8.8819    0.0000 O   0  0  0  0  0  0  0  0  0  0  0  0
    9.3154   -8.4694    0.0000 H   0  0  0  0  0  0  0  0  0  0  0  0
   10.0299   -7.2319    0.0000 H   0  0  0  0  0  0  0  0  0  0  0  0
   12.1733   -5.9944    0.0000 H   0  0  0  0  0  0  0  0  0  0  0  0
   11.4588   -4.7569    0.0000 O   0  0  0  0  0  0  0  0  0  0  0  0
   12.8878   -4.7569    0.0000 C   0  0  0  0  0  0  0  0  0  0  0  0
  1  2  1  0  0  0  0
  2  3  1  0  0  0  0
  3  4  1  0  0  0  0
  4  5  1  0  0  0  0
  5  6  1  0  0  0  0
  6  7  1  0  0  0  0
  7  8  1  0  0  0  0
  8  9  1  0  0  0  0
  9 10  1  0  0  0  0
 10 11  1  0  0  0  0
 11 12  1  0  0  0  0
 12 13  1  0  0  0  0
 13 14  1  0  0  0  0
 14 15  1  0  0  0  0
 15 16  1  0  0  0  0
 16 17  1  0  0  0  0
 17 18  1  0  0  0  0
 18 19  1  0  0  0  0
 19 20  1  0  0  0  0
 20 21  1  0  0  0  0
 21 22  1  0  0  0  0
  1 22  1  0  0  0  0
  1 18  1  0  0  0  0
  4 17  1  0  0  0  0
  5 14  1  0  0  0  0
  8 13  1  0  0  0  0
 23 24  2  0  0  0  0
 23 25  1  0  0  0  0
 20 23  1  0  0  0  0
 20 26  1  6  0  0  0
 13 27  1  1  0  0  0
  9 28  1  0  0  0  0
  9 29  1  0  0  0  0
  5 30  1  1  0  0  0
  4 31  1  6  0  0  0
  2 32  1  6  0  0  0
 34 35  1  0  0  0  0
 35 36  1  0  0  0  0
 36 37  1  0  0  0  0
 37 38  1  0  0  0  0
 38 39  1  0  0  0  0
 34 39  1  0  0  0  0
 41 42  1  0  0  0  0
 42 43  1  0  0  0  0
 43 44  1  0  0  0  0
 44 45  1  0  0  0  0
 45 46  1  0  0  0  0
 41 46  1  0  0  0  0
 47 48  1  0  0  0  0
 46 47  1  6  0  0  0
 45 49  1  1  0  0  0
 44 50  1  6  0  0  0
 43 51  1  1  0  0  0
 42 40  1  6  0  0  0
 36 40  1  1  0  0  0
 37 52  1  6  0  0  0
 54 55  1  0  0  0  0
 55 56  1  0  0  0  0
 56 57  1  0  0  0  0
 57 58  1  0  0  0  0
 58 59  1  0  0  0  0
 54 59  1  0  0  0  0
 61 62  1  0  0  0  0
 62 63  1  0  0  0  0
 63 64  1  0  0  0  0
 64 65  1  0  0  0  0
 65 66  1  0  0  0  0
 61 66  1  0  0  0  0
 65 67  1  6  0  0  0
 64 68  1  1  0  0  0
 63 69  1  6  0  0  0
 62 60  1  1  0  0  0
 56 60  1  6  0  0  0
 70 71  1  0  0  0  0
 59 70  1  1  0  0  0
 58 72  1  6  0  0  0
 57 73  1  1  0  0  0
 55 53  1  1  0  0  0
 38 53  1  6  0  0  0
 35 33  1  6  0  0  0
 10 33  1  1  0  0  0
  8 74  1  6  0  0  0
 14 75  1  6  0  0  0
 18 76  1  1  0  0  0
 17 77  1  1  0  0  0
  1 78  1  1  0  0  0
 78 77  1  0  0  0  0
M  END
>  <cdx:fragmentId>
192008

$$$$
