95118.cdx
  Mrv1902 05222410242D          

 44 48  0  0  0  0            999 V2000
    4.4806   -5.6512    0.0000 C   0  0  0  0  0  0  0  0  0  0  0  0
    4.4806   -6.4763    0.0000 C   0  0  0  0  0  0  0  0  0  0  0  0
    5.1950   -6.8888    0.0000 C   0  0  0  0  0  0  0  0  0  0  0  0
    5.9095   -6.4763    0.0000 C   0  0  0  0  0  0  0  0  0  0  0  0
    5.9095   -5.6512    0.0000 C   0  0  0  0  0  0  0  0  0  0  0  0
    5.1950   -5.2387    0.0000 C   0  0  0  0  0  0  0  0  0  0  0  0
    3.7661   -5.2387    0.0000 O   0  0  0  0  0  0  0  0  0  0  0  0
    5.1950   -7.7138    0.0000 O   0  0  0  0  0  0  0  0  0  0  0  0
    6.6240   -6.8888    0.0000 C   0  0  0  0  0  0  0  0  0  0  0  0
    7.3384   -6.4763    0.0000 C   0  0  0  0  0  0  0  0  0  0  0  0
    7.3384   -5.6512    0.0000 C   0  0  0  0  0  0  0  0  0  0  0  0
    6.6240   -5.2387    0.0000 O   0  0  0  0  0  0  0  0  0  0  0  0
    8.0529   -6.8888    0.0000 O   0  0  0  0  0  0  0  0  0  0  0  0
    8.7674   -5.6512    0.0000 C   0  0  0  0  0  0  0  0  0  0  0  0
    8.0529   -5.2387    0.0000 C   0  0  0  0  0  0  0  0  0  0  0  0
    9.4819   -5.2387    0.0000 C   0  0  0  0  0  0  0  0  0  0  0  0
    9.4819   -4.4138    0.0000 C   0  0  0  0  0  0  0  0  0  0  0  0
    8.7674   -4.0012    0.0000 C   0  0  0  0  0  0  0  0  0  0  0  0
    8.0529   -4.4138    0.0000 C   0  0  0  0  0  0  0  0  0  0  0  0
    6.6240   -7.7138    0.0000 O   0  0  0  0  0  0  0  0  0  0  0  0
    8.7674   -3.1763    0.0000 O   0  0  0  0  0  0  0  0  0  0  0  0
   10.1963   -4.0012    0.0000 O   0  0  0  0  0  0  0  0  0  0  0  0
    8.0529   -7.7138    0.0000 C   0  0  1  0  0  0  0  0  0  0  0  0
    7.3384   -8.1263    0.0000 O   0  0  0  0  0  0  0  0  0  0  0  0
    7.3384   -8.9513    0.0000 C   0  0  2  0  0  0  0  0  0  0  0  0
    8.0529   -9.3637    0.0000 C   0  0  1  0  0  0  0  0  0  0  0  0
    8.7674   -8.9513    0.0000 C   0  0  2  0  0  0  0  0  0  0  0  0
    8.7674   -8.1263    0.0000 C   0  0  2  0  0  0  0  0  0  0  0  0
    6.6240   -9.3637    0.0000 C   0  0  0  0  0  0  0  0  0  0  0  0
    9.4819   -9.3637    0.0000 O   0  0  0  0  0  0  0  0  0  0  0  0
    8.0529  -10.1888    0.0000 O   0  0  0  0  0  0  0  0  0  0  0  0
    9.4819   -7.7138    0.0000 O   0  0  0  0  0  0  0  0  0  0  0  0
    6.6240  -10.1888    0.0000 O   0  0  0  0  0  0  0  0  0  0  0  0
    4.4643  -13.0691    0.0000 O   0  0  0  0  0  0  0  0  0  0  0  0
    5.8900  -13.8998    0.0000 O   0  0  0  0  0  0  0  0  0  0  0  0
    7.3222  -13.0806    0.0000 O   0  0  0  0  0  0  0  0  0  0  0  0
    5.1838  -11.8345    0.0000 C   0  0  0  0  0  0  0  0  0  0  0  0
    5.1805  -12.6595    0.0000 C   0  0  0  0  0  0  0  0  0  0  0  0
    5.8933  -13.0748    0.0000 C   0  0  0  0  0  0  0  0  0  0  0  0
    6.6094  -12.6652    0.0000 C   0  0  0  0  0  0  0  0  0  0  0  0
    6.6127  -11.8402    0.0000 C   0  0  0  0  0  0  0  0  0  0  0  0
    5.8999  -11.4248    0.0000 C   0  0  0  0  0  0  0  0  0  0  0  0
    5.1904  -10.1845    0.0000 O   0  0  0  0  0  0  0  0  0  0  0  0
    5.9032  -10.5999    0.0000 C   0  0  0  0  0  0  0  0  0  0  0  0
  1  2  2  0  0  0  0
  2  3  1  0  0  0  0
  3  4  2  0  0  0  0
  4  5  1  0  0  0  0
  5  6  2  0  0  0  0
  6  1  1  0  0  0  0
  1  7  1  0  0  0  0
  3  8  1  0  0  0  0
  4  9  1  0  0  0  0
  9 10  1  0  0  0  0
 10 11  2  0  0  0  0
 11 12  1  0  0  0  0
 12  5  1  0  0  0  0
 10 13  1  0  0  0  0
 14 15  2  0  0  0  0
 15 11  1  0  0  0  0
 14 16  1  0  0  0  0
 16 17  2  0  0  0  0
 17 18  1  0  0  0  0
 18 19  2  0  0  0  0
 19 15  1  0  0  0  0
  9 20  2  0  0  0  0
 18 21  1  0  0  0  0
 17 22  1  0  0  0  0
 23 13  1  6  0  0  0
 23 24  1  0  0  0  0
 24 25  1  0  0  0  0
 25 26  1  0  0  0  0
 26 27  1  0  0  0  0
 27 28  1  0  0  0  0
 28 23  1  0  0  0  0
 25 29  1  6  0  0  0
 27 30  1  6  0  0  0
 26 31  1  1  0  0  0
 28 32  1  1  0  0  0
 29 33  1  0  0  0  0
 38 34  1  0  0  0  0
 39 35  1  0  0  0  0
 40 36  1  0  0  0  0
 37 42  1  0  0  0  0
 38 37  2  0  0  0  0
 39 38  1  0  0  0  0
 40 39  2  0  0  0  0
 41 40  1  0  0  0  0
 42 41  2  0  0  0  0
 44 42  1  0  0  0  0
 44 43  2  0  0  0  0
 44 33  1  0  0  0  0
M  END
>  <cdx:fragmentId>
5

$$$$
