95113.cdx
  Mrv1902 05222410202D          

 39 43  0  0  0  0            999 V2000
    4.3378  -10.0928    0.0000 C   0  0  0  0  0  0  0  0  0  0  0  0
    4.3378   -9.2678    0.0000 C   0  0  1  0  0  0  0  0  0  0  0  0
    5.0522   -8.8553    0.0000 C   0  0  2  0  0  0  0  0  0  0  0  0
    5.0522  -10.5053    0.0000 C   0  0  2  0  0  0  0  0  0  0  0  0
    5.4647  -11.2197    0.0000 C   0  0  0  0  0  0  0  0  0  0  0  0
    4.6397  -11.2197    0.0000 C   0  0  0  0  0  0  0  0  0  0  0  0
    5.7667  -10.0928    0.0000 C   0  0  2  0  0  0  0  0  0  0  0  0
    5.7667  -10.9178    0.0000 H   0  0  0  0  0  0  0  0  0  0  0  0
    6.4812  -10.5053    0.0000 C   0  0  0  0  0  0  0  0  0  0  0  0
    7.1956  -10.0928    0.0000 C   0  0  0  0  0  0  0  0  0  0  0  0
    7.1956   -9.2678    0.0000 C   0  0  1  0  0  0  0  0  0  0  0  0
    7.1956   -8.4428    0.0000 C   0  0  0  0  0  0  0  0  0  0  0  0
    7.9101   -8.8553    0.0000 C   0  0  2  0  0  0  0  0  0  0  0  0
    7.9101   -9.6803    0.0000 C   0  0  0  0  0  0  0  0  0  0  0  0
    8.6246   -9.2678    0.0000 C   0  0  0  0  0  0  0  0  0  0  0  0
    9.3391   -8.8553    0.0000 C   0  0  0  0  0  0  0  0  0  0  0  0
    9.3391   -8.0303    0.0000 C   0  0  1  0  0  0  0  0  0  0  0  0
   10.0535   -8.4428    0.0000 C   0  0  0  0  0  0  0  0  0  0  0  0
   10.0535   -7.6178    0.0000 C   0  0  0  0  0  0  0  0  0  0  0  0
   10.0535   -6.7928    0.0000 C   0  0  0  0  0  0  0  0  0  0  0  0
    9.3391   -6.3803    0.0000 C   0  0  1  0  0  0  0  0  0  0  0  0
    9.3391   -5.5553    0.0000 C   0  0  0  0  0  0  0  0  0  0  0  0
    8.6246   -6.7928    0.0000 C   0  0  2  0  0  0  0  0  0  0  0  0
    8.2121   -6.0783    0.0000 C   0  0  0  0  0  0  0  0  0  0  0  0
    8.6246   -7.6178    0.0000 C   0  0  1  0  0  0  0  0  0  0  0  0
    8.6246   -8.4428    0.0000 H   0  0  0  0  0  0  0  0  0  0  0  0
    7.9101   -8.0303    0.0000 C   0  0  0  0  0  0  0  0  0  0  0  0
    7.1956   -7.6178    0.0000 C   0  0  0  0  0  0  0  0  0  0  0  0
    6.4812   -8.0303    0.0000 C   0  0  0  0  0  0  0  0  0  0  0  0
    6.4812   -8.8553    0.0000 C   0  0  2  0  0  0  0  0  0  0  0  0
    5.7667   -9.2678    0.0000 C   0  0  1  0  0  0  0  0  0  0  0  0
    5.7667   -8.4428    0.0000 C   0  0  0  0  0  0  0  0  0  0  0  0
   10.0535   -9.2678    0.0000 O   0  0  0  0  0  0  0  0  0  0  0  0
   10.7680   -8.0303    0.0000 O   0  0  0  0  0  0  0  0  0  0  0  0
    3.6233  -10.5053    0.0000 O   0  0  0  0  0  0  0  0  0  0  0  0
    7.7996   -6.7928    0.0000 O   0  0  0  0  0  0  0  0  0  0  0  0
    3.6233   -8.8553    0.0000 O   0  0  0  0  0  0  0  0  0  0  0  0
    5.0522   -8.0303    0.0000 O   0  0  0  0  0  0  0  0  0  0  0  0
    6.4812   -9.6803    0.0000 H   0  0  0  0  0  0  0  0  0  0  0  0
  1  2  1  0  0  0  0
  2  3  1  0  0  0  0
  1  4  1  0  0  0  0
  4  5  1  6  0  0  0
  4  6  1  1  0  0  0
  4  7  1  0  0  0  0
  7  8  1  6  0  0  0
  7  9  1  0  0  0  0
  9 10  1  0  0  0  0
 10 11  1  0  0  0  0
 11 12  1  1  0  0  0
 11 13  1  0  0  0  0
 13 14  1  6  0  0  0
 13 15  1  0  0  0  0
 15 16  1  0  0  0  0
 16 17  1  0  0  0  0
 17 18  1  1  0  0  0
 17 19  1  0  0  0  0
 19 20  1  0  0  0  0
 20 21  1  0  0  0  0
 21 22  1  6  0  0  0
 21 23  1  0  0  0  0
 23 24  1  1  0  0  0
 23 25  1  0  0  0  0
 25 26  1  1  0  0  0
 17 25  1  0  0  0  0
 25 27  1  0  0  0  0
 13 27  1  0  0  0  0
 27 28  2  0  0  0  0
 28 29  1  0  0  0  0
 29 30  1  0  0  0  0
 11 30  1  0  0  0  0
 30 31  1  0  0  0  0
  3 31  1  0  0  0  0
  7 31  1  0  0  0  0
 31 32  1  1  0  0  0
 18 33  2  0  0  0  0
 18 34  1  0  0  0  0
  1 35  2  0  0  0  0
 23 36  1  6  0  0  0
  2 37  1  6  0  0  0
  3 38  1  1  0  0  0
 30 39  1  6  0  0  0
M  END
>  <cdx:groupId>
123

>  <cdx:fragmentId>
5

$$$$
