95116.cdx
  Mrv1902 05222410222D          

 12 11  0  0  0  0            999 V2000
    4.5680   -3.0808    0.0000 S   0  0  0  0  0  0  0  0  0  0  0  0
    5.2825   -3.4933    0.0000 S   0  0  0  0  0  0  0  0  0  0  0  0
    2.4246   -3.4933    0.0000 C   0  0  0  0  0  0  0  0  0  0  0  0
    3.1391   -3.0808    0.0000 C   0  0  0  0  0  0  0  0  0  0  0  0
    3.8535   -3.4933    0.0000 C   0  0  0  0  0  0  0  0  0  0  0  0
    2.4246   -4.3183    0.0000 O   0  0  0  0  0  0  0  0  0  0  0  0
    1.7101   -3.0808    0.0000 O   0  0  0  0  0  0  0  0  0  0  0  0
    7.4259   -3.0808    0.0000 C   0  0  0  0  0  0  0  0  0  0  0  0
    6.7114   -3.4933    0.0000 C   0  0  0  0  0  0  0  0  0  0  0  0
    5.9970   -3.0808    0.0000 C   0  0  0  0  0  0  0  0  0  0  0  0
    7.4259   -2.2558    0.0000 O   0  0  0  0  0  0  0  0  0  0  0  0
    8.1404   -3.4933    0.0000 O   0  0  0  0  0  0  0  0  0  0  0  0
  1  2  1  0  0  0  0
  3  4  1  0  0  0  0
  4  5  1  0  0  0  0
  3  6  2  0  0  0  0
  3  7  1  0  0  0  0
  1  5  1  0  0  0  0
  8  9  1  0  0  0  0
  9 10  1  0  0  0  0
  8 11  2  0  0  0  0
  8 12  1  0  0  0  0
  2 10  1  0  0  0  0
M  END
>  <cdx:groupId>
37

>  <cdx:fragmentId>
9

$$$$
