95110.cdx
  Mrv1902 05222410212D          

 45 49  0  0  0  0            999 V2000
    3.7656   -7.2325    0.0000 C   0  0  0  0  0  0  0  0  0  0  0  0
    3.7656   -8.0575    0.0000 C   0  0  0  0  0  0  0  0  0  0  0  0
    4.4800   -8.4700    0.0000 C   0  0  0  0  0  0  0  0  0  0  0  0
    5.1945   -8.0575    0.0000 C   0  0  0  0  0  0  0  0  0  0  0  0
    5.1945   -7.2325    0.0000 C   0  0  0  0  0  0  0  0  0  0  0  0
    4.4800   -6.8200    0.0000 C   0  0  0  0  0  0  0  0  0  0  0  0
    3.0511   -6.8200    0.0000 O   0  0  0  0  0  0  0  0  0  0  0  0
    2.3366   -7.2325    0.0000 C   0  0  0  0  0  0  0  0  0  0  0  0
    5.9090   -8.4700    0.0000 C   0  0  0  0  0  0  0  0  0  0  0  0
    6.6234   -8.0575    0.0000 C   0  0  1  0  0  0  0  0  0  0  0  0
    6.6234   -7.2325    0.0000 C   0  0  0  0  0  0  0  0  0  0  0  0
    7.3379   -6.8200    0.0000 C   0  0  0  0  0  0  0  0  0  0  0  0
    8.0524   -7.2325    0.0000 C   0  0  0  0  0  0  0  0  0  0  0  0
    8.7669   -6.8200    0.0000 C   0  0  0  0  0  0  0  0  0  0  0  0
    8.7669   -5.9950    0.0000 C   0  0  0  0  0  0  0  0  0  0  0  0
    8.0524   -5.5825    0.0000 C   0  0  0  0  0  0  0  0  0  0  0  0
    7.3379   -5.9950    0.0000 C   0  0  0  0  0  0  0  0  0  0  0  0
    9.4813   -5.5825    0.0000 O   0  0  0  0  0  0  0  0  0  0  0  0
   10.2022   -5.9838    0.0000 C   0  0  2  0  0  0  0  0  0  0  0  0
   10.2151   -6.8087    0.0000 O   0  0  0  0  0  0  0  0  0  0  0  0
   10.9359   -7.2100    0.0000 C   0  0  1  0  0  0  0  0  0  0  0  0
   11.6438   -6.7863    0.0000 C   0  0  2  0  0  0  0  0  0  0  0  0
   11.6309   -5.9614    0.0000 C   0  0  1  0  0  0  0  0  0  0  0  0
   10.9101   -5.5602    0.0000 C   0  0  1  0  0  0  0  0  0  0  0  0
   12.3389   -5.5378    0.0000 O   0  0  0  0  0  0  0  0  0  0  0  0
   10.9488   -8.0349    0.0000 C   0  0  0  0  0  0  0  0  0  0  0  0
   10.8972   -4.7353    0.0000 O   0  0  0  0  0  0  0  0  0  0  0  0
   12.3647   -7.1876    0.0000 O   0  0  0  0  0  0  0  0  0  0  0  0
   11.6696   -8.4361    0.0000 O   0  0  0  0  0  0  0  0  0  0  0  0
    6.0805   -9.2770    0.0000 C   0  0  0  0  0  0  0  0  0  0  0  0
    6.9010   -9.3632    0.0000 C   0  0  0  0  0  0  0  0  0  0  0  0
    7.2365   -8.6095    0.0000 O   0  0  0  0  0  0  0  0  0  0  0  0
    4.4800   -9.2950    0.0000 O   0  0  0  0  0  0  0  0  0  0  0  0
    3.7755   -9.7243    0.0000 C   0  0  2  0  0  0  0  0  0  0  0  0
    3.0515   -9.3288    0.0000 O   0  0  0  0  0  0  0  0  0  0  0  0
    2.3470   -9.7580    0.0000 C   0  0  1  0  0  0  0  0  0  0  0  0
    2.3664  -10.5828    0.0000 C   0  0  2  0  0  0  0  0  0  0  0  0
    3.0905  -10.9783    0.0000 C   0  0  1  0  0  0  0  0  0  0  0  0
    3.7950  -10.5490    0.0000 C   0  0  1  0  0  0  0  0  0  0  0  0
    1.6229   -9.3625    0.0000 C   0  0  0  0  0  0  0  0  0  0  0  0
    3.1099  -11.8031    0.0000 O   0  0  0  0  0  0  0  0  0  0  0  0
    4.5190  -10.9445    0.0000 O   0  0  0  0  0  0  0  0  0  0  0  0
    1.6619  -11.0121    0.0000 O   0  0  0  0  0  0  0  0  0  0  0  0
    0.9184   -9.7918    0.0000 O   0  0  0  0  0  0  0  0  0  0  0  0
    7.3135  -10.0777    0.0000 O   0  0  0  0  0  0  0  0  0  0  0  0
  1  2  2  0  0  0  0
  2  3  1  0  0  0  0
  3  4  2  0  0  0  0
  4  5  1  0  0  0  0
  5  6  2  0  0  0  0
  6  1  1  0  0  0  0
  1  7  1  0  0  0  0
  7  8  1  0  0  0  0
  4  9  1  0  0  0  0
  9 10  1  0  0  0  0
 10 11  1  1  0  0  0
 11 12  1  0  0  0  0
 12 13  2  0  0  0  0
 13 14  1  0  0  0  0
 14 15  2  0  0  0  0
 15 16  1  0  0  0  0
 16 17  2  0  0  0  0
 17 12  1  0  0  0  0
 15 18  1  0  0  0  0
 19 18  1  1  0  0  0
 19 20  1  0  0  0  0
 20 21  1  0  0  0  0
 21 22  1  0  0  0  0
 22 23  1  0  0  0  0
 23 24  1  0  0  0  0
 24 19  1  0  0  0  0
 23 25  1  1  0  0  0
 21 26  1  1  0  0  0
 24 27  1  6  0  0  0
 22 28  1  6  0  0  0
 26 29  1  0  0  0  0
  9 30  2  0  0  0  0
 30 31  1  0  0  0  0
 31 32  1  0  0  0  0
 32 10  1  0  0  0  0
  3 33  1  0  0  0  0
 34 33  1  1  0  0  0
 34 35  1  0  0  0  0
 35 36  1  0  0  0  0
 36 37  1  0  0  0  0
 37 38  1  0  0  0  0
 38 39  1  0  0  0  0
 39 34  1  0  0  0  0
 36 40  1  1  0  0  0
 38 41  1  1  0  0  0
 39 42  1  6  0  0  0
 37 43  1  6  0  0  0
 40 44  1  0  0  0  0
 31 45  2  0  0  0  0
M  END
>  <cdx:fragmentId>
5

$$$$
