95111.cdx
  Mrv1902 05222410212D          

 43 47  0  0  0  0            999 V2000
    3.2533   -6.2187    0.0000 C   0  0  1  0  0  0  0  0  0  0  0  0
    2.5385   -6.6306    0.0000 C   0  0  1  0  0  0  0  0  0  0  0  0
    2.5378   -7.4556    0.0000 C   0  0  2  0  0  0  0  0  0  0  0  0
    3.2519   -7.8687    0.0000 C   0  0  2  0  0  0  0  0  0  0  0  0
    3.9667   -7.4569    0.0000 C   0  0  1  0  0  0  0  0  0  0  0  0
    3.9675   -6.6319    0.0000 O   0  0  0  0  0  0  0  0  0  0  0  0
    5.4010   -7.4675    0.0000 C   0  0  0  0  0  0  0  0  0  0  0  0
    3.2512   -8.6937    0.0000 O   0  0  0  0  0  0  0  0  0  0  0  0
    4.6809   -7.8700    0.0000 O   0  0  0  0  0  0  0  0  0  0  0  0
    6.1097   -7.8900    0.0000 C   0  0  1  0  0  0  0  0  0  0  0  0
    6.8298   -7.4875    0.0000 O   0  0  0  0  0  0  0  0  0  0  0  0
    6.0981   -8.7149    0.0000 C   0  0  2  0  0  0  0  0  0  0  0  0
    6.8067   -9.1373    0.0000 C   0  0  1  0  0  0  0  0  0  0  0  0
    7.5269   -8.7349    0.0000 C   0  0  2  0  0  0  0  0  0  0  0  0
    7.5385   -7.9100    0.0000 C   0  0  2  0  0  0  0  0  0  0  0  0
    8.2355   -9.1573    0.0000 O   0  0  0  0  0  0  0  0  0  0  0  0
    8.2586   -7.5075    0.0000 O   0  0  0  0  0  0  0  0  0  0  0  0
    8.2586   -6.6825    0.0000 C   0  0  0  0  0  0  0  0  0  0  0  0
    8.9731   -6.2700    0.0000 C   0  0  0  0  0  0  0  0  0  0  0  0
    8.9731   -5.4450    0.0000 C   0  0  0  0  0  0  0  0  0  0  0  0
    8.2586   -5.0325    0.0000 C   0  0  0  0  0  0  0  0  0  0  0  0
    7.5442   -5.4450    0.0000 C   0  0  0  0  0  0  0  0  0  0  0  0
    7.5442   -6.2700    0.0000 C   0  0  0  0  0  0  0  0  0  0  0  0
    6.8297   -5.0325    0.0000 O   0  0  0  0  0  0  0  0  0  0  0  0
    9.6876   -6.6825    0.0000 C   0  0  0  0  0  0  0  0  0  0  0  0
   10.4020   -6.2700    0.0000 C   0  0  2  0  0  0  0  0  0  0  0  0
    9.8591   -7.4895    0.0000 C   0  0  0  0  0  0  0  0  0  0  0  0
   10.6796   -7.5757    0.0000 C   0  0  0  0  0  0  0  0  0  0  0  0
   11.0151   -6.8220    0.0000 O   0  0  0  0  0  0  0  0  0  0  0  0
   11.0921   -8.2902    0.0000 O   0  0  0  0  0  0  0  0  0  0  0  0
   10.4883   -5.4495    0.0000 C   0  0  0  0  0  0  0  0  0  0  0  0
   11.2027   -5.0370    0.0000 C   0  0  0  0  0  0  0  0  0  0  0  0
   11.9172   -5.4495    0.0000 C   0  0  0  0  0  0  0  0  0  0  0  0
   12.6317   -5.0370    0.0000 C   0  0  0  0  0  0  0  0  0  0  0  0
   12.6317   -4.2120    0.0000 C   0  0  0  0  0  0  0  0  0  0  0  0
   11.9172   -3.7995    0.0000 C   0  0  0  0  0  0  0  0  0  0  0  0
   11.2027   -4.2120    0.0000 C   0  0  0  0  0  0  0  0  0  0  0  0
   13.3462   -3.7995    0.0000 O   0  0  0  0  0  0  0  0  0  0  0  0
    1.8244   -6.2175    0.0000 O   0  0  0  0  0  0  0  0  0  0  0  0
    6.7952   -9.9623    0.0000 O   0  0  0  0  0  0  0  0  0  0  0  0
    3.2541   -5.3937    0.0000 C   0  0  0  0  0  0  0  0  0  0  0  0
    1.8230   -7.8675    0.0000 O   0  0  0  0  0  0  0  0  0  0  0  0
    5.3779   -9.1174    0.0000 O   0  0  0  0  0  0  0  0  0  0  0  0
  1  2  1  0  0  0  0
  7  9  1  0  0  0  0
  2  3  1  0  0  0  0
  3  4  1  0  0  0  0
  4  5  1  0  0  0  0
  5  6  1  0  0  0  0
  6  1  1  0  0  0  0
  4  8  1  6  0  0  0
  5  9  1  1  0  0  0
 10  7  1  1  0  0  0
 10 11  1  0  0  0  0
 10 12  1  0  0  0  0
 12 13  1  0  0  0  0
 13 14  1  0  0  0  0
 14 15  1  0  0  0  0
 15 11  1  0  0  0  0
 14 16  1  6  0  0  0
 15 17  1  1  0  0  0
 17 18  1  0  0  0  0
 18 19  2  0  0  0  0
 19 20  1  0  0  0  0
 20 21  2  0  0  0  0
 21 22  1  0  0  0  0
 22 23  2  0  0  0  0
 23 18  1  0  0  0  0
 22 24  1  0  0  0  0
 19 25  1  0  0  0  0
 25 26  1  0  0  0  0
 25 27  2  0  0  0  0
 27 28  1  0  0  0  0
 28 29  1  0  0  0  0
 29 26  1  0  0  0  0
 28 30  2  0  0  0  0
 26 31  1  1  0  0  0
 31 32  1  0  0  0  0
 32 33  2  0  0  0  0
 33 34  1  0  0  0  0
 34 35  2  0  0  0  0
 35 36  1  0  0  0  0
 36 37  2  0  0  0  0
 37 32  1  0  0  0  0
 35 38  1  0  0  0  0
  2 39  1  1  0  0  0
 13 40  1  1  0  0  0
  1 41  1  6  0  0  0
  3 42  1  6  0  0  0
 12 43  1  6  0  0  0
M  END
>  <cdx:fragmentId>
5

$$$$
