95128.cdx
  Mrv1902 05222410222D          

 38 41  0  0  0  0            999 V2000
   13.4742   -5.6666    0.0000 O   0  0  0  0  0  0  0  0  0  0  0  0
   14.1887   -6.9041    0.0000 C   0  0  0  0  0  0  0  0  0  0  0  0
   13.4742   -7.3166    0.0000 O   0  0  0  0  0  0  0  0  0  0  0  0
   11.3308   -6.9041    0.0000 C   0  0  0  0  0  0  0  0  0  0  0  0
   12.0453   -7.3166    0.0000 C   0  0  0  0  0  0  0  0  0  0  0  0
   12.7597   -6.9041    0.0000 C   0  0  0  0  0  0  0  0  0  0  0  0
   12.7597   -6.0791    0.0000 C   0  0  0  0  0  0  0  0  0  0  0  0
   12.0453   -5.6666    0.0000 C   0  0  0  0  0  0  0  0  0  0  0  0
   11.3308   -6.0791    0.0000 C   0  0  0  0  0  0  0  0  0  0  0  0
    7.0440   -6.0791    0.0000 O   0  0  0  0  0  0  0  0  0  0  0  0
    5.6150   -6.9041    0.0000 O   0  0  0  0  0  0  0  0  0  0  0  0
    4.1861   -6.0791    0.0000 O   0  0  0  0  0  0  0  0  0  0  0  0
    3.4716   -4.8416    0.0000 O   0  0  0  0  0  0  0  0  0  0  0  0
    4.1861   -4.4291    0.0000 C   0  0  0  0  0  0  0  0  0  0  0  0
    4.9005   -4.8416    0.0000 C   0  0  2  0  0  0  0  0  0  0  0  0
    4.9005   -5.6666    0.0000 C   0  0  2  0  0  0  0  0  0  0  0  0
    5.6150   -6.0791    0.0000 C   0  0  1  0  0  0  0  0  0  0  0  0
    6.3295   -5.6666    0.0000 C   0  0  2  0  0  0  0  0  0  0  0  0
    6.3295   -4.8416    0.0000 C   0  0  1  0  0  0  0  0  0  0  0  0
    5.6150   -4.4291    0.0000 O   0  0  0  0  0  0  0  0  0  0  0  0
    7.0440   -4.4291    0.0000 O   0  0  0  0  0  0  0  0  0  0  0  0
    9.9018   -6.9041    0.0000 O   0  0  0  0  0  0  0  0  0  0  0  0
    9.9018   -4.4291    0.0000 O   0  0  0  0  0  0  0  0  0  0  0  0
    9.1874   -4.8416    0.0000 C   0  0  0  0  0  0  0  0  0  0  0  0
    8.4729   -4.4291    0.0000 C   0  0  0  0  0  0  0  0  0  0  0  0
    7.7584   -4.8416    0.0000 C   0  0  0  0  0  0  0  0  0  0  0  0
    7.7584   -5.6666    0.0000 C   0  0  0  0  0  0  0  0  0  0  0  0
    8.4729   -6.0791    0.0000 C   0  0  0  0  0  0  0  0  0  0  0  0
    9.1874   -5.6666    0.0000 C   0  0  0  0  0  0  0  0  0  0  0  0
    9.9018   -6.0791    0.0000 C   0  0  0  0  0  0  0  0  0  0  0  0
   10.6163   -5.6666    0.0000 C   0  0  0  0  0  0  0  0  0  0  0  0
   10.6163   -4.8416    0.0000 C   0  0  0  0  0  0  0  0  0  0  0  0
    2.7571   -4.4291    0.0000 C   0  0  0  0  0  0  0  0  0  0  0  0
    2.0427   -4.8416    0.0000 C   0  0  0  0  0  0  0  0  0  0  0  0
    1.3282   -4.4291    0.0000 C   0  0  0  0  0  0  0  0  0  0  0  0
    0.6137   -4.8416    0.0000 O   0  0  0  0  0  0  0  0  0  0  0  0
    1.3282   -3.6041    0.0000 O   0  0  0  0  0  0  0  0  0  0  0  0
    2.7571   -3.6041    0.0000 O   0  0  0  0  0  0  0  0  0  0  0  0
 31  9  1  0  0  0  0
  7  1  1  0  0  0  0
  6  3  1  0  0  0  0
  3  2  1  0  0  0  0
  9  4  2  0  0  0  0
  5  4  1  0  0  0  0
  6  5  2  0  0  0  0
  7  6  1  0  0  0  0
  8  7  2  0  0  0  0
  9  8  1  0  0  0  0
 26 21  1  0  0  0  0
 19 21  1  1  0  0  0
 18 10  1  6  0  0  0
 17 11  1  1  0  0  0
 16 12  1  6  0  0  0
 15 14  1  1  0  0  0
 14 13  1  0  0  0  0
 20 15  1  0  0  0  0
 16 15  1  0  0  0  0
 17 16  1  0  0  0  0
 18 17  1  0  0  0  0
 19 18  1  0  0  0  0
 20 19  1  0  0  0  0
 30 22  2  0  0  0  0
 32 23  1  0  0  0  0
 24 23  1  0  0  0  0
 29 24  2  0  0  0  0
 25 24  1  0  0  0  0
 26 25  2  0  0  0  0
 27 26  1  0  0  0  0
 28 27  2  0  0  0  0
 29 28  1  0  0  0  0
 30 29  1  0  0  0  0
 31 30  1  0  0  0  0
 32 31  2  0  0  0  0
 13 33  1  0  0  0  0
 33 34  1  0  0  0  0
 34 35  1  0  0  0  0
 35 36  1  0  0  0  0
 35 37  2  0  0  0  0
 33 38  2  0  0  0  0
M  END
>  <cdx:fragmentId>
29

$$$$
