95127.cdx
  Mrv1902 05222410242D          

 36 39  0  0  0  0            999 V2000
    4.1300   -6.9729    0.0000 O   0  0  0  0  0  0  0  0  0  0  0  0
    4.8445   -7.3854    0.0000 C   0  0  2  0  0  0  0  0  0  0  0  0
    4.8445   -8.2104    0.0000 C   0  0  1  0  0  0  0  0  0  0  0  0
    4.1300   -8.6229    0.0000 C   0  0  2  0  0  0  0  0  0  0  0  0
    3.4155   -8.2104    0.0000 C   0  0  1  0  0  0  0  0  0  0  0  0
    3.4155   -7.3854    0.0000 C   0  0  1  0  0  0  0  0  0  0  0  0
    5.5590   -8.6229    0.0000 O   0  0  0  0  0  0  0  0  0  0  0  0
    4.1300   -9.4479    0.0000 O   0  0  0  0  0  0  0  0  0  0  0  0
    2.7011   -8.6229    0.0000 O   0  0  0  0  0  0  0  0  0  0  0  0
    2.7011   -6.9729    0.0000 C   0  0  0  0  0  0  0  0  0  0  0  0
    1.9866   -7.3854    0.0000 O   0  0  0  0  0  0  0  0  0  0  0  0
    5.5590   -6.9729    0.0000 O   0  0  0  0  0  0  0  0  0  0  0  0
    9.1313   -7.3854    0.0000 C   0  0  0  0  0  0  0  0  0  0  0  0
    9.1313   -8.2104    0.0000 C   0  0  0  0  0  0  0  0  0  0  0  0
    8.4168   -8.6229    0.0000 C   0  0  0  0  0  0  0  0  0  0  0  0
    7.7024   -8.2104    0.0000 C   0  0  0  0  0  0  0  0  0  0  0  0
    6.9879   -8.6229    0.0000 C   0  0  0  0  0  0  0  0  0  0  0  0
    6.2734   -8.2104    0.0000 C   0  0  0  0  0  0  0  0  0  0  0  0
    6.2734   -7.3854    0.0000 C   0  0  0  0  0  0  0  0  0  0  0  0
    6.9879   -6.9729    0.0000 C   0  0  0  0  0  0  0  0  0  0  0  0
    7.7024   -7.3854    0.0000 C   0  0  0  0  0  0  0  0  0  0  0  0
    8.4168   -6.9729    0.0000 O   0  0  0  0  0  0  0  0  0  0  0  0
    9.8458   -8.6229    0.0000 C   0  0  0  0  0  0  0  0  0  0  0  0
   10.5603   -8.2104    0.0000 C   0  0  0  0  0  0  0  0  0  0  0  0
   11.2747   -8.6229    0.0000 C   0  0  0  0  0  0  0  0  0  0  0  0
   11.2747   -9.4479    0.0000 C   0  0  0  0  0  0  0  0  0  0  0  0
   10.5603   -9.8604    0.0000 C   0  0  0  0  0  0  0  0  0  0  0  0
    9.8458   -9.4479    0.0000 C   0  0  0  0  0  0  0  0  0  0  0  0
   11.9892   -9.8604    0.0000 O   0  0  0  0  0  0  0  0  0  0  0  0
   12.7037   -9.4479    0.0000 C   0  0  0  0  0  0  0  0  0  0  0  0
   11.9892   -8.2104    0.0000 O   0  0  0  0  0  0  0  0  0  0  0  0
   12.7037   -8.6229    0.0000 C   0  0  0  0  0  0  0  0  0  0  0  0
   10.5603   -7.3854    0.0000 O   0  0  0  0  0  0  0  0  0  0  0  0
    1.2721   -6.9729    0.0000 C   0  0  0  0  0  0  0  0  0  0  0  0
    0.5577   -7.3854    0.0000 C   0  0  0  0  0  0  0  0  0  0  0  0
    1.2721   -6.1479    0.0000 O   0  0  0  0  0  0  0  0  0  0  0  0
  1  2  1  0  0  0  0
  2  3  1  0  0  0  0
  3  4  1  0  0  0  0
  4  5  1  0  0  0  0
  5  6  1  0  0  0  0
  1  6  1  0  0  0  0
  3  7  1  6  0  0  0
  4  8  1  1  0  0  0
  5  9  1  6  0  0  0
 10 11  1  0  0  0  0
  6 10  1  1  0  0  0
 13 14  1  0  0  0  0
 14 15  1  0  0  0  0
 15 16  1  0  0  0  0
 16 17  1  0  0  0  0
 17 18  2  0  0  0  0
 18 19  1  0  0  0  0
 19 20  2  0  0  0  0
 20 21  1  0  0  0  0
 16 21  2  0  0  0  0
 21 22  1  0  0  0  0
 13 22  1  0  0  0  0
 23 24  1  0  0  0  0
 24 25  2  0  0  0  0
 25 26  1  0  0  0  0
 26 27  2  0  0  0  0
 27 28  1  0  0  0  0
 23 28  2  0  0  0  0
 29 30  1  0  0  0  0
 26 29  1  0  0  0  0
 31 32  1  0  0  0  0
 25 31  1  0  0  0  0
 24 33  1  0  0  0  0
 14 23  1  0  0  0  0
 12 19  1  0  0  0  0
  2 12  1  1  0  0  0
 11 34  1  0  0  0  0
 34 35  1  0  0  0  0
 34 36  2  0  0  0  0
M  END
>  <cdx:groupId>
104

>  <cdx:fragmentId>
49

$$$$
