95126.cdx
  Mrv1902 05222410232D          

 20 21  0  0  0  0            999 V2000
    9.6686   -7.6606    0.0000 O   0  0  0  0  0  0  0  0  0  0  0  0
    8.9541   -8.0731    0.0000 C   0  0  1  0  0  0  0  0  0  0  0  0
    8.9541   -8.8981    0.0000 C   0  0  2  0  0  0  0  0  0  0  0  0
    9.6686   -9.3106    0.0000 O   0  0  0  0  0  0  0  0  0  0  0  0
    8.2396   -9.3106    0.0000 C   0  0  1  0  0  0  0  0  0  0  0  0
    8.2396  -10.1356    0.0000 O   0  0  0  0  0  0  0  0  0  0  0  0
    7.5251   -8.8981    0.0000 C   0  0  2  0  0  0  0  0  0  0  0  0
    6.8107   -9.3106    0.0000 O   0  0  0  0  0  0  0  0  0  0  0  0
    7.5251   -8.0731    0.0000 C   0  0  2  0  0  0  0  0  0  0  0  0
    8.2396   -7.6606    0.0000 O   0  0  0  0  0  0  0  0  0  0  0  0
    6.8107   -7.6606    0.0000 C   0  0  0  0  0  0  0  0  0  0  0  0
    6.0962   -8.0731    0.0000 O   0  0  0  0  0  0  0  0  0  0  0  0
    5.3807   -7.6477    0.0000 C   0  0  0  0  0  0  0  0  0  0  0  0
    3.9118   -7.7088    0.0000 N   0  0  0  0  0  0  0  0  0  0  0  0
    4.6618   -8.0525    0.0000 C   0  0  1  0  0  0  0  0  0  0  0  0
    4.5668   -8.8720    0.0000 C   0  0  0  0  0  0  0  0  0  0  0  0
    3.7580   -9.0348    0.0000 C   0  0  0  0  0  0  0  0  0  0  0  0
    3.3532   -8.3160    0.0000 C   0  0  0  0  0  0  0  0  0  0  0  0
    2.5337   -8.2209    0.0000 O   0  0  0  0  0  0  0  0  0  0  0  0
    5.3895   -6.8227    0.0000 O   0  0  0  0  0  0  0  0  0  0  0  0
  2  3  1  0  0  0  0
  3  4  1  6  0  0  0
  3  5  1  0  0  0  0
  5  6  1  1  0  0  0
  5  7  1  0  0  0  0
  7  8  1  6  0  0  0
  7  9  1  0  0  0  0
  9 10  1  0  0  0  0
  9 11  1  1  0  0  0
 11 12  1  0  0  0  0
  2 10  1  0  0  0  0
  2  1  1  1  0  0  0
 14 15  1  0  0  0  0
 15 13  1  6  0  0  0
 15 16  1  0  0  0  0
 16 17  1  0  0  0  0
 17 18  1  0  0  0  0
 18 19  2  0  0  0  0
 14 18  1  0  0  0  0
 13 20  2  0  0  0  0
 13 12  1  0  0  0  0
M  END
>  <cdx:groupId>
63

>  <cdx:fragmentId>
23

$$$$
