95122.cdx
  Mrv1902 05222410262D          

 26 28  0  0  0  0            999 V2000
    5.4095  -10.2729    0.0000 O   0  0  0  0  0  0  0  0  0  0  0  0
    8.9818   -9.0354    0.0000 C   0  0  0  0  0  0  0  0  0  0  0  0
    8.2674   -9.4479    0.0000 O   0  0  0  0  0  0  0  0  0  0  0  0
    3.2661   -9.0354    0.0000 C   0  0  0  0  0  0  0  0  0  0  0  0
    3.9805   -9.4479    0.0000 O   0  0  0  0  0  0  0  0  0  0  0  0
    3.2661   -8.2104    0.0000 C   0  0  0  0  0  0  0  0  0  0  0  0
    3.9805   -7.7979    0.0000 O   0  0  0  0  0  0  0  0  0  0  0  0
   11.1252   -6.9729    0.0000 C   0  0  0  0  0  0  0  0  0  0  0  0
   10.4108   -6.5604    0.0000 O   0  0  0  0  0  0  0  0  0  0  0  0
    8.2674   -6.9729    0.0000 C   0  0  0  0  0  0  0  0  0  0  0  0
    8.9818   -6.5604    0.0000 C   0  0  0  0  0  0  0  0  0  0  0  0
    9.6963   -6.9729    0.0000 C   0  0  0  0  0  0  0  0  0  0  0  0
    9.6963   -7.7979    0.0000 C   0  0  0  0  0  0  0  0  0  0  0  0
    8.9818   -8.2104    0.0000 C   0  0  0  0  0  0  0  0  0  0  0  0
    8.2674   -7.7979    0.0000 C   0  0  0  0  0  0  0  0  0  0  0  0
    6.8384  -10.2729    0.0000 O   0  0  0  0  0  0  0  0  0  0  0  0
    6.8384   -7.7979    0.0000 O   0  0  0  0  0  0  0  0  0  0  0  0
    6.1239   -8.2104    0.0000 C   0  0  0  0  0  0  0  0  0  0  0  0
    5.4095   -7.7979    0.0000 C   0  0  0  0  0  0  0  0  0  0  0  0
    4.6950   -8.2104    0.0000 C   0  0  0  0  0  0  0  0  0  0  0  0
    4.6950   -9.0354    0.0000 C   0  0  0  0  0  0  0  0  0  0  0  0
    5.4095   -9.4479    0.0000 C   0  0  0  0  0  0  0  0  0  0  0  0
    6.1239   -9.0354    0.0000 C   0  0  0  0  0  0  0  0  0  0  0  0
    6.8384   -9.4479    0.0000 C   0  0  0  0  0  0  0  0  0  0  0  0
    7.5529   -9.0354    0.0000 C   0  0  0  0  0  0  0  0  0  0  0  0
    7.5529   -8.2104    0.0000 C   0  0  0  0  0  0  0  0  0  0  0  0
 22  1  1  0  0  0  0
 25  3  1  0  0  0  0
  3  2  1  0  0  0  0
 21  5  1  0  0  0  0
  5  4  1  0  0  0  0
 20  7  1  0  0  0  0
  7  6  1  0  0  0  0
 26 15  1  0  0  0  0
 12  9  1  0  0  0  0
  9  8  1  0  0  0  0
 15 10  2  0  0  0  0
 11 10  1  0  0  0  0
 12 11  2  0  0  0  0
 13 12  1  0  0  0  0
 14 13  2  0  0  0  0
 15 14  1  0  0  0  0
 24 16  2  0  0  0  0
 26 17  1  0  0  0  0
 18 17  1  0  0  0  0
 23 18  2  0  0  0  0
 19 18  1  0  0  0  0
 20 19  2  0  0  0  0
 21 20  1  0  0  0  0
 22 21  2  0  0  0  0
 23 22  1  0  0  0  0
 24 23  1  0  0  0  0
 25 24  1  0  0  0  0
 26 25  2  0  0  0  0
M  END
>  <cdx:fragmentId>
5

$$$$
