95120.cdx
  Mrv1902 05222410242D          

 44 48  0  0  0  0            999 V2000
    8.2581   -7.1500    0.0000 C   0  0  0  0  0  0  0  0  0  0  0  0
    8.2581   -7.8925    0.0000 C   0  0  0  0  0  0  0  0  0  0  0  0
    8.9011   -8.2637    0.0000 C   0  0  0  0  0  0  0  0  0  0  0  0
    9.5441   -7.8925    0.0000 C   0  0  0  0  0  0  0  0  0  0  0  0
    9.5441   -7.1500    0.0000 C   0  0  0  0  0  0  0  0  0  0  0  0
    8.9011   -6.7788    0.0000 C   0  0  0  0  0  0  0  0  0  0  0  0
    7.6151   -6.7788    0.0000 O   0  0  0  0  0  0  0  0  0  0  0  0
    8.9011   -9.0062    0.0000 O   0  0  0  0  0  0  0  0  0  0  0  0
   10.1872   -8.2637    0.0000 C   0  0  0  0  0  0  0  0  0  0  0  0
   10.8302   -7.8925    0.0000 C   0  0  0  0  0  0  0  0  0  0  0  0
   10.8302   -7.1500    0.0000 C   0  0  0  0  0  0  0  0  0  0  0  0
   10.1872   -6.7788    0.0000 O   0  0  0  0  0  0  0  0  0  0  0  0
   11.4732   -8.2637    0.0000 O   0  0  0  0  0  0  0  0  0  0  0  0
   12.1162   -7.1500    0.0000 C   0  0  0  0  0  0  0  0  0  0  0  0
   11.4732   -6.7788    0.0000 C   0  0  0  0  0  0  0  0  0  0  0  0
   12.7593   -6.7788    0.0000 C   0  0  0  0  0  0  0  0  0  0  0  0
   12.7593   -6.0362    0.0000 C   0  0  0  0  0  0  0  0  0  0  0  0
   12.1162   -5.6650    0.0000 C   0  0  0  0  0  0  0  0  0  0  0  0
   11.4732   -6.0362    0.0000 C   0  0  0  0  0  0  0  0  0  0  0  0
   10.1872   -9.0062    0.0000 O   0  0  0  0  0  0  0  0  0  0  0  0
   12.1162   -4.9225    0.0000 O   0  0  0  0  0  0  0  0  0  0  0  0
   13.4023   -5.6650    0.0000 O   0  0  0  0  0  0  0  0  0  0  0  0
    7.6296   -8.2734    0.0000 O   0  0  0  0  0  0  0  0  0  0  0  0
    6.3481   -9.0238    0.0000 O   0  0  0  0  0  0  0  0  0  0  0  0
    5.0575   -8.2893    0.0000 O   0  0  0  0  0  0  0  0  0  0  0  0
    5.6982   -7.9140    0.0000 C   0  0  1  0  0  0  0  0  0  0  0  0
    6.3435   -8.2813    0.0000 C   0  0  1  0  0  0  0  0  0  0  0  0
    6.9843   -7.9061    0.0000 C   0  0  2  0  0  0  0  0  0  0  0  0
    6.9797   -7.1636    0.0000 C   0  0  0  0  0  0  0  0  0  0  0  0
    6.3344   -6.7963    0.0000 O   0  0  0  0  0  0  0  0  0  0  0  0
    5.6936   -7.1716    0.0000 C   0  0  2  0  0  0  0  0  0  0  0  0
    5.0483   -6.8043    0.0000 C   0  0  0  0  0  0  0  0  0  0  0  0
    4.4076   -7.1795    0.0000 O   0  0  0  0  0  0  0  0  0  0  0  0
    3.7623   -6.8122    0.0000 C   0  0  0  0  0  0  0  0  0  0  0  0
    3.1216   -7.1875    0.0000 C   0  0  0  0  0  0  0  0  0  0  0  0
    3.7577   -6.0698    0.0000 O   0  0  0  0  0  0  0  0  0  0  0  0
    2.4740   -6.8242    0.0000 C   0  0  0  0  0  0  0  0  0  0  0  0
    1.8356   -7.2033    0.0000 C   0  0  0  0  0  0  0  0  0  0  0  0
    1.8356   -7.9458    0.0000 C   0  0  0  0  0  0  0  0  0  0  0  0
    2.4740   -8.3091    0.0000 C   0  0  0  0  0  0  0  0  0  0  0  0
    3.1216   -7.9299    0.0000 C   0  0  0  0  0  0  0  0  0  0  0  0
    1.1903   -6.8361    0.0000 O   0  0  0  0  0  0  0  0  0  0  0  0
    1.1938   -8.3190    0.0000 O   0  0  0  0  0  0  0  0  0  0  0  0
    2.4786   -9.0515    0.0000 O   0  0  0  0  0  0  0  0  0  0  0  0
  1  2  2  0  0  0  0
  2  3  1  0  0  0  0
  3  4  2  0  0  0  0
  4  5  1  0  0  0  0
  5  6  2  0  0  0  0
  6  1  1  0  0  0  0
  1  7  1  0  0  0  0
  3  8  1  0  0  0  0
  4  9  1  0  0  0  0
  9 10  1  0  0  0  0
 10 11  2  0  0  0  0
 11 12  1  0  0  0  0
 12  5  1  0  0  0  0
 10 13  1  0  0  0  0
 14 15  2  0  0  0  0
 15 11  1  0  0  0  0
 14 16  1  0  0  0  0
 16 17  2  0  0  0  0
 17 18  1  0  0  0  0
 18 19  2  0  0  0  0
 19 15  1  0  0  0  0
  9 20  2  0  0  0  0
 18 21  1  0  0  0  0
 17 22  1  0  0  0  0
 28 23  1  6  0  0  0
 27 24  1  1  0  0  0
 26 25  1  6  0  0  0
 26 31  1  0  0  0  0
 27 26  1  0  0  0  0
 28 27  1  0  0  0  0
 29 28  1  0  0  0  0
 30 29  1  0  0  0  0
 31 30  1  0  0  0  0
 29  7  1  0  0  0  0
 31 32  1  1  0  0  0
 32 33  1  0  0  0  0
 33 34  1  0  0  0  0
 34 35  1  0  0  0  0
 34 36  2  0  0  0  0
 35 37  2  0  0  0  0
 37 38  1  0  0  0  0
 38 39  2  0  0  0  0
 39 40  1  0  0  0  0
 40 41  2  0  0  0  0
 41 35  1  0  0  0  0
 38 42  1  0  0  0  0
 39 43  1  0  0  0  0
 40 44  1  0  0  0  0
M  END
>  <cdx:fragmentId>
5

$$$$
