95125.cdx
  Mrv1902 05222410242D          

 24 25  0  0  0  0            999 V2000
    8.9818   -9.5029    0.0000 C   0  0  0  0  0  0  0  0  0  0  0  0
    8.9818   -8.6779    0.0000 C   0  0  0  0  0  0  0  0  0  0  0  0
    8.2674   -8.2654    0.0000 C   0  0  0  0  0  0  0  0  0  0  0  0
    8.2674   -7.4404    0.0000 C   0  0  0  0  0  0  0  0  0  0  0  0
    8.9818   -7.0279    0.0000 C   0  0  0  0  0  0  0  0  0  0  0  0
    8.9818   -6.2029    0.0000 O   0  0  0  0  0  0  0  0  0  0  0  0
    9.6963   -7.4404    0.0000 C   0  0  0  0  0  0  0  0  0  0  0  0
   10.4108   -7.0279    0.0000 O   0  0  0  0  0  0  0  0  0  0  0  0
    9.6963   -8.2654    0.0000 C   0  0  0  0  0  0  0  0  0  0  0  0
    8.2674   -9.9154    0.0000 O   0  0  0  0  0  0  0  0  0  0  0  0
    9.6963   -9.9154    0.0000 O   0  0  0  0  0  0  0  0  0  0  0  0
    7.5529   -7.0279    0.0000 O   0  0  0  0  0  0  0  0  0  0  0  0
    6.8384   -7.4404    0.0000 C   0  0  1  0  0  0  0  0  0  0  0  0
    6.8384   -8.2654    0.0000 C   0  0  2  0  0  0  0  0  0  0  0  0
    7.5529   -8.6779    0.0000 O   0  0  0  0  0  0  0  0  0  0  0  0
    6.1239   -8.6779    0.0000 C   0  0  1  0  0  0  0  0  0  0  0  0
    6.1239   -9.5029    0.0000 O   0  0  0  0  0  0  0  0  0  0  0  0
    5.4095   -8.2654    0.0000 C   0  0  2  0  0  0  0  0  0  0  0  0
    4.6950   -8.6779    0.0000 O   0  0  0  0  0  0  0  0  0  0  0  0
    5.4095   -7.4404    0.0000 C   0  0  2  0  0  0  0  0  0  0  0  0
    6.1239   -7.0279    0.0000 O   0  0  0  0  0  0  0  0  0  0  0  0
    4.6950   -7.0279    0.0000 C   0  0  0  0  0  0  0  0  0  0  0  0
    3.9805   -7.4404    0.0000 O   0  0  0  0  0  0  0  0  0  0  0  0
    9.6963  -10.7404    0.0000 C   0  0  0  0  0  0  0  0  0  0  0  0
  1  2  1  0  0  0  0
  2  3  1  0  0  0  0
  3  4  2  0  0  0  0
  4  5  1  0  0  0  0
  5  6  1  0  0  0  0
  5  7  2  0  0  0  0
  7  8  1  0  0  0  0
  7  9  1  0  0  0  0
  2  9  2  0  0  0  0
  1 10  2  0  0  0  0
  1 11  1  0  0  0  0
 13 12  1  1  0  0  0
 13 14  1  0  0  0  0
 14 15  1  6  0  0  0
 14 16  1  0  0  0  0
 16 17  1  1  0  0  0
 16 18  1  0  0  0  0
 18 19  1  6  0  0  0
 18 20  1  0  0  0  0
 20 21  1  0  0  0  0
 20 22  1  1  0  0  0
 22 23  1  0  0  0  0
 13 21  1  0  0  0  0
  4 12  1  0  0  0  0
 11 24  1  0  0  0  0
M  END
>  <cdx:groupId>
75

>  <cdx:fragmentId>
25

$$$$
