95121.cdx
  Mrv1902 05222410252D          

 34 37  0  0  0  0            999 V2000
    6.8281   -7.1500    0.0000 C   0  0  0  0  0  0  0  0  0  0  0  0
    6.8281   -7.8925    0.0000 C   0  0  0  0  0  0  0  0  0  0  0  0
    7.4711   -8.2637    0.0000 C   0  0  0  0  0  0  0  0  0  0  0  0
    8.1141   -7.8925    0.0000 C   0  0  0  0  0  0  0  0  0  0  0  0
    8.1141   -7.1500    0.0000 C   0  0  0  0  0  0  0  0  0  0  0  0
    7.4711   -6.7788    0.0000 C   0  0  0  0  0  0  0  0  0  0  0  0
    6.1851   -6.7788    0.0000 O   0  0  0  0  0  0  0  0  0  0  0  0
    7.4711   -9.0062    0.0000 O   0  0  0  0  0  0  0  0  0  0  0  0
    8.7572   -8.2637    0.0000 C   0  0  0  0  0  0  0  0  0  0  0  0
    9.4002   -7.8925    0.0000 C   0  0  0  0  0  0  0  0  0  0  0  0
    9.4002   -7.1500    0.0000 C   0  0  0  0  0  0  0  0  0  0  0  0
    8.7572   -6.7788    0.0000 O   0  0  0  0  0  0  0  0  0  0  0  0
   10.0432   -8.2637    0.0000 O   0  0  0  0  0  0  0  0  0  0  0  0
   10.6862   -7.1500    0.0000 C   0  0  0  0  0  0  0  0  0  0  0  0
   10.0432   -6.7788    0.0000 C   0  0  0  0  0  0  0  0  0  0  0  0
   11.3293   -6.7788    0.0000 C   0  0  0  0  0  0  0  0  0  0  0  0
   11.3293   -6.0362    0.0000 C   0  0  0  0  0  0  0  0  0  0  0  0
   10.6862   -5.6650    0.0000 C   0  0  0  0  0  0  0  0  0  0  0  0
   10.0432   -6.0362    0.0000 C   0  0  0  0  0  0  0  0  0  0  0  0
    8.7572   -9.0062    0.0000 O   0  0  0  0  0  0  0  0  0  0  0  0
   10.6862   -4.9225    0.0000 O   0  0  0  0  0  0  0  0  0  0  0  0
   11.9723   -5.6650    0.0000 O   0  0  0  0  0  0  0  0  0  0  0  0
    6.1996   -8.2734    0.0000 O   0  0  0  0  0  0  0  0  0  0  0  0
    4.9181   -9.0238    0.0000 O   0  0  0  0  0  0  0  0  0  0  0  0
    3.6275   -8.2893    0.0000 O   0  0  0  0  0  0  0  0  0  0  0  0
    4.2682   -7.9140    0.0000 C   0  0  1  0  0  0  0  0  0  0  0  0
    4.9135   -8.2813    0.0000 C   0  0  1  0  0  0  0  0  0  0  0  0
    5.5543   -7.9061    0.0000 C   0  0  2  0  0  0  0  0  0  0  0  0
    5.5497   -7.1636    0.0000 C   0  0  0  0  0  0  0  0  0  0  0  0
    4.9044   -6.7963    0.0000 O   0  0  0  0  0  0  0  0  0  0  0  0
    4.2636   -7.1716    0.0000 C   0  0  2  0  0  0  0  0  0  0  0  0
    3.6183   -6.8043    0.0000 C   0  0  0  0  0  0  0  0  0  0  0  0
    2.9776   -7.1795    0.0000 O   0  0  0  0  0  0  0  0  0  0  0  0
    3.6270   -6.1031    0.0000 O   0  0  0  0  0  0  0  0  0  0  0  0
  1  2  2  0  0  0  0
  2  3  1  0  0  0  0
  3  4  2  0  0  0  0
  4  5  1  0  0  0  0
  5  6  2  0  0  0  0
  6  1  1  0  0  0  0
  1  7  1  0  0  0  0
  3  8  1  0  0  0  0
  4  9  1  0  0  0  0
  9 10  1  0  0  0  0
 10 11  2  0  0  0  0
 11 12  1  0  0  0  0
 12  5  1  0  0  0  0
 10 13  1  0  0  0  0
 14 15  2  0  0  0  0
 15 11  1  0  0  0  0
 14 16  1  0  0  0  0
 16 17  2  0  0  0  0
 17 18  1  0  0  0  0
 18 19  2  0  0  0  0
 19 15  1  0  0  0  0
  9 20  2  0  0  0  0
 18 21  1  0  0  0  0
 17 22  1  0  0  0  0
 28 23  1  6  0  0  0
 27 24  1  1  0  0  0
 26 25  1  6  0  0  0
 26 31  1  0  0  0  0
 27 26  1  0  0  0  0
 28 27  1  0  0  0  0
 29 28  1  0  0  0  0
 30 29  1  0  0  0  0
 31 30  1  0  0  0  0
 29  7  1  0  0  0  0
 31 32  1  1  0  0  0
 32 33  1  0  0  0  0
 32 34  2  0  0  0  0
M  END
>  <cdx:fragmentId>
5

$$$$
