95124.cdx
  Mrv1902 05222410242D          

 43 47  0  0  0  0            999 V2000
   11.2228   -7.9079    0.0000 C   0  0  0  0  0  0  0  0  0  0  0  0
   11.2228   -8.7329    0.0000 C   0  0  0  0  0  0  0  0  0  0  0  0
   11.9373   -9.1454    0.0000 O   0  0  0  0  0  0  0  0  0  0  0  0
   10.5083   -9.1454    0.0000 C   0  0  0  0  0  0  0  0  0  0  0  0
   10.5083   -9.9704    0.0000 O   0  0  0  0  0  0  0  0  0  0  0  0
    9.7939   -8.7329    0.0000 C   0  0  0  0  0  0  0  0  0  0  0  0
    9.0794   -9.1454    0.0000 C   0  0  0  0  0  0  0  0  0  0  0  0
    9.0794   -9.9704    0.0000 O   0  0  0  0  0  0  0  0  0  0  0  0
    8.3649   -8.7329    0.0000 C   0  0  0  0  0  0  0  0  0  0  0  0
    8.3649   -7.9079    0.0000 C   0  0  0  0  0  0  0  0  0  0  0  0
    9.0794   -7.4954    0.0000 C   0  0  0  0  0  0  0  0  0  0  0  0
    9.7939   -7.9079    0.0000 C   0  0  0  0  0  0  0  0  0  0  0  0
   10.5083   -7.4954    0.0000 O   0  0  0  0  0  0  0  0  0  0  0  0
   11.9373   -7.4954    0.0000 C   0  0  0  0  0  0  0  0  0  0  0  0
   11.9373   -6.6704    0.0000 C   0  0  0  0  0  0  0  0  0  0  0  0
   12.6518   -6.2579    0.0000 C   0  0  0  0  0  0  0  0  0  0  0  0
   13.3662   -6.6704    0.0000 C   0  0  0  0  0  0  0  0  0  0  0  0
   14.0807   -6.2579    0.0000 O   0  0  0  0  0  0  0  0  0  0  0  0
   13.3662   -7.4954    0.0000 C   0  0  0  0  0  0  0  0  0  0  0  0
   12.6518   -7.9079    0.0000 C   0  0  0  0  0  0  0  0  0  0  0  0
    7.6505   -7.4954    0.0000 O   0  0  0  0  0  0  0  0  0  0  0  0
    6.9360   -7.9079    0.0000 C   0  0  0  0  0  0  0  0  0  0  0  0
    6.9360   -8.7329    0.0000 C   0  0  2  0  0  0  0  0  0  0  0  0
    7.6505   -9.1454    0.0000 O   0  0  0  0  0  0  0  0  0  0  0  0
    6.2215   -9.1454    0.0000 C   0  0  1  0  0  0  0  0  0  0  0  0
    6.2215   -9.9704    0.0000 O   0  0  0  0  0  0  0  0  0  0  0  0
    5.5070   -8.7329    0.0000 C   0  0  2  0  0  0  0  0  0  0  0  0
    4.7926   -9.1454    0.0000 O   0  0  0  0  0  0  0  0  0  0  0  0
    5.5070   -7.9079    0.0000 C   0  0  2  0  0  0  0  0  0  0  0  0
    6.2215   -7.4954    0.0000 O   0  0  0  0  0  0  0  0  0  0  0  0
    4.7926   -7.4954    0.0000 C   0  0  0  0  0  0  0  0  0  0  0  0
    4.0781   -7.9079    0.0000 O   0  0  0  0  0  0  0  0  0  0  0  0
    3.3636   -7.4954    0.0000 C   0  0  0  0  0  0  0  0  0  0  0  0
    2.6492   -7.9079    0.0000 C   0  0  0  0  0  0  0  0  0  0  0  0
    3.3636   -6.6704    0.0000 O   0  0  0  0  0  0  0  0  0  0  0  0
    1.9347   -7.4954    0.0000 C   0  0  0  0  0  0  0  0  0  0  0  0
    1.2202   -7.9079    0.0000 C   0  0  0  0  0  0  0  0  0  0  0  0
    1.2202   -8.7329    0.0000 C   0  0  0  0  0  0  0  0  0  0  0  0
    1.9347   -9.1454    0.0000 C   0  0  0  0  0  0  0  0  0  0  0  0
    2.6492   -8.7329    0.0000 C   0  0  0  0  0  0  0  0  0  0  0  0
    0.5057   -7.4954    0.0000 O   0  0  0  0  0  0  0  0  0  0  0  0
    0.5057   -9.1454    0.0000 O   0  0  0  0  0  0  0  0  0  0  0  0
    1.9347   -9.9704    0.0000 O   0  0  0  0  0  0  0  0  0  0  0  0
  1  2  2  0  0  0  0
  2  3  1  0  0  0  0
  2  4  1  0  0  0  0
  4  5  2  0  0  0  0
  4  6  1  0  0  0  0
  6  7  1  0  0  0  0
  7  8  1  0  0  0  0
  7  9  2  0  0  0  0
  9 10  1  0  0  0  0
 10 11  2  0  0  0  0
 11 12  1  0  0  0  0
  6 12  2  0  0  0  0
 12 13  1  0  0  0  0
  1 13  1  0  0  0  0
  1 14  1  0  0  0  0
 14 15  1  0  0  0  0
 15 16  2  0  0  0  0
 16 17  1  0  0  0  0
 17 18  1  0  0  0  0
 17 19  2  0  0  0  0
 19 20  1  0  0  0  0
 14 20  2  0  0  0  0
 21 22  1  0  0  0  0
 22 23  1  0  0  0  0
 23 24  1  6  0  0  0
 23 25  1  0  0  0  0
 25 26  1  1  0  0  0
 25 27  1  0  0  0  0
 27 28  1  6  0  0  0
 27 29  1  0  0  0  0
 29 30  1  0  0  0  0
 29 31  1  1  0  0  0
 31 32  1  0  0  0  0
 22 30  1  0  0  0  0
 10 21  1  0  0  0  0
 32 33  1  0  0  0  0
 33 34  1  0  0  0  0
 33 35  2  0  0  0  0
 34 36  2  0  0  0  0
 36 37  1  0  0  0  0
 37 38  2  0  0  0  0
 38 39  1  0  0  0  0
 39 40  2  0  0  0  0
 40 34  1  0  0  0  0
 37 41  1  0  0  0  0
 38 42  1  0  0  0  0
 39 43  1  0  0  0  0
M  END
>  <cdx:groupId>
101

>  <cdx:fragmentId>
5

$$$$
