95129.cdx
  Mrv1902 05222410222D          

 22 24  0  0  0  0            999 V2000
    4.2924   -6.4691    0.0000 O   0  0  0  0  0  0  0  0  0  0  0  0
    3.5779   -7.7066    0.0000 C   0  0  0  0  0  0  0  0  0  0  0  0
    4.2924   -8.1191    0.0000 O   0  0  0  0  0  0  0  0  0  0  0  0
   11.4371   -8.9441    0.0000 C   0  0  0  0  0  0  0  0  0  0  0  0
   10.7226   -9.3566    0.0000 O   0  0  0  0  0  0  0  0  0  0  0  0
    9.2937   -7.7066    0.0000 C   0  0  0  0  0  0  0  0  0  0  0  0
   10.0082   -8.1191    0.0000 C   0  0  0  0  0  0  0  0  0  0  0  0
   10.0082   -8.9441    0.0000 C   0  0  0  0  0  0  0  0  0  0  0  0
    9.2937   -9.3566    0.0000 C   0  0  0  0  0  0  0  0  0  0  0  0
    8.5792   -8.9441    0.0000 C   0  0  0  0  0  0  0  0  0  0  0  0
    8.5792   -8.1191    0.0000 C   0  0  0  0  0  0  0  0  0  0  0  0
    7.1503   -8.9441    0.0000 O   0  0  0  0  0  0  0  0  0  0  0  0
    7.1503   -6.4691    0.0000 O   0  0  0  0  0  0  0  0  0  0  0  0
    6.4358   -6.8816    0.0000 C   0  0  0  0  0  0  0  0  0  0  0  0
    5.7213   -6.4691    0.0000 C   0  0  0  0  0  0  0  0  0  0  0  0
    5.0069   -6.8816    0.0000 C   0  0  0  0  0  0  0  0  0  0  0  0
    5.0069   -7.7066    0.0000 C   0  0  0  0  0  0  0  0  0  0  0  0
    5.7213   -8.1191    0.0000 C   0  0  0  0  0  0  0  0  0  0  0  0
    6.4358   -7.7066    0.0000 C   0  0  0  0  0  0  0  0  0  0  0  0
    7.1503   -8.1191    0.0000 C   0  0  0  0  0  0  0  0  0  0  0  0
    7.8647   -7.7066    0.0000 C   0  0  0  0  0  0  0  0  0  0  0  0
    7.8647   -6.8816    0.0000 C   0  0  0  0  0  0  0  0  0  0  0  0
 16  1  1  0  0  0  0
 17  3  1  0  0  0  0
  3  2  1  0  0  0  0
 21 11  1  0  0  0  0
  8  5  1  0  0  0  0
  5  4  1  0  0  0  0
 11  6  2  0  0  0  0
  7  6  1  0  0  0  0
  8  7  2  0  0  0  0
  9  8  1  0  0  0  0
 10  9  2  0  0  0  0
 11 10  1  0  0  0  0
 20 12  2  0  0  0  0
 22 13  1  0  0  0  0
 14 13  1  0  0  0  0
 19 14  2  0  0  0  0
 15 14  1  0  0  0  0
 16 15  2  0  0  0  0
 17 16  1  0  0  0  0
 18 17  2  0  0  0  0
 19 18  1  0  0  0  0
 20 19  1  0  0  0  0
 21 20  1  0  0  0  0
 22 21  2  0  0  0  0
M  END
>  <cdx:fragmentId>
18915

$$$$
