95138.cdx
  Mrv1902 05222410212D          

 43 48  0  0  0  0            999 V2000
    7.7064   -9.8834    0.0000 H   0  0  0  0  0  0  0  0  0  0  0  0
    6.9937  -11.1215    0.0000 H   0  0  0  0  0  0  0  0  0  0  0  0
    9.1357   -9.8828    0.0000 H   0  0  0  0  0  0  0  0  0  0  0  0
    9.5900   -6.8675    0.0000 H   0  0  0  0  0  0  0  0  0  0  0  0
    9.7381   -5.4463    0.0000 H   0  0  0  0  0  0  0  0  0  0  0  0
    9.5944   -8.2110    0.0000 H   0  0  0  0  0  0  0  0  0  0  0  0
    8.2851   -7.4499    0.0000 H   0  0  0  0  0  0  0  0  0  0  0  0
    9.1419   -3.9006    0.0000 C   0  0  0  0  0  0  0  0  0  0  0  0
   11.2013   -7.3266    0.0000 C   0  0  0  0  0  0  0  0  0  0  0  0
    6.9922   -8.6465    0.0000 C   0  0  0  0  0  0  0  0  0  0  0  0
    4.8499  -10.7109    0.0000 O   0  0  0  0  0  0  0  0  0  0  0  0
    7.7085  -11.5334    0.0000 O   0  0  0  0  0  0  0  0  0  0  0  0
    9.4463   -9.6322    0.0000 O   0  0  0  0  0  0  0  0  0  0  0  0
   11.1592   -8.4209    0.0000 O   0  0  0  0  0  0  0  0  0  0  0  0
   11.2013   -6.5016    0.0000 O   0  0  0  0  0  0  0  0  0  0  0  0
    7.8772   -8.2513    0.0000 C   0  0  0  0  0  0  0  0  0  0  0  0
    7.7064   -9.0584    0.0000 C   0  0  2  0  0  0  0  0  0  0  0  0
    6.9922   -9.4715    0.0000 C   0  0  2  0  0  0  0  0  0  0  0  0
    6.2774   -9.0597    0.0000 C   0  0  0  0  0  0  0  0  0  0  0  0
    5.5633   -9.4728    0.0000 C   0  0  0  0  0  0  0  0  0  0  0  0
    5.5640  -10.2978    0.0000 C   0  0  1  0  0  0  0  0  0  0  0  0
    6.2789  -10.7097    0.0000 C   0  0  0  0  0  0  0  0  0  0  0  0
    6.9930  -10.2965    0.0000 C   0  0  2  0  0  0  0  0  0  0  0  0
    7.7078  -10.7084    0.0000 C   0  0  2  0  0  0  0  0  0  0  0  0
    8.4219  -10.2953    0.0000 C   0  0  0  0  0  0  0  0  0  0  0  0
    8.4212   -9.4703    0.0000 C   0  0  1  0  0  0  0  0  0  0  0  0
    9.0338   -8.9177    0.0000 C   0  0  1  0  0  0  0  0  0  0  0  0
    9.8544   -9.0033    0.0000 C   0  0  0  0  0  0  0  0  0  0  0  0
   10.3387   -8.3354    0.0000 C   0  0  1  0  0  0  0  0  0  0  0  0
   10.0025   -7.5820    0.0000 C   0  0  2  0  0  0  0  0  0  0  0  0
   10.4868   -6.9141    0.0000 C   0  0  2  0  0  0  0  0  0  0  0  0
   10.1506   -6.1608    0.0000 C   0  0  2  0  0  0  0  0  0  0  0  0
   10.6349   -5.4929    0.0000 C   0  0  0  0  0  0  0  0  0  0  0  0
   10.2987   -4.7395    0.0000 C   0  0  0  0  0  0  0  0  0  0  0  0
    9.4782   -4.6540    0.0000 C   0  0  1  0  0  0  0  0  0  0  0  0
    8.9938   -5.3219    0.0000 C   0  0  0  0  0  0  0  0  0  0  0  0
    9.3300   -6.0752    0.0000 N   0  0  0  0  0  0  0  0  0  0  0  0
    8.8457   -6.7431    0.0000 C   0  0  0  0  0  0  0  0  0  0  0  0
    9.1819   -7.4965    0.0000 C   0  0  1  0  0  0  0  0  0  0  0  0
    8.6976   -8.1644    0.0000 C   0  0  2  0  0  0  0  0  0  0  0  0
    4.1351  -10.2990    0.0000 C   0  0  0  0  0  0  0  0  0  0  0  0
    3.4210  -10.7122    0.0000 C   0  0  0  0  0  0  0  0  0  0  0  0
    4.1344   -9.4740    0.0000 O   0  0  0  0  0  0  0  0  0  0  0  0
 17  1  1  6  0  0  0
 23  2  1  6  0  0  0
 26  3  1  1  0  0  0
 30  4  1  6  0  0  0
 32  5  1  6  0  0  0
 39  6  1  1  0  0  0
 40  7  1  6  0  0  0
 35  8  1  1  0  0  0
 31  9  1  6  0  0  0
 18 10  1  1  0  0  0
 21 11  1  1  0  0  0
 24 12  1  6  0  0  0
 27 13  1  6  0  0  0
 29 14  1  1  0  0  0
 31 15  1  1  0  0  0
 37 32  1  0  0  0  0
 39 30  1  0  0  0  0
 23 18  1  0  0  0  0
 26 17  1  0  0  0  0
 40 27  1  0  0  0  0
 40 16  1  0  0  0  0
 17 16  1  0  0  0  0
 18 17  1  0  0  0  0
 19 18  1  0  0  0  0
 20 19  1  0  0  0  0
 21 20  1  0  0  0  0
 22 21  1  0  0  0  0
 23 22  1  0  0  0  0
 24 23  1  0  0  0  0
 25 24  1  0  0  0  0
 26 25  1  0  0  0  0
 27 26  1  0  0  0  0
 28 27  1  0  0  0  0
 29 28  1  0  0  0  0
 30 29  1  0  0  0  0
 31 30  1  0  0  0  0
 32 31  1  0  0  0  0
 33 32  1  0  0  0  0
 34 33  1  0  0  0  0
 35 34  1  0  0  0  0
 36 35  1  0  0  0  0
 37 36  1  0  0  0  0
 38 37  1  0  0  0  0
 39 38  1  0  0  0  0
 40 39  1  0  0  0  0
 11 41  1  0  0  0  0
 41 42  1  0  0  0  0
 41 43  2  0  0  0  0
M  END
>  <cdx:fragmentId>
5

$$$$
