95136.cdx
  Mrv1902 05222410262D          

 34 37  0  0  0  0            999 V2000
    9.3391   -8.2104    0.0000 C   0  0  0  0  0  0  0  0  0  0  0  0
    9.3391   -9.0354    0.0000 C   0  0  0  0  0  0  0  0  0  0  0  0
   10.0535   -9.4479    0.0000 O   0  0  0  0  0  0  0  0  0  0  0  0
    8.6246   -9.4479    0.0000 C   0  0  0  0  0  0  0  0  0  0  0  0
    8.6246  -10.2729    0.0000 O   0  0  0  0  0  0  0  0  0  0  0  0
    7.9101   -9.0354    0.0000 C   0  0  0  0  0  0  0  0  0  0  0  0
    7.1956   -9.4479    0.0000 C   0  0  0  0  0  0  0  0  0  0  0  0
    7.1956  -10.2729    0.0000 O   0  0  0  0  0  0  0  0  0  0  0  0
    6.4812   -9.0354    0.0000 C   0  0  0  0  0  0  0  0  0  0  0  0
    6.4812   -8.2104    0.0000 C   0  0  0  0  0  0  0  0  0  0  0  0
    7.1956   -7.7979    0.0000 C   0  0  0  0  0  0  0  0  0  0  0  0
    7.9101   -8.2104    0.0000 C   0  0  0  0  0  0  0  0  0  0  0  0
    8.6246   -7.7979    0.0000 O   0  0  0  0  0  0  0  0  0  0  0  0
   10.0535   -7.7979    0.0000 C   0  0  0  0  0  0  0  0  0  0  0  0
   10.7680   -8.2104    0.0000 C   0  0  0  0  0  0  0  0  0  0  0  0
   11.4825   -7.7979    0.0000 C   0  0  0  0  0  0  0  0  0  0  0  0
   12.1969   -8.2104    0.0000 O   0  0  0  0  0  0  0  0  0  0  0  0
   11.4825   -6.9729    0.0000 C   0  0  0  0  0  0  0  0  0  0  0  0
   12.1969   -6.5604    0.0000 O   0  0  0  0  0  0  0  0  0  0  0  0
   10.7680   -6.5604    0.0000 C   0  0  0  0  0  0  0  0  0  0  0  0
   10.0535   -6.9729    0.0000 C   0  0  0  0  0  0  0  0  0  0  0  0
    5.7667   -7.7979    0.0000 O   0  0  0  0  0  0  0  0  0  0  0  0
    5.0522   -8.2104    0.0000 C   0  0  1  0  0  0  0  0  0  0  0  0
    5.0522   -9.0354    0.0000 C   0  0  2  0  0  0  0  0  0  0  0  0
    5.7667   -9.4479    0.0000 O   0  0  0  0  0  0  0  0  0  0  0  0
    4.3378   -9.4479    0.0000 C   0  0  1  0  0  0  0  0  0  0  0  0
    4.3378  -10.2729    0.0000 O   0  0  0  0  0  0  0  0  0  0  0  0
    3.6233   -9.0354    0.0000 C   0  0  2  0  0  0  0  0  0  0  0  0
    2.9088   -9.4479    0.0000 O   0  0  0  0  0  0  0  0  0  0  0  0
    3.6233   -8.2104    0.0000 C   0  0  2  0  0  0  0  0  0  0  0  0
    4.3378   -7.7979    0.0000 O   0  0  0  0  0  0  0  0  0  0  0  0
    2.9088   -7.7979    0.0000 C   0  0  0  0  0  0  0  0  0  0  0  0
    2.1944   -8.2104    0.0000 O   0  0  0  0  0  0  0  0  0  0  0  0
    2.9088  -10.2729    0.0000 C   0  0  0  0  0  0  0  0  0  0  0  0
  1  2  2  0  0  0  0
  2  3  1  0  0  0  0
  2  4  1  0  0  0  0
  4  5  2  0  0  0  0
  4  6  1  0  0  0  0
  6  7  1  0  0  0  0
  7  8  1  0  0  0  0
  7  9  2  0  0  0  0
  9 10  1  0  0  0  0
 10 11  2  0  0  0  0
 11 12  1  0  0  0  0
  6 12  2  0  0  0  0
 12 13  1  0  0  0  0
  1 13  1  0  0  0  0
  1 14  1  0  0  0  0
 14 15  1  0  0  0  0
 15 16  2  0  0  0  0
 16 17  1  0  0  0  0
 16 18  1  0  0  0  0
 18 19  1  0  0  0  0
 18 20  2  0  0  0  0
 20 21  1  0  0  0  0
 14 21  2  0  0  0  0
 23 22  1  1  0  0  0
 23 24  1  0  0  0  0
 24 25  1  6  0  0  0
 24 26  1  0  0  0  0
 26 27  1  1  0  0  0
 26 28  1  0  0  0  0
 28 29  1  6  0  0  0
 28 30  1  0  0  0  0
 30 31  1  0  0  0  0
 30 32  1  1  0  0  0
 32 33  1  0  0  0  0
 23 31  1  0  0  0  0
 10 22  1  0  0  0  0
 29 34  1  0  0  0  0
M  END
>  <cdx:groupId>
104

>  <cdx:fragmentId>
5

$$$$
