95131.cdx
  Mrv1902 05222410242D          

 32 34  0  0  0  0            999 V2000
    9.4359   -7.7536    0.0000 C   0  0  0  0  0  0  0  0  0  0  0  0
    9.0200   -8.4660    0.0000 C   0  0  0  0  0  0  0  0  0  0  0  0
    9.4291   -9.1825    0.0000 C   0  0  0  0  0  0  0  0  0  0  0  0
   10.2541   -9.1864    0.0000 C   0  0  0  0  0  0  0  0  0  0  0  0
   10.6700   -8.4740    0.0000 C   0  0  0  0  0  0  0  0  0  0  0  0
   10.2609   -7.7575    0.0000 C   0  0  0  0  0  0  0  0  0  0  0  0
    9.0269   -7.0371    0.0000 O   0  0  0  0  0  0  0  0  0  0  0  0
    8.2019   -7.0371    0.0000 C   0  0  0  0  0  0  0  0  0  0  0  0
    8.1950   -8.4621    0.0000 O   0  0  0  0  0  0  0  0  0  0  0  0
    7.7791   -9.1746    0.0000 C   0  0  2  0  0  0  0  0  0  0  0  0
    6.9541   -9.1686    0.0000 O   0  0  0  0  0  0  0  0  0  0  0  0
    6.5365   -9.8801    0.0000 C   0  0  1  0  0  0  0  0  0  0  0  0
    6.9541  -10.5975    0.0000 C   0  0  2  0  0  0  0  0  0  0  0  0
    7.7791  -10.5975    0.0000 C   0  0  1  0  0  0  0  0  0  0  0  0
    8.1967   -9.8801    0.0000 C   0  0  1  0  0  0  0  0  0  0  0  0
    5.7115   -9.8786    0.0000 C   0  0  0  0  0  0  0  0  0  0  0  0
    8.1903  -11.3127    0.0000 O   0  0  0  0  0  0  0  0  0  0  0  0
    9.0217   -9.8771    0.0000 O   0  0  0  0  0  0  0  0  0  0  0  0
    6.5429  -11.3127    0.0000 O   0  0  0  0  0  0  0  0  0  0  0  0
    5.2977  -10.5924    0.0000 O   0  0  0  0  0  0  0  0  0  0  0  0
    4.4727  -10.5909    0.0000 C   0  0  2  0  0  0  0  0  0  0  0  0
    4.0621   -9.8753    0.0000 O   0  0  0  0  0  0  0  0  0  0  0  0
    3.2371   -9.8753    0.0000 C   0  0  2  0  0  0  0  0  0  0  0  0
    2.8227  -10.5909    0.0000 C   0  0  1  0  0  0  0  0  0  0  0  0
    3.2371  -11.3064    0.0000 C   0  0  2  0  0  0  0  0  0  0  0  0
    4.0621  -11.3064    0.0000 C   0  0  1  0  0  0  0  0  0  0  0  0
    1.9977  -10.5909    0.0000 O   0  0  0  0  0  0  0  0  0  0  0  0
    2.8251  -12.0212    0.0000 O   0  0  0  0  0  0  0  0  0  0  0  0
    4.4756  -12.0204    0.0000 O   0  0  0  0  0  0  0  0  0  0  0  0
    2.8251   -9.1605    0.0000 C   0  0  0  0  0  0  0  0  0  0  0  0
   11.4950   -8.4779    0.0000 C   0  0  0  0  0  0  0  0  0  0  0  0
   11.9075   -9.1924    0.0000 O   0  0  0  0  0  0  0  0  0  0  0  0
  1  2  2  0  0  0  0
  2  3  1  0  0  0  0
  3  4  2  0  0  0  0
  4  5  1  0  0  0  0
  5  6  2  0  0  0  0
  6  1  1  0  0  0  0
  1  7  1  0  0  0  0
  7  8  1  0  0  0  0
  2  9  1  0  0  0  0
 10  9  1  1  0  0  0
 10 11  1  0  0  0  0
 11 12  1  0  0  0  0
 12 13  1  0  0  0  0
 13 14  1  0  0  0  0
 14 15  1  0  0  0  0
 15 10  1  0  0  0  0
 12 16  1  1  0  0  0
 14 17  1  1  0  0  0
 15 18  1  6  0  0  0
 13 19  1  6  0  0  0
 16 20  1  0  0  0  0
 21 20  1  1  0  0  0
 21 22  1  0  0  0  0
 22 23  1  0  0  0  0
 23 24  1  0  0  0  0
 24 25  1  0  0  0  0
 25 26  1  0  0  0  0
 26 21  1  0  0  0  0
 24 27  1  1  0  0  0
 25 28  1  6  0  0  0
 26 29  1  6  0  0  0
 23 30  1  6  0  0  0
  5 31  1  0  0  0  0
 31 32  1  0  0  0  0
M  END
>  <cdx:fragmentId>
147303

$$$$
