95130.cdx
  Mrv1902 05222410242D          

 33 36  0  0  0  0            999 V2000
    6.1880   -8.3600    0.0000 C   0  0  0  0  0  0  0  0  0  0  0  0
    6.1880   -9.1850    0.0000 C   0  0  2  0  0  0  0  0  0  0  0  0
    6.9025   -9.5975    0.0000 C   0  0  1  0  0  0  0  0  0  0  0  0
    7.6170   -9.1850    0.0000 C   0  0  1  0  0  0  0  0  0  0  0  0
    7.6170   -8.3600    0.0000 C   0  0  2  0  0  0  0  0  0  0  0  0
    6.9025   -7.9475    0.0000 C   0  0  0  0  0  0  0  0  0  0  0  0
    8.3314   -9.5975    0.0000 C   0  0  1  0  0  0  0  0  0  0  0  0
    9.0459   -9.1850    0.0000 C   0  0  0  0  0  0  0  0  0  0  0  0
    9.0459   -8.3600    0.0000 C   0  0  0  0  0  0  0  0  0  0  0  0
    8.3314   -7.9475    0.0000 C   0  0  1  0  0  0  0  0  0  0  0  0
    9.8305   -9.4399    0.0000 O   0  0  0  0  0  0  0  0  0  0  0  0
   10.3155   -8.7725    0.0000 C   0  0  0  0  0  0  0  0  0  0  0  0
    9.8305   -8.1051    0.0000 C   0  0  0  0  0  0  0  0  0  0  0  0
    8.7439  -10.3120    0.0000 C   0  0  0  0  0  0  0  0  0  0  0  0
    7.9189  -10.3120    0.0000 O   0  0  0  0  0  0  0  0  0  0  0  0
    8.3314   -7.1225    0.0000 O   0  0  0  0  0  0  0  0  0  0  0  0
    7.6170   -7.5350    0.0000 C   0  0  0  0  0  0  0  0  0  0  0  0
    6.9025  -10.4225    0.0000 C   0  0  0  0  0  0  0  0  0  0  0  0
    5.4736   -9.5975    0.0000 O   0  0  0  0  0  0  0  0  0  0  0  0
    7.6170  -10.0100    0.0000 H   0  0  0  0  0  0  0  0  0  0  0  0
    4.7591   -9.1850    0.0000 C   0  0  2  0  0  0  0  0  0  0  0  0
    4.7591   -8.3600    0.0000 O   0  0  0  0  0  0  0  0  0  0  0  0
    4.0446   -7.9475    0.0000 C   0  0  1  0  0  0  0  0  0  0  0  0
    3.3301   -8.3600    0.0000 C   0  0  2  0  0  0  0  0  0  0  0  0
    3.3301   -9.1850    0.0000 C   0  0  1  0  0  0  0  0  0  0  0  0
    4.0446   -9.5975    0.0000 C   0  0  1  0  0  0  0  0  0  0  0  0
    4.0446   -7.1225    0.0000 C   0  0  0  0  0  0  0  0  0  0  0  0
    2.6157   -9.5975    0.0000 O   0  0  0  0  0  0  0  0  0  0  0  0
    4.0446  -10.4225    0.0000 O   0  0  0  0  0  0  0  0  0  0  0  0
    2.6157   -7.9475    0.0000 O   0  0  0  0  0  0  0  0  0  0  0  0
    3.3301   -6.7100    0.0000 O   0  0  0  0  0  0  0  0  0  0  0  0
    8.3314  -11.0264    0.0000 O   0  0  0  0  0  0  0  0  0  0  0  0
    9.5689  -10.3120    0.0000 O   0  0  0  0  0  0  0  0  0  0  0  0
  1  2  1  0  0  0  0
  2  3  1  0  0  0  0
  3  4  1  0  0  0  0
  4  5  1  0  0  0  0
  5  6  1  0  0  0  0
  6  1  1  0  0  0  0
  4  7  1  0  0  0  0
  7  8  1  0  0  0  0
  8  9  2  0  0  0  0
  9 10  1  0  0  0  0
 10  5  1  0  0  0  0
  8 11  1  0  0  0  0
 11 12  1  0  0  0  0
 12 13  2  0  0  0  0
 13  9  1  0  0  0  0
  7 14  1  1  0  0  0
  7 15  1  6  0  0  0
 10 16  1  6  0  0  0
  5 17  1  1  0  0  0
  3 18  1  1  0  0  0
  2 19  1  6  0  0  0
  4 20  1  6  0  0  0
 21 19  1  1  0  0  0
 21 22  1  0  0  0  0
 22 23  1  0  0  0  0
 23 24  1  0  0  0  0
 24 25  1  0  0  0  0
 25 26  1  0  0  0  0
 26 21  1  0  0  0  0
 23 27  1  1  0  0  0
 25 28  1  1  0  0  0
 26 29  1  6  0  0  0
 24 30  1  6  0  0  0
 27 31  1  0  0  0  0
 14 32  1  0  0  0  0
 14 33  2  0  0  0  0
M  END
>  <cdx:fragmentId>
147179

$$$$
