95137.cdx
  Mrv1902 05222410252D          

 18 19  0  0  0  0            999 V2000
    5.7647   -7.6022    0.0000 C   0  0  2  0  0  0  0  0  0  0  0  0
    5.0530   -8.0194    0.0000 C   0  0  0  0  0  0  0  0  0  0  0  0
    5.0585   -8.8444    0.0000 C   0  0  0  0  0  0  0  0  0  0  0  0
    5.7757   -9.2521    0.0000 C   0  0  0  0  0  0  0  0  0  0  0  0
    5.7812  -10.0771    0.0000 C   0  0  0  0  0  0  0  0  0  0  0  0
    6.4874   -8.8349    0.0000 C   0  0  2  0  0  0  0  0  0  0  0  0
    6.4929   -9.6599    0.0000 H   0  0  0  0  0  0  0  0  0  0  0  0
    7.2046   -9.2426    0.0000 C   0  0  2  0  0  0  0  0  0  0  0  0
    7.9163   -8.8254    0.0000 C   0  0  2  0  0  0  0  0  0  0  0  0
    8.6335   -9.2331    0.0000 C   0  0  0  0  0  0  0  0  0  0  0  0
    8.6390  -10.0581    0.0000 C   0  0  0  0  0  0  0  0  0  0  0  0
    9.3452   -8.8159    0.0000 C   0  0  0  0  0  0  0  0  0  0  0  0
    7.9108   -8.0004    0.0000 C   0  0  0  0  0  0  0  0  0  0  0  0
    7.1936   -7.5927    0.0000 C   0  0  0  0  0  0  0  0  0  0  0  0
    6.4819   -8.0099    0.0000 C   0  0  1  0  0  0  0  0  0  0  0  0
    6.4764   -7.1849    0.0000 C   0  0  0  0  0  0  0  0  0  0  0  0
    5.7592   -6.7772    0.0000 O   0  0  0  0  0  0  0  0  0  0  0  0
    7.2101  -10.0676    0.0000 O   0  0  0  0  0  0  0  0  0  0  0  0
  1  2  1  0  0  0  0
  2  3  1  0  0  0  0
  3  4  1  0  0  0  0
  4  5  2  0  0  0  0
  4  6  1  0  0  0  0
  6  7  1  6  0  0  0
  6  8  1  0  0  0  0
  8  9  1  0  0  0  0
  9 10  1  1  0  0  0
 10 11  1  0  0  0  0
 10 12  1  0  0  0  0
  9 13  1  0  0  0  0
 13 14  1  0  0  0  0
 14 15  1  0  0  0  0
 15 16  1  1  0  0  0
  6 15  1  0  0  0  0
  1 15  1  0  0  0  0
  1 17  1  1  0  0  0
  8 18  1  6  0  0  0
M  END
>  <cdx:fragmentId>
5

$$$$
