95133.cdx
  Mrv1902 05222410242D          

 48 52  0  0  0  0            999 V2000
   10.0535   -9.0354    0.0000 C   0  0  0  0  0  0  0  0  0  0  0  0
   10.0535   -9.8604    0.0000 C   0  0  0  0  0  0  0  0  0  0  0  0
    9.3391  -10.2729    0.0000 C   0  0  0  0  0  0  0  0  0  0  0  0
    9.3391  -11.0979    0.0000 O   0  0  0  0  0  0  0  0  0  0  0  0
    8.6246   -9.8604    0.0000 C   0  0  0  0  0  0  0  0  0  0  0  0
    7.9101  -10.2729    0.0000 C   0  0  0  0  0  0  0  0  0  0  0  0
    7.1956   -9.8604    0.0000 C   0  0  0  0  0  0  0  0  0  0  0  0
    7.1956   -9.0354    0.0000 C   0  0  0  0  0  0  0  0  0  0  0  0
    7.9101   -8.6229    0.0000 C   0  0  0  0  0  0  0  0  0  0  0  0
    8.6246   -9.0354    0.0000 C   0  0  0  0  0  0  0  0  0  0  0  0
    9.3391   -8.6229    0.0000 O   0  0  0  0  0  0  0  0  0  0  0  0
   10.7680   -8.6229    0.0000 C   0  0  0  0  0  0  0  0  0  0  0  0
   10.7680   -7.7979    0.0000 C   0  0  0  0  0  0  0  0  0  0  0  0
   11.4825   -7.3854    0.0000 C   0  0  0  0  0  0  0  0  0  0  0  0
   12.1969   -7.7979    0.0000 C   0  0  0  0  0  0  0  0  0  0  0  0
   12.1969   -8.6229    0.0000 C   0  0  0  0  0  0  0  0  0  0  0  0
   11.4825   -9.0354    0.0000 C   0  0  0  0  0  0  0  0  0  0  0  0
   10.7680  -10.2729    0.0000 O   0  0  0  0  0  0  0  0  0  0  0  0
    7.9101  -11.0979    0.0000 O   0  0  0  0  0  0  0  0  0  0  0  0
   12.9114   -7.3854    0.0000 O   0  0  0  0  0  0  0  0  0  0  0  0
    7.9101   -7.7979    0.0000 C   0  0  0  0  0  0  0  0  0  0  0  0
    7.1956   -7.3854    0.0000 C   0  0  0  0  0  0  0  0  0  0  0  0
    7.1956   -6.5604    0.0000 C   0  0  0  0  0  0  0  0  0  0  0  0
    7.9101   -6.1479    0.0000 C   0  0  0  0  0  0  0  0  0  0  0  0
    6.4812   -6.1479    0.0000 C   0  0  0  0  0  0  0  0  0  0  0  0
    2.7514  -12.1771    0.0000 O   0  0  0  0  0  0  0  0  0  0  0  0
    3.1673  -11.4647    0.0000 C   0  0  0  0  0  0  0  0  0  0  0  0
    4.4083  -10.7562    0.0000 O   0  0  0  0  0  0  0  0  0  0  0  0
    3.9923  -11.4687    0.0000 C   0  0  1  0  0  0  0  0  0  0  0  0
    3.9854  -12.8976    0.0000 O   0  0  0  0  0  0  0  0  0  0  0  0
    4.4013  -12.1851    0.0000 C   0  0  1  0  0  0  0  0  0  0  0  0
    5.6354  -12.9056    0.0000 O   0  0  0  0  0  0  0  0  0  0  0  0
    5.2263  -12.1892    0.0000 C   0  0  2  0  0  0  0  0  0  0  0  0
    6.4673  -11.4807    0.0000 O   0  0  0  0  0  0  0  0  0  0  0  0
    5.6423  -11.4767    0.0000 C   0  0  1  0  0  0  0  0  0  0  0  0
    5.2333  -10.7602    0.0000 C   0  0  2  0  0  0  0  0  0  0  0  0
    3.1882   -7.1779    0.0000 O   0  0  0  0  0  0  0  0  0  0  0  0
    4.0132   -7.1819    0.0000 C   0  0  0  0  0  0  0  0  0  0  0  0
    5.2472   -7.9024    0.0000 O   0  0  0  0  0  0  0  0  0  0  0  0
    4.4222   -7.8984    0.0000 C   0  0  1  0  0  0  0  0  0  0  0  0
    3.1812   -8.6068    0.0000 O   0  0  0  0  0  0  0  0  0  0  0  0
    4.0062   -8.6108    0.0000 C   0  0  1  0  0  0  0  0  0  0  0  0
    3.9993  -10.0398    0.0000 O   0  0  0  0  0  0  0  0  0  0  0  0
    4.4152   -9.3273    0.0000 C   0  0  2  0  0  0  0  0  0  0  0  0
    5.6492  -10.0478    0.0000 O   0  0  0  0  0  0  0  0  0  0  0  0
    5.2402   -9.3313    0.0000 C   0  0  1  0  0  0  0  0  0  0  0  0
    5.6562   -8.6188    0.0000 C   0  0  2  0  0  0  0  0  0  0  0  0
    6.4812   -8.6229    0.0000 O   0  0  0  0  0  0  0  0  0  0  0  0
 36 45  1  1  0  0  0
 36 28  1  0  0  0  0
 27 26  1  0  0  0  0
 29 27  1  1  0  0  0
 29 28  1  0  0  0  0
 31 29  1  0  0  0  0
 31 30  1  6  0  0  0
 33 31  1  0  0  0  0
 33 32  1  1  0  0  0
 35 33  1  0  0  0  0
 35 34  1  6  0  0  0
 36 35  1  0  0  0  0
 47 39  1  0  0  0  0
 38 37  1  0  0  0  0
 40 38  1  1  0  0  0
 40 39  1  0  0  0  0
 42 40  1  0  0  0  0
 42 41  1  6  0  0  0
 44 42  1  0  0  0  0
 44 43  1  1  0  0  0
 46 44  1  0  0  0  0
 46 45  1  6  0  0  0
 47 46  1  0  0  0  0
  1  2  2  0  0  0  0
  2  3  1  0  0  0  0
  3  4  2  0  0  0  0
  3  5  1  0  0  0  0
  5  6  1  0  0  0  0
  6  7  2  0  0  0  0
  7  8  1  0  0  0  0
  8  9  2  0  0  0  0
  9 10  1  0  0  0  0
  5 10  2  0  0  0  0
 10 11  1  0  0  0  0
  1 11  1  0  0  0  0
  1 12  1  0  0  0  0
 12 13  1  0  0  0  0
 13 14  2  0  0  0  0
 14 15  1  0  0  0  0
 15 16  2  0  0  0  0
 16 17  1  0  0  0  0
 12 17  2  0  0  0  0
  2 18  1  0  0  0  0
  6 19  1  0  0  0  0
 15 20  1  0  0  0  0
 21 22  1  0  0  0  0
 22 23  2  0  0  0  0
 23 24  1  0  0  0  0
 23 25  1  0  0  0  0
  9 21  1  0  0  0  0
 47 48  1  1  0  0  0
  8 48  1  0  0  0  0
M  END
>  <cdx:groupId>
150

>  <cdx:fragmentId>
5

$$$$
