95145.cdx
  Mrv1902 05222410262D          

 23 25  0  0  0  0            999 V2000
    8.0143   -7.1913    0.0000 C   0  0  1  0  0  0  0  0  0  0  0  0
    8.0143   -8.0162    0.0000 C   0  0  0  0  0  0  0  0  0  0  0  0
    8.7288   -8.4288    0.0000 C   0  0  1  0  0  0  0  0  0  0  0  0
    9.4432   -8.0162    0.0000 C   0  0  0  0  0  0  0  0  0  0  0  0
    9.4432   -7.1913    0.0000 C   0  0  0  0  0  0  0  0  0  0  0  0
    8.7288   -6.7788    0.0000 C   0  0  2  0  0  0  0  0  0  0  0  0
    8.7288   -5.9538    0.0000 C   0  0  0  0  0  0  0  0  0  0  0  0
    9.1413   -7.4932    0.0000 O   0  0  0  0  0  0  0  0  0  0  0  0
    7.2998   -6.7788    0.0000 O   0  0  0  0  0  0  0  0  0  0  0  0
    6.5854   -7.1913    0.0000 C   0  0  2  0  0  0  0  0  0  0  0  0
    5.8709   -6.7788    0.0000 O   0  0  0  0  0  0  0  0  0  0  0  0
    5.1564   -7.1913    0.0000 C   0  0  1  0  0  0  0  0  0  0  0  0
    5.1564   -8.0162    0.0000 C   0  0  2  0  0  0  0  0  0  0  0  0
    5.8709   -8.4287    0.0000 C   0  0  1  0  0  0  0  0  0  0  0  0
    6.5854   -8.0162    0.0000 C   0  0  1  0  0  0  0  0  0  0  0  0
    4.4419   -6.7788    0.0000 C   0  0  0  0  0  0  0  0  0  0  0  0
    5.8709   -9.2537    0.0000 O   0  0  0  0  0  0  0  0  0  0  0  0
    4.4419   -8.4288    0.0000 O   0  0  0  0  0  0  0  0  0  0  0  0
    7.2998   -8.4288    0.0000 O   0  0  0  0  0  0  0  0  0  0  0  0
    3.7275   -7.1913    0.0000 O   0  0  0  0  0  0  0  0  0  0  0  0
    8.7288   -9.2538    0.0000 C   0  0  2  0  0  0  0  0  0  0  0  0
    9.4432   -9.6662    0.0000 C   0  0  0  0  0  0  0  0  0  0  0  0
    8.0143   -9.6662    0.0000 C   0  0  0  0  0  0  0  0  0  0  0  0
  1  2  1  0  0  0  0
  2  3  1  0  0  0  0
  3  4  1  0  0  0  0
  4  5  1  0  0  0  0
  5  6  1  0  0  0  0
  6  1  1  0  0  0  0
  6  7  1  6  0  0  0
  6  8  1  1  0  0  0
  1  9  1  6  0  0  0
 10  9  1  1  0  0  0
 10 11  1  0  0  0  0
 11 12  1  0  0  0  0
 12 13  1  0  0  0  0
 13 14  1  0  0  0  0
 14 15  1  0  0  0  0
 15 10  1  0  0  0  0
 12 16  1  1  0  0  0
 14 17  1  1  0  0  0
 13 18  1  6  0  0  0
 15 19  1  6  0  0  0
 16 20  1  0  0  0  0
  3 21  1  1  0  0  0
 21 22  1  0  0  0  0
 21 23  1  0  0  0  0
 21  8  1  1  0  0  0
M  END
>  <cdx:fragmentId>
5

$$$$
