95143.cdx
  Mrv1902 05222410272D          

 27 32  0  0  0  0            999 V2000
    4.6043   -7.0675    0.0000 C   0  0  0  0  0  0  0  0  0  0  0  0
    4.6043   -7.8925    0.0000 C   0  0  0  0  0  0  0  0  0  0  0  0
    5.3188   -8.3050    0.0000 C   0  0  0  0  0  0  0  0  0  0  0  0
    6.0332   -7.8925    0.0000 C   0  0  0  0  0  0  0  0  0  0  0  0
    6.0332   -7.0675    0.0000 C   0  0  0  0  0  0  0  0  0  0  0  0
    5.3188   -6.6550    0.0000 C   0  0  0  0  0  0  0  0  0  0  0  0
    6.7477   -8.3050    0.0000 C   0  0  0  0  0  0  0  0  0  0  0  0
    7.4622   -7.8925    0.0000 N   0  0  0  0  0  0  0  0  0  0  0  0
    7.4622   -7.0675    0.0000 C   0  0  1  0  0  0  0  0  0  0  0  0
    6.7477   -6.6550    0.0000 C   0  0  2  0  0  0  0  0  0  0  0  0
    3.9912   -8.4445    0.0000 O   0  0  0  0  0  0  0  0  0  0  0  0
    4.3268   -9.1982    0.0000 C   0  0  0  0  0  0  0  0  0  0  0  0
    5.1472   -9.1120    0.0000 O   0  0  0  0  0  0  0  0  0  0  0  0
    8.2159   -7.4031    0.0000 C   0  0  0  0  0  0  0  0  0  0  0  0
    8.7679   -6.7900    0.0000 C   0  0  0  0  0  0  0  0  0  0  0  0
    8.3554   -6.0755    0.0000 C   0  0  0  0  0  0  0  0  0  0  0  0
    7.5484   -6.2470    0.0000 C   0  0  0  0  0  0  0  0  0  0  0  0
    8.4708   -8.1877    0.0000 C   0  0  0  0  0  0  0  0  0  0  0  0
    9.2778   -8.3592    0.0000 C   0  0  0  0  0  0  0  0  0  0  0  0
    9.8298   -7.7461    0.0000 C   0  0  0  0  0  0  0  0  0  0  0  0
    9.5749   -6.9615    0.0000 C   0  0  0  0  0  0  0  0  0  0  0  0
    9.6903   -9.0737    0.0000 O   0  0  0  0  0  0  0  0  0  0  0  0
   10.4972   -8.9022    0.0000 C   0  0  0  0  0  0  0  0  0  0  0  0
   10.5835   -8.0817    0.0000 O   0  0  0  0  0  0  0  0  0  0  0  0
    6.7477   -9.1300    0.0000 O   0  0  0  0  0  0  0  0  0  0  0  0
    8.1767   -8.3050    0.0000 C   0  0  0  0  0  0  0  0  0  0  0  0
    6.7477   -5.8300    0.0000 O   0  0  0  0  0  0  0  0  0  0  0  0
  1  2  2  0  0  0  0
  2  3  1  0  0  0  0
  3  4  2  0  0  0  0
  4  5  1  0  0  0  0
  5  6  2  0  0  0  0
  6  1  1  0  0  0  0
  4  7  1  0  0  0  0
  7  8  1  0  0  0  0
  8  9  1  0  0  0  0
  9 10  1  0  0  0  0
 10  5  1  0  0  0  0
  2 11  1  0  0  0  0
 11 12  1  0  0  0  0
 12 13  1  0  0  0  0
 13  3  1  0  0  0  0
  9 14  1  1  0  0  0
 14 15  2  0  0  0  0
 15 16  1  0  0  0  0
 16 17  2  0  0  0  0
  9 17  1  6  0  0  0
 14 18  1  0  0  0  0
 18 19  2  0  0  0  0
 19 20  1  0  0  0  0
 20 21  2  0  0  0  0
 21 15  1  0  0  0  0
 19 22  1  0  0  0  0
 22 23  1  0  0  0  0
 23 24  1  0  0  0  0
 24 20  1  0  0  0  0
  7 25  2  0  0  0  0
  8 26  1  0  0  0  0
 10 27  1  1  0  0  0
M  END
>  <cdx:fragmentId>
5

$$$$
