95148.cdx
  Mrv1902 05222410202D          

 19 21  0  0  0  0            999 V2000
    7.7656   -8.9295    0.0000 C   0  0  0  0  0  0  0  0  0  0  0  0
    8.4801   -9.3420    0.0000 N   0  0  0  0  0  0  0  0  0  0  0  0
    8.4801  -10.1670    0.0000 C   0  0  0  0  0  0  0  0  0  0  0  0
    7.7656  -10.5795    0.0000 C   0  0  0  0  0  0  0  0  0  0  0  0
    7.0512  -10.1670    0.0000 C   0  0  0  0  0  0  0  0  0  0  0  0
    6.3367  -10.5795    0.0000 C   0  0  0  0  0  0  0  0  0  0  0  0
    5.6222  -10.1670    0.0000 C   0  0  0  0  0  0  0  0  0  0  0  0
    5.6222   -9.3420    0.0000 C   0  0  0  0  0  0  0  0  0  0  0  0
    6.3367   -8.9295    0.0000 C   0  0  0  0  0  0  0  0  0  0  0  0
    7.0512   -9.3420    0.0000 C   0  0  0  0  0  0  0  0  0  0  0  0
    8.4331   -7.6196    0.0000 O   0  0  0  0  0  0  0  0  0  0  0  0
    7.7656   -8.1045    0.0000 C   0  0  0  0  0  0  0  0  0  0  0  0
    7.0982   -7.6196    0.0000 C   0  0  0  0  0  0  0  0  0  0  0  0
    7.3531   -6.8349    0.0000 C   0  0  0  0  0  0  0  0  0  0  0  0
    8.1781   -6.8349    0.0000 C   0  0  0  0  0  0  0  0  0  0  0  0
    8.6631   -6.1675    0.0000 C   0  0  0  0  0  0  0  0  0  0  0  0
    9.4835   -6.2537    0.0000 O   0  0  0  0  0  0  0  0  0  0  0  0
    4.9078   -8.9295    0.0000 O   0  0  0  0  0  0  0  0  0  0  0  0
    4.9078  -10.5795    0.0000 O   0  0  0  0  0  0  0  0  0  0  0  0
  1  2  1  0  0  0  0
  2  3  1  0  0  0  0
  3  4  1  0  0  0  0
  4  5  1  0  0  0  0
  5  6  1  0  0  0  0
  6  7  2  0  0  0  0
  7  8  1  0  0  0  0
  8  9  2  0  0  0  0
  9 10  1  0  0  0  0
  1 10  1  0  0  0  0
  5 10  2  0  0  0  0
 11 12  1  0  0  0  0
 12 13  2  0  0  0  0
 13 14  1  0  0  0  0
 14 15  2  0  0  0  0
 11 15  1  0  0  0  0
 16 17  1  0  0  0  0
 15 16  1  0  0  0  0
  1 12  1  0  0  0  0
  8 18  1  0  0  0  0
  7 19  1  0  0  0  0
M  END
>  <cdx:groupId>
61

>  <cdx:fragmentId>
5

$$$$
