95149.cdx
  Mrv1902 05222410202D          

 16 17  0  0  0  0            999 V2000
    8.0596   -8.5594    0.0000 C   0  0  0  0  0  0  0  0  0  0  0  0
    8.7741   -8.9719    0.0000 N   0  0  0  0  0  0  0  0  0  0  0  0
    8.7741   -9.7969    0.0000 C   0  0  0  0  0  0  0  0  0  0  0  0
    8.0596  -10.2094    0.0000 C   0  0  0  0  0  0  0  0  0  0  0  0
    7.3451   -9.7969    0.0000 C   0  0  0  0  0  0  0  0  0  0  0  0
    6.6307  -10.2094    0.0000 C   0  0  0  0  0  0  0  0  0  0  0  0
    5.9162   -9.7969    0.0000 C   0  0  0  0  0  0  0  0  0  0  0  0
    5.9162   -8.9719    0.0000 C   0  0  0  0  0  0  0  0  0  0  0  0
    6.6307   -8.5594    0.0000 C   0  0  0  0  0  0  0  0  0  0  0  0
    7.3451   -8.9719    0.0000 C   0  0  0  0  0  0  0  0  0  0  0  0
    8.0596   -7.7344    0.0000 C   0  0  0  0  0  0  0  0  0  0  0  0
    8.7741   -7.3219    0.0000 C   0  0  0  0  0  0  0  0  0  0  0  0
    9.4885   -7.7344    0.0000 C   0  0  0  0  0  0  0  0  0  0  0  0
    8.7741   -6.4969    0.0000 C   0  0  0  0  0  0  0  0  0  0  0  0
    5.2017   -8.5594    0.0000 O   0  0  0  0  0  0  0  0  0  0  0  0
    5.2017  -10.2094    0.0000 O   0  0  0  0  0  0  0  0  0  0  0  0
  1  2  1  0  0  0  0
  2  3  1  0  0  0  0
  3  4  1  0  0  0  0
  4  5  1  0  0  0  0
  5  6  1  0  0  0  0
  6  7  2  0  0  0  0
  7  8  1  0  0  0  0
  8  9  2  0  0  0  0
  9 10  1  0  0  0  0
  1 10  1  0  0  0  0
  5 10  2  0  0  0  0
 11 12  1  0  0  0  0
 12 13  1  0  0  0  0
 14 12  1  0  0  0  0
  1 11  1  0  0  0  0
  8 15  1  0  0  0  0
  7 16  1  0  0  0  0
M  END
>  <cdx:groupId>
51

>  <cdx:fragmentId>
5

$$$$
