951463.cdx
  Mrv1902 05222410202D          

 40 43  0  0  0  0            999 V2000
    3.1169  -13.7477    0.0000 C   0  0  0  0  0  0  0  0  0  0  0  0
    2.4024  -14.1602    0.0000 C   0  0  0  0  0  0  0  0  0  0  0  0
    3.1169  -12.9227    0.0000 O   0  0  0  0  0  0  0  0  0  0  0  0
    3.8314  -14.1602    0.0000 O   0  0  0  0  0  0  0  0  0  0  0  0
    5.2603  -12.5102    0.0000 C   0  0  0  0  0  0  0  0  0  0  0  0
    4.5459  -12.9227    0.0000 C   0  0  1  0  0  0  0  0  0  0  0  0
    4.5459  -13.7477    0.0000 C   0  0  1  0  0  0  0  0  0  0  0  0
    5.2603  -14.1602    0.0000 C   0  0  0  0  0  0  0  0  0  0  0  0
    5.9748  -13.7477    0.0000 C   0  0  1  0  0  0  0  0  0  0  0  0
    6.6893  -14.1602    0.0000 C   0  0  0  0  0  0  0  0  0  0  0  0
    7.4037  -13.7477    0.0000 C   0  0  0  0  0  0  0  0  0  0  0  0
    7.4037  -12.9227    0.0000 C   0  0  0  0  0  0  0  0  0  0  0  0
    8.1182  -12.5102    0.0000 C   0  0  2  0  0  0  0  0  0  0  0  0
    8.9028  -12.7651    0.0000 C   0  0  0  0  0  0  0  0  0  0  0  0
    9.3878  -12.0977    0.0000 C   0  0  0  0  0  0  0  0  0  0  0  0
    8.9028  -11.4302    0.0000 C   0  0  1  0  0  0  0  0  0  0  0  0
    8.1182  -11.6852    0.0000 C   0  0  1  0  0  0  0  0  0  0  0  0
    7.4037  -11.2727    0.0000 C   0  0  0  0  0  0  0  0  0  0  0  0
    6.6893  -11.6852    0.0000 C   0  0  0  0  0  0  0  0  0  0  0  0
    6.6893  -12.5102    0.0000 C   0  0  2  0  0  0  0  0  0  0  0  0
    5.9748  -12.9227    0.0000 C   0  0  1  0  0  0  0  0  0  0  0  0
    8.9862   -9.8386    0.0000 C   0  0  0  0  0  0  0  0  0  0  0  0
    9.1578  -10.6456    0.0000 C   0  0  2  0  0  0  0  0  0  0  0  0
    9.9647  -10.4741    0.0000 C   0  0  1  0  0  0  0  0  0  0  0  0
   10.2197   -9.6895    0.0000 C   0  0  0  0  0  0  0  0  0  0  0  0
   11.0267   -9.5179    0.0000 C   0  0  0  0  0  0  0  0  0  0  0  0
   11.2816   -8.7333    0.0000 C   0  0  0  0  0  0  0  0  0  0  0  0
   10.4847   -8.5198    0.0000 C   0  0  0  0  0  0  0  0  0  0  0  0
   12.0785   -8.9468    0.0000 C   0  0  0  0  0  0  0  0  0  0  0  0
   11.5365   -7.9487    0.0000 O   0  0  0  0  0  0  0  0  0  0  0  0
   10.5168  -11.0872    0.0000 O   0  0  0  0  0  0  0  0  0  0  0  0
    8.3732  -10.3907    0.0000 O   0  0  0  0  0  0  0  0  0  0  0  0
    6.6893  -14.9852    0.0000 O   0  0  0  0  0  0  0  0  0  0  0  0
    8.1182  -10.8602    0.0000 C   0  0  0  0  0  0  0  0  0  0  0  0
    5.9748  -12.0977    0.0000 C   0  0  0  0  0  0  0  0  0  0  0  0
    8.1182  -13.3352    0.0000 O   0  0  0  0  0  0  0  0  0  0  0  0
    3.8314  -12.5102    0.0000 O   0  0  0  0  0  0  0  0  0  0  0  0
    5.9748  -14.5727    0.0000 H   0  0  0  0  0  0  0  0  0  0  0  0
    6.6893  -13.3352    0.0000 H   0  0  0  0  0  0  0  0  0  0  0  0
    9.6875  -11.1753    0.0000 H   0  0  0  0  0  0  0  0  0  0  0  0
  1  2  1  0  0  0  0
  1  3  2  0  0  0  0
  1  4  1  0  0  0  0
  5  6  1  0  0  0  0
  6  7  1  0  0  0  0
  7  8  1  0  0  0  0
  8  9  1  0  0  0  0
  9 10  1  0  0  0  0
 10 11  1  0  0  0  0
 11 12  2  0  0  0  0
 12 13  1  0  0  0  0
 13 14  1  0  0  0  0
 14 15  1  0  0  0  0
 16 15  1  0  0  0  0
 16 17  1  0  0  0  0
 13 17  1  0  0  0  0
 17 18  1  0  0  0  0
 18 19  1  0  0  0  0
 19 20  1  0  0  0  0
 12 20  1  0  0  0  0
 20 21  1  0  0  0  0
  9 21  1  0  0  0  0
  5 21  1  0  0  0  0
 23 22  1  6  0  0  0
 23 24  1  0  0  0  0
 24 25  1  0  0  0  0
 25 26  1  0  0  0  0
 26 27  1  0  0  0  0
 27 28  1  0  0  0  0
 27 29  1  0  0  0  0
 27 30  1  0  0  0  0
 24 31  1  1  0  0  0
 23 32  1  1  0  0  0
 16 23  1  0  0  0  0
 10 33  2  0  0  0  0
 17 34  1  1  0  0  0
 21 35  1  1  0  0  0
 13 36  1  6  0  0  0
  6 37  1  1  0  0  0
  7  4  1  1  0  0  0
  9 38  1  1  0  0  0
 20 39  1  6  0  0  0
 16 40  1  6  0  0  0
M  END
>  <cdx:groupId>
63581

>  <cdx:fragmentId>
63472

$$$$
