95144.cdx
  Mrv1902 05222410262D          

 28 29  0  0  0  0            999 V2000
    6.2279   -7.1913    0.0000 O   0  0  0  0  0  0  0  0  0  0  0  0
    5.5134   -7.6037    0.0000 C   0  0  2  0  0  0  0  0  0  0  0  0
    4.7989   -7.1912    0.0000 O   0  0  0  0  0  0  0  0  0  0  0  0
    4.0844   -7.6037    0.0000 C   0  0  1  0  0  0  0  0  0  0  0  0
    4.0844   -8.4288    0.0000 C   0  0  2  0  0  0  0  0  0  0  0  0
    4.7989   -8.8413    0.0000 C   0  0  1  0  0  0  0  0  0  0  0  0
    5.5134   -8.4288    0.0000 C   0  0  1  0  0  0  0  0  0  0  0  0
    3.3700   -7.1913    0.0000 C   0  0  0  0  0  0  0  0  0  0  0  0
    4.7989   -9.6662    0.0000 O   0  0  0  0  0  0  0  0  0  0  0  0
    3.3700   -8.8413    0.0000 O   0  0  0  0  0  0  0  0  0  0  0  0
    6.2279   -8.8413    0.0000 O   0  0  0  0  0  0  0  0  0  0  0  0
    2.6555   -7.6037    0.0000 O   0  0  0  0  0  0  0  0  0  0  0  0
    6.2279   -6.3662    0.0000 C   0  0  0  0  0  0  0  0  0  0  0  0
    7.0529   -6.3662    0.0000 C   0  0  0  0  0  0  0  0  0  0  0  0
    5.4029   -6.3662    0.0000 C   0  0  0  0  0  0  0  0  0  0  0  0
    6.2279   -5.5413    0.0000 C   0  0  2  0  0  0  0  0  0  0  0  0
    6.8953   -5.0563    0.0000 C   0  0  1  0  0  0  0  0  0  0  0  0
    6.6404   -4.2717    0.0000 O   0  0  0  0  0  0  0  0  0  0  0  0
    5.8154   -4.2717    0.0000 C   0  0  0  0  0  0  0  0  0  0  0  0
    5.5604   -5.0563    0.0000 C   0  0  0  0  0  0  0  0  0  0  0  0
    5.3304   -3.6043    0.0000 O   0  0  0  0  0  0  0  0  0  0  0  0
    5.5134   -5.9538    0.0000 H   0  0  0  0  0  0  0  0  0  0  0  0
    7.7203   -5.0563    0.0000 C   0  0  0  0  0  0  0  0  0  0  0  0
    7.1088   -5.8532    0.0000 C   0  0  0  0  0  0  0  0  0  0  0  0
    8.1328   -4.3419    0.0000 C   0  0  0  0  0  0  0  0  0  0  0  0
    8.9578   -4.3419    0.0000 C   0  0  0  0  0  0  0  0  0  0  0  0
    9.3703   -3.6274    0.0000 O   0  0  0  0  0  0  0  0  0  0  0  0
    9.3703   -5.0563    0.0000 O   0  0  0  0  0  0  0  0  0  0  0  0
  2  1  1  1  0  0  0
  2  3  1  0  0  0  0
  3  4  1  0  0  0  0
  4  5  1  0  0  0  0
  5  6  1  0  0  0  0
  6  7  1  0  0  0  0
  7  2  1  0  0  0  0
  4  8  1  1  0  0  0
  6  9  1  1  0  0  0
  5 10  1  6  0  0  0
  7 11  1  6  0  0  0
  8 12  1  0  0  0  0
  1 13  1  0  0  0  0
 13 14  1  0  0  0  0
 13 15  1  0  0  0  0
 13 16  1  0  0  0  0
 16 17  1  0  0  0  0
 17 18  1  0  0  0  0
 18 19  1  0  0  0  0
 19 20  1  0  0  0  0
 20 16  1  0  0  0  0
 19 21  2  0  0  0  0
 16 22  1  6  0  0  0
 17 23  1  0  0  0  0
 17 24  1  6  0  0  0
 23 25  1  0  0  0  0
 25 26  1  0  0  0  0
 26 27  1  0  0  0  0
 26 28  2  0  0  0  0
M  END
>  <cdx:fragmentId>
76

$$$$
