95140.cdx
  Mrv1902 05222410282D          

 51 57  0  0  0  0            999 V2000
    5.6837  -11.3976    0.0000 C   0  0  0  0  0  0  0  0  0  0  0  0
    5.6837  -12.2226    0.0000 C   0  0  1  0  0  0  0  0  0  0  0  0
    6.3981  -12.6351    0.0000 C   0  0  0  0  0  0  0  0  0  0  0  0
    7.1126  -12.2226    0.0000 C   0  0  1  0  0  0  0  0  0  0  0  0
    7.1126  -11.3976    0.0000 C   0  0  2  0  0  0  0  0  0  0  0  0
    6.3981  -10.9851    0.0000 C   0  0  0  0  0  0  0  0  0  0  0  0
    7.8271  -12.6351    0.0000 C   0  0  0  0  0  0  0  0  0  0  0  0
    8.5416  -12.2226    0.0000 C   0  0  0  0  0  0  0  0  0  0  0  0
    8.5416  -11.3976    0.0000 C   0  0  2  0  0  0  0  0  0  0  0  0
    7.8271  -10.9851    0.0000 C   0  0  2  0  0  0  0  0  0  0  0  0
    7.8271  -13.4601    0.0000 O   0  0  0  0  0  0  0  0  0  0  0  0
    4.9692  -12.6351    0.0000 O   0  0  0  0  0  0  0  0  0  0  0  0
    7.1126  -10.5726    0.0000 C   0  0  0  0  0  0  0  0  0  0  0  0
    9.1547  -10.8456    0.0000 C   0  0  1  0  0  0  0  0  0  0  0  0
    8.8191  -10.0919    0.0000 C   0  0  1  0  0  0  0  0  0  0  0  0
    7.9986  -10.1782    0.0000 C   0  0  0  0  0  0  0  0  0  0  0  0
    9.9751  -10.9319    0.0000 C   0  0  0  0  0  0  0  0  0  0  0  0
   10.4601  -10.2644    0.0000 C   0  0  0  0  0  0  0  0  0  0  0  0
   10.1245   -9.5107    0.0000 C   0  0  2  0  0  0  0  0  0  0  0  0
    9.3040   -9.4245    0.0000 C   0  0  1  0  0  0  0  0  0  0  0  0
   10.6094   -8.8433    0.0000 C   0  0  2  0  0  0  0  0  0  0  0  0
   10.2739   -8.0896    0.0000 C   0  0  1  0  0  0  0  0  0  0  0  0
    9.4534   -8.0034    0.0000 N   0  3  0  0  0  0  0  0  0  0  0  0
    8.9685   -8.6708    0.0000 C   0  0  0  0  0  0  0  0  0  0  0  0
   10.7588   -7.4222    0.0000 C   0  0  0  0  0  0  0  0  0  0  0  0
   10.4232   -6.6685    0.0000 C   0  0  0  0  0  0  0  0  0  0  0  0
    9.6028   -6.5823    0.0000 C   0  0  1  0  0  0  0  0  0  0  0  0
    9.1178   -7.2497    0.0000 C   0  0  0  0  0  0  0  0  0  0  0  0
    9.2672   -5.8286    0.0000 C   0  0  0  0  0  0  0  0  0  0  0  0
    7.1126  -13.0476    0.0000 H   0  0  0  0  0  0  0  0  0  0  0  0
    9.5672  -11.5601    0.0000 H   0  0  0  0  0  0  0  0  0  0  0  0
    8.4066   -9.3775    0.0000 H   0  0  0  0  0  0  0  0  0  0  0  0
    9.7165  -10.1390    0.0000 H   0  0  0  0  0  0  0  0  0  0  0  0
    9.7120   -8.7963    0.0000 H   0  0  0  0  0  0  0  0  0  0  0  0
   11.3239   -9.2558    0.0000 C   0  0  0  0  0  0  0  0  0  0  0  0
    9.8614   -7.3752    0.0000 H   0  0  0  0  0  0  0  0  0  0  0  0
    7.8271  -11.8101    0.0000 H   0  0  0  0  0  0  0  0  0  0  0  0
    9.1249  -11.9810    0.0000 H   0  0  0  0  0  0  0  0  0  0  0  0
   11.3239   -8.4308    0.0000 O   0  0  0  0  0  0  0  0  0  0  0  0
    4.2547  -12.2226    0.0000 C   0  0  2  0  0  0  0  0  0  0  0  0
    4.2547  -11.3976    0.0000 O   0  0  0  0  0  0  0  0  0  0  0  0
    3.5403  -10.9851    0.0000 C   0  0  1  0  0  0  0  0  0  0  0  0
    2.8258  -11.3976    0.0000 C   0  0  2  0  0  0  0  0  0  0  0  0
    2.8258  -12.2226    0.0000 C   0  0  1  0  0  0  0  0  0  0  0  0
    3.5403  -12.6351    0.0000 C   0  0  1  0  0  0  0  0  0  0  0  0
    3.5403  -10.1601    0.0000 C   0  0  0  0  0  0  0  0  0  0  0  0
    2.1113  -12.6351    0.0000 O   0  0  0  0  0  0  0  0  0  0  0  0
    3.5403  -13.4601    0.0000 O   0  0  0  0  0  0  0  0  0  0  0  0
    2.1113  -10.9851    0.0000 O   0  0  0  0  0  0  0  0  0  0  0  0
    2.8258   -9.7476    0.0000 O   0  0  0  0  0  0  0  0  0  0  0  0
    8.6565   -7.7899    0.0000 O   0  5  0  0  0  0  0  0  0  0  0  0
  1  2  1  0  0  0  0
  2  3  1  0  0  0  0
  3  4  1  0  0  0  0
  4  5  1  0  0  0  0
  5  6  1  0  0  0  0
  6  1  1  0  0  0  0
  4  7  1  0  0  0  0
  7  8  1  0  0  0  0
  8  9  1  0  0  0  0
  9 10  1  0  0  0  0
 10  5  1  0  0  0  0
  7 11  2  0  0  0  0
  2 12  1  1  0  0  0
  5 13  1  1  0  0  0
  9 14  1  0  0  0  0
 14 15  1  0  0  0  0
 15 16  1  0  0  0  0
 16 10  1  0  0  0  0
 14 17  1  0  0  0  0
 17 18  1  0  0  0  0
 18 19  1  0  0  0  0
 19 20  1  0  0  0  0
 20 15  1  0  0  0  0
 19 21  1  0  0  0  0
 21 22  1  0  0  0  0
 22 23  1  0  0  0  0
 23 24  1  0  0  0  0
 24 20  1  0  0  0  0
 22 25  1  0  0  0  0
 25 26  1  0  0  0  0
 26 27  1  0  0  0  0
 27 28  1  0  0  0  0
 28 23  1  0  0  0  0
 27 29  1  1  0  0  0
  4 30  1  6  0  0  0
 14 31  1  6  0  0  0
 15 32  1  6  0  0  0
 20 33  1  1  0  0  0
 19 34  1  1  0  0  0
 21 35  1  6  0  0  0
 22 36  1  6  0  0  0
 10 37  1  6  0  0  0
  9 38  1  1  0  0  0
 21 39  1  1  0  0  0
 40 12  1  1  0  0  0
 40 41  1  0  0  0  0
 41 42  1  0  0  0  0
 42 43  1  0  0  0  0
 43 44  1  0  0  0  0
 44 45  1  0  0  0  0
 45 40  1  0  0  0  0
 42 46  1  1  0  0  0
 44 47  1  1  0  0  0
 45 48  1  6  0  0  0
 43 49  1  6  0  0  0
 46 50  1  0  0  0  0
 23 51  1  0  0  0  0
M  CHG  2  23   1  51  -1
M  END
>  <cdx:fragmentId>
5

$$$$
