95141.cdx
  Mrv1902 05222410282D          

 38 41  0  0  0  0            999 V2000
    3.4081   -6.0362    0.0000 C   0  0  0  0  0  0  0  0  0  0  0  0
    3.4081   -6.8613    0.0000 C   0  0  0  0  0  0  0  0  0  0  0  0
    4.1225   -7.2738    0.0000 C   0  0  0  0  0  0  0  0  0  0  0  0
    4.8370   -6.8613    0.0000 C   0  0  0  0  0  0  0  0  0  0  0  0
    4.8370   -6.0362    0.0000 C   0  0  0  0  0  0  0  0  0  0  0  0
    4.1225   -5.6238    0.0000 C   0  0  0  0  0  0  0  0  0  0  0  0
    5.5515   -7.2738    0.0000 C   0  0  1  0  0  0  0  0  0  0  0  0
    6.2659   -6.8613    0.0000 C   0  0  2  0  0  0  0  0  0  0  0  0
    6.2659   -6.0362    0.0000 C   0  0  0  0  0  0  0  0  0  0  0  0
    5.5515   -5.6238    0.0000 C   0  0  0  0  0  0  0  0  0  0  0  0
    6.9804   -7.2738    0.0000 C   0  0  0  0  0  0  0  0  0  0  0  0
    7.6949   -6.0362    0.0000 N   0  0  0  0  0  0  0  0  0  0  0  0
    6.9804   -5.6238    0.0000 C   0  0  0  0  0  0  0  0  0  0  0  0
    9.1238   -6.0362    0.0000 C   0  0  0  0  0  0  0  0  0  0  0  0
    8.4094   -5.6238    0.0000 C   0  0  0  0  0  0  0  0  0  0  0  0
    9.8383   -5.6238    0.0000 C   0  0  0  0  0  0  0  0  0  0  0  0
    9.8383   -4.7988    0.0000 C   0  0  0  0  0  0  0  0  0  0  0  0
   10.5528   -6.0362    0.0000 C   0  0  0  0  0  0  0  0  0  0  0  0
   11.2672   -5.6238    0.0000 C   0  0  0  0  0  0  0  0  0  0  0  0
   11.2672   -4.7988    0.0000 C   0  0  0  0  0  0  0  0  0  0  0  0
   10.5528   -4.3862    0.0000 C   0  0  0  0  0  0  0  0  0  0  0  0
    4.1225   -8.0987    0.0000 O   0  0  0  0  0  0  0  0  0  0  0  0
    4.8370   -8.5112    0.0000 C   0  0  0  0  0  0  0  0  0  0  0  0
    5.5515   -8.0987    0.0000 C   0  0  0  0  0  0  0  0  0  0  0  0
    4.8370   -9.3362    0.0000 C   0  0  0  0  0  0  0  0  0  0  0  0
    5.5515   -9.7487    0.0000 C   0  0  0  0  0  0  0  0  0  0  0  0
    6.2659   -9.3362    0.0000 C   0  0  0  0  0  0  0  0  0  0  0  0
    6.2659   -8.5112    0.0000 C   0  0  0  0  0  0  0  0  0  0  0  0
    3.4081   -8.5113    0.0000 C   0  0  0  0  0  0  0  0  0  0  0  0
    2.6936   -7.2738    0.0000 O   0  0  0  0  0  0  0  0  0  0  0  0
    2.6936   -5.6238    0.0000 O   0  0  0  0  0  0  0  0  0  0  0  0
    2.6936   -4.7988    0.0000 C   0  0  0  0  0  0  0  0  0  0  0  0
    6.9804   -4.7988    0.0000 O   0  0  0  0  0  0  0  0  0  0  0  0
   11.9817   -4.3862    0.0000 O   0  0  0  0  0  0  0  0  0  0  0  0
    7.6949   -6.8613    0.0000 O   0  0  0  0  0  0  0  0  0  0  0  0
    5.5515  -10.5737    0.0000 O   0  0  0  0  0  0  0  0  0  0  0  0
    6.9804   -9.7487    0.0000 O   0  0  0  0  0  0  0  0  0  0  0  0
    7.6949   -9.3362    0.0000 C   0  0  0  0  0  0  0  0  0  0  0  0
  1  2  2  0  0  0  0
  2  3  1  0  0  0  0
  3  4  2  0  0  0  0
  4  5  1  0  0  0  0
  5  6  2  0  0  0  0
  6  1  1  0  0  0  0
  4  7  1  0  0  0  0
  7  8  1  0  0  0  0
  8  9  1  0  0  0  0
  9 10  2  0  0  0  0
 10  5  1  0  0  0  0
  8 11  1  6  0  0  0
 12 13  1  0  0  0  0
 13  9  1  0  0  0  0
 14 15  1  0  0  0  0
 15 12  1  0  0  0  0
 14 16  1  0  0  0  0
 16 17  2  0  0  0  0
 16 18  1  0  0  0  0
 18 19  2  0  0  0  0
 19 20  1  0  0  0  0
 20 21  2  0  0  0  0
 21 17  1  0  0  0  0
  3 22  1  0  0  0  0
 23 24  2  0  0  0  0
  7 24  1  1  0  0  0
 23 25  1  0  0  0  0
 25 26  2  0  0  0  0
 26 27  1  0  0  0  0
 27 28  2  0  0  0  0
 28 24  1  0  0  0  0
 22 29  1  0  0  0  0
  2 30  1  0  0  0  0
  1 31  1  0  0  0  0
 31 32  1  0  0  0  0
 13 33  2  0  0  0  0
 20 34  1  0  0  0  0
 11 35  1  0  0  0  0
 26 36  1  0  0  0  0
 27 37  1  0  0  0  0
 37 38  1  0  0  0  0
M  END
>  <cdx:fragmentId>
5

$$$$
