95146.cdx
  Mrv1902 05222410262D          

 48 53  0  0  0  0            999 V2000
    2.7227  -10.1514    0.0000 C   0  0  0  0  0  0  0  0  0  0  0  0
    2.7227  -10.9789    0.0000 C   0  0  0  0  0  0  0  0  0  0  0  0
    3.4393  -11.3927    0.0000 C   0  0  0  0  0  0  0  0  0  0  0  0
    4.1559  -10.1514    0.0000 O   0  0  0  0  0  0  0  0  0  0  0  0
    3.4393   -9.7377    0.0000 C   0  0  0  0  0  0  0  0  0  0  0  0
    4.8725   -9.7377    0.0000 C   0  0  2  0  0  0  0  0  0  0  0  0
    4.8725   -8.9102    0.0000 C   0  0  0  0  0  0  0  0  0  0  0  0
    3.4393   -8.9102    0.0000 O   0  0  0  0  0  0  0  0  0  0  0  0
    5.5892  -10.1514    0.0000 C   0  0  2  0  0  0  0  0  0  0  0  0
    6.3058   -9.7377    0.0000 C   0  0  1  0  0  0  0  0  0  0  0  0
    6.3058   -8.9102    0.0000 C   0  0  2  0  0  0  0  0  0  0  0  0
    5.5892   -8.4965    0.0000 C   0  0  0  0  0  0  0  0  0  0  0  0
    7.0224  -10.1514    0.0000 C   0  0  0  0  0  0  0  0  0  0  0  0
    7.7390   -9.7377    0.0000 C   0  0  2  0  0  0  0  0  0  0  0  0
    7.7390   -8.9102    0.0000 C   0  0  2  0  0  0  0  0  0  0  0  0
    7.0224   -8.4965    0.0000 C   0  0  2  0  0  0  0  0  0  0  0  0
    8.4556   -8.4965    0.0000 C   0  0  2  0  0  0  0  0  0  0  0  0
    8.4556   -7.6690    0.0000 C   0  0  2  0  0  0  0  0  0  0  0  0
    7.7390   -7.2553    0.0000 C   0  0  0  0  0  0  0  0  0  0  0  0
    7.0224   -7.6690    0.0000 C   0  0  0  0  0  0  0  0  0  0  0  0
    2.0061  -11.3927    0.0000 C   0  0  0  0  0  0  0  0  0  0  0  0
    9.1722   -8.0828    0.0000 C   0  0  0  0  0  0  0  0  0  0  0  0
    7.0224   -9.3240    0.0000 H   0  0  0  0  0  0  0  0  0  0  0  0
    8.4556  -10.1514    0.0000 O   0  0  0  0  0  0  0  0  0  0  0  0
    6.3058  -10.5652    0.0000 H   0  0  0  0  0  0  0  0  0  0  0  0
    6.0029  -10.8681    0.0000 C   0  0  0  0  0  0  0  0  0  0  0  0
    5.1754  -10.8681    0.0000 C   0  0  0  0  0  0  0  0  0  0  0  0
    6.3058   -8.0828    0.0000 C   0  0  0  0  0  0  0  0  0  0  0  0
    7.7390   -8.0828    0.0000 C   0  0  0  0  0  0  0  0  0  0  0  0
    9.2426   -8.7522    0.0000 C   0  0  0  0  0  0  0  0  0  0  0  0
    9.7290   -8.0828    0.0000 C   0  0  0  0  0  0  0  0  0  0  0  0
    9.2426   -7.4133    0.0000 C   0  0  1  0  0  0  0  0  0  0  0  0
    9.4983   -6.6263    0.0000 C   0  0  2  0  0  0  0  0  0  0  0  0
   10.0296   -7.1576    0.0000 H   0  0  0  0  0  0  0  0  0  0  0  0
   10.2853   -6.3706    0.0000 C   0  0  0  0  0  0  0  0  0  0  0  0
   10.2853   -5.5432    0.0000 C   0  0  1  0  0  0  0  0  0  0  0  0
    9.4983   -5.2875    0.0000 O   0  0  0  0  0  0  0  0  0  0  0  0
    9.0119   -5.9569    0.0000 C   0  0  1  0  0  0  0  0  0  0  0  0
    8.1844   -5.9569    0.0000 O   0  0  0  0  0  0  0  0  0  0  0  0
   10.9547   -5.0568    0.0000 C   0  0  1  0  0  0  0  0  0  0  0  0
   10.2853   -4.7157    0.0000 H   0  0  0  0  0  0  0  0  0  0  0  0
   11.7106   -5.3934    0.0000 C   0  0  0  0  0  0  0  0  0  0  0  0
   12.4273   -5.8071    0.0000 O   0  0  0  0  0  0  0  0  0  0  0  0
   11.2969   -6.1100    0.0000 C   0  0  0  0  0  0  0  0  0  0  0  0
   12.1244   -4.6767    0.0000 C   0  0  0  0  0  0  0  0  0  0  0  0
   10.8682   -4.2338    0.0000 O   0  0  0  0  0  0  0  0  0  0  0  0
    7.7707   -5.2403    0.0000 C   0  0  0  0  0  0  0  0  0  0  0  0
    8.7113   -6.8820    0.0000 H   0  0  0  0  0  0  0  0  0  0  0  0
  1  2  1  0  0  0  0
  2  3  1  0  0  0  0
  4  5  1  0  0  0  0
  5  1  1  0  0  0  0
  6  4  1  6  0  0  0
  6  7  1  0  0  0  0
  8  5  2  0  0  0  0
  6  9  1  0  0  0  0
  9 10  1  0  0  0  0
 10 11  1  0  0  0  0
 11 12  1  0  0  0  0
 12  7  1  0  0  0  0
 10 13  1  0  0  0  0
 13 14  1  0  0  0  0
 14 15  1  0  0  0  0
 15 16  1  0  0  0  0
 16 11  1  0  0  0  0
 15 17  1  0  0  0  0
 17 18  1  0  0  0  0
 18 19  1  0  0  0  0
 19 20  1  0  0  0  0
 20 16  1  0  0  0  0
  2 21  1  0  0  0  0
 18 22  1  6  0  0  0
 17 22  1  6  0  0  0
 16 23  1  6  0  0  0
 14 24  1  6  0  0  0
 10 25  1  6  0  0  0
  9 26  1  6  0  0  0
  9 27  1  1  0  0  0
 11 28  1  1  0  0  0
 15 29  1  1  0  0  0
 17 30  1  0  0  0  0
 30 31  1  0  0  0  0
 31 32  1  0  0  0  0
 32 18  1  0  0  0  0
 32 33  1  0  0  0  0
 32 34  1  1  0  0  0
 33 35  1  0  0  0  0
 35 36  1  0  0  0  0
 36 37  1  0  0  0  0
 37 38  1  0  0  0  0
 38 33  1  0  0  0  0
 38 39  1  6  0  0  0
 36 40  1  0  0  0  0
 36 41  1  6  0  0  0
 40 42  1  0  0  0  0
 42 43  1  0  0  0  0
 42 44  1  0  0  0  0
 42 45  1  0  0  0  0
 40 46  1  6  0  0  0
 39 47  1  0  0  0  0
 33 48  1  6  0  0  0
M  END
>  <cdx:fragmentId>
5

$$$$
