95150.cdx
  Mrv1902 05222410262D          

 13 14  0  0  0  0            999 V2000
    8.2712   -7.9406    0.0000 C   0  0  0  0  0  0  0  0  0  0  0  0
    8.9857   -8.3531    0.0000 N   0  0  0  0  0  0  0  0  0  0  0  0
    8.9857   -9.1781    0.0000 C   0  0  0  0  0  0  0  0  0  0  0  0
    8.2712   -9.5906    0.0000 C   0  0  0  0  0  0  0  0  0  0  0  0
    7.5567   -9.1781    0.0000 C   0  0  0  0  0  0  0  0  0  0  0  0
    6.8422   -9.5906    0.0000 C   0  0  0  0  0  0  0  0  0  0  0  0
    6.1278   -9.1781    0.0000 C   0  0  0  0  0  0  0  0  0  0  0  0
    6.1278   -8.3531    0.0000 C   0  0  0  0  0  0  0  0  0  0  0  0
    6.8422   -7.9406    0.0000 C   0  0  0  0  0  0  0  0  0  0  0  0
    7.5567   -8.3531    0.0000 C   0  0  0  0  0  0  0  0  0  0  0  0
    8.2712   -7.1156    0.0000 C   0  0  0  0  0  0  0  0  0  0  0  0
    5.4133   -7.9406    0.0000 O   0  0  0  0  0  0  0  0  0  0  0  0
    5.4133   -9.5906    0.0000 O   0  0  0  0  0  0  0  0  0  0  0  0
  1  2  1  0  0  0  0
  2  3  1  0  0  0  0
  3  4  1  0  0  0  0
  4  5  1  0  0  0  0
  5  6  1  0  0  0  0
  6  7  2  0  0  0  0
  7  8  1  0  0  0  0
  8  9  2  0  0  0  0
  9 10  1  0  0  0  0
  1 10  1  0  0  0  0
  5 10  2  0  0  0  0
  1 11  1  0  0  0  0
  8 12  1  0  0  0  0
  7 13  1  0  0  0  0
M  END
>  <cdx:groupId>
42

>  <cdx:fragmentId>
5

$$$$
