95151.cdx
  Mrv1902 05222410262D          

 44 47  0  0  0  0            999 V2000
    5.4695   -8.8429    0.0000 C   0  0  0  0  0  0  0  0  0  0  0  0
    6.2765   -8.6713    0.0000 C   0  0  0  0  0  0  0  0  0  0  0  0
    6.5315   -7.8868    0.0000 C   0  0  0  0  0  0  0  0  0  0  0  0
    5.9794   -7.2737    0.0000 C   0  0  0  0  0  0  0  0  0  0  0  0
    5.1725   -7.4452    0.0000 C   0  0  0  0  0  0  0  0  0  0  0  0
    4.9175   -8.2298    0.0000 C   0  0  0  0  0  0  0  0  0  0  0  0
    5.2146   -9.6275    0.0000 O   0  0  0  0  0  0  0  0  0  0  0  0
    5.7666  -10.2406    0.0000 C   0  0  0  0  0  0  0  0  0  0  0  0
    7.3384   -7.7152    0.0000 C   0  0  1  0  0  0  0  0  0  0  0  0
    7.9515   -8.2672    0.0000 O   0  0  0  0  0  0  0  0  0  0  0  0
    8.6660   -7.8547    0.0000 C   0  0  0  0  0  0  0  0  0  0  0  0
    8.4945   -7.0478    0.0000 C   0  0  1  0  0  0  0  0  0  0  0  0
    7.6740   -6.9615    0.0000 C   0  0  2  0  0  0  0  0  0  0  0  0
    7.2615   -6.2470    0.0000 C   0  0  0  0  0  0  0  0  0  0  0  0
    9.0465   -6.4347    0.0000 C   0  0  0  0  0  0  0  0  0  0  0  0
    6.4365   -6.2470    0.0000 O   0  0  0  0  0  0  0  0  0  0  0  0
    6.0240   -5.5326    0.0000 C   0  0  0  0  0  0  0  0  0  0  0  0
    5.1990   -5.5326    0.0000 C   0  0  0  0  0  0  0  0  0  0  0  0
    6.4365   -4.8181    0.0000 O   0  0  0  0  0  0  0  0  0  0  0  0
    9.8434   -6.6482    0.0000 C   0  0  0  0  0  0  0  0  0  0  0  0
   10.0569   -7.4451    0.0000 C   0  0  0  0  0  0  0  0  0  0  0  0
   10.8538   -7.6586    0.0000 C   0  0  0  0  0  0  0  0  0  0  0  0
   11.4372   -7.0752    0.0000 C   0  0  0  0  0  0  0  0  0  0  0  0
   11.2236   -6.2784    0.0000 C   0  0  0  0  0  0  0  0  0  0  0  0
   10.4267   -6.0648    0.0000 C   0  0  0  0  0  0  0  0  0  0  0  0
   11.8070   -5.6950    0.0000 O   0  0  0  0  0  0  0  0  0  0  0  0
   12.6039   -5.9085    0.0000 C   0  0  0  0  0  0  0  0  0  0  0  0
    4.6204   -6.8321    0.0000 O   0  0  0  0  0  0  0  0  0  0  0  0
    3.8135   -7.0036    0.0000 C   0  0  0  0  0  0  0  0  0  0  0  0
   11.0673   -8.4555    0.0000 O   0  0  0  0  0  0  0  0  0  0  0  0
   10.4840   -9.0389    0.0000 C   0  0  0  0  0  0  0  0  0  0  0  0
   12.2340   -7.2888    0.0000 O   0  0  0  0  0  0  0  0  0  0  0  0
    4.1105   -8.4013    0.0000 O   0  0  0  0  0  0  0  0  0  0  0  0
    3.8970   -9.1982    0.0000 C   0  0  2  0  0  0  0  0  0  0  0  0
    4.4804   -9.7816    0.0000 O   0  0  0  0  0  0  0  0  0  0  0  0
    4.2669  -10.5785    0.0000 C   0  0  1  0  0  0  0  0  0  0  0  0
    3.4700  -10.7920    0.0000 C   0  0  2  0  0  0  0  0  0  0  0  0
    2.8866  -10.2086    0.0000 C   0  0  1  0  0  0  0  0  0  0  0  0
    3.1001   -9.4117    0.0000 C   0  0  1  0  0  0  0  0  0  0  0  0
    4.8502  -11.1618    0.0000 C   0  0  0  0  0  0  0  0  0  0  0  0
    5.6471  -10.9483    0.0000 O   0  0  0  0  0  0  0  0  0  0  0  0
    3.2564  -11.5888    0.0000 O   0  0  0  0  0  0  0  0  0  0  0  0
    2.0897  -10.4221    0.0000 O   0  0  0  0  0  0  0  0  0  0  0  0
    2.5168   -8.8284    0.0000 O   0  0  0  0  0  0  0  0  0  0  0  0
  1  2  2  0  0  0  0
  2  3  1  0  0  0  0
  3  4  2  0  0  0  0
  4  5  1  0  0  0  0
  5  6  2  0  0  0  0
  6  1  1  0  0  0  0
  1  7  1  0  0  0  0
  7  8  1  0  0  0  0
  9  3  1  6  0  0  0
  9 10  1  0  0  0  0
 10 11  1  0  0  0  0
 11 12  1  0  0  0  0
 12 13  1  0  0  0  0
 13  9  1  0  0  0  0
 13 14  1  1  0  0  0
 12 15  1  1  0  0  0
 14 16  1  0  0  0  0
 16 17  1  0  0  0  0
 17 18  1  0  0  0  0
 17 19  2  0  0  0  0
 15 20  1  0  0  0  0
 20 21  2  0  0  0  0
 21 22  1  0  0  0  0
 22 23  2  0  0  0  0
 23 24  1  0  0  0  0
 24 25  2  0  0  0  0
 25 20  1  0  0  0  0
 24 26  1  0  0  0  0
 26 27  1  0  0  0  0
  5 28  1  0  0  0  0
 28 29  1  0  0  0  0
 22 30  1  0  0  0  0
 30 31  1  0  0  0  0
 23 32  1  0  0  0  0
  6 33  1  0  0  0  0
 34 33  1  6  0  0  0
 34 35  1  0  0  0  0
 35 36  1  0  0  0  0
 36 37  1  0  0  0  0
 37 38  1  0  0  0  0
 38 39  1  0  0  0  0
 39 34  1  0  0  0  0
 36 40  1  6  0  0  0
 40 41  1  0  0  0  0
 37 42  1  1  0  0  0
 38 43  1  6  0  0  0
 39 44  1  1  0  0  0
M  END
>  <cdx:fragmentId>
3

$$$$
