95155.cdx
  Mrv1902 05222410282D          

 26 27  0  0  0  0            999 V2000
    5.0522   -8.4166    0.0000 C   0  0  0  0  0  0  0  0  0  0  0  0
    5.7667   -8.8291    0.0000 C   0  0  0  0  0  0  0  0  0  0  0  0
    6.4812   -8.4166    0.0000 C   0  0  1  0  0  0  0  0  0  0  0  0
    7.1956   -8.8291    0.0000 C   0  0  0  0  0  0  0  0  0  0  0  0
    7.9101   -8.4166    0.0000 C   0  0  0  0  0  0  0  0  0  0  0  0
    8.6246   -8.8291    0.0000 C   0  0  0  0  0  0  0  0  0  0  0  0
    9.3391   -8.4166    0.0000 C   0  0  0  0  0  0  0  0  0  0  0  0
    6.4812   -7.5916    0.0000 S   0  0  0  0  0  0  0  0  0  0  0  0
    7.3062   -7.5916    0.0000 O   0  0  0  0  0  0  0  0  0  0  0  0
    5.6562   -7.5916    0.0000 O   0  0  0  0  0  0  0  0  0  0  0  0
    6.4812   -6.7666    0.0000 O   0  0  0  0  0  0  0  0  0  0  0  0
   10.0535   -8.8291    0.0000 C   0  0  0  0  0  0  0  0  0  0  0  0
   10.7680   -8.4166    0.0000 C   0  0  0  0  0  0  0  0  0  0  0  0
   11.4825   -8.8291    0.0000 C   0  0  0  0  0  0  0  0  0  0  0  0
   11.4825   -9.6541    0.0000 C   0  0  0  0  0  0  0  0  0  0  0  0
   10.7680  -10.0666    0.0000 C   0  0  0  0  0  0  0  0  0  0  0  0
   10.0535   -9.6541    0.0000 C   0  0  0  0  0  0  0  0  0  0  0  0
   12.1969  -10.0666    0.0000 O   0  0  0  0  0  0  0  0  0  0  0  0
    4.3378   -8.8291    0.0000 C   0  0  0  0  0  0  0  0  0  0  0  0
    4.3378   -9.6541    0.0000 C   0  0  0  0  0  0  0  0  0  0  0  0
    3.6233  -10.0666    0.0000 C   0  0  0  0  0  0  0  0  0  0  0  0
    2.9088   -9.6541    0.0000 C   0  0  0  0  0  0  0  0  0  0  0  0
    2.9088   -8.8291    0.0000 C   0  0  0  0  0  0  0  0  0  0  0  0
    3.6233   -8.4166    0.0000 C   0  0  0  0  0  0  0  0  0  0  0  0
    2.1944  -10.0666    0.0000 O   0  0  0  0  0  0  0  0  0  0  0  0
    9.3391   -7.5916    0.0000 O   0  0  0  0  0  0  0  0  0  0  0  0
  1  2  1  0  0  0  0
  2  3  1  0  0  0  0
  3  4  1  0  0  0  0
  4  5  1  0  0  0  0
  5  6  2  0  0  0  0
  6  7  1  0  0  0  0
  8  9  2  0  0  0  0
  8 10  2  0  0  0  0
  8 11  1  0  0  0  0
  3  8  1  6  0  0  0
 12 13  1  0  0  0  0
 13 14  2  0  0  0  0
 14 15  1  0  0  0  0
 15 16  2  0  0  0  0
 16 17  1  0  0  0  0
 12 17  2  0  0  0  0
 15 18  1  0  0  0  0
  7 12  1  0  0  0  0
 19 20  1  0  0  0  0
 20 21  2  0  0  0  0
 21 22  1  0  0  0  0
 22 23  2  0  0  0  0
 23 24  1  0  0  0  0
 19 24  2  0  0  0  0
 22 25  1  0  0  0  0
  1 19  1  0  0  0  0
  7 26  1  0  0  0  0
M  END
>  <cdx:groupId>
81

>  <cdx:fragmentId>
5

$$$$
