95159.cdx
  Mrv1902 05222410182D          

 23 22  0  0  0  0            999 V2000
    1.6070   -8.2104    0.0000 C   0  0  0  0  0  0  0  0  0  0  0  0
    2.3215   -8.6229    0.0000 C   0  0  0  0  0  0  0  0  0  0  0  0
    3.0359   -8.2104    0.0000 C   0  0  0  0  0  0  0  0  0  0  0  0
    3.7504   -8.6229    0.0000 C   0  0  0  0  0  0  0  0  0  0  0  0
    4.4649   -8.2104    0.0000 C   0  0  0  0  0  0  0  0  0  0  0  0
    5.1793   -8.6229    0.0000 C   0  0  0  0  0  0  0  0  0  0  0  0
    5.8938   -8.2104    0.0000 C   0  0  0  0  0  0  0  0  0  0  0  0
    6.6083   -8.6229    0.0000 C   0  0  0  0  0  0  0  0  0  0  0  0
    7.3227   -8.2104    0.0000 C   0  0  0  0  0  0  0  0  0  0  0  0
    8.0372   -8.6229    0.0000 C   0  0  0  0  0  0  0  0  0  0  0  0
    8.7517   -8.2104    0.0000 C   0  0  0  0  0  0  0  0  0  0  0  0
    9.4662   -8.6229    0.0000 C   0  0  0  0  0  0  0  0  0  0  0  0
   10.1806   -8.2104    0.0000 C   0  0  0  0  0  0  0  0  0  0  0  0
   10.8951   -8.6229    0.0000 C   0  0  0  0  0  0  0  0  0  0  0  0
   11.6096   -8.2104    0.0000 C   0  0  0  0  0  0  0  0  0  0  0  0
   12.3240   -8.6229    0.0000 C   0  0  0  0  0  0  0  0  0  0  0  0
   13.0385   -8.2104    0.0000 C   0  0  0  0  0  0  0  0  0  0  0  0
   13.7530   -8.6229    0.0000 C   0  0  0  0  0  0  0  0  0  0  0  0
    1.6070   -7.3854    0.0000 O   0  0  0  0  0  0  0  0  0  0  0  0
    0.8925   -8.6229    0.0000 O   0  0  0  0  0  0  0  0  0  0  0  0
   10.1806   -7.3854    0.0000 O   0  0  0  0  0  0  0  0  0  0  0  0
    9.4662   -9.4479    0.0000 O   0  0  0  0  0  0  0  0  0  0  0  0
    7.3227   -7.3854    0.0000 O   0  0  0  0  0  0  0  0  0  0  0  0
  1  2  1  0  0  0  0
  2  3  2  0  0  0  0
  3  4  1  0  0  0  0
  4  5  1  0  0  0  0
  5  6  1  0  0  0  0
  6  7  1  0  0  0  0
  7  8  1  0  0  0  0
  8  9  1  0  0  0  0
  9 10  1  0  0  0  0
 10 11  2  0  0  0  0
 11 12  1  0  0  0  0
 12 13  1  0  0  0  0
 13 14  1  0  0  0  0
 14 15  1  0  0  0  0
 15 16  2  0  0  0  0
 16 17  1  0  0  0  0
 17 18  1  0  0  0  0
  1 19  2  0  0  0  0
  1 20  1  0  0  0  0
 13 21  1  0  0  0  0
 12 22  1  0  0  0  0
  9 23  1  0  0  0  0
M  END
>  <cdx:fragmentId>
5

$$$$
