95158.cdx
  Mrv1902 05222410182D          

 36 40  0  0  0  0            999 V2000
    4.8243   -8.9788    0.0000 C   0  0  0  0  0  0  0  0  0  0  0  0
    4.8243   -9.8038    0.0000 C   0  0  1  0  0  0  0  0  0  0  0  0
    5.5388  -10.2163    0.0000 C   0  0  0  0  0  0  0  0  0  0  0  0
    6.2532   -9.8038    0.0000 C   0  0  0  0  0  0  0  0  0  0  0  0
    6.2532   -8.9788    0.0000 C   0  0  2  0  0  0  0  0  0  0  0  0
    5.5388   -8.5663    0.0000 C   0  0  0  0  0  0  0  0  0  0  0  0
    6.9677  -10.2163    0.0000 C   0  0  0  0  0  0  0  0  0  0  0  0
    7.6822   -9.8038    0.0000 C   0  0  0  0  0  0  0  0  0  0  0  0
    7.6822   -8.9788    0.0000 C   0  0  2  0  0  0  0  0  0  0  0  0
    6.9677   -8.5663    0.0000 C   0  0  2  0  0  0  0  0  0  0  0  0
    8.3967   -8.5663    0.0000 C   0  0  2  0  0  0  0  0  0  0  0  0
    8.3967   -7.7413    0.0000 C   0  0  2  0  0  0  0  0  0  0  0  0
    7.6822   -7.3287    0.0000 C   0  0  1  0  0  0  0  0  0  0  0  0
    6.9677   -7.7413    0.0000 C   0  0  1  0  0  0  0  0  0  0  0  0
    9.1813   -8.8212    0.0000 C   0  0  0  0  0  0  0  0  0  0  0  0
    9.6662   -8.1538    0.0000 C   0  0  0  0  0  0  0  0  0  0  0  0
    9.1813   -7.4863    0.0000 C   0  0  1  0  0  0  0  0  0  0  0  0
    9.4362   -6.7017    0.0000 C   0  0  0  0  0  0  0  0  0  0  0  0
    8.8842   -6.0886    0.0000 C   0  0  0  0  0  0  0  0  0  0  0  0
   10.2432   -6.5302    0.0000 O   0  0  0  0  0  0  0  0  0  0  0  0
    4.1098  -10.2163    0.0000 O   0  0  0  0  0  0  0  0  0  0  0  0
    6.2532   -8.1538    0.0000 C   0  0  0  0  0  0  0  0  0  0  0  0
    8.3967   -9.3913    0.0000 O   0  0  0  0  0  0  0  0  0  0  0  0
    7.6822   -6.5038    0.0000 O   0  0  0  0  0  0  0  0  0  0  0  0
    8.4829   -6.9208    0.0000 C   0  0  0  0  0  0  0  0  0  0  0  0
    5.9095   -6.8613    0.0000 O   0  0  0  0  0  0  0  0  0  0  0  0
    6.9677   -9.3913    0.0000 H   0  0  0  0  0  0  0  0  0  0  0  0
    6.9677   -6.0912    0.0000 C   0  0  0  0  0  0  0  0  0  0  0  0
    6.9677   -5.2663    0.0000 O   0  0  0  0  0  0  0  0  0  0  0  0
    6.2532   -6.5038    0.0000 C   0  0  0  0  0  0  0  0  0  0  0  0
    5.1950   -7.2738    0.0000 C   0  0  0  0  0  0  0  0  0  0  0  0
    4.4806   -6.8613    0.0000 C   0  0  0  0  0  0  0  0  0  0  0  0
    3.7661   -7.2738    0.0000 C   0  0  0  0  0  0  0  0  0  0  0  0
    4.4806   -6.0362    0.0000 C   0  0  0  0  0  0  0  0  0  0  0  0
    5.1950   -8.0987    0.0000 O   0  0  0  0  0  0  0  0  0  0  0  0
    3.0516   -6.8613    0.0000 C   0  0  0  0  0  0  0  0  0  0  0  0
  1  2  1  0  0  0  0
  2  3  1  0  0  0  0
  3  4  1  0  0  0  0
  4  5  1  0  0  0  0
  5  6  1  0  0  0  0
  6  1  1  0  0  0  0
  4  7  1  0  0  0  0
  7  8  1  0  0  0  0
  8  9  1  0  0  0  0
  9 10  1  0  0  0  0
 10  5  1  0  0  0  0
  9 11  1  0  0  0  0
 11 12  1  0  0  0  0
 12 13  1  0  0  0  0
 13 14  1  0  0  0  0
 14 10  1  0  0  0  0
 11 15  1  0  0  0  0
 15 16  1  0  0  0  0
 16 17  1  0  0  0  0
 17 12  1  0  0  0  0
 17 18  1  6  0  0  0
 18 19  1  0  0  0  0
 18 20  2  0  0  0  0
  2 21  1  1  0  0  0
  5 22  1  1  0  0  0
  9 23  1  1  0  0  0
 11 23  1  1  0  0  0
 13 24  1  1  0  0  0
 12 25  1  1  0  0  0
 14 26  1  6  0  0  0
 10 27  1  6  0  0  0
 24 28  1  0  0  0  0
 28 29  2  0  0  0  0
 28 30  1  0  0  0  0
 26 31  1  0  0  0  0
 31 32  1  0  0  0  0
 32 33  2  0  0  0  0
 32 34  1  0  0  0  0
 31 35  2  0  0  0  0
 33 36  1  0  0  0  0
M  END
>  <cdx:fragmentId>
5

$$$$
