95156.cdx
  Mrv1902 05222410272D          

 12 12  0  0  0  0            999 V2000
    5.3817   -4.3662    0.0000 O   0  0  0  0  0  0  0  0  0  0  0  0
    6.0962   -4.7787    0.0000 C   0  0  0  0  0  0  0  0  0  0  0  0
    6.8106   -4.3662    0.0000 C   0  0  0  0  0  0  0  0  0  0  0  0
    6.8106   -3.5412    0.0000 O   0  0  0  0  0  0  0  0  0  0  0  0
    7.5251   -4.7787    0.0000 C   0  0  0  0  0  0  0  0  0  0  0  0
    8.2396   -4.3662    0.0000 O   0  0  0  0  0  0  0  0  0  0  0  0
    7.5251   -5.6037    0.0000 C   0  0  0  0  0  0  0  0  0  0  0  0
    6.8106   -6.0162    0.0000 C   0  0  0  0  0  0  0  0  0  0  0  0
    6.0962   -5.6037    0.0000 C   0  0  0  0  0  0  0  0  0  0  0  0
    8.2396   -6.0162    0.0000 C   0  0  0  0  0  0  0  0  0  0  0  0
    8.9541   -5.6037    0.0000 C   0  0  0  0  0  0  0  0  0  0  0  0
    4.6672   -4.7787    0.0000 C   0  0  0  0  0  0  0  0  0  0  0  0
  1  2  1  0  0  0  0
  2  3  1  0  0  0  0
  3  4  1  0  0  0  0
  3  5  2  0  0  0  0
  5  6  1  0  0  0  0
  5  7  1  0  0  0  0
  7  8  2  0  0  0  0
  8  9  1  0  0  0  0
  2  9  2  0  0  0  0
 10 11  2  0  0  0  0
  7 10  1  0  0  0  0
  1 12  1  0  0  0  0
M  END
>  <cdx:fragmentId>
5

$$$$
