95153.cdx
  Mrv1902 05222410272D          

 29 31  0  0  0  0            999 V2000
    7.4027   -2.8601    0.0000 C   0  0  0  0  0  0  0  0  0  0  0  0
    8.2277   -2.8582    0.0000 C   0  0  0  0  0  0  0  0  0  0  0  0
    8.6420   -3.5719    0.0000 C   0  0  0  0  0  0  0  0  0  0  0  0
    8.2308   -4.2873    0.0000 C   0  0  0  0  0  0  0  0  0  0  0  0
    7.4161   -8.5765    0.0000 C   0  0  0  0  0  0  0  0  0  0  0  0
    6.9291   -7.9105    0.0000 C   0  0  0  0  0  0  0  0  0  0  0  0
    6.1452   -8.1677    0.0000 C   0  0  0  0  0  0  0  0  0  0  0  0
    6.1476   -8.9926    0.0000 C   0  0  0  0  0  0  0  0  0  0  0  0
    6.9330   -9.2452    0.0000 O   0  0  0  0  0  0  0  0  0  0  0  0
    5.4343   -9.4072    0.0000 C   0  0  0  0  0  0  0  0  0  0  0  0
    4.7187   -8.9969    0.0000 C   0  0  0  0  0  0  0  0  0  0  0  0
    4.7163   -8.1718    0.0000 C   0  0  0  0  0  0  0  0  0  0  0  0
    5.4295   -7.7572    0.0000 C   0  0  0  0  0  0  0  0  0  0  0  0
    4.0055   -9.4115    0.0000 O   0  0  0  0  0  0  0  0  0  0  0  0
    8.6451   -5.0008    0.0000 C   0  0  0  0  0  0  0  0  0  0  0  0
    8.2340   -5.7162    0.0000 C   0  0  0  0  0  0  0  0  0  0  0  0
    8.6482   -6.4298    0.0000 C   0  0  0  0  0  0  0  0  0  0  0  0
    8.2371   -7.1453    0.0000 C   0  0  0  0  0  0  0  0  0  0  0  0
    7.4090   -5.7180    0.0000 C   0  0  0  0  0  0  0  0  0  0  0  0
    8.6388   -2.1430    0.0000 C   0  0  0  0  0  0  0  0  0  0  0  0
   10.7121   -7.1384    0.0000 C   0  0  0  0  0  0  0  0  0  0  0  0
    9.8871   -7.1407    0.0000 O   0  0  0  0  0  0  0  0  0  0  0  0
    9.8950   -9.9985    0.0000 O   0  0  0  0  0  0  0  0  0  0  0  0
    8.2410   -8.5742    0.0000 C   0  0  0  0  0  0  0  0  0  0  0  0
    8.6555   -9.2875    0.0000 C   0  0  0  0  0  0  0  0  0  0  0  0
    9.4806   -9.2853    0.0000 C   0  0  0  0  0  0  0  0  0  0  0  0
    9.8910   -8.5698    0.0000 C   0  0  0  0  0  0  0  0  0  0  0  0
    9.4766   -7.8563    0.0000 C   0  0  0  0  0  0  0  0  0  0  0  0
    8.6514   -7.8587    0.0000 C   0  0  0  0  0  0  0  0  0  0  0  0
 22 21  1  0  0  0  0
 28 22  1  0  0  0  0
 26 23  1  0  0  0  0
 29 24  1  0  0  0  0
 25 24  2  0  0  0  0
 26 25  1  0  0  0  0
 27 26  2  0  0  0  0
 28 27  1  0  0  0  0
 29 28  2  0  0  0  0
 18 29  1  0  0  0  0
  1  2  1  0  0  0  0
  2  3  2  0  0  0  0
  3  4  1  0  0  0  0
  4 15  1  0  0  0  0
 24  5  1  0  0  0  0
  5  6  2  0  0  0  0
  6  7  1  0  0  0  0
  7  8  2  0  0  0  0
  8  9  1  0  0  0  0
  5  9  1  0  0  0  0
  8 10  1  0  0  0  0
 10 11  2  0  0  0  0
 11 12  1  0  0  0  0
 12 13  2  0  0  0  0
  7 13  1  0  0  0  0
 11 14  1  0  0  0  0
 15 16  1  0  0  0  0
 16 17  2  0  0  0  0
 17 18  1  0  0  0  0
 16 19  1  0  0  0  0
  2 20  1  0  0  0  0
M  END
>  <cdx:fragmentId>
14544

$$$$
