95160.cdx
  Mrv1902 05222410202D          

 48 53  0  0  0  0            999 V2000
    2.5516  -10.0581    0.0000 C   0  0  1  0  0  0  0  0  0  0  0  0
    2.5516   -9.2331    0.0000 C   0  0  0  0  0  0  0  0  0  0  0  0
    3.2661   -8.8206    0.0000 C   0  0  0  0  0  0  0  0  0  0  0  0
    3.2661  -10.4706    0.0000 C   0  0  0  0  0  0  0  0  0  0  0  0
    3.6786  -11.1851    0.0000 C   0  0  0  0  0  0  0  0  0  0  0  0
    2.8536  -11.1851    0.0000 C   0  0  0  0  0  0  0  0  0  0  0  0
    3.9805  -10.0581    0.0000 C   0  0  2  0  0  0  0  0  0  0  0  0
    3.9805  -10.8831    0.0000 H   0  0  0  0  0  0  0  0  0  0  0  0
    4.6950  -10.4706    0.0000 C   0  0  0  0  0  0  0  0  0  0  0  0
    5.4095  -10.0581    0.0000 C   0  0  0  0  0  0  0  0  0  0  0  0
    5.4095   -9.2331    0.0000 C   0  0  1  0  0  0  0  0  0  0  0  0
    5.4095   -8.4081    0.0000 C   0  0  0  0  0  0  0  0  0  0  0  0
    6.1239   -8.8206    0.0000 C   0  0  2  0  0  0  0  0  0  0  0  0
    6.1239   -9.6456    0.0000 C   0  0  0  0  0  0  0  0  0  0  0  0
    6.8384   -9.2331    0.0000 C   0  0  0  0  0  0  0  0  0  0  0  0
    7.5529   -8.8206    0.0000 C   0  0  0  0  0  0  0  0  0  0  0  0
    7.5529   -7.9956    0.0000 C   0  0  1  0  0  0  0  0  0  0  0  0
    8.2674   -8.4081    0.0000 C   0  0  0  0  0  0  0  0  0  0  0  0
    8.2674   -7.5831    0.0000 C   0  0  0  0  0  0  0  0  0  0  0  0
    8.2674   -6.7581    0.0000 C   0  0  0  0  0  0  0  0  0  0  0  0
    7.5529   -6.3456    0.0000 C   0  0  0  0  0  0  0  0  0  0  0  0
    7.1404   -5.6312    0.0000 C   0  0  0  0  0  0  0  0  0  0  0  0
    7.9654   -5.6312    0.0000 C   0  0  0  0  0  0  0  0  0  0  0  0
    6.8384   -6.7581    0.0000 C   0  0  2  0  0  0  0  0  0  0  0  0
    6.8384   -7.5831    0.0000 C   0  0  1  0  0  0  0  0  0  0  0  0
    6.8384   -8.4081    0.0000 H   0  0  0  0  0  0  0  0  0  0  0  0
    6.1239   -7.9956    0.0000 C   0  0  0  0  0  0  0  0  0  0  0  0
    5.4095   -7.5831    0.0000 C   0  0  0  0  0  0  0  0  0  0  0  0
    4.6950   -7.9956    0.0000 C   0  0  0  0  0  0  0  0  0  0  0  0
    4.6950   -8.8206    0.0000 C   0  0  2  0  0  0  0  0  0  0  0  0
    3.9805   -9.2331    0.0000 C   0  0  1  0  0  0  0  0  0  0  0  0
    3.9805   -8.4081    0.0000 C   0  0  0  0  0  0  0  0  0  0  0  0
    8.2674   -9.2331    0.0000 O   0  0  0  0  0  0  0  0  0  0  0  0
    6.1239   -6.3456    0.0000 O   0  0  0  0  0  0  0  0  0  0  0  0
    1.8371  -10.4706    0.0000 O   0  0  0  0  0  0  0  0  0  0  0  0
    4.6950   -9.6456    0.0000 H   0  0  0  0  0  0  0  0  0  0  0  0
   11.1432  -10.8697    0.0000 O   0  0  0  0  0  0  0  0  0  0  0  0
   10.4262  -10.4617    0.0000 C   0  0  0  0  0  0  0  0  0  0  0  0
    9.7040   -9.2286    0.0000 O   0  0  0  0  0  0  0  0  0  0  0  0
   10.4210   -9.6367    0.0000 C   0  0  1  0  0  0  0  0  0  0  0  0
   11.8500   -9.6277    0.0000 O   0  0  0  0  0  0  0  0  0  0  0  0
   11.1329   -9.2197    0.0000 C   0  0  1  0  0  0  0  0  0  0  0  0
   11.8397   -7.9778    0.0000 O   0  0  0  0  0  0  0  0  0  0  0  0
   11.1278   -8.3947    0.0000 C   0  0  2  0  0  0  0  0  0  0  0  0
   10.4056   -7.1617    0.0000 O   0  0  0  0  0  0  0  0  0  0  0  0
   10.4107   -7.9867    0.0000 C   0  0  1  0  0  0  0  0  0  0  0  0
    9.6989   -8.4037    0.0000 C   0  0  2  0  0  0  0  0  0  0  0  0
    8.9818   -7.9956    0.0000 O   0  0  0  0  0  0  0  0  0  0  0  0
 47 39  1  0  0  0  0
 38 37  1  0  0  0  0
 40 38  1  1  0  0  0
 40 39  1  0  0  0  0
 42 40  1  0  0  0  0
 42 41  1  6  0  0  0
 44 42  1  0  0  0  0
 44 43  1  1  0  0  0
 46 44  1  0  0  0  0
 46 45  1  6  0  0  0
 47 46  1  0  0  0  0
 47 48  1  1  0  0  0
  1  2  1  0  0  0  0
  2  3  1  0  0  0  0
  1  4  1  0  0  0  0
  4  5  1  0  0  0  0
  4  6  1  0  0  0  0
  4  7  1  0  0  0  0
  7  8  1  6  0  0  0
  7  9  1  0  0  0  0
  9 10  1  0  0  0  0
 10 11  1  0  0  0  0
 11 12  1  1  0  0  0
 11 13  1  0  0  0  0
 13 14  1  6  0  0  0
 13 15  1  0  0  0  0
 15 16  1  0  0  0  0
 16 17  1  0  0  0  0
 17 18  1  1  0  0  0
 17 19  1  0  0  0  0
 19 20  1  0  0  0  0
 20 21  1  0  0  0  0
 21 22  1  0  0  0  0
 21 23  1  0  0  0  0
 21 24  1  0  0  0  0
 24 25  1  0  0  0  0
 25 26  1  1  0  0  0
 17 25  1  0  0  0  0
 25 27  1  0  0  0  0
 13 27  1  0  0  0  0
 27 28  2  0  0  0  0
 28 29  1  0  0  0  0
 29 30  1  0  0  0  0
 11 30  1  0  0  0  0
 30 31  1  0  0  0  0
  3 31  1  0  0  0  0
  7 31  1  0  0  0  0
 31 32  1  1  0  0  0
 18 33  2  0  0  0  0
 24 34  1  6  0  0  0
  1 35  1  1  0  0  0
 18 48  1  0  0  0  0
 30 36  1  6  0  0  0
M  END
>  <cdx:groupId>
151

>  <cdx:fragmentId>
5

$$$$
