95166.cdx
  Mrv1902 05222410192D          

 63 62  0  0  0  0            999 V2000
   17.6677   -9.6316    0.0000 O   0  0  0  0  0  0  0  0  0  0  0  0
   18.3822  -10.0441    0.0000 C   0  0  0  0  0  0  0  0  0  0  0  0
   19.0966   -9.6316    0.0000 C   0  0  0  0  0  0  0  0  0  0  0  0
   19.8111  -10.0441    0.0000 C   0  0  0  0  0  0  0  0  0  0  0  0
   20.5256   -9.6316    0.0000 C   0  0  0  0  0  0  0  0  0  0  0  0
   21.2401  -10.0441    0.0000 C   0  0  0  0  0  0  0  0  0  0  0  0
   21.9545   -9.6316    0.0000 C   0  0  0  0  0  0  0  0  0  0  0  0
   22.6690  -10.0441    0.0000 C   0  0  0  0  0  0  0  0  0  0  0  0
   23.3835   -9.6316    0.0000 C   0  0  0  0  0  0  0  0  0  0  0  0
   24.0979  -10.0441    0.0000 C   0  0  0  0  0  0  0  0  0  0  0  0
   18.3822  -10.8691    0.0000 O   0  0  0  0  0  0  0  0  0  0  0  0
   16.9532  -10.0441    0.0000 C   0  0  0  0  0  0  0  0  0  0  0  0
   24.8124   -9.6316    0.0000 C   0  0  0  0  0  0  0  0  0  0  0  0
   24.8124   -8.8066    0.0000 C   0  0  0  0  0  0  0  0  0  0  0  0
   25.5269   -8.3941    0.0000 C   0  0  0  0  0  0  0  0  0  0  0  0
   25.5269   -7.5691    0.0000 C   0  0  0  0  0  0  0  0  0  0  0  0
   24.8124   -7.1566    0.0000 C   0  0  0  0  0  0  0  0  0  0  0  0
   24.8124   -6.3316    0.0000 C   0  0  0  0  0  0  0  0  0  0  0  0
   24.0979   -5.9191    0.0000 C   0  0  0  0  0  0  0  0  0  0  0  0
   16.2388   -9.6316    0.0000 C   0  0  0  0  0  0  0  0  0  0  0  0
   16.9532  -10.8691    0.0000 C   0  0  0  0  0  0  0  0  0  0  0  0
   15.5243  -10.0441    0.0000 O   0  0  0  0  0  0  0  0  0  0  0  0
   16.2388  -11.2816    0.0000 O   0  0  0  0  0  0  0  0  0  0  0  0
   14.8098   -9.6316    0.0000 C   0  0  0  0  0  0  0  0  0  0  0  0
   14.0953  -10.0441    0.0000 C   0  0  0  0  0  0  0  0  0  0  0  0
   14.8098   -8.8066    0.0000 O   0  0  0  0  0  0  0  0  0  0  0  0
   16.2388  -12.1066    0.0000 C   0  0  0  0  0  0  0  0  0  0  0  0
   15.5243  -12.5191    0.0000 C   0  0  0  0  0  0  0  0  0  0  0  0
   16.9532  -12.5191    0.0000 O   0  0  0  0  0  0  0  0  0  0  0  0
   15.5243  -13.3441    0.0000 C   0  0  0  0  0  0  0  0  0  0  0  0
   14.8098  -13.7566    0.0000 C   0  0  0  0  0  0  0  0  0  0  0  0
   14.8098  -14.5816    0.0000 C   0  0  0  0  0  0  0  0  0  0  0  0
   14.0953  -14.9941    0.0000 C   0  0  0  0  0  0  0  0  0  0  0  0
   14.0953  -15.8191    0.0000 C   0  0  0  0  0  0  0  0  0  0  0  0
   13.3809  -16.2316    0.0000 C   0  0  0  0  0  0  0  0  0  0  0  0
   13.3809  -17.0566    0.0000 C   0  0  0  0  0  0  0  0  0  0  0  0
   12.6664  -17.4691    0.0000 C   0  0  0  0  0  0  0  0  0  0  0  0
   11.9519  -17.0566    0.0000 C   0  0  0  0  0  0  0  0  0  0  0  0
   11.2375  -17.4691    0.0000 C   0  0  0  0  0  0  0  0  0  0  0  0
   10.5230  -17.0566    0.0000 C   0  0  0  0  0  0  0  0  0  0  0  0
   10.5230  -16.2316    0.0000 C   0  0  0  0  0  0  0  0  0  0  0  0
    9.8085  -15.8191    0.0000 C   0  0  0  0  0  0  0  0  0  0  0  0
    9.0940  -16.2316    0.0000 C   0  0  0  0  0  0  0  0  0  0  0  0
   13.3809   -9.6316    0.0000 C   0  0  0  0  0  0  0  0  0  0  0  0
   12.6664  -10.0441    0.0000 C   0  0  0  0  0  0  0  0  0  0  0  0
   11.9519   -9.6316    0.0000 C   0  0  0  0  0  0  0  0  0  0  0  0
   11.2375  -10.0441    0.0000 C   0  0  0  0  0  0  0  0  0  0  0  0
   10.5230   -9.6316    0.0000 C   0  0  0  0  0  0  0  0  0  0  0  0
    9.8085  -10.0441    0.0000 C   0  0  0  0  0  0  0  0  0  0  0  0
    9.0940   -9.6316    0.0000 C   0  0  0  0  0  0  0  0  0  0  0  0
    8.3796  -10.0441    0.0000 C   0  0  0  0  0  0  0  0  0  0  0  0
    8.3796  -10.8691    0.0000 C   0  0  0  0  0  0  0  0  0  0  0  0
    7.6651  -11.2816    0.0000 C   0  0  0  0  0  0  0  0  0  0  0  0
    7.6651  -12.1066    0.0000 C   0  0  0  0  0  0  0  0  0  0  0  0
    8.3796  -12.5191    0.0000 C   0  0  0  0  0  0  0  0  0  0  0  0
    8.3796  -13.3441    0.0000 C   0  0  0  0  0  0  0  0  0  0  0  0
    7.6651  -13.7566    0.0000 C   0  0  0  0  0  0  0  0  0  0  0  0
   23.3835   -6.3316    0.0000 C   0  0  0  0  0  0  0  0  0  0  0  0
   22.6690   -5.9191    0.0000 C   0  0  0  0  0  0  0  0  0  0  0  0
    6.9506  -13.3441    0.0000 C   0  0  0  0  0  0  0  0  0  0  0  0
    6.2362  -13.7566    0.0000 C   0  0  0  0  0  0  0  0  0  0  0  0
    9.0940  -17.0566    0.0000 C   0  0  0  0  0  0  0  0  0  0  0  0
    8.3796  -17.4691    0.0000 C   0  0  0  0  0  0  0  0  0  0  0  0
  1 12  1  0  0  0  0
  2  3  1  0  0  0  0
  3  4  1  0  0  0  0
  4  5  1  0  0  0  0
  5  6  1  0  0  0  0
  6  7  1  0  0  0  0
  7  8  1  0  0  0  0
  8  9  1  0  0  0  0
  9 10  1  0  0  0  0
  2 11  2  0  0  0  0
  1  2  1  0  0  0  0
 10 13  2  0  0  0  0
 13 14  1  0  0  0  0
 14 15  1  0  0  0  0
 15 16  2  0  0  0  0
 16 17  1  0  0  0  0
 17 18  1  0  0  0  0
 18 19  2  0  0  0  0
 12 20  1  0  0  0  0
 12 21  1  0  0  0  0
 20 22  1  0  0  0  0
 21 23  1  0  0  0  0
 22 24  1  0  0  0  0
 24 25  1  0  0  0  0
 24 26  2  0  0  0  0
 23 27  1  0  0  0  0
 27 28  1  0  0  0  0
 27 29  2  0  0  0  0
 28 30  1  0  0  0  0
 30 31  1  0  0  0  0
 31 32  1  0  0  0  0
 32 33  1  0  0  0  0
 33 34  1  0  0  0  0
 34 35  1  0  0  0  0
 35 36  1  0  0  0  0
 36 37  2  0  0  0  0
 37 38  1  0  0  0  0
 38 39  1  0  0  0  0
 39 40  2  0  0  0  0
 40 41  1  0  0  0  0
 41 42  1  0  0  0  0
 42 43  2  0  0  0  0
 25 44  1  0  0  0  0
 44 45  1  0  0  0  0
 45 46  1  0  0  0  0
 46 47  1  0  0  0  0
 47 48  1  0  0  0  0
 48 49  1  0  0  0  0
 49 50  1  0  0  0  0
 50 51  2  0  0  0  0
 51 52  1  0  0  0  0
 52 53  1  0  0  0  0
 53 54  2  0  0  0  0
 54 55  1  0  0  0  0
 55 56  1  0  0  0  0
 56 57  2  0  0  0  0
 19 58  1  0  0  0  0
 58 59  1  0  0  0  0
 57 60  1  0  0  0  0
 60 61  1  0  0  0  0
 43 62  1  0  0  0  0
 62 63  1  0  0  0  0
M  END
>  <cdx:fragmentId>
21595

$$$$
