95162.cdx
  Mrv1902 05222410192D          

 57 63  0  0  0  0            999 V2000
    4.3380   -9.8106    0.0000 C   0  0  1  0  0  0  0  0  0  0  0  0
    4.3380   -8.9856    0.0000 C   0  0  0  0  0  0  0  0  0  0  0  0
    5.0525   -8.5731    0.0000 C   0  0  0  0  0  0  0  0  0  0  0  0
    5.0525  -10.2231    0.0000 C   0  0  0  0  0  0  0  0  0  0  0  0
    5.4650  -10.9376    0.0000 C   0  0  0  0  0  0  0  0  0  0  0  0
    4.6400  -10.9376    0.0000 C   0  0  0  0  0  0  0  0  0  0  0  0
    5.7670   -9.8106    0.0000 C   0  0  2  0  0  0  0  0  0  0  0  0
    5.7670  -10.6356    0.0000 H   0  0  0  0  0  0  0  0  0  0  0  0
    6.4814  -10.2231    0.0000 C   0  0  0  0  0  0  0  0  0  0  0  0
    7.1959   -9.8106    0.0000 C   0  0  0  0  0  0  0  0  0  0  0  0
    7.1959   -8.9856    0.0000 C   0  0  1  0  0  0  0  0  0  0  0  0
    7.1959   -8.1606    0.0000 C   0  0  0  0  0  0  0  0  0  0  0  0
    7.9104   -8.5731    0.0000 C   0  0  2  0  0  0  0  0  0  0  0  0
    7.9104   -9.3981    0.0000 C   0  0  0  0  0  0  0  0  0  0  0  0
    8.6249   -8.9856    0.0000 C   0  0  0  0  0  0  0  0  0  0  0  0
    9.3393   -8.5731    0.0000 C   0  0  0  0  0  0  0  0  0  0  0  0
    9.3393   -7.7481    0.0000 C   0  0  1  0  0  0  0  0  0  0  0  0
   10.0538   -8.1606    0.0000 C   0  0  0  0  0  0  0  0  0  0  0  0
   10.0538   -7.3356    0.0000 C   0  0  0  0  0  0  0  0  0  0  0  0
   10.0538   -6.5106    0.0000 C   0  0  0  0  0  0  0  0  0  0  0  0
    9.3393   -6.0981    0.0000 C   0  0  1  0  0  0  0  0  0  0  0  0
    9.3393   -5.2731    0.0000 C   0  0  0  0  0  0  0  0  0  0  0  0
    8.6249   -6.5106    0.0000 C   0  0  2  0  0  0  0  0  0  0  0  0
    8.2124   -5.7962    0.0000 C   0  0  0  0  0  0  0  0  0  0  0  0
    8.6249   -7.3356    0.0000 C   0  0  1  0  0  0  0  0  0  0  0  0
    8.6249   -8.1606    0.0000 H   0  0  0  0  0  0  0  0  0  0  0  0
    7.9104   -7.7481    0.0000 C   0  0  0  0  0  0  0  0  0  0  0  0
    7.1959   -7.3356    0.0000 C   0  0  0  0  0  0  0  0  0  0  0  0
    6.4814   -7.7481    0.0000 C   0  0  0  0  0  0  0  0  0  0  0  0
    6.4814   -8.5731    0.0000 C   0  0  2  0  0  0  0  0  0  0  0  0
    5.7670   -8.9856    0.0000 C   0  0  1  0  0  0  0  0  0  0  0  0
    5.7670   -8.1606    0.0000 C   0  0  0  0  0  0  0  0  0  0  0  0
   10.0538   -8.9856    0.0000 O   0  0  0  0  0  0  0  0  0  0  0  0
    7.7999   -6.5106    0.0000 O   0  0  0  0  0  0  0  0  0  0  0  0
    3.6236  -10.2231    0.0000 O   0  0  0  0  0  0  0  0  0  0  0  0
    2.9091   -9.8106    0.0000 C   0  0  1  0  0  0  0  0  0  0  0  0
    2.1946  -10.2231    0.0000 C   0  0  2  0  0  0  0  0  0  0  0  0
    2.1946  -11.0481    0.0000 O   0  0  0  0  0  0  0  0  0  0  0  0
    1.4801   -9.8106    0.0000 C   0  0  1  0  0  0  0  0  0  0  0  0
    0.7657  -10.2231    0.0000 O   0  0  0  0  0  0  0  0  0  0  0  0
    1.4801   -8.9856    0.0000 C   0  0  1  0  0  0  0  0  0  0  0  0
    0.7657   -8.5731    0.0000 O   0  0  0  0  0  0  0  0  0  0  0  0
    2.1946   -8.5731    0.0000 C   0  0  0  0  0  0  0  0  0  0  0  0
    2.9091   -8.9856    0.0000 O   0  0  0  0  0  0  0  0  0  0  0  0
    6.4814   -9.3981    0.0000 H   0  0  0  0  0  0  0  0  0  0  0  0
   12.9446  -10.6109    0.0000 O   0  0  0  0  0  0  0  0  0  0  0  0
   12.2254  -10.2066    0.0000 C   0  0  0  0  0  0  0  0  0  0  0  0
   11.4968   -8.9774    0.0000 O   0  0  0  0  0  0  0  0  0  0  0  0
   12.2160   -9.3817    0.0000 C   0  0  1  0  0  0  0  0  0  0  0  0
   13.6448   -9.3653    0.0000 O   0  0  0  0  0  0  0  0  0  0  0  0
   12.9257   -8.9610    0.0000 C   0  0  1  0  0  0  0  0  0  0  0  0
   13.6260   -7.7154    0.0000 O   0  0  0  0  0  0  0  0  0  0  0  0
   12.9163   -8.1361    0.0000 C   0  0  2  0  0  0  0  0  0  0  0  0
   12.1877   -6.9068    0.0000 O   0  0  0  0  0  0  0  0  0  0  0  0
   12.1971   -7.7318    0.0000 C   0  0  1  0  0  0  0  0  0  0  0  0
   11.4874   -8.1524    0.0000 C   0  0  2  0  0  0  0  0  0  0  0  0
   10.7683   -7.7481    0.0000 O   0  0  0  0  0  0  0  0  0  0  0  0
 56 48  1  0  0  0  0
 47 46  1  0  0  0  0
 49 47  1  1  0  0  0
 49 48  1  0  0  0  0
 51 49  1  0  0  0  0
 51 50  1  6  0  0  0
 53 51  1  0  0  0  0
 53 52  1  1  0  0  0
 55 53  1  0  0  0  0
 55 54  1  6  0  0  0
 56 55  1  0  0  0  0
 56 57  1  1  0  0  0
  1  2  1  0  0  0  0
  2  3  1  0  0  0  0
  1  4  1  0  0  0  0
  4  5  1  0  0  0  0
  4  6  1  0  0  0  0
  4  7  1  0  0  0  0
  7  8  1  6  0  0  0
  7  9  1  0  0  0  0
  9 10  1  0  0  0  0
 10 11  1  0  0  0  0
 11 12  1  1  0  0  0
 11 13  1  0  0  0  0
 13 14  1  6  0  0  0
 13 15  1  0  0  0  0
 15 16  1  0  0  0  0
 16 17  1  0  0  0  0
 17 18  1  1  0  0  0
 17 19  1  0  0  0  0
 19 20  1  0  0  0  0
 20 21  1  0  0  0  0
 21 22  1  6  0  0  0
 21 23  1  0  0  0  0
 23 24  1  1  0  0  0
 23 25  1  0  0  0  0
 25 26  1  1  0  0  0
 17 25  1  0  0  0  0
 25 27  1  0  0  0  0
 13 27  1  0  0  0  0
 27 28  2  0  0  0  0
 28 29  1  0  0  0  0
 29 30  1  0  0  0  0
 11 30  1  0  0  0  0
 30 31  1  0  0  0  0
  3 31  1  0  0  0  0
  7 31  1  0  0  0  0
 31 32  1  1  0  0  0
 18 33  2  0  0  0  0
 23 34  1  6  0  0  0
 36 37  1  0  0  0  0
 37 38  1  6  0  0  0
 37 39  1  0  0  0  0
 39 40  1  1  0  0  0
 39 41  1  0  0  0  0
 41 42  1  1  0  0  0
 41 43  1  0  0  0  0
 43 44  1  0  0  0  0
 36 44  1  0  0  0  0
 36 35  1  1  0  0  0
  1 35  1  1  0  0  0
 18 57  1  0  0  0  0
 30 45  1  6  0  0  0
M  END
>  <cdx:groupId>
179

>  <cdx:fragmentId>
5

$$$$
