95172.cdx
  Mrv1902 05222410192D          

 15 15  0  0  0  0            999 V2000
    9.5468   -8.0041    0.0000 C   0  0  0  0  0  0  0  0  0  0  0  0
    8.8323   -8.4166    0.0000 C   0  0  0  0  0  0  0  0  0  0  0  0
    8.1179   -8.0041    0.0000 C   0  0  0  0  0  0  0  0  0  0  0  0
    9.5468   -7.1791    0.0000 O   0  0  0  0  0  0  0  0  0  0  0  0
   10.2613   -8.4166    0.0000 O   0  0  0  0  0  0  0  0  0  0  0  0
    7.4034   -8.4166    0.0000 C   0  0  0  0  0  0  0  0  0  0  0  0
    6.6889   -8.0041    0.0000 C   0  0  0  0  0  0  0  0  0  0  0  0
    5.9745   -8.4166    0.0000 C   0  0  0  0  0  0  0  0  0  0  0  0
    5.9745   -9.2416    0.0000 C   0  0  0  0  0  0  0  0  0  0  0  0
    6.6889   -9.6541    0.0000 C   0  0  0  0  0  0  0  0  0  0  0  0
    7.4034   -9.2416    0.0000 C   0  0  0  0  0  0  0  0  0  0  0  0
    5.2600   -8.0041    0.0000 O   0  0  0  0  0  0  0  0  0  0  0  0
    5.2600   -9.6541    0.0000 O   0  0  0  0  0  0  0  0  0  0  0  0
    4.5455   -9.2416    0.0000 C   0  0  0  0  0  0  0  0  0  0  0  0
    3.8310   -9.6541    0.0000 C   0  0  0  0  0  0  0  0  0  0  0  0
  1  2  1  0  0  0  0
  2  3  2  0  0  0  0
  1  4  2  0  0  0  0
  1  5  1  0  0  0  0
  6  7  1  0  0  0  0
  7  8  2  0  0  0  0
  8  9  1  0  0  0  0
  9 10  2  0  0  0  0
 10 11  1  0  0  0  0
  6 11  2  0  0  0  0
  8 12  1  0  0  0  0
 14 15  1  0  0  0  0
 13 14  1  0  0  0  0
  9 13  1  0  0  0  0
  3  6  1  0  0  0  0
M  END
>  <cdx:fragmentId>
15

$$$$
