95170.cdx
  Mrv1902 05222410182D          

 32 35  0  0  0  0            999 V2000
    7.5529   -7.8031    0.0000 C   0  0  0  0  0  0  0  0  0  0  0  0
    7.5529   -8.6281    0.0000 C   0  0  0  0  0  0  0  0  0  0  0  0
    6.8384   -9.0406    0.0000 C   0  0  0  0  0  0  0  0  0  0  0  0
    6.8384   -9.8656    0.0000 O   0  0  0  0  0  0  0  0  0  0  0  0
    6.1239   -8.6281    0.0000 C   0  0  0  0  0  0  0  0  0  0  0  0
    5.4095   -9.0406    0.0000 C   0  0  0  0  0  0  0  0  0  0  0  0
    5.4095   -9.8656    0.0000 O   0  0  0  0  0  0  0  0  0  0  0  0
    4.6950   -8.6281    0.0000 C   0  0  0  0  0  0  0  0  0  0  0  0
    4.6950   -7.8031    0.0000 C   0  0  0  0  0  0  0  0  0  0  0  0
    3.9805   -7.3906    0.0000 O   0  0  0  0  0  0  0  0  0  0  0  0
    5.4095   -7.3906    0.0000 C   0  0  0  0  0  0  0  0  0  0  0  0
    6.1239   -7.8031    0.0000 C   0  0  0  0  0  0  0  0  0  0  0  0
    6.8384   -7.3906    0.0000 O   0  0  0  0  0  0  0  0  0  0  0  0
    8.2674   -7.3906    0.0000 C   0  0  0  0  0  0  0  0  0  0  0  0
    8.2674   -6.5656    0.0000 C   0  0  0  0  0  0  0  0  0  0  0  0
    8.9818   -6.1531    0.0000 C   0  0  0  0  0  0  0  0  0  0  0  0
    8.9818   -5.3281    0.0000 O   0  0  0  0  0  0  0  0  0  0  0  0
    9.6963   -4.9156    0.0000 C   0  0  0  0  0  0  0  0  0  0  0  0
    9.6963   -6.5656    0.0000 C   0  0  0  0  0  0  0  0  0  0  0  0
   10.4108   -6.1531    0.0000 O   0  0  0  0  0  0  0  0  0  0  0  0
    9.6963   -7.3906    0.0000 C   0  0  0  0  0  0  0  0  0  0  0  0
    8.9818   -7.8031    0.0000 C   0  0  0  0  0  0  0  0  0  0  0  0
    8.2674   -9.0406    0.0000 O   0  0  0  0  0  0  0  0  0  0  0  0
    8.2674   -9.8656    0.0000 C   0  0  1  0  0  0  0  0  0  0  0  0
    8.9348  -10.3505    0.0000 C   0  0  1  0  0  0  0  0  0  0  0  0
    9.7194  -10.0956    0.0000 O   0  0  0  0  0  0  0  0  0  0  0  0
    8.6799  -11.1351    0.0000 C   0  0  2  0  0  0  0  0  0  0  0  0
    9.1648  -11.8026    0.0000 O   0  0  0  0  0  0  0  0  0  0  0  0
    7.8549  -11.1351    0.0000 C   0  0  2  0  0  0  0  0  0  0  0  0
    7.5999  -10.3505    0.0000 O   0  0  0  0  0  0  0  0  0  0  0  0
    7.3699  -11.8026    0.0000 C   0  0  0  0  0  0  0  0  0  0  0  0
    6.5495  -11.7163    0.0000 O   0  0  0  0  0  0  0  0  0  0  0  0
  1  2  2  0  0  0  0
  2  3  1  0  0  0  0
  3  4  2  0  0  0  0
  3  5  1  0  0  0  0
  5  6  1  0  0  0  0
  6  7  1  0  0  0  0
  6  8  2  0  0  0  0
  8  9  1  0  0  0  0
  9 10  1  0  0  0  0
  9 11  2  0  0  0  0
 11 12  1  0  0  0  0
  5 12  2  0  0  0  0
 12 13  1  0  0  0  0
  1 13  1  0  0  0  0
  1 14  1  0  0  0  0
 14 15  1  0  0  0  0
 15 16  2  0  0  0  0
 16 17  1  0  0  0  0
 17 18  1  0  0  0  0
 16 19  1  0  0  0  0
 19 20  1  0  0  0  0
 19 21  2  0  0  0  0
 21 22  1  0  0  0  0
 14 22  2  0  0  0  0
 24 23  1  1  0  0  0
 24 25  1  0  0  0  0
 25 26  1  1  0  0  0
 25 27  1  0  0  0  0
 27 28  1  6  0  0  0
 27 29  1  0  0  0  0
 29 30  1  0  0  0  0
 29 31  1  1  0  0  0
 31 32  1  0  0  0  0
 24 30  1  0  0  0  0
  2 23  1  0  0  0  0
M  END
>  <cdx:fragmentId>
5

$$$$
