95171.cdx
  Mrv1902 05222410182D          

 53 56  0  0  0  0            999 V2000
   17.0086   -8.2232    0.0000 O   0  0  0  0  0  0  0  0  0  0  0  0
   17.5754   -8.8072    0.0000 C   0  0  2  0  0  0  0  0  0  0  0  0
   13.6779  -10.6718    0.0000 C   0  0  0  0  0  0  0  0  0  0  0  0
   12.9635  -11.0843    0.0000 C   0  0  0  0  0  0  0  0  0  0  0  0
   12.9635  -11.9093    0.0000 C   0  0  1  0  0  0  0  0  0  0  0  0
   13.6779  -12.3218    0.0000 C   0  0  0  0  0  0  0  0  0  0  0  0
   14.3924  -11.9093    0.0000 C   0  0  2  0  0  0  0  0  0  0  0  0
   15.1069  -12.3218    0.0000 C   0  0  0  0  0  0  0  0  0  0  0  0
   15.8213  -11.9093    0.0000 C   0  0  0  0  0  0  0  0  0  0  0  0
   15.8213  -11.0843    0.0000 C   0  0  1  0  0  0  0  0  0  0  0  0
   16.5358  -10.6718    0.0000 C   0  0  2  0  0  0  0  0  0  0  0  0
   17.3204  -10.9267    0.0000 C   0  0  0  0  0  0  0  0  0  0  0  0
   17.8054  -10.2593    0.0000 C   0  0  0  0  0  0  0  0  0  0  0  0
   17.3204   -9.5919    0.0000 C   0  0  1  0  0  0  0  0  0  0  0  0
   16.5358   -9.8468    0.0000 C   0  0  1  0  0  0  0  0  0  0  0  0
   15.8213   -9.4343    0.0000 C   0  0  0  0  0  0  0  0  0  0  0  0
   15.1069   -9.8468    0.0000 C   0  0  0  0  0  0  0  0  0  0  0  0
   15.1069  -10.6718    0.0000 C   0  0  2  0  0  0  0  0  0  0  0  0
   14.3924  -11.0843    0.0000 C   0  0  1  0  0  0  0  0  0  0  0  0
   16.5358  -11.4968    0.0000 C   0  0  0  0  0  0  0  0  0  0  0  0
   14.3924  -10.2593    0.0000 C   0  0  0  0  0  0  0  0  0  0  0  0
   15.8213  -10.2593    0.0000 C   0  0  0  0  0  0  0  0  0  0  0  0
   14.0904  -13.0363    0.0000 C   0  0  0  0  0  0  0  0  0  0  0  0
   13.2654  -13.0363    0.0000 C   0  0  0  0  0  0  0  0  0  0  0  0
   12.2490  -12.3218    0.0000 O   0  0  0  0  0  0  0  0  0  0  0  0
   14.3924  -12.7343    0.0000 H   0  0  0  0  0  0  0  0  0  0  0  0
   15.1069  -11.4968    0.0000 H   0  0  0  0  0  0  0  0  0  0  0  0
   16.6221   -9.0263    0.0000 H   0  0  0  0  0  0  0  0  0  0  0  0
   18.1353   -9.4628    0.0000 H   0  0  0  0  0  0  0  0  0  0  0  0
   18.3824   -8.6357    0.0000 C   0  0  0  0  0  0  0  0  0  0  0  0
   18.9344   -9.2488    0.0000 C   0  0  0  0  0  0  0  0  0  0  0  0
   19.7414   -9.0773    0.0000 C   0  0  0  0  0  0  0  0  0  0  0  0
   20.2934   -9.6904    0.0000 C   0  0  0  0  0  0  0  0  0  0  0  0
   21.1004   -9.5189    0.0000 C   0  0  0  0  0  0  0  0  0  0  0  0
   20.0385  -10.4750    0.0000 C   0  0  0  0  0  0  0  0  0  0  0  0
   17.8303   -8.0226    0.0000 C   0  0  0  0  0  0  0  0  0  0  0  0
   11.5345  -11.9093    0.0000 C   0  0  0  0  0  0  0  0  0  0  0  0
   10.8201  -12.3218    0.0000 C   0  0  0  0  0  0  0  0  0  0  0  0
   10.1056  -11.9093    0.0000 C   0  0  0  0  0  0  0  0  0  0  0  0
    9.3911  -12.3218    0.0000 C   0  0  0  0  0  0  0  0  0  0  0  0
    8.6766  -11.9093    0.0000 C   0  0  0  0  0  0  0  0  0  0  0  0
    7.9622  -12.3218    0.0000 C   0  0  0  0  0  0  0  0  0  0  0  0
    7.2477  -11.9093    0.0000 C   0  0  0  0  0  0  0  0  0  0  0  0
    6.5332  -12.3218    0.0000 C   0  0  0  0  0  0  0  0  0  0  0  0
    5.8188  -11.9093    0.0000 C   0  0  0  0  0  0  0  0  0  0  0  0
    5.1043  -12.3218    0.0000 C   0  0  0  0  0  0  0  0  0  0  0  0
    4.3898  -11.9093    0.0000 C   0  0  0  0  0  0  0  0  0  0  0  0
    3.6753  -12.3218    0.0000 C   0  0  0  0  0  0  0  0  0  0  0  0
    2.9609  -11.9093    0.0000 C   0  0  0  0  0  0  0  0  0  0  0  0
    2.2464  -12.3218    0.0000 C   0  0  0  0  0  0  0  0  0  0  0  0
    1.5319  -11.9093    0.0000 C   0  0  0  0  0  0  0  0  0  0  0  0
    0.8175  -12.3218    0.0000 C   0  0  0  0  0  0  0  0  0  0  0  0
   11.5345  -11.0843    0.0000 O   0  0  0  0  0  0  0  0  0  0  0  0
  3  4  1  0  0  0  0
  4  5  1  0  0  0  0
  5  6  1  0  0  0  0
  6  7  1  0  0  0  0
  7  8  1  0  0  0  0
  8  9  1  0  0  0  0
  9 10  1  0  0  0  0
 10 11  1  0  0  0  0
 11 12  1  0  0  0  0
 12 13  1  0  0  0  0
 14 13  1  0  0  0  0
 14 15  1  0  0  0  0
 11 15  1  0  0  0  0
 15 16  1  0  0  0  0
 16 17  1  0  0  0  0
 17 18  1  0  0  0  0
 10 18  1  0  0  0  0
 18 19  1  0  0  0  0
  7 19  1  0  0  0  0
  3 19  1  0  0  0  0
 11 20  1  6  0  0  0
 19 21  1  1  0  0  0
 10 22  1  1  0  0  0
  6 23  1  0  0  0  0
  6 24  1  0  0  0  0
  5 25  1  1  0  0  0
  2 14  1  0  0  0  0
  7 26  1  6  0  0  0
 18 27  1  6  0  0  0
 15 28  1  1  0  0  0
 14 29  1  6  0  0  0
  2 30  1  0  0  0  0
 30 31  1  0  0  0  0
 31 32  1  0  0  0  0
 32 33  2  0  0  0  0
 33 34  1  0  0  0  0
 33 35  1  0  0  0  0
  2 36  1  6  0  0  0
  2  1  1  1  0  0  0
 25 37  1  0  0  0  0
 37 38  1  0  0  0  0
 38 39  1  0  0  0  0
 39 40  1  0  0  0  0
 40 41  1  0  0  0  0
 41 42  1  0  0  0  0
 42 43  1  0  0  0  0
 43 44  1  0  0  0  0
 44 45  1  0  0  0  0
 45 46  1  0  0  0  0
 46 47  1  0  0  0  0
 47 48  1  0  0  0  0
 48 49  1  0  0  0  0
 49 50  1  0  0  0  0
 50 51  1  0  0  0  0
 51 52  1  0  0  0  0
 37 53  2  0  0  0  0
M  END
>  <cdx:fragmentId>
31943

$$$$
