95173.cdx
  Mrv1902 05222410182D          

 33 38  0  0  0  0            999 V2000
    5.2781   -5.0875    0.0000 C   0  0  0  0  0  0  0  0  0  0  0  0
    5.2781   -5.9125    0.0000 C   0  0  0  0  0  0  0  0  0  0  0  0
    5.9925   -6.3250    0.0000 C   0  0  0  0  0  0  0  0  0  0  0  0
    6.7070   -5.9125    0.0000 C   0  0  0  0  0  0  0  0  0  0  0  0
    6.7070   -5.0875    0.0000 C   0  0  0  0  0  0  0  0  0  0  0  0
    5.9925   -4.6750    0.0000 C   0  0  0  0  0  0  0  0  0  0  0  0
    5.9925   -7.1500    0.0000 C   0  0  0  0  0  0  0  0  0  0  0  0
    6.7070   -7.5625    0.0000 C   0  0  0  0  0  0  0  0  0  0  0  0
    7.4215   -7.1500    0.0000 C   0  0  0  0  0  0  0  0  0  0  0  0
    7.4215   -6.3250    0.0000 C   0  0  0  0  0  0  0  0  0  0  0  0
    5.2781   -7.5625    0.0000 C   0  0  0  0  0  0  0  0  0  0  0  0
    5.2781   -8.3875    0.0000 C   0  0  0  0  0  0  0  0  0  0  0  0
    5.9925   -8.8000    0.0000 C   0  0  0  0  0  0  0  0  0  0  0  0
    6.7070   -8.3875    0.0000 C   0  0  0  0  0  0  0  0  0  0  0  0
    4.4934   -4.8326    0.0000 O   0  0  0  0  0  0  0  0  0  0  0  0
    4.0085   -5.5000    0.0000 C   0  0  0  0  0  0  0  0  0  0  0  0
    4.4934   -6.1674    0.0000 O   0  0  0  0  0  0  0  0  0  0  0  0
    8.0728   -5.5550    0.0000 N   0  0  0  0  0  0  0  0  0  0  0  0
    7.4916   -4.8326    0.0000 C   0  0  0  0  0  0  0  0  0  0  0  0
    7.7466   -4.0479    0.0000 O   0  0  0  0  0  0  0  0  0  0  0  0
    7.4215   -8.8000    0.0000 O   0  0  0  0  0  0  0  0  0  0  0  0
    7.4215   -9.6250    0.0000 C   0  0  0  0  0  0  0  0  0  0  0  0
    9.5076   -7.1998    0.0000 C   0  0  2  0  0  0  0  0  0  0  0  0
   10.2216   -6.7864    0.0000 C   0  0  2  0  0  0  0  0  0  0  0  0
   10.2206   -5.9614    0.0000 C   0  0  1  0  0  0  0  0  0  0  0  0
    9.5057   -5.5498    0.0000 C   0  0  2  0  0  0  0  0  0  0  0  0
    8.7917   -5.9632    0.0000 C   0  0  1  0  0  0  0  0  0  0  0  0
    8.7927   -6.7882    0.0000 O   0  0  0  0  0  0  0  0  0  0  0  0
    9.5086   -8.0248    0.0000 C   0  0  0  0  0  0  0  0  0  0  0  0
   10.9346   -5.5481    0.0000 O   0  0  0  0  0  0  0  0  0  0  0  0
   10.9366   -7.1981    0.0000 O   0  0  0  0  0  0  0  0  0  0  0  0
    9.5047   -4.7248    0.0000 O   0  0  0  0  0  0  0  0  0  0  0  0
   10.2236   -8.4364    0.0000 O   0  0  0  0  0  0  0  0  0  0  0  0
  1  2  2  0  0  0  0
  2  3  1  0  0  0  0
  3  4  2  0  0  0  0
  4  5  1  0  0  0  0
  5  6  2  0  0  0  0
  6  1  1  0  0  0  0
  3  7  1  0  0  0  0
  7  8  2  0  0  0  0
  8  9  1  0  0  0  0
  9 10  2  0  0  0  0
 10  4  1  0  0  0  0
  7 11  1  0  0  0  0
 11 12  2  0  0  0  0
 12 13  1  0  0  0  0
 13 14  2  0  0  0  0
 14  8  1  0  0  0  0
  1 15  1  0  0  0  0
 15 16  1  0  0  0  0
 16 17  1  0  0  0  0
 17  2  1  0  0  0  0
 18 19  1  0  0  0  0
 19  5  1  0  0  0  0
 18 10  1  0  0  0  0
 19 20  2  0  0  0  0
 14 21  1  0  0  0  0
 21 22  1  0  0  0  0
 23 24  1  0  0  0  0
 24 25  1  0  0  0  0
 25 26  1  0  0  0  0
 26 27  1  0  0  0  0
 27 28  1  0  0  0  0
 28 23  1  0  0  0  0
 23 29  1  1  0  0  0
 25 30  1  1  0  0  0
 24 31  1  6  0  0  0
 26 32  1  6  0  0  0
 29 33  1  0  0  0  0
 27 18  1  1  0  0  0
M  END
>  <cdx:fragmentId>
5

$$$$
