95175.cdx
  Mrv1902 05222410202D          

 36 39  0  0  0  0            999 V2000
    3.8618   -6.8338    0.0000 C   0  0  0  0  0  0  0  0  0  0  0  0
    3.8618   -7.6587    0.0000 C   0  0  0  0  0  0  0  0  0  0  0  0
    4.5763   -8.0713    0.0000 C   0  0  0  0  0  0  0  0  0  0  0  0
    5.2907   -7.6587    0.0000 C   0  0  0  0  0  0  0  0  0  0  0  0
    5.2907   -6.8338    0.0000 C   0  0  0  0  0  0  0  0  0  0  0  0
    4.5763   -6.4213    0.0000 C   0  0  0  0  0  0  0  0  0  0  0  0
    6.0052   -8.0713    0.0000 C   0  0  0  0  0  0  0  0  0  0  0  0
    6.7197   -7.6587    0.0000 C   0  0  0  0  0  0  0  0  0  0  0  0
    6.7197   -6.8338    0.0000 C   0  0  0  0  0  0  0  0  0  0  0  0
    6.0052   -6.4213    0.0000 O   0  0  0  0  0  0  0  0  0  0  0  0
    7.4342   -8.0713    0.0000 O   0  0  0  0  0  0  0  0  0  0  0  0
    8.1486   -6.8338    0.0000 C   0  0  0  0  0  0  0  0  0  0  0  0
    7.4342   -6.4213    0.0000 C   0  0  0  0  0  0  0  0  0  0  0  0
    8.8631   -6.4213    0.0000 C   0  0  0  0  0  0  0  0  0  0  0  0
    8.8631   -5.5962    0.0000 C   0  0  0  0  0  0  0  0  0  0  0  0
    8.1486   -5.1837    0.0000 C   0  0  0  0  0  0  0  0  0  0  0  0
    7.4342   -5.5962    0.0000 C   0  0  0  0  0  0  0  0  0  0  0  0
    3.1473   -6.4213    0.0000 O   0  0  0  0  0  0  0  0  0  0  0  0
    4.5763   -8.8963    0.0000 O   0  0  0  0  0  0  0  0  0  0  0  0
    6.0052   -8.8963    0.0000 O   0  0  0  0  0  0  0  0  0  0  0  0
    8.1486   -4.3587    0.0000 O   0  0  0  0  0  0  0  0  0  0  0  0
    9.5776   -5.1837    0.0000 O   0  0  0  0  0  0  0  0  0  0  0  0
    6.7091  -10.1414    0.0000 C   0  0  2  0  0  0  0  0  0  0  0  0
    7.4224  -10.5559    0.0000 C   0  0  1  0  0  0  0  0  0  0  0  0
    8.1380  -10.1454    0.0000 C   0  0  1  0  0  0  0  0  0  0  0  0
    8.1404   -9.3204    0.0000 C   0  0  2  0  0  0  0  0  0  0  0  0
    7.4271   -8.9059    0.0000 C   0  0  0  0  0  0  0  0  0  0  0  0
    6.7114   -9.3164    0.0000 O   0  0  0  0  0  0  0  0  0  0  0  0
    5.9935  -10.5519    0.0000 C   0  0  0  0  0  0  0  0  0  0  0  0
    7.4201  -11.3809    0.0000 O   0  0  0  0  0  0  0  0  0  0  0  0
    8.8514  -10.5599    0.0000 O   0  0  0  0  0  0  0  0  0  0  0  0
    8.8560   -8.9099    0.0000 O   0  0  0  0  0  0  0  0  0  0  0  0
    5.9912  -11.3769    0.0000 O   0  0  0  0  0  0  0  0  0  0  0  0
    5.2755  -11.7874    0.0000 C   0  0  0  0  0  0  0  0  0  0  0  0
    5.2732  -12.6124    0.0000 C   0  0  0  0  0  0  0  0  0  0  0  0
    4.5622  -11.3729    0.0000 O   0  0  0  0  0  0  0  0  0  0  0  0
  1  2  2  0  0  0  0
  2  3  1  0  0  0  0
  3  4  2  0  0  0  0
  4  5  1  0  0  0  0
  5  6  2  0  0  0  0
  6  1  1  0  0  0  0
  4  7  1  0  0  0  0
  7  8  1  0  0  0  0
  8  9  2  0  0  0  0
  9 10  1  0  0  0  0
 10  5  1  0  0  0  0
  8 11  1  0  0  0  0
 12 13  2  0  0  0  0
 13  9  1  0  0  0  0
 12 14  1  0  0  0  0
 14 15  2  0  0  0  0
 15 16  1  0  0  0  0
 16 17  2  0  0  0  0
 17 13  1  0  0  0  0
  1 18  1  0  0  0  0
  3 19  1  0  0  0  0
  7 20  2  0  0  0  0
 16 21  1  0  0  0  0
 15 22  1  0  0  0  0
 23 24  1  0  0  0  0
 24 25  1  0  0  0  0
 25 26  1  0  0  0  0
 26 27  1  0  0  0  0
 27 28  1  0  0  0  0
 28 23  1  0  0  0  0
 23 29  1  1  0  0  0
 24 30  1  1  0  0  0
 25 31  1  1  0  0  0
 26 32  1  6  0  0  0
 29 33  1  0  0  0  0
 33 34  1  0  0  0  0
 34 35  1  0  0  0  0
 34 36  2  0  0  0  0
 27 11  1  0  0  0  0
M  END
>  <cdx:fragmentId>
5

$$$$
