9517.cdx
  Mrv1902 05222410242D          

 32 34  0  0  0  0            999 V2000
   10.9803   -2.3183    0.0000 O   0  0  0  0  0  0  0  0  0  0  0  0
    9.5560   -1.4854    0.0000 O   0  0  0  0  0  0  0  0  0  0  0  0
    8.8300   -3.5438    0.0000 C   0  0  0  0  0  0  0  0  0  0  0  0
    8.8346   -2.7188    0.0000 C   0  0  0  0  0  0  0  0  0  0  0  0
    9.5514   -2.3103    0.0000 C   0  0  0  0  0  0  0  0  0  0  0  0
   10.2635   -2.7268    0.0000 C   0  0  0  0  0  0  0  0  0  0  0  0
   10.2589   -3.5518    0.0000 C   0  0  0  0  0  0  0  0  0  0  0  0
    9.5422   -3.9603    0.0000 C   0  0  0  0  0  0  0  0  0  0  0  0
    9.5376   -4.7853    0.0000 C   0  0  0  0  0  0  0  0  0  0  0  0
    8.8208   -5.1938    0.0000 C   0  0  0  0  0  0  0  0  0  0  0  0
    8.8162   -6.0188    0.0000 O   0  0  0  0  0  0  0  0  0  0  0  0
    8.8070   -7.6688    0.0000 O   0  0  0  0  0  0  0  0  0  0  0  0
    5.9491   -7.6528    0.0000 O   0  0  0  0  0  0  0  0  0  0  0  0
    5.2416   -6.4113    0.0000 O   0  0  0  0  0  0  0  0  0  0  0  0
    5.9584   -6.0028    0.0000 C   0  0  0  0  0  0  0  0  0  0  0  0
    6.6705   -6.4193    0.0000 C   0  0  2  0  0  0  0  0  0  0  0  0
    6.6659   -7.2443    0.0000 C   0  0  2  0  0  0  0  0  0  0  0  0
    7.3781   -7.6608    0.0000 C   0  0  1  0  0  0  0  0  0  0  0  0
    8.0948   -7.2523    0.0000 C   0  0  2  0  0  0  0  0  0  0  0  0
    8.0994   -6.4273    0.0000 C   0  0  1  0  0  0  0  0  0  0  0  0
    7.3873   -6.0108    0.0000 O   0  0  0  0  0  0  0  0  0  0  0  0
    7.3735   -8.4858    0.0000 O   0  0  0  0  0  0  0  0  0  0  0  0
    4.5156   -8.4698    0.0000 C   0  0  0  0  0  0  0  0  0  0  0  0
    4.5064  -10.1198    0.0000 O   0  0  0  0  0  0  0  0  0  0  0  0
    5.9307  -10.9528    0.0000 O   0  0  0  0  0  0  0  0  0  0  0  0
    7.3643  -10.1358    0.0000 O   0  0  0  0  0  0  0  0  0  0  0  0
    5.2278   -8.8863    0.0000 C   0  0  1  0  0  0  0  0  0  0  0  0
    5.2232   -9.7113    0.0000 C   0  0  1  0  0  0  0  0  0  0  0  0
    5.9353  -10.1278    0.0000 C   0  0  2  0  0  0  0  0  0  0  0  0
    6.6521   -9.7193    0.0000 C   0  0  2  0  0  0  0  0  0  0  0  0
    6.6567   -8.8943    0.0000 C   0  0  1  0  0  0  0  0  0  0  0  0
    5.9445   -8.4778    0.0000 O   0  0  0  0  0  0  0  0  0  0  0  0
 31 22  1  1  0  0  0
 18 22  1  1  0  0  0
 20 11  1  1  0  0  0
  9  8  1  0  0  0  0
  6  1  1  0  0  0  0
  5  2  1  0  0  0  0
  8  3  2  0  0  0  0
  4  3  1  0  0  0  0
  5  4  2  0  0  0  0
  6  5  1  0  0  0  0
  7  6  2  0  0  0  0
  8  7  1  0  0  0  0
 11 10  1  0  0  0  0
 10  9  1  0  0  0  0
 19 12  1  6  0  0  0
 17 13  1  6  0  0  0
 16 15  1  1  0  0  0
 15 14  1  0  0  0  0
 21 16  1  0  0  0  0
 17 16  1  0  0  0  0
 18 17  1  0  0  0  0
 19 18  1  0  0  0  0
 20 19  1  0  0  0  0
 21 20  1  0  0  0  0
 27 23  1  6  0  0  0
 28 24  1  1  0  0  0
 29 25  1  6  0  0  0
 30 26  1  6  0  0  0
 32 27  1  0  0  0  0
 28 27  1  0  0  0  0
 29 28  1  0  0  0  0
 30 29  1  0  0  0  0
 31 30  1  0  0  0  0
 32 31  1  0  0  0  0
M  END
>  <cdx:fragmentId>
29260

$$$$
