95186.cdx
  Mrv1902 05222410262D          

 57 63  0  0  0  0            999 V2000
   13.2147   -8.3222    0.0000 C   0  0  0  0  0  0  0  0  0  0  0  0
    7.4989   -9.9722    0.0000 C   0  0  1  0  0  0  0  0  0  0  0  0
    7.4989   -9.1472    0.0000 C   0  0  0  0  0  0  0  0  0  0  0  0
    8.2134   -8.7347    0.0000 C   0  0  0  0  0  0  0  0  0  0  0  0
    8.2134  -10.3847    0.0000 C   0  0  0  0  0  0  0  0  0  0  0  0
    8.6259  -11.0992    0.0000 C   0  0  0  0  0  0  0  0  0  0  0  0
    7.8009  -11.0992    0.0000 C   0  0  0  0  0  0  0  0  0  0  0  0
    8.9279   -9.9722    0.0000 C   0  0  2  0  0  0  0  0  0  0  0  0
    8.9279  -10.7972    0.0000 H   0  0  0  0  0  0  0  0  0  0  0  0
    9.6424  -10.3847    0.0000 C   0  0  0  0  0  0  0  0  0  0  0  0
   10.3568   -9.9722    0.0000 C   0  0  0  0  0  0  0  0  0  0  0  0
   10.3568   -9.1472    0.0000 C   0  0  1  0  0  0  0  0  0  0  0  0
   10.3568   -8.3222    0.0000 C   0  0  0  0  0  0  0  0  0  0  0  0
   11.0713   -8.7347    0.0000 C   0  0  2  0  0  0  0  0  0  0  0  0
   11.0713   -9.5597    0.0000 C   0  0  0  0  0  0  0  0  0  0  0  0
   11.7858   -9.1472    0.0000 C   0  0  0  0  0  0  0  0  0  0  0  0
   12.5002   -8.7347    0.0000 C   0  0  0  0  0  0  0  0  0  0  0  0
   12.5002   -7.9097    0.0000 C   0  0  2  0  0  0  0  0  0  0  0  0
   13.2147   -7.4972    0.0000 C   0  0  0  0  0  0  0  0  0  0  0  0
   13.2147   -6.6722    0.0000 C   0  0  0  0  0  0  0  0  0  0  0  0
   12.5002   -6.2597    0.0000 C   0  0  0  0  0  0  0  0  0  0  0  0
   12.0877   -5.5452    0.0000 C   0  0  0  0  0  0  0  0  0  0  0  0
   12.9127   -5.5452    0.0000 C   0  0  0  0  0  0  0  0  0  0  0  0
   11.7858   -6.6722    0.0000 C   0  0  0  0  0  0  0  0  0  0  0  0
   11.7858   -7.4972    0.0000 C   0  0  1  0  0  0  0  0  0  0  0  0
   11.7858   -8.3222    0.0000 H   0  0  0  0  0  0  0  0  0  0  0  0
   11.0713   -7.9097    0.0000 C   0  0  0  0  0  0  0  0  0  0  0  0
   10.3568   -7.4972    0.0000 C   0  0  0  0  0  0  0  0  0  0  0  0
    9.6424   -7.9097    0.0000 C   0  0  0  0  0  0  0  0  0  0  0  0
    9.6424   -8.7347    0.0000 C   0  0  2  0  0  0  0  0  0  0  0  0
    8.9279   -9.1472    0.0000 C   0  0  1  0  0  0  0  0  0  0  0  0
    8.9279   -8.3222    0.0000 C   0  0  0  0  0  0  0  0  0  0  0  0
   13.2147   -9.1472    0.0000 O   0  0  0  0  0  0  0  0  0  0  0  0
   13.9292   -7.9097    0.0000 O   0  0  0  0  0  0  0  0  0  0  0  0
    9.6424   -9.5597    0.0000 H   0  0  0  0  0  0  0  0  0  0  0  0
    4.6866   -7.4639    0.0000 O   0  0  0  0  0  0  0  0  0  0  0  0
    5.3945   -7.8876    0.0000 C   0  0  0  0  0  0  0  0  0  0  0  0
    6.0895   -9.1361    0.0000 O   0  0  0  0  0  0  0  0  0  0  0  0
    5.3816   -8.7125    0.0000 C   0  0  1  0  0  0  0  0  0  0  0  0
    3.9528   -8.6901    0.0000 O   0  0  0  0  0  0  0  0  0  0  0  0
    4.6607   -9.1137    0.0000 C   0  0  1  0  0  0  0  0  0  0  0  0
    4.6478   -9.9386    0.0000 C   0  0  1  0  0  0  0  0  0  0  0  0
    5.3428  -11.1872    0.0000 O   0  0  0  0  0  0  0  0  0  0  0  0
    5.3557  -10.3623    0.0000 C   0  0  1  0  0  0  0  0  0  0  0  0
    6.0766   -9.9610    0.0000 C   0  0  2  0  0  0  0  0  0  0  0  0
    6.7845  -10.3847    0.0000 O   0  0  0  0  0  0  0  0  0  0  0  0
    6.1154   -7.4863    0.0000 O   0  0  0  0  0  0  0  0  0  0  0  0
    4.7669  -11.7580    0.0000 O   0  0  0  0  0  0  0  0  0  0  0  0
    3.9650  -13.2001    0.0000 O   0  0  0  0  0  0  0  0  0  0  0  0
    2.3152  -13.2267    0.0000 O   0  0  0  0  0  0  0  0  0  0  0  0
    3.9420  -11.7713    0.0000 C   0  0  1  0  0  0  0  0  0  0  0  0
    3.5180  -11.0636    0.0000 C   0  0  1  0  0  0  0  0  0  0  0  0
    2.6931  -11.0769    0.0000 O   0  0  0  0  0  0  0  0  0  0  0  0
    2.2922  -11.7979    0.0000 C   0  0  0  0  0  0  0  0  0  0  0  0
    2.7162  -12.5056    0.0000 C   0  0  1  0  0  0  0  0  0  0  0  0
    3.5411  -12.4923    0.0000 C   0  0  2  0  0  0  0  0  0  0  0  0
    3.9269  -10.3399    0.0000 O   0  0  0  0  0  0  0  0  0  0  0  0
 45 46  1  1  0  0  0
 45 38  1  0  0  0  0
 37 36  1  0  0  0  0
 39 37  1  1  0  0  0
 39 38  1  0  0  0  0
 41 39  1  0  0  0  0
 41 40  1  6  0  0  0
 42 41  1  0  0  0  0
 42 57  1  1  0  0  0
 44 42  1  0  0  0  0
 44 43  1  6  0  0  0
 45 44  1  0  0  0  0
  2 46  1  1  0  0  0
  2  3  1  0  0  0  0
  3  4  1  0  0  0  0
  2  5  1  0  0  0  0
  5  6  1  0  0  0  0
  5  7  1  0  0  0  0
  5  8  1  0  0  0  0
  8  9  1  6  0  0  0
  8 10  1  0  0  0  0
 10 11  1  0  0  0  0
 11 12  1  0  0  0  0
 12 13  1  1  0  0  0
 12 14  1  0  0  0  0
 14 15  1  6  0  0  0
 14 16  1  0  0  0  0
 16 17  1  0  0  0  0
 17 18  1  0  0  0  0
 18  1  1  1  0  0  0
 18 19  1  0  0  0  0
 19 20  1  0  0  0  0
 20 21  1  0  0  0  0
 21 22  1  0  0  0  0
 21 23  1  0  0  0  0
 21 24  1  0  0  0  0
 24 25  1  0  0  0  0
 25 26  1  1  0  0  0
 18 25  1  0  0  0  0
 25 27  1  0  0  0  0
 14 27  1  0  0  0  0
 27 28  2  0  0  0  0
 28 29  1  0  0  0  0
 29 30  1  0  0  0  0
 12 30  1  0  0  0  0
 30 31  1  0  0  0  0
  4 31  1  0  0  0  0
  8 31  1  0  0  0  0
 31 32  1  1  0  0  0
  1 33  2  0  0  0  0
  1 34  1  0  0  0  0
 52 57  1  1  0  0  0
 30 35  1  6  0  0  0
 37 47  2  0  0  0  0
 51 48  1  6  0  0  0
 56 49  1  1  0  0  0
 55 50  1  1  0  0  0
 51 56  1  0  0  0  0
 52 51  1  0  0  0  0
 53 52  1  0  0  0  0
 54 53  1  0  0  0  0
 55 54  1  0  0  0  0
 56 55  1  0  0  0  0
M  END
>  <cdx:fragmentId>
7

$$$$
