95189.cdx
  Mrv1902 05222410192D          

 43 47  0  0  0  0            999 V2000
    7.8356   -9.1987    0.0000 C   0  0  0  0  0  0  0  0  0  0  0  0
    7.8356  -10.0238    0.0000 C   0  0  0  0  0  0  0  0  0  0  0  0
    8.5500  -10.4363    0.0000 C   0  0  0  0  0  0  0  0  0  0  0  0
    9.2645  -10.0238    0.0000 C   0  0  0  0  0  0  0  0  0  0  0  0
    9.2645   -9.1987    0.0000 C   0  0  0  0  0  0  0  0  0  0  0  0
    8.5500   -8.7862    0.0000 C   0  0  0  0  0  0  0  0  0  0  0  0
    9.9790  -10.4363    0.0000 C   0  0  0  0  0  0  0  0  0  0  0  0
   10.6934  -10.0238    0.0000 C   0  0  0  0  0  0  0  0  0  0  0  0
   10.6934   -9.1987    0.0000 C   0  0  0  0  0  0  0  0  0  0  0  0
    9.9790   -8.7862    0.0000 O   0  0  0  0  0  0  0  0  0  0  0  0
    8.5500  -11.2613    0.0000 O   0  0  0  0  0  0  0  0  0  0  0  0
    9.9790  -11.2613    0.0000 O   0  0  0  0  0  0  0  0  0  0  0  0
   12.1224   -9.1987    0.0000 C   0  0  0  0  0  0  0  0  0  0  0  0
   11.4079   -8.7862    0.0000 C   0  0  0  0  0  0  0  0  0  0  0  0
   12.8369   -8.7862    0.0000 C   0  0  0  0  0  0  0  0  0  0  0  0
   12.8369   -7.9612    0.0000 C   0  0  0  0  0  0  0  0  0  0  0  0
   12.1224   -7.5488    0.0000 C   0  0  0  0  0  0  0  0  0  0  0  0
   11.4079   -7.9612    0.0000 C   0  0  0  0  0  0  0  0  0  0  0  0
   12.1224   -6.7237    0.0000 O   0  0  0  0  0  0  0  0  0  0  0  0
   12.8369   -6.3113    0.0000 C   0  0  0  0  0  0  0  0  0  0  0  0
   13.5513   -7.5488    0.0000 O   0  0  0  0  0  0  0  0  0  0  0  0
    7.1211   -8.7862    0.0000 O   0  0  0  0  0  0  0  0  0  0  0  0
    6.4066   -9.1987    0.0000 C   0  0  2  0  0  0  0  0  0  0  0  0
    5.6921   -8.7862    0.0000 O   0  0  0  0  0  0  0  0  0  0  0  0
    4.9777   -9.1987    0.0000 C   0  0  1  0  0  0  0  0  0  0  0  0
    4.9777  -10.0238    0.0000 C   0  0  2  0  0  0  0  0  0  0  0  0
    5.6921  -10.4363    0.0000 C   0  0  1  0  0  0  0  0  0  0  0  0
    6.4066  -10.0238    0.0000 C   0  0  1  0  0  0  0  0  0  0  0  0
    4.2632   -8.7862    0.0000 C   0  0  0  0  0  0  0  0  0  0  0  0
    5.6921  -11.2613    0.0000 O   0  0  0  0  0  0  0  0  0  0  0  0
    4.2632  -10.4363    0.0000 O   0  0  0  0  0  0  0  0  0  0  0  0
    7.1211  -10.4363    0.0000 O   0  0  0  0  0  0  0  0  0  0  0  0
    3.5487   -9.1987    0.0000 O   0  0  0  0  0  0  0  0  0  0  0  0
    2.8343   -8.7862    0.0000 C   0  0  2  0  0  0  0  0  0  0  0  0
    2.8343   -7.9612    0.0000 O   0  0  0  0  0  0  0  0  0  0  0  0
    2.1198   -7.5487    0.0000 C   0  0  2  0  0  0  0  0  0  0  0  0
    1.4053   -7.9612    0.0000 C   0  0  1  0  0  0  0  0  0  0  0  0
    1.4053   -8.7862    0.0000 C   0  0  2  0  0  0  0  0  0  0  0  0
    2.1198   -9.1987    0.0000 C   0  0  1  0  0  0  0  0  0  0  0  0
    0.6908   -7.5487    0.0000 O   0  0  0  0  0  0  0  0  0  0  0  0
    2.1198   -6.7237    0.0000 C   0  0  0  0  0  0  0  0  0  0  0  0
    2.1198  -10.0237    0.0000 O   0  0  0  0  0  0  0  0  0  0  0  0
    0.6908   -9.1987    0.0000 O   0  0  0  0  0  0  0  0  0  0  0  0
  1  2  2  0  0  0  0
  2  3  1  0  0  0  0
  3  4  2  0  0  0  0
  4  5  1  0  0  0  0
  5  6  2  0  0  0  0
  6  1  1  0  0  0  0
  4  7  1  0  0  0  0
  7  8  1  0  0  0  0
  8  9  1  0  0  0  0
  9 10  1  0  0  0  0
 10  5  1  0  0  0  0
  3 11  1  0  0  0  0
 12  7  2  0  0  0  0
 13 14  2  0  0  0  0
 14  9  1  0  0  0  0
 13 15  1  0  0  0  0
 15 16  2  0  0  0  0
 16 17  1  0  0  0  0
 17 18  2  0  0  0  0
 18 14  1  0  0  0  0
 17 19  1  0  0  0  0
 19 20  1  0  0  0  0
 16 21  1  0  0  0  0
  1 22  1  0  0  0  0
 23 22  1  1  0  0  0
 23 24  1  0  0  0  0
 24 25  1  0  0  0  0
 25 26  1  0  0  0  0
 26 27  1  0  0  0  0
 27 28  1  0  0  0  0
 28 23  1  0  0  0  0
 25 29  1  1  0  0  0
 27 30  1  1  0  0  0
 26 31  1  6  0  0  0
 28 32  1  6  0  0  0
 29 33  1  0  0  0  0
 34 33  1  1  0  0  0
 34 35  1  0  0  0  0
 35 36  1  0  0  0  0
 36 37  1  0  0  0  0
 37 38  1  0  0  0  0
 38 39  1  0  0  0  0
 39 34  1  0  0  0  0
 37 40  1  1  0  0  0
 36 41  1  6  0  0  0
 39 42  1  6  0  0  0
 38 43  1  6  0  0  0
M  END
>  <cdx:fragmentId>
5

$$$$
