95185.cdx
  Mrv1902 05222410262D          

 57 63  0  0  0  0            999 V2000
   11.9772   -7.7034    0.0000 C   0  0  0  0  0  0  0  0  0  0  0  0
    6.2614   -9.3534    0.0000 C   0  0  1  0  0  0  0  0  0  0  0  0
    6.2614   -8.5284    0.0000 C   0  0  0  0  0  0  0  0  0  0  0  0
    6.9759   -8.1159    0.0000 C   0  0  0  0  0  0  0  0  0  0  0  0
    6.9759   -9.7659    0.0000 C   0  0  0  0  0  0  0  0  0  0  0  0
    7.3884  -10.4804    0.0000 C   0  0  0  0  0  0  0  0  0  0  0  0
    6.5634  -10.4804    0.0000 C   0  0  0  0  0  0  0  0  0  0  0  0
    7.6904   -9.3534    0.0000 C   0  0  2  0  0  0  0  0  0  0  0  0
    7.6904  -10.1784    0.0000 H   0  0  0  0  0  0  0  0  0  0  0  0
    8.4049   -9.7659    0.0000 C   0  0  0  0  0  0  0  0  0  0  0  0
    9.1193   -9.3534    0.0000 C   0  0  0  0  0  0  0  0  0  0  0  0
    9.1193   -8.5284    0.0000 C   0  0  1  0  0  0  0  0  0  0  0  0
    9.1193   -7.7034    0.0000 C   0  0  0  0  0  0  0  0  0  0  0  0
    9.8338   -8.1159    0.0000 C   0  0  2  0  0  0  0  0  0  0  0  0
    9.8338   -8.9409    0.0000 C   0  0  0  0  0  0  0  0  0  0  0  0
   10.5483   -8.5284    0.0000 C   0  0  0  0  0  0  0  0  0  0  0  0
   11.2627   -8.1159    0.0000 C   0  0  0  0  0  0  0  0  0  0  0  0
   11.2627   -7.2909    0.0000 C   0  0  2  0  0  0  0  0  0  0  0  0
   11.9772   -6.8784    0.0000 C   0  0  0  0  0  0  0  0  0  0  0  0
   11.9772   -6.0534    0.0000 C   0  0  0  0  0  0  0  0  0  0  0  0
   11.2627   -5.6409    0.0000 C   0  0  0  0  0  0  0  0  0  0  0  0
   10.8502   -4.9265    0.0000 C   0  0  0  0  0  0  0  0  0  0  0  0
   11.6752   -4.9265    0.0000 C   0  0  0  0  0  0  0  0  0  0  0  0
   10.5483   -6.0534    0.0000 C   0  0  0  0  0  0  0  0  0  0  0  0
   10.5483   -6.8784    0.0000 C   0  0  1  0  0  0  0  0  0  0  0  0
   10.5483   -7.7034    0.0000 H   0  0  0  0  0  0  0  0  0  0  0  0
    9.8338   -7.2909    0.0000 C   0  0  0  0  0  0  0  0  0  0  0  0
    9.1193   -6.8784    0.0000 C   0  0  0  0  0  0  0  0  0  0  0  0
    8.4049   -7.2909    0.0000 C   0  0  0  0  0  0  0  0  0  0  0  0
    8.4049   -8.1159    0.0000 C   0  0  2  0  0  0  0  0  0  0  0  0
    7.6904   -8.5284    0.0000 C   0  0  1  0  0  0  0  0  0  0  0  0
    7.6904   -7.7034    0.0000 C   0  0  0  0  0  0  0  0  0  0  0  0
   11.9772   -8.5284    0.0000 O   0  0  0  0  0  0  0  0  0  0  0  0
   12.6917   -7.2909    0.0000 O   0  0  0  0  0  0  0  0  0  0  0  0
    8.4049   -8.9409    0.0000 H   0  0  0  0  0  0  0  0  0  0  0  0
    3.4491   -6.8452    0.0000 O   0  0  0  0  0  0  0  0  0  0  0  0
    4.1570   -7.2688    0.0000 C   0  0  0  0  0  0  0  0  0  0  0  0
    4.8520   -8.5174    0.0000 O   0  0  0  0  0  0  0  0  0  0  0  0
    4.1441   -8.0937    0.0000 C   0  0  1  0  0  0  0  0  0  0  0  0
    2.7153   -8.0713    0.0000 O   0  0  0  0  0  0  0  0  0  0  0  0
    3.4232   -8.4950    0.0000 C   0  0  1  0  0  0  0  0  0  0  0  0
    2.6894   -9.7211    0.0000 O   0  0  0  0  0  0  0  0  0  0  0  0
    3.4103   -9.3199    0.0000 C   0  0  2  0  0  0  0  0  0  0  0  0
    4.1182   -9.7435    0.0000 C   0  0  2  0  0  0  0  0  0  0  0  0
    4.8391   -9.3423    0.0000 C   0  0  2  0  0  0  0  0  0  0  0  0
    5.5470   -9.7659    0.0000 O   0  0  0  0  0  0  0  0  0  0  0  0
    4.8779   -6.8676    0.0000 O   0  0  0  0  0  0  0  0  0  0  0  0
    5.7657  -10.6286    0.0000 O   0  0  0  0  0  0  0  0  0  0  0  0
    6.5380  -12.0867    0.0000 O   0  0  0  0  0  0  0  0  0  0  0  0
    5.6614  -13.4846    0.0000 O   0  0  0  0  0  0  0  0  0  0  0  0
    5.3274  -11.3276    0.0000 C   0  0  1  0  0  0  0  0  0  0  0  0
    4.5029  -11.2975    0.0000 C   0  0  1  0  0  0  0  0  0  0  0  0
    4.0646  -11.9965    0.0000 O   0  0  0  0  0  0  0  0  0  0  0  0
    4.4508  -12.7255    0.0000 C   0  0  0  0  0  0  0  0  0  0  0  0
    5.2753  -12.7556    0.0000 C   0  0  1  0  0  0  0  0  0  0  0  0
    5.7135  -12.0566    0.0000 C   0  0  2  0  0  0  0  0  0  0  0  0
    4.1053  -10.5684    0.0000 O   0  0  0  0  0  0  0  0  0  0  0  0
 45 46  1  1  0  0  0
 45 38  1  0  0  0  0
 37 36  1  0  0  0  0
 39 37  1  1  0  0  0
 39 38  1  0  0  0  0
 41 39  1  0  0  0  0
 41 40  1  6  0  0  0
 43 41  1  0  0  0  0
 43 42  1  1  0  0  0
 44 43  1  0  0  0  0
 44 57  1  6  0  0  0
 45 44  1  0  0  0  0
  2 46  1  1  0  0  0
  2  3  1  0  0  0  0
  3  4  1  0  0  0  0
  2  5  1  0  0  0  0
  5  6  1  0  0  0  0
  5  7  1  0  0  0  0
  5  8  1  0  0  0  0
  8  9  1  6  0  0  0
  8 10  1  0  0  0  0
 10 11  1  0  0  0  0
 11 12  1  0  0  0  0
 12 13  1  1  0  0  0
 12 14  1  0  0  0  0
 14 15  1  6  0  0  0
 14 16  1  0  0  0  0
 16 17  1  0  0  0  0
 17 18  1  0  0  0  0
 18  1  1  1  0  0  0
 18 19  1  0  0  0  0
 19 20  1  0  0  0  0
 20 21  1  0  0  0  0
 21 22  1  0  0  0  0
 21 23  1  0  0  0  0
 21 24  1  0  0  0  0
 24 25  1  0  0  0  0
 25 26  1  1  0  0  0
 18 25  1  0  0  0  0
 25 27  1  0  0  0  0
 14 27  1  0  0  0  0
 27 28  2  0  0  0  0
 28 29  1  0  0  0  0
 29 30  1  0  0  0  0
 12 30  1  0  0  0  0
 30 31  1  0  0  0  0
  4 31  1  0  0  0  0
  8 31  1  0  0  0  0
 31 32  1  1  0  0  0
  1 33  2  0  0  0  0
  1 34  1  0  0  0  0
 52 57  1  1  0  0  0
 30 35  1  6  0  0  0
 37 47  2  0  0  0  0
 51 48  1  6  0  0  0
 56 49  1  1  0  0  0
 55 50  1  1  0  0  0
 51 56  1  0  0  0  0
 52 51  1  0  0  0  0
 53 52  1  0  0  0  0
 54 53  1  0  0  0  0
 55 54  1  0  0  0  0
 56 55  1  0  0  0  0
M  END
>  <cdx:fragmentId>
7

$$$$
