95187.cdx
  Mrv1902 05222410262D          

 57 63  0  0  0  0            999 V2000
   12.9810   -8.3909    0.0000 C   0  0  0  0  0  0  0  0  0  0  0  0
    7.2652  -10.0409    0.0000 C   0  0  1  0  0  0  0  0  0  0  0  0
    7.2652   -9.2159    0.0000 C   0  0  0  0  0  0  0  0  0  0  0  0
    7.9797   -8.8034    0.0000 C   0  0  0  0  0  0  0  0  0  0  0  0
    7.9797  -10.4534    0.0000 C   0  0  0  0  0  0  0  0  0  0  0  0
    8.3922  -11.1679    0.0000 C   0  0  0  0  0  0  0  0  0  0  0  0
    7.5672  -11.1679    0.0000 C   0  0  0  0  0  0  0  0  0  0  0  0
    8.6941  -10.0409    0.0000 C   0  0  2  0  0  0  0  0  0  0  0  0
    8.6941  -10.8659    0.0000 H   0  0  0  0  0  0  0  0  0  0  0  0
    9.4086  -10.4534    0.0000 C   0  0  0  0  0  0  0  0  0  0  0  0
   10.1231  -10.0409    0.0000 C   0  0  0  0  0  0  0  0  0  0  0  0
   10.1231   -9.2159    0.0000 C   0  0  1  0  0  0  0  0  0  0  0  0
   10.1231   -8.3909    0.0000 C   0  0  0  0  0  0  0  0  0  0  0  0
   10.8375   -8.8034    0.0000 C   0  0  2  0  0  0  0  0  0  0  0  0
   10.8375   -9.6284    0.0000 C   0  0  0  0  0  0  0  0  0  0  0  0
   11.5520   -9.2159    0.0000 C   0  0  0  0  0  0  0  0  0  0  0  0
   12.2665   -8.8034    0.0000 C   0  0  0  0  0  0  0  0  0  0  0  0
   12.2665   -7.9784    0.0000 C   0  0  2  0  0  0  0  0  0  0  0  0
   12.9810   -7.5659    0.0000 C   0  0  0  0  0  0  0  0  0  0  0  0
   12.9810   -6.7409    0.0000 C   0  0  0  0  0  0  0  0  0  0  0  0
   12.2665   -6.3284    0.0000 C   0  0  0  0  0  0  0  0  0  0  0  0
   11.8540   -5.6140    0.0000 C   0  0  0  0  0  0  0  0  0  0  0  0
   12.6790   -5.6140    0.0000 C   0  0  0  0  0  0  0  0  0  0  0  0
   11.5520   -6.7409    0.0000 C   0  0  0  0  0  0  0  0  0  0  0  0
   11.5520   -7.5659    0.0000 C   0  0  1  0  0  0  0  0  0  0  0  0
   11.5520   -8.3909    0.0000 H   0  0  0  0  0  0  0  0  0  0  0  0
   10.8375   -7.9784    0.0000 C   0  0  0  0  0  0  0  0  0  0  0  0
   10.1231   -7.5659    0.0000 C   0  0  0  0  0  0  0  0  0  0  0  0
    9.4086   -7.9784    0.0000 C   0  0  0  0  0  0  0  0  0  0  0  0
    9.4086   -8.8034    0.0000 C   0  0  2  0  0  0  0  0  0  0  0  0
    8.6941   -9.2159    0.0000 C   0  0  1  0  0  0  0  0  0  0  0  0
    8.6941   -8.3909    0.0000 C   0  0  0  0  0  0  0  0  0  0  0  0
   12.9810   -9.2159    0.0000 O   0  0  0  0  0  0  0  0  0  0  0  0
   13.6954   -7.9784    0.0000 O   0  0  0  0  0  0  0  0  0  0  0  0
    9.4086   -9.6284    0.0000 H   0  0  0  0  0  0  0  0  0  0  0  0
    4.4528   -7.5327    0.0000 O   0  0  0  0  0  0  0  0  0  0  0  0
    5.1608   -7.9563    0.0000 C   0  0  0  0  0  0  0  0  0  0  0  0
    5.8557   -9.2049    0.0000 O   0  0  0  0  0  0  0  0  0  0  0  0
    5.1478   -8.7812    0.0000 C   0  0  1  0  0  0  0  0  0  0  0  0
    4.4270   -9.1825    0.0000 C   0  0  2  0  0  0  0  0  0  0  0  0
    3.6932  -10.4086    0.0000 O   0  0  0  0  0  0  0  0  0  0  0  0
    4.4140  -10.0074    0.0000 C   0  0  2  0  0  0  0  0  0  0  0  0
    5.1090  -11.2559    0.0000 O   0  0  0  0  0  0  0  0  0  0  0  0
    5.1220  -10.4310    0.0000 C   0  0  1  0  0  0  0  0  0  0  0  0
    5.8428  -10.0298    0.0000 C   0  0  2  0  0  0  0  0  0  0  0  0
    6.5507  -10.4534    0.0000 O   0  0  0  0  0  0  0  0  0  0  0  0
    5.8816   -7.5551    0.0000 O   0  0  0  0  0  0  0  0  0  0  0  0
    2.8863  -10.1910    0.0000 O   0  0  0  0  0  0  0  0  0  0  0  0
    1.2363  -10.1796    0.0000 O   0  0  0  0  0  0  0  0  0  0  0  0
    0.4212   -8.7450    0.0000 O   0  0  0  0  0  0  0  0  0  0  0  0
    2.4787   -9.4737    0.0000 C   0  0  1  0  0  0  0  0  0  0  0  0
    2.8961   -8.7621    0.0000 C   0  0  1  0  0  0  0  0  0  0  0  0
    2.4886   -8.0448    0.0000 O   0  0  0  0  0  0  0  0  0  0  0  0
    1.6636   -8.0391    0.0000 C   0  0  0  0  0  0  0  0  0  0  0  0
    1.2462   -8.7507    0.0000 C   0  0  1  0  0  0  0  0  0  0  0  0
    1.6537   -9.4680    0.0000 C   0  0  2  0  0  0  0  0  0  0  0  0
    3.7191   -8.7588    0.0000 O   0  0  0  0  0  0  0  0  0  0  0  0
 45 46  1  1  0  0  0
 45 38  1  0  0  0  0
 37 36  1  0  0  0  0
 39 37  1  1  0  0  0
 39 38  1  0  0  0  0
 40 39  1  0  0  0  0
 40 57  1  6  0  0  0
 42 40  1  0  0  0  0
 42 41  1  1  0  0  0
 44 42  1  0  0  0  0
 44 43  1  6  0  0  0
 45 44  1  0  0  0  0
  2 46  1  1  0  0  0
  2  3  1  0  0  0  0
  3  4  1  0  0  0  0
  2  5  1  0  0  0  0
  5  6  1  0  0  0  0
  5  7  1  0  0  0  0
  5  8  1  0  0  0  0
  8  9  1  6  0  0  0
  8 10  1  0  0  0  0
 10 11  1  0  0  0  0
 11 12  1  0  0  0  0
 12 13  1  1  0  0  0
 12 14  1  0  0  0  0
 14 15  1  6  0  0  0
 14 16  1  0  0  0  0
 16 17  1  0  0  0  0
 17 18  1  0  0  0  0
 18  1  1  1  0  0  0
 18 19  1  0  0  0  0
 19 20  1  0  0  0  0
 20 21  1  0  0  0  0
 21 22  1  0  0  0  0
 21 23  1  0  0  0  0
 21 24  1  0  0  0  0
 24 25  1  0  0  0  0
 25 26  1  1  0  0  0
 18 25  1  0  0  0  0
 25 27  1  0  0  0  0
 14 27  1  0  0  0  0
 27 28  2  0  0  0  0
 28 29  1  0  0  0  0
 29 30  1  0  0  0  0
 12 30  1  0  0  0  0
 30 31  1  0  0  0  0
  4 31  1  0  0  0  0
  8 31  1  0  0  0  0
 31 32  1  1  0  0  0
  1 33  2  0  0  0  0
  1 34  1  0  0  0  0
 52 57  1  1  0  0  0
 30 35  1  6  0  0  0
 37 47  2  0  0  0  0
 51 48  1  6  0  0  0
 56 49  1  1  0  0  0
 55 50  1  1  0  0  0
 51 56  1  0  0  0  0
 52 51  1  0  0  0  0
 53 52  1  0  0  0  0
 54 53  1  0  0  0  0
 55 54  1  0  0  0  0
 56 55  1  0  0  0  0
M  END
>  <cdx:fragmentId>
7

$$$$
