95188.cdx
  Mrv1902 05222410202D          

 20 19  0  0  0  0            999 V2000
   12.7619   -8.6229    0.0000 C   0  0  0  0  0  0  0  0  0  0  0  0
   12.0475   -9.0354    0.0000 C   0  0  0  0  0  0  0  0  0  0  0  0
   11.3330   -8.6229    0.0000 C   0  0  0  0  0  0  0  0  0  0  0  0
   10.6185   -9.0354    0.0000 C   0  0  0  0  0  0  0  0  0  0  0  0
    9.9040   -8.6229    0.0000 C   0  0  0  0  0  0  0  0  0  0  0  0
    9.1896   -9.0354    0.0000 C   0  0  0  0  0  0  0  0  0  0  0  0
    8.4751   -8.6229    0.0000 C   0  0  0  0  0  0  0  0  0  0  0  0
    7.7606   -9.0354    0.0000 C   0  0  0  0  0  0  0  0  0  0  0  0
    7.0462   -8.6229    0.0000 C   0  0  0  0  0  0  0  0  0  0  0  0
    6.3317   -9.0354    0.0000 C   0  0  0  0  0  0  0  0  0  0  0  0
    5.6172   -8.6229    0.0000 C   0  0  0  0  0  0  0  0  0  0  0  0
    4.9028   -9.0354    0.0000 C   0  0  0  0  0  0  0  0  0  0  0  0
    4.1883   -8.6229    0.0000 C   0  0  0  0  0  0  0  0  0  0  0  0
    3.4738   -9.0354    0.0000 C   0  0  0  0  0  0  0  0  0  0  0  0
    2.7593   -8.6229    0.0000 C   0  0  0  0  0  0  0  0  0  0  0  0
    2.0449   -9.0354    0.0000 C   0  0  0  0  0  0  0  0  0  0  0  0
    1.3304   -8.6229    0.0000 C   0  0  0  0  0  0  0  0  0  0  0  0
    0.6159   -9.0354    0.0000 C   0  0  0  0  0  0  0  0  0  0  0  0
   12.7619   -7.7979    0.0000 O   0  0  0  0  0  0  0  0  0  0  0  0
   13.4764   -9.0354    0.0000 O   0  0  0  0  0  0  0  0  0  0  0  0
  1  2  1  0  0  0  0
  2  3  1  0  0  0  0
  3  4  1  0  0  0  0
  4  5  1  0  0  0  0
  5  6  1  0  0  0  0
  6  7  1  0  0  0  0
  7  8  1  0  0  0  0
  8  9  1  0  0  0  0
  9 10  2  0  0  0  0
 10 11  1  0  0  0  0
 11 12  1  0  0  0  0
 12 13  2  0  0  0  0
 13 14  1  0  0  0  0
 14 15  1  0  0  0  0
 15 16  1  0  0  0  0
 16 17  1  0  0  0  0
 17 18  1  0  0  0  0
  1 19  2  0  0  0  0
  1 20  1  0  0  0  0
M  END
>  <cdx:groupId>
61

>  <cdx:fragmentId>
5

$$$$
