95192.cdx
  Mrv1902 05222410262D          

 53 58  0  0  0  0            999 V2000
    6.5629   -5.0891    0.0000 C   0  0  0  0  0  0  0  0  0  0  0  0
    6.5629   -5.9141    0.0000 C   0  0  0  0  0  0  0  0  0  0  0  0
    5.8484   -6.3266    0.0000 C   0  0  0  0  0  0  0  0  0  0  0  0
    5.8484   -7.1516    0.0000 O   0  0  0  0  0  0  0  0  0  0  0  0
    5.1339   -5.9141    0.0000 C   0  0  0  0  0  0  0  0  0  0  0  0
    4.4195   -6.3266    0.0000 C   0  0  0  0  0  0  0  0  0  0  0  0
    4.4195   -7.1516    0.0000 O   0  0  0  0  0  0  0  0  0  0  0  0
    3.7050   -5.9141    0.0000 C   0  0  0  0  0  0  0  0  0  0  0  0
    3.7050   -5.0891    0.0000 C   0  0  0  0  0  0  0  0  0  0  0  0
    2.9905   -4.6766    0.0000 O   0  0  0  0  0  0  0  0  0  0  0  0
    4.4195   -4.6766    0.0000 C   0  0  0  0  0  0  0  0  0  0  0  0
    5.1339   -5.0891    0.0000 C   0  0  0  0  0  0  0  0  0  0  0  0
    5.8484   -4.6766    0.0000 O   0  0  0  0  0  0  0  0  0  0  0  0
    7.2774   -4.6766    0.0000 C   0  0  0  0  0  0  0  0  0  0  0  0
    7.2774   -3.8516    0.0000 C   0  0  0  0  0  0  0  0  0  0  0  0
    7.9918   -3.4391    0.0000 C   0  0  0  0  0  0  0  0  0  0  0  0
    8.7063   -3.8516    0.0000 C   0  0  0  0  0  0  0  0  0  0  0  0
    9.4208   -3.4391    0.0000 O   0  0  0  0  0  0  0  0  0  0  0  0
    8.7063   -4.6766    0.0000 C   0  0  0  0  0  0  0  0  0  0  0  0
    7.9918   -5.0891    0.0000 C   0  0  0  0  0  0  0  0  0  0  0  0
    7.2774   -6.3266    0.0000 O   0  0  0  0  0  0  0  0  0  0  0  0
    7.2774   -7.1516    0.0000 C   0  0  1  0  0  0  0  0  0  0  0  0
    7.9918   -7.5641    0.0000 C   0  0  2  0  0  0  0  0  0  0  0  0
    8.7063   -7.1516    0.0000 O   0  0  0  0  0  0  0  0  0  0  0  0
    7.9918   -8.3891    0.0000 C   0  0  2  0  0  0  0  0  0  0  0  0
    8.7063   -8.8016    0.0000 O   0  0  0  0  0  0  0  0  0  0  0  0
    7.2774   -8.8016    0.0000 C   0  0  1  0  0  0  0  0  0  0  0  0
    7.2774   -9.6266    0.0000 O   0  0  0  0  0  0  0  0  0  0  0  0
    6.5629   -8.3891    0.0000 C   0  0  1  0  0  0  0  0  0  0  0  0
    6.5629   -7.5641    0.0000 O   0  0  0  0  0  0  0  0  0  0  0  0
    5.8484   -8.8016    0.0000 C   0  0  0  0  0  0  0  0  0  0  0  0
    6.6053  -10.0019    0.0000 C   0  0  0  0  0  0  0  0  0  0  0  0
    5.8861   -9.5978    0.0000 C   0  0  0  0  0  0  0  0  0  0  0  0
    6.6149  -10.8269    0.0000 O   0  0  0  0  0  0  0  0  0  0  0  0
    5.1765  -10.0185    0.0000 C   0  0  0  0  0  0  0  0  0  0  0  0
    4.4573   -9.6143    0.0000 C   0  0  0  0  0  0  0  0  0  0  0  0
    4.4477   -8.7894    0.0000 C   0  0  0  0  0  0  0  0  0  0  0  0
    3.7285   -8.3852    0.0000 C   0  0  0  0  0  0  0  0  0  0  0  0
    3.0188   -8.8060    0.0000 C   0  0  0  0  0  0  0  0  0  0  0  0
    3.0284   -9.6309    0.0000 C   0  0  0  0  0  0  0  0  0  0  0  0
    3.7476  -10.0351    0.0000 C   0  0  0  0  0  0  0  0  0  0  0  0
    2.2996   -8.4018    0.0000 O   0  0  0  0  0  0  0  0  0  0  0  0
    9.4076   -8.3697    0.0000 C   0  0  0  0  0  0  0  0  0  0  0  0
   10.1201   -8.7857    0.0000 C   0  0  0  0  0  0  0  0  0  0  0  0
    9.4116   -7.5447    0.0000 O   0  0  0  0  0  0  0  0  0  0  0  0
   10.8365   -8.3767    0.0000 C   0  0  0  0  0  0  0  0  0  0  0  0
   11.5490   -8.7926    0.0000 C   0  0  0  0  0  0  0  0  0  0  0  0
   11.5450   -9.6176    0.0000 C   0  0  0  0  0  0  0  0  0  0  0  0
   12.2574  -10.0336    0.0000 C   0  0  0  0  0  0  0  0  0  0  0  0
   12.9739   -9.6246    0.0000 C   0  0  0  0  0  0  0  0  0  0  0  0
   12.9779   -8.7996    0.0000 C   0  0  0  0  0  0  0  0  0  0  0  0
   12.2655   -8.3836    0.0000 C   0  0  0  0  0  0  0  0  0  0  0  0
   13.6864  -10.0406    0.0000 O   0  0  0  0  0  0  0  0  0  0  0  0
  1  2  2  0  0  0  0
  2  3  1  0  0  0  0
  3  4  2  0  0  0  0
  3  5  1  0  0  0  0
  5  6  1  0  0  0  0
  6  7  1  0  0  0  0
  6  8  2  0  0  0  0
  8  9  1  0  0  0  0
  9 10  1  0  0  0  0
  9 11  2  0  0  0  0
 11 12  1  0  0  0  0
  5 12  2  0  0  0  0
 12 13  1  0  0  0  0
  1 13  1  0  0  0  0
  1 14  1  0  0  0  0
 14 15  1  0  0  0  0
 15 16  2  0  0  0  0
 16 17  1  0  0  0  0
 17 18  1  0  0  0  0
 17 19  2  0  0  0  0
 19 20  1  0  0  0  0
 14 20  2  0  0  0  0
 22 21  1  1  0  0  0
 22 23  1  0  0  0  0
 23 24  1  6  0  0  0
 23 25  1  0  0  0  0
 25 26  1  6  0  0  0
 25 27  1  0  0  0  0
 27 28  1  1  0  0  0
 27 29  1  0  0  0  0
 29 30  1  0  0  0  0
 29 31  1  6  0  0  0
 22 30  1  0  0  0  0
  2 21  1  0  0  0  0
 32 33  1  0  0  0  0
 32 34  2  0  0  0  0
 33 35  2  0  0  0  0
 35 36  1  0  0  0  0
 36 37  2  0  0  0  0
 37 38  1  0  0  0  0
 38 39  2  0  0  0  0
 39 40  1  0  0  0  0
 40 41  2  0  0  0  0
 41 36  1  0  0  0  0
 39 42  1  0  0  0  0
 32 28  1  0  0  0  0
 43 44  1  0  0  0  0
 43 45  2  0  0  0  0
 44 46  2  0  0  0  0
 46 47  1  0  0  0  0
 47 48  2  0  0  0  0
 48 49  1  0  0  0  0
 49 50  2  0  0  0  0
 50 51  1  0  0  0  0
 51 52  2  0  0  0  0
 52 47  1  0  0  0  0
 50 53  1  0  0  0  0
 43 26  1  0  0  0  0
M  END
>  <cdx:fragmentId>
5

$$$$
