95198.cdx
  Mrv1902 05222410182D          

 10  9  0  0  0  0            999 V2000
    6.3317   -8.2104    0.0000 C   0  0  0  0  0  0  0  0  0  0  0  0
    7.0462   -8.6229    0.0000 C   0  0  0  0  0  0  0  0  0  0  0  0
    7.0462   -9.4479    0.0000 O   0  0  0  0  0  0  0  0  0  0  0  0
    7.7606   -8.2104    0.0000 C   0  0  0  0  0  0  0  0  0  0  0  0
    8.4751   -8.6229    0.0000 C   0  0  0  0  0  0  0  0  0  0  0  0
    6.3317   -7.3854    0.0000 O   0  0  0  0  0  0  0  0  0  0  0  0
    5.6172   -8.6229    0.0000 O   0  0  0  0  0  0  0  0  0  0  0  0
    8.4751   -9.4479    0.0000 O   0  0  0  0  0  0  0  0  0  0  0  0
    9.1896   -8.2104    0.0000 O   0  0  0  0  0  0  0  0  0  0  0  0
    4.9028   -8.2104    0.0000 C   0  0  0  0  0  0  0  0  0  0  0  0
  1  2  1  0  0  0  0
  2  3  1  0  0  0  0
  2  4  1  0  0  0  0
  4  5  1  0  0  0  0
  1  6  2  0  0  0  0
  1  7  1  0  0  0  0
  5  8  2  0  0  0  0
  5  9  1  0  0  0  0
  7 10  1  0  0  0  0
M  END
>  <cdx:groupId>
31

>  <cdx:fragmentId>
5

$$$$
