95199.cdx
  Mrv1902 05222410192D          

 42 47  0  0  0  0            999 V2000
    1.4281   -5.0600    0.0000 C   0  0  0  0  0  0  0  0  0  0  0  0
    1.4281   -5.8850    0.0000 C   0  0  0  0  0  0  0  0  0  0  0  0
    2.1425   -6.2975    0.0000 C   0  0  0  0  0  0  0  0  0  0  0  0
    2.8570   -5.8850    0.0000 C   0  0  0  0  0  0  0  0  0  0  0  0
    2.8570   -5.0600    0.0000 C   0  0  0  0  0  0  0  0  0  0  0  0
    2.1425   -4.6475    0.0000 C   0  0  0  0  0  0  0  0  0  0  0  0
    3.5715   -6.2975    0.0000 O   0  0  0  0  0  0  0  0  0  0  0  0
    4.2859   -5.8850    0.0000 C   0  0  0  0  0  0  0  0  0  0  0  0
    4.2859   -5.0600    0.0000 C   0  0  0  0  0  0  0  0  0  0  0  0
    3.5715   -4.6475    0.0000 C   0  0  0  0  0  0  0  0  0  0  0  0
    5.0004   -7.1225    0.0000 C   0  0  0  0  0  0  0  0  0  0  0  0
    5.0004   -6.2975    0.0000 C   0  0  0  0  0  0  0  0  0  0  0  0
    5.7149   -7.5350    0.0000 C   0  0  0  0  0  0  0  0  0  0  0  0
    6.4294   -7.1225    0.0000 C   0  0  0  0  0  0  0  0  0  0  0  0
    6.4294   -6.2975    0.0000 C   0  0  0  0  0  0  0  0  0  0  0  0
    5.7149   -5.8850    0.0000 C   0  0  0  0  0  0  0  0  0  0  0  0
    7.1438   -7.5350    0.0000 O   0  0  0  0  0  0  0  0  0  0  0  0
    7.8583   -7.1225    0.0000 C   0  0  0  0  0  0  0  0  0  0  0  0
    7.8583   -6.2975    0.0000 C   0  0  0  0  0  0  0  0  0  0  0  0
    7.1438   -5.8850    0.0000 O   0  0  0  0  0  0  0  0  0  0  0  0
    8.5728   -7.5350    0.0000 C   0  0  0  0  0  0  0  0  0  0  0  0
    9.2872   -7.1225    0.0000 C   0  0  0  0  0  0  0  0  0  0  0  0
    9.2872   -6.2975    0.0000 C   0  0  0  0  0  0  0  0  0  0  0  0
    8.5728   -5.8850    0.0000 C   0  0  0  0  0  0  0  0  0  0  0  0
   10.0017   -7.5350    0.0000 C   0  0  0  0  0  0  0  0  0  0  0  0
   10.7162   -7.1225    0.0000 C   0  0  0  0  0  0  0  0  0  0  0  0
   10.7162   -6.2975    0.0000 C   0  0  0  0  0  0  0  0  0  0  0  0
   10.0017   -5.8850    0.0000 O   0  0  0  0  0  0  0  0  0  0  0  0
   11.4306   -5.8850    0.0000 C   0  0  0  0  0  0  0  0  0  0  0  0
   11.4306   -5.0600    0.0000 C   0  0  0  0  0  0  0  0  0  0  0  0
   12.1451   -6.2975    0.0000 C   0  0  0  0  0  0  0  0  0  0  0  0
   12.8596   -5.8850    0.0000 C   0  0  0  0  0  0  0  0  0  0  0  0
   12.8596   -5.0600    0.0000 C   0  0  0  0  0  0  0  0  0  0  0  0
   12.1451   -4.6475    0.0000 C   0  0  0  0  0  0  0  0  0  0  0  0
    0.7136   -6.2975    0.0000 O   0  0  0  0  0  0  0  0  0  0  0  0
    2.1425   -3.8225    0.0000 O   0  0  0  0  0  0  0  0  0  0  0  0
    3.5715   -3.8225    0.0000 O   0  0  0  0  0  0  0  0  0  0  0  0
    8.5728   -8.3600    0.0000 O   0  0  0  0  0  0  0  0  0  0  0  0
   10.0017   -8.3600    0.0000 O   0  0  0  0  0  0  0  0  0  0  0  0
   13.5741   -4.6475    0.0000 O   0  0  0  0  0  0  0  0  0  0  0  0
    0.7136   -7.1225    0.0000 C   0  0  0  0  0  0  0  0  0  0  0  0
   13.5741   -3.8225    0.0000 C   0  0  0  0  0  0  0  0  0  0  0  0
  1  2  2  0  0  0  0
  2  3  1  0  0  0  0
  3  4  2  0  0  0  0
  4  5  1  0  0  0  0
  5  6  2  0  0  0  0
  6  1  1  0  0  0  0
  4  7  1  0  0  0  0
  7  8  1  0  0  0  0
  8  9  2  0  0  0  0
  9 10  1  0  0  0  0
 10  5  1  0  0  0  0
 11 12  2  0  0  0  0
 12  8  1  0  0  0  0
 11 13  1  0  0  0  0
 13 14  2  0  0  0  0
 14 15  1  0  0  0  0
 15 16  2  0  0  0  0
 16 12  1  0  0  0  0
 14 17  1  0  0  0  0
 17 18  1  0  0  0  0
 18 19  2  0  0  0  0
 19 20  1  0  0  0  0
 18 21  1  0  0  0  0
 21 22  2  0  0  0  0
 22 23  1  0  0  0  0
 23 24  2  0  0  0  0
 24 19  1  0  0  0  0
 22 25  1  0  0  0  0
 25 26  1  0  0  0  0
 26 27  2  0  0  0  0
 27 28  1  0  0  0  0
 28 23  1  0  0  0  0
 27 29  1  0  0  0  0
 29 30  2  0  0  0  0
 29 31  1  0  0  0  0
 31 32  2  0  0  0  0
 32 33  1  0  0  0  0
 33 34  2  0  0  0  0
 34 30  1  0  0  0  0
  2 35  1  0  0  0  0
  6 36  1  0  0  0  0
 10 37  2  0  0  0  0
 21 38  1  0  0  0  0
 25 39  2  0  0  0  0
 33 40  1  0  0  0  0
 35 41  1  0  0  0  0
 40 42  1  0  0  0  0
M  END
>  <cdx:fragmentId>
5

$$$$
