95195.cdx
  Mrv1902 05222410272D          

 17 18  0  0  0  0            999 V2000
    7.9213   -9.8590    0.0000 C   0  0  0  0  0  0  0  0  0  0  0  0
    7.9329   -9.0340    0.0000 C   0  0  0  0  0  0  0  0  0  0  0  0
    8.6532   -8.6316    0.0000 C   0  0  0  0  0  0  0  0  0  0  0  0
    8.6648   -7.8067    0.0000 C   0  0  0  0  0  0  0  0  0  0  0  0
    8.6880   -6.1569    0.0000 C   0  0  0  0  0  0  0  0  0  0  0  0
    7.2592   -6.1367    0.0000 C   0  0  0  0  0  0  0  0  0  0  0  0
    7.9678   -6.5593    0.0000 C   0  0  0  0  0  0  0  0  0  0  0  0
    7.9562   -7.3842    0.0000 C   0  0  1  0  0  0  0  0  0  0  0  0
    7.2476   -6.9617    0.0000 H   0  0  0  0  0  0  0  0  0  0  0  0
    7.2360   -7.7866    0.0000 C   0  0  1  0  0  0  0  0  0  0  0  0
    6.5274   -7.3641    0.0000 C   0  0  0  0  0  0  0  0  0  0  0  0
    5.0986   -7.3439    0.0000 C   0  0  0  0  0  0  0  0  0  0  0  0
    5.8072   -7.7664    0.0000 C   0  0  0  0  0  0  0  0  0  0  0  0
    5.7956   -8.5914    0.0000 C   0  0  0  0  0  0  0  0  0  0  0  0
    6.5041   -9.0139    0.0000 C   0  0  0  0  0  0  0  0  0  0  0  0
    7.2127   -9.4364    0.0000 H   0  0  0  0  0  0  0  0  0  0  0  0
    7.2244   -8.6115    0.0000 C   0  0  1  0  0  0  0  0  0  0  0  0
 17  2  1  0  0  0  0
  2  1  1  0  0  0  0
  3  2  2  0  0  0  0
  4  3  1  0  0  0  0
  8  4  1  0  0  0  0
  7  5  1  0  0  0  0
  7  6  1  0  0  0  0
  8  7  1  6  0  0  0
 10  8  1  0  0  0  0
 17 10  1  0  0  0  0
 10  9  1  1  0  0  0
 11 10  1  0  0  0  0
 13 11  2  0  0  0  0
 13 12  1  0  0  0  0
 14 13  1  0  0  0  0
 15 14  1  0  0  0  0
 17 15  1  0  0  0  0
 17 16  1  1  0  0  0
M  END
>  <cdx:fragmentId>
5

$$$$
