95191.cdx
  Mrv1902 05222410262D          

 55 60  0  0  0  0            999 V2000
    5.6279   -5.1716    0.0000 C   0  0  0  0  0  0  0  0  0  0  0  0
    5.6279   -5.9966    0.0000 C   0  0  0  0  0  0  0  0  0  0  0  0
    4.9134   -6.4091    0.0000 C   0  0  0  0  0  0  0  0  0  0  0  0
    4.9134   -7.2341    0.0000 O   0  0  0  0  0  0  0  0  0  0  0  0
    4.1989   -5.9966    0.0000 C   0  0  0  0  0  0  0  0  0  0  0  0
    3.4845   -6.4091    0.0000 C   0  0  0  0  0  0  0  0  0  0  0  0
    3.4845   -7.2341    0.0000 O   0  0  0  0  0  0  0  0  0  0  0  0
    2.7700   -5.9966    0.0000 C   0  0  0  0  0  0  0  0  0  0  0  0
    2.7700   -5.1716    0.0000 C   0  0  0  0  0  0  0  0  0  0  0  0
    2.0555   -4.7591    0.0000 O   0  0  0  0  0  0  0  0  0  0  0  0
    3.4845   -4.7591    0.0000 C   0  0  0  0  0  0  0  0  0  0  0  0
    4.1989   -5.1716    0.0000 C   0  0  0  0  0  0  0  0  0  0  0  0
    4.9134   -4.7591    0.0000 O   0  0  0  0  0  0  0  0  0  0  0  0
    6.3424   -4.7591    0.0000 C   0  0  0  0  0  0  0  0  0  0  0  0
    6.3424   -3.9341    0.0000 C   0  0  0  0  0  0  0  0  0  0  0  0
    7.0568   -3.5216    0.0000 C   0  0  0  0  0  0  0  0  0  0  0  0
    7.7713   -3.9341    0.0000 C   0  0  0  0  0  0  0  0  0  0  0  0
    8.4858   -3.5216    0.0000 O   0  0  0  0  0  0  0  0  0  0  0  0
    7.7713   -4.7591    0.0000 C   0  0  0  0  0  0  0  0  0  0  0  0
    7.0568   -5.1716    0.0000 C   0  0  0  0  0  0  0  0  0  0  0  0
    6.3424   -6.4091    0.0000 O   0  0  0  0  0  0  0  0  0  0  0  0
    6.3424   -7.2341    0.0000 C   0  0  1  0  0  0  0  0  0  0  0  0
    7.0568   -7.6466    0.0000 C   0  0  1  0  0  0  0  0  0  0  0  0
    7.0568   -8.4716    0.0000 C   0  0  2  0  0  0  0  0  0  0  0  0
    7.7713   -8.8841    0.0000 O   0  0  0  0  0  0  0  0  0  0  0  0
    6.3424   -8.8841    0.0000 C   0  0  1  0  0  0  0  0  0  0  0  0
    6.3424   -9.7091    0.0000 O   0  0  0  0  0  0  0  0  0  0  0  0
    5.6279   -8.4716    0.0000 C   0  0  1  0  0  0  0  0  0  0  0  0
    5.6279   -7.6466    0.0000 O   0  0  0  0  0  0  0  0  0  0  0  0
    4.9134   -8.8841    0.0000 C   0  0  0  0  0  0  0  0  0  0  0  0
   12.7444   -5.9350    0.0000 O   0  0  0  0  0  0  0  0  0  0  0  0
   11.3404   -7.6063    0.0000 C   0  0  0  0  0  0  0  0  0  0  0  0
   12.0486   -7.1831    0.0000 C   0  0  0  0  0  0  0  0  0  0  0  0
   12.0362   -6.3582    0.0000 C   0  0  0  0  0  0  0  0  0  0  0  0
   11.3156   -5.9565    0.0000 C   0  0  0  0  0  0  0  0  0  0  0  0
   10.6074   -6.3797    0.0000 C   0  0  0  0  0  0  0  0  0  0  0  0
   10.6198   -7.2046    0.0000 C   0  0  0  0  0  0  0  0  0  0  0  0
    9.9116   -7.6277    0.0000 C   0  0  0  0  0  0  0  0  0  0  0  0
    8.4952   -8.4741    0.0000 O   0  0  0  0  0  0  0  0  0  0  0  0
    9.1911   -7.2260    0.0000 C   0  0  0  0  0  0  0  0  0  0  0  0
    8.4829   -7.6492    0.0000 C   0  0  0  0  0  0  0  0  0  0  0  0
    7.7713   -7.2341    0.0000 O   0  0  0  0  0  0  0  0  0  0  0  0
    5.6697  -10.0834    0.0000 C   0  0  0  0  0  0  0  0  0  0  0  0
    4.9512   -9.6780    0.0000 C   0  0  0  0  0  0  0  0  0  0  0  0
    5.6779  -10.9083    0.0000 O   0  0  0  0  0  0  0  0  0  0  0  0
    4.2408  -10.0976    0.0000 C   0  0  0  0  0  0  0  0  0  0  0  0
    3.5223   -9.6923    0.0000 C   0  0  0  0  0  0  0  0  0  0  0  0
    3.5140   -8.8673    0.0000 C   0  0  0  0  0  0  0  0  0  0  0  0
    2.7955   -8.4620    0.0000 C   0  0  0  0  0  0  0  0  0  0  0  0
    2.0852   -8.8816    0.0000 C   0  0  0  0  0  0  0  0  0  0  0  0
    2.0934   -9.7065    0.0000 C   0  0  0  0  0  0  0  0  0  0  0  0
    2.8120  -10.1119    0.0000 C   0  0  0  0  0  0  0  0  0  0  0  0
    1.3666   -8.4762    0.0000 O   0  0  0  0  0  0  0  0  0  0  0  0
    2.7873   -7.6370    0.0000 O   0  0  0  0  0  0  0  0  0  0  0  0
    2.0605   -7.2465    0.0000 C   0  0  0  0  0  0  0  0  0  0  0  0
 41 42  1  0  0  0  0
  1  2  2  0  0  0  0
  2  3  1  0  0  0  0
  3  4  2  0  0  0  0
  3  5  1  0  0  0  0
  5  6  1  0  0  0  0
  6  7  1  0  0  0  0
  6  8  2  0  0  0  0
  8  9  1  0  0  0  0
  9 10  1  0  0  0  0
  9 11  2  0  0  0  0
 11 12  1  0  0  0  0
  5 12  2  0  0  0  0
 12 13  1  0  0  0  0
  1 13  1  0  0  0  0
  1 14  1  0  0  0  0
 14 15  1  0  0  0  0
 15 16  2  0  0  0  0
 16 17  1  0  0  0  0
 17 18  1  0  0  0  0
 17 19  2  0  0  0  0
 19 20  1  0  0  0  0
 14 20  2  0  0  0  0
 22 21  1  1  0  0  0
 22 23  1  0  0  0  0
 23 42  1  6  0  0  0
 23 24  1  0  0  0  0
 24 25  1  6  0  0  0
 24 26  1  0  0  0  0
 26 27  1  1  0  0  0
 26 28  1  0  0  0  0
 28 29  1  0  0  0  0
 28 30  1  6  0  0  0
 22 29  1  0  0  0  0
  2 21  1  0  0  0  0
 34 31  1  0  0  0  0
 32 37  1  0  0  0  0
 33 32  2  0  0  0  0
 34 33  1  0  0  0  0
 35 34  2  0  0  0  0
 36 35  1  0  0  0  0
 37 36  2  0  0  0  0
 38 37  1  0  0  0  0
 40 38  2  0  0  0  0
 41 39  2  0  0  0  0
 41 40  1  0  0  0  0
 43 44  1  0  0  0  0
 43 45  2  0  0  0  0
 44 46  2  0  0  0  0
 46 47  1  0  0  0  0
 47 48  2  0  0  0  0
 48 49  1  0  0  0  0
 49 50  2  0  0  0  0
 50 51  1  0  0  0  0
 51 52  2  0  0  0  0
 52 47  1  0  0  0  0
 50 53  1  0  0  0  0
 43 27  1  0  0  0  0
 49 54  1  0  0  0  0
 54 55  1  0  0  0  0
M  END
>  <cdx:fragmentId>
5

$$$$
