95193.cdx
  Mrv1902 05222410262D          

 53 58  0  0  0  0            999 V2000
    6.5629   -5.0891    0.0000 C   0  0  0  0  0  0  0  0  0  0  0  0
    6.5629   -5.9141    0.0000 C   0  0  0  0  0  0  0  0  0  0  0  0
    5.8484   -6.3266    0.0000 C   0  0  0  0  0  0  0  0  0  0  0  0
    5.8484   -7.1516    0.0000 O   0  0  0  0  0  0  0  0  0  0  0  0
    5.1339   -5.9141    0.0000 C   0  0  0  0  0  0  0  0  0  0  0  0
    4.4195   -6.3266    0.0000 C   0  0  0  0  0  0  0  0  0  0  0  0
    4.4195   -7.1516    0.0000 O   0  0  0  0  0  0  0  0  0  0  0  0
    3.7050   -5.9141    0.0000 C   0  0  0  0  0  0  0  0  0  0  0  0
    3.7050   -5.0891    0.0000 C   0  0  0  0  0  0  0  0  0  0  0  0
    2.9905   -4.6766    0.0000 O   0  0  0  0  0  0  0  0  0  0  0  0
    4.4195   -4.6766    0.0000 C   0  0  0  0  0  0  0  0  0  0  0  0
    5.1339   -5.0891    0.0000 C   0  0  0  0  0  0  0  0  0  0  0  0
    5.8484   -4.6766    0.0000 O   0  0  0  0  0  0  0  0  0  0  0  0
    7.2774   -4.6766    0.0000 C   0  0  0  0  0  0  0  0  0  0  0  0
    7.2774   -3.8516    0.0000 C   0  0  0  0  0  0  0  0  0  0  0  0
    7.9918   -3.4391    0.0000 C   0  0  0  0  0  0  0  0  0  0  0  0
    8.7063   -3.8516    0.0000 C   0  0  0  0  0  0  0  0  0  0  0  0
    9.4208   -3.4391    0.0000 O   0  0  0  0  0  0  0  0  0  0  0  0
    8.7063   -4.6766    0.0000 C   0  0  0  0  0  0  0  0  0  0  0  0
    7.9918   -5.0891    0.0000 C   0  0  0  0  0  0  0  0  0  0  0  0
    7.2774   -6.3266    0.0000 O   0  0  0  0  0  0  0  0  0  0  0  0
    7.2774   -7.1516    0.0000 C   0  0  1  0  0  0  0  0  0  0  0  0
    7.9918   -7.5641    0.0000 C   0  0  2  0  0  0  0  0  0  0  0  0
    8.7063   -7.1516    0.0000 O   0  0  0  0  0  0  0  0  0  0  0  0
    7.9918   -8.3891    0.0000 C   0  0  2  0  0  0  0  0  0  0  0  0
    8.7063   -8.8016    0.0000 O   0  0  0  0  0  0  0  0  0  0  0  0
    7.2774   -8.8016    0.0000 C   0  0  1  0  0  0  0  0  0  0  0  0
    7.2774   -9.6266    0.0000 O   0  0  0  0  0  0  0  0  0  0  0  0
    6.5629   -8.3891    0.0000 C   0  0  1  0  0  0  0  0  0  0  0  0
    6.5629   -7.5641    0.0000 O   0  0  0  0  0  0  0  0  0  0  0  0
    5.8484   -8.8016    0.0000 C   0  0  0  0  0  0  0  0  0  0  0  0
    6.6005   -9.9931    0.0000 C   0  0  0  0  0  0  0  0  0  0  0  0
    5.8866   -9.5796    0.0000 C   0  0  0  0  0  0  0  0  0  0  0  0
    6.5993  -10.8181    0.0000 O   0  0  0  0  0  0  0  0  0  0  0  0
    5.1715   -9.9911    0.0000 C   0  0  0  0  0  0  0  0  0  0  0  0
    4.4577   -9.5775    0.0000 C   0  0  0  0  0  0  0  0  0  0  0  0
    4.4589   -8.7525    0.0000 C   0  0  0  0  0  0  0  0  0  0  0  0
    3.7450   -8.3390    0.0000 C   0  0  0  0  0  0  0  0  0  0  0  0
    3.0299   -8.7505    0.0000 C   0  0  0  0  0  0  0  0  0  0  0  0
    3.0287   -9.5755    0.0000 C   0  0  0  0  0  0  0  0  0  0  0  0
    3.7426   -9.9890    0.0000 C   0  0  0  0  0  0  0  0  0  0  0  0
    2.3160   -8.3369    0.0000 O   0  0  0  0  0  0  0  0  0  0  0  0
    9.4076   -8.3697    0.0000 C   0  0  0  0  0  0  0  0  0  0  0  0
    9.4116   -7.5447    0.0000 O   0  0  0  0  0  0  0  0  0  0  0  0
   10.8728   -5.0808    0.0000 O   0  0  0  0  0  0  0  0  0  0  0  0
   11.5660   -7.1505    0.0000 C   0  0  0  0  0  0  0  0  0  0  0  0
   11.5745   -6.3256    0.0000 C   0  0  0  0  0  0  0  0  0  0  0  0
   10.8643   -5.9057    0.0000 C   0  0  0  0  0  0  0  0  0  0  0  0
   10.1456   -6.3108    0.0000 C   0  0  0  0  0  0  0  0  0  0  0  0
   10.1371   -7.1358    0.0000 C   0  0  0  0  0  0  0  0  0  0  0  0
   10.8473   -7.5556    0.0000 C   0  0  0  0  0  0  0  0  0  0  0  0
   10.8388   -8.3806    0.0000 C   0  0  0  0  0  0  0  0  0  0  0  0
   10.1201   -8.7857    0.0000 C   0  0  0  0  0  0  0  0  0  0  0  0
  1  2  2  0  0  0  0
  2  3  1  0  0  0  0
  3  4  2  0  0  0  0
  3  5  1  0  0  0  0
  5  6  1  0  0  0  0
  6  7  1  0  0  0  0
  6  8  2  0  0  0  0
  8  9  1  0  0  0  0
  9 10  1  0  0  0  0
  9 11  2  0  0  0  0
 11 12  1  0  0  0  0
  5 12  2  0  0  0  0
 12 13  1  0  0  0  0
  1 13  1  0  0  0  0
  1 14  1  0  0  0  0
 14 15  1  0  0  0  0
 15 16  2  0  0  0  0
 16 17  1  0  0  0  0
 17 18  1  0  0  0  0
 17 19  2  0  0  0  0
 19 20  1  0  0  0  0
 14 20  2  0  0  0  0
 22 21  1  1  0  0  0
 22 23  1  0  0  0  0
 23 24  1  6  0  0  0
 23 25  1  0  0  0  0
 25 26  1  6  0  0  0
 25 27  1  0  0  0  0
 27 28  1  1  0  0  0
 27 29  1  0  0  0  0
 29 30  1  0  0  0  0
 29 31  1  6  0  0  0
 22 30  1  0  0  0  0
  2 21  1  0  0  0  0
 32 33  1  0  0  0  0
 32 34  2  0  0  0  0
 33 35  2  0  0  0  0
 35 36  1  0  0  0  0
 36 37  2  0  0  0  0
 37 38  1  0  0  0  0
 38 39  2  0  0  0  0
 39 40  1  0  0  0  0
 40 41  2  0  0  0  0
 41 36  1  0  0  0  0
 39 42  1  0  0  0  0
 32 28  1  0  0  0  0
 48 45  1  0  0  0  0
 43 53  1  0  0  0  0
 43 44  2  0  0  0  0
 46 51  1  0  0  0  0
 47 46  2  0  0  0  0
 48 47  1  0  0  0  0
 49 48  2  0  0  0  0
 50 49  1  0  0  0  0
 51 50  2  0  0  0  0
 52 51  1  0  0  0  0
 53 52  2  0  0  0  0
 43 26  1  0  0  0  0
M  END
>  <cdx:fragmentId>
5

$$$$
