95190.cdx
  Mrv1902 05222410272D          

 55 60  0  0  0  0            999 V2000
    5.9029   -5.1991    0.0000 C   0  0  0  0  0  0  0  0  0  0  0  0
    5.9029   -6.0241    0.0000 C   0  0  0  0  0  0  0  0  0  0  0  0
    5.1884   -6.4366    0.0000 C   0  0  0  0  0  0  0  0  0  0  0  0
    5.1884   -7.2616    0.0000 O   0  0  0  0  0  0  0  0  0  0  0  0
    4.4739   -6.0241    0.0000 C   0  0  0  0  0  0  0  0  0  0  0  0
    3.7595   -6.4366    0.0000 C   0  0  0  0  0  0  0  0  0  0  0  0
    3.7595   -7.2616    0.0000 O   0  0  0  0  0  0  0  0  0  0  0  0
    3.0450   -6.0241    0.0000 C   0  0  0  0  0  0  0  0  0  0  0  0
    3.0450   -5.1991    0.0000 C   0  0  0  0  0  0  0  0  0  0  0  0
    2.3305   -4.7866    0.0000 O   0  0  0  0  0  0  0  0  0  0  0  0
    3.7595   -4.7866    0.0000 C   0  0  0  0  0  0  0  0  0  0  0  0
    4.4739   -5.1991    0.0000 C   0  0  0  0  0  0  0  0  0  0  0  0
    5.1884   -4.7866    0.0000 O   0  0  0  0  0  0  0  0  0  0  0  0
    6.6174   -4.7866    0.0000 C   0  0  0  0  0  0  0  0  0  0  0  0
    6.6174   -3.9616    0.0000 C   0  0  0  0  0  0  0  0  0  0  0  0
    7.3318   -3.5491    0.0000 C   0  0  0  0  0  0  0  0  0  0  0  0
    8.0463   -3.9616    0.0000 C   0  0  0  0  0  0  0  0  0  0  0  0
    8.7608   -3.5491    0.0000 O   0  0  0  0  0  0  0  0  0  0  0  0
    8.0463   -4.7866    0.0000 C   0  0  0  0  0  0  0  0  0  0  0  0
    7.3318   -5.1991    0.0000 C   0  0  0  0  0  0  0  0  0  0  0  0
    6.6174   -6.4366    0.0000 O   0  0  0  0  0  0  0  0  0  0  0  0
    6.6174   -7.2616    0.0000 C   0  0  1  0  0  0  0  0  0  0  0  0
    7.3318   -7.6741    0.0000 C   0  0  1  0  0  0  0  0  0  0  0  0
    7.3318   -8.4991    0.0000 C   0  0  2  0  0  0  0  0  0  0  0  0
    8.0463   -8.9116    0.0000 O   0  0  0  0  0  0  0  0  0  0  0  0
    6.6174   -8.9116    0.0000 C   0  0  1  0  0  0  0  0  0  0  0  0
    6.6174   -9.7366    0.0000 O   0  0  0  0  0  0  0  0  0  0  0  0
    5.9029   -8.4991    0.0000 C   0  0  1  0  0  0  0  0  0  0  0  0
    5.9029   -7.6741    0.0000 O   0  0  0  0  0  0  0  0  0  0  0  0
    5.1884   -8.9116    0.0000 C   0  0  0  0  0  0  0  0  0  0  0  0
   12.3088   -4.7738    0.0000 C   0  0  0  0  0  0  0  0  0  0  0  0
   11.5969   -5.1906    0.0000 O   0  0  0  0  0  0  0  0  0  0  0  0
   13.0308   -6.0069    0.0000 O   0  0  0  0  0  0  0  0  0  0  0  0
   11.6120   -7.6656    0.0000 C   0  0  0  0  0  0  0  0  0  0  0  0
   12.3239   -7.2487    0.0000 C   0  0  0  0  0  0  0  0  0  0  0  0
   12.3189   -6.4238    0.0000 C   0  0  0  0  0  0  0  0  0  0  0  0
   11.6019   -6.0156    0.0000 C   0  0  0  0  0  0  0  0  0  0  0  0
   10.8900   -6.4325    0.0000 C   0  0  0  0  0  0  0  0  0  0  0  0
   10.8950   -7.2575    0.0000 C   0  0  0  0  0  0  0  0  0  0  0  0
   10.1830   -7.6743    0.0000 C   0  0  0  0  0  0  0  0  0  0  0  0
    8.7592   -8.5080    0.0000 O   0  0  0  0  0  0  0  0  0  0  0  0
    9.4661   -7.2662    0.0000 C   0  0  0  0  0  0  0  0  0  0  0  0
    8.7541   -7.6830    0.0000 C   0  0  0  0  0  0  0  0  0  0  0  0
    8.0463   -7.2616    0.0000 O   0  0  0  0  0  0  0  0  0  0  0  0
    5.9452  -10.1118    0.0000 C   0  0  0  0  0  0  0  0  0  0  0  0
    5.2261   -9.7075    0.0000 C   0  0  0  0  0  0  0  0  0  0  0  0
    5.9546  -10.9368    0.0000 O   0  0  0  0  0  0  0  0  0  0  0  0
    4.5164  -10.1281    0.0000 C   0  0  0  0  0  0  0  0  0  0  0  0
    3.7973   -9.7238    0.0000 C   0  0  0  0  0  0  0  0  0  0  0  0
    3.7879   -8.8988    0.0000 C   0  0  0  0  0  0  0  0  0  0  0  0
    3.0687   -8.4945    0.0000 C   0  0  0  0  0  0  0  0  0  0  0  0
    2.3590   -8.9151    0.0000 C   0  0  0  0  0  0  0  0  0  0  0  0
    2.3684   -9.7401    0.0000 C   0  0  0  0  0  0  0  0  0  0  0  0
    3.0875  -10.1444    0.0000 C   0  0  0  0  0  0  0  0  0  0  0  0
    1.6399   -8.5108    0.0000 O   0  0  0  0  0  0  0  0  0  0  0  0
 43 44  1  0  0  0  0
  1  2  2  0  0  0  0
  2  3  1  0  0  0  0
  3  4  2  0  0  0  0
  3  5  1  0  0  0  0
  5  6  1  0  0  0  0
  6  7  1  0  0  0  0
  6  8  2  0  0  0  0
  8  9  1  0  0  0  0
  9 10  1  0  0  0  0
  9 11  2  0  0  0  0
 11 12  1  0  0  0  0
  5 12  2  0  0  0  0
 12 13  1  0  0  0  0
  1 13  1  0  0  0  0
  1 14  1  0  0  0  0
 14 15  1  0  0  0  0
 15 16  2  0  0  0  0
 16 17  1  0  0  0  0
 17 18  1  0  0  0  0
 17 19  2  0  0  0  0
 19 20  1  0  0  0  0
 14 20  2  0  0  0  0
 22 21  1  1  0  0  0
 22 23  1  0  0  0  0
 23 44  1  6  0  0  0
 23 24  1  0  0  0  0
 24 25  1  6  0  0  0
 24 26  1  0  0  0  0
 26 27  1  1  0  0  0
 26 28  1  0  0  0  0
 28 29  1  0  0  0  0
 28 30  1  6  0  0  0
 22 29  1  0  0  0  0
  2 21  1  0  0  0  0
 32 31  1  0  0  0  0
 37 32  1  0  0  0  0
 36 33  1  0  0  0  0
 34 39  1  0  0  0  0
 35 34  2  0  0  0  0
 36 35  1  0  0  0  0
 37 36  2  0  0  0  0
 38 37  1  0  0  0  0
 39 38  2  0  0  0  0
 40 39  1  0  0  0  0
 42 40  2  0  0  0  0
 43 41  2  0  0  0  0
 43 42  1  0  0  0  0
 45 46  1  0  0  0  0
 45 47  2  0  0  0  0
 46 48  2  0  0  0  0
 48 49  1  0  0  0  0
 49 50  2  0  0  0  0
 50 51  1  0  0  0  0
 51 52  2  0  0  0  0
 52 53  1  0  0  0  0
 53 54  2  0  0  0  0
 54 49  1  0  0  0  0
 52 55  1  0  0  0  0
 45 27  1  0  0  0  0
M  END
>  <cdx:fragmentId>
5

$$$$
