95206.cdx
  Mrv1902 05222410182D          

 48 50  0  0  0  0            999 V2000
   11.1252   -7.0347    0.0000 C   0  0  0  0  0  0  0  0  0  0  0  0
   11.1252   -7.8597    0.0000 C   0  0  0  0  0  0  0  0  0  0  0  0
   11.8397   -8.2722    0.0000 C   0  0  0  0  0  0  0  0  0  0  0  0
   12.5542   -7.8597    0.0000 C   0  0  0  0  0  0  0  0  0  0  0  0
   10.4108   -6.6222    0.0000 O   0  0  0  0  0  0  0  0  0  0  0  0
   11.8397   -6.6222    0.0000 O   0  0  0  0  0  0  0  0  0  0  0  0
   12.5542   -7.0347    0.0000 O   0  0  0  0  0  0  0  0  0  0  0  0
   13.2687   -8.2722    0.0000 O   0  0  0  0  0  0  0  0  0  0  0  0
   11.8397   -9.0972    0.0000 O   0  0  0  0  0  0  0  0  0  0  0  0
   10.4108   -8.2722    0.0000 O   0  0  0  0  0  0  0  0  0  0  0  0
    9.6963   -7.8597    0.0000 C   0  0  0  0  0  0  0  0  0  0  0  0
    8.9818   -8.2722    0.0000 C   0  0  0  0  0  0  0  0  0  0  0  0
    8.9818   -9.0972    0.0000 C   0  0  0  0  0  0  0  0  0  0  0  0
    9.6963   -7.0347    0.0000 O   0  0  0  0  0  0  0  0  0  0  0  0
    9.6963   -9.5097    0.0000 C   0  0  0  0  0  0  0  0  0  0  0  0
    9.6963  -10.3347    0.0000 C   0  0  0  0  0  0  0  0  0  0  0  0
   10.4108  -10.7472    0.0000 C   0  0  0  0  0  0  0  0  0  0  0  0
   11.1252  -10.3347    0.0000 C   0  0  0  0  0  0  0  0  0  0  0  0
   11.1252   -9.5097    0.0000 C   0  0  0  0  0  0  0  0  0  0  0  0
   10.4108   -9.0972    0.0000 C   0  0  0  0  0  0  0  0  0  0  0  0
   11.8397  -10.7472    0.0000 O   0  0  0  0  0  0  0  0  0  0  0  0
   10.4108  -11.5722    0.0000 O   0  0  0  0  0  0  0  0  0  0  0  0
    8.2674   -7.8597    0.0000 O   0  0  0  0  0  0  0  0  0  0  0  0
    7.5529   -8.2722    0.0000 C   0  0  0  0  0  0  0  0  0  0  0  0
    6.8384   -7.8597    0.0000 C   0  0  0  0  0  0  0  0  0  0  0  0
    6.8384   -7.0347    0.0000 C   0  0  0  0  0  0  0  0  0  0  0  0
    7.5529   -9.0972    0.0000 O   0  0  0  0  0  0  0  0  0  0  0  0
    7.5529   -6.6222    0.0000 C   0  0  0  0  0  0  0  0  0  0  0  0
    7.5529   -5.7972    0.0000 C   0  0  0  0  0  0  0  0  0  0  0  0
    8.2674   -5.3847    0.0000 C   0  0  0  0  0  0  0  0  0  0  0  0
    8.9818   -5.7972    0.0000 C   0  0  0  0  0  0  0  0  0  0  0  0
    8.9818   -6.6222    0.0000 C   0  0  0  0  0  0  0  0  0  0  0  0
    8.2674   -7.0347    0.0000 C   0  0  0  0  0  0  0  0  0  0  0  0
    9.6963   -5.3847    0.0000 O   0  0  0  0  0  0  0  0  0  0  0  0
    8.2674   -4.5597    0.0000 O   0  0  0  0  0  0  0  0  0  0  0  0
    6.1239   -8.2722    0.0000 O   0  0  0  0  0  0  0  0  0  0  0  0
    5.4095   -7.8597    0.0000 C   0  0  0  0  0  0  0  0  0  0  0  0
    4.6950   -8.2722    0.0000 C   0  0  0  0  0  0  0  0  0  0  0  0
    3.9805   -7.8597    0.0000 C   0  0  0  0  0  0  0  0  0  0  0  0
    5.4095   -7.0347    0.0000 O   0  0  0  0  0  0  0  0  0  0  0  0
    3.2661   -8.2722    0.0000 C   0  0  0  0  0  0  0  0  0  0  0  0
    2.5516   -7.8597    0.0000 C   0  0  0  0  0  0  0  0  0  0  0  0
    1.8371   -8.2722    0.0000 C   0  0  0  0  0  0  0  0  0  0  0  0
    1.8371   -9.0972    0.0000 C   0  0  0  0  0  0  0  0  0  0  0  0
    2.5516   -9.5097    0.0000 C   0  0  0  0  0  0  0  0  0  0  0  0
    3.2661   -9.0972    0.0000 C   0  0  0  0  0  0  0  0  0  0  0  0
    1.1226   -9.5097    0.0000 O   0  0  0  0  0  0  0  0  0  0  0  0
    1.1226   -7.8597    0.0000 O   0  0  0  0  0  0  0  0  0  0  0  0
  1  2  1  0  0  0  0
  2  3  1  0  0  0  0
  3  4  1  0  0  0  0
  1  5  2  0  0  0  0
  1  6  1  0  0  0  0
  4  7  2  0  0  0  0
  4  8  1  0  0  0  0
  3  9  1  0  0  0  0
 11 12  1  0  0  0  0
 12 13  1  0  0  0  0
 11 14  2  0  0  0  0
 10 11  1  0  0  0  0
 15 16  1  0  0  0  0
 16 17  2  0  0  0  0
 17 18  1  0  0  0  0
 18 19  2  0  0  0  0
 19 20  1  0  0  0  0
 15 20  2  0  0  0  0
 18 21  1  0  0  0  0
 17 22  1  0  0  0  0
 13 15  1  0  0  0  0
 24 25  1  0  0  0  0
 25 26  1  0  0  0  0
 24 27  2  0  0  0  0
 23 24  1  0  0  0  0
 28 29  1  0  0  0  0
 29 30  2  0  0  0  0
 30 31  1  0  0  0  0
 31 32  2  0  0  0  0
 32 33  1  0  0  0  0
 28 33  2  0  0  0  0
 31 34  1  0  0  0  0
 30 35  1  0  0  0  0
 26 28  1  0  0  0  0
 37 38  1  0  0  0  0
 38 39  2  0  0  0  0
 37 40  2  0  0  0  0
 36 37  1  0  0  0  0
 41 42  1  0  0  0  0
 42 43  2  0  0  0  0
 43 44  1  0  0  0  0
 44 45  2  0  0  0  0
 45 46  1  0  0  0  0
 41 46  2  0  0  0  0
 44 47  1  0  0  0  0
 43 48  1  0  0  0  0
 39 41  1  0  0  0  0
 25 36  1  0  0  0  0
 12 23  1  0  0  0  0
  2 10  1  0  0  0  0
M  END
>  <cdx:groupId>
148

>  <cdx:fragmentId>
85

$$$$
