95204.cdx
  Mrv1902 05222410192D          

 53 58  0  0  0  0            999 V2000
   10.0535   -8.0041    0.0000 C   0  0  0  0  0  0  0  0  0  0  0  0
   10.0535   -8.8291    0.0000 C   0  0  0  0  0  0  0  0  0  0  0  0
   10.7680   -9.2416    0.0000 O   0  0  0  0  0  0  0  0  0  0  0  0
    9.3391   -9.2416    0.0000 C   0  0  0  0  0  0  0  0  0  0  0  0
    9.3391  -10.0666    0.0000 O   0  0  0  0  0  0  0  0  0  0  0  0
    8.6246   -8.8291    0.0000 C   0  0  0  0  0  0  0  0  0  0  0  0
    7.9101   -9.2416    0.0000 C   0  0  0  0  0  0  0  0  0  0  0  0
    7.9101  -10.0666    0.0000 O   0  0  0  0  0  0  0  0  0  0  0  0
    7.1956   -8.8291    0.0000 C   0  0  0  0  0  0  0  0  0  0  0  0
    7.1956   -8.0041    0.0000 C   0  0  0  0  0  0  0  0  0  0  0  0
    7.9101   -7.5916    0.0000 C   0  0  0  0  0  0  0  0  0  0  0  0
    8.6246   -8.0041    0.0000 C   0  0  0  0  0  0  0  0  0  0  0  0
    9.3391   -7.5916    0.0000 O   0  0  0  0  0  0  0  0  0  0  0  0
   10.7680   -7.5916    0.0000 C   0  0  0  0  0  0  0  0  0  0  0  0
   10.7680   -6.7666    0.0000 C   0  0  0  0  0  0  0  0  0  0  0  0
   11.4825   -6.3541    0.0000 C   0  0  0  0  0  0  0  0  0  0  0  0
   12.1969   -6.7666    0.0000 C   0  0  0  0  0  0  0  0  0  0  0  0
   12.9114   -6.3541    0.0000 O   0  0  0  0  0  0  0  0  0  0  0  0
   12.1969   -7.5916    0.0000 C   0  0  0  0  0  0  0  0  0  0  0  0
   11.4825   -8.0041    0.0000 C   0  0  0  0  0  0  0  0  0  0  0  0
   10.7680  -10.0666    0.0000 C   0  0  1  0  0  0  0  0  0  0  0  0
   11.4825  -10.4791    0.0000 C   0  0  2  0  0  0  0  0  0  0  0  0
   12.1969  -10.0666    0.0000 O   0  0  0  0  0  0  0  0  0  0  0  0
   11.4825  -11.3041    0.0000 C   0  0  1  0  0  0  0  0  0  0  0  0
   12.1969  -11.7166    0.0000 O   0  0  0  0  0  0  0  0  0  0  0  0
   10.7680  -11.7166    0.0000 C   0  0  2  0  0  0  0  0  0  0  0  0
   10.7680  -12.5416    0.0000 O   0  0  0  0  0  0  0  0  0  0  0  0
   10.0535  -11.3041    0.0000 C   0  0  2  0  0  0  0  0  0  0  0  0
   10.0535  -10.4791    0.0000 O   0  0  0  0  0  0  0  0  0  0  0  0
    9.3391  -11.7166    0.0000 C   0  0  0  0  0  0  0  0  0  0  0  0
    8.6246  -11.3041    0.0000 O   0  0  0  0  0  0  0  0  0  0  0  0
    6.4812   -7.5916    0.0000 O   0  0  0  0  0  0  0  0  0  0  0  0
    5.7667   -8.0041    0.0000 C   0  0  1  0  0  0  0  0  0  0  0  0
    5.0522   -7.5916    0.0000 C   0  0  2  0  0  0  0  0  0  0  0  0
    5.0522   -6.7666    0.0000 O   0  0  0  0  0  0  0  0  0  0  0  0
    4.3378   -8.0041    0.0000 C   0  0  2  0  0  0  0  0  0  0  0  0
    3.6233   -7.5916    0.0000 O   0  0  0  0  0  0  0  0  0  0  0  0
    4.3378   -8.8291    0.0000 C   0  0  1  0  0  0  0  0  0  0  0  0
    3.6233   -9.2416    0.0000 O   0  0  0  0  0  0  0  0  0  0  0  0
    5.0522   -9.2416    0.0000 C   0  0  1  0  0  0  0  0  0  0  0  0
    5.7667   -8.8291    0.0000 O   0  0  0  0  0  0  0  0  0  0  0  0
    5.0522  -10.0666    0.0000 C   0  0  0  0  0  0  0  0  0  0  0  0
    4.3378   -6.3541    0.0000 C   0  0  1  0  0  0  0  0  0  0  0  0
    4.3378   -5.5291    0.0000 C   0  0  2  0  0  0  0  0  0  0  0  0
    5.0522   -5.1166    0.0000 O   0  0  0  0  0  0  0  0  0  0  0  0
    3.6233   -5.1166    0.0000 C   0  0  1  0  0  0  0  0  0  0  0  0
    3.6233   -4.2916    0.0000 O   0  0  0  0  0  0  0  0  0  0  0  0
    2.9088   -5.5291    0.0000 C   0  0  2  0  0  0  0  0  0  0  0  0
    2.1944   -5.1166    0.0000 O   0  0  0  0  0  0  0  0  0  0  0  0
    2.9088   -6.3541    0.0000 C   0  0  2  0  0  0  0  0  0  0  0  0
    3.6233   -6.7666    0.0000 O   0  0  0  0  0  0  0  0  0  0  0  0
    2.1944   -6.7666    0.0000 C   0  0  0  0  0  0  0  0  0  0  0  0
    1.4799   -6.3541    0.0000 O   0  0  0  0  0  0  0  0  0  0  0  0
  1  2  2  0  0  0  0
  2  3  1  0  0  0  0
  2  4  1  0  0  0  0
  4  5  2  0  0  0  0
  4  6  1  0  0  0  0
  6  7  1  0  0  0  0
  7  8  1  0  0  0  0
  7  9  2  0  0  0  0
  9 10  1  0  0  0  0
 10 11  2  0  0  0  0
 11 12  1  0  0  0  0
  6 12  2  0  0  0  0
 12 13  1  0  0  0  0
  1 13  1  0  0  0  0
  1 14  1  0  0  0  0
 14 15  1  0  0  0  0
 15 16  2  0  0  0  0
 16 17  1  0  0  0  0
 17 18  1  0  0  0  0
 17 19  2  0  0  0  0
 19 20  1  0  0  0  0
 14 20  2  0  0  0  0
 21 22  1  0  0  0  0
 22 23  1  6  0  0  0
 22 24  1  0  0  0  0
 24 25  1  1  0  0  0
 24 26  1  0  0  0  0
 26 27  1  6  0  0  0
 26 28  1  0  0  0  0
 28 29  1  0  0  0  0
 28 30  1  1  0  0  0
 30 31  1  0  0  0  0
 21 29  1  0  0  0  0
 21  3  1  1  0  0  0
 33 32  1  6  0  0  0
 33 34  1  0  0  0  0
 34 35  1  1  0  0  0
 34 36  1  0  0  0  0
 36 37  1  1  0  0  0
 36 38  1  0  0  0  0
 38 39  1  6  0  0  0
 38 40  1  0  0  0  0
 40 41  1  0  0  0  0
 40 42  1  1  0  0  0
 33 41  1  0  0  0  0
 43 44  1  0  0  0  0
 44 45  1  1  0  0  0
 44 46  1  0  0  0  0
 46 47  1  6  0  0  0
 46 48  1  0  0  0  0
 48 49  1  1  0  0  0
 48 50  1  0  0  0  0
 50 51  1  0  0  0  0
 50 52  1  6  0  0  0
 52 53  1  0  0  0  0
 43 51  1  0  0  0  0
 43 35  1  6  0  0  0
 10 32  1  0  0  0  0
M  END
>  <cdx:groupId>
166

>  <cdx:fragmentId>
5

$$$$
