95205.cdx
  Mrv1902 05222410192D          

 29 30  0  0  0  0            999 V2000
    3.8206   -6.8062    0.0000 C   0  0  0  0  0  0  0  0  0  0  0  0
    3.8206   -7.6313    0.0000 C   0  0  0  0  0  0  0  0  0  0  0  0
    4.5350   -8.0437    0.0000 C   0  0  0  0  0  0  0  0  0  0  0  0
    5.2495   -7.6313    0.0000 C   0  0  0  0  0  0  0  0  0  0  0  0
    5.2495   -6.8062    0.0000 C   0  0  0  0  0  0  0  0  0  0  0  0
    4.5350   -6.3937    0.0000 C   0  0  0  0  0  0  0  0  0  0  0  0
    5.9640   -8.0437    0.0000 C   0  0  0  0  0  0  0  0  0  0  0  0
    6.6784   -7.6313    0.0000 C   0  0  0  0  0  0  0  0  0  0  0  0
    5.9640   -6.3937    0.0000 C   0  0  0  0  0  0  0  0  0  0  0  0
    7.3929   -8.0437    0.0000 C   0  0  0  0  0  0  0  0  0  0  0  0
    8.1074   -7.6313    0.0000 C   0  0  0  0  0  0  0  0  0  0  0  0
    3.1061   -6.3937    0.0000 O   0  0  0  0  0  0  0  0  0  0  0  0
    3.9517   -8.6271    0.0000 C   0  0  0  0  0  0  0  0  0  0  0  0
    5.1184   -8.6271    0.0000 C   0  0  0  0  0  0  0  0  0  0  0  0
    5.9640   -8.8688    0.0000 H   0  0  0  0  0  0  0  0  0  0  0  0
    5.9640   -7.2188    0.0000 O   0  0  0  0  0  0  0  0  0  0  0  0
    6.6784   -6.8062    0.0000 H   0  0  0  0  0  0  0  0  0  0  0  0
    7.3929   -8.8688    0.0000 O   0  0  0  0  0  0  0  0  0  0  0  0
    7.3929   -9.6937    0.0000 C   0  0  2  0  0  0  0  0  0  0  0  0
    6.6784  -10.1063    0.0000 O   0  0  0  0  0  0  0  0  0  0  0  0
    6.6784  -10.9313    0.0000 C   0  0  1  0  0  0  0  0  0  0  0  0
    7.3929  -11.3438    0.0000 C   0  0  2  0  0  0  0  0  0  0  0  0
    8.1074  -10.9313    0.0000 C   0  0  1  0  0  0  0  0  0  0  0  0
    8.1074  -10.1063    0.0000 C   0  0  1  0  0  0  0  0  0  0  0  0
    5.9640  -11.3438    0.0000 C   0  0  0  0  0  0  0  0  0  0  0  0
    8.8219  -11.3438    0.0000 O   0  0  0  0  0  0  0  0  0  0  0  0
    8.8219   -9.6937    0.0000 O   0  0  0  0  0  0  0  0  0  0  0  0
    7.3929  -12.1687    0.0000 O   0  0  0  0  0  0  0  0  0  0  0  0
    5.2495  -10.9313    0.0000 O   0  0  0  0  0  0  0  0  0  0  0  0
  1  2  1  0  0  0  0
  2  3  1  0  0  0  0
  3  4  1  0  0  0  0
  4  5  1  0  0  0  0
  5  6  2  0  0  0  0
  6  1  1  0  0  0  0
  4  7  1  0  0  0  0
  7  8  1  0  0  0  0
  9  5  1  0  0  0  0
  8 10  1  0  0  0  0
 10 11  1  0  0  0  0
  1 12  2  0  0  0  0
  3 13  1  0  0  0  0
  3 14  1  0  0  0  0
  7 15  1  0  0  0  0
  4 16  1  0  0  0  0
  8 17  1  0  0  0  0
 10 18  1  0  0  0  0
 19 18  1  1  0  0  0
 19 20  1  0  0  0  0
 20 21  1  0  0  0  0
 21 22  1  0  0  0  0
 22 23  1  0  0  0  0
 23 24  1  0  0  0  0
 24 19  1  0  0  0  0
 21 25  1  1  0  0  0
 23 26  1  1  0  0  0
 24 27  1  6  0  0  0
 22 28  1  6  0  0  0
 25 29  1  0  0  0  0
M  END
>  <cdx:fragmentId>
5

$$$$
