95201.cdx
  Mrv1902 05222410192D          

 70 76  0  0  0  0            999 V2000
    2.7775   -8.7004    0.0000 C   0  0  0  0  0  0  0  0  0  0  0  0
    2.0630   -9.1129    0.0000 C   0  0  0  0  0  0  0  0  0  0  0  0
    2.0630   -9.9379    0.0000 C   0  0  1  0  0  0  0  0  0  0  0  0
    2.7775  -10.3504    0.0000 C   0  0  0  0  0  0  0  0  0  0  0  0
    3.4920   -9.9379    0.0000 C   0  0  0  0  0  0  0  0  0  0  0  0
    4.2064  -10.3504    0.0000 C   0  0  0  0  0  0  0  0  0  0  0  0
    4.9209   -9.9379    0.0000 C   0  0  0  0  0  0  0  0  0  0  0  0
    4.9209   -9.1129    0.0000 C   0  0  1  0  0  0  0  0  0  0  0  0
    5.6354   -8.7004    0.0000 C   0  0  2  0  0  0  0  0  0  0  0  0
    6.4200   -8.9554    0.0000 C   0  0  0  0  0  0  0  0  0  0  0  0
    6.9049   -8.2879    0.0000 C   0  0  0  0  0  0  0  0  0  0  0  0
    6.4200   -7.6205    0.0000 C   0  0  1  0  0  0  0  0  0  0  0  0
    5.6354   -7.8754    0.0000 C   0  0  1  0  0  0  0  0  0  0  0  0
    4.9209   -7.4629    0.0000 C   0  0  0  0  0  0  0  0  0  0  0  0
    4.2064   -7.8754    0.0000 C   0  0  2  0  0  0  0  0  0  0  0  0
    4.2064   -8.7004    0.0000 C   0  0  1  0  0  0  0  0  0  0  0  0
    3.4920   -9.1129    0.0000 C   0  0  2  0  0  0  0  0  0  0  0  0
    1.3486  -10.3504    0.0000 O   0  0  0  0  0  0  0  0  0  0  0  0
    3.4920   -7.4629    0.0000 O   0  0  0  0  0  0  0  0  0  0  0  0
    5.6354   -9.5254    0.0000 C   0  0  0  0  0  0  0  0  0  0  0  0
    5.7216   -7.0549    0.0000 C   0  0  0  0  0  0  0  0  0  0  0  0
    4.2064   -9.5254    0.0000 C   0  0  0  0  0  0  0  0  0  0  0  0
    3.1900  -11.0649    0.0000 C   0  0  0  0  0  0  0  0  0  0  0  0
    2.3650  -11.0649    0.0000 C   0  0  0  0  0  0  0  0  0  0  0  0
    6.1229   -6.2228    0.0000 C   0  0  0  0  0  0  0  0  0  0  0  0
    6.6749   -6.8359    0.0000 C   0  0  2  0  0  0  0  0  0  0  0  0
    7.4819   -6.6643    0.0000 C   0  0  0  0  0  0  0  0  0  0  0  0
    7.7369   -5.8797    0.0000 C   0  0  0  0  0  0  0  0  0  0  0  0
    8.5438   -5.7082    0.0000 C   0  0  2  0  0  0  0  0  0  0  0  0
    8.7988   -4.9236    0.0000 C   0  0  0  0  0  0  0  0  0  0  0  0
    8.2467   -4.3105    0.0000 C   0  0  0  0  0  0  0  0  0  0  0  0
    9.6057   -4.7520    0.0000 C   0  0  0  0  0  0  0  0  0  0  0  0
    9.0537   -4.1389    0.0000 O   0  0  0  0  0  0  0  0  0  0  0  0
    9.0959   -6.3213    0.0000 O   0  0  0  0  0  0  0  0  0  0  0  0
    4.9209   -8.2879    0.0000 H   0  0  0  0  0  0  0  0  0  0  0  0
    3.4920   -8.2879    0.0000 H   0  0  0  0  0  0  0  0  0  0  0  0
    7.2169   -7.4070    0.0000 H   0  0  0  0  0  0  0  0  0  0  0  0
    8.3961  -10.1540    0.0000 C   0  0  2  0  0  0  0  0  0  0  0  0
    9.1079  -10.5711    0.0000 C   0  0  2  0  0  0  0  0  0  0  0  0
    9.8250  -10.1632    0.0000 C   0  0  1  0  0  0  0  0  0  0  0  0
    9.8304   -9.3382    0.0000 C   0  0  2  0  0  0  0  0  0  0  0  0
    9.1186   -8.9211    0.0000 C   0  0  1  0  0  0  0  0  0  0  0  0
    8.4015   -9.3290    0.0000 O   0  0  0  0  0  0  0  0  0  0  0  0
    7.6790  -10.5619    0.0000 C   0  0  0  0  0  0  0  0  0  0  0  0
   10.5368  -10.5803    0.0000 O   0  0  0  0  0  0  0  0  0  0  0  0
    9.1026  -11.3961    0.0000 O   0  0  0  0  0  0  0  0  0  0  0  0
   10.5475   -8.9303    0.0000 O   0  0  0  0  0  0  0  0  0  0  0  0
    7.6737  -11.3868    0.0000 O   0  0  0  0  0  0  0  0  0  0  0  0
    5.5158  -11.7413    0.0000 C   0  0  2  0  0  0  0  0  0  0  0  0
    5.4931  -12.5660    0.0000 C   0  0  2  0  0  0  0  0  0  0  0  0
    6.1959  -12.9980    0.0000 C   0  0  1  0  0  0  0  0  0  0  0  0
    6.9215  -12.6054    0.0000 C   0  0  2  0  0  0  0  0  0  0  0  0
    6.9442  -11.7807    0.0000 C   0  0  1  0  0  0  0  0  0  0  0  0
    6.2414  -11.3486    0.0000 O   0  0  0  0  0  0  0  0  0  0  0  0
    4.8130  -11.3092    0.0000 C   0  0  0  0  0  0  0  0  0  0  0  0
    6.1731  -13.8227    0.0000 O   0  0  0  0  0  0  0  0  0  0  0  0
    4.7675  -12.9586    0.0000 O   0  0  0  0  0  0  0  0  0  0  0  0
    7.6243  -13.0375    0.0000 O   0  0  0  0  0  0  0  0  0  0  0  0
    4.0874  -11.7018    0.0000 O   0  0  0  0  0  0  0  0  0  0  0  0
   11.9970  -10.5836    0.0000 C   0  0  2  0  0  0  0  0  0  0  0  0
   12.7082  -10.1653    0.0000 C   0  0  2  0  0  0  0  0  0  0  0  0
   12.7015   -9.3404    0.0000 C   0  0  1  0  0  0  0  0  0  0  0  0
   11.9837   -8.9337    0.0000 C   0  0  2  0  0  0  0  0  0  0  0  0
   11.2726   -9.3519    0.0000 C   0  0  1  0  0  0  0  0  0  0  0  0
   11.2793  -10.1769    0.0000 O   0  0  0  0  0  0  0  0  0  0  0  0
   12.0037  -11.4086    0.0000 C   0  0  0  0  0  0  0  0  0  0  0  0
   13.4126   -8.9221    0.0000 O   0  0  0  0  0  0  0  0  0  0  0  0
   13.4259  -10.5721    0.0000 O   0  0  0  0  0  0  0  0  0  0  0  0
   11.9771   -8.1087    0.0000 O   0  0  0  0  0  0  0  0  0  0  0  0
   12.7215  -11.8153    0.0000 O   0  0  0  0  0  0  0  0  0  0  0  0
  1  2  1  0  0  0  0
  2  3  1  0  0  0  0
  3  4  1  0  0  0  0
  4  5  1  0  0  0  0
  5  6  2  0  0  0  0
  6  7  1  0  0  0  0
  7  8  1  0  0  0  0
  8  9  1  0  0  0  0
  9 10  1  0  0  0  0
 10 11  1  0  0  0  0
 12 11  1  0  0  0  0
 12 13  1  0  0  0  0
  9 13  1  0  0  0  0
 13 14  1  0  0  0  0
 14 15  1  0  0  0  0
 15 16  1  0  0  0  0
  8 16  1  0  0  0  0
 16 17  1  0  0  0  0
  5 17  1  0  0  0  0
  1 17  1  0  0  0  0
  3 18  1  1  0  0  0
 15 19  1  6  0  0  0
  9 20  1  6  0  0  0
 13 21  1  1  0  0  0
 16 22  1  1  0  0  0
  4 23  1  0  0  0  0
  4 24  1  0  0  0  0
 26 25  1  6  0  0  0
 26 27  1  0  0  0  0
 27 28  1  0  0  0  0
 28 29  1  0  0  0  0
 29 30  1  0  0  0  0
 30 31  1  0  0  0  0
 30 32  1  0  0  0  0
 30 33  1  0  0  0  0
 29 34  1  6  0  0  0
 12 26  1  0  0  0  0
  8 35  1  1  0  0  0
 17 36  1  6  0  0  0
 12 37  1  6  0  0  0
 38 39  1  0  0  0  0
 39 40  1  0  0  0  0
 40 41  1  0  0  0  0
 41 42  1  0  0  0  0
 42 43  1  0  0  0  0
 43 38  1  0  0  0  0
 38 44  1  1  0  0  0
 40 45  1  1  0  0  0
 39 46  1  6  0  0  0
 41 47  1  6  0  0  0
 44 48  1  0  0  0  0
 49 50  1  0  0  0  0
 50 51  1  0  0  0  0
 51 52  1  0  0  0  0
 52 53  1  0  0  0  0
 53 54  1  0  0  0  0
 54 49  1  0  0  0  0
 49 55  1  1  0  0  0
 51 56  1  1  0  0  0
 50 57  1  6  0  0  0
 52 58  1  6  0  0  0
 55 59  1  0  0  0  0
 60 61  1  0  0  0  0
 61 62  1  0  0  0  0
 62 63  1  0  0  0  0
 63 64  1  0  0  0  0
 64 65  1  0  0  0  0
 65 60  1  0  0  0  0
 60 66  1  1  0  0  0
 62 67  1  1  0  0  0
 61 68  1  6  0  0  0
 63 69  1  6  0  0  0
 66 70  1  0  0  0  0
 64 47  1  1  0  0  0
 53 48  1  1  0  0  0
 42 34  1  1  0  0  0
M  END
>  <cdx:groupId>
113

>  <cdx:fragmentId>
5

$$$$
