95207.cdx
  Mrv1902 05222410182D          

 52 55  0  0  0  0            999 V2000
   11.4825   -8.2104    0.0000 C   0  0  0  0  0  0  0  0  0  0  0  0
   10.7680   -8.6229    0.0000 C   0  0  0  0  0  0  0  0  0  0  0  0
   10.7680   -9.4479    0.0000 C   0  0  0  0  0  0  0  0  0  0  0  0
   11.4825   -7.3854    0.0000 O   0  0  0  0  0  0  0  0  0  0  0  0
   12.1969   -8.6229    0.0000 O   0  0  0  0  0  0  0  0  0  0  0  0
   11.4825   -9.8604    0.0000 C   0  0  0  0  0  0  0  0  0  0  0  0
   12.1969   -9.4479    0.0000 C   0  0  0  0  0  0  0  0  0  0  0  0
   12.9114   -9.8604    0.0000 C   0  0  0  0  0  0  0  0  0  0  0  0
   12.9114  -10.6854    0.0000 C   0  0  0  0  0  0  0  0  0  0  0  0
   12.1969  -11.0979    0.0000 C   0  0  0  0  0  0  0  0  0  0  0  0
   11.4825  -10.6854    0.0000 C   0  0  0  0  0  0  0  0  0  0  0  0
   13.6259  -11.0979    0.0000 O   0  0  0  0  0  0  0  0  0  0  0  0
   13.6259   -9.4479    0.0000 O   0  0  0  0  0  0  0  0  0  0  0  0
   10.0535   -8.2104    0.0000 O   0  0  0  0  0  0  0  0  0  0  0  0
    9.3391   -8.6229    0.0000 C   0  0  0  0  0  0  0  0  0  0  0  0
    8.6246   -8.2104    0.0000 C   0  0  0  0  0  0  0  0  0  0  0  0
    8.6246   -7.3854    0.0000 C   0  0  0  0  0  0  0  0  0  0  0  0
    9.3391   -9.4479    0.0000 O   0  0  0  0  0  0  0  0  0  0  0  0
    9.3391   -6.9729    0.0000 C   0  0  0  0  0  0  0  0  0  0  0  0
    9.3391   -6.1479    0.0000 C   0  0  0  0  0  0  0  0  0  0  0  0
   10.0535   -5.7354    0.0000 C   0  0  0  0  0  0  0  0  0  0  0  0
   10.7680   -6.1479    0.0000 C   0  0  0  0  0  0  0  0  0  0  0  0
   10.7680   -6.9729    0.0000 C   0  0  0  0  0  0  0  0  0  0  0  0
   10.0535   -7.3854    0.0000 C   0  0  0  0  0  0  0  0  0  0  0  0
   11.4825   -5.7354    0.0000 O   0  0  0  0  0  0  0  0  0  0  0  0
   10.0535   -4.9104    0.0000 O   0  0  0  0  0  0  0  0  0  0  0  0
    7.9101   -8.6229    0.0000 O   0  0  0  0  0  0  0  0  0  0  0  0
    7.1956   -8.2104    0.0000 C   0  0  0  0  0  0  0  0  0  0  0  0
    6.4812   -8.6229    0.0000 C   0  0  0  0  0  0  0  0  0  0  0  0
    6.4812   -9.4479    0.0000 C   0  0  0  0  0  0  0  0  0  0  0  0
    7.1956   -7.3854    0.0000 O   0  0  0  0  0  0  0  0  0  0  0  0
    7.1956   -9.8604    0.0000 C   0  0  0  0  0  0  0  0  0  0  0  0
    7.1956  -10.6854    0.0000 C   0  0  0  0  0  0  0  0  0  0  0  0
    7.9101  -11.0979    0.0000 C   0  0  0  0  0  0  0  0  0  0  0  0
    8.6246  -10.6854    0.0000 C   0  0  0  0  0  0  0  0  0  0  0  0
    8.6246   -9.8604    0.0000 C   0  0  0  0  0  0  0  0  0  0  0  0
    7.9101   -9.4479    0.0000 C   0  0  0  0  0  0  0  0  0  0  0  0
    9.3391  -11.0979    0.0000 O   0  0  0  0  0  0  0  0  0  0  0  0
    7.9101  -11.9229    0.0000 O   0  0  0  0  0  0  0  0  0  0  0  0
    5.7667   -8.2104    0.0000 O   0  0  0  0  0  0  0  0  0  0  0  0
    5.0522   -8.6229    0.0000 C   0  0  0  0  0  0  0  0  0  0  0  0
    4.3378   -8.2104    0.0000 C   0  0  0  0  0  0  0  0  0  0  0  0
    3.6233   -8.6229    0.0000 C   0  0  0  0  0  0  0  0  0  0  0  0
    5.0522   -9.4479    0.0000 O   0  0  0  0  0  0  0  0  0  0  0  0
    2.9088   -8.2104    0.0000 C   0  0  0  0  0  0  0  0  0  0  0  0
    2.1944   -8.6229    0.0000 C   0  0  0  0  0  0  0  0  0  0  0  0
    1.4799   -8.2104    0.0000 C   0  0  0  0  0  0  0  0  0  0  0  0
    1.4799   -7.3854    0.0000 C   0  0  0  0  0  0  0  0  0  0  0  0
    2.1944   -6.9729    0.0000 C   0  0  0  0  0  0  0  0  0  0  0  0
    2.9088   -7.3854    0.0000 C   0  0  0  0  0  0  0  0  0  0  0  0
    0.7654   -6.9729    0.0000 O   0  0  0  0  0  0  0  0  0  0  0  0
    0.7654   -8.6229    0.0000 O   0  0  0  0  0  0  0  0  0  0  0  0
  1  2  1  0  0  0  0
  2  3  1  0  0  0  0
  1  4  2  0  0  0  0
  1  5  1  0  0  0  0
  6  7  1  0  0  0  0
  7  8  2  0  0  0  0
  8  9  1  0  0  0  0
  9 10  2  0  0  0  0
 10 11  1  0  0  0  0
  6 11  2  0  0  0  0
  9 12  1  0  0  0  0
  8 13  1  0  0  0  0
  3  6  1  0  0  0  0
 15 16  1  0  0  0  0
 16 17  1  0  0  0  0
 15 18  2  0  0  0  0
 14 15  1  0  0  0  0
 19 20  1  0  0  0  0
 20 21  2  0  0  0  0
 21 22  1  0  0  0  0
 22 23  2  0  0  0  0
 23 24  1  0  0  0  0
 19 24  2  0  0  0  0
 22 25  1  0  0  0  0
 21 26  1  0  0  0  0
 17 19  1  0  0  0  0
 28 29  1  0  0  0  0
 29 30  1  0  0  0  0
 28 31  2  0  0  0  0
 27 28  1  0  0  0  0
 32 33  1  0  0  0  0
 33 34  2  0  0  0  0
 34 35  1  0  0  0  0
 35 36  2  0  0  0  0
 36 37  1  0  0  0  0
 32 37  2  0  0  0  0
 35 38  1  0  0  0  0
 34 39  1  0  0  0  0
 30 32  1  0  0  0  0
 41 42  1  0  0  0  0
 42 43  2  0  0  0  0
 41 44  2  0  0  0  0
 40 41  1  0  0  0  0
 45 46  1  0  0  0  0
 46 47  2  0  0  0  0
 47 48  1  0  0  0  0
 48 49  2  0  0  0  0
 49 50  1  0  0  0  0
 45 50  2  0  0  0  0
 48 51  1  0  0  0  0
 47 52  1  0  0  0  0
 43 45  1  0  0  0  0
 29 40  1  0  0  0  0
 16 27  1  0  0  0  0
  2 14  1  0  0  0  0
M  END
>  <cdx:groupId>
161

>  <cdx:fragmentId>
93

$$$$
