95208.cdx
  Mrv1902 05222410272D          

 45 47  0  0  0  0            999 V2000
    6.7012   -5.9705    0.0000 O   0  0  0  0  0  0  0  0  0  0  0  0
    7.5259   -5.9949    0.0000 C   0  0  0  0  0  0  0  0  0  0  0  0
    7.9170   -6.7213    0.0000 C   0  0  1  0  0  0  0  0  0  0  0  0
    7.9593   -5.2929    0.0000 O   0  0  0  0  0  0  0  0  0  0  0  0
    7.9563   -4.4679    0.0000 C   0  0  0  0  0  0  0  0  0  0  0  0
    7.2404   -4.0580    0.0000 C   0  0  0  0  0  0  0  0  0  0  0  0
    8.6693   -4.0529    0.0000 C   0  0  0  0  0  0  0  0  0  0  0  0
    7.2374   -3.2330    0.0000 O   0  0  0  0  0  0  0  0  0  0  0  0
    6.5274   -4.4731    0.0000 C   0  0  0  0  0  0  0  0  0  0  0  0
    6.5304   -5.2981    0.0000 O   0  0  0  0  0  0  0  0  0  0  0  0
    5.8115   -4.0632    0.0000 O   0  0  0  0  0  0  0  0  0  0  0  0
    8.6663   -3.2279    0.0000 O   0  0  0  0  0  0  0  0  0  0  0  0
    9.3853   -4.4628    0.0000 O   0  0  0  0  0  0  0  0  0  0  0  0
    6.5214   -2.8231    0.0000 C   0  0  0  0  0  0  0  0  0  0  0  0
    6.5184   -1.9981    0.0000 O   0  0  0  0  0  0  0  0  0  0  0  0
    5.8085   -3.2382    0.0000 C   0  0  0  0  0  0  0  0  0  0  0  0
    5.0925   -2.8283    0.0000 C   0  0  0  0  0  0  0  0  0  0  0  0
    4.3795   -3.2434    0.0000 C   0  0  0  0  0  0  0  0  0  0  0  0
    3.6636   -2.8335    0.0000 C   0  0  0  0  0  0  0  0  0  0  0  0
    2.9506   -3.2486    0.0000 C   0  0  0  0  0  0  0  0  0  0  0  0
    2.9536   -4.0736    0.0000 C   0  0  0  0  0  0  0  0  0  0  0  0
    3.6695   -4.4835    0.0000 C   0  0  0  0  0  0  0  0  0  0  0  0
    4.3825   -4.0684    0.0000 C   0  0  0  0  0  0  0  0  0  0  0  0
    2.2406   -4.4887    0.0000 O   0  0  0  0  0  0  0  0  0  0  0  0
    7.9431   -7.5458    0.0000 C   0  0  0  0  0  0  0  0  0  0  0  0
    8.6703   -7.9355    0.0000 C   0  0  2  0  0  0  0  0  0  0  0  0
    9.3714   -7.5006    0.0000 C   0  0  1  0  0  0  0  0  0  0  0  0
    9.3453   -6.6760    0.0000 C   0  0  1  0  0  0  0  0  0  0  0  0
    8.6181   -6.2863    0.0000 C   0  0  0  0  0  0  0  0  0  0  0  0
    7.1204   -6.9356    0.0000 O   0  0  0  0  0  0  0  0  0  0  0  0
    8.6964   -8.7601    0.0000 O   0  0  0  0  0  0  0  0  0  0  0  0
   10.0463   -6.2411    0.0000 O   0  0  0  0  0  0  0  0  0  0  0  0
   10.0985   -7.8903    0.0000 O   0  0  0  0  0  0  0  0  0  0  0  0
    7.9954   -9.1950    0.0000 C   0  0  0  0  0  0  0  0  0  0  0  0
    7.2682   -8.8053    0.0000 O   0  0  0  0  0  0  0  0  0  0  0  0
    8.0215  -10.0196    0.0000 C   0  0  0  0  0  0  0  0  0  0  0  0
    7.3204  -10.4545    0.0000 C   0  0  0  0  0  0  0  0  0  0  0  0
    7.3465  -11.2791    0.0000 C   0  0  0  0  0  0  0  0  0  0  0  0
    6.6483  -11.7186    0.0000 C   0  0  0  0  0  0  0  0  0  0  0  0
    6.6798  -12.5430    0.0000 C   0  0  0  0  0  0  0  0  0  0  0  0
    7.4095  -12.9279    0.0000 C   0  0  0  0  0  0  0  0  0  0  0  0
    8.1160  -12.5021    0.0000 C   0  0  0  0  0  0  0  0  0  0  0  0
    8.0928  -11.6915    0.0000 C   0  0  0  0  0  0  0  0  0  0  0  0
    7.4330  -13.7526    0.0000 O   0  0  0  0  0  0  0  0  0  0  0  0
    5.9816  -12.9824    0.0000 O   0  0  0  0  0  0  0  0  0  0  0  0
  2  1  2  0  0  0  0
  3  2  1  0  0  0  0
  2  4  1  0  0  0  0
  4  5  1  0  0  0  0
  5  6  1  0  0  0  0
  5  7  1  0  0  0  0
  6  8  1  0  0  0  0
  6  9  1  0  0  0  0
  9 10  2  0  0  0  0
  9 11  1  0  0  0  0
  7 12  2  0  0  0  0
  7 13  1  0  0  0  0
  8 14  1  0  0  0  0
 14 15  2  0  0  0  0
 14 16  1  0  0  0  0
 16 17  2  0  0  0  0
 17 18  1  0  0  0  0
 18 19  2  0  0  0  0
 19 20  1  0  0  0  0
 20 21  2  0  0  0  0
 21 22  1  0  0  0  0
 22 23  2  0  0  0  0
 23 18  1  0  0  0  0
 21 24  1  0  0  0  0
  3 25  1  0  0  0  0
 25 26  1  0  0  0  0
 26 27  1  0  0  0  0
 27 28  1  0  0  0  0
 28 29  1  0  0  0  0
 29  3  1  0  0  0  0
  3 30  1  1  0  0  0
 26 31  1  6  0  0  0
 28 32  1  1  0  0  0
 27 33  1  1  0  0  0
 31 34  1  0  0  0  0
 34 35  2  0  0  0  0
 34 36  1  0  0  0  0
 36 37  2  0  0  0  0
 37 38  1  0  0  0  0
 38 39  2  0  0  0  0
 39 40  1  0  0  0  0
 40 41  2  0  0  0  0
 41 42  1  0  0  0  0
 42 43  2  0  0  0  0
 43 38  1  0  0  0  0
 41 44  1  0  0  0  0
 40 45  1  0  0  0  0
M  END
>  <cdx:fragmentId>
156

$$$$
