95200.cdx
  Mrv1902 05222410192D          

  5  4  0  0  0  0            999 V2000
    5.5962   -4.7609    0.0000 C   0  0  0  0  0  0  0  0  0  0  0  0
    6.3029   -4.3352    0.0000 S   0  0  0  0  0  0  0  0  0  0  0  0
    7.0249   -4.7344    0.0000 S   0  0  0  0  0  0  0  0  0  0  0  0
    7.0402   -5.5592    0.0000 O   0  0  0  0  0  0  0  0  0  0  0  0
    7.7315   -4.3086    0.0000 C   0  0  0  0  0  0  0  0  0  0  0  0
  3  4  2  0  0  0  0
  3  5  1  0  0  0  0
  2  3  1  0  0  0  0
  1  2  1  0  0  0  0
M  END
>  <cdx:groupId>
79

>  <cdx:fragmentId>
72

$$$$
