95209.cdx
  Mrv1902 05222410272D          

 53 57  0  0  0  0            999 V2000
    3.6167   -9.9122    0.0000 O   0  0  0  0  0  0  0  0  0  0  0  0
    3.9523   -9.1585    0.0000 C   0  0  0  0  0  0  0  0  0  0  0  0
    4.7728   -9.2448    0.0000 C   0  0  0  0  0  0  0  0  0  0  0  0
    4.9443  -10.0517    0.0000 C   0  0  0  0  0  0  0  0  0  0  0  0
    4.2298  -10.4642    0.0000 C   0  0  0  0  0  0  0  0  0  0  0  0
    5.6588  -10.4642    0.0000 C   0  0  0  0  0  0  0  0  0  0  0  0
    5.6588  -11.2892    0.0000 C   0  0  0  0  0  0  0  0  0  0  0  0
    4.9443  -11.7017    0.0000 C   0  0  0  0  0  0  0  0  0  0  0  0
    4.2298  -11.2892    0.0000 C   0  0  0  0  0  0  0  0  0  0  0  0
    5.3248   -8.6317    0.0000 C   0  0  0  0  0  0  0  0  0  0  0  0
    6.1318   -8.8032    0.0000 O   0  0  0  0  0  0  0  0  0  0  0  0
    5.1113   -7.8348    0.0000 O   0  0  0  0  0  0  0  0  0  0  0  0
    3.5154  -11.7017    0.0000 O   0  0  0  0  0  0  0  0  0  0  0  0
    3.5398   -8.4440    0.0000 C   0  0  0  0  0  0  0  0  0  0  0  0
    3.9523   -7.7296    0.0000 C   0  0  0  0  0  0  0  0  0  0  0  0
    3.5398   -7.0151    0.0000 C   0  0  0  0  0  0  0  0  0  0  0  0
    2.7148   -7.0151    0.0000 C   0  0  0  0  0  0  0  0  0  0  0  0
    2.3023   -7.7296    0.0000 C   0  0  0  0  0  0  0  0  0  0  0  0
    2.7148   -8.4440    0.0000 C   0  0  0  0  0  0  0  0  0  0  0  0
    2.3023   -6.3006    0.0000 O   0  0  0  0  0  0  0  0  0  0  0  0
    3.9523   -6.3006    0.0000 O   0  0  0  0  0  0  0  0  0  0  0  0
    6.3732  -10.0517    0.0000 C   0  0  0  0  0  0  0  0  0  0  0  0
    7.0877  -10.4642    0.0000 C   0  0  0  0  0  0  0  0  0  0  0  0
    7.0877  -11.2892    0.0000 O   0  0  0  0  0  0  0  0  0  0  0  0
    7.8022  -10.0517    0.0000 C   0  0  0  0  0  0  0  0  0  0  0  0
    7.8022   -9.2267    0.0000 O   0  0  0  0  0  0  0  0  0  0  0  0
    8.5167  -10.4642    0.0000 O   0  0  0  0  0  0  0  0  0  0  0  0
    9.2311  -10.0517    0.0000 C   0  0  0  0  0  0  0  0  0  0  0  0
    9.2311   -9.2267    0.0000 C   0  0  0  0  0  0  0  0  0  0  0  0
    9.9456   -8.8142    0.0000 C   0  0  0  0  0  0  0  0  0  0  0  0
   10.6601   -9.2267    0.0000 C   0  0  0  0  0  0  0  0  0  0  0  0
   11.3745   -8.8142    0.0000 C   0  0  0  0  0  0  0  0  0  0  0  0
   11.3745   -7.9892    0.0000 C   0  0  0  0  0  0  0  0  0  0  0  0
   10.6601   -7.5767    0.0000 C   0  0  0  0  0  0  0  0  0  0  0  0
    9.9456   -7.9892    0.0000 C   0  0  0  0  0  0  0  0  0  0  0  0
   12.0890   -7.5767    0.0000 O   0  0  0  0  0  0  0  0  0  0  0  0
   12.0890   -9.2267    0.0000 O   0  0  0  0  0  0  0  0  0  0  0  0
    9.9456  -10.4642    0.0000 C   0  0  0  0  0  0  0  0  0  0  0  0
    9.9456  -11.2892    0.0000 O   0  0  0  0  0  0  0  0  0  0  0  0
   10.6601  -10.0517    0.0000 O   0  0  0  0  0  0  0  0  0  0  0  0
    5.6946   -7.2514    0.0000 C   0  0  0  0  0  0  0  0  0  0  0  0
    6.4915   -7.4649    0.0000 C   0  0  0  0  0  0  0  0  0  0  0  0
    7.0749   -6.8816    0.0000 C   0  0  0  0  0  0  0  0  0  0  0  0
    7.8718   -7.0951    0.0000 C   0  0  0  0  0  0  0  0  0  0  0  0
    8.4551   -6.5117    0.0000 C   0  0  0  0  0  0  0  0  0  0  0  0
    8.2416   -5.7148    0.0000 C   0  0  0  0  0  0  0  0  0  0  0  0
    7.4447   -5.5013    0.0000 C   0  0  0  0  0  0  0  0  0  0  0  0
    6.8614   -6.0847    0.0000 C   0  0  0  0  0  0  0  0  0  0  0  0
    8.8250   -5.1315    0.0000 O   0  0  0  0  0  0  0  0  0  0  0  0
    9.2520   -6.7253    0.0000 O   0  0  0  0  0  0  0  0  0  0  0  0
    5.4811   -6.4545    0.0000 C   0  0  0  0  0  0  0  0  0  0  0  0
    4.6842   -6.2410    0.0000 O   0  0  0  0  0  0  0  0  0  0  0  0
    6.0645   -5.8712    0.0000 O   0  0  0  0  0  0  0  0  0  0  0  0
  1  2  1  0  0  0  0
  2  3  1  0  0  0  0
  3  4  1  0  0  0  0
  4  5  1  0  0  0  0
  1  5  1  0  0  0  0
  6  7  1  0  0  0  0
  7  8  2  0  0  0  0
  8  9  1  0  0  0  0
  9  5  2  0  0  0  0
  6  4  2  0  0  0  0
 10 11  2  0  0  0  0
 10 12  1  0  0  0  0
  3 10  1  0  0  0  0
  9 13  1  0  0  0  0
 14 15  1  0  0  0  0
 15 16  2  0  0  0  0
 16 17  1  0  0  0  0
 17 18  2  0  0  0  0
 18 19  1  0  0  0  0
 14 19  2  0  0  0  0
 17 20  1  0  0  0  0
 16 21  1  0  0  0  0
  2 14  1  0  0  0  0
 22 23  1  0  0  0  0
 23 24  1  0  0  0  0
 25 26  2  0  0  0  0
 28 29  1  0  0  0  0
 27 28  1  0  0  0  0
 25 27  1  0  0  0  0
 30 31  1  0  0  0  0
 31 32  2  0  0  0  0
 32 33  1  0  0  0  0
 33 34  2  0  0  0  0
 34 35  1  0  0  0  0
 30 35  2  0  0  0  0
 33 36  1  0  0  0  0
 32 37  1  0  0  0  0
 29 30  1  0  0  0  0
 38 39  2  0  0  0  0
 38 40  1  0  0  0  0
 28 38  1  0  0  0  0
 23 25  1  0  0  0  0
  6 22  1  0  0  0  0
 41 42  1  0  0  0  0
 43 44  1  0  0  0  0
 44 45  2  0  0  0  0
 45 46  1  0  0  0  0
 46 47  2  0  0  0  0
 47 48  1  0  0  0  0
 43 48  2  0  0  0  0
 46 49  1  0  0  0  0
 45 50  1  0  0  0  0
 42 43  1  0  0  0  0
 51 52  2  0  0  0  0
 51 53  1  0  0  0  0
 41 51  1  0  0  0  0
 12 41  1  0  0  0  0
M  END
>  <cdx:groupId>
165

>  <cdx:fragmentId>
5

$$$$
