95219.cdx
  Mrv1902 05222410272D          

 53 58  0  0  0  0            999 V2000
    6.8384   -6.3541    0.0000 C   0  0  0  0  0  0  0  0  0  0  0  0
    6.8384   -7.1791    0.0000 C   0  0  0  0  0  0  0  0  0  0  0  0
    6.1239   -7.5916    0.0000 C   0  0  0  0  0  0  0  0  0  0  0  0
    6.1239   -8.4166    0.0000 O   0  0  0  0  0  0  0  0  0  0  0  0
    5.4095   -7.1791    0.0000 C   0  0  0  0  0  0  0  0  0  0  0  0
    4.6950   -7.5916    0.0000 C   0  0  0  0  0  0  0  0  0  0  0  0
    4.6950   -8.4166    0.0000 O   0  0  0  0  0  0  0  0  0  0  0  0
    3.9805   -7.1791    0.0000 C   0  0  0  0  0  0  0  0  0  0  0  0
    3.9805   -6.3541    0.0000 C   0  0  0  0  0  0  0  0  0  0  0  0
    3.2661   -5.9416    0.0000 O   0  0  0  0  0  0  0  0  0  0  0  0
    4.6950   -5.9416    0.0000 C   0  0  0  0  0  0  0  0  0  0  0  0
    5.4095   -6.3541    0.0000 C   0  0  0  0  0  0  0  0  0  0  0  0
    6.1239   -5.9416    0.0000 O   0  0  0  0  0  0  0  0  0  0  0  0
    7.5529   -5.9416    0.0000 C   0  0  0  0  0  0  0  0  0  0  0  0
    8.2674   -6.3541    0.0000 C   0  0  0  0  0  0  0  0  0  0  0  0
    8.9818   -5.9416    0.0000 C   0  0  0  0  0  0  0  0  0  0  0  0
    9.6963   -6.3541    0.0000 O   0  0  0  0  0  0  0  0  0  0  0  0
   10.4108   -5.9416    0.0000 C   0  0  0  0  0  0  0  0  0  0  0  0
    8.9818   -5.1166    0.0000 C   0  0  0  0  0  0  0  0  0  0  0  0
    9.6963   -4.7041    0.0000 O   0  0  0  0  0  0  0  0  0  0  0  0
    8.2674   -4.7041    0.0000 C   0  0  0  0  0  0  0  0  0  0  0  0
    7.5529   -5.1166    0.0000 C   0  0  0  0  0  0  0  0  0  0  0  0
    7.5529   -7.5916    0.0000 O   0  0  0  0  0  0  0  0  0  0  0  0
    7.5529   -8.4166    0.0000 C   0  0  1  0  0  0  0  0  0  0  0  0
    8.2674   -8.8291    0.0000 C   0  0  2  0  0  0  0  0  0  0  0  0
    8.9818   -8.4166    0.0000 O   0  0  0  0  0  0  0  0  0  0  0  0
    8.2674   -9.6541    0.0000 C   0  0  1  0  0  0  0  0  0  0  0  0
    8.9818  -10.0666    0.0000 O   0  0  0  0  0  0  0  0  0  0  0  0
    7.5529  -10.0666    0.0000 C   0  0  2  0  0  0  0  0  0  0  0  0
    7.5529  -10.8916    0.0000 O   0  0  0  0  0  0  0  0  0  0  0  0
    6.8384   -9.6541    0.0000 C   0  0  2  0  0  0  0  0  0  0  0  0
    6.8384   -8.8291    0.0000 O   0  0  0  0  0  0  0  0  0  0  0  0
    6.1239  -10.0666    0.0000 C   0  0  0  0  0  0  0  0  0  0  0  0
    5.4095   -9.6541    0.0000 O   0  0  0  0  0  0  0  0  0  0  0  0
    9.6963   -8.8291    0.0000 C   0  0  1  0  0  0  0  0  0  0  0  0
   10.4108   -8.4166    0.0000 C   0  0  2  0  0  0  0  0  0  0  0  0
   10.4108   -7.5916    0.0000 O   0  0  0  0  0  0  0  0  0  0  0  0
   11.1252   -8.8291    0.0000 C   0  0  1  0  0  0  0  0  0  0  0  0
   11.8397   -8.4166    0.0000 O   0  0  0  0  0  0  0  0  0  0  0  0
   11.1252   -9.6541    0.0000 C   0  0  2  0  0  0  0  0  0  0  0  0
   11.8397  -10.0666    0.0000 O   0  0  0  0  0  0  0  0  0  0  0  0
   10.4108  -10.0666    0.0000 C   0  0  0  0  0  0  0  0  0  0  0  0
    9.6963   -9.6541    0.0000 O   0  0  0  0  0  0  0  0  0  0  0  0
    4.6950  -10.0666    0.0000 C   0  0  1  0  0  0  0  0  0  0  0  0
    4.6950  -10.8916    0.0000 C   0  0  2  0  0  0  0  0  0  0  0  0
    5.4095  -11.3041    0.0000 O   0  0  0  0  0  0  0  0  0  0  0  0
    3.9805  -11.3041    0.0000 C   0  0  2  0  0  0  0  0  0  0  0  0
    3.9805  -12.1291    0.0000 O   0  0  0  0  0  0  0  0  0  0  0  0
    3.2661  -10.8916    0.0000 C   0  0  1  0  0  0  0  0  0  0  0  0
    2.5516  -11.3041    0.0000 O   0  0  0  0  0  0  0  0  0  0  0  0
    3.2661  -10.0666    0.0000 C   0  0  1  0  0  0  0  0  0  0  0  0
    3.9805   -9.6541    0.0000 O   0  0  0  0  0  0  0  0  0  0  0  0
    2.5516   -9.6541    0.0000 C   0  0  0  0  0  0  0  0  0  0  0  0
  1  2  2  0  0  0  0
  2  3  1  0  0  0  0
  3  4  2  0  0  0  0
  3  5  1  0  0  0  0
  5  6  1  0  0  0  0
  6  7  1  0  0  0  0
  6  8  2  0  0  0  0
  8  9  1  0  0  0  0
  9 10  1  0  0  0  0
  9 11  2  0  0  0  0
 11 12  1  0  0  0  0
  5 12  2  0  0  0  0
 12 13  1  0  0  0  0
  1 13  1  0  0  0  0
  1 14  1  0  0  0  0
 14 15  1  0  0  0  0
 15 16  2  0  0  0  0
 16 17  1  0  0  0  0
 17 18  1  0  0  0  0
 16 19  1  0  0  0  0
 19 20  1  0  0  0  0
 19 21  2  0  0  0  0
 21 22  1  0  0  0  0
 14 22  2  0  0  0  0
 24 23  1  1  0  0  0
 24 25  1  0  0  0  0
 25 26  1  6  0  0  0
 25 27  1  0  0  0  0
 27 28  1  1  0  0  0
 27 29  1  0  0  0  0
 29 30  1  6  0  0  0
 29 31  1  0  0  0  0
 31 32  1  0  0  0  0
 31 33  1  1  0  0  0
 33 34  1  0  0  0  0
 24 32  1  0  0  0  0
 35 36  1  0  0  0  0
 36 37  1  6  0  0  0
 36 38  1  0  0  0  0
 38 39  1  1  0  0  0
 38 40  1  0  0  0  0
 40 41  1  6  0  0  0
 40 42  1  0  0  0  0
 42 43  1  0  0  0  0
 35 43  1  0  0  0  0
 35 26  1  1  0  0  0
 44 45  1  0  0  0  0
 45 46  1  6  0  0  0
 45 47  1  0  0  0  0
 47 48  1  6  0  0  0
 47 49  1  0  0  0  0
 49 50  1  1  0  0  0
 49 51  1  0  0  0  0
 51 52  1  0  0  0  0
 51 53  1  6  0  0  0
 44 52  1  0  0  0  0
 44 34  1  1  0  0  0
  2 23  1  0  0  0  0
M  END
>  <cdx:groupId>
166

>  <cdx:fragmentId>
47

$$$$
