9521.cdx
  Mrv1902 05222410212D          

 16 18  0  0  0  0            999 V2000
    5.6156   -6.1463    0.0000 C   0  0  0  0  0  0  0  0  0  0  0  0
    5.6156   -6.9712    0.0000 C   0  0  0  0  0  0  0  0  0  0  0  0
    6.2606   -7.4856    0.0000 C   0  0  0  0  0  0  0  0  0  0  0  0
    7.0649   -7.3020    0.0000 C   0  0  0  0  0  0  0  0  0  0  0  0
    7.4228   -6.5587    0.0000 C   0  0  0  0  0  0  0  0  0  0  0  0
    7.0649   -5.8155    0.0000 C   0  0  0  0  0  0  0  0  0  0  0  0
    6.2606   -5.6319    0.0000 C   0  0  0  0  0  0  0  0  0  0  0  0
    4.8309   -5.8913    0.0000 C   0  0  0  0  0  0  0  0  0  0  0  0
    4.3460   -6.5587    0.0000 C   0  0  0  0  0  0  0  0  0  0  0  0
    4.8309   -7.2262    0.0000 C   0  0  0  0  0  0  0  0  0  0  0  0
    6.8217   -8.0904    0.0000 C   0  0  0  0  0  0  0  0  0  0  0  0
    6.4092   -8.8049    0.0000 C   0  0  0  0  0  0  0  0  0  0  0  0
    7.5362   -8.5029    0.0000 C   0  0  0  0  0  0  0  0  0  0  0  0
    5.6772   -5.0485    0.0000 C   0  0  0  0  0  0  0  0  0  0  0  0
    6.4741   -4.8350    0.0000 O   0  0  0  0  0  0  0  0  0  0  0  0
    4.6174   -8.0231    0.0000 C   0  0  0  0  0  0  0  0  0  0  0  0
  1  2  1  0  0  0  0
  2  3  1  0  0  0  0
  3  4  1  0  0  0  0
  4  5  1  0  0  0  0
  5  6  1  0  0  0  0
  6  7  1  0  0  0  0
  7  1  1  0  0  0  0
  1  8  1  0  0  0  0
  8  9  1  0  0  0  0
  9 10  1  0  0  0  0
 10  2  1  0  0  0  0
  3 11  1  0  0  0  0
 11  4  1  0  0  0  0
 11 12  1  0  0  0  0
 11 13  1  0  0  0  0
  7 14  1  0  0  0  0
  7 15  1  0  0  0  0
 10 16  1  0  0  0  0
M  END
>  <cdx:fragmentId>
53

$$$$
