95211.cdx
  Mrv1902 05222410192D          

 11 11  0  0  0  0            999 V2000
    6.7152   -6.9135    0.0000 C   0  0  2  0  0  0  0  0  0  0  0  0
    7.4260   -6.4947    0.0000 C   0  0  2  0  0  0  0  0  0  0  0  0
    8.1441   -6.9009    0.0000 C   0  0  0  0  0  0  0  0  0  0  0  0
    8.1514   -7.7259    0.0000 C   0  0  0  0  0  0  0  0  0  0  0  0
    7.4405   -8.1446    0.0000 C   0  0  1  0  0  0  0  0  0  0  0  0
    6.7225   -7.7384    0.0000 C   0  0  0  0  0  0  0  0  0  0  0  0
    5.9971   -6.5073    0.0000 O   0  0  0  0  0  0  0  0  0  0  0  0
    7.4188   -5.6697    0.0000 C   0  0  0  0  0  0  0  0  0  0  0  0
    8.1296   -5.2510    0.0000 C   0  0  0  0  0  0  0  0  0  0  0  0
    6.7007   -5.2635    0.0000 C   0  0  0  0  0  0  0  0  0  0  0  0
    7.4478   -8.9696    0.0000 C   0  0  0  0  0  0  0  0  0  0  0  0
  1  2  1  0  0  0  0
  2  3  1  0  0  0  0
  3  4  1  0  0  0  0
  4  5  1  0  0  0  0
  5  6  1  0  0  0  0
  1  6  1  0  0  0  0
  1  7  1  6  0  0  0
  8  9  1  0  0  0  0
  8 10  1  0  0  0  0
  2  8  1  1  0  0  0
  5 11  1  6  0  0  0
M  END
>  <cdx:fragmentId>
5

$$$$
