95218.cdx
  Mrv1902 05222410262D          

 43 47  0  0  0  0            999 V2000
    6.4812   -6.9729    0.0000 C   0  0  0  0  0  0  0  0  0  0  0  0
    6.4812   -7.7979    0.0000 C   0  0  0  0  0  0  0  0  0  0  0  0
    5.7667   -8.2104    0.0000 C   0  0  0  0  0  0  0  0  0  0  0  0
    5.7667   -9.0354    0.0000 O   0  0  0  0  0  0  0  0  0  0  0  0
    5.0522   -7.7979    0.0000 C   0  0  0  0  0  0  0  0  0  0  0  0
    4.3378   -8.2104    0.0000 C   0  0  0  0  0  0  0  0  0  0  0  0
    4.3378   -9.0354    0.0000 O   0  0  0  0  0  0  0  0  0  0  0  0
    3.6233   -7.7979    0.0000 C   0  0  0  0  0  0  0  0  0  0  0  0
    3.6233   -6.9729    0.0000 C   0  0  0  0  0  0  0  0  0  0  0  0
    2.9088   -6.5604    0.0000 O   0  0  0  0  0  0  0  0  0  0  0  0
    4.3378   -6.5604    0.0000 C   0  0  0  0  0  0  0  0  0  0  0  0
    5.0522   -6.9729    0.0000 C   0  0  0  0  0  0  0  0  0  0  0  0
    5.7667   -6.5604    0.0000 O   0  0  0  0  0  0  0  0  0  0  0  0
    7.1956   -6.5604    0.0000 C   0  0  0  0  0  0  0  0  0  0  0  0
    7.9101   -6.9729    0.0000 C   0  0  0  0  0  0  0  0  0  0  0  0
    8.6246   -6.5604    0.0000 C   0  0  0  0  0  0  0  0  0  0  0  0
    9.3391   -6.9729    0.0000 O   0  0  0  0  0  0  0  0  0  0  0  0
   10.0535   -6.5604    0.0000 C   0  0  0  0  0  0  0  0  0  0  0  0
    8.6246   -5.7354    0.0000 C   0  0  0  0  0  0  0  0  0  0  0  0
    9.3391   -5.3229    0.0000 O   0  0  0  0  0  0  0  0  0  0  0  0
    7.9101   -5.3229    0.0000 C   0  0  0  0  0  0  0  0  0  0  0  0
    7.1956   -5.7354    0.0000 C   0  0  0  0  0  0  0  0  0  0  0  0
    7.1956   -8.2104    0.0000 O   0  0  0  0  0  0  0  0  0  0  0  0
    7.1956   -9.0354    0.0000 C   0  0  1  0  0  0  0  0  0  0  0  0
    7.9101   -9.4479    0.0000 C   0  0  2  0  0  0  0  0  0  0  0  0
    8.6246   -9.0354    0.0000 O   0  0  0  0  0  0  0  0  0  0  0  0
    7.9101  -10.2729    0.0000 C   0  0  1  0  0  0  0  0  0  0  0  0
    8.6246  -10.6854    0.0000 O   0  0  0  0  0  0  0  0  0  0  0  0
    7.1956  -10.6854    0.0000 C   0  0  2  0  0  0  0  0  0  0  0  0
    7.1956  -11.5104    0.0000 O   0  0  0  0  0  0  0  0  0  0  0  0
    6.4812  -10.2729    0.0000 C   0  0  2  0  0  0  0  0  0  0  0  0
    6.4812   -9.4479    0.0000 O   0  0  0  0  0  0  0  0  0  0  0  0
    5.7667  -10.6854    0.0000 C   0  0  0  0  0  0  0  0  0  0  0  0
    5.7667  -11.5104    0.0000 O   0  0  0  0  0  0  0  0  0  0  0  0
    9.3391   -9.4479    0.0000 C   0  0  1  0  0  0  0  0  0  0  0  0
   10.0535   -9.0354    0.0000 C   0  0  2  0  0  0  0  0  0  0  0  0
   10.0535   -8.2104    0.0000 O   0  0  0  0  0  0  0  0  0  0  0  0
   10.7680   -9.4479    0.0000 C   0  0  1  0  0  0  0  0  0  0  0  0
   11.4825   -9.0354    0.0000 O   0  0  0  0  0  0  0  0  0  0  0  0
   10.7680  -10.2729    0.0000 C   0  0  2  0  0  0  0  0  0  0  0  0
   11.4825  -10.6854    0.0000 O   0  0  0  0  0  0  0  0  0  0  0  0
   10.0535  -10.6854    0.0000 C   0  0  0  0  0  0  0  0  0  0  0  0
    9.3391  -10.2729    0.0000 O   0  0  0  0  0  0  0  0  0  0  0  0
  1  2  2  0  0  0  0
  2  3  1  0  0  0  0
  3  4  2  0  0  0  0
  3  5  1  0  0  0  0
  5  6  1  0  0  0  0
  6  7  1  0  0  0  0
  6  8  2  0  0  0  0
  8  9  1  0  0  0  0
  9 10  1  0  0  0  0
  9 11  2  0  0  0  0
 11 12  1  0  0  0  0
  5 12  2  0  0  0  0
 12 13  1  0  0  0  0
  1 13  1  0  0  0  0
  1 14  1  0  0  0  0
 14 15  1  0  0  0  0
 15 16  2  0  0  0  0
 16 17  1  0  0  0  0
 17 18  1  0  0  0  0
 16 19  1  0  0  0  0
 19 20  1  0  0  0  0
 19 21  2  0  0  0  0
 21 22  1  0  0  0  0
 14 22  2  0  0  0  0
 24 23  1  1  0  0  0
 24 25  1  0  0  0  0
 25 26  1  6  0  0  0
 25 27  1  0  0  0  0
 27 28  1  1  0  0  0
 27 29  1  0  0  0  0
 29 30  1  6  0  0  0
 29 31  1  0  0  0  0
 31 32  1  0  0  0  0
 31 33  1  1  0  0  0
 33 34  1  0  0  0  0
 24 32  1  0  0  0  0
 35 36  1  0  0  0  0
 36 37  1  6  0  0  0
 36 38  1  0  0  0  0
 38 39  1  1  0  0  0
 38 40  1  0  0  0  0
 40 41  1  6  0  0  0
 40 42  1  0  0  0  0
 42 43  1  0  0  0  0
 35 43  1  0  0  0  0
 35 26  1  1  0  0  0
  2 23  1  0  0  0  0
M  END
>  <cdx:groupId>
135

>  <cdx:fragmentId>
5

$$$$
