95227.cdx
  Mrv1902 05222410262D          

 23 24  0  0  0  0            999 V2000
    7.3451   -8.2104    0.0000 C   0  0  0  0  0  0  0  0  0  0  0  0
    6.6307   -8.6229    0.0000 C   0  0  0  0  0  0  0  0  0  0  0  0
    5.9162   -8.2104    0.0000 C   0  0  0  0  0  0  0  0  0  0  0  0
    7.3451   -7.3854    0.0000 O   0  0  0  0  0  0  0  0  0  0  0  0
    8.0596   -8.6229    0.0000 O   0  0  0  0  0  0  0  0  0  0  0  0
    5.2017   -8.6229    0.0000 C   0  0  0  0  0  0  0  0  0  0  0  0
    5.2017   -9.4479    0.0000 C   0  0  0  0  0  0  0  0  0  0  0  0
    4.4873   -9.8604    0.0000 C   0  0  0  0  0  0  0  0  0  0  0  0
    3.7728   -9.4479    0.0000 C   0  0  0  0  0  0  0  0  0  0  0  0
    3.7728   -8.6229    0.0000 C   0  0  0  0  0  0  0  0  0  0  0  0
    4.4873   -8.2104    0.0000 C   0  0  0  0  0  0  0  0  0  0  0  0
    5.9162   -9.8604    0.0000 O   0  0  0  0  0  0  0  0  0  0  0  0
    6.6307   -9.4479    0.0000 C   0  0  0  0  0  0  0  0  0  0  0  0
    3.0583   -9.8604    0.0000 O   0  0  0  0  0  0  0  0  0  0  0  0
    8.7741   -8.2104    0.0000 C   0  0  0  0  0  0  0  0  0  0  0  0
    9.4885   -8.6229    0.0000 C   0  0  0  0  0  0  0  0  0  0  0  0
   10.2030   -8.2104    0.0000 C   0  0  0  0  0  0  0  0  0  0  0  0
   10.2030   -7.3854    0.0000 C   0  0  0  0  0  0  0  0  0  0  0  0
    9.4885   -6.9729    0.0000 C   0  0  0  0  0  0  0  0  0  0  0  0
    8.7741   -7.3854    0.0000 C   0  0  0  0  0  0  0  0  0  0  0  0
   10.9175   -8.6229    0.0000 O   0  0  0  0  0  0  0  0  0  0  0  0
   11.6320   -8.2104    0.0000 C   0  0  0  0  0  0  0  0  0  0  0  0
   10.9175   -6.9729    0.0000 O   0  0  0  0  0  0  0  0  0  0  0  0
  1  2  1  0  0  0  0
  2  3  2  0  0  0  0
  1  4  2  0  0  0  0
  1  5  1  0  0  0  0
  6  7  1  0  0  0  0
  7  8  2  0  0  0  0
  8  9  1  0  0  0  0
  9 10  2  0  0  0  0
 10 11  1  0  0  0  0
  6 11  2  0  0  0  0
 12 13  1  0  0  0  0
  7 12  1  0  0  0  0
  9 14  1  0  0  0  0
  3  6  1  0  0  0  0
 15 16  1  0  0  0  0
 16 17  2  0  0  0  0
 17 18  1  0  0  0  0
 18 19  2  0  0  0  0
 19 20  1  0  0  0  0
 15 20  2  0  0  0  0
 21 22  1  0  0  0  0
 17 21  1  0  0  0  0
 18 23  1  0  0  0  0
  5 15  1  0  0  0  0
M  END
>  <cdx:groupId>
72

>  <cdx:fragmentId>
15

$$$$
