95228.cdx
  Mrv1902 05222410192D          

 70 76  0  0  0  0            999 V2000
   11.1049  -11.6461    0.0000 C   0  0  0  0  0  0  0  0  0  0  0  0
   10.8094  -12.1422    0.0000 C   0  0  0  0  0  0  0  0  0  0  0  0
   11.0912  -12.6463    0.0000 O   0  0  0  0  0  0  0  0  0  0  0  0
   10.2319  -12.1343    0.0000 C   0  0  0  0  0  0  0  0  0  0  0  0
    9.9364  -12.6305    0.0000 O   0  0  0  0  0  0  0  0  0  0  0  0
    9.9500  -11.6303    0.0000 C   0  0  0  0  0  0  0  0  0  0  0  0
    9.3726  -11.6224    0.0000 C   0  0  0  0  0  0  0  0  0  0  0  0
    9.0770  -12.1186    0.0000 O   0  0  0  0  0  0  0  0  0  0  0  0
    9.0907  -11.1184    0.0000 C   0  0  0  0  0  0  0  0  0  0  0  0
    9.3862  -10.6222    0.0000 C   0  0  0  0  0  0  0  0  0  0  0  0
    9.9637  -10.6301    0.0000 C   0  0  0  0  0  0  0  0  0  0  0  0
   10.2456  -11.1342    0.0000 C   0  0  0  0  0  0  0  0  0  0  0  0
   10.8230  -11.1421    0.0000 O   0  0  0  0  0  0  0  0  0  0  0  0
   11.6824  -11.6540    0.0000 C   0  0  0  0  0  0  0  0  0  0  0  0
   11.9642  -12.1580    0.0000 C   0  0  0  0  0  0  0  0  0  0  0  0
   12.5417  -12.1659    0.0000 C   0  0  0  0  0  0  0  0  0  0  0  0
   12.8236  -12.6699    0.0000 O   0  0  0  0  0  0  0  0  0  0  0  0
   13.4010  -12.6778    0.0000 C   0  0  0  0  0  0  0  0  0  0  0  0
   12.8373  -11.6698    0.0000 C   0  0  0  0  0  0  0  0  0  0  0  0
   13.4147  -11.6777    0.0000 O   0  0  0  0  0  0  0  0  0  0  0  0
   12.5554  -11.1657    0.0000 C   0  0  0  0  0  0  0  0  0  0  0  0
   11.9779  -11.1578    0.0000 C   0  0  0  0  0  0  0  0  0  0  0  0
    9.1044  -10.1182    0.0000 O   0  0  0  0  0  0  0  0  0  0  0  0
    8.5269  -10.1103    0.0000 C   0  0  1  0  0  0  0  0  0  0  0  0
    8.2450   -9.6063    0.0000 C   0  0  2  0  0  0  0  0  0  0  0  0
    8.5406   -9.1102    0.0000 O   0  0  0  0  0  0  0  0  0  0  0  0
    7.6676   -9.5984    0.0000 C   0  0  2  0  0  0  0  0  0  0  0  0
    7.3857   -9.0944    0.0000 O   0  0  0  0  0  0  0  0  0  0  0  0
    7.3720  -10.0945    0.0000 C   0  0  1  0  0  0  0  0  0  0  0  0
    6.7946  -10.0867    0.0000 O   0  0  0  0  0  0  0  0  0  0  0  0
    7.6539  -10.5986    0.0000 C   0  0  1  0  0  0  0  0  0  0  0  0
    8.2314  -10.6065    0.0000 O   0  0  0  0  0  0  0  0  0  0  0  0
    7.3583  -11.0947    0.0000 C   0  0  0  0  0  0  0  0  0  0  0  0
    6.8082   -9.0865    0.0000 C   0  0  1  0  0  0  0  0  0  0  0  0
    6.5263   -8.5825    0.0000 C   0  0  2  0  0  0  0  0  0  0  0  0
    6.8219   -8.0863    0.0000 O   0  0  0  0  0  0  0  0  0  0  0  0
    5.9489   -8.5746    0.0000 C   0  0  1  0  0  0  0  0  0  0  0  0
    5.6670   -8.0705    0.0000 O   0  0  0  0  0  0  0  0  0  0  0  0
    5.6533   -9.0707    0.0000 C   0  0  2  0  0  0  0  0  0  0  0  0
    5.0759   -9.0628    0.0000 O   0  0  0  0  0  0  0  0  0  0  0  0
    5.9352   -9.5747    0.0000 C   0  0  2  0  0  0  0  0  0  0  0  0
    6.5127   -9.5826    0.0000 O   0  0  0  0  0  0  0  0  0  0  0  0
    5.6397  -10.0709    0.0000 C   0  0  0  0  0  0  0  0  0  0  0  0
    5.0622  -10.0630    0.0000 O   0  0  0  0  0  0  0  0  0  0  0  0
    6.5400   -7.5823    0.0000 C   0  0  1  0  0  0  0  0  0  0  0  0
    6.8356   -7.0862    0.0000 C   0  0  2  0  0  0  0  0  0  0  0  0
    7.4130   -7.0940    0.0000 O   0  0  0  0  0  0  0  0  0  0  0  0
    6.5537   -6.5821    0.0000 C   0  0  1  0  0  0  0  0  0  0  0  0
    6.8492   -6.0860    0.0000 O   0  0  0  0  0  0  0  0  0  0  0  0
    5.9762   -6.5742    0.0000 C   0  0  2  0  0  0  0  0  0  0  0  0
    5.6944   -6.0702    0.0000 O   0  0  0  0  0  0  0  0  0  0  0  0
    5.6807   -7.0704    0.0000 C   0  0  2  0  0  0  0  0  0  0  0  0
    5.9626   -7.5744    0.0000 O   0  0  0  0  0  0  0  0  0  0  0  0
    5.1032   -7.0625    0.0000 C   0  0  0  0  0  0  0  0  0  0  0  0
    4.8213   -6.5585    0.0000 O   0  0  0  0  0  0  0  0  0  0  0  0
    4.2439   -6.5506    0.0000 C   0  0  0  0  0  0  0  0  0  0  0  0
    3.9620   -6.0465    0.0000 C   0  0  0  0  0  0  0  0  0  0  0  0
    3.3846   -6.0386    0.0000 C   0  0  0  0  0  0  0  0  0  0  0  0
    3.1027   -5.5346    0.0000 C   0  0  0  0  0  0  0  0  0  0  0  0
    2.5252   -5.5267    0.0000 C   0  0  0  0  0  0  0  0  0  0  0  0
    2.2433   -5.0227    0.0000 C   0  0  0  0  0  0  0  0  0  0  0  0
    1.6659   -5.0148    0.0000 O   0  0  0  0  0  0  0  0  0  0  0  0
    1.3840   -4.5108    0.0000 C   0  0  0  0  0  0  0  0  0  0  0  0
    2.5389   -4.5266    0.0000 C   0  0  0  0  0  0  0  0  0  0  0  0
    2.2570   -4.0225    0.0000 O   0  0  0  0  0  0  0  0  0  0  0  0
    3.1163   -4.5344    0.0000 C   0  0  0  0  0  0  0  0  0  0  0  0
    3.4119   -4.0383    0.0000 O   0  0  0  0  0  0  0  0  0  0  0  0
    3.1300   -3.5343    0.0000 C   0  0  0  0  0  0  0  0  0  0  0  0
    3.3982   -5.0385    0.0000 C   0  0  0  0  0  0  0  0  0  0  0  0
    3.9483   -7.0467    0.0000 O   0  0  0  0  0  0  0  0  0  0  0  0
  1  2  2  0  0  0  0
  2  3  1  0  0  0  0
  2  4  1  0  0  0  0
  4  5  2  0  0  0  0
  4  6  1  0  0  0  0
  6  7  1  0  0  0  0
  7  8  1  0  0  0  0
  7  9  2  0  0  0  0
  9 10  1  0  0  0  0
 10 11  2  0  0  0  0
 11 12  1  0  0  0  0
  6 12  2  0  0  0  0
 12 13  1  0  0  0  0
  1 13  1  0  0  0  0
  1 14  1  0  0  0  0
 14 15  1  0  0  0  0
 15 16  2  0  0  0  0
 16 17  1  0  0  0  0
 17 18  1  0  0  0  0
 16 19  1  0  0  0  0
 19 20  1  0  0  0  0
 19 21  2  0  0  0  0
 21 22  1  0  0  0  0
 14 22  2  0  0  0  0
 24 23  1  6  0  0  0
 24 25  1  0  0  0  0
 25 26  1  1  0  0  0
 25 27  1  0  0  0  0
 27 28  1  1  0  0  0
 27 29  1  0  0  0  0
 29 30  1  6  0  0  0
 29 31  1  0  0  0  0
 31 32  1  0  0  0  0
 31 33  1  1  0  0  0
 24 32  1  0  0  0  0
 34 35  1  0  0  0  0
 35 36  1  1  0  0  0
 35 37  1  0  0  0  0
 37 38  1  6  0  0  0
 37 39  1  0  0  0  0
 39 40  1  1  0  0  0
 39 41  1  0  0  0  0
 41 42  1  0  0  0  0
 41 43  1  6  0  0  0
 43 44  1  0  0  0  0
 34 42  1  0  0  0  0
 45 46  1  0  0  0  0
 46 47  1  1  0  0  0
 46 48  1  0  0  0  0
 48 49  1  6  0  0  0
 48 50  1  0  0  0  0
 50 51  1  1  0  0  0
 50 52  1  0  0  0  0
 52 53  1  0  0  0  0
 52 54  1  6  0  0  0
 54 55  1  0  0  0  0
 45 53  1  0  0  0  0
 56 57  1  0  0  0  0
 57 58  2  0  0  0  0
 58 59  1  0  0  0  0
 59 60  1  0  0  0  0
 60 61  2  0  0  0  0
 61 62  1  0  0  0  0
 62 63  1  0  0  0  0
 61 64  1  0  0  0  0
 64 65  1  0  0  0  0
 64 66  2  0  0  0  0
 66 67  1  0  0  0  0
 67 68  1  0  0  0  0
 66 69  1  0  0  0  0
 59 69  2  0  0  0  0
 56 70  2  0  0  0  0
 55 56  1  0  0  0  0
 45 36  1  6  0  0  0
 34 28  1  6  0  0  0
 10 23  1  0  0  0  0
M  END
>  <cdx:groupId>
218

>  <cdx:fragmentId>
115

$$$$
