95221.cdx
  Mrv1902 05222410272D          

 44 43  0  0  0  0            999 V2000
   18.7645   -6.6182    0.0000 C   0  0  0  0  0  0  0  0  0  0  0  0
   21.6461   -1.6819    0.0000 C   0  0  0  0  0  0  0  0  0  0  0  0
   20.9297   -2.0910    0.0000 C   0  0  0  0  0  0  0  0  0  0  0  0
   20.9257   -2.9160    0.0000 C   0  0  0  0  0  0  0  0  0  0  0  0
   20.2093   -3.3251    0.0000 C   0  0  0  0  0  0  0  0  0  0  0  0
   20.2053   -4.1501    0.0000 C   0  0  0  0  0  0  0  0  0  0  0  0
   19.4888   -4.5591    0.0000 C   0  0  0  0  0  0  0  0  0  0  0  0
   19.4849   -5.3841    0.0000 C   0  0  0  0  0  0  0  0  0  0  0  0
    3.0463   -6.5426    0.0000 C   0  0  0  0  0  0  0  0  0  0  0  0
   18.7684   -5.7932    0.0000 C   0  0  0  0  0  0  0  0  0  0  0  0
   18.0480   -7.0272    0.0000 C   0  0  0  0  0  0  0  0  0  0  0  0
   17.3355   -6.6113    0.0000 C   0  0  0  0  0  0  0  0  0  0  0  0
   16.6191   -7.0204    0.0000 C   0  0  0  0  0  0  0  0  0  0  0  0
   15.9066   -6.6044    0.0000 C   0  0  0  0  0  0  0  0  0  0  0  0
   15.1902   -7.0135    0.0000 C   0  0  0  0  0  0  0  0  0  0  0  0
   14.4777   -6.5976    0.0000 C   0  0  0  0  0  0  0  0  0  0  0  0
   13.7612   -7.0066    0.0000 C   0  0  0  0  0  0  0  0  0  0  0  0
   13.0488   -6.5907    0.0000 C   0  0  0  0  0  0  0  0  0  0  0  0
    8.7660   -5.7451    0.0000 O   0  0  0  0  0  0  0  0  0  0  0  0
    3.7588   -6.9585    0.0000 C   0  0  0  0  0  0  0  0  0  0  0  0
    4.4752   -6.5495    0.0000 C   0  0  0  0  0  0  0  0  0  0  0  0
    5.1877   -6.9654    0.0000 C   0  0  0  0  0  0  0  0  0  0  0  0
    5.9041   -6.5563    0.0000 C   0  0  0  0  0  0  0  0  0  0  0  0
    6.6166   -6.9723    0.0000 C   0  0  0  0  0  0  0  0  0  0  0  0
    7.3331   -6.5632    0.0000 C   0  0  0  0  0  0  0  0  0  0  0  0
    8.0455   -6.9791    0.0000 C   0  0  0  0  0  0  0  0  0  0  0  0
    8.7620   -6.5701    0.0000 C   0  0  0  0  0  0  0  0  0  0  0  0
    9.4745   -6.9860    0.0000 O   0  0  0  0  0  0  0  0  0  0  0  0
   10.1909   -6.5769    0.0000 C   0  0  0  0  0  0  0  0  0  0  0  0
   10.9034   -6.9929    0.0000 C   0  0  0  0  0  0  0  0  0  0  0  0
   11.6198   -6.5838    0.0000 O   0  0  0  0  0  0  0  0  0  0  0  0
   12.3323   -6.9997    0.0000 C   0  0  0  0  0  0  0  0  0  0  0  0
    2.3298   -6.9517    0.0000 C   0  0  0  0  0  0  0  0  0  0  0  0
    2.3259   -7.7767    0.0000 C   0  0  0  0  0  0  0  0  0  0  0  0
    1.6094   -8.1857    0.0000 C   0  0  0  0  0  0  0  0  0  0  0  0
    1.6055   -9.0107    0.0000 C   0  0  0  0  0  0  0  0  0  0  0  0
    2.3179   -9.4266    0.0000 C   0  0  0  0  0  0  0  0  0  0  0  0
    2.3140  -10.2516    0.0000 C   0  0  0  0  0  0  0  0  0  0  0  0
    3.0265  -10.6676    0.0000 C   0  0  0  0  0  0  0  0  0  0  0  0
    3.7429  -10.2585    0.0000 C   0  0  0  0  0  0  0  0  0  0  0  0
    4.4554  -10.6744    0.0000 C   0  0  0  0  0  0  0  0  0  0  0  0
   10.1949   -5.7520    0.0000 C   0  0  0  0  0  0  0  0  0  0  0  0
   10.9113   -5.3429    0.0000 O   0  0  0  0  0  0  0  0  0  0  0  0
   12.3284   -7.8247    0.0000 O   0  0  0  0  0  0  0  0  0  0  0  0
  3  2  1  0  0  0  0
  1 10  1  0  0  0  0
  4  3  1  0  0  0  0
  5  4  1  0  0  0  0
  6  5  1  0  0  0  0
  7  6  1  0  0  0  0
  8  7  1  0  0  0  0
 10  8  1  0  0  0  0
 32 18  1  0  0  0  0
 11  1  2  0  0  0  0
 12 11  1  0  0  0  0
 13 12  1  0  0  0  0
 14 13  1  0  0  0  0
 15 14  1  0  0  0  0
 16 15  1  0  0  0  0
 17 16  1  0  0  0  0
 18 17  1  0  0  0  0
 28 27  1  0  0  0  0
 27 19  2  0  0  0  0
 20  9  1  0  0  0  0
 21 20  1  0  0  0  0
 22 21  1  0  0  0  0
 23 22  1  0  0  0  0
 24 23  1  0  0  0  0
 25 24  1  0  0  0  0
 26 25  1  0  0  0  0
 27 26  1  0  0  0  0
 29 28  1  0  0  0  0
 30 29  1  0  0  0  0
 31 30  1  0  0  0  0
 32 31  1  0  0  0  0
  9 33  2  0  0  0  0
 33 34  1  0  0  0  0
 34 35  1  0  0  0  0
 35 36  2  0  0  0  0
 36 37  1  0  0  0  0
 37 38  1  0  0  0  0
 38 39  2  0  0  0  0
 39 40  1  0  0  0  0
 40 41  1  0  0  0  0
 29 42  1  0  0  0  0
 42 43  1  0  0  0  0
 32 44  2  0  0  0  0
M  END
>  <cdx:groupId>
133

>  <cdx:fragmentId>
17

$$$$
