95229.cdx
  Mrv1902 05222410192D          

 68 74  0  0  0  0            999 V2000
   12.0888   -8.2821    0.0000 C   0  0  0  0  0  0  0  0  0  0  0  0
   12.0888   -8.8596    0.0000 C   0  0  0  0  0  0  0  0  0  0  0  0
   12.5889   -9.1483    0.0000 O   0  0  0  0  0  0  0  0  0  0  0  0
   11.5887   -9.1483    0.0000 C   0  0  0  0  0  0  0  0  0  0  0  0
   11.5887   -9.7258    0.0000 O   0  0  0  0  0  0  0  0  0  0  0  0
   11.0885   -8.8596    0.0000 C   0  0  0  0  0  0  0  0  0  0  0  0
   10.5884   -9.1483    0.0000 C   0  0  0  0  0  0  0  0  0  0  0  0
   10.5884   -9.7258    0.0000 O   0  0  0  0  0  0  0  0  0  0  0  0
   10.0883   -8.8596    0.0000 C   0  0  0  0  0  0  0  0  0  0  0  0
   10.0883   -8.2821    0.0000 C   0  0  0  0  0  0  0  0  0  0  0  0
   10.5884   -7.9933    0.0000 C   0  0  0  0  0  0  0  0  0  0  0  0
   11.0885   -8.2821    0.0000 C   0  0  0  0  0  0  0  0  0  0  0  0
   11.5887   -7.9933    0.0000 O   0  0  0  0  0  0  0  0  0  0  0  0
   12.5889   -7.9933    0.0000 C   0  0  0  0  0  0  0  0  0  0  0  0
   12.5889   -7.4158    0.0000 C   0  0  0  0  0  0  0  0  0  0  0  0
   13.0890   -7.1271    0.0000 C   0  0  0  0  0  0  0  0  0  0  0  0
   13.5892   -7.4158    0.0000 C   0  0  0  0  0  0  0  0  0  0  0  0
   14.0893   -7.1271    0.0000 O   0  0  0  0  0  0  0  0  0  0  0  0
   13.5892   -7.9933    0.0000 C   0  0  0  0  0  0  0  0  0  0  0  0
   13.0890   -8.2821    0.0000 C   0  0  0  0  0  0  0  0  0  0  0  0
    9.5881   -7.9933    0.0000 O   0  0  0  0  0  0  0  0  0  0  0  0
    9.0880   -8.2821    0.0000 C   0  0  1  0  0  0  0  0  0  0  0  0
    8.5879   -7.9933    0.0000 C   0  0  2  0  0  0  0  0  0  0  0  0
    8.5879   -7.4158    0.0000 O   0  0  0  0  0  0  0  0  0  0  0  0
    8.0877   -8.2821    0.0000 C   0  0  2  0  0  0  0  0  0  0  0  0
    7.5876   -7.9933    0.0000 O   0  0  0  0  0  0  0  0  0  0  0  0
    8.0877   -8.8596    0.0000 C   0  0  1  0  0  0  0  0  0  0  0  0
    7.5876   -9.1483    0.0000 O   0  0  0  0  0  0  0  0  0  0  0  0
    8.5879   -9.1483    0.0000 C   0  0  1  0  0  0  0  0  0  0  0  0
    9.0880   -8.8596    0.0000 O   0  0  0  0  0  0  0  0  0  0  0  0
    8.5879   -9.7258    0.0000 C   0  0  0  0  0  0  0  0  0  0  0  0
    7.0875   -8.2821    0.0000 C   0  0  1  0  0  0  0  0  0  0  0  0
    6.5874   -7.9933    0.0000 C   0  0  2  0  0  0  0  0  0  0  0  0
    6.5874   -7.4158    0.0000 O   0  0  0  0  0  0  0  0  0  0  0  0
    6.0872   -8.2821    0.0000 C   0  0  1  0  0  0  0  0  0  0  0  0
    5.5871   -7.9933    0.0000 O   0  0  0  0  0  0  0  0  0  0  0  0
    6.0872   -8.8596    0.0000 C   0  0  2  0  0  0  0  0  0  0  0  0
    5.5871   -9.1483    0.0000 O   0  0  0  0  0  0  0  0  0  0  0  0
    6.5874   -9.1483    0.0000 C   0  0  2  0  0  0  0  0  0  0  0  0
    7.0875   -8.8596    0.0000 O   0  0  0  0  0  0  0  0  0  0  0  0
    6.5874   -9.7258    0.0000 C   0  0  0  0  0  0  0  0  0  0  0  0
    6.0872  -10.0146    0.0000 O   0  0  0  0  0  0  0  0  0  0  0  0
    6.0872   -7.1271    0.0000 C   0  0  1  0  0  0  0  0  0  0  0  0
    6.0872   -6.5496    0.0000 C   0  0  2  0  0  0  0  0  0  0  0  0
    6.5874   -6.2608    0.0000 O   0  0  0  0  0  0  0  0  0  0  0  0
    5.5871   -6.2608    0.0000 C   0  0  1  0  0  0  0  0  0  0  0  0
    5.5871   -5.6833    0.0000 O   0  0  0  0  0  0  0  0  0  0  0  0
    5.0870   -6.5496    0.0000 C   0  0  2  0  0  0  0  0  0  0  0  0
    4.5868   -6.2608    0.0000 O   0  0  0  0  0  0  0  0  0  0  0  0
    5.0870   -7.1271    0.0000 C   0  0  2  0  0  0  0  0  0  0  0  0
    5.5871   -7.4158    0.0000 O   0  0  0  0  0  0  0  0  0  0  0  0
    4.5868   -7.4158    0.0000 C   0  0  0  0  0  0  0  0  0  0  0  0
    4.0867   -7.1271    0.0000 O   0  0  0  0  0  0  0  0  0  0  0  0
    3.5866   -7.4158    0.0000 C   0  0  0  0  0  0  0  0  0  0  0  0
    3.0865   -7.1271    0.0000 C   0  0  0  0  0  0  0  0  0  0  0  0
    2.5863   -7.4158    0.0000 C   0  0  0  0  0  0  0  0  0  0  0  0
    2.0862   -7.1271    0.0000 C   0  0  0  0  0  0  0  0  0  0  0  0
    1.5861   -7.4158    0.0000 C   0  0  0  0  0  0  0  0  0  0  0  0
    1.0859   -7.1271    0.0000 C   0  0  0  0  0  0  0  0  0  0  0  0
    0.5858   -7.4158    0.0000 O   0  0  0  0  0  0  0  0  0  0  0  0
    0.0857   -7.1271    0.0000 C   0  0  0  0  0  0  0  0  0  0  0  0
    1.0859   -6.5496    0.0000 C   0  0  0  0  0  0  0  0  0  0  0  0
    0.5858   -6.2608    0.0000 O   0  0  0  0  0  0  0  0  0  0  0  0
    1.5861   -6.2608    0.0000 C   0  0  0  0  0  0  0  0  0  0  0  0
    1.5861   -5.6833    0.0000 O   0  0  0  0  0  0  0  0  0  0  0  0
    1.0859   -5.3946    0.0000 C   0  0  0  0  0  0  0  0  0  0  0  0
    2.0862   -6.5496    0.0000 C   0  0  0  0  0  0  0  0  0  0  0  0
    3.5866   -7.9933    0.0000 O   0  0  0  0  0  0  0  0  0  0  0  0
  1  2  2  0  0  0  0
  2  3  1  0  0  0  0
  2  4  1  0  0  0  0
  4  5  2  0  0  0  0
  4  6  1  0  0  0  0
  6  7  1  0  0  0  0
  7  8  1  0  0  0  0
  7  9  2  0  0  0  0
  9 10  1  0  0  0  0
 10 11  2  0  0  0  0
 11 12  1  0  0  0  0
  6 12  2  0  0  0  0
 12 13  1  0  0  0  0
  1 13  1  0  0  0  0
  1 14  1  0  0  0  0
 14 15  1  0  0  0  0
 15 16  2  0  0  0  0
 16 17  1  0  0  0  0
 17 18  1  0  0  0  0
 17 19  2  0  0  0  0
 19 20  1  0  0  0  0
 14 20  2  0  0  0  0
 22 21  1  6  0  0  0
 22 23  1  0  0  0  0
 23 24  1  1  0  0  0
 23 25  1  0  0  0  0
 25 26  1  1  0  0  0
 25 27  1  0  0  0  0
 27 28  1  6  0  0  0
 27 29  1  0  0  0  0
 29 30  1  0  0  0  0
 29 31  1  1  0  0  0
 22 30  1  0  0  0  0
 32 33  1  0  0  0  0
 33 34  1  1  0  0  0
 33 35  1  0  0  0  0
 35 36  1  6  0  0  0
 35 37  1  0  0  0  0
 37 38  1  1  0  0  0
 37 39  1  0  0  0  0
 39 40  1  0  0  0  0
 39 41  1  6  0  0  0
 41 42  1  0  0  0  0
 32 40  1  0  0  0  0
 43 44  1  0  0  0  0
 44 45  1  1  0  0  0
 44 46  1  0  0  0  0
 46 47  1  6  0  0  0
 46 48  1  0  0  0  0
 48 49  1  1  0  0  0
 48 50  1  0  0  0  0
 50 51  1  0  0  0  0
 50 52  1  6  0  0  0
 52 53  1  0  0  0  0
 43 51  1  0  0  0  0
 54 55  1  0  0  0  0
 55 56  2  0  0  0  0
 56 57  1  0  0  0  0
 57 58  1  0  0  0  0
 58 59  2  0  0  0  0
 59 60  1  0  0  0  0
 60 61  1  0  0  0  0
 59 62  1  0  0  0  0
 62 63  1  0  0  0  0
 62 64  2  0  0  0  0
 64 65  1  0  0  0  0
 65 66  1  0  0  0  0
 64 67  1  0  0  0  0
 57 67  2  0  0  0  0
 54 68  2  0  0  0  0
 53 54  1  0  0  0  0
 43 34  1  6  0  0  0
 32 26  1  6  0  0  0
 10 21  1  0  0  0  0
M  END
>  <cdx:groupId>
212

>  <cdx:fragmentId>
111

$$$$
