95225.cdx
  Mrv1902 05222410272D          

 34 37  0  0  0  0            999 V2000
    7.1827   -8.4854    0.0000 C   0  0  0  0  0  0  0  0  0  0  0  0
    7.1827   -9.3104    0.0000 C   0  0  0  0  0  0  0  0  0  0  0  0
    7.8972   -9.7229    0.0000 O   0  0  0  0  0  0  0  0  0  0  0  0
    6.4682   -9.7229    0.0000 C   0  0  0  0  0  0  0  0  0  0  0  0
    6.4682  -10.5479    0.0000 O   0  0  0  0  0  0  0  0  0  0  0  0
    5.7538   -9.3104    0.0000 C   0  0  0  0  0  0  0  0  0  0  0  0
    5.0393   -9.7229    0.0000 C   0  0  0  0  0  0  0  0  0  0  0  0
    5.0393  -10.5479    0.0000 O   0  0  0  0  0  0  0  0  0  0  0  0
    4.3248   -9.3104    0.0000 C   0  0  0  0  0  0  0  0  0  0  0  0
    4.3248   -8.4854    0.0000 C   0  0  0  0  0  0  0  0  0  0  0  0
    3.6103   -8.0729    0.0000 O   0  0  0  0  0  0  0  0  0  0  0  0
    5.0393   -8.0729    0.0000 C   0  0  0  0  0  0  0  0  0  0  0  0
    5.7538   -8.4854    0.0000 C   0  0  0  0  0  0  0  0  0  0  0  0
    6.4682   -8.0729    0.0000 O   0  0  0  0  0  0  0  0  0  0  0  0
    7.8972   -8.0729    0.0000 C   0  0  0  0  0  0  0  0  0  0  0  0
    7.8972   -7.2479    0.0000 C   0  0  0  0  0  0  0  0  0  0  0  0
    8.6116   -6.8354    0.0000 C   0  0  0  0  0  0  0  0  0  0  0  0
    8.6116   -6.0104    0.0000 O   0  0  0  0  0  0  0  0  0  0  0  0
    9.3261   -7.2479    0.0000 C   0  0  0  0  0  0  0  0  0  0  0  0
   10.0406   -6.8354    0.0000 O   0  0  0  0  0  0  0  0  0  0  0  0
    9.3261   -8.0729    0.0000 C   0  0  0  0  0  0  0  0  0  0  0  0
    8.6116   -8.4854    0.0000 C   0  0  0  0  0  0  0  0  0  0  0  0
    8.6116  -11.7854    0.0000 O   0  0  0  0  0  0  0  0  0  0  0  0
    8.6116  -10.9604    0.0000 C   0  0  0  0  0  0  0  0  0  0  0  0
    9.3261   -9.7229    0.0000 O   0  0  0  0  0  0  0  0  0  0  0  0
    9.3261  -10.5479    0.0000 C   0  0  1  0  0  0  0  0  0  0  0  0
   10.0406  -11.7854    0.0000 O   0  0  0  0  0  0  0  0  0  0  0  0
   10.0406  -10.9604    0.0000 C   0  0  1  0  0  0  0  0  0  0  0  0
   11.4695  -10.9604    0.0000 O   0  0  0  0  0  0  0  0  0  0  0  0
   10.7550  -10.5479    0.0000 C   0  0  2  0  0  0  0  0  0  0  0  0
   11.4695   -9.3104    0.0000 O   0  0  0  0  0  0  0  0  0  0  0  0
   10.7550   -9.7229    0.0000 C   0  0  1  0  0  0  0  0  0  0  0  0
   10.0406   -9.3104    0.0000 C   0  0  2  0  0  0  0  0  0  0  0  0
   10.0406   -8.4854    0.0000 O   0  0  0  0  0  0  0  0  0  0  0  0
 33 25  1  0  0  0  0
 24 23  1  0  0  0  0
 26 24  1  1  0  0  0
 26 25  1  0  0  0  0
 28 26  1  0  0  0  0
 28 27  1  6  0  0  0
 30 28  1  0  0  0  0
 30 29  1  1  0  0  0
 32 30  1  0  0  0  0
 32 31  1  6  0  0  0
 33 32  1  0  0  0  0
 33 34  1  1  0  0  0
  1  2  2  0  0  0  0
  2  3  1  0  0  0  0
  2  4  1  0  0  0  0
  4  5  2  0  0  0  0
  4  6  1  0  0  0  0
  6  7  1  0  0  0  0
  7  8  1  0  0  0  0
  7  9  2  0  0  0  0
  9 10  1  0  0  0  0
 10 11  1  0  0  0  0
 10 12  2  0  0  0  0
 12 13  1  0  0  0  0
  6 13  2  0  0  0  0
 13 14  1  0  0  0  0
  1 14  1  0  0  0  0
  1 15  1  0  0  0  0
 15 16  1  0  0  0  0
 16 17  2  0  0  0  0
 17 18  1  0  0  0  0
 17 19  1  0  0  0  0
 19 20  1  0  0  0  0
 19 21  2  0  0  0  0
 21 22  1  0  0  0  0
 15 22  2  0  0  0  0
 21 34  1  0  0  0  0
M  END
>  <cdx:fragmentId>
5

$$$$
