95222.cdx
  Mrv1902 05222410282D          

 44 43  0  0  0  0            999 V2000
   22.3110  -11.9978    0.0000 C   0  0  0  0  0  0  0  0  0  0  0  0
   21.5985  -11.5818    0.0000 C   0  0  0  0  0  0  0  0  0  0  0  0
   21.6025  -10.7568    0.0000 C   0  0  0  0  0  0  0  0  0  0  0  0
   20.8900  -10.3409    0.0000 C   0  0  0  0  0  0  0  0  0  0  0  0
   20.8940   -9.5159    0.0000 C   0  0  0  0  0  0  0  0  0  0  0  0
   20.1815   -9.1000    0.0000 C   0  0  0  0  0  0  0  0  0  0  0  0
   20.1855   -8.2750    0.0000 C   0  0  0  0  0  0  0  0  0  0  0  0
   19.4730   -7.8591    0.0000 C   0  0  0  0  0  0  0  0  0  0  0  0
   19.4770   -7.0341    0.0000 C   0  0  0  0  0  0  0  0  0  0  0  0
    3.0463   -6.5426    0.0000 C   0  0  0  0  0  0  0  0  0  0  0  0
   13.0527   -5.7657    0.0000 O   0  0  0  0  0  0  0  0  0  0  0  0
   18.7645   -6.6182    0.0000 C   0  0  0  0  0  0  0  0  0  0  0  0
   18.0480   -7.0272    0.0000 C   0  0  0  0  0  0  0  0  0  0  0  0
   17.3355   -6.6113    0.0000 C   0  0  0  0  0  0  0  0  0  0  0  0
   16.6191   -7.0204    0.0000 C   0  0  0  0  0  0  0  0  0  0  0  0
   15.9066   -6.6044    0.0000 C   0  0  0  0  0  0  0  0  0  0  0  0
   15.1902   -7.0135    0.0000 C   0  0  0  0  0  0  0  0  0  0  0  0
   14.4777   -6.5976    0.0000 C   0  0  0  0  0  0  0  0  0  0  0  0
   13.7612   -7.0066    0.0000 C   0  0  0  0  0  0  0  0  0  0  0  0
   13.0488   -6.5907    0.0000 C   0  0  0  0  0  0  0  0  0  0  0  0
    8.7660   -5.7451    0.0000 O   0  0  0  0  0  0  0  0  0  0  0  0
    3.7588   -6.9585    0.0000 C   0  0  0  0  0  0  0  0  0  0  0  0
    4.4752   -6.5495    0.0000 C   0  0  0  0  0  0  0  0  0  0  0  0
    5.1877   -6.9654    0.0000 C   0  0  0  0  0  0  0  0  0  0  0  0
    5.9041   -6.5563    0.0000 C   0  0  0  0  0  0  0  0  0  0  0  0
    6.6166   -6.9723    0.0000 C   0  0  0  0  0  0  0  0  0  0  0  0
    7.3331   -6.5632    0.0000 C   0  0  0  0  0  0  0  0  0  0  0  0
    8.0455   -6.9791    0.0000 C   0  0  0  0  0  0  0  0  0  0  0  0
    8.7620   -6.5701    0.0000 C   0  0  0  0  0  0  0  0  0  0  0  0
    9.4745   -6.9860    0.0000 O   0  0  0  0  0  0  0  0  0  0  0  0
   10.1909   -6.5769    0.0000 C   0  0  0  0  0  0  0  0  0  0  0  0
   10.8994   -7.8179    0.0000 O   0  0  0  0  0  0  0  0  0  0  0  0
   10.9034   -6.9929    0.0000 C   0  0  0  0  0  0  0  0  0  0  0  0
   11.6198   -6.5838    0.0000 C   0  0  0  0  0  0  0  0  0  0  0  0
   12.3323   -6.9997    0.0000 O   0  0  0  0  0  0  0  0  0  0  0  0
    2.3298   -6.9517    0.0000 C   0  0  0  0  0  0  0  0  0  0  0  0
    2.3259   -7.7767    0.0000 C   0  0  0  0  0  0  0  0  0  0  0  0
    1.6094   -8.1857    0.0000 C   0  0  0  0  0  0  0  0  0  0  0  0
    1.6055   -9.0107    0.0000 C   0  0  0  0  0  0  0  0  0  0  0  0
    2.3179   -9.4266    0.0000 C   0  0  0  0  0  0  0  0  0  0  0  0
    2.3140  -10.2516    0.0000 C   0  0  0  0  0  0  0  0  0  0  0  0
    3.0265  -10.6676    0.0000 C   0  0  0  0  0  0  0  0  0  0  0  0
    3.7429  -10.2585    0.0000 C   0  0  0  0  0  0  0  0  0  0  0  0
    4.4554  -10.6744    0.0000 C   0  0  0  0  0  0  0  0  0  0  0  0
  2  1  1  0  0  0  0
  3  2  1  0  0  0  0
  4  3  1  0  0  0  0
  5  4  1  0  0  0  0
  6  5  1  0  0  0  0
  7  6  1  0  0  0  0
  8  7  1  0  0  0  0
  9  8  1  0  0  0  0
 12  9  2  0  0  0  0
 35 20  1  0  0  0  0
 20 11  2  0  0  0  0
 13 12  1  0  0  0  0
 14 13  1  0  0  0  0
 15 14  1  0  0  0  0
 16 15  1  0  0  0  0
 17 16  1  0  0  0  0
 18 17  1  0  0  0  0
 19 18  1  0  0  0  0
 20 19  1  0  0  0  0
 30 29  1  0  0  0  0
 29 21  2  0  0  0  0
 22 10  1  0  0  0  0
 23 22  1  0  0  0  0
 24 23  1  0  0  0  0
 25 24  1  0  0  0  0
 26 25  1  0  0  0  0
 27 26  1  0  0  0  0
 28 27  1  0  0  0  0
 29 28  1  0  0  0  0
 31 30  1  0  0  0  0
 33 31  1  0  0  0  0
 33 32  1  0  0  0  0
 34 33  1  0  0  0  0
 35 34  1  0  0  0  0
 10 36  2  0  0  0  0
 36 37  1  0  0  0  0
 37 38  1  0  0  0  0
 38 39  2  0  0  0  0
 39 40  1  0  0  0  0
 40 41  1  0  0  0  0
 41 42  2  0  0  0  0
 42 43  1  0  0  0  0
 43 44  1  0  0  0  0
M  END
>  <cdx:groupId>
133

>  <cdx:fragmentId>
17

$$$$
