95235.cdx
  Mrv1902 05222410272D          

 35 38  0  0  0  0            999 V2000
    5.4095   -9.0354    0.0000 O   0  0  0  0  0  0  0  0  0  0  0  0
    3.9805   -6.5604    0.0000 O   0  0  0  0  0  0  0  0  0  0  0  0
   10.4108   -5.3229    0.0000 O   0  0  0  0  0  0  0  0  0  0  0  0
    8.2674   -5.7354    0.0000 C   0  0  0  0  0  0  0  0  0  0  0  0
    8.9818   -5.3229    0.0000 C   0  0  0  0  0  0  0  0  0  0  0  0
    9.6963   -5.7354    0.0000 C   0  0  0  0  0  0  0  0  0  0  0  0
    9.6963   -6.5604    0.0000 C   0  0  0  0  0  0  0  0  0  0  0  0
    8.9818   -6.9729    0.0000 C   0  0  0  0  0  0  0  0  0  0  0  0
    8.2674   -6.5604    0.0000 C   0  0  0  0  0  0  0  0  0  0  0  0
    9.6963   -9.0354    0.0000 O   0  0  0  0  0  0  0  0  0  0  0  0
    9.6963  -10.6854    0.0000 O   0  0  0  0  0  0  0  0  0  0  0  0
    8.2674  -11.5104    0.0000 O   0  0  0  0  0  0  0  0  0  0  0  0
    6.1239  -10.2729    0.0000 O   0  0  0  0  0  0  0  0  0  0  0  0
    6.8384  -10.6854    0.0000 C   0  0  0  0  0  0  0  0  0  0  0  0
    7.5529  -10.2729    0.0000 C   0  0  2  0  0  0  0  0  0  0  0  0
    8.2674  -10.6854    0.0000 C   0  0  1  0  0  0  0  0  0  0  0  0
    8.9818  -10.2729    0.0000 C   0  0  1  0  0  0  0  0  0  0  0  0
    8.9818   -9.4479    0.0000 C   0  0  2  0  0  0  0  0  0  0  0  0
    8.2674   -9.0354    0.0000 C   0  0  1  0  0  0  0  0  0  0  0  0
    7.5529   -9.4479    0.0000 O   0  0  0  0  0  0  0  0  0  0  0  0
    8.2674   -8.2104    0.0000 O   0  0  0  0  0  0  0  0  0  0  0  0
    6.8384   -9.0354    0.0000 O   0  0  0  0  0  0  0  0  0  0  0  0
    6.8384   -6.5604    0.0000 O   0  0  0  0  0  0  0  0  0  0  0  0
    6.1239   -6.9729    0.0000 C   0  0  0  0  0  0  0  0  0  0  0  0
    5.4095   -6.5604    0.0000 C   0  0  0  0  0  0  0  0  0  0  0  0
    4.6950   -6.9729    0.0000 C   0  0  0  0  0  0  0  0  0  0  0  0
    4.6950   -7.7979    0.0000 C   0  0  0  0  0  0  0  0  0  0  0  0
    5.4095   -8.2104    0.0000 C   0  0  0  0  0  0  0  0  0  0  0  0
    6.1239   -7.7979    0.0000 C   0  0  0  0  0  0  0  0  0  0  0  0
    6.8384   -8.2104    0.0000 C   0  0  0  0  0  0  0  0  0  0  0  0
    7.5529   -7.7979    0.0000 C   0  0  0  0  0  0  0  0  0  0  0  0
    7.5529   -6.9729    0.0000 C   0  0  0  0  0  0  0  0  0  0  0  0
    5.4095  -10.6854    0.0000 C   0  0  0  0  0  0  0  0  0  0  0  0
    4.6950  -10.2729    0.0000 C   0  0  0  0  0  0  0  0  0  0  0  0
    5.4095  -11.5104    0.0000 O   0  0  0  0  0  0  0  0  0  0  0  0
 28  1  1  0  0  0  0
 26  2  1  0  0  0  0
 32  9  1  0  0  0  0
  6  3  1  0  0  0  0
  9  4  2  0  0  0  0
  5  4  1  0  0  0  0
  6  5  2  0  0  0  0
  7  6  1  0  0  0  0
  8  7  2  0  0  0  0
  9  8  1  0  0  0  0
 31 21  1  0  0  0  0
 19 21  1  1  0  0  0
 18 10  1  6  0  0  0
 17 11  1  1  0  0  0
 16 12  1  1  0  0  0
 15 14  1  1  0  0  0
 14 13  1  0  0  0  0
 20 15  1  0  0  0  0
 16 15  1  0  0  0  0
 17 16  1  0  0  0  0
 18 17  1  0  0  0  0
 19 18  1  0  0  0  0
 20 19  1  0  0  0  0
 30 22  2  0  0  0  0
 32 23  1  0  0  0  0
 24 23  1  0  0  0  0
 29 24  2  0  0  0  0
 25 24  1  0  0  0  0
 26 25  2  0  0  0  0
 27 26  1  0  0  0  0
 28 27  2  0  0  0  0
 29 28  1  0  0  0  0
 30 29  1  0  0  0  0
 31 30  1  0  0  0  0
 32 31  2  0  0  0  0
 13 33  1  0  0  0  0
 33 34  1  0  0  0  0
 33 35  2  0  0  0  0
M  END
>  <cdx:groupId>
101

>  <cdx:fragmentId>
29

$$$$
