952360.cdx
  Mrv1902 05222410282D          

 19 20  0  0  0  0            999 V2000
    7.4695   -4.8840    0.0000 C   0  0  0  0  0  0  0  0  0  0  0  0
    7.4695   -5.7090    0.0000 C   0  0  0  0  0  0  0  0  0  0  0  0
    8.1840   -6.1215    0.0000 C   0  0  0  0  0  0  0  0  0  0  0  0
    8.8985   -5.7090    0.0000 C   0  0  0  0  0  0  0  0  0  0  0  0
    8.8985   -4.8840    0.0000 C   0  0  0  0  0  0  0  0  0  0  0  0
    8.1840   -4.4715    0.0000 C   0  0  0  0  0  0  0  0  0  0  0  0
    8.1840   -6.9465    0.0000 C   0  0  0  0  0  0  0  0  0  0  0  0
    7.6006   -7.5299    0.0000 S   0  0  0  0  0  0  0  0  0  0  0  0
    7.0173   -8.1132    0.0000 C   0  0  0  0  0  0  0  0  0  0  0  0
    7.0173   -8.9382    0.0000 C   0  0  0  0  0  0  0  0  0  0  0  0
    6.3028   -9.3507    0.0000 C   0  0  0  0  0  0  0  0  0  0  0  0
    6.3028  -10.1757    0.0000 C   0  0  0  0  0  0  0  0  0  0  0  0
    7.0173  -10.5882    0.0000 C   0  0  0  0  0  0  0  0  0  0  0  0
    7.7317  -10.1757    0.0000 C   0  0  0  0  0  0  0  0  0  0  0  0
    7.7317   -9.3507    0.0000 C   0  0  0  0  0  0  0  0  0  0  0  0
    8.1840   -3.6465    0.0000 O   0  0  0  0  0  0  0  0  0  0  0  0
    7.0173  -11.4132    0.0000 O   0  0  0  0  0  0  0  0  0  0  0  0
    7.0173   -6.9465    0.0000 O   0  0  0  0  0  0  0  0  0  0  0  0
    8.1840   -8.1132    0.0000 O   0  0  0  0  0  0  0  0  0  0  0  0
  1  2  2  0  0  0  0
  2  3  1  0  0  0  0
  3  4  2  0  0  0  0
  4  5  1  0  0  0  0
  5  6  2  0  0  0  0
  6  1  1  0  0  0  0
  3  7  1  0  0  0  0
  7  8  1  0  0  0  0
  8  9  1  0  0  0  0
  9 10  1  0  0  0  0
 10 11  2  0  0  0  0
 11 12  1  0  0  0  0
 12 13  2  0  0  0  0
 13 14  1  0  0  0  0
 14 15  2  0  0  0  0
 15 10  1  0  0  0  0
  6 16  1  0  0  0  0
 13 17  1  0  0  0  0
  8 18  2  0  0  0  0
  8 19  2  0  0  0  0
M  END
>  <cdx:fragmentId>
47908

$$$$
