95237.cdx
  Mrv1902 05222410282D          

 39 42  0  0  0  0            999 V2000
   10.4108   -7.8485    0.0000 O   0  0  0  0  0  0  0  0  0  0  0  0
   10.4108   -6.1985    0.0000 O   0  0  0  0  0  0  0  0  0  0  0  0
    8.2674   -6.6110    0.0000 C   0  0  0  0  0  0  0  0  0  0  0  0
    8.9818   -6.1985    0.0000 C   0  0  0  0  0  0  0  0  0  0  0  0
    9.6963   -6.6110    0.0000 C   0  0  0  0  0  0  0  0  0  0  0  0
    9.6963   -7.4360    0.0000 C   0  0  0  0  0  0  0  0  0  0  0  0
    8.9818   -7.8485    0.0000 C   0  0  0  0  0  0  0  0  0  0  0  0
    8.2674   -7.4360    0.0000 C   0  0  0  0  0  0  0  0  0  0  0  0
    5.4095   -9.9110    0.0000 O   0  0  0  0  0  0  0  0  0  0  0  0
    3.9805   -7.4360    0.0000 O   0  0  0  0  0  0  0  0  0  0  0  0
    9.6963   -9.9110    0.0000 O   0  0  0  0  0  0  0  0  0  0  0  0
    9.6963  -11.5610    0.0000 O   0  0  0  0  0  0  0  0  0  0  0  0
    8.2674  -12.3860    0.0000 O   0  0  0  0  0  0  0  0  0  0  0  0
    6.1239  -11.1485    0.0000 O   0  0  0  0  0  0  0  0  0  0  0  0
    6.8384  -11.5610    0.0000 C   0  0  0  0  0  0  0  0  0  0  0  0
    7.5529  -11.1485    0.0000 C   0  0  2  0  0  0  0  0  0  0  0  0
    8.2674  -11.5610    0.0000 C   0  0  1  0  0  0  0  0  0  0  0  0
    8.9818  -11.1485    0.0000 C   0  0  1  0  0  0  0  0  0  0  0  0
    8.9818  -10.3235    0.0000 C   0  0  2  0  0  0  0  0  0  0  0  0
    8.2674   -9.9110    0.0000 C   0  0  1  0  0  0  0  0  0  0  0  0
    7.5529  -10.3235    0.0000 O   0  0  0  0  0  0  0  0  0  0  0  0
    8.2674   -9.0860    0.0000 O   0  0  0  0  0  0  0  0  0  0  0  0
    6.8384   -9.9110    0.0000 O   0  0  0  0  0  0  0  0  0  0  0  0
    6.8384   -7.4360    0.0000 O   0  0  0  0  0  0  0  0  0  0  0  0
    6.1239   -7.8485    0.0000 C   0  0  0  0  0  0  0  0  0  0  0  0
    5.4095   -7.4360    0.0000 C   0  0  0  0  0  0  0  0  0  0  0  0
    4.6950   -7.8485    0.0000 C   0  0  0  0  0  0  0  0  0  0  0  0
    4.6950   -8.6735    0.0000 C   0  0  0  0  0  0  0  0  0  0  0  0
    5.4095   -9.0860    0.0000 C   0  0  0  0  0  0  0  0  0  0  0  0
    6.1239   -8.6735    0.0000 C   0  0  0  0  0  0  0  0  0  0  0  0
    6.8384   -9.0860    0.0000 C   0  0  0  0  0  0  0  0  0  0  0  0
    7.5529   -8.6735    0.0000 C   0  0  0  0  0  0  0  0  0  0  0  0
    7.5529   -7.8485    0.0000 C   0  0  0  0  0  0  0  0  0  0  0  0
    5.4095  -11.5610    0.0000 C   0  0  0  0  0  0  0  0  0  0  0  0
    4.6950  -11.1485    0.0000 C   0  0  0  0  0  0  0  0  0  0  0  0
    3.9805  -11.5610    0.0000 C   0  0  0  0  0  0  0  0  0  0  0  0
    3.2661  -11.1485    0.0000 O   0  0  0  0  0  0  0  0  0  0  0  0
    3.9805  -12.3860    0.0000 O   0  0  0  0  0  0  0  0  0  0  0  0
    5.4095  -12.3860    0.0000 O   0  0  0  0  0  0  0  0  0  0  0  0
 33  8  1  0  0  0  0
  6  1  1  0  0  0  0
  5  2  1  0  0  0  0
  8  3  2  0  0  0  0
  4  3  1  0  0  0  0
  5  4  2  0  0  0  0
  6  5  1  0  0  0  0
  7  6  2  0  0  0  0
  8  7  1  0  0  0  0
 29  9  1  0  0  0  0
 27 10  1  0  0  0  0
 32 22  1  0  0  0  0
 20 22  1  1  0  0  0
 19 11  1  6  0  0  0
 18 12  1  1  0  0  0
 17 13  1  1  0  0  0
 16 15  1  1  0  0  0
 15 14  1  0  0  0  0
 21 16  1  0  0  0  0
 17 16  1  0  0  0  0
 18 17  1  0  0  0  0
 19 18  1  0  0  0  0
 20 19  1  0  0  0  0
 21 20  1  0  0  0  0
 31 23  2  0  0  0  0
 33 24  1  0  0  0  0
 25 24  1  0  0  0  0
 30 25  2  0  0  0  0
 26 25  1  0  0  0  0
 27 26  2  0  0  0  0
 28 27  1  0  0  0  0
 29 28  2  0  0  0  0
 30 29  1  0  0  0  0
 31 30  1  0  0  0  0
 32 31  1  0  0  0  0
 33 32  2  0  0  0  0
 14 34  1  0  0  0  0
 34 35  1  0  0  0  0
 35 36  1  0  0  0  0
 36 37  1  0  0  0  0
 36 38  2  0  0  0  0
 34 39  2  0  0  0  0
M  END
>  <cdx:groupId>
104

>  <cdx:fragmentId>
29

$$$$
