95238.cdx
  Mrv1902 05222410192D          

 39 42  0  0  0  0            999 V2000
   10.5758   -4.8922    0.0000 O   0  0  0  0  0  0  0  0  0  0  0  0
    8.4324   -5.3047    0.0000 C   0  0  0  0  0  0  0  0  0  0  0  0
    9.1468   -4.8922    0.0000 C   0  0  0  0  0  0  0  0  0  0  0  0
    9.8613   -5.3047    0.0000 C   0  0  0  0  0  0  0  0  0  0  0  0
    9.8613   -6.1297    0.0000 C   0  0  0  0  0  0  0  0  0  0  0  0
    9.1468   -6.5422    0.0000 C   0  0  0  0  0  0  0  0  0  0  0  0
    8.4324   -6.1297    0.0000 C   0  0  0  0  0  0  0  0  0  0  0  0
    5.5745   -8.6047    0.0000 O   0  0  0  0  0  0  0  0  0  0  0  0
    4.1455   -6.1297    0.0000 O   0  0  0  0  0  0  0  0  0  0  0  0
    9.8613   -8.6047    0.0000 O   0  0  0  0  0  0  0  0  0  0  0  0
    9.8613  -10.2547    0.0000 O   0  0  0  0  0  0  0  0  0  0  0  0
    8.4324  -11.0797    0.0000 O   0  0  0  0  0  0  0  0  0  0  0  0
    6.2889   -9.8422    0.0000 O   0  0  0  0  0  0  0  0  0  0  0  0
    7.0034  -10.2547    0.0000 C   0  0  0  0  0  0  0  0  0  0  0  0
    7.7179   -9.8422    0.0000 C   0  0  2  0  0  0  0  0  0  0  0  0
    8.4324  -10.2547    0.0000 C   0  0  2  0  0  0  0  0  0  0  0  0
    9.1468   -9.8422    0.0000 C   0  0  1  0  0  0  0  0  0  0  0  0
    9.1468   -9.0172    0.0000 C   0  0  2  0  0  0  0  0  0  0  0  0
    8.4324   -8.6047    0.0000 C   0  0  1  0  0  0  0  0  0  0  0  0
    7.7179   -9.0172    0.0000 O   0  0  0  0  0  0  0  0  0  0  0  0
    8.4324   -7.7797    0.0000 O   0  0  0  0  0  0  0  0  0  0  0  0
    7.0034   -8.6047    0.0000 O   0  0  0  0  0  0  0  0  0  0  0  0
    7.0034   -6.1297    0.0000 O   0  0  0  0  0  0  0  0  0  0  0  0
    6.2889   -6.5422    0.0000 C   0  0  0  0  0  0  0  0  0  0  0  0
    5.5745   -6.1297    0.0000 C   0  0  0  0  0  0  0  0  0  0  0  0
    4.8600   -6.5422    0.0000 C   0  0  0  0  0  0  0  0  0  0  0  0
    4.8600   -7.3672    0.0000 C   0  0  0  0  0  0  0  0  0  0  0  0
    5.5745   -7.7797    0.0000 C   0  0  0  0  0  0  0  0  0  0  0  0
    6.2889   -7.3672    0.0000 C   0  0  0  0  0  0  0  0  0  0  0  0
    7.0034   -7.7797    0.0000 C   0  0  0  0  0  0  0  0  0  0  0  0
    7.7179   -7.3672    0.0000 C   0  0  0  0  0  0  0  0  0  0  0  0
    7.7179   -6.5422    0.0000 C   0  0  0  0  0  0  0  0  0  0  0  0
    5.5745  -10.2547    0.0000 C   0  0  0  0  0  0  0  0  0  0  0  0
    4.8600   -9.8422    0.0000 C   0  0  0  0  0  0  0  0  0  0  0  0
    4.1455  -10.2547    0.0000 C   0  0  0  0  0  0  0  0  0  0  0  0
    3.4311   -9.8422    0.0000 O   0  0  0  0  0  0  0  0  0  0  0  0
    4.1455  -11.0797    0.0000 O   0  0  0  0  0  0  0  0  0  0  0  0
    5.5745  -11.0797    0.0000 O   0  0  0  0  0  0  0  0  0  0  0  0
    9.1468   -4.0672    0.0000 O   0  0  0  0  0  0  0  0  0  0  0  0
 32  7  1  0  0  0  0
  4  1  1  0  0  0  0
  7  2  2  0  0  0  0
  3  2  1  0  0  0  0
  4  3  2  0  0  0  0
  5  4  1  0  0  0  0
  6  5  2  0  0  0  0
  7  6  1  0  0  0  0
 28  8  1  0  0  0  0
 26  9  1  0  0  0  0
 31 21  1  0  0  0  0
 19 21  1  1  0  0  0
 18 10  1  6  0  0  0
 17 11  1  1  0  0  0
 16 12  1  6  0  0  0
 15 14  1  1  0  0  0
 14 13  1  0  0  0  0
 20 15  1  0  0  0  0
 16 15  1  0  0  0  0
 17 16  1  0  0  0  0
 18 17  1  0  0  0  0
 19 18  1  0  0  0  0
 20 19  1  0  0  0  0
 30 22  2  0  0  0  0
 32 23  1  0  0  0  0
 24 23  1  0  0  0  0
 29 24  2  0  0  0  0
 25 24  1  0  0  0  0
 26 25  2  0  0  0  0
 27 26  1  0  0  0  0
 28 27  2  0  0  0  0
 29 28  1  0  0  0  0
 30 29  1  0  0  0  0
 31 30  1  0  0  0  0
 32 31  2  0  0  0  0
 13 33  1  0  0  0  0
 33 34  1  0  0  0  0
 34 35  1  0  0  0  0
 35 36  1  0  0  0  0
 35 37  2  0  0  0  0
 33 38  2  0  0  0  0
  3 39  1  0  0  0  0
M  END
>  <cdx:groupId>
104

>  <cdx:fragmentId>
29

$$$$
