95248.cdx
  Mrv1902 05222410222D          

 23 23  0  0  0  0            999 V2000
    3.9443   -7.2738    0.0000 C   0  0  0  0  0  0  0  0  0  0  0  0
    3.9443   -8.0987    0.0000 C   0  0  0  0  0  0  0  0  0  0  0  0
    4.6588   -8.5113    0.0000 C   0  0  0  0  0  0  0  0  0  0  0  0
    5.3732   -7.2738    0.0000 C   0  0  0  0  0  0  0  0  0  0  0  0
    4.6588   -6.8613    0.0000 C   0  0  0  0  0  0  0  0  0  0  0  0
    6.0877   -8.5113    0.0000 C   0  0  0  0  0  0  0  0  0  0  0  0
    6.8022   -8.0987    0.0000 C   0  0  0  0  0  0  0  0  0  0  0  0
    6.8022   -7.2738    0.0000 C   0  0  0  0  0  0  0  0  0  0  0  0
    6.0877   -6.8613    0.0000 C   0  0  0  0  0  0  0  0  0  0  0  0
    7.5167   -8.5113    0.0000 C   0  0  0  0  0  0  0  0  0  0  0  0
    8.2311   -8.0987    0.0000 C   0  0  0  0  0  0  0  0  0  0  0  0
    8.2311   -7.2738    0.0000 C   0  0  0  0  0  0  0  0  0  0  0  0
    7.5167   -6.8613    0.0000 C   0  0  0  0  0  0  0  0  0  0  0  0
    3.9443   -9.7487    0.0000 C   0  0  0  0  0  0  0  0  0  0  0  0
    4.6588   -9.3362    0.0000 C   0  0  0  0  0  0  0  0  0  0  0  0
    5.3732   -9.7487    0.0000 C   0  0  0  0  0  0  0  0  0  0  0  0
    4.6588   -6.0362    0.0000 C   0  0  0  0  0  0  0  0  0  0  0  0
    8.9456   -8.5113    0.0000 O   0  0  0  0  0  0  0  0  0  0  0  0
    6.8022   -6.4487    0.0000 C   0  0  0  0  0  0  0  0  0  0  0  0
    6.0877   -6.0362    0.0000 O   0  0  0  0  0  0  0  0  0  0  0  0
    7.5167   -6.0362    0.0000 O   0  0  0  0  0  0  0  0  0  0  0  0
    8.2311   -6.4487    0.0000 C   0  0  0  0  0  0  0  0  0  0  0  0
    8.9456   -6.0362    0.0000 C   0  0  0  0  0  0  0  0  0  0  0  0
  1  2  1  0  0  0  0
  2  3  1  0  0  0  0
  4  5  2  0  0  0  0
  5  1  1  0  0  0  0
  6  7  1  0  0  0  0
  7  8  1  0  0  0  0
  8  9  1  0  0  0  0
  9  4  1  0  0  0  0
  7 10  2  0  0  0  0
 10 11  1  0  0  0  0
 11 12  1  0  0  0  0
 12 13  1  0  0  0  0
 13  8  1  0  0  0  0
 14 15  1  0  0  0  0
 15  3  2  0  0  0  0
 15 16  1  0  0  0  0
  5 17  1  0  0  0  0
 11 18  2  0  0  0  0
  8 19  1  0  0  0  0
 19 20  2  0  0  0  0
 19 21  1  0  0  0  0
 21 22  1  0  0  0  0
 22 23  1  0  0  0  0
M  END
>  <cdx:fragmentId>
5

$$$$
