95242.cdx
  Mrv1902 05222410252D          

 36 38  0  0  0  0            999 V2000
   10.3619   -9.5660    0.0000 O   0  0  0  0  0  0  0  0  0  0  0  0
    9.6474   -9.9785    0.0000 C   0  0  2  0  0  0  0  0  0  0  0  0
    9.6474  -10.8035    0.0000 C   0  0  2  0  0  0  0  0  0  0  0  0
   10.3619  -11.2160    0.0000 O   0  0  0  0  0  0  0  0  0  0  0  0
    8.9330  -11.2160    0.0000 C   0  0  1  0  0  0  0  0  0  0  0  0
    8.9330  -12.0410    0.0000 O   0  0  0  0  0  0  0  0  0  0  0  0
    8.2185  -10.8035    0.0000 C   0  0  2  0  0  0  0  0  0  0  0  0
    7.5040  -11.2160    0.0000 O   0  0  0  0  0  0  0  0  0  0  0  0
    8.2185   -9.9785    0.0000 C   0  0  2  0  0  0  0  0  0  0  0  0
    8.9330   -9.5660    0.0000 O   0  0  0  0  0  0  0  0  0  0  0  0
    7.5040   -9.5660    0.0000 C   0  0  0  0  0  0  0  0  0  0  0  0
    6.7896   -9.9785    0.0000 O   0  0  0  0  0  0  0  0  0  0  0  0
    8.9330   -8.7410    0.0000 O   0  0  0  0  0  0  0  0  0  0  0  0
    9.6474   -9.1535    0.0000 C   0  0  0  0  0  0  0  0  0  0  0  0
   11.1824   -8.6547    0.0000 C   0  0  1  0  0  0  0  0  0  0  0  0
   11.7344   -9.2678    0.0000 O   0  0  0  0  0  0  0  0  0  0  0  0
   11.3539   -7.8477    0.0000 C   0  0  2  0  0  0  0  0  0  0  0  0
   12.1076   -7.5122    0.0000 O   0  0  0  0  0  0  0  0  0  0  0  0
   10.6395   -7.4352    0.0000 C   0  0  2  0  0  0  0  0  0  0  0  0
   10.0264   -7.9873    0.0000 O   0  0  0  0  0  0  0  0  0  0  0  0
   10.5532   -6.6148    0.0000 C   0  0  0  0  0  0  0  0  0  0  0  0
   11.1366   -6.0314    0.0000 O   0  0  0  0  0  0  0  0  0  0  0  0
   10.3619   -8.7410    0.0000 C   0  0  2  0  0  0  0  0  0  0  0  0
    6.0751   -9.5660    0.0000 C   0  0  0  0  0  0  0  0  0  0  0  0
    5.3606   -9.9785    0.0000 C   0  0  0  0  0  0  0  0  0  0  0  0
    6.0751   -8.7410    0.0000 O   0  0  0  0  0  0  0  0  0  0  0  0
    4.6462   -9.5660    0.0000 C   0  0  0  0  0  0  0  0  0  0  0  0
    3.9317   -9.9785    0.0000 C   0  0  0  0  0  0  0  0  0  0  0  0
    3.2172   -9.5660    0.0000 C   0  0  0  0  0  0  0  0  0  0  0  0
    2.5027   -9.9785    0.0000 C   0  0  0  0  0  0  0  0  0  0  0  0
    2.5027  -10.8035    0.0000 C   0  0  0  0  0  0  0  0  0  0  0  0
    3.2172  -11.2160    0.0000 C   0  0  0  0  0  0  0  0  0  0  0  0
    3.9317  -10.8035    0.0000 C   0  0  0  0  0  0  0  0  0  0  0  0
    1.7883  -11.2160    0.0000 O   0  0  0  0  0  0  0  0  0  0  0  0
    1.7883   -9.5660    0.0000 O   0  0  0  0  0  0  0  0  0  0  0  0
    1.0738   -9.9784    0.0000 C   0  0  0  0  0  0  0  0  0  0  0  0
  2  1  1  6  0  0  0
  2  3  1  0  0  0  0
  3  4  1  6  0  0  0
  3  5  1  0  0  0  0
  5  6  1  1  0  0  0
  5  7  1  0  0  0  0
  7  8  1  6  0  0  0
  7  9  1  0  0  0  0
  9 10  1  0  0  0  0
  9 11  1  1  0  0  0
 11 12  1  0  0  0  0
  2 10  1  0  0  0  0
 13 14  1  0  0  0  0
 15 16  1  6  0  0  0
 15 17  1  0  0  0  0
 17 18  1  1  0  0  0
 17 19  1  0  0  0  0
 19 20  1  0  0  0  0
 19 21  1  6  0  0  0
 21 22  1  0  0  0  0
 15 23  1  0  0  0  0
 23 14  1  6  0  0  0
 23 20  1  0  0  0  0
 23  1  1  1  0  0  0
 12 24  1  0  0  0  0
 24 25  1  0  0  0  0
 24 26  2  0  0  0  0
 25 27  2  0  0  0  0
 27 28  1  0  0  0  0
 28 29  2  0  0  0  0
 29 30  1  0  0  0  0
 30 31  2  0  0  0  0
 31 32  1  0  0  0  0
 32 33  2  0  0  0  0
 33 28  1  0  0  0  0
 31 34  1  0  0  0  0
 30 35  1  0  0  0  0
 35 36  1  0  0  0  0
M  END
>  <cdx:fragmentId>
51

$$$$
