952407.cdx
  Mrv1902 05222410282D          

 28 28  0  0  0  0            999 V2000
   14.3557   -9.8780    0.0000 C   0  0  0  0  0  0  0  0  0  0  0  0
   15.0702  -10.2905    0.0000 C   0  0  0  0  0  0  0  0  0  0  0  0
   16.4991  -10.2905    0.0000 O   0  0  0  0  0  0  0  0  0  0  0  0
   15.7846   -9.8780    0.0000 C   0  0  0  0  0  0  0  0  0  0  0  0
   17.2136   -9.0530    0.0000 C   0  0  0  0  0  0  0  0  0  0  0  0
   16.4991   -8.6405    0.0000 O   0  0  0  0  0  0  0  0  0  0  0  0
   15.7846   -9.0530    0.0000 C   0  0  0  0  0  0  0  0  0  0  0  0
   15.0702   -8.6405    0.0000 C   0  0  0  0  0  0  0  0  0  0  0  0
   14.3557   -9.0530    0.0000 C   0  0  0  0  0  0  0  0  0  0  0  0
   13.6412   -8.6405    0.0000 C   0  0  0  0  0  0  0  0  0  0  0  0
   12.9268   -9.0530    0.0000 N   0  0  0  0  0  0  0  0  0  0  0  0
   12.2123   -7.8155    0.0000 O   0  0  0  0  0  0  0  0  0  0  0  0
    1.4952   -9.0530    0.0000 C   0  0  0  0  0  0  0  0  0  0  0  0
    2.2097   -8.6405    0.0000 C   0  0  0  0  0  0  0  0  0  0  0  0
    2.9242   -9.0530    0.0000 C   0  0  0  0  0  0  0  0  0  0  0  0
    3.6386   -8.6405    0.0000 C   0  0  0  0  0  0  0  0  0  0  0  0
    4.3531   -9.0530    0.0000 C   0  0  0  0  0  0  0  0  0  0  0  0
    5.0676   -8.6405    0.0000 C   0  0  0  0  0  0  0  0  0  0  0  0
    5.7820   -9.0530    0.0000 C   0  0  0  0  0  0  0  0  0  0  0  0
    6.4965   -8.6405    0.0000 C   0  0  0  0  0  0  0  0  0  0  0  0
    7.2110   -9.0530    0.0000 C   0  0  0  0  0  0  0  0  0  0  0  0
    7.9255   -8.6405    0.0000 C   0  0  0  0  0  0  0  0  0  0  0  0
    8.6399   -9.0530    0.0000 C   0  0  0  0  0  0  0  0  0  0  0  0
    9.3544   -8.6405    0.0000 C   0  0  0  0  0  0  0  0  0  0  0  0
   10.0689   -9.0530    0.0000 C   0  0  0  0  0  0  0  0  0  0  0  0
   10.7833   -8.6405    0.0000 C   0  0  0  0  0  0  0  0  0  0  0  0
   11.4978   -9.0530    0.0000 C   0  0  0  0  0  0  0  0  0  0  0  0
   12.2123   -8.6405    0.0000 C   0  0  0  0  0  0  0  0  0  0  0  0
 11 10  1  0  0  0  0
  9  1  2  0  0  0  0
  2  1  1  0  0  0  0
  4  2  2  0  0  0  0
  4  3  1  0  0  0  0
  7  4  1  0  0  0  0
  6  5  1  0  0  0  0
  7  6  1  0  0  0  0
  8  7  2  0  0  0  0
  9  8  1  0  0  0  0
 10  9  1  0  0  0  0
 28 11  1  0  0  0  0
 28 12  2  0  0  0  0
 14 13  1  0  0  0  0
 15 14  1  0  0  0  0
 16 15  1  0  0  0  0
 17 16  1  0  0  0  0
 18 17  1  0  0  0  0
 19 18  1  0  0  0  0
 20 19  1  0  0  0  0
 21 20  1  0  0  0  0
 22 21  1  0  0  0  0
 23 22  1  0  0  0  0
 24 23  1  0  0  0  0
 25 24  1  0  0  0  0
 26 25  1  0  0  0  0
 27 26  1  0  0  0  0
 28 27  1  0  0  0  0
M  END
>  <cdx:fragmentId>
5

$$$$
