95240.cdx
  Mrv1902 05222410252D          

 10 10  0  0  0  0            999 V2000
    6.1239   -7.5911    0.0000 S   0  0  0  0  0  0  0  0  0  0  0  0
    6.1239   -8.4161    0.0000 C   0  0  0  0  0  0  0  0  0  0  0  0
    6.8384   -8.8286    0.0000 N   0  0  0  0  0  0  0  0  0  0  0  0
    7.5529   -8.4161    0.0000 N   0  0  0  0  0  0  0  0  0  0  0  0
    7.5529   -7.5911    0.0000 C   0  0  0  0  0  0  0  0  0  0  0  0
    6.8384   -7.1786    0.0000 C   0  0  0  0  0  0  0  0  0  0  0  0
    8.2674   -8.8286    0.0000 C   0  0  0  0  0  0  0  0  0  0  0  0
    8.2674   -9.6536    0.0000 C   0  0  0  0  0  0  0  0  0  0  0  0
    8.9818   -8.4161    0.0000 C   0  0  0  0  0  0  0  0  0  0  0  0
    5.4095   -8.8286    0.0000 C   0  0  0  0  0  0  0  0  0  0  0  0
  1  2  1  0  0  0  0
  2  3  2  0  0  0  0
  3  4  1  0  0  0  0
  4  5  1  0  0  0  0
  5  6  2  0  0  0  0
  1  6  1  0  0  0  0
  7  8  1  0  0  0  0
  7  9  1  0  0  0  0
  4  7  1  0  0  0  0
  2 10  1  0  0  0  0
M  END
>  <cdx:groupId>
32

>  <cdx:fragmentId>
5

$$$$
