95249.cdx
  Mrv1902 05222410232D          

 21 23  0  0  0  0            999 V2000
    6.6310   -9.1913    0.0000 O   0  0  0  0  0  0  0  0  0  0  0  0
    7.1160   -8.5239    0.0000 C   0  0  0  0  0  0  0  0  0  0  0  0
    6.6310   -7.8564    0.0000 C   0  0  0  0  0  0  0  0  0  0  0  0
    5.8464   -8.1114    0.0000 C   0  0  0  0  0  0  0  0  0  0  0  0
    5.1319   -7.6989    0.0000 C   0  0  0  0  0  0  0  0  0  0  0  0
    4.4175   -8.1114    0.0000 C   0  0  0  0  0  0  0  0  0  0  0  0
    4.4175   -8.9364    0.0000 C   0  0  0  0  0  0  0  0  0  0  0  0
    5.1319   -9.3489    0.0000 C   0  0  0  0  0  0  0  0  0  0  0  0
    5.8464   -8.9364    0.0000 C   0  0  0  0  0  0  0  0  0  0  0  0
    6.8860   -7.0718    0.0000 O   0  0  0  0  0  0  0  0  0  0  0  0
    7.8304   -8.1114    0.0000 C   0  0  0  0  0  0  0  0  0  0  0  0
    8.5449   -8.5239    0.0000 C   0  0  0  0  0  0  0  0  0  0  0  0
    9.2594   -8.1114    0.0000 C   0  0  0  0  0  0  0  0  0  0  0  0
    9.9738   -8.5239    0.0000 C   0  0  0  0  0  0  0  0  0  0  0  0
    9.9738   -9.3489    0.0000 C   0  0  0  0  0  0  0  0  0  0  0  0
    9.2594   -9.7614    0.0000 C   0  0  0  0  0  0  0  0  0  0  0  0
    8.5449   -9.3489    0.0000 C   0  0  0  0  0  0  0  0  0  0  0  0
   10.6883   -9.7614    0.0000 O   0  0  0  0  0  0  0  0  0  0  0  0
   10.6883   -8.1114    0.0000 O   0  0  0  0  0  0  0  0  0  0  0  0
    3.7030   -9.3489    0.0000 O   0  0  0  0  0  0  0  0  0  0  0  0
    7.8304   -8.9364    0.0000 O   0  0  0  0  0  0  0  0  0  0  0  0
  1  2  1  0  0  0  0
  2  3  1  0  0  0  0
  3  4  1  0  0  0  0
  4  5  1  0  0  0  0
  5  6  2  0  0  0  0
  6  7  1  0  0  0  0
  7  8  2  0  0  0  0
  8  9  1  0  0  0  0
  1  9  1  0  0  0  0
  4  9  2  0  0  0  0
  3 10  2  0  0  0  0
 11 12  1  0  0  0  0
 12 13  1  0  0  0  0
 13 14  2  0  0  0  0
 14 15  1  0  0  0  0
 15 16  2  0  0  0  0
 16 17  1  0  0  0  0
 12 17  2  0  0  0  0
  2 11  1  0  0  0  0
 15 18  1  0  0  0  0
 14 19  1  0  0  0  0
  7 20  1  0  0  0  0
  2 21  1  0  0  0  0
M  END
>  <cdx:groupId>
67

>  <cdx:fragmentId>
5

$$$$
