95243.cdx
  Mrv1902 05222410252D          

 28 30  0  0  0  0            999 V2000
    7.5529   -8.7716    0.0000 C   0  0  0  0  0  0  0  0  0  0  0  0
    7.5529   -9.5966    0.0000 C   0  0  0  0  0  0  0  0  0  0  0  0
    8.2674  -10.0091    0.0000 O   0  0  0  0  0  0  0  0  0  0  0  0
    6.8384  -10.0091    0.0000 C   0  0  0  0  0  0  0  0  0  0  0  0
    6.8384  -10.8341    0.0000 O   0  0  0  0  0  0  0  0  0  0  0  0
    6.1239   -9.5966    0.0000 C   0  0  0  0  0  0  0  0  0  0  0  0
    5.4095  -10.0091    0.0000 C   0  0  0  0  0  0  0  0  0  0  0  0
    5.4095  -10.8341    0.0000 O   0  0  0  0  0  0  0  0  0  0  0  0
    4.6950   -9.5966    0.0000 C   0  0  0  0  0  0  0  0  0  0  0  0
    4.6950   -8.7716    0.0000 C   0  0  0  0  0  0  0  0  0  0  0  0
    3.9805   -8.3591    0.0000 O   0  0  0  0  0  0  0  0  0  0  0  0
    5.4095   -8.3591    0.0000 C   0  0  0  0  0  0  0  0  0  0  0  0
    6.1239   -8.7716    0.0000 C   0  0  0  0  0  0  0  0  0  0  0  0
    6.8384   -8.3591    0.0000 O   0  0  0  0  0  0  0  0  0  0  0  0
    8.2674   -8.3591    0.0000 C   0  0  0  0  0  0  0  0  0  0  0  0
    8.9818   -8.7716    0.0000 C   0  0  0  0  0  0  0  0  0  0  0  0
    9.6963   -8.3591    0.0000 C   0  0  0  0  0  0  0  0  0  0  0  0
   10.4108   -8.7716    0.0000 O   0  0  0  0  0  0  0  0  0  0  0  0
    9.6963   -7.5341    0.0000 C   0  0  0  0  0  0  0  0  0  0  0  0
   10.4108   -7.1216    0.0000 O   0  0  0  0  0  0  0  0  0  0  0  0
    8.9818   -7.1216    0.0000 C   0  0  0  0  0  0  0  0  0  0  0  0
    8.2674   -7.5341    0.0000 C   0  0  0  0  0  0  0  0  0  0  0  0
    5.4095   -7.5341    0.0000 C   0  0  0  0  0  0  0  0  0  0  0  0
    4.6950   -7.1216    0.0000 C   0  0  0  0  0  0  0  0  0  0  0  0
    4.6950   -6.2966    0.0000 C   0  0  0  0  0  0  0  0  0  0  0  0
    5.4095   -5.8841    0.0000 C   0  0  0  0  0  0  0  0  0  0  0  0
    3.9805   -5.8841    0.0000 C   0  0  0  0  0  0  0  0  0  0  0  0
    8.9818   -9.5966    0.0000 C   0  0  0  0  0  0  0  0  0  0  0  0
  1  2  2  0  0  0  0
  2  3  1  0  0  0  0
  2  4  1  0  0  0  0
  4  5  2  0  0  0  0
  4  6  1  0  0  0  0
  6  7  1  0  0  0  0
  7  8  1  0  0  0  0
  7  9  2  0  0  0  0
  9 10  1  0  0  0  0
 10 11  1  0  0  0  0
 10 12  2  0  0  0  0
 12 13  1  0  0  0  0
  6 13  2  0  0  0  0
 13 14  1  0  0  0  0
  1 14  1  0  0  0  0
  1 15  1  0  0  0  0
 15 16  1  0  0  0  0
 16 17  2  0  0  0  0
 17 18  1  0  0  0  0
 17 19  1  0  0  0  0
 19 20  1  0  0  0  0
 19 21  2  0  0  0  0
 21 22  1  0  0  0  0
 15 22  2  0  0  0  0
 23 24  1  0  0  0  0
 24 25  2  0  0  0  0
 25 26  1  0  0  0  0
 25 27  1  0  0  0  0
 12 23  1  0  0  0  0
  3 28  1  0  0  0  0
M  END
>  <cdx:groupId>
88

>  <cdx:fragmentId>
5

$$$$
