52952433.cdx
  Mrv1902 05222410202D          

 20 19  0  0  0  0            999 V2000
   12.9840  -13.8594    0.0000 C   0  0  0  0  0  0  0  0  0  0  0  0
   12.2695  -14.2719    0.0000 C   0  0  0  0  0  0  0  0  0  0  0  0
   11.5551  -13.8594    0.0000 C   0  0  1  0  0  0  0  0  0  0  0  0
   10.8406  -14.2719    0.0000 C   0  0  0  0  0  0  0  0  0  0  0  0
   10.1261  -14.6844    0.0000 C   0  0  0  0  0  0  0  0  0  0  0  0
    9.4117  -15.0969    0.0000 C   0  0  0  0  0  0  0  0  0  0  0  0
    8.6972  -15.5094    0.0000 C   0  0  0  0  0  0  0  0  0  0  0  0
    7.9827  -15.9219    0.0000 C   0  0  0  0  0  0  0  0  0  0  0  0
    7.2682  -15.5094    0.0000 C   0  0  1  0  0  0  0  0  0  0  0  0
    6.5538  -15.9219    0.0000 C   0  0  2  0  0  0  0  0  0  0  0  0
    5.8393  -15.5094    0.0000 C   0  0  0  0  0  0  0  0  0  0  0  0
    5.1248  -15.9219    0.0000 C   0  0  0  0  0  0  0  0  0  0  0  0
    4.4104  -15.5094    0.0000 C   0  0  0  0  0  0  0  0  0  0  0  0
    3.6959  -15.9219    0.0000 C   0  0  0  0  0  0  0  0  0  0  0  0
    2.9814  -15.5094    0.0000 C   0  0  0  0  0  0  0  0  0  0  0  0
    2.2670  -15.9219    0.0000 C   0  0  0  0  0  0  0  0  0  0  0  0
    1.5525  -15.5094    0.0000 C   0  0  0  0  0  0  0  0  0  0  0  0
   11.5551  -13.0344    0.0000 O   0  0  0  0  0  0  0  0  0  0  0  0
    7.2682  -14.6844    0.0000 O   0  0  0  0  0  0  0  0  0  0  0  0
    6.5538  -16.7469    0.0000 O   0  0  0  0  0  0  0  0  0  0  0  0
  1  2  1  0  0  0  0
  2  3  1  0  0  0  0
  3  4  1  0  0  0  0
  4  5  3  0  0  0  0
  5  6  1  0  0  0  0
  6  7  3  0  0  0  0
  7  8  1  0  0  0  0
  8  9  1  0  0  0  0
  9 10  1  0  0  0  0
 10 11  1  0  0  0  0
 11 12  1  0  0  0  0
 12 13  1  0  0  0  0
 13 14  1  0  0  0  0
 14 15  1  0  0  0  0
 15 16  1  0  0  0  0
 16 17  2  0  0  0  0
  3 18  1  1  0  0  0
  9 19  1  1  0  0  0
 10 20  1  1  0  0  0
M  END
>  <cdx:groupId>
186263

>  <cdx:fragmentId>
186207

$$$$
