95247.cdx
  Mrv1902 05222410242D          

  9  8  0  0  0  0            999 V2000
    7.1131   -5.8179    0.0000 C   0  0  0  0  0  0  0  0  0  0  0  0
    7.8276   -6.2304    0.0000 C   0  0  0  0  0  0  0  0  0  0  0  0
    8.5421   -5.8179    0.0000 C   0  0  0  0  0  0  0  0  0  0  0  0
    8.5421   -4.9929    0.0000 C   0  0  0  0  0  0  0  0  0  0  0  0
    9.2566   -6.2304    0.0000 C   0  0  0  0  0  0  0  0  0  0  0  0
    5.6842   -5.8179    0.0000 C   0  0  0  0  0  0  0  0  0  0  0  0
    4.9697   -6.2304    0.0000 C   0  0  0  0  0  0  0  0  0  0  0  0
    5.6842   -4.9929    0.0000 O   0  0  0  0  0  0  0  0  0  0  0  0
    6.3987   -6.2304    0.0000 O   0  0  0  0  0  0  0  0  0  0  0  0
  1  2  1  0  0  0  0
  2  3  1  0  0  0  0
  3  4  1  0  0  0  0
  5  3  1  0  0  0  0
  6  7  1  0  0  0  0
  6  8  2  0  0  0  0
  6  9  1  0  0  0  0
  1  9  1  0  0  0  0
M  END
>  <cdx:fragmentId>
5

$$$$
