95251.cdx
  Mrv1902 05222410232D          

 23 24  0  0  0  0            999 V2000
    5.0522   -8.0041    0.0000 C   0  0  0  0  0  0  0  0  0  0  0  0
    5.7667   -8.4166    0.0000 C   0  0  0  0  0  0  0  0  0  0  0  0
    6.4812   -8.0041    0.0000 C   0  0  0  0  0  0  0  0  0  0  0  0
    7.1956   -8.4166    0.0000 C   0  0  0  0  0  0  0  0  0  0  0  0
    7.9101   -8.0041    0.0000 C   0  0  0  0  0  0  0  0  0  0  0  0
    8.6246   -8.4166    0.0000 C   0  0  0  0  0  0  0  0  0  0  0  0
    9.3391   -8.0041    0.0000 C   0  0  0  0  0  0  0  0  0  0  0  0
    6.4812   -7.1791    0.0000 O   0  0  0  0  0  0  0  0  0  0  0  0
    4.3378   -8.4166    0.0000 C   0  0  0  0  0  0  0  0  0  0  0  0
    4.3378   -9.2416    0.0000 C   0  0  0  0  0  0  0  0  0  0  0  0
    3.6233   -9.6541    0.0000 C   0  0  0  0  0  0  0  0  0  0  0  0
    2.9088   -9.2416    0.0000 C   0  0  0  0  0  0  0  0  0  0  0  0
    2.9088   -8.4166    0.0000 C   0  0  0  0  0  0  0  0  0  0  0  0
    3.6233   -8.0041    0.0000 C   0  0  0  0  0  0  0  0  0  0  0  0
    2.1944   -9.6541    0.0000 O   0  0  0  0  0  0  0  0  0  0  0  0
   10.0535   -8.4166    0.0000 C   0  0  0  0  0  0  0  0  0  0  0  0
   10.7680   -8.0041    0.0000 C   0  0  0  0  0  0  0  0  0  0  0  0
   11.4825   -8.4166    0.0000 C   0  0  0  0  0  0  0  0  0  0  0  0
   11.4825   -9.2416    0.0000 C   0  0  0  0  0  0  0  0  0  0  0  0
   10.7680   -9.6541    0.0000 C   0  0  0  0  0  0  0  0  0  0  0  0
   10.0535   -9.2416    0.0000 C   0  0  0  0  0  0  0  0  0  0  0  0
   12.1969   -9.6541    0.0000 O   0  0  0  0  0  0  0  0  0  0  0  0
   12.1969   -8.0041    0.0000 O   0  0  0  0  0  0  0  0  0  0  0  0
  1  2  1  0  0  0  0
  2  3  1  0  0  0  0
  3  4  1  0  0  0  0
  4  5  1  0  0  0  0
  5  6  2  0  0  0  0
  6  7  1  0  0  0  0
  3  8  2  0  0  0  0
  9 10  1  0  0  0  0
 10 11  2  0  0  0  0
 11 12  1  0  0  0  0
 12 13  2  0  0  0  0
 13 14  1  0  0  0  0
  9 14  2  0  0  0  0
 12 15  1  0  0  0  0
  1  9  1  0  0  0  0
 16 17  1  0  0  0  0
 17 18  2  0  0  0  0
 18 19  1  0  0  0  0
 19 20  2  0  0  0  0
 20 21  1  0  0  0  0
 16 21  2  0  0  0  0
 19 22  1  0  0  0  0
 18 23  1  0  0  0  0
  7 16  1  0  0  0  0
M  END
>  <cdx:groupId>
72

>  <cdx:fragmentId>
5

$$$$
