95250.cdx
  Mrv1902 05222410232D          

 23 25  0  0  0  0            999 V2000
    5.7667   -8.6699    0.0000 C   0  0  0  0  0  0  0  0  0  0  0  0
    5.7667   -9.4949    0.0000 C   0  0  0  0  0  0  0  0  0  0  0  0
    6.4812   -9.9074    0.0000 C   0  0  0  0  0  0  0  0  0  0  0  0
    7.1956   -9.4949    0.0000 C   0  0  0  0  0  0  0  0  0  0  0  0
    7.1956   -8.6699    0.0000 C   0  0  0  0  0  0  0  0  0  0  0  0
    7.9101   -8.2574    0.0000 C   0  0  0  0  0  0  0  0  0  0  0  0
    8.6246   -8.6699    0.0000 C   0  0  0  0  0  0  0  0  0  0  0  0
    5.0522   -8.2574    0.0000 C   0  0  0  0  0  0  0  0  0  0  0  0
    4.3378   -8.6699    0.0000 C   0  0  0  0  0  0  0  0  0  0  0  0
    3.6233   -8.2574    0.0000 C   0  0  0  0  0  0  0  0  0  0  0  0
    3.6233   -7.4324    0.0000 C   0  0  0  0  0  0  0  0  0  0  0  0
    4.3378   -7.0199    0.0000 C   0  0  0  0  0  0  0  0  0  0  0  0
    5.0522   -7.4324    0.0000 C   0  0  0  0  0  0  0  0  0  0  0  0
    2.9088   -7.0199    0.0000 O   0  0  0  0  0  0  0  0  0  0  0  0
    9.3391   -8.2574    0.0000 C   0  0  0  0  0  0  0  0  0  0  0  0
   10.0535   -8.6699    0.0000 C   0  0  0  0  0  0  0  0  0  0  0  0
   10.7680   -8.2574    0.0000 C   0  0  0  0  0  0  0  0  0  0  0  0
   10.7680   -7.4324    0.0000 C   0  0  0  0  0  0  0  0  0  0  0  0
   10.0535   -7.0199    0.0000 C   0  0  0  0  0  0  0  0  0  0  0  0
    9.3391   -7.4324    0.0000 C   0  0  0  0  0  0  0  0  0  0  0  0
   11.4825   -7.0199    0.0000 O   0  0  0  0  0  0  0  0  0  0  0  0
   11.4825   -8.6699    0.0000 O   0  0  0  0  0  0  0  0  0  0  0  0
    6.4812   -8.2574    0.0000 O   0  0  0  0  0  0  0  0  0  0  0  0
  1  2  1  0  0  0  0
  2  3  1  0  0  0  0
  3  4  1  0  0  0  0
  4  5  1  0  0  0  0
  5  6  1  0  0  0  0
  6  7  1  0  0  0  0
  8  9  1  0  0  0  0
  9 10  2  0  0  0  0
 10 11  1  0  0  0  0
 11 12  2  0  0  0  0
 12 13  1  0  0  0  0
  8 13  2  0  0  0  0
 11 14  1  0  0  0  0
  1  8  1  0  0  0  0
 15 16  1  0  0  0  0
 16 17  2  0  0  0  0
 17 18  1  0  0  0  0
 18 19  2  0  0  0  0
 19 20  1  0  0  0  0
 15 20  2  0  0  0  0
 18 21  1  0  0  0  0
 17 22  1  0  0  0  0
  7 15  1  0  0  0  0
  1 23  1  0  0  0  0
  5 23  1  0  0  0  0
M  END
>  <cdx:groupId>
73

>  <cdx:fragmentId>
19

$$$$
