95264.cdx
  Mrv1902 05222410212D          

 41 45  0  0  0  0            999 V2000
   10.1088   -7.6593    0.0000 C   0  0  0  0  0  0  0  0  0  0  0  0
   10.1088   -8.4843    0.0000 C   0  0  0  0  0  0  0  0  0  0  0  0
    9.3943   -8.8968    0.0000 C   0  0  0  0  0  0  0  0  0  0  0  0
    9.3943   -9.7218    0.0000 O   0  0  0  0  0  0  0  0  0  0  0  0
    8.6799   -8.4843    0.0000 C   0  0  0  0  0  0  0  0  0  0  0  0
    7.9654   -8.8968    0.0000 C   0  0  0  0  0  0  0  0  0  0  0  0
    7.9654   -9.7218    0.0000 O   0  0  0  0  0  0  0  0  0  0  0  0
    7.2509   -8.4843    0.0000 C   0  0  0  0  0  0  0  0  0  0  0  0
    7.2509   -7.6593    0.0000 C   0  0  0  0  0  0  0  0  0  0  0  0
    6.5364   -7.2468    0.0000 O   0  0  0  0  0  0  0  0  0  0  0  0
    7.9654   -7.2468    0.0000 C   0  0  0  0  0  0  0  0  0  0  0  0
    8.6799   -7.6593    0.0000 C   0  0  0  0  0  0  0  0  0  0  0  0
    9.3943   -7.2468    0.0000 O   0  0  0  0  0  0  0  0  0  0  0  0
   10.8233   -7.2468    0.0000 C   0  0  0  0  0  0  0  0  0  0  0  0
   10.8233   -6.4218    0.0000 C   0  0  0  0  0  0  0  0  0  0  0  0
   11.5377   -6.0093    0.0000 C   0  0  0  0  0  0  0  0  0  0  0  0
   12.2522   -6.4218    0.0000 C   0  0  0  0  0  0  0  0  0  0  0  0
   12.9667   -6.0093    0.0000 O   0  0  0  0  0  0  0  0  0  0  0  0
   12.2522   -7.2468    0.0000 C   0  0  0  0  0  0  0  0  0  0  0  0
   11.5377   -7.6593    0.0000 C   0  0  0  0  0  0  0  0  0  0  0  0
    6.5364   -8.8968    0.0000 O   0  0  0  0  0  0  0  0  0  0  0  0
    5.8220   -8.4843    0.0000 C   0  0  1  0  0  0  0  0  0  0  0  0
    4.9970   -8.4843    0.0000 C   0  0  2  0  0  0  0  0  0  0  0  0
    4.6876   -9.0201    0.0000 O   0  0  0  0  0  0  0  0  0  0  0  0
    4.5845   -7.7698    0.0000 C   0  0  1  0  0  0  0  0  0  0  0  0
    3.7595   -7.7698    0.0000 O   0  0  0  0  0  0  0  0  0  0  0  0
    4.9970   -7.0554    0.0000 C   0  0  2  0  0  0  0  0  0  0  0  0
    4.5845   -6.3409    0.0000 O   0  0  0  0  0  0  0  0  0  0  0  0
    5.8220   -7.0554    0.0000 C   0  0  2  0  0  0  0  0  0  0  0  0
    6.2345   -7.7698    0.0000 O   0  0  0  0  0  0  0  0  0  0  0  0
    6.2345   -6.3409    0.0000 C   0  0  0  0  0  0  0  0  0  0  0  0
    5.8220   -5.6264    0.0000 O   0  0  0  0  0  0  0  0  0  0  0  0
    3.8907   -9.2337    0.0000 C   0  0  2  0  0  0  0  0  0  0  0  0
    3.3073   -8.6503    0.0000 O   0  0  0  0  0  0  0  0  0  0  0  0
    2.5105   -8.8638    0.0000 C   0  0  0  0  0  0  0  0  0  0  0  0
    2.2969   -9.6607    0.0000 C   0  0  1  0  0  0  0  0  0  0  0  0
    2.8803  -10.2441    0.0000 C   0  0  1  0  0  0  0  0  0  0  0  0
    3.6772  -10.0306    0.0000 C   0  0  1  0  0  0  0  0  0  0  0  0
    1.5000   -9.8743    0.0000 O   0  0  0  0  0  0  0  0  0  0  0  0
    2.6668  -11.0410    0.0000 O   0  0  0  0  0  0  0  0  0  0  0  0
    4.2605  -10.6139    0.0000 O   0  0  0  0  0  0  0  0  0  0  0  0
  1  2  2  0  0  0  0
  2  3  1  0  0  0  0
  3  4  2  0  0  0  0
  3  5  1  0  0  0  0
  5  6  1  0  0  0  0
  6  7  1  0  0  0  0
  6  8  2  0  0  0  0
  8  9  1  0  0  0  0
  9 10  1  0  0  0  0
  9 11  2  0  0  0  0
 11 12  1  0  0  0  0
  5 12  2  0  0  0  0
 12 13  1  0  0  0  0
  1 13  1  0  0  0  0
  1 14  1  0  0  0  0
 14 15  1  0  0  0  0
 15 16  2  0  0  0  0
 16 17  1  0  0  0  0
 17 18  1  0  0  0  0
 17 19  2  0  0  0  0
 19 20  1  0  0  0  0
 14 20  2  0  0  0  0
 22 21  1  1  0  0  0
 22 23  1  0  0  0  0
 23 24  1  6  0  0  0
 23 25  1  0  0  0  0
 25 26  1  1  0  0  0
 25 27  1  0  0  0  0
 27 28  1  6  0  0  0
 27 29  1  0  0  0  0
 29 30  1  0  0  0  0
 29 31  1  1  0  0  0
 31 32  1  0  0  0  0
 22 30  1  0  0  0  0
  8 21  1  0  0  0  0
 33 24  1  1  0  0  0
 33 34  1  0  0  0  0
 34 35  1  0  0  0  0
 35 36  1  0  0  0  0
 36 37  1  0  0  0  0
 37 38  1  0  0  0  0
 38 33  1  0  0  0  0
 36 39  1  1  0  0  0
 37 40  1  1  0  0  0
 38 41  1  6  0  0  0
M  END
>  <cdx:groupId>
138

>  <cdx:fragmentId>
69

$$$$
