952605.cdx
  Mrv1902 05222410282D          

 29 30  0  0  0  0            999 V2000
    5.2816   -6.2282    0.0000 C   0  0  0  0  0  0  0  0  0  0  0  0
    5.9961   -6.6407    0.0000 C   0  0  0  0  0  0  0  0  0  0  0  0
    6.7105   -6.2282    0.0000 C   0  0  0  0  0  0  0  0  0  0  0  0
    7.4250   -6.6407    0.0000 C   0  0  0  0  0  0  0  0  0  0  0  0
    8.1395   -6.2282    0.0000 C   0  0  0  0  0  0  0  0  0  0  0  0
    8.8539   -6.6407    0.0000 C   0  0  0  0  0  0  0  0  0  0  0  0
    9.5684   -6.2282    0.0000 C   0  0  0  0  0  0  0  0  0  0  0  0
    6.7105   -5.4032    0.0000 O   0  0  0  0  0  0  0  0  0  0  0  0
    8.1395   -5.4032    0.0000 O   0  0  0  0  0  0  0  0  0  0  0  0
   10.2829   -6.6407    0.0000 C   0  0  0  0  0  0  0  0  0  0  0  0
   10.9974   -6.2282    0.0000 C   0  0  0  0  0  0  0  0  0  0  0  0
   11.7118   -6.6407    0.0000 C   0  0  0  0  0  0  0  0  0  0  0  0
   11.7118   -7.4657    0.0000 C   0  0  0  0  0  0  0  0  0  0  0  0
   10.9974   -7.8782    0.0000 C   0  0  0  0  0  0  0  0  0  0  0  0
   10.2829   -7.4657    0.0000 C   0  0  0  0  0  0  0  0  0  0  0  0
   12.4263   -7.8782    0.0000 O   0  0  0  0  0  0  0  0  0  0  0  0
   13.1408   -7.4657    0.0000 C   0  0  0  0  0  0  0  0  0  0  0  0
   12.4263   -6.2282    0.0000 O   0  0  0  0  0  0  0  0  0  0  0  0
   13.1408   -6.6407    0.0000 C   0  0  0  0  0  0  0  0  0  0  0  0
    4.5671   -6.6407    0.0000 C   0  0  0  0  0  0  0  0  0  0  0  0
    3.8526   -6.2282    0.0000 C   0  0  0  0  0  0  0  0  0  0  0  0
    3.1382   -6.6407    0.0000 C   0  0  0  0  0  0  0  0  0  0  0  0
    3.1382   -7.4657    0.0000 C   0  0  0  0  0  0  0  0  0  0  0  0
    3.8526   -7.8782    0.0000 C   0  0  0  0  0  0  0  0  0  0  0  0
    4.5671   -7.4657    0.0000 C   0  0  0  0  0  0  0  0  0  0  0  0
    2.4237   -7.8782    0.0000 O   0  0  0  0  0  0  0  0  0  0  0  0
    1.7092   -7.4657    0.0000 C   0  0  0  0  0  0  0  0  0  0  0  0
    2.4237   -6.2282    0.0000 O   0  0  0  0  0  0  0  0  0  0  0  0
    1.7092   -6.6407    0.0000 C   0  0  0  0  0  0  0  0  0  0  0  0
  1  2  2  0  0  0  0
  2  3  1  0  0  0  0
  3  4  1  0  0  0  0
  4  5  1  0  0  0  0
  5  6  1  0  0  0  0
  6  7  2  0  0  0  0
  3  8  2  0  0  0  0
  5  9  2  0  0  0  0
 10 11  1  0  0  0  0
 11 12  2  0  0  0  0
 12 13  1  0  0  0  0
 13 14  2  0  0  0  0
 14 15  1  0  0  0  0
 10 15  2  0  0  0  0
 16 17  1  0  0  0  0
 13 16  1  0  0  0  0
 18 19  1  0  0  0  0
 12 18  1  0  0  0  0
  7 10  1  0  0  0  0
 20 21  1  0  0  0  0
 21 22  2  0  0  0  0
 22 23  1  0  0  0  0
 23 24  2  0  0  0  0
 24 25  1  0  0  0  0
 20 25  2  0  0  0  0
 26 27  1  0  0  0  0
 23 26  1  0  0  0  0
 28 29  1  0  0  0  0
 22 28  1  0  0  0  0
  1 20  1  0  0  0  0
M  END
>  <cdx:fragmentId>
23

$$$$
