95265.cdx
  Mrv1902 05222410202D          

 36 41  0  0  0  0            999 V2000
    6.8384   -8.2019    0.0000 C   0  0  0  0  0  0  0  0  0  0  0  0
    6.8384   -7.3769    0.0000 C   0  0  0  0  0  0  0  0  0  0  0  0
    6.1239   -6.9644    0.0000 C   0  0  0  0  0  0  0  0  0  0  0  0
    5.4095   -7.3769    0.0000 C   0  0  0  0  0  0  0  0  0  0  0  0
    5.4095   -8.2019    0.0000 C   0  0  0  0  0  0  0  0  0  0  0  0
    4.6950   -8.6144    0.0000 C   0  0  0  0  0  0  0  0  0  0  0  0
    3.9805   -8.2019    0.0000 C   0  0  0  0  0  0  0  0  0  0  0  0
    3.2661   -8.6144    0.0000 C   0  0  0  0  0  0  0  0  0  0  0  0
    3.2661   -9.4394    0.0000 C   0  0  0  0  0  0  0  0  0  0  0  0
    3.9805   -9.8519    0.0000 C   0  0  0  0  0  0  0  0  0  0  0  0
    4.6950   -9.4394    0.0000 C   0  0  0  0  0  0  0  0  0  0  0  0
    5.4095   -9.8519    0.0000 C   0  0  0  0  0  0  0  0  0  0  0  0
    6.1239   -9.4394    0.0000 C   0  0  0  0  0  0  0  0  0  0  0  0
    6.1239   -8.6144    0.0000 C   0  0  0  0  0  0  0  0  0  0  0  0
    7.5529   -8.6144    0.0000 C   0  0  0  0  0  0  0  0  0  0  0  0
    7.5529   -9.4394    0.0000 C   0  0  0  0  0  0  0  0  0  0  0  0
    8.2674   -9.8519    0.0000 C   0  0  0  0  0  0  0  0  0  0  0  0
    8.9818   -9.4394    0.0000 C   0  0  0  0  0  0  0  0  0  0  0  0
    8.9818   -8.6144    0.0000 C   0  0  0  0  0  0  0  0  0  0  0  0
    9.6963   -8.2019    0.0000 C   0  0  0  0  0  0  0  0  0  0  0  0
   10.4108   -8.6144    0.0000 C   0  0  0  0  0  0  0  0  0  0  0  0
   11.1252   -8.2019    0.0000 C   0  0  0  0  0  0  0  0  0  0  0  0
   11.1252   -7.3769    0.0000 C   0  0  0  0  0  0  0  0  0  0  0  0
   10.4108   -6.9644    0.0000 C   0  0  0  0  0  0  0  0  0  0  0  0
    9.6963   -7.3769    0.0000 C   0  0  0  0  0  0  0  0  0  0  0  0
    8.9818   -6.9644    0.0000 C   0  0  0  0  0  0  0  0  0  0  0  0
    8.2674   -7.3769    0.0000 C   0  0  0  0  0  0  0  0  0  0  0  0
    8.2674   -8.2019    0.0000 C   0  0  0  0  0  0  0  0  0  0  0  0
    6.8384   -9.8519    0.0000 O   0  0  0  0  0  0  0  0  0  0  0  0
    6.8384  -10.6769    0.0000 C   0  0  0  0  0  0  0  0  0  0  0  0
    7.5529   -6.9644    0.0000 O   0  0  0  0  0  0  0  0  0  0  0  0
    7.5529   -6.1394    0.0000 C   0  0  0  0  0  0  0  0  0  0  0  0
   11.8397   -6.9644    0.0000 O   0  0  0  0  0  0  0  0  0  0  0  0
    2.5516   -9.8519    0.0000 O   0  0  0  0  0  0  0  0  0  0  0  0
    9.6963   -9.8519    0.0000 O   0  0  0  0  0  0  0  0  0  0  0  0
    4.6950   -6.9644    0.0000 O   0  0  0  0  0  0  0  0  0  0  0  0
  1  2  1  0  0  0  0
  2  3  2  0  0  0  0
  3  4  1  0  0  0  0
  4  5  2  0  0  0  0
  5  6  1  0  0  0  0
  6  7  2  0  0  0  0
  7  8  1  0  0  0  0
  8  9  2  0  0  0  0
  9 10  1  0  0  0  0
 10 11  2  0  0  0  0
  6 11  1  0  0  0  0
 11 12  1  0  0  0  0
 12 13  2  0  0  0  0
 13 14  1  0  0  0  0
  1 14  2  0  0  0  0
  5 14  1  0  0  0  0
 15 16  1  0  0  0  0
 16 17  2  0  0  0  0
 17 18  1  0  0  0  0
 18 19  2  0  0  0  0
 19 20  1  0  0  0  0
 20 21  2  0  0  0  0
 21 22  1  0  0  0  0
 22 23  2  0  0  0  0
 23 24  1  0  0  0  0
 24 25  2  0  0  0  0
 20 25  1  0  0  0  0
 25 26  1  0  0  0  0
 26 27  2  0  0  0  0
 27 28  1  0  0  0  0
 15 28  2  0  0  0  0
 19 28  1  0  0  0  0
  1 15  1  0  0  0  0
 29 30  1  0  0  0  0
 16 29  1  0  0  0  0
 31 32  1  0  0  0  0
  2 31  1  0  0  0  0
 23 33  1  0  0  0  0
  9 34  1  0  0  0  0
 18 35  1  0  0  0  0
  4 36  1  0  0  0  0
M  END
>  <cdx:groupId>
115

>  <cdx:fragmentId>
33

$$$$
