95267.cdx
  Mrv1902 05222410212D          

 20 19  0  0  0  0            999 V2000
    6.4259   -9.8038    0.0000 Cl  0  0  0  0  0  0  0  0  0  0  0  0
    7.8549   -9.8038    0.0000 O   0  0  0  0  0  0  0  0  0  0  0  0
    7.1404   -7.7413    0.0000 O   0  0  0  0  0  0  0  0  0  0  0  0
   12.1422   -8.1545    0.0000 C   0  0  0  0  0  0  0  0  0  0  0  0
   12.1412   -7.3295    0.0000 C   0  0  0  0  0  0  0  0  0  0  0  0
   11.4272   -6.9162    0.0000 C   0  0  0  0  0  0  0  0  0  0  0  0
   10.7127   -7.3287    0.0000 C   0  0  0  0  0  0  0  0  0  0  0  0
    9.9983   -7.7413    0.0000 C   0  0  0  0  0  0  0  0  0  0  0  0
    9.2838   -8.1538    0.0000 C   0  0  0  0  0  0  0  0  0  0  0  0
    8.5693   -8.5663    0.0000 C   0  0  0  0  0  0  0  0  0  0  0  0
    7.8549   -8.9788    0.0000 C   0  0  2  0  0  0  0  0  0  0  0  0
    7.1404   -8.5663    0.0000 C   0  0  2  0  0  0  0  0  0  0  0  0
    6.4259   -8.9788    0.0000 C   0  0  2  0  0  0  0  0  0  0  0  0
    5.7114   -8.5663    0.0000 C   0  0  0  0  0  0  0  0  0  0  0  0
    4.9970   -8.9788    0.0000 C   0  0  0  0  0  0  0  0  0  0  0  0
    4.2825   -8.5663    0.0000 C   0  0  0  0  0  0  0  0  0  0  0  0
    3.5680   -8.9788    0.0000 C   0  0  0  0  0  0  0  0  0  0  0  0
    2.8536   -8.5663    0.0000 C   0  0  0  0  0  0  0  0  0  0  0  0
    2.1391   -8.9788    0.0000 C   0  0  0  0  0  0  0  0  0  0  0  0
    1.4246   -8.5663    0.0000 C   0  0  0  0  0  0  0  0  0  0  0  0
 13  1  1  1  0  0  0
 11  2  1  1  0  0  0
 12  3  1  6  0  0  0
  5  4  1  0  0  0  0
  6  5  2  0  0  0  0
  7  6  1  0  0  0  0
  8  7  3  0  0  0  0
  9  8  1  0  0  0  0
 10  9  3  0  0  0  0
 11 10  1  0  0  0  0
 12 11  1  0  0  0  0
 13 12  1  0  0  0  0
 14 13  1  0  0  0  0
 15 14  1  0  0  0  0
 16 15  1  0  0  0  0
 17 16  1  0  0  0  0
 18 17  1  0  0  0  0
 19 18  1  0  0  0  0
 20 19  2  0  0  0  0
M  END
>  <cdx:fragmentId>
5

$$$$
