95260.cdx
  Mrv1902 05222410222D          

 49 54  0  0  0  0            999 V2000
    4.0366   -9.7012    0.0000 C   0  0  2  0  0  0  0  0  0  0  0  0
    4.0366   -8.8762    0.0000 C   0  0  1  0  0  0  0  0  0  0  0  0
    4.7511   -8.4637    0.0000 C   0  0  0  0  0  0  0  0  0  0  0  0
    4.7511  -10.1137    0.0000 C   0  0  2  0  0  0  0  0  0  0  0  0
    5.1636  -10.8281    0.0000 C   0  0  0  0  0  0  0  0  0  0  0  0
    4.3386  -10.8281    0.0000 C   0  0  0  0  0  0  0  0  0  0  0  0
    5.4655   -9.7012    0.0000 C   0  0  2  0  0  0  0  0  0  0  0  0
    5.4655  -10.5262    0.0000 H   0  0  0  0  0  0  0  0  0  0  0  0
    6.1800  -10.1137    0.0000 C   0  0  0  0  0  0  0  0  0  0  0  0
    6.8945   -9.7012    0.0000 C   0  0  0  0  0  0  0  0  0  0  0  0
    6.8945   -8.8762    0.0000 C   0  0  1  0  0  0  0  0  0  0  0  0
    6.8945   -8.0512    0.0000 C   0  0  0  0  0  0  0  0  0  0  0  0
    7.6089   -8.4637    0.0000 C   0  0  2  0  0  0  0  0  0  0  0  0
    7.6089   -9.2887    0.0000 C   0  0  0  0  0  0  0  0  0  0  0  0
    8.3234   -8.8762    0.0000 C   0  0  0  0  0  0  0  0  0  0  0  0
    9.0379   -8.4637    0.0000 C   0  0  0  0  0  0  0  0  0  0  0  0
    9.0379   -7.6387    0.0000 C   0  0  1  0  0  0  0  0  0  0  0  0
    9.7524   -7.2262    0.0000 C   0  0  0  0  0  0  0  0  0  0  0  0
    9.7524   -6.4012    0.0000 C   0  0  0  0  0  0  0  0  0  0  0  0
    9.0379   -5.9887    0.0000 C   0  0  0  0  0  0  0  0  0  0  0  0
    9.0379   -5.1637    0.0000 C   0  0  0  0  0  0  0  0  0  0  0  0
    8.3234   -6.4012    0.0000 C   0  0  2  0  0  0  0  0  0  0  0  0
    7.6089   -5.9887    0.0000 C   0  0  0  0  0  0  0  0  0  0  0  0
    8.3234   -7.2262    0.0000 C   0  0  1  0  0  0  0  0  0  0  0  0
    7.6089   -7.6387    0.0000 C   0  0  0  0  0  0  0  0  0  0  0  0
    6.8945   -7.2262    0.0000 C   0  0  0  0  0  0  0  0  0  0  0  0
    6.1800   -7.6387    0.0000 C   0  0  0  0  0  0  0  0  0  0  0  0
    6.1800   -8.4637    0.0000 C   0  0  2  0  0  0  0  0  0  0  0  0
    5.4655   -8.8762    0.0000 C   0  0  1  0  0  0  0  0  0  0  0  0
    5.4655   -8.0512    0.0000 C   0  0  0  0  0  0  0  0  0  0  0  0
    3.3221  -10.1137    0.0000 O   0  0  0  0  0  0  0  0  0  0  0  0
    3.3221   -8.4637    0.0000 O   0  0  0  0  0  0  0  0  0  0  0  0
   11.8958  -11.7637    0.0000 O   0  0  0  0  0  0  0  0  0  0  0  0
   11.1813  -11.3512    0.0000 C   0  0  0  0  0  0  0  0  0  0  0  0
   10.4668  -10.1137    0.0000 O   0  0  0  0  0  0  0  0  0  0  0  0
   11.1813  -10.5262    0.0000 C   0  0  1  0  0  0  0  0  0  0  0  0
   12.6102  -10.5262    0.0000 O   0  0  0  0  0  0  0  0  0  0  0  0
   11.8958  -10.1137    0.0000 C   0  0  1  0  0  0  0  0  0  0  0  0
   12.6102   -8.8762    0.0000 O   0  0  0  0  0  0  0  0  0  0  0  0
   11.8958   -9.2887    0.0000 C   0  0  2  0  0  0  0  0  0  0  0  0
   11.1813   -8.0512    0.0000 O   0  0  0  0  0  0  0  0  0  0  0  0
   11.1813   -8.8762    0.0000 C   0  0  1  0  0  0  0  0  0  0  0  0
   10.4668   -9.2887    0.0000 C   0  0  2  0  0  0  0  0  0  0  0  0
    9.7524   -8.8762    0.0000 O   0  0  0  0  0  0  0  0  0  0  0  0
   10.4668   -7.6387    0.0000 O   0  0  0  0  0  0  0  0  0  0  0  0
    9.7524   -8.0512    0.0000 C   0  0  0  0  0  0  0  0  0  0  0  0
    4.7511  -11.5426    0.0000 O   0  0  0  0  0  0  0  0  0  0  0  0
    6.1800   -9.2887    0.0000 H   0  0  0  0  0  0  0  0  0  0  0  0
    8.3234   -8.0512    0.0000 H   0  0  0  0  0  0  0  0  0  0  0  0
 43 44  1  1  0  0  0
 43 35  1  0  0  0  0
 34 33  1  0  0  0  0
 36 34  1  1  0  0  0
 36 35  1  0  0  0  0
 38 36  1  0  0  0  0
 38 37  1  6  0  0  0
 40 38  1  0  0  0  0
 40 39  1  1  0  0  0
 42 40  1  0  0  0  0
 42 41  1  6  0  0  0
 43 42  1  0  0  0  0
 46 44  1  0  0  0  0
 46 45  2  0  0  0  0
  1  2  1  0  0  0  0
  2  3  1  0  0  0  0
  1  4  1  0  0  0  0
  4  5  1  6  0  0  0
  4  6  1  1  0  0  0
  4  7  1  0  0  0  0
  7  8  1  6  0  0  0
  7  9  1  0  0  0  0
  9 10  1  0  0  0  0
 10 11  1  0  0  0  0
 11 12  1  1  0  0  0
 11 13  1  0  0  0  0
 13 14  1  6  0  0  0
 13 15  1  0  0  0  0
 15 16  1  0  0  0  0
 16 17  1  0  0  0  0
 17 46  1  1  0  0  0
 17 18  1  0  0  0  0
 18 19  1  0  0  0  0
 19 20  1  0  0  0  0
 20 21  2  0  0  0  0
 20 22  1  0  0  0  0
 22 23  1  1  0  0  0
 22 24  1  0  0  0  0
 17 24  1  0  0  0  0
 24 25  1  0  0  0  0
 13 25  1  0  0  0  0
 25 26  2  0  0  0  0
 26 27  1  0  0  0  0
 27 28  1  0  0  0  0
 11 28  1  0  0  0  0
 28 29  1  0  0  0  0
  3 29  1  0  0  0  0
  7 29  1  0  0  0  0
 29 30  1  1  0  0  0
  1 31  1  6  0  0  0
  2 32  1  6  0  0  0
  6 47  1  0  0  0  0
 28 48  1  6  0  0  0
 24 49  1  1  0  0  0
M  END
>  <cdx:groupId>
154

>  <cdx:fragmentId>
5

$$$$
