95266.cdx
  Mrv1902 05222410212D          

 35 38  0  0  0  0            999 V2000
   11.5230  -11.3645    0.0000 C   0  0  1  0  0  0  0  0  0  0  0  0
   11.5230  -10.5395    0.0000 C   0  0  0  0  0  0  0  0  0  0  0  0
   12.2375  -10.1270    0.0000 C   0  0  0  0  0  0  0  0  0  0  0  0
   12.2375  -11.7770    0.0000 C   0  0  2  0  0  0  0  0  0  0  0  0
   12.6500  -12.4915    0.0000 C   0  0  0  0  0  0  0  0  0  0  0  0
   11.8250  -12.4915    0.0000 C   0  0  0  0  0  0  0  0  0  0  0  0
   12.9520  -11.3645    0.0000 C   0  0  0  0  0  0  0  0  0  0  0  0
   13.6664  -11.7770    0.0000 C   0  0  0  0  0  0  0  0  0  0  0  0
   14.3809  -11.3645    0.0000 C   0  0  0  0  0  0  0  0  0  0  0  0
   14.3809  -10.5395    0.0000 C   0  0  1  0  0  0  0  0  0  0  0  0
   14.3809   -9.7145    0.0000 C   0  0  0  0  0  0  0  0  0  0  0  0
   15.0954  -10.1270    0.0000 C   0  0  2  0  0  0  0  0  0  0  0  0
   15.0954  -10.9520    0.0000 C   0  0  0  0  0  0  0  0  0  0  0  0
   15.8800  -10.3819    0.0000 C   0  0  0  0  0  0  0  0  0  0  0  0
   16.3649   -9.7145    0.0000 C   0  0  0  0  0  0  0  0  0  0  0  0
   15.8800   -9.0470    0.0000 C   0  0  2  0  0  0  0  0  0  0  0  0
   16.1349   -8.2624    0.0000 C   0  0  0  0  0  0  0  0  0  0  0  0
   16.9419   -8.0909    0.0000 C   0  0  0  0  0  0  0  0  0  0  0  0
   17.1969   -7.3063    0.0000 C   0  0  0  0  0  0  0  0  0  0  0  0
   18.0038   -7.1347    0.0000 C   0  0  0  0  0  0  0  0  0  0  0  0
   15.5829   -7.6493    0.0000 C   0  0  0  0  0  0  0  0  0  0  0  0
   15.0954   -9.3020    0.0000 C   0  0  1  0  0  0  0  0  0  0  0  0
   15.0954   -8.4770    0.0000 H   0  0  0  0  0  0  0  0  0  0  0  0
   14.3809   -8.8895    0.0000 C   0  0  1  0  0  0  0  0  0  0  0  0
   13.6664   -9.3020    0.0000 C   0  0  0  0  0  0  0  0  0  0  0  0
   13.6664  -10.1270    0.0000 C   0  0  2  0  0  0  0  0  0  0  0  0
   12.9520  -10.5395    0.0000 C   0  0  1  0  0  0  0  0  0  0  0  0
   12.9520   -9.7145    0.0000 C   0  0  0  0  0  0  0  0  0  0  0  0
   10.8086  -11.7770    0.0000 O   0  0  0  0  0  0  0  0  0  0  0  0
   14.3809   -8.0645    0.0000 O   0  0  0  0  0  0  0  0  0  0  0  0
   13.6664  -10.9520    0.0000 H   0  0  0  0  0  0  0  0  0  0  0  0
   18.5559   -7.7478    0.0000 C   0  0  0  0  0  0  0  0  0  0  0  0
   18.3009   -8.5325    0.0000 C   0  0  0  0  0  0  0  0  0  0  0  0
   19.3628   -7.5763    0.0000 C   0  0  0  0  0  0  0  0  0  0  0  0
   19.1079   -8.3609    0.0000 O   0  0  0  0  0  0  0  0  0  0  0  0
  1  2  1  0  0  0  0
  2  3  1  0  0  0  0
  1  4  1  0  0  0  0
  4  5  1  6  0  0  0
  4  6  1  1  0  0  0
  4  7  1  0  0  0  0
  7  8  1  0  0  0  0
  8  9  1  0  0  0  0
  9 10  1  0  0  0  0
 10 11  1  1  0  0  0
 10 12  1  0  0  0  0
 12 13  1  6  0  0  0
 12 14  1  0  0  0  0
 14 15  1  0  0  0  0
 15 16  1  0  0  0  0
 16 17  1  1  0  0  0
 17 18  2  0  0  0  0
 18 19  1  0  0  0  0
 19 20  1  0  0  0  0
 17 21  1  0  0  0  0
 16 22  1  0  0  0  0
 12 22  1  0  0  0  0
 22 23  1  1  0  0  0
 22 24  1  0  0  0  0
 24 25  1  0  0  0  0
 25 26  1  0  0  0  0
 10 26  1  0  0  0  0
 26 27  1  0  0  0  0
  3 27  1  0  0  0  0
  7 27  1  0  0  0  0
 27 28  1  1  0  0  0
  1 29  1  1  0  0  0
 24 30  1  1  0  0  0
 26 31  1  6  0  0  0
 20 32  1  0  0  0  0
 32 33  1  0  0  0  0
 32 34  1  0  0  0  0
 32 35  1  0  0  0  0
M  END
>  <cdx:fragmentId>
5

$$$$
