95263.cdx
  Mrv1902 05222410222D          

 16 16  0  0  0  0            999 V2000
    9.8458   -8.0041    0.0000 C   0  0  0  0  0  0  0  0  0  0  0  0
   10.5603   -8.4166    0.0000 C   0  0  0  0  0  0  0  0  0  0  0  0
    9.8458   -7.1791    0.0000 O   0  0  0  0  0  0  0  0  0  0  0  0
    9.1313   -8.4166    0.0000 O   0  0  0  0  0  0  0  0  0  0  0  0
    8.4168   -8.0041    0.0000 C   0  0  0  0  0  0  0  0  0  0  0  0
    7.7024   -8.4166    0.0000 C   0  0  0  0  0  0  0  0  0  0  0  0
    6.9879   -8.0041    0.0000 C   0  0  0  0  0  0  0  0  0  0  0  0
    6.2734   -8.4166    0.0000 C   0  0  0  0  0  0  0  0  0  0  0  0
    5.5590   -8.0041    0.0000 C   0  0  0  0  0  0  0  0  0  0  0  0
    4.8445   -8.4166    0.0000 C   0  0  0  0  0  0  0  0  0  0  0  0
    4.1300   -8.0041    0.0000 O   0  0  0  0  0  0  0  0  0  0  0  0
    4.8445   -9.2416    0.0000 C   0  0  0  0  0  0  0  0  0  0  0  0
    4.1300   -9.6541    0.0000 O   0  0  0  0  0  0  0  0  0  0  0  0
    5.5590   -9.6541    0.0000 C   0  0  0  0  0  0  0  0  0  0  0  0
    6.2734   -9.2416    0.0000 C   0  0  0  0  0  0  0  0  0  0  0  0
    8.4168   -7.1791    0.0000 O   0  0  0  0  0  0  0  0  0  0  0  0
  1  2  1  0  0  0  0
  1  3  2  0  0  0  0
  1  4  1  0  0  0  0
  5  6  1  0  0  0  0
  6  7  2  0  0  0  0
  7  8  1  0  0  0  0
  8  9  1  0  0  0  0
  9 10  2  0  0  0  0
 10 11  1  0  0  0  0
 10 12  1  0  0  0  0
 12 13  1  0  0  0  0
 12 14  2  0  0  0  0
 14 15  1  0  0  0  0
  8 15  2  0  0  0  0
  5 16  2  0  0  0  0
  4  5  1  0  0  0  0
M  END
>  <cdx:groupId>
50

>  <cdx:fragmentId>
13

$$$$
