95261.cdx
  Mrv1902 05222410232D          

 66 73  0  0  0  0            999 V2000
   12.2358  -10.6150    0.0000 C   0  0  1  0  0  0  0  0  0  0  0  0
   12.2358   -9.7900    0.0000 C   0  0  0  0  0  0  0  0  0  0  0  0
   12.9503   -9.3775    0.0000 C   0  0  0  0  0  0  0  0  0  0  0  0
   12.9503  -11.0275    0.0000 C   0  0  0  0  0  0  0  0  0  0  0  0
   13.6647  -10.6150    0.0000 C   0  0  0  0  0  0  0  0  0  0  0  0
   14.3792  -11.0275    0.0000 C   0  0  0  0  0  0  0  0  0  0  0  0
   15.0937  -10.6150    0.0000 C   0  0  0  0  0  0  0  0  0  0  0  0
   15.0937   -9.7900    0.0000 C   0  0  1  0  0  0  0  0  0  0  0  0
   15.8082   -9.3775    0.0000 C   0  0  2  0  0  0  0  0  0  0  0  0
   16.5928   -9.6324    0.0000 C   0  0  0  0  0  0  0  0  0  0  0  0
   17.0777   -8.9650    0.0000 C   0  0  2  0  0  0  0  0  0  0  0  0
   17.5626   -9.6324    0.0000 H   0  0  0  0  0  0  0  0  0  0  0  0
   17.8623   -8.7101    0.0000 O   0  0  0  0  0  0  0  0  0  0  0  0
   16.5928   -8.2976    0.0000 C   0  0  2  0  0  0  0  0  0  0  0  0
   16.2311   -7.5561    0.0000 H   0  0  0  0  0  0  0  0  0  0  0  0
   17.0777   -7.6301    0.0000 C   0  0  1  0  0  0  0  0  0  0  0  0
   17.8623   -7.8851    0.0000 C   0  0  0  0  0  0  0  0  0  0  0  0
   18.6828   -7.7988    0.0000 C   0  0  0  0  0  0  0  0  0  0  0  0
   19.1677   -8.4663    0.0000 C   0  0  0  0  0  0  0  0  0  0  0  0
   19.9882   -8.3800    0.0000 C   0  0  2  0  0  0  0  0  0  0  0  0
   20.4731   -9.0475    0.0000 C   0  0  0  0  0  0  0  0  0  0  0  0
   15.8082   -8.5525    0.0000 C   0  0  2  0  0  0  0  0  0  0  0  0
   15.8082   -7.7275    0.0000 C   0  0  0  0  0  0  0  0  0  0  0  0
   15.0937   -8.1400    0.0000 C   0  0  0  0  0  0  0  0  0  0  0  0
   14.3792   -8.5525    0.0000 C   0  0  0  0  0  0  0  0  0  0  0  0
   14.3792   -9.3775    0.0000 C   0  0  2  0  0  0  0  0  0  0  0  0
   13.6647   -9.7900    0.0000 C   0  0  1  0  0  0  0  0  0  0  0  0
   13.6647   -8.9650    0.0000 C   0  0  0  0  0  0  0  0  0  0  0  0
   14.3792  -10.2025    0.0000 H   0  0  0  0  0  0  0  0  0  0  0  0
   15.0937   -8.9650    0.0000 H   0  0  0  0  0  0  0  0  0  0  0  0
   15.8082  -10.2025    0.0000 H   0  0  0  0  0  0  0  0  0  0  0  0
   11.5213  -11.0275    0.0000 O   0  0  0  0  0  0  0  0  0  0  0  0
   10.0921   -9.3633    0.0000 C   0  0  2  0  0  0  0  0  0  0  0  0
    9.3759   -9.7729    0.0000 C   0  0  2  0  0  0  0  0  0  0  0  0
    9.3726  -10.5978    0.0000 C   0  0  1  0  0  0  0  0  0  0  0  0
   10.0853  -11.0133    0.0000 C   0  0  2  0  0  0  0  0  0  0  0  0
   10.8015  -10.6037    0.0000 C   0  0  1  0  0  0  0  0  0  0  0  0
   10.8049   -9.7787    0.0000 O   0  0  0  0  0  0  0  0  0  0  0  0
   10.0955   -8.5383    0.0000 C   0  0  0  0  0  0  0  0  0  0  0  0
    8.6564  -11.0074    0.0000 O   0  0  0  0  0  0  0  0  0  0  0  0
    8.6632   -9.3574    0.0000 O   0  0  0  0  0  0  0  0  0  0  0  0
   10.0820  -11.8383    0.0000 O   0  0  0  0  0  0  0  0  0  0  0  0
    9.3810   -8.1258    0.0000 O   0  0  0  0  0  0  0  0  0  0  0  0
   21.2936   -8.9612    0.0000 O   0  0  0  0  0  0  0  0  0  0  0  0
   21.7785   -9.6287    0.0000 C   0  0  2  0  0  0  0  0  0  0  0  0
   21.4430  -10.3823    0.0000 O   0  0  0  0  0  0  0  0  0  0  0  0
   21.9279  -11.0498    0.0000 C   0  0  1  0  0  0  0  0  0  0  0  0
   22.7484  -10.9635    0.0000 C   0  0  2  0  0  0  0  0  0  0  0  0
   23.0839  -10.2099    0.0000 C   0  0  1  0  0  0  0  0  0  0  0  0
   22.5990   -9.5424    0.0000 C   0  0  1  0  0  0  0  0  0  0  0  0
   21.5923  -11.8035    0.0000 C   0  0  0  0  0  0  0  0  0  0  0  0
   23.9044  -10.1236    0.0000 O   0  0  0  0  0  0  0  0  0  0  0  0
   22.9346   -8.7888    0.0000 O   0  0  0  0  0  0  0  0  0  0  0  0
   23.2333  -11.6310    0.0000 O   0  0  0  0  0  0  0  0  0  0  0  0
   22.0773  -12.4709    0.0000 O   0  0  0  0  0  0  0  0  0  0  0  0
   20.3238   -7.6263    0.0000 C   0  0  0  0  0  0  0  0  0  0  0  0
   16.8228   -6.8455    0.0000 C   0  0  0  0  0  0  0  0  0  0  0  0
    7.8384   -9.3381    0.0000 C   0  0  2  0  0  0  0  0  0  0  0  0
    7.4457   -8.6126    0.0000 O   0  0  0  0  0  0  0  0  0  0  0  0
    6.6150   -8.5999    0.0000 C   0  0  0  0  0  0  0  0  0  0  0  0
    6.1887   -9.3062    0.0000 C   0  0  2  0  0  0  0  0  0  0  0  0
    6.5872  -10.0353    0.0000 C   0  0  1  0  0  0  0  0  0  0  0  0
    7.4122  -10.0445    0.0000 C   0  0  1  0  0  0  0  0  0  0  0  0
    5.3639   -9.2886    0.0000 O   0  0  0  0  0  0  0  0  0  0  0  0
    6.1624  -10.7425    0.0000 O   0  0  0  0  0  0  0  0  0  0  0  0
    7.8137  -10.7651    0.0000 O   0  0  0  0  0  0  0  0  0  0  0  0
  1  2  1  0  0  0  0
  2  3  1  0  0  0  0
  1  4  1  0  0  0  0
  4  5  1  0  0  0  0
  5  6  1  0  0  0  0
  6  7  1  0  0  0  0
  7  8  1  0  0  0  0
  8  9  1  0  0  0  0
  9 10  1  0  0  0  0
 10 11  1  0  0  0  0
 11 12  1  6  0  0  0
 11 13  1  0  0  0  0
 11 14  1  0  0  0  0
 14 15  1  6  0  0  0
 14 16  1  0  0  0  0
 16 17  1  0  0  0  0
 13 17  1  0  0  0  0
 17 18  1  0  0  0  0
 18 19  1  0  0  0  0
 19 20  1  0  0  0  0
 20 21  1  0  0  0  0
 14 22  1  0  0  0  0
  9 22  1  0  0  0  0
 22 23  1  1  0  0  0
 22 24  1  0  0  0  0
 24 25  1  0  0  0  0
 25 26  1  0  0  0  0
  8 26  1  0  0  0  0
 26 27  1  0  0  0  0
  3 27  1  0  0  0  0
  5 27  1  0  0  0  0
 27 28  1  1  0  0  0
 26 29  1  6  0  0  0
  8 30  1  1  0  0  0
  9 31  1  6  0  0  0
  1 32  1  1  0  0  0
 33 34  1  0  0  0  0
 34 35  1  0  0  0  0
 35 36  1  0  0  0  0
 36 37  1  0  0  0  0
 37 38  1  0  0  0  0
 38 33  1  0  0  0  0
 33 39  1  1  0  0  0
 35 40  1  1  0  0  0
 34 41  1  6  0  0  0
 36 42  1  6  0  0  0
 39 43  1  0  0  0  0
 37 32  1  1  0  0  0
 21 44  1  0  0  0  0
 45 44  1  1  0  0  0
 45 46  1  0  0  0  0
 46 47  1  0  0  0  0
 47 48  1  0  0  0  0
 48 49  1  0  0  0  0
 49 50  1  0  0  0  0
 50 45  1  0  0  0  0
 47 51  1  1  0  0  0
 49 52  1  1  0  0  0
 50 53  1  6  0  0  0
 48 54  1  6  0  0  0
 51 55  1  0  0  0  0
 20 56  1  1  0  0  0
 16 57  1  6  0  0  0
 58 41  1  1  0  0  0
 58 59  1  0  0  0  0
 59 60  1  0  0  0  0
 60 61  1  0  0  0  0
 61 62  1  0  0  0  0
 62 63  1  0  0  0  0
 63 58  1  0  0  0  0
 61 64  1  6  0  0  0
 62 65  1  1  0  0  0
 63 66  1  6  0  0  0
M  END
>  <cdx:fragmentId>
5

$$$$
