95271.cdx
  Mrv1902 05222410202D          

 38 41  0  0  0  0            999 V2000
    6.7472   -8.0021    0.0000 O   0  0  0  0  0  0  0  0  0  0  0  0
    6.7382   -7.1772    0.0000 C   0  0  1  0  0  0  0  0  0  0  0  0
    6.0192   -6.7725    0.0000 C   0  0  1  0  0  0  0  0  0  0  0  0
    6.0102   -5.9476    0.0000 C   0  0  1  0  0  0  0  0  0  0  0  0
    5.2912   -5.5429    0.0000 O   0  0  0  0  0  0  0  0  0  0  0  0
    6.7201   -5.5273    0.0000 C   0  0  2  0  0  0  0  0  0  0  0  0
    6.7110   -4.7023    0.0000 O   0  0  0  0  0  0  0  0  0  0  0  0
    7.4390   -5.9319    0.0000 C   0  0  2  0  0  0  0  0  0  0  0  0
    7.4481   -6.7569    0.0000 O   0  0  0  0  0  0  0  0  0  0  0  0
    8.1489   -5.5116    0.0000 C   0  0  0  0  0  0  0  0  0  0  0  0
    8.1399   -4.6866    0.0000 O   0  0  0  0  0  0  0  0  0  0  0  0
   11.0338   -7.9551    0.0000 C   0  0  0  0  0  0  0  0  0  0  0  0
   11.7527   -8.3598    0.0000 C   0  0  2  0  0  0  0  0  0  0  0  0
   12.4626   -7.9395    0.0000 C   0  0  0  0  0  0  0  0  0  0  0  0
    3.8533   -4.7336    0.0000 C   0  0  0  0  0  0  0  0  0  0  0  0
    4.5813   -5.9632    0.0000 O   0  0  0  0  0  0  0  0  0  0  0  0
    3.8624   -5.5586    0.0000 C   0  0  1  0  0  0  0  0  0  0  0  0
    2.4335   -5.5742    0.0000 O   0  0  0  0  0  0  0  0  0  0  0  0
    3.1525   -5.9789    0.0000 C   0  0  2  0  0  0  0  0  0  0  0  0
    2.4516   -7.2241    0.0000 O   0  0  0  0  0  0  0  0  0  0  0  0
    3.1615   -6.8038    0.0000 C   0  0  2  0  0  0  0  0  0  0  0  0
    3.8895   -8.0334    0.0000 O   0  0  0  0  0  0  0  0  0  0  0  0
    3.8804   -7.2085    0.0000 C   0  0  1  0  0  0  0  0  0  0  0  0
    4.5904   -6.7882    0.0000 C   0  0  2  0  0  0  0  0  0  0  0  0
    5.3093   -7.1928    0.0000 O   0  0  0  0  0  0  0  0  0  0  0  0
   11.7618   -9.1847    0.0000 O   0  0  0  0  0  0  0  0  0  0  0  0
    8.2032  -10.4613    0.0000 C   0  0  0  0  0  0  0  0  0  0  0  0
    9.6049   -7.9708    0.0000 O   0  0  0  0  0  0  0  0  0  0  0  0
    8.8950   -8.3911    0.0000 C   0  0  0  0  0  0  0  0  0  0  0  0
    8.1761   -7.9865    0.0000 C   0  0  0  0  0  0  0  0  0  0  0  0
    7.4661   -8.4068    0.0000 C   0  0  0  0  0  0  0  0  0  0  0  0
    7.4752   -9.2317    0.0000 C   0  0  0  0  0  0  0  0  0  0  0  0
    8.1941   -9.6364    0.0000 C   0  0  0  0  0  0  0  0  0  0  0  0
    8.9040   -9.2160    0.0000 C   0  0  0  0  0  0  0  0  0  0  0  0
    9.6320  -10.4456    0.0000 O   0  0  0  0  0  0  0  0  0  0  0  0
    9.6230   -9.6207    0.0000 C   0  0  0  0  0  0  0  0  0  0  0  0
   10.3329   -9.2004    0.0000 C   0  0  0  0  0  0  0  0  0  0  0  0
   10.3239   -8.3754    0.0000 C   0  0  0  0  0  0  0  0  0  0  0  0
 31  1  1  0  0  0  0
 24 25  1  1  0  0  0
 24 16  1  0  0  0  0
 17 15  1  1  0  0  0
 17 16  1  0  0  0  0
 19 17  1  0  0  0  0
 19 18  1  1  0  0  0
 21 19  1  0  0  0  0
 21 20  1  1  0  0  0
 23 21  1  0  0  0  0
 23 22  1  6  0  0  0
 24 23  1  0  0  0  0
  2  1  1  1  0  0  0
 38 12  1  0  0  0  0
 33 27  1  0  0  0  0
 38 28  1  0  0  0  0
 29 28  1  0  0  0  0
 34 29  2  0  0  0  0
 30 29  1  0  0  0  0
 31 30  2  0  0  0  0
 32 31  1  0  0  0  0
 33 32  2  0  0  0  0
 34 33  1  0  0  0  0
 36 34  1  0  0  0  0
 36 35  2  0  0  0  0
 37 36  1  0  0  0  0
 38 37  2  0  0  0  0
  2  3  1  0  0  0  0
  3 25  1  6  0  0  0
  3  4  1  0  0  0  0
  4  5  1  1  0  0  0
  4  6  1  0  0  0  0
  6  7  1  6  0  0  0
  6  8  1  0  0  0  0
  8  9  1  0  0  0  0
  8 10  1  1  0  0  0
 10 11  1  0  0  0  0
  2  9  1  0  0  0  0
 12 13  1  0  0  0  0
 13 14  1  0  0  0  0
 13 26  1  6  0  0  0
M  END
>  <cdx:groupId>
119

>  <cdx:fragmentId>
35

$$$$
