95276.cdx
  Mrv1902 05222410222D          

 40 46  0  0  0  0            999 V2000
    3.6556   -8.3875    0.0000 C   0  0  0  0  0  0  0  0  0  0  0  0
    3.6556   -9.2125    0.0000 C   0  0  0  0  0  0  0  0  0  0  0  0
    4.3700   -9.6250    0.0000 C   0  0  0  0  0  0  0  0  0  0  0  0
    5.0845   -9.2125    0.0000 C   0  0  0  0  0  0  0  0  0  0  0  0
    5.0845   -8.3875    0.0000 C   0  0  2  0  0  0  0  0  0  0  0  0
    4.3700   -7.9750    0.0000 C   0  0  0  0  0  0  0  0  0  0  0  0
    5.7990   -9.6250    0.0000 C   0  0  0  0  0  0  0  0  0  0  0  0
    6.5134   -9.2125    0.0000 C   0  0  1  0  0  0  0  0  0  0  0  0
    6.5134   -8.3875    0.0000 C   0  0  0  0  0  0  0  0  0  0  0  0
    5.7990   -7.9750    0.0000 C   0  0  2  0  0  0  0  0  0  0  0  0
    7.2279   -7.9750    0.0000 C   0  0  2  0  0  0  0  0  0  0  0  0
    7.2279   -7.1500    0.0000 C   0  0  2  0  0  0  0  0  0  0  0  0
    6.5134   -6.7375    0.0000 C   0  0  0  0  0  0  0  0  0  0  0  0
    5.7990   -7.1500    0.0000 C   0  0  0  0  0  0  0  0  0  0  0  0
    8.0125   -8.2299    0.0000 C   0  0  0  0  0  0  0  0  0  0  0  0
    8.4975   -7.5625    0.0000 C   0  0  0  0  0  0  0  0  0  0  0  0
    8.0125   -6.8951    0.0000 C   0  0  2  0  0  0  0  0  0  0  0  0
    4.3700   -7.1500    0.0000 O   0  0  0  0  0  0  0  0  0  0  0  0
    7.2279   -9.6250    0.0000 O   0  0  0  0  0  0  0  0  0  0  0  0
    8.2675   -9.0146    0.0000 O   0  0  0  0  0  0  0  0  0  0  0  0
    6.8154   -6.4355    0.0000 C   0  0  0  0  0  0  0  0  0  0  0  0
    7.2279   -5.7211    0.0000 O   0  0  0  0  0  0  0  0  0  0  0  0
    6.0185   -6.2220    0.0000 O   0  0  0  0  0  0  0  0  0  0  0  0
    8.2675   -6.1104    0.0000 C   0  0  1  0  0  0  0  0  0  0  0  0
    9.0925   -6.1104    0.0000 C   0  0  1  0  0  0  0  0  0  0  0  0
    9.2943   -7.3490    0.0000 C   0  0  2  0  0  0  0  0  0  0  0  0
    9.6758   -6.6938    0.0000 C   0  0  0  0  0  0  0  0  0  0  0  0
    9.9175   -6.1104    0.0000 O   0  0  0  0  0  0  0  0  0  0  0  0
   10.0912   -7.1354    0.0000 C   0  0  1  0  0  0  0  0  0  0  0  0
   10.5008   -6.6938    0.0000 C   0  0  0  0  0  0  0  0  0  0  0  0
   11.3257   -6.6783    0.0000 O   0  0  0  0  0  0  0  0  0  0  0  0
    5.0845   -7.5625    0.0000 C   0  0  0  0  0  0  0  0  0  0  0  0
    7.2279   -8.8000    0.0000 O   0  0  0  0  0  0  0  0  0  0  0  0
    9.0925   -5.2854    0.0000 H   0  0  0  0  0  0  0  0  0  0  0  0
    9.5079   -8.1459    0.0000 C   0  0  0  0  0  0  0  0  0  0  0  0
   10.5171   -7.8420    0.0000 C   0  0  0  0  0  0  0  0  0  0  0  0
    5.7990   -8.8000    0.0000 H   0  0  0  0  0  0  0  0  0  0  0  0
    6.4310   -7.3635    0.0000 O   0  0  0  0  0  0  0  0  0  0  0  0
    8.0125   -7.7201    0.0000 O   0  0  0  0  0  0  0  0  0  0  0  0
    8.4145   -5.2986    0.0000 C   0  0  0  0  0  0  0  0  0  0  0  0
  1  2  1  0  0  0  0
  2  3  2  0  0  0  0
  3  4  1  0  0  0  0
  4  5  1  0  0  0  0
  5  6  1  0  0  0  0
  6  1  1  0  0  0  0
  4  7  2  0  0  0  0
  7  8  1  0  0  0  0
  8  9  1  0  0  0  0
  9 10  1  0  0  0  0
 10  5  1  0  0  0  0
  9 11  1  0  0  0  0
 12 13  1  0  0  0  0
 13 14  1  0  0  0  0
 14 10  1  0  0  0  0
 11 15  1  0  0  0  0
 15 16  1  0  0  0  0
 16 17  1  0  0  0  0
 17 12  1  0  0  0  0
  6 18  2  0  0  0  0
  8 19  1  1  0  0  0
 15 20  2  0  0  0  0
 12 21  1  1  0  0  0
 21 22  1  0  0  0  0
 21 23  2  0  0  0  0
 17 24  1  0  0  0  0
 22 24  1  0  0  0  0
 24 25  1  0  0  0  0
 16 26  1  0  0  0  0
 25 27  1  1  0  0  0
 26 27  1  1  0  0  0
 25 28  1  0  0  0  0
 26 29  1  0  0  0  0
 28 30  1  0  0  0  0
 29 30  1  0  0  0  0
 30 31  2  0  0  0  0
  5 32  1  1  0  0  0
 11 33  1  1  0  0  0
 25 34  1  1  0  0  0
 26 35  1  1  0  0  0
 29 36  1  1  0  0  0
 10 37  1  6  0  0  0
 12 38  1  6  0  0  0
 17 39  1  6  0  0  0
 11 39  1  6  0  0  0
 24 40  1  6  0  0  0
M  END
>  <cdx:fragmentId>
5

$$$$
