95279.cdx
  Mrv1902 05222410232D          

 16 15  0  0  0  0            999 V2000
    9.5468   -8.5234    0.0000 C   0  0  0  0  0  0  0  0  0  0  0  0
    8.8323   -8.9359    0.0000 C   0  0  0  0  0  0  0  0  0  0  0  0
    8.1179   -8.5234    0.0000 C   0  0  0  0  0  0  0  0  0  0  0  0
    7.4034   -8.9359    0.0000 C   0  0  0  0  0  0  0  0  0  0  0  0
    6.6889   -8.5234    0.0000 C   0  0  0  0  0  0  0  0  0  0  0  0
    5.9745   -8.9359    0.0000 C   0  0  0  0  0  0  0  0  0  0  0  0
    5.2600   -8.5234    0.0000 C   0  0  0  0  0  0  0  0  0  0  0  0
    4.5455   -8.9359    0.0000 C   0  0  0  0  0  0  0  0  0  0  0  0
    3.8310   -8.5234    0.0000 C   0  0  0  0  0  0  0  0  0  0  0  0
    9.5468   -7.6984    0.0000 O   0  0  0  0  0  0  0  0  0  0  0  0
   10.2613   -8.9359    0.0000 O   0  0  0  0  0  0  0  0  0  0  0  0
    6.6889   -7.6984    0.0000 C   0  0  0  0  0  0  0  0  0  0  0  0
    7.4034   -7.2859    0.0000 O   0  0  0  0  0  0  0  0  0  0  0  0
    5.9745   -7.2859    0.0000 C   0  0  0  0  0  0  0  0  0  0  0  0
    7.8159   -9.6504    0.0000 C   0  0  0  0  0  0  0  0  0  0  0  0
    6.9909   -9.6504    0.0000 C   0  0  0  0  0  0  0  0  0  0  0  0
  1  2  1  0  0  0  0
  2  3  1  0  0  0  0
  3  4  1  0  0  0  0
  4  5  1  0  0  0  0
  5  6  2  0  0  0  0
  6  7  1  0  0  0  0
  7  8  2  0  0  0  0
  8  9  1  0  0  0  0
  1 10  2  0  0  0  0
  1 11  1  0  0  0  0
 12 13  2  0  0  0  0
 12 14  1  0  0  0  0
  5 12  1  0  0  0  0
  4 15  1  0  0  0  0
  4 16  1  0  0  0  0
M  END
>  <cdx:groupId>
49

>  <cdx:fragmentId>
5

$$$$
