95278.cdx
  Mrv1902 05222410232D          

 41 45  0  0  0  0            999 V2000
    6.4812   -9.0354    0.0000 C   0  0  0  0  0  0  0  0  0  0  0  0
    6.4812   -9.8604    0.0000 C   0  0  0  0  0  0  0  0  0  0  0  0
    5.7667  -10.2729    0.0000 C   0  0  0  0  0  0  0  0  0  0  0  0
    5.7667  -11.0979    0.0000 O   0  0  0  0  0  0  0  0  0  0  0  0
    5.0522   -9.8604    0.0000 C   0  0  0  0  0  0  0  0  0  0  0  0
    4.3378  -10.2729    0.0000 C   0  0  0  0  0  0  0  0  0  0  0  0
    4.3378  -11.0979    0.0000 O   0  0  0  0  0  0  0  0  0  0  0  0
    3.6233   -9.8604    0.0000 C   0  0  0  0  0  0  0  0  0  0  0  0
    3.6233   -9.0354    0.0000 C   0  0  0  0  0  0  0  0  0  0  0  0
    2.9088   -8.6229    0.0000 O   0  0  0  0  0  0  0  0  0  0  0  0
    4.3378   -8.6229    0.0000 C   0  0  0  0  0  0  0  0  0  0  0  0
    5.0522   -9.0354    0.0000 C   0  0  0  0  0  0  0  0  0  0  0  0
    5.7667   -8.6229    0.0000 O   0  0  0  0  0  0  0  0  0  0  0  0
    7.1956  -10.2729    0.0000 C   0  0  0  0  0  0  0  0  0  0  0  0
    7.9101   -9.8604    0.0000 C   0  0  0  0  0  0  0  0  0  0  0  0
    8.6246  -10.2729    0.0000 C   0  0  0  0  0  0  0  0  0  0  0  0
    8.6246  -11.0979    0.0000 C   0  0  0  0  0  0  0  0  0  0  0  0
    9.3391  -11.5104    0.0000 O   0  0  0  0  0  0  0  0  0  0  0  0
    7.9101  -11.5104    0.0000 C   0  0  0  0  0  0  0  0  0  0  0  0
    7.1956  -11.0979    0.0000 C   0  0  0  0  0  0  0  0  0  0  0  0
    4.3378   -7.7979    0.0000 O   0  0  0  0  0  0  0  0  0  0  0  0
    5.0522   -7.3854    0.0000 C   0  0  0  0  0  0  0  0  0  0  0  0
    5.0522   -6.5604    0.0000 C   0  0  2  0  0  0  0  0  0  0  0  0
    4.3378   -6.1479    0.0000 O   0  0  0  0  0  0  0  0  0  0  0  0
    5.7667   -6.1479    0.0000 C   0  0  1  0  0  0  0  0  0  0  0  0
    5.7667   -5.3229    0.0000 O   0  0  0  0  0  0  0  0  0  0  0  0
    6.4812   -6.5604    0.0000 C   0  0  2  0  0  0  0  0  0  0  0  0
    7.1956   -6.1479    0.0000 O   0  0  0  0  0  0  0  0  0  0  0  0
    6.4812   -7.3854    0.0000 C   0  0  2  0  0  0  0  0  0  0  0  0
    5.7667   -7.7979    0.0000 O   0  0  0  0  0  0  0  0  0  0  0  0
    7.1956   -7.7979    0.0000 C   0  0  0  0  0  0  0  0  0  0  0  0
    7.9101   -7.3854    0.0000 O   0  0  0  0  0  0  0  0  0  0  0  0
    9.6906   -8.5852    0.0000 C   0  0  0  0  0  0  0  0  0  0  0  0
   10.0131   -7.8258    0.0000 C   0  0  1  0  0  0  0  0  0  0  0  0
    9.3906   -7.2844    0.0000 C   0  0  2  0  0  0  0  0  0  0  0  0
    8.6833   -7.7092    0.0000 C   0  0  1  0  0  0  0  0  0  0  0  0
    8.8688   -8.5131    0.0000 O   0  0  0  0  0  0  0  0  0  0  0  0
   10.8300   -7.9408    0.0000 C   0  0  0  0  0  0  0  0  0  0  0  0
   11.1390   -8.7058    0.0000 O   0  0  0  0  0  0  0  0  0  0  0  0
   10.5211   -7.1758    0.0000 O   0  0  0  0  0  0  0  0  0  0  0  0
    9.4626   -6.4626    0.0000 O   0  0  0  0  0  0  0  0  0  0  0  0
  1  2  2  0  0  0  0
  2  3  1  0  0  0  0
  3  4  2  0  0  0  0
  3  5  1  0  0  0  0
  5  6  1  0  0  0  0
  6  7  1  0  0  0  0
  6  8  2  0  0  0  0
  8  9  1  0  0  0  0
  9 10  1  0  0  0  0
  9 11  2  0  0  0  0
 11 12  1  0  0  0  0
  5 12  2  0  0  0  0
 12 13  1  0  0  0  0
  1 13  1  0  0  0  0
  2 14  1  0  0  0  0
 14 15  1  0  0  0  0
 15 16  2  0  0  0  0
 16 17  1  0  0  0  0
 17 18  1  0  0  0  0
 17 19  2  0  0  0  0
 19 20  1  0  0  0  0
 14 20  2  0  0  0  0
 21 22  1  0  0  0  0
 22 23  1  0  0  0  0
 23 24  1  6  0  0  0
 23 25  1  0  0  0  0
 25 26  1  1  0  0  0
 25 27  1  0  0  0  0
 27 28  1  6  0  0  0
 27 29  1  0  0  0  0
 29 30  1  0  0  0  0
 29 31  1  1  0  0  0
 31 32  1  0  0  0  0
 22 30  1  0  0  0  0
 11 21  1  0  0  0  0
 33 34  1  0  0  0  0
 34 35  1  0  0  0  0
 35 36  1  0  0  0  0
 36 37  1  0  0  0  0
 37 33  1  0  0  0  0
 34 38  1  0  0  0  0
 38 39  1  0  0  0  0
 34 40  1  6  0  0  0
 35 41  1  6  0  0  0
 36 32  1  1  0  0  0
M  END
>  <cdx:groupId>
128

>  <cdx:fragmentId>
45

$$$$
