95270.cdx
  Mrv1902 05222410212D          

 27 28  0  0  0  0            999 V2000
    6.0031   -8.0178    0.0000 C   0  0  0  0  0  0  0  0  0  0  0  0
    6.7105   -8.4423    0.0000 C   0  0  0  0  0  0  0  0  0  0  0  0
    7.4319   -8.0419    0.0000 C   0  0  0  0  0  0  0  0  0  0  0  0
    6.0171   -7.1929    0.0000 O   0  0  0  0  0  0  0  0  0  0  0  0
    5.2818   -8.4182    0.0000 C   0  0  0  0  0  0  0  0  0  0  0  0
    4.5744   -7.9937    0.0000 C   0  0  0  0  0  0  0  0  0  0  0  0
    3.8531   -8.3940    0.0000 C   0  0  0  0  0  0  0  0  0  0  0  0
    3.8391   -9.2189    0.0000 C   0  0  0  0  0  0  0  0  0  0  0  0
    4.5465   -9.6434    0.0000 C   0  0  0  0  0  0  0  0  0  0  0  0
    5.2679   -9.2431    0.0000 C   0  0  0  0  0  0  0  0  0  0  0  0
    4.5326  -10.4683    0.0000 O   0  0  0  0  0  0  0  0  0  0  0  0
    3.8113  -10.8687    0.0000 C   0  0  0  0  0  0  0  0  0  0  0  0
    3.1457   -7.9695    0.0000 O   0  0  0  0  0  0  0  0  0  0  0  0
    2.4243   -8.3699    0.0000 C   0  0  0  0  0  0  0  0  0  0  0  0
    3.1178   -9.6193    0.0000 O   0  0  0  0  0  0  0  0  0  0  0  0
    8.1393   -8.4665    0.0000 O   0  0  0  0  0  0  0  0  0  0  0  0
    8.8606   -8.0661    0.0000 C   0  0  1  0  0  0  0  0  0  0  0  0
    8.8746   -7.2412    0.0000 C   0  0  2  0  0  0  0  0  0  0  0  0
    8.1672   -6.8167    0.0000 O   0  0  0  0  0  0  0  0  0  0  0  0
    9.5959   -6.8408    0.0000 C   0  0  1  0  0  0  0  0  0  0  0  0
    9.6098   -6.0159    0.0000 O   0  0  0  0  0  0  0  0  0  0  0  0
   10.3033   -7.2653    0.0000 C   0  0  2  0  0  0  0  0  0  0  0  0
   11.0246   -6.8650    0.0000 O   0  0  0  0  0  0  0  0  0  0  0  0
   10.2894   -8.0902    0.0000 C   0  0  2  0  0  0  0  0  0  0  0  0
    9.5680   -8.4906    0.0000 O   0  0  0  0  0  0  0  0  0  0  0  0
   10.9968   -8.5147    0.0000 C   0  0  0  0  0  0  0  0  0  0  0  0
   11.7181   -8.1144    0.0000 O   0  0  0  0  0  0  0  0  0  0  0  0
  1  2  1  0  0  0  0
  2  3  1  0  0  0  0
  1  4  2  0  0  0  0
  5  6  1  0  0  0  0
  6  7  2  0  0  0  0
  7  8  1  0  0  0  0
  8  9  2  0  0  0  0
  9 10  1  0  0  0  0
  5 10  2  0  0  0  0
 11 12  1  0  0  0  0
  9 11  1  0  0  0  0
 13 14  1  0  0  0  0
  7 13  1  0  0  0  0
  8 15  1  0  0  0  0
  1  5  1  0  0  0  0
 17 18  1  0  0  0  0
 18 19  1  6  0  0  0
 18 20  1  0  0  0  0
 20 21  1  1  0  0  0
 20 22  1  0  0  0  0
 22 23  1  6  0  0  0
 22 24  1  0  0  0  0
 24 25  1  0  0  0  0
 24 26  1  1  0  0  0
 26 27  1  0  0  0  0
 17 25  1  0  0  0  0
 17 16  1  1  0  0  0
  3 16  1  0  0  0  0
M  END
>  <cdx:fragmentId>
13

$$$$
