95288.cdx
  Mrv1902 05222410222D          

 41 45  0  0  0  0            999 V2000
    8.7893   -8.5541    0.0000 C   0  0  0  0  0  0  0  0  0  0  0  0
    8.7893   -9.3791    0.0000 C   0  0  0  0  0  0  0  0  0  0  0  0
    8.0749   -9.7916    0.0000 C   0  0  0  0  0  0  0  0  0  0  0  0
    8.0749  -10.6166    0.0000 O   0  0  0  0  0  0  0  0  0  0  0  0
    7.3604   -9.3791    0.0000 C   0  0  0  0  0  0  0  0  0  0  0  0
    6.6459   -9.7916    0.0000 C   0  0  0  0  0  0  0  0  0  0  0  0
    6.6459  -10.6166    0.0000 O   0  0  0  0  0  0  0  0  0  0  0  0
    5.9314   -9.3791    0.0000 C   0  0  0  0  0  0  0  0  0  0  0  0
    5.9314   -8.5541    0.0000 C   0  0  0  0  0  0  0  0  0  0  0  0
    5.2170   -8.1416    0.0000 O   0  0  0  0  0  0  0  0  0  0  0  0
    6.6459   -8.1416    0.0000 C   0  0  0  0  0  0  0  0  0  0  0  0
    7.3604   -8.5541    0.0000 C   0  0  0  0  0  0  0  0  0  0  0  0
    8.0749   -8.1416    0.0000 O   0  0  0  0  0  0  0  0  0  0  0  0
    9.5038   -8.1416    0.0000 C   0  0  0  0  0  0  0  0  0  0  0  0
   10.2183   -8.5541    0.0000 C   0  0  0  0  0  0  0  0  0  0  0  0
   10.9327   -8.1416    0.0000 C   0  0  0  0  0  0  0  0  0  0  0  0
   11.6472   -8.5541    0.0000 O   0  0  0  0  0  0  0  0  0  0  0  0
   10.9327   -7.3166    0.0000 C   0  0  0  0  0  0  0  0  0  0  0  0
   11.6472   -6.9041    0.0000 O   0  0  0  0  0  0  0  0  0  0  0  0
   10.2183   -6.9041    0.0000 C   0  0  0  0  0  0  0  0  0  0  0  0
    9.5038   -7.3166    0.0000 C   0  0  0  0  0  0  0  0  0  0  0  0
    5.1970   -9.8017    0.0000 C   0  0  0  0  0  0  0  0  0  0  0  0
    5.1859  -10.6267    0.0000 C   0  0  0  0  0  0  0  0  0  0  0  0
    5.8947  -11.0488    0.0000 O   0  0  0  0  0  0  0  0  0  0  0  0
    4.4659  -11.0295    0.0000 C   0  0  0  0  0  0  0  0  0  0  0  0
    4.4547  -11.8544    0.0000 O   0  0  0  0  0  0  0  0  0  0  0  0
    3.7570  -10.6074    0.0000 C   0  0  0  0  0  0  0  0  0  0  0  0
    3.0371  -11.0102    0.0000 O   0  0  0  0  0  0  0  0  0  0  0  0
    3.7682   -9.7824    0.0000 C   0  0  0  0  0  0  0  0  0  0  0  0
    4.4882   -9.3796    0.0000 O   0  0  0  0  0  0  0  0  0  0  0  0
    3.0594   -9.3603    0.0000 C   0  0  0  0  0  0  0  0  0  0  0  0
    2.3394   -9.7631    0.0000 O   0  0  0  0  0  0  0  0  0  0  0  0
    6.6377   -7.3410    0.0000 C   0  0  0  0  0  0  0  0  0  0  0  0
    5.9690   -6.8579    0.0000 C   0  0  0  0  0  0  0  0  0  0  0  0
    5.1851   -7.1149    0.0000 O   0  0  0  0  0  0  0  0  0  0  0  0
    6.2219   -6.0726    0.0000 C   0  0  0  0  0  0  0  0  0  0  0  0
    5.7352   -5.4064    0.0000 O   0  0  0  0  0  0  0  0  0  0  0  0
    7.0469   -6.0704    0.0000 C   0  0  0  0  0  0  0  0  0  0  0  0
    7.3039   -6.8544    0.0000 O   0  0  0  0  0  0  0  0  0  0  0  0
    7.5300   -5.4017    0.0000 C   0  0  0  0  0  0  0  0  0  0  0  0
    7.1925   -4.6489    0.0000 O   0  0  0  0  0  0  0  0  0  0  0  0
  1  2  2  0  0  0  0
  2  3  1  0  0  0  0
  3  4  2  0  0  0  0
  3  5  1  0  0  0  0
  5  6  1  0  0  0  0
  6  7  1  0  0  0  0
  6  8  2  0  0  0  0
  8  9  1  0  0  0  0
  9 10  1  0  0  0  0
  9 11  2  0  0  0  0
 11 12  1  0  0  0  0
  5 12  2  0  0  0  0
 12 13  1  0  0  0  0
  1 13  1  0  0  0  0
  1 14  1  0  0  0  0
 14 15  1  0  0  0  0
 15 16  2  0  0  0  0
 16 17  1  0  0  0  0
 16 18  1  0  0  0  0
 18 19  1  0  0  0  0
 18 20  2  0  0  0  0
 20 21  1  0  0  0  0
 14 21  2  0  0  0  0
 23 24  1  0  0  0  0
 23 22  1  0  0  0  0
 25 26  1  0  0  0  0
 25 23  1  0  0  0  0
 27 28  1  0  0  0  0
 27 25  1  0  0  0  0
 29 30  1  0  0  0  0
 29 27  1  0  0  0  0
 31 32  1  0  0  0  0
 31 29  1  0  0  0  0
 22 30  1  0  0  0  0
 22  8  1  0  0  0  0
 34 35  1  0  0  0  0
 34 33  1  0  0  0  0
 36 37  1  0  0  0  0
 36 34  1  0  0  0  0
 38 39  1  0  0  0  0
 38 36  1  0  0  0  0
 40 41  1  0  0  0  0
 40 38  1  0  0  0  0
 33 39  1  0  0  0  0
 33 11  1  0  0  0  0
M  END
>  <cdx:groupId>
141

>  <cdx:fragmentId>
5

$$$$
