95286.cdx
  Mrv1902 05222410232D          

 43 47  0  0  0  0            999 V2000
    8.7893   -8.5541    0.0000 C   0  0  0  0  0  0  0  0  0  0  0  0
    8.7893   -9.3791    0.0000 C   0  0  0  0  0  0  0  0  0  0  0  0
    8.0749   -9.7916    0.0000 C   0  0  0  0  0  0  0  0  0  0  0  0
    8.0749  -10.6166    0.0000 O   0  0  0  0  0  0  0  0  0  0  0  0
    7.3604   -9.3791    0.0000 C   0  0  0  0  0  0  0  0  0  0  0  0
    6.6459   -9.7916    0.0000 C   0  0  0  0  0  0  0  0  0  0  0  0
    6.6459  -10.6166    0.0000 O   0  0  0  0  0  0  0  0  0  0  0  0
    5.9314   -9.3791    0.0000 C   0  0  0  0  0  0  0  0  0  0  0  0
    5.9314   -8.5541    0.0000 C   0  0  0  0  0  0  0  0  0  0  0  0
    5.2170   -8.1416    0.0000 O   0  0  0  0  0  0  0  0  0  0  0  0
    6.6459   -8.1416    0.0000 C   0  0  0  0  0  0  0  0  0  0  0  0
    7.3604   -8.5541    0.0000 C   0  0  0  0  0  0  0  0  0  0  0  0
    8.0749   -8.1416    0.0000 O   0  0  0  0  0  0  0  0  0  0  0  0
    9.5038   -8.1416    0.0000 C   0  0  0  0  0  0  0  0  0  0  0  0
   10.2183   -8.5541    0.0000 C   0  0  0  0  0  0  0  0  0  0  0  0
   10.9327   -8.1416    0.0000 C   0  0  0  0  0  0  0  0  0  0  0  0
   11.6472   -8.5541    0.0000 O   0  0  0  0  0  0  0  0  0  0  0  0
   10.9327   -7.3166    0.0000 C   0  0  0  0  0  0  0  0  0  0  0  0
   11.6472   -6.9041    0.0000 O   0  0  0  0  0  0  0  0  0  0  0  0
   10.2183   -6.9041    0.0000 C   0  0  0  0  0  0  0  0  0  0  0  0
    9.5038   -7.3166    0.0000 C   0  0  0  0  0  0  0  0  0  0  0  0
    9.5038   -9.7916    0.0000 O   0  0  0  0  0  0  0  0  0  0  0  0
    9.5038  -10.6166    0.0000 C   0  0  0  0  0  0  0  0  0  0  0  0
    8.7893  -11.0291    0.0000 O   0  0  0  0  0  0  0  0  0  0  0  0
    8.7893  -11.8541    0.0000 C   0  0  0  0  0  0  0  0  0  0  0  0
    9.5038  -12.2666    0.0000 C   0  0  0  0  0  0  0  0  0  0  0  0
   10.2183  -11.8541    0.0000 C   0  0  0  0  0  0  0  0  0  0  0  0
   10.2183  -11.0291    0.0000 C   0  0  0  0  0  0  0  0  0  0  0  0
    8.0749  -12.2666    0.0000 C   0  0  0  0  0  0  0  0  0  0  0  0
    8.0749  -13.0916    0.0000 O   0  0  0  0  0  0  0  0  0  0  0  0
    9.5038  -13.0916    0.0000 O   0  0  0  0  0  0  0  0  0  0  0  0
   10.9327  -12.2666    0.0000 O   0  0  0  0  0  0  0  0  0  0  0  0
   10.9327  -10.6166    0.0000 O   0  0  0  0  0  0  0  0  0  0  0  0
    4.5025   -8.5541    0.0000 C   0  0  0  0  0  0  0  0  0  0  0  0
    3.7880   -8.1416    0.0000 O   0  0  0  0  0  0  0  0  0  0  0  0
    3.0736   -8.5541    0.0000 C   0  0  0  0  0  0  0  0  0  0  0  0
    3.0736   -9.3791    0.0000 C   0  0  0  0  0  0  0  0  0  0  0  0
    3.7880   -9.7916    0.0000 C   0  0  0  0  0  0  0  0  0  0  0  0
    4.5025   -9.3791    0.0000 C   0  0  0  0  0  0  0  0  0  0  0  0
    2.3591   -8.1416    0.0000 C   0  0  0  0  0  0  0  0  0  0  0  0
    2.3591   -9.7916    0.0000 O   0  0  0  0  0  0  0  0  0  0  0  0
    3.7880  -10.6166    0.0000 O   0  0  0  0  0  0  0  0  0  0  0  0
    5.2170   -9.7916    0.0000 O   0  0  0  0  0  0  0  0  0  0  0  0
  1  2  2  0  0  0  0
  2  3  1  0  0  0  0
  3  4  2  0  0  0  0
  3  5  1  0  0  0  0
  5  6  1  0  0  0  0
  6  7  1  0  0  0  0
  6  8  2  0  0  0  0
  8  9  1  0  0  0  0
  9 10  1  0  0  0  0
  9 11  2  0  0  0  0
 11 12  1  0  0  0  0
  5 12  2  0  0  0  0
 12 13  1  0  0  0  0
  1 13  1  0  0  0  0
  1 14  1  0  0  0  0
 14 15  1  0  0  0  0
 15 16  2  0  0  0  0
 16 17  1  0  0  0  0
 16 18  1  0  0  0  0
 18 19  1  0  0  0  0
 18 20  2  0  0  0  0
 20 21  1  0  0  0  0
 14 21  2  0  0  0  0
  2 22  1  0  0  0  0
 22 23  1  0  0  0  0
 23 24  1  0  0  0  0
 24 25  1  0  0  0  0
 25 26  1  0  0  0  0
 26 27  1  0  0  0  0
 27 28  1  0  0  0  0
 28 23  1  0  0  0  0
 25 29  1  0  0  0  0
 29 30  1  0  0  0  0
 26 31  1  0  0  0  0
 27 32  1  0  0  0  0
 28 33  1  0  0  0  0
 10 34  1  0  0  0  0
 34 35  1  0  0  0  0
 35 36  1  0  0  0  0
 36 37  1  0  0  0  0
 37 38  1  0  0  0  0
 38 39  1  0  0  0  0
 39 34  1  0  0  0  0
 36 40  1  0  0  0  0
 37 41  1  0  0  0  0
 38 42  1  0  0  0  0
 39 43  1  0  0  0  0
M  END
>  <cdx:groupId>
141

>  <cdx:fragmentId>
5

$$$$
