95283.cdx
  Mrv1902 05222410252D          

 43 47  0  0  0  0            999 V2000
    9.1331   -8.6091    0.0000 C   0  0  0  0  0  0  0  0  0  0  0  0
    9.1331   -9.4341    0.0000 C   0  0  0  0  0  0  0  0  0  0  0  0
    8.4186   -9.8466    0.0000 C   0  0  0  0  0  0  0  0  0  0  0  0
    8.4186  -10.6716    0.0000 O   0  0  0  0  0  0  0  0  0  0  0  0
    7.7041   -9.4341    0.0000 C   0  0  0  0  0  0  0  0  0  0  0  0
    6.9897   -9.8466    0.0000 C   0  0  0  0  0  0  0  0  0  0  0  0
    6.9897  -10.6716    0.0000 O   0  0  0  0  0  0  0  0  0  0  0  0
    6.2752   -9.4341    0.0000 C   0  0  0  0  0  0  0  0  0  0  0  0
    6.2752   -8.6091    0.0000 C   0  0  0  0  0  0  0  0  0  0  0  0
    5.5607   -8.1966    0.0000 O   0  0  0  0  0  0  0  0  0  0  0  0
    6.9897   -8.1966    0.0000 C   0  0  0  0  0  0  0  0  0  0  0  0
    7.7041   -8.6091    0.0000 C   0  0  0  0  0  0  0  0  0  0  0  0
    8.4186   -8.1966    0.0000 O   0  0  0  0  0  0  0  0  0  0  0  0
    9.8475   -8.1966    0.0000 C   0  0  0  0  0  0  0  0  0  0  0  0
   10.5620   -8.6091    0.0000 C   0  0  0  0  0  0  0  0  0  0  0  0
   11.2765   -8.1966    0.0000 C   0  0  0  0  0  0  0  0  0  0  0  0
   11.9910   -8.6091    0.0000 O   0  0  0  0  0  0  0  0  0  0  0  0
   11.2765   -7.3716    0.0000 C   0  0  0  0  0  0  0  0  0  0  0  0
   11.9910   -6.9591    0.0000 O   0  0  0  0  0  0  0  0  0  0  0  0
   10.5620   -6.9591    0.0000 C   0  0  0  0  0  0  0  0  0  0  0  0
    9.8475   -7.3716    0.0000 C   0  0  0  0  0  0  0  0  0  0  0  0
    5.5408   -9.8567    0.0000 C   0  0  0  0  0  0  0  0  0  0  0  0
    5.5296  -10.6817    0.0000 C   0  0  0  0  0  0  0  0  0  0  0  0
    6.2384  -11.1038    0.0000 O   0  0  0  0  0  0  0  0  0  0  0  0
    4.8096  -11.0845    0.0000 C   0  0  0  0  0  0  0  0  0  0  0  0
    4.7985  -11.9094    0.0000 O   0  0  0  0  0  0  0  0  0  0  0  0
    4.1008  -10.6624    0.0000 C   0  0  0  0  0  0  0  0  0  0  0  0
    3.3808  -11.0652    0.0000 O   0  0  0  0  0  0  0  0  0  0  0  0
    4.1119   -9.8374    0.0000 C   0  0  0  0  0  0  0  0  0  0  0  0
    4.8319   -9.4346    0.0000 O   0  0  0  0  0  0  0  0  0  0  0  0
    3.4031   -9.4153    0.0000 C   0  0  0  0  0  0  0  0  0  0  0  0
    2.6831   -9.8181    0.0000 O   0  0  0  0  0  0  0  0  0  0  0  0
    6.9876   -7.3937    0.0000 C   0  0  0  0  0  0  0  0  0  0  0  0
    7.7023   -6.9815    0.0000 C   0  0  0  0  0  0  0  0  0  0  0  0
    8.4166   -7.3943    0.0000 O   0  0  0  0  0  0  0  0  0  0  0  0
    7.7026   -6.1565    0.0000 C   0  0  0  0  0  0  0  0  0  0  0  0
    8.4172   -5.7443    0.0000 O   0  0  0  0  0  0  0  0  0  0  0  0
    6.9883   -5.7437    0.0000 C   0  0  0  0  0  0  0  0  0  0  0  0
    6.9886   -4.9187    0.0000 O   0  0  0  0  0  0  0  0  0  0  0  0
    6.2737   -6.1560    0.0000 C   0  0  0  0  0  0  0  0  0  0  0  0
    6.2733   -6.9810    0.0000 O   0  0  0  0  0  0  0  0  0  0  0  0
    5.5593   -5.7432    0.0000 C   0  0  0  0  0  0  0  0  0  0  0  0
    5.5597   -4.9182    0.0000 O   0  0  0  0  0  0  0  0  0  0  0  0
  1  2  2  0  0  0  0
  2  3  1  0  0  0  0
  3  4  2  0  0  0  0
  3  5  1  0  0  0  0
  5  6  1  0  0  0  0
  6  7  1  0  0  0  0
  6  8  2  0  0  0  0
  8  9  1  0  0  0  0
  9 10  1  0  0  0  0
  9 11  2  0  0  0  0
 11 12  1  0  0  0  0
  5 12  2  0  0  0  0
 12 13  1  0  0  0  0
  1 13  1  0  0  0  0
  1 14  1  0  0  0  0
 14 15  1  0  0  0  0
 15 16  2  0  0  0  0
 16 17  1  0  0  0  0
 16 18  1  0  0  0  0
 18 19  1  0  0  0  0
 18 20  2  0  0  0  0
 20 21  1  0  0  0  0
 14 21  2  0  0  0  0
 23 24  1  0  0  0  0
 23 22  1  0  0  0  0
 25 26  1  0  0  0  0
 25 23  1  0  0  0  0
 27 28  1  0  0  0  0
 27 25  1  0  0  0  0
 29 30  1  0  0  0  0
 29 27  1  0  0  0  0
 31 32  1  0  0  0  0
 31 29  1  0  0  0  0
 22 30  1  0  0  0  0
 34 35  1  0  0  0  0
 34 33  1  0  0  0  0
 36 37  1  0  0  0  0
 36 34  1  0  0  0  0
 38 39  1  0  0  0  0
 38 36  1  0  0  0  0
 40 41  1  0  0  0  0
 40 38  1  0  0  0  0
 42 43  1  0  0  0  0
 42 40  1  0  0  0  0
 33 41  1  0  0  0  0
 33 11  1  0  0  0  0
 22  8  1  0  0  0  0
M  END
>  <cdx:groupId>
141

>  <cdx:fragmentId>
5

$$$$
