95281.cdx
  Mrv1902 05222410242D          

 28 29  0  0  0  0            999 V2000
   10.4108   -6.7666    0.0000 C   0  0  0  0  0  0  0  0  0  0  0  0
   10.4108   -5.9416    0.0000 O   0  0  0  0  0  0  0  0  0  0  0  0
    9.6963   -7.1791    0.0000 O   0  0  0  0  0  0  0  0  0  0  0  0
    8.9818   -8.4166    0.0000 C   0  0  0  0  0  0  0  0  0  0  0  0
    9.6963   -8.0041    0.0000 C   0  0  0  0  0  0  0  0  0  0  0  0
   10.4108   -8.4166    0.0000 C   0  0  0  0  0  0  0  0  0  0  0  0
   10.4108   -9.2416    0.0000 C   0  0  0  0  0  0  0  0  0  0  0  0
    9.6963   -9.6541    0.0000 C   0  0  0  0  0  0  0  0  0  0  0  0
    8.9818   -9.2416    0.0000 O   0  0  0  0  0  0  0  0  0  0  0  0
    8.2674   -8.0041    0.0000 O   0  0  0  0  0  0  0  0  0  0  0  0
    7.5529   -8.4166    0.0000 C   0  0  0  0  0  0  0  0  0  0  0  0
    7.5529   -9.2416    0.0000 C   0  0  0  0  0  0  0  0  0  0  0  0
    6.8384   -9.6541    0.0000 C   0  0  0  0  0  0  0  0  0  0  0  0
    6.1239   -9.2416    0.0000 C   0  0  0  0  0  0  0  0  0  0  0  0
    6.1239   -8.4166    0.0000 C   0  0  0  0  0  0  0  0  0  0  0  0
    6.8384   -8.0041    0.0000 C   0  0  0  0  0  0  0  0  0  0  0  0
    6.8384   -7.1791    0.0000 O   0  0  0  0  0  0  0  0  0  0  0  0
    7.5529   -6.7666    0.0000 C   0  0  0  0  0  0  0  0  0  0  0  0
    8.2674   -9.6541    0.0000 O   0  0  0  0  0  0  0  0  0  0  0  0
    8.2674  -10.4791    0.0000 C   0  0  0  0  0  0  0  0  0  0  0  0
    5.4095   -9.6541    0.0000 C   0  0  0  0  0  0  0  0  0  0  0  0
    4.6950   -9.2416    0.0000 C   0  0  0  0  0  0  0  0  0  0  0  0
    3.9805   -9.6541    0.0000 C   0  0  0  0  0  0  0  0  0  0  0  0
    3.2661   -9.2416    0.0000 O   0  0  0  0  0  0  0  0  0  0  0  0
    9.6963  -10.4791    0.0000 C   0  0  0  0  0  0  0  0  0  0  0  0
   10.4108  -10.8916    0.0000 O   0  0  0  0  0  0  0  0  0  0  0  0
   11.1252   -9.6541    0.0000 O   0  0  0  0  0  0  0  0  0  0  0  0
   11.1252   -8.0041    0.0000 O   0  0  0  0  0  0  0  0  0  0  0  0
  1  2  2  0  0  0  0
  1  3  1  0  0  0  0
  4  5  1  0  0  0  0
  5  6  1  0  0  0  0
  6  7  1  0  0  0  0
  7  8  1  0  0  0  0
  8  9  1  0  0  0  0
  4  9  1  0  0  0  0
 11 12  1  0  0  0  0
 12 13  2  0  0  0  0
 13 14  1  0  0  0  0
 14 15  2  0  0  0  0
 15 16  1  0  0  0  0
 11 16  2  0  0  0  0
 10 11  1  0  0  0  0
 17 18  1  0  0  0  0
 16 17  1  0  0  0  0
 19 20  1  0  0  0  0
 12 19  1  0  0  0  0
 21 22  2  0  0  0  0
 22 23  1  0  0  0  0
 23 24  1  0  0  0  0
 14 21  1  0  0  0  0
  4 10  1  0  0  0  0
 25 26  1  0  0  0  0
  8 25  1  0  0  0  0
  7 27  1  0  0  0  0
  6 28  1  0  0  0  0
  3  5  1  0  0  0  0
M  END
>  <cdx:groupId>
87

>  <cdx:fragmentId>
25

$$$$
