95287.cdx
  Mrv1902 05222410232D          

 53 58  0  0  0  0            999 V2000
    8.2943   -7.2204    0.0000 C   0  0  0  0  0  0  0  0  0  0  0  0
    8.2943   -8.0454    0.0000 C   0  0  0  0  0  0  0  0  0  0  0  0
    9.0088   -8.4579    0.0000 O   0  0  0  0  0  0  0  0  0  0  0  0
    7.5799   -8.4579    0.0000 C   0  0  0  0  0  0  0  0  0  0  0  0
    7.5799   -9.2829    0.0000 O   0  0  0  0  0  0  0  0  0  0  0  0
    6.8654   -8.0454    0.0000 C   0  0  0  0  0  0  0  0  0  0  0  0
    6.1509   -8.4579    0.0000 C   0  0  0  0  0  0  0  0  0  0  0  0
    6.1509   -9.2829    0.0000 O   0  0  0  0  0  0  0  0  0  0  0  0
    5.4364   -8.0454    0.0000 C   0  0  0  0  0  0  0  0  0  0  0  0
    5.4364   -7.2204    0.0000 C   0  0  0  0  0  0  0  0  0  0  0  0
    6.1509   -6.8079    0.0000 C   0  0  0  0  0  0  0  0  0  0  0  0
    6.8654   -7.2204    0.0000 C   0  0  0  0  0  0  0  0  0  0  0  0
    7.5799   -6.8079    0.0000 O   0  0  0  0  0  0  0  0  0  0  0  0
    9.0088   -6.8079    0.0000 C   0  0  0  0  0  0  0  0  0  0  0  0
    9.0088   -5.9829    0.0000 C   0  0  0  0  0  0  0  0  0  0  0  0
    9.7233   -5.5704    0.0000 C   0  0  0  0  0  0  0  0  0  0  0  0
   10.4377   -5.9829    0.0000 C   0  0  0  0  0  0  0  0  0  0  0  0
   11.1522   -5.5704    0.0000 O   0  0  0  0  0  0  0  0  0  0  0  0
   10.4377   -6.8079    0.0000 C   0  0  0  0  0  0  0  0  0  0  0  0
    9.7233   -7.2204    0.0000 C   0  0  0  0  0  0  0  0  0  0  0  0
    4.7220   -6.8079    0.0000 O   0  0  0  0  0  0  0  0  0  0  0  0
    4.0075   -7.2204    0.0000 C   0  0  1  0  0  0  0  0  0  0  0  0
    4.0075   -8.0454    0.0000 C   0  0  2  0  0  0  0  0  0  0  0  0
    4.7220   -8.4579    0.0000 O   0  0  0  0  0  0  0  0  0  0  0  0
    3.2930   -8.4579    0.0000 C   0  0  2  0  0  0  0  0  0  0  0  0
    3.2930   -9.2829    0.0000 O   0  0  0  0  0  0  0  0  0  0  0  0
    2.5786   -8.0454    0.0000 C   0  0  1  0  0  0  0  0  0  0  0  0
    1.8641   -8.4579    0.0000 O   0  0  0  0  0  0  0  0  0  0  0  0
    2.5786   -7.2204    0.0000 C   0  0  1  0  0  0  0  0  0  0  0  0
    3.2930   -6.8079    0.0000 O   0  0  0  0  0  0  0  0  0  0  0  0
    1.8641   -6.8079    0.0000 C   0  0  0  0  0  0  0  0  0  0  0  0
    8.2786  -10.5188    0.0000 C   0  0  2  0  0  0  0  0  0  0  0  0
    8.9924  -10.9325    0.0000 C   0  0  2  0  0  0  0  0  0  0  0  0
    9.7075  -10.5213    0.0000 C   0  0  1  0  0  0  0  0  0  0  0  0
    9.7090   -9.6963    0.0000 C   0  0  2  0  0  0  0  0  0  0  0  0
    8.9952   -9.2826    0.0000 C   0  0  1  0  0  0  0  0  0  0  0  0
    8.2800   -9.6938    0.0000 O   0  0  0  0  0  0  0  0  0  0  0  0
    7.5634  -10.9301    0.0000 C   0  0  0  0  0  0  0  0  0  0  0  0
   10.4213  -10.9350    0.0000 O   0  0  0  0  0  0  0  0  0  0  0  0
    8.9909  -11.7575    0.0000 O   0  0  0  0  0  0  0  0  0  0  0  0
   10.4242   -9.2850    0.0000 O   0  0  0  0  0  0  0  0  0  0  0  0
    7.5620  -11.7551    0.0000 O   0  0  0  0  0  0  0  0  0  0  0  0
   11.8560  -10.9467    0.0000 C   0  0  2  0  0  0  0  0  0  0  0  0
   12.5719  -10.5367    0.0000 C   0  0  2  0  0  0  0  0  0  0  0  0
   12.5748   -9.7117    0.0000 C   0  0  1  0  0  0  0  0  0  0  0  0
   11.8617   -9.2967    0.0000 C   0  0  2  0  0  0  0  0  0  0  0  0
   11.1458   -9.7067    0.0000 C   0  0  1  0  0  0  0  0  0  0  0  0
   11.1430  -10.5317    0.0000 O   0  0  0  0  0  0  0  0  0  0  0  0
   11.8531  -11.7717    0.0000 C   0  0  0  0  0  0  0  0  0  0  0  0
   13.2907   -9.3017    0.0000 O   0  0  0  0  0  0  0  0  0  0  0  0
   13.2849  -10.9517    0.0000 O   0  0  0  0  0  0  0  0  0  0  0  0
   11.8646   -8.4717    0.0000 O   0  0  0  0  0  0  0  0  0  0  0  0
   12.5661  -12.1867    0.0000 O   0  0  0  0  0  0  0  0  0  0  0  0
  1  2  2  0  0  0  0
  2  3  1  0  0  0  0
  2  4  1  0  0  0  0
  4  5  2  0  0  0  0
  4  6  1  0  0  0  0
  6  7  1  0  0  0  0
  7  8  1  0  0  0  0
  7  9  2  0  0  0  0
  9 10  1  0  0  0  0
 10 11  2  0  0  0  0
 11 12  1  0  0  0  0
  6 12  2  0  0  0  0
 12 13  1  0  0  0  0
  1 13  1  0  0  0  0
  1 14  1  0  0  0  0
 14 15  1  0  0  0  0
 15 16  2  0  0  0  0
 16 17  1  0  0  0  0
 17 18  1  0  0  0  0
 17 19  2  0  0  0  0
 19 20  1  0  0  0  0
 14 20  2  0  0  0  0
 22 21  1  1  0  0  0
 22 23  1  0  0  0  0
 23 24  1  6  0  0  0
 23 25  1  0  0  0  0
 25 26  1  6  0  0  0
 25 27  1  0  0  0  0
 27 28  1  1  0  0  0
 27 29  1  0  0  0  0
 29 30  1  0  0  0  0
 29 31  1  6  0  0  0
 22 30  1  0  0  0  0
 10 21  1  0  0  0  0
 32 33  1  0  0  0  0
 33 34  1  0  0  0  0
 34 35  1  0  0  0  0
 35 36  1  0  0  0  0
 36 37  1  0  0  0  0
 37 32  1  0  0  0  0
 32 38  1  1  0  0  0
 34 39  1  1  0  0  0
 33 40  1  6  0  0  0
 35 41  1  6  0  0  0
 38 42  1  0  0  0  0
 43 44  1  0  0  0  0
 44 45  1  0  0  0  0
 45 46  1  0  0  0  0
 46 47  1  0  0  0  0
 47 48  1  0  0  0  0
 48 43  1  0  0  0  0
 43 49  1  1  0  0  0
 45 50  1  1  0  0  0
 44 51  1  6  0  0  0
 46 52  1  6  0  0  0
 49 53  1  0  0  0  0
 47 41  1  1  0  0  0
 36  3  1  1  0  0  0
M  END
>  <cdx:groupId>
98

>  <cdx:fragmentId>
5

$$$$
