95289.cdx
  Mrv1902 05222410222D          

 25 26  0  0  0  0            999 V2000
    7.9101   -7.9956    0.0000 C   0  0  0  0  0  0  0  0  0  0  0  0
    8.6246   -7.5831    0.0000 C   0  0  0  0  0  0  0  0  0  0  0  0
    9.3391   -7.9956    0.0000 C   0  0  0  0  0  0  0  0  0  0  0  0
    9.3391   -8.8206    0.0000 C   0  0  0  0  0  0  0  0  0  0  0  0
    8.6246   -9.2331    0.0000 C   0  0  0  0  0  0  0  0  0  0  0  0
    7.9101   -8.8206    0.0000 C   0  0  0  0  0  0  0  0  0  0  0  0
   10.0535   -9.2331    0.0000 C   0  0  0  0  0  0  0  0  0  0  0  0
   10.0535  -10.0581    0.0000 O   0  0  0  0  0  0  0  0  0  0  0  0
   10.7680   -8.8206    0.0000 O   0  0  0  0  0  0  0  0  0  0  0  0
    8.6246  -10.0581    0.0000 O   0  0  0  0  0  0  0  0  0  0  0  0
    9.3391  -10.4706    0.0000 C   0  0  0  0  0  0  0  0  0  0  0  0
    8.6246   -6.7581    0.0000 O   0  0  0  0  0  0  0  0  0  0  0  0
    9.3391   -6.3456    0.0000 C   0  0  0  0  0  0  0  0  0  0  0  0
    7.1956   -7.5831    0.0000 O   0  0  0  0  0  0  0  0  0  0  0  0
    6.4812   -7.9956    0.0000 C   0  0  1  0  0  0  0  0  0  0  0  0
    6.4812   -8.8206    0.0000 C   0  0  2  0  0  0  0  0  0  0  0  0
    7.1956   -9.2331    0.0000 O   0  0  0  0  0  0  0  0  0  0  0  0
    5.7667   -9.2331    0.0000 C   0  0  1  0  0  0  0  0  0  0  0  0
    5.7667  -10.0581    0.0000 O   0  0  0  0  0  0  0  0  0  0  0  0
    5.0522   -8.8206    0.0000 C   0  0  2  0  0  0  0  0  0  0  0  0
    4.3378   -9.2331    0.0000 O   0  0  0  0  0  0  0  0  0  0  0  0
    5.0522   -7.9956    0.0000 C   0  0  2  0  0  0  0  0  0  0  0  0
    5.7667   -7.5831    0.0000 O   0  0  0  0  0  0  0  0  0  0  0  0
    4.3378   -7.5831    0.0000 C   0  0  0  0  0  0  0  0  0  0  0  0
    3.6233   -7.9956    0.0000 O   0  0  0  0  0  0  0  0  0  0  0  0
  1  2  1  0  0  0  0
  2  3  2  0  0  0  0
  3  4  1  0  0  0  0
  4  5  2  0  0  0  0
  5  6  1  0  0  0  0
  1  6  2  0  0  0  0
  7  8  2  0  0  0  0
  7  9  1  0  0  0  0
  4  7  1  0  0  0  0
 10 11  1  0  0  0  0
  5 10  1  0  0  0  0
 12 13  1  0  0  0  0
  2 12  1  0  0  0  0
 15 14  1  1  0  0  0
 15 16  1  0  0  0  0
 16 17  1  6  0  0  0
 16 18  1  0  0  0  0
 18 19  1  1  0  0  0
 18 20  1  0  0  0  0
 20 21  1  6  0  0  0
 20 22  1  0  0  0  0
 22 23  1  0  0  0  0
 22 24  1  1  0  0  0
 24 25  1  0  0  0  0
 15 23  1  0  0  0  0
  1 14  1  0  0  0  0
M  END
>  <cdx:groupId>
78

>  <cdx:fragmentId>
5

$$$$
