95282.cdx
  Mrv1902 05222410252D          

 36 38  0  0  0  0            999 V2000
   10.0535  -10.0666    0.0000 C   0  0  0  0  0  0  0  0  0  0  0  0
   10.0535   -9.2416    0.0000 C   0  0  0  0  0  0  0  0  0  0  0  0
    9.3391   -8.8291    0.0000 C   0  0  0  0  0  0  0  0  0  0  0  0
    8.6246   -9.2416    0.0000 C   0  0  0  0  0  0  0  0  0  0  0  0
    8.6246  -10.0666    0.0000 C   0  0  0  0  0  0  0  0  0  0  0  0
    9.3391  -10.4791    0.0000 C   0  0  0  0  0  0  0  0  0  0  0  0
   10.0535  -10.8916    0.0000 O   0  0  0  0  0  0  0  0  0  0  0  0
    7.9101  -10.4791    0.0000 O   0  0  0  0  0  0  0  0  0  0  0  0
    7.1956  -10.0666    0.0000 C   0  0  0  0  0  0  0  0  0  0  0  0
    6.4812  -10.4791    0.0000 C   0  0  0  0  0  0  0  0  0  0  0  0
    5.7667  -10.0666    0.0000 C   0  0  0  0  0  0  0  0  0  0  0  0
    7.1956   -9.2416    0.0000 O   0  0  0  0  0  0  0  0  0  0  0  0
    5.0522  -10.4791    0.0000 C   0  0  0  0  0  0  0  0  0  0  0  0
    4.3378  -10.0666    0.0000 C   0  0  0  0  0  0  0  0  0  0  0  0
    3.6233  -10.4791    0.0000 C   0  0  0  0  0  0  0  0  0  0  0  0
    3.6233  -11.3041    0.0000 C   0  0  0  0  0  0  0  0  0  0  0  0
    4.3378  -11.7166    0.0000 C   0  0  0  0  0  0  0  0  0  0  0  0
    5.0522  -11.3041    0.0000 C   0  0  0  0  0  0  0  0  0  0  0  0
    2.9088  -11.7166    0.0000 O   0  0  0  0  0  0  0  0  0  0  0  0
    2.9088  -10.0666    0.0000 O   0  0  0  0  0  0  0  0  0  0  0  0
    7.9101   -8.8291    0.0000 O   0  0  0  0  0  0  0  0  0  0  0  0
    7.9101   -8.0041    0.0000 C   0  0  0  0  0  0  0  0  0  0  0  0
    8.6246   -7.5916    0.0000 C   0  0  0  0  0  0  0  0  0  0  0  0
    8.6246   -6.7666    0.0000 C   0  0  0  0  0  0  0  0  0  0  0  0
    7.1956   -7.5916    0.0000 O   0  0  0  0  0  0  0  0  0  0  0  0
    9.3391   -6.3541    0.0000 C   0  0  0  0  0  0  0  0  0  0  0  0
   10.0535   -6.7666    0.0000 C   0  0  0  0  0  0  0  0  0  0  0  0
   10.7680   -6.3541    0.0000 C   0  0  0  0  0  0  0  0  0  0  0  0
   10.7680   -5.5291    0.0000 C   0  0  0  0  0  0  0  0  0  0  0  0
   10.0535   -5.1166    0.0000 C   0  0  0  0  0  0  0  0  0  0  0  0
    9.3391   -5.5291    0.0000 C   0  0  0  0  0  0  0  0  0  0  0  0
   11.4825   -5.1166    0.0000 O   0  0  0  0  0  0  0  0  0  0  0  0
   11.4825   -6.7666    0.0000 O   0  0  0  0  0  0  0  0  0  0  0  0
   10.7680  -10.4791    0.0000 C   0  0  0  0  0  0  0  0  0  0  0  0
   10.7680  -11.3041    0.0000 O   0  0  0  0  0  0  0  0  0  0  0  0
   11.4825  -10.0666    0.0000 O   0  0  0  0  0  0  0  0  0  0  0  0
  1  2  1  0  0  0  0
  2  3  2  0  0  0  0
  3  4  1  0  0  0  0
  4  5  1  0  0  0  0
  5  6  1  0  0  0  0
  1  6  1  0  0  0  0
  1  7  1  0  0  0  0
  9 10  1  0  0  0  0
 10 11  2  0  0  0  0
  9 12  2  0  0  0  0
 13 14  1  0  0  0  0
 14 15  2  0  0  0  0
 15 16  1  0  0  0  0
 16 17  2  0  0  0  0
 17 18  1  0  0  0  0
 13 18  2  0  0  0  0
 16 19  1  0  0  0  0
 15 20  1  0  0  0  0
 11 13  1  0  0  0  0
  8  9  1  0  0  0  0
  5  8  1  0  0  0  0
 22 23  1  0  0  0  0
 23 24  2  0  0  0  0
 22 25  2  0  0  0  0
 26 27  1  0  0  0  0
 27 28  2  0  0  0  0
 28 29  1  0  0  0  0
 29 30  2  0  0  0  0
 30 31  1  0  0  0  0
 26 31  2  0  0  0  0
 29 32  1  0  0  0  0
 28 33  1  0  0  0  0
 24 26  1  0  0  0  0
 21 22  1  0  0  0  0
  4 21  1  0  0  0  0
 34 35  2  0  0  0  0
 34 36  1  0  0  0  0
  1 34  1  0  0  0  0
M  END
>  <cdx:groupId>
112

>  <cdx:fragmentId>
29

$$$$
