95284.cdx
  Mrv1902 05222410242D          

 38 42  0  0  0  0            999 V2000
    8.9045   -8.4369    0.0000 C   0  0  0  0  0  0  0  0  0  0  0  0
    8.9045   -9.2619    0.0000 C   0  0  0  0  0  0  0  0  0  0  0  0
    8.1900   -9.6744    0.0000 C   0  0  0  0  0  0  0  0  0  0  0  0
    8.1900  -10.4994    0.0000 O   0  0  0  0  0  0  0  0  0  0  0  0
    7.4755   -9.2619    0.0000 C   0  0  0  0  0  0  0  0  0  0  0  0
    6.7611   -9.6744    0.0000 C   0  0  0  0  0  0  0  0  0  0  0  0
    6.7611  -10.4994    0.0000 O   0  0  0  0  0  0  0  0  0  0  0  0
    6.0466   -9.2619    0.0000 C   0  0  0  0  0  0  0  0  0  0  0  0
    6.0466   -8.4369    0.0000 C   0  0  0  0  0  0  0  0  0  0  0  0
    5.3321   -8.0244    0.0000 O   0  0  0  0  0  0  0  0  0  0  0  0
    6.7611   -8.0244    0.0000 C   0  0  0  0  0  0  0  0  0  0  0  0
    7.4755   -8.4369    0.0000 C   0  0  0  0  0  0  0  0  0  0  0  0
    8.1900   -8.0244    0.0000 O   0  0  0  0  0  0  0  0  0  0  0  0
    9.6189   -8.0244    0.0000 C   0  0  0  0  0  0  0  0  0  0  0  0
    9.6189   -7.1994    0.0000 C   0  0  0  0  0  0  0  0  0  0  0  0
   10.3334   -6.7869    0.0000 C   0  0  0  0  0  0  0  0  0  0  0  0
   11.0479   -7.1994    0.0000 C   0  0  0  0  0  0  0  0  0  0  0  0
   11.7623   -6.7869    0.0000 O   0  0  0  0  0  0  0  0  0  0  0  0
   11.0479   -8.0244    0.0000 C   0  0  0  0  0  0  0  0  0  0  0  0
   10.3334   -8.4369    0.0000 C   0  0  0  0  0  0  0  0  0  0  0  0
    5.3461   -9.7131    0.0000 C   0  0  0  0  0  0  0  0  0  0  0  0
    5.2827  -10.5357    0.0000 C   0  0  0  0  0  0  0  0  0  0  0  0
    5.9110  -11.0704    0.0000 O   0  0  0  0  0  0  0  0  0  0  0  0
    4.4808  -10.7296    0.0000 C   0  0  0  0  0  0  0  0  0  0  0  0
    4.1664  -11.4924    0.0000 O   0  0  0  0  0  0  0  0  0  0  0  0
    4.0486  -10.0269    0.0000 C   0  0  0  0  0  0  0  0  0  0  0  0
    4.5833   -9.3987    0.0000 O   0  0  0  0  0  0  0  0  0  0  0  0
    3.2260   -9.9636    0.0000 C   0  0  0  0  0  0  0  0  0  0  0  0
    2.7599  -10.6443    0.0000 O   0  0  0  0  0  0  0  0  0  0  0  0
    6.7616   -7.2087    0.0000 C   0  0  0  0  0  0  0  0  0  0  0  0
    6.0929   -6.7255    0.0000 C   0  0  0  0  0  0  0  0  0  0  0  0
    5.3089   -6.9825    0.0000 O   0  0  0  0  0  0  0  0  0  0  0  0
    6.3458   -5.9402    0.0000 C   0  0  0  0  0  0  0  0  0  0  0  0
    5.8591   -5.2741    0.0000 O   0  0  0  0  0  0  0  0  0  0  0  0
    7.1708   -5.9380    0.0000 C   0  0  0  0  0  0  0  0  0  0  0  0
    7.4278   -6.7220    0.0000 O   0  0  0  0  0  0  0  0  0  0  0  0
    7.6539   -5.2693    0.0000 C   0  0  0  0  0  0  0  0  0  0  0  0
    7.3164   -4.5165    0.0000 O   0  0  0  0  0  0  0  0  0  0  0  0
  1  2  2  0  0  0  0
  2  3  1  0  0  0  0
  3  4  2  0  0  0  0
  3  5  1  0  0  0  0
  5  6  1  0  0  0  0
  6  7  1  0  0  0  0
  6  8  2  0  0  0  0
  8  9  1  0  0  0  0
  9 10  1  0  0  0  0
  9 11  2  0  0  0  0
 11 12  1  0  0  0  0
  5 12  2  0  0  0  0
 12 13  1  0  0  0  0
  1 13  1  0  0  0  0
  1 14  1  0  0  0  0
 14 15  1  0  0  0  0
 15 16  2  0  0  0  0
 16 17  1  0  0  0  0
 17 18  1  0  0  0  0
 17 19  2  0  0  0  0
 19 20  1  0  0  0  0
 14 20  2  0  0  0  0
 22 23  1  0  0  0  0
 22 21  1  0  0  0  0
 24 25  1  0  0  0  0
 24 22  1  0  0  0  0
 26 27  1  0  0  0  0
 26 24  1  0  0  0  0
 28 29  1  0  0  0  0
 28 26  1  0  0  0  0
 21 27  1  0  0  0  0
 31 32  1  0  0  0  0
 31 30  1  0  0  0  0
 33 34  1  0  0  0  0
 33 31  1  0  0  0  0
 35 36  1  0  0  0  0
 35 33  1  0  0  0  0
 37 38  1  0  0  0  0
 37 35  1  0  0  0  0
 30 36  1  0  0  0  0
 21  8  1  0  0  0  0
 30 11  1  0  0  0  0
M  END
>  <cdx:groupId>
126

>  <cdx:fragmentId>
5

$$$$
