95280.cdx
  Mrv1902 05222410252D          

 33 34  0  0  0  0            999 V2000
    6.4812  -10.8916    0.0000 C   0  0  0  0  0  0  0  0  0  0  0  0
    5.7667  -11.3041    0.0000 C   0  0  0  0  0  0  0  0  0  0  0  0
    5.0522  -10.8916    0.0000 C   0  0  0  0  0  0  0  0  0  0  0  0
    4.3378  -11.3041    0.0000 C   0  0  0  0  0  0  0  0  0  0  0  0
    6.4812  -10.0666    0.0000 O   0  0  0  0  0  0  0  0  0  0  0  0
    7.1956  -11.3041    0.0000 O   0  0  0  0  0  0  0  0  0  0  0  0
    5.0522  -10.0666    0.0000 O   0  0  0  0  0  0  0  0  0  0  0  0
    3.6233  -10.8916    0.0000 O   0  0  0  0  0  0  0  0  0  0  0  0
    7.9101  -10.0666    0.0000 C   0  0  0  0  0  0  0  0  0  0  0  0
    7.9101  -10.8916    0.0000 C   0  0  0  0  0  0  0  0  0  0  0  0
    8.6246  -11.3041    0.0000 C   0  0  0  0  0  0  0  0  0  0  0  0
    9.3391  -10.8916    0.0000 C   0  0  0  0  0  0  0  0  0  0  0  0
    9.3391  -10.0666    0.0000 C   0  0  0  0  0  0  0  0  0  0  0  0
    8.6246   -9.6541    0.0000 O   0  0  0  0  0  0  0  0  0  0  0  0
    7.1956   -9.6541    0.0000 O   0  0  0  0  0  0  0  0  0  0  0  0
    7.1956   -8.8291    0.0000 C   0  0  0  0  0  0  0  0  0  0  0  0
    6.4812   -8.4166    0.0000 C   0  0  0  0  0  0  0  0  0  0  0  0
    6.4812   -7.5916    0.0000 C   0  0  0  0  0  0  0  0  0  0  0  0
    7.1956   -7.1791    0.0000 C   0  0  0  0  0  0  0  0  0  0  0  0
    7.9101   -7.5916    0.0000 C   0  0  0  0  0  0  0  0  0  0  0  0
    7.9101   -8.4166    0.0000 C   0  0  0  0  0  0  0  0  0  0  0  0
    8.6246   -8.8291    0.0000 O   0  0  0  0  0  0  0  0  0  0  0  0
    9.3391   -8.4166    0.0000 C   0  0  0  0  0  0  0  0  0  0  0  0
    5.7667   -8.8291    0.0000 O   0  0  0  0  0  0  0  0  0  0  0  0
    5.0522   -8.4166    0.0000 C   0  0  0  0  0  0  0  0  0  0  0  0
    7.1956   -6.3541    0.0000 C   0  0  0  0  0  0  0  0  0  0  0  0
    6.4812   -5.9416    0.0000 C   0  0  0  0  0  0  0  0  0  0  0  0
    6.4812   -5.1166    0.0000 C   0  0  0  0  0  0  0  0  0  0  0  0
    5.7667   -4.7041    0.0000 O   0  0  0  0  0  0  0  0  0  0  0  0
   10.0535   -9.6541    0.0000 C   0  0  0  0  0  0  0  0  0  0  0  0
   10.7680  -10.0666    0.0000 O   0  0  0  0  0  0  0  0  0  0  0  0
   10.0535  -11.3041    0.0000 O   0  0  0  0  0  0  0  0  0  0  0  0
    8.6246  -12.1291    0.0000 O   0  0  0  0  0  0  0  0  0  0  0  0
  1  2  1  0  0  0  0
  2  3  1  0  0  0  0
  3  4  1  0  0  0  0
  1  5  2  0  0  0  0
  1  6  1  0  0  0  0
  3  7  2  0  0  0  0
  4  8  1  0  0  0  0
  9 10  1  0  0  0  0
 10 11  1  0  0  0  0
 11 12  1  0  0  0  0
 12 13  1  0  0  0  0
 13 14  1  0  0  0  0
  9 14  1  0  0  0  0
 16 17  1  0  0  0  0
 17 18  2  0  0  0  0
 18 19  1  0  0  0  0
 19 20  2  0  0  0  0
 20 21  1  0  0  0  0
 16 21  2  0  0  0  0
 15 16  1  0  0  0  0
 22 23  1  0  0  0  0
 21 22  1  0  0  0  0
 24 25  1  0  0  0  0
 17 24  1  0  0  0  0
 26 27  2  0  0  0  0
 27 28  1  0  0  0  0
 28 29  1  0  0  0  0
 19 26  1  0  0  0  0
  9 15  1  0  0  0  0
 30 31  1  0  0  0  0
 13 30  1  0  0  0  0
 12 32  1  0  0  0  0
 11 33  1  0  0  0  0
  6 10  1  0  0  0  0
M  END
>  <cdx:groupId>
102

>  <cdx:fragmentId>
35

$$$$
