95294.cdx
  Mrv1902 05222410252D          

 42 46  0  0  0  0            999 V2000
    5.9862   -8.1675    0.0000 C   0  0  0  0  0  0  0  0  0  0  0  0
    5.9862   -8.9925    0.0000 C   0  0  0  0  0  0  0  0  0  0  0  0
    6.7006   -9.4050    0.0000 C   0  0  0  0  0  0  0  0  0  0  0  0
    7.4151   -8.9925    0.0000 C   0  0  0  0  0  0  0  0  0  0  0  0
    7.4151   -8.1675    0.0000 C   0  0  0  0  0  0  0  0  0  0  0  0
    6.7006   -7.7550    0.0000 C   0  0  0  0  0  0  0  0  0  0  0  0
    8.1296   -9.4050    0.0000 C   0  0  0  0  0  0  0  0  0  0  0  0
    8.8441   -8.9925    0.0000 C   0  0  0  0  0  0  0  0  0  0  0  0
    8.8441   -8.1675    0.0000 C   0  0  0  0  0  0  0  0  0  0  0  0
    8.1296   -7.7550    0.0000 O   0  0  0  0  0  0  0  0  0  0  0  0
    6.7006  -10.2300    0.0000 O   0  0  0  0  0  0  0  0  0  0  0  0
    8.1296  -10.2300    0.0000 O   0  0  0  0  0  0  0  0  0  0  0  0
   10.2730   -8.1675    0.0000 C   0  0  0  0  0  0  0  0  0  0  0  0
    9.5585   -7.7550    0.0000 C   0  0  0  0  0  0  0  0  0  0  0  0
   10.9875   -7.7550    0.0000 C   0  0  0  0  0  0  0  0  0  0  0  0
   10.9875   -6.9300    0.0000 C   0  0  0  0  0  0  0  0  0  0  0  0
   10.2730   -6.5175    0.0000 C   0  0  0  0  0  0  0  0  0  0  0  0
    9.5585   -6.9300    0.0000 C   0  0  0  0  0  0  0  0  0  0  0  0
   11.7019   -6.5175    0.0000 O   0  0  0  0  0  0  0  0  0  0  0  0
    5.2717   -7.7550    0.0000 O   0  0  0  0  0  0  0  0  0  0  0  0
    6.7006   -6.9300    0.0000 C   0  0  0  0  0  0  0  0  0  0  0  0
    7.3681   -6.4451    0.0000 O   0  0  0  0  0  0  0  0  0  0  0  0
    7.1131   -5.6605    0.0000 C   0  0  0  0  0  0  0  0  0  0  0  0
    6.2881   -5.6605    0.0000 C   0  0  0  0  0  0  0  0  0  0  0  0
    6.0332   -6.4451    0.0000 C   0  0  0  0  0  0  0  0  0  0  0  0
    5.2717   -9.4050    0.0000 C   0  0  0  0  0  0  0  0  0  0  0  0
    4.5572   -8.9925    0.0000 O   0  0  0  0  0  0  0  0  0  0  0  0
    3.8428   -9.4050    0.0000 C   0  0  0  0  0  0  0  0  0  0  0  0
    3.8428  -10.2300    0.0000 C   0  0  0  0  0  0  0  0  0  0  0  0
    4.5572  -10.6425    0.0000 C   0  0  0  0  0  0  0  0  0  0  0  0
    5.2717  -10.2300    0.0000 C   0  0  0  0  0  0  0  0  0  0  0  0
    5.2486   -6.7000    0.0000 O   0  0  0  0  0  0  0  0  0  0  0  0
    5.8032   -4.9930    0.0000 O   0  0  0  0  0  0  0  0  0  0  0  0
    7.5981   -4.9930    0.0000 C   0  0  0  0  0  0  0  0  0  0  0  0
    7.2625   -4.2393    0.0000 O   0  0  0  0  0  0  0  0  0  0  0  0
    3.1283   -8.9925    0.0000 C   0  0  0  0  0  0  0  0  0  0  0  0
    2.4138   -9.4050    0.0000 O   0  0  0  0  0  0  0  0  0  0  0  0
    3.1283  -10.6425    0.0000 O   0  0  0  0  0  0  0  0  0  0  0  0
    4.5572  -11.4675    0.0000 O   0  0  0  0  0  0  0  0  0  0  0  0
    5.9862  -10.6425    0.0000 O   0  0  0  0  0  0  0  0  0  0  0  0
   10.2730   -5.6925    0.0000 O   0  0  0  0  0  0  0  0  0  0  0  0
   12.4164   -6.9300    0.0000 C   0  0  0  0  0  0  0  0  0  0  0  0
  1  2  2  0  0  0  0
  2  3  1  0  0  0  0
  3  4  2  0  0  0  0
  4  5  1  0  0  0  0
  5  6  2  0  0  0  0
  6  1  1  0  0  0  0
  4  7  1  0  0  0  0
  7  8  1  0  0  0  0
  8  9  2  0  0  0  0
  9 10  1  0  0  0  0
 10  5  1  0  0  0  0
  3 11  1  0  0  0  0
 12  7  2  0  0  0  0
 13 14  2  0  0  0  0
 14  9  1  0  0  0  0
 13 15  1  0  0  0  0
 15 16  2  0  0  0  0
 16 17  1  0  0  0  0
 17 18  2  0  0  0  0
 18 14  1  0  0  0  0
 16 19  1  0  0  0  0
  1 20  1  0  0  0  0
  6 21  1  0  0  0  0
 21 22  1  0  0  0  0
 22 23  1  0  0  0  0
 23 24  1  0  0  0  0
 24 25  1  0  0  0  0
 25 21  1  0  0  0  0
  2 26  1  0  0  0  0
 26 27  1  0  0  0  0
 27 28  1  0  0  0  0
 28 29  1  0  0  0  0
 29 30  1  0  0  0  0
 30 31  1  0  0  0  0
 31 26  1  0  0  0  0
 25 32  1  0  0  0  0
 24 33  1  0  0  0  0
 23 34  1  0  0  0  0
 34 35  1  0  0  0  0
 28 36  1  0  0  0  0
 36 37  1  0  0  0  0
 29 38  1  0  0  0  0
 30 39  1  0  0  0  0
 31 40  1  0  0  0  0
 17 41  1  0  0  0  0
 19 42  1  0  0  0  0
M  END
>  <cdx:fragmentId>
5

$$$$
