95290.cdx
  Mrv1902 05222410242D          

 16 16  0  0  0  0            999 V2000
    9.3013   -9.2416    0.0000 C   0  0  0  0  0  0  0  0  0  0  0  0
    8.5868   -8.8291    0.0000 C   0  0  0  0  0  0  0  0  0  0  0  0
    7.8723   -9.2416    0.0000 C   0  0  0  0  0  0  0  0  0  0  0  0
   10.0157   -8.8291    0.0000 O   0  0  0  0  0  0  0  0  0  0  0  0
    7.1578   -8.8291    0.0000 C   0  0  0  0  0  0  0  0  0  0  0  0
    7.1578   -8.0041    0.0000 C   0  0  0  0  0  0  0  0  0  0  0  0
    6.4434   -7.5916    0.0000 C   0  0  0  0  0  0  0  0  0  0  0  0
    5.7289   -8.0041    0.0000 C   0  0  0  0  0  0  0  0  0  0  0  0
    5.7289   -8.8291    0.0000 C   0  0  0  0  0  0  0  0  0  0  0  0
    6.4434   -9.2416    0.0000 C   0  0  0  0  0  0  0  0  0  0  0  0
    5.0144   -9.2416    0.0000 O   0  0  0  0  0  0  0  0  0  0  0  0
    4.3000   -8.8291    0.0000 C   0  0  0  0  0  0  0  0  0  0  0  0
    5.0144   -7.5916    0.0000 O   0  0  0  0  0  0  0  0  0  0  0  0
    4.3000   -8.0041    0.0000 C   0  0  0  0  0  0  0  0  0  0  0  0
    7.8723   -7.5916    0.0000 O   0  0  0  0  0  0  0  0  0  0  0  0
    8.5868   -8.0041    0.0000 C   0  0  0  0  0  0  0  0  0  0  0  0
  1  2  1  0  0  0  0
  2  3  2  0  0  0  0
  1  4  2  0  0  0  0
  5  6  1  0  0  0  0
  6  7  2  0  0  0  0
  7  8  1  0  0  0  0
  8  9  2  0  0  0  0
  9 10  1  0  0  0  0
  5 10  2  0  0  0  0
 11 12  1  0  0  0  0
  9 11  1  0  0  0  0
 13 14  1  0  0  0  0
  8 13  1  0  0  0  0
 15 16  1  0  0  0  0
  6 15  1  0  0  0  0
  3  5  1  0  0  0  0
M  END
>  <cdx:fragmentId>
13

$$$$
