95297.cdx
  Mrv1902 05222410252D          

 16 16  0  0  0  0            999 V2000
    6.4194   -9.1913    0.0000 O   0  0  0  0  0  0  0  0  0  0  0  0
    6.9043   -8.5239    0.0000 C   0  0  1  0  0  0  0  0  0  0  0  0
    6.4194   -7.8564    0.0000 C   0  0  0  0  0  0  0  0  0  0  0  0
    5.6347   -8.1114    0.0000 C   0  0  0  0  0  0  0  0  0  0  0  0
    5.6347   -8.9364    0.0000 C   0  0  1  0  0  0  0  0  0  0  0  0
    6.6743   -7.0718    0.0000 O   0  0  0  0  0  0  0  0  0  0  0  0
    4.9673   -7.6265    0.0000 O   0  0  0  0  0  0  0  0  0  0  0  0
    4.9673   -9.4213    0.0000 C   0  0  0  0  0  0  0  0  0  0  0  0
    4.2136   -9.0857    0.0000 O   0  0  0  0  0  0  0  0  0  0  0  0
    7.6188   -8.9364    0.0000 C   0  0  0  0  0  0  0  0  0  0  0  0
    7.6188   -9.7614    0.0000 O   0  0  0  0  0  0  0  0  0  0  0  0
    7.6188   -8.1114    0.0000 O   0  0  0  0  0  0  0  0  0  0  0  0
    8.3332   -8.5239    0.0000 C   0  0  0  0  0  0  0  0  0  0  0  0
    9.0477   -8.1114    0.0000 C   0  0  0  0  0  0  0  0  0  0  0  0
    9.7622   -8.5239    0.0000 C   0  0  0  0  0  0  0  0  0  0  0  0
   10.4766   -8.1114    0.0000 C   0  0  0  0  0  0  0  0  0  0  0  0
  1  2  1  0  0  0  0
  2  3  1  0  0  0  0
  3  4  1  0  0  0  0
  4  5  1  0  0  0  0
  1  5  1  0  0  0  0
  3  6  1  0  0  0  0
  4  7  1  0  0  0  0
  8  9  1  0  0  0  0
  5  8  1  6  0  0  0
 10 11  1  0  0  0  0
  2 10  1  1  0  0  0
 13 14  1  0  0  0  0
 14 15  1  0  0  0  0
 15 16  1  0  0  0  0
 12 13  1  0  0  0  0
  2 12  1  6  0  0  0
M  END
>  <cdx:groupId>
50

>  <cdx:fragmentId>
5

$$$$
