95298.cdx
  Mrv1902 05222410212D          

 41 45  0  0  0  0            999 V2000
   11.0597   -8.2104    0.0000 C   0  0  0  0  0  0  0  0  0  0  0  0
   11.0597   -9.0354    0.0000 C   0  0  0  0  0  0  0  0  0  0  0  0
   10.3452   -9.4479    0.0000 C   0  0  0  0  0  0  0  0  0  0  0  0
   10.3452  -10.2729    0.0000 O   0  0  0  0  0  0  0  0  0  0  0  0
    9.6308   -9.0354    0.0000 C   0  0  0  0  0  0  0  0  0  0  0  0
    8.9163   -9.4479    0.0000 C   0  0  0  0  0  0  0  0  0  0  0  0
    8.9163  -10.2729    0.0000 O   0  0  0  0  0  0  0  0  0  0  0  0
    8.2018   -9.0354    0.0000 C   0  0  0  0  0  0  0  0  0  0  0  0
    8.2018   -8.2104    0.0000 C   0  0  0  0  0  0  0  0  0  0  0  0
    8.9163   -7.7979    0.0000 C   0  0  0  0  0  0  0  0  0  0  0  0
    9.6308   -8.2104    0.0000 C   0  0  0  0  0  0  0  0  0  0  0  0
   10.3452   -7.7979    0.0000 O   0  0  0  0  0  0  0  0  0  0  0  0
   11.7742   -7.7979    0.0000 C   0  0  0  0  0  0  0  0  0  0  0  0
   12.4887   -8.2104    0.0000 C   0  0  0  0  0  0  0  0  0  0  0  0
   13.2031   -7.7979    0.0000 C   0  0  0  0  0  0  0  0  0  0  0  0
   13.9176   -8.2104    0.0000 O   0  0  0  0  0  0  0  0  0  0  0  0
   13.2031   -6.9729    0.0000 C   0  0  0  0  0  0  0  0  0  0  0  0
   13.9176   -6.5604    0.0000 O   0  0  0  0  0  0  0  0  0  0  0  0
   12.4887   -6.5604    0.0000 C   0  0  0  0  0  0  0  0  0  0  0  0
   11.7742   -6.9729    0.0000 C   0  0  0  0  0  0  0  0  0  0  0  0
    7.4874   -7.7979    0.0000 O   0  0  0  0  0  0  0  0  0  0  0  0
    6.7729   -8.2104    0.0000 C   0  0  1  0  0  0  0  0  0  0  0  0
    6.7729   -9.0354    0.0000 C   0  0  2  0  0  0  0  0  0  0  0  0
    7.4874   -9.4479    0.0000 O   0  0  0  0  0  0  0  0  0  0  0  0
    6.0584   -9.4479    0.0000 C   0  0  1  0  0  0  0  0  0  0  0  0
    6.0584  -10.2729    0.0000 O   0  0  0  0  0  0  0  0  0  0  0  0
    5.3439   -9.0354    0.0000 C   0  0  2  0  0  0  0  0  0  0  0  0
    4.6295   -9.4479    0.0000 O   0  0  0  0  0  0  0  0  0  0  0  0
    5.3439   -8.2104    0.0000 C   0  0  2  0  0  0  0  0  0  0  0  0
    6.0584   -7.7979    0.0000 O   0  0  0  0  0  0  0  0  0  0  0  0
    4.6295   -7.7979    0.0000 C   0  0  0  0  0  0  0  0  0  0  0  0
    3.9150   -8.2104    0.0000 O   0  0  0  0  0  0  0  0  0  0  0  0
    3.2005   -7.7979    0.0000 C   0  0  1  0  0  0  0  0  0  0  0  0
    2.4469   -8.1334    0.0000 C   0  0  2  0  0  0  0  0  0  0  0  0
    2.2753   -8.9404    0.0000 O   0  0  0  0  0  0  0  0  0  0  0  0
    1.8948   -7.5203    0.0000 C   0  0  0  0  0  0  0  0  0  0  0  0
    1.2274   -8.0052    0.0000 O   0  0  0  0  0  0  0  0  0  0  0  0
    2.3073   -6.8058    0.0000 C   0  0  0  0  0  0  0  0  0  0  0  0
    3.1143   -6.9774    0.0000 O   0  0  0  0  0  0  0  0  0  0  0  0
    1.1411   -7.1848    0.0000 C   0  0  0  0  0  0  0  0  0  0  0  0
    0.4737   -7.6697    0.0000 O   0  0  0  0  0  0  0  0  0  0  0  0
  1  2  2  0  0  0  0
  2  3  1  0  0  0  0
  3  4  2  0  0  0  0
  3  5  1  0  0  0  0
  5  6  1  0  0  0  0
  6  7  1  0  0  0  0
  6  8  2  0  0  0  0
  8  9  1  0  0  0  0
  9 10  2  0  0  0  0
 10 11  1  0  0  0  0
  5 11  2  0  0  0  0
 11 12  1  0  0  0  0
  1 12  1  0  0  0  0
  1 13  1  0  0  0  0
 13 14  1  0  0  0  0
 14 15  2  0  0  0  0
 15 16  1  0  0  0  0
 15 17  1  0  0  0  0
 17 18  1  0  0  0  0
 17 19  2  0  0  0  0
 19 20  1  0  0  0  0
 13 20  2  0  0  0  0
 22 21  1  1  0  0  0
 22 23  1  0  0  0  0
 23 24  1  6  0  0  0
 23 25  1  0  0  0  0
 25 26  1  1  0  0  0
 25 27  1  0  0  0  0
 27 28  1  6  0  0  0
 27 29  1  0  0  0  0
 29 30  1  0  0  0  0
 29 31  1  1  0  0  0
 31 32  1  0  0  0  0
 22 30  1  0  0  0  0
 33 34  1  0  0  0  0
 34 35  1  6  0  0  0
 34 36  1  0  0  0  0
 36 37  1  0  0  0  0
 36 38  1  0  0  0  0
 38 39  1  0  0  0  0
 36 40  1  0  0  0  0
 40 41  1  0  0  0  0
 33 39  1  0  0  0  0
 33 32  1  1  0  0  0
  9 21  1  0  0  0  0
M  END
>  <cdx:groupId>
129

>  <cdx:fragmentId>
43

$$$$
