95293.cdx
  Mrv1902 05222410232D          

 20 19  0  0  0  0            999 V2000
    9.3391   -8.2654    0.0000 C   0  0  0  0  0  0  0  0  0  0  0  0
    9.3391   -9.0904    0.0000 C   0  0  0  0  0  0  0  0  0  0  0  0
    8.6246   -9.5029    0.0000 C   0  0  0  0  0  0  0  0  0  0  0  0
    7.9101   -9.0904    0.0000 C   0  0  0  0  0  0  0  0  0  0  0  0
    7.1956   -9.5029    0.0000 C   0  0  0  0  0  0  0  0  0  0  0  0
    6.4812   -9.0904    0.0000 C   0  0  0  0  0  0  0  0  0  0  0  0
    5.7667   -9.5029    0.0000 C   0  0  0  0  0  0  0  0  0  0  0  0
    5.0522   -9.0904    0.0000 C   0  0  0  0  0  0  0  0  0  0  0  0
    4.3378   -9.5029    0.0000 C   0  0  0  0  0  0  0  0  0  0  0  0
    4.3378  -10.3279    0.0000 C   0  0  0  0  0  0  0  0  0  0  0  0
    3.6233   -9.0904    0.0000 C   0  0  0  0  0  0  0  0  0  0  0  0
    8.6246  -10.3279    0.0000 C   0  0  0  0  0  0  0  0  0  0  0  0
    6.4812   -8.2654    0.0000 C   0  0  0  0  0  0  0  0  0  0  0  0
    5.7667   -7.8529    0.0000 C   0  0  0  0  0  0  0  0  0  0  0  0
    7.1956   -7.8529    0.0000 C   0  0  0  0  0  0  0  0  0  0  0  0
    6.4812   -7.4404    0.0000 O   0  0  0  0  0  0  0  0  0  0  0  0
   10.0535   -7.8529    0.0000 O   0  0  0  0  0  0  0  0  0  0  0  0
   10.0535   -7.0279    0.0000 C   0  0  0  0  0  0  0  0  0  0  0  0
    9.3391   -6.6154    0.0000 O   0  0  0  0  0  0  0  0  0  0  0  0
   10.7680   -6.6154    0.0000 C   0  0  0  0  0  0  0  0  0  0  0  0
  1  2  1  0  0  0  0
  2  3  2  0  0  0  0
  3  4  1  0  0  0  0
  4  5  1  0  0  0  0
  5  6  1  0  0  0  0
  6  7  1  0  0  0  0
  7  8  1  0  0  0  0
  8  9  2  0  0  0  0
  9 10  1  0  0  0  0
  9 11  1  0  0  0  0
  3 12  1  0  0  0  0
 13 14  1  0  0  0  0
 13 15  1  0  0  0  0
 13 16  1  0  0  0  0
  6 13  1  0  0  0  0
 18 19  2  0  0  0  0
 18 20  1  0  0  0  0
 17 18  1  0  0  0  0
  1 17  1  0  0  0  0
M  END
>  <cdx:groupId>
61

>  <cdx:fragmentId>
5

$$$$
