95291.cdx
  Mrv1902 05222410242D          

 17 18  0  0  0  0            999 V2000
    8.7278   -8.8620    0.0000 C   0  0  0  0  0  0  0  0  0  0  0  0
    9.2127   -8.1946    0.0000 C   0  0  0  0  0  0  0  0  0  0  0  0
    8.7278   -7.5272    0.0000 C   0  0  0  0  0  0  0  0  0  0  0  0
    7.9431   -7.7821    0.0000 C   0  0  0  0  0  0  0  0  0  0  0  0
    7.2981   -7.2677    0.0000 C   0  0  0  0  0  0  0  0  0  0  0  0
    6.4938   -7.4513    0.0000 C   0  0  0  0  0  0  0  0  0  0  0  0
    6.1359   -8.1946    0.0000 C   0  0  0  0  0  0  0  0  0  0  0  0
    6.4938   -8.9379    0.0000 C   0  0  0  0  0  0  0  0  0  0  0  0
    7.2981   -9.1215    0.0000 C   0  0  0  0  0  0  0  0  0  0  0  0
    7.9431   -8.6071    0.0000 C   0  0  0  0  0  0  0  0  0  0  0  0
    5.3109   -8.1946    0.0000 O   0  0  0  0  0  0  0  0  0  0  0  0
    5.9794   -9.5829    0.0000 C   0  0  0  0  0  0  0  0  0  0  0  0
    6.2809  -10.3509    0.0000 C   0  0  0  0  0  0  0  0  0  0  0  0
    5.1637   -9.4600    0.0000 C   0  0  0  0  0  0  0  0  0  0  0  0
    7.4817   -6.4634    0.0000 C   0  0  0  0  0  0  0  0  0  0  0  0
    8.9827   -9.6467    0.0000 C   0  0  0  0  0  0  0  0  0  0  0  0
    8.0905   -6.9704    0.0000 O   0  0  0  0  0  0  0  0  0  0  0  0
  1  2  1  0  0  0  0
  2  3  1  0  0  0  0
  3  4  1  0  0  0  0
  4  5  1  0  0  0  0
  5  6  2  0  0  0  0
  6  7  1  0  0  0  0
  7  8  1  0  0  0  0
  8  9  1  0  0  0  0
  9 10  1  0  0  0  0
  1 10  1  0  0  0  0
  4 10  1  0  0  0  0
  7 11  2  0  0  0  0
 12 13  1  0  0  0  0
 12 14  1  0  0  0  0
  8 12  2  0  0  0  0
  5 15  1  0  0  0  0
  1 16  1  0  0  0  0
  4 17  1  0  0  0  0
M  END
>  <cdx:groupId>
54

>  <cdx:fragmentId>
5

$$$$
