95292.cdx
  Mrv1902 05222410232D          

 15 16  0  0  0  0            999 V2000
    6.3471   -9.1375    0.0000 C   0  0  0  0  0  0  0  0  0  0  0  0
    5.8622   -8.4701    0.0000 C   0  0  1  0  0  0  0  0  0  0  0  0
    6.3471   -7.8026    0.0000 C   0  0  0  0  0  0  0  0  0  0  0  0
    7.1318   -8.0576    0.0000 C   0  0  0  0  0  0  0  0  0  0  0  0
    7.7768   -7.5432    0.0000 C   0  0  0  0  0  0  0  0  0  0  0  0
    8.5811   -7.7268    0.0000 C   0  0  0  0  0  0  0  0  0  0  0  0
    8.9390   -8.4701    0.0000 C   0  0  0  0  0  0  0  0  0  0  0  0
    8.5811   -9.2134    0.0000 C   0  0  0  0  0  0  0  0  0  0  0  0
    7.7768   -9.3970    0.0000 C   0  0  0  0  0  0  0  0  0  0  0  0
    7.1318   -8.8826    0.0000 C   0  0  0  0  0  0  0  0  0  0  0  0
    7.5932   -6.7389    0.0000 O   0  0  0  0  0  0  0  0  0  0  0  0
    7.5932  -10.2013    0.0000 C   0  0  0  0  0  0  0  0  0  0  0  0
    8.7040   -6.9110    0.0000 C   0  0  0  0  0  0  0  0  0  0  0  0
    9.3491   -7.4254    0.0000 C   0  0  0  0  0  0  0  0  0  0  0  0
    5.0372   -8.4701    0.0000 C   0  0  0  0  0  0  0  0  0  0  0  0
  1  2  1  0  0  0  0
  2  3  1  0  0  0  0
  3  4  1  0  0  0  0
  4  5  1  0  0  0  0
  5  6  1  0  0  0  0
  6  7  1  0  0  0  0
  7  8  1  0  0  0  0
  8  9  2  0  0  0  0
  9 10  1  0  0  0  0
  1 10  1  0  0  0  0
  4 10  2  0  0  0  0
  5 11  2  0  0  0  0
  9 12  1  0  0  0  0
  6 13  1  0  0  0  0
  6 14  1  0  0  0  0
  2 15  1  6  0  0  0
M  END
>  <cdx:groupId>
48

>  <cdx:fragmentId>
5

$$$$
