95301.cdx
  Mrv1902 05222410232D          

 43 47  0  0  0  0            999 V2000
    8.4173   -4.8141    0.0000 C   0  0  0  0  0  0  0  0  0  0  0  0
    8.4173   -5.6391    0.0000 C   0  0  0  0  0  0  0  0  0  0  0  0
    7.7028   -6.0516    0.0000 C   0  0  0  0  0  0  0  0  0  0  0  0
    7.7028   -6.8766    0.0000 O   0  0  0  0  0  0  0  0  0  0  0  0
    6.9883   -5.6391    0.0000 C   0  0  0  0  0  0  0  0  0  0  0  0
    6.2739   -6.0516    0.0000 C   0  0  0  0  0  0  0  0  0  0  0  0
    6.2739   -6.8766    0.0000 O   0  0  0  0  0  0  0  0  0  0  0  0
    5.5594   -5.6391    0.0000 C   0  0  0  0  0  0  0  0  0  0  0  0
    5.5594   -4.8141    0.0000 C   0  0  0  0  0  0  0  0  0  0  0  0
    4.8449   -4.4016    0.0000 O   0  0  0  0  0  0  0  0  0  0  0  0
    6.2739   -4.4016    0.0000 C   0  0  0  0  0  0  0  0  0  0  0  0
    6.9883   -4.8141    0.0000 C   0  0  0  0  0  0  0  0  0  0  0  0
    7.7028   -4.4016    0.0000 O   0  0  0  0  0  0  0  0  0  0  0  0
    9.1318   -4.4016    0.0000 C   0  0  0  0  0  0  0  0  0  0  0  0
    9.8462   -4.8141    0.0000 C   0  0  0  0  0  0  0  0  0  0  0  0
   10.5607   -4.4016    0.0000 C   0  0  0  0  0  0  0  0  0  0  0  0
   10.5607   -3.5766    0.0000 C   0  0  0  0  0  0  0  0  0  0  0  0
   11.2752   -3.1641    0.0000 O   0  0  0  0  0  0  0  0  0  0  0  0
    9.8462   -3.1641    0.0000 C   0  0  0  0  0  0  0  0  0  0  0  0
    9.1318   -3.5766    0.0000 C   0  0  0  0  0  0  0  0  0  0  0  0
    4.8491   -6.0488    0.0000 C   0  0  1  0  0  0  0  0  0  0  0  0
    4.8419   -6.8738    0.0000 C   0  0  2  0  0  0  0  0  0  0  0  0
    5.5528   -7.2925    0.0000 O   0  0  0  0  0  0  0  0  0  0  0  0
    4.1239   -7.2801    0.0000 C   0  0  1  0  0  0  0  0  0  0  0  0
    4.1168   -8.1051    0.0000 O   0  0  0  0  0  0  0  0  0  0  0  0
    3.4131   -6.8614    0.0000 C   0  0  1  0  0  0  0  0  0  0  0  0
    2.6950   -7.2677    0.0000 O   0  0  0  0  0  0  0  0  0  0  0  0
    3.4202   -6.0364    0.0000 C   0  0  0  0  0  0  0  0  0  0  0  0
    4.1382   -5.6302    0.0000 O   0  0  0  0  0  0  0  0  0  0  0  0
    5.5457   -8.1175    0.0000 C   0  0  1  0  0  0  0  0  0  0  0  0
    6.2565   -8.5361    0.0000 C   0  0  2  0  0  0  0  0  0  0  0  0
    6.9745   -8.1299    0.0000 O   0  0  0  0  0  0  0  0  0  0  0  0
    6.2494   -9.3611    0.0000 C   0  0  1  0  0  0  0  0  0  0  0  0
    6.9602   -9.7798    0.0000 O   0  0  0  0  0  0  0  0  0  0  0  0
    5.5313   -9.7674    0.0000 C   0  0  1  0  0  0  0  0  0  0  0  0
    5.5242  -10.5924    0.0000 O   0  0  0  0  0  0  0  0  0  0  0  0
    4.8205   -9.3487    0.0000 C   0  0  2  0  0  0  0  0  0  0  0  0
    4.8276   -8.5237    0.0000 O   0  0  0  0  0  0  0  0  0  0  0  0
    4.1025   -9.7550    0.0000 C   0  0  0  0  0  0  0  0  0  0  0  0
    3.3916   -9.3363    0.0000 O   0  0  0  0  0  0  0  0  0  0  0  0
    4.0953  -10.5800    0.0000 O   0  0  0  0  0  0  0  0  0  0  0  0
    9.8462   -2.3391    0.0000 O   0  0  0  0  0  0  0  0  0  0  0  0
    4.8563   -5.2239    0.0000 H   0  0  0  0  0  0  0  0  0  0  0  0
  1  2  2  0  0  0  0
  2  3  1  0  0  0  0
  3  4  2  0  0  0  0
  3  5  1  0  0  0  0
  5  6  1  0  0  0  0
  6  7  1  0  0  0  0
  6  8  2  0  0  0  0
  8  9  1  0  0  0  0
  9 10  1  0  0  0  0
  9 11  2  0  0  0  0
 11 12  1  0  0  0  0
  5 12  2  0  0  0  0
 12 13  1  0  0  0  0
  1 13  1  0  0  0  0
  1 14  1  0  0  0  0
 14 15  1  0  0  0  0
 15 16  2  0  0  0  0
 16 17  1  0  0  0  0
 17 18  1  0  0  0  0
 17 19  2  0  0  0  0
 19 20  1  0  0  0  0
 14 20  2  0  0  0  0
 21 22  1  0  0  0  0
 22 23  1  6  0  0  0
 22 24  1  0  0  0  0
 24 25  1  1  0  0  0
 24 26  1  0  0  0  0
 26 27  1  1  0  0  0
 26 28  1  0  0  0  0
 28 29  1  0  0  0  0
 21 29  1  0  0  0  0
 30 31  1  0  0  0  0
 31 32  1  6  0  0  0
 31 33  1  0  0  0  0
 33 34  1  1  0  0  0
 33 35  1  0  0  0  0
 35 36  1  1  0  0  0
 35 37  1  0  0  0  0
 37 38  1  0  0  0  0
 37 39  1  1  0  0  0
 30 38  1  0  0  0  0
 39 40  2  0  0  0  0
 39 41  1  0  0  0  0
 30 23  1  1  0  0  0
 21  8  1  0  0  0  0
 19 42  1  0  0  0  0
 21 43  1  6  0  0  0
M  END
>  <cdx:groupId>
138

>  <cdx:fragmentId>
140

$$$$
