95308.cdx
  Mrv1902 05222410252D          

 25 24  0  0  0  0            999 V2000
    2.5223   -9.2773    0.0000 C   0  0  0  0  0  0  0  0  0  0  0  0
    3.2368   -9.6898    0.0000 C   0  0  0  0  0  0  0  0  0  0  0  0
    3.9513   -9.2773    0.0000 C   0  0  0  0  0  0  0  0  0  0  0  0
    4.6657   -9.6898    0.0000 C   0  0  0  0  0  0  0  0  0  0  0  0
    5.3802   -9.2773    0.0000 C   0  0  0  0  0  0  0  0  0  0  0  0
    6.0947   -9.6898    0.0000 N   0  0  0  0  0  0  0  0  0  0  0  0
    6.8092   -8.4523    0.0000 O   0  0  0  0  0  0  0  0  0  0  0  0
   18.9552   -9.6898    0.0000 C   0  0  0  0  0  0  0  0  0  0  0  0
   18.2407   -9.2773    0.0000 C   0  0  0  0  0  0  0  0  0  0  0  0
   17.5262   -9.6898    0.0000 C   0  0  0  0  0  0  0  0  0  0  0  0
   16.8118   -9.2773    0.0000 C   0  0  0  0  0  0  0  0  0  0  0  0
   16.0973   -9.6898    0.0000 C   0  0  0  0  0  0  0  0  0  0  0  0
   15.3828   -9.2773    0.0000 C   0  0  0  0  0  0  0  0  0  0  0  0
   14.6683   -9.6898    0.0000 C   0  0  0  0  0  0  0  0  0  0  0  0
   13.9539   -9.2773    0.0000 C   0  0  0  0  0  0  0  0  0  0  0  0
   13.2394   -9.6898    0.0000 C   0  0  0  0  0  0  0  0  0  0  0  0
   12.5249   -9.2773    0.0000 C   0  0  0  0  0  0  0  0  0  0  0  0
   11.8105   -9.6898    0.0000 C   0  0  0  0  0  0  0  0  0  0  0  0
   11.0960   -9.2773    0.0000 C   0  0  0  0  0  0  0  0  0  0  0  0
   10.3815   -9.6898    0.0000 C   0  0  0  0  0  0  0  0  0  0  0  0
    9.6670   -9.2773    0.0000 C   0  0  0  0  0  0  0  0  0  0  0  0
    8.9526   -9.6898    0.0000 C   0  0  0  0  0  0  0  0  0  0  0  0
    8.2381   -9.2773    0.0000 C   0  0  0  0  0  0  0  0  0  0  0  0
    7.5236   -9.6898    0.0000 C   0  0  0  0  0  0  0  0  0  0  0  0
    6.8092   -9.2773    0.0000 C   0  0  0  0  0  0  0  0  0  0  0  0
  6  5  1  0  0  0  0
  2  1  1  0  0  0  0
  3  2  1  0  0  0  0
  4  3  1  0  0  0  0
  5  4  1  0  0  0  0
 25  6  1  0  0  0  0
 25  7  2  0  0  0  0
  9  8  1  0  0  0  0
 10  9  1  0  0  0  0
 11 10  1  0  0  0  0
 12 11  1  0  0  0  0
 13 12  1  0  0  0  0
 14 13  2  0  0  0  0
 15 14  1  0  0  0  0
 16 15  1  0  0  0  0
 17 16  1  0  0  0  0
 18 17  1  0  0  0  0
 19 18  1  0  0  0  0
 20 19  1  0  0  0  0
 21 20  1  0  0  0  0
 22 21  2  0  0  0  0
 23 22  1  0  0  0  0
 24 23  2  0  0  0  0
 25 24  1  0  0  0  0
M  END
>  <cdx:fragmentId>
82

$$$$
