95309.cdx
  Mrv1902 05222410252D          

 27 26  0  0  0  0            999 V2000
    1.5569   -9.3048    0.0000 C   0  0  0  0  0  0  0  0  0  0  0  0
    2.2737   -9.7132    0.0000 C   0  0  0  0  0  0  0  0  0  0  0  0
    2.9858   -9.2967    0.0000 C   0  0  0  0  0  0  0  0  0  0  0  0
    3.7026   -9.7051    0.0000 C   0  0  0  0  0  0  0  0  0  0  0  0
    4.4147   -9.2885    0.0000 C   0  0  0  0  0  0  0  0  0  0  0  0
    5.1315   -9.6969    0.0000 N   0  0  0  0  0  0  0  0  0  0  0  0
    5.8389   -8.4553    0.0000 O   0  0  0  0  0  0  0  0  0  0  0  0
   19.4207   -9.6152    0.0000 C   0  0  0  0  0  0  0  0  0  0  0  0
   18.7039   -9.2068    0.0000 C   0  0  0  0  0  0  0  0  0  0  0  0
   17.9918   -9.6233    0.0000 C   0  0  0  0  0  0  0  0  0  0  0  0
   17.2750   -9.2149    0.0000 C   0  0  0  0  0  0  0  0  0  0  0  0
   16.5629   -9.6315    0.0000 C   0  0  0  0  0  0  0  0  0  0  0  0
   15.8460   -9.2231    0.0000 C   0  0  0  0  0  0  0  0  0  0  0  0
   15.1339   -9.6397    0.0000 C   0  0  0  0  0  0  0  0  0  0  0  0
   14.4171   -9.2313    0.0000 C   0  0  0  0  0  0  0  0  0  0  0  0
   13.7050   -9.6479    0.0000 C   0  0  0  0  0  0  0  0  0  0  0  0
   12.9882   -9.2395    0.0000 C   0  0  0  0  0  0  0  0  0  0  0  0
   12.2761   -9.6560    0.0000 C   0  0  0  0  0  0  0  0  0  0  0  0
   11.5593   -9.2476    0.0000 C   0  0  0  0  0  0  0  0  0  0  0  0
   10.8472   -9.6642    0.0000 C   0  0  0  0  0  0  0  0  0  0  0  0
   10.1304   -9.2558    0.0000 C   0  0  0  0  0  0  0  0  0  0  0  0
    9.4183   -9.6724    0.0000 C   0  0  0  0  0  0  0  0  0  0  0  0
    8.7014   -9.2640    0.0000 C   0  0  0  0  0  0  0  0  0  0  0  0
    7.9893   -9.6805    0.0000 C   0  0  0  0  0  0  0  0  0  0  0  0
    7.2725   -9.2721    0.0000 C   0  0  0  0  0  0  0  0  0  0  0  0
    6.5604   -9.6887    0.0000 C   0  0  0  0  0  0  0  0  0  0  0  0
    5.8436   -9.2803    0.0000 C   0  0  0  0  0  0  0  0  0  0  0  0
  6  5  1  0  0  0  0
  2  1  1  0  0  0  0
  3  2  1  0  0  0  0
  4  3  1  0  0  0  0
  5  4  1  0  0  0  0
 27  6  1  0  0  0  0
 27  7  2  0  0  0  0
  9  8  1  0  0  0  0
 10  9  1  0  0  0  0
 11 10  1  0  0  0  0
 12 11  1  0  0  0  0
 13 12  1  0  0  0  0
 14 13  2  0  0  0  0
 15 14  1  0  0  0  0
 16 15  1  0  0  0  0
 17 16  1  0  0  0  0
 18 17  1  0  0  0  0
 19 18  1  0  0  0  0
 20 19  1  0  0  0  0
 21 20  1  0  0  0  0
 22 21  1  0  0  0  0
 23 22  1  0  0  0  0
 24 23  2  0  0  0  0
 25 24  1  0  0  0  0
 26 25  2  0  0  0  0
 27 26  1  0  0  0  0
M  END
>  <cdx:groupId>
82

>  <cdx:fragmentId>
5

$$$$
