95307.cdx
  Mrv1902 05222410212D          

 20 20  0  0  0  0            999 V2000
   11.8950   -8.6229    0.0000 C   0  0  0  0  0  0  0  0  0  0  0  0
   11.1805   -9.0354    0.0000 C   0  0  0  0  0  0  0  0  0  0  0  0
   10.4660   -8.6229    0.0000 C   0  0  0  0  0  0  0  0  0  0  0  0
    9.7516   -9.0354    0.0000 C   0  0  0  0  0  0  0  0  0  0  0  0
    9.0371   -8.6229    0.0000 C   0  0  0  0  0  0  0  0  0  0  0  0
    8.3226   -9.0354    0.0000 C   0  0  0  0  0  0  0  0  0  0  0  0
    7.6081   -8.6229    0.0000 C   0  0  0  0  0  0  0  0  0  0  0  0
    6.8937   -9.0354    0.0000 C   0  0  0  0  0  0  0  0  0  0  0  0
    6.1792   -8.6229    0.0000 C   0  0  0  0  0  0  0  0  0  0  0  0
    5.3542   -8.6229    0.0000 C   0  0  0  0  0  0  0  0  0  0  0  0
    4.6397   -9.0354    0.0000 C   0  0  0  0  0  0  0  0  0  0  0  0
    3.9253   -8.6229    0.0000 C   0  0  0  0  0  0  0  0  0  0  0  0
    3.2108   -9.0354    0.0000 C   0  0  0  0  0  0  0  0  0  0  0  0
    2.4963   -8.6229    0.0000 C   0  0  0  0  0  0  0  0  0  0  0  0
    1.7819   -9.0354    0.0000 C   0  0  0  0  0  0  0  0  0  0  0  0
    1.0674   -8.6229    0.0000 C   0  0  0  0  0  0  0  0  0  0  0  0
   11.8950   -7.7979    0.0000 O   0  0  0  0  0  0  0  0  0  0  0  0
   12.6094   -9.0354    0.0000 O   0  0  0  0  0  0  0  0  0  0  0  0
    5.7667   -7.9084    0.0000 C   0  0  0  0  0  0  0  0  0  0  0  0
   13.3239   -8.6229    0.0000 C   0  0  0  0  0  0  0  0  0  0  0  0
  1  2  1  0  0  0  0
  2  3  1  0  0  0  0
  3  4  1  0  0  0  0
  4  5  1  0  0  0  0
  5  6  1  0  0  0  0
  6  7  1  0  0  0  0
  7  8  1  0  0  0  0
  8  9  1  0  0  0  0
  9 10  1  0  0  0  0
 10 11  1  0  0  0  0
 11 12  1  0  0  0  0
 12 13  1  0  0  0  0
 13 14  1  0  0  0  0
 14 15  1  0  0  0  0
 15 16  1  0  0  0  0
  1 17  2  0  0  0  0
  1 18  1  0  0  0  0
  9 19  1  0  0  0  0
 10 19  1  0  0  0  0
 18 20  1  0  0  0  0
M  END
>  <cdx:groupId>
62

>  <cdx:fragmentId>
5

$$$$
