95303.cdx
  Mrv1902 05222410222D          

 58 64  0  0  0  0            999 V2000
    6.2801  -11.1166    0.0000 C   0  0  1  0  0  0  0  0  0  0  0  0
    6.2801  -10.2916    0.0000 C   0  0  2  0  0  0  0  0  0  0  0  0
    6.9945   -9.8791    0.0000 C   0  0  0  0  0  0  0  0  0  0  0  0
    6.9945  -11.5291    0.0000 C   0  0  0  0  0  0  0  0  0  0  0  0
    7.4070  -12.2436    0.0000 C   0  0  0  0  0  0  0  0  0  0  0  0
    6.5820  -12.2436    0.0000 C   0  0  0  0  0  0  0  0  0  0  0  0
    7.7090  -11.1166    0.0000 C   0  0  2  0  0  0  0  0  0  0  0  0
    7.7090  -11.9416    0.0000 H   0  0  0  0  0  0  0  0  0  0  0  0
    8.4235  -11.5291    0.0000 C   0  0  0  0  0  0  0  0  0  0  0  0
    9.1379  -11.1166    0.0000 C   0  0  0  0  0  0  0  0  0  0  0  0
    9.1379  -10.2916    0.0000 C   0  0  1  0  0  0  0  0  0  0  0  0
    9.1379   -9.4666    0.0000 C   0  0  0  0  0  0  0  0  0  0  0  0
    9.8524   -9.8791    0.0000 C   0  0  2  0  0  0  0  0  0  0  0  0
    9.8524  -10.7041    0.0000 C   0  0  0  0  0  0  0  0  0  0  0  0
   10.5669  -10.2916    0.0000 C   0  0  0  0  0  0  0  0  0  0  0  0
   11.2814   -9.8791    0.0000 C   0  0  2  0  0  0  0  0  0  0  0  0
   11.2814   -9.0541    0.0000 C   0  0  1  0  0  0  0  0  0  0  0  0
   12.0120   -9.5216    0.0000 C   0  0  0  0  0  0  0  0  0  0  0  0
   11.9958   -8.6416    0.0000 C   0  0  0  0  0  0  0  0  0  0  0  0
   11.9958   -7.8166    0.0000 C   0  0  0  0  0  0  0  0  0  0  0  0
   11.2814   -7.4041    0.0000 C   0  0  0  0  0  0  0  0  0  0  0  0
   10.8689   -6.6896    0.0000 C   0  0  0  0  0  0  0  0  0  0  0  0
   11.6939   -6.6896    0.0000 C   0  0  0  0  0  0  0  0  0  0  0  0
   10.5669   -7.8166    0.0000 C   0  0  0  0  0  0  0  0  0  0  0  0
   10.5669   -8.6416    0.0000 C   0  0  1  0  0  0  0  0  0  0  0  0
   10.5669   -9.4666    0.0000 H   0  0  0  0  0  0  0  0  0  0  0  0
    9.8524   -9.0541    0.0000 C   0  0  0  0  0  0  0  0  0  0  0  0
    9.1379   -8.6416    0.0000 C   0  0  0  0  0  0  0  0  0  0  0  0
    8.4235   -9.0541    0.0000 C   0  0  0  0  0  0  0  0  0  0  0  0
    8.4235   -9.8791    0.0000 C   0  0  2  0  0  0  0  0  0  0  0  0
    7.7090  -10.2916    0.0000 C   0  0  1  0  0  0  0  0  0  0  0  0
    7.7090   -9.4666    0.0000 C   0  0  0  0  0  0  0  0  0  0  0  0
   12.0120  -10.3466    0.0000 O   0  0  0  0  0  0  0  0  0  0  0  0
   12.7265   -9.1091    0.0000 O   0  0  0  0  0  0  0  0  0  0  0  0
   11.2814  -10.7041    0.0000 O   0  0  0  0  0  0  0  0  0  0  0  0
    5.5656   -9.8791    0.0000 O   0  0  0  0  0  0  0  0  0  0  0  0
    4.8485  -11.1093    0.0000 C   0  0  1  0  0  0  0  0  0  0  0  0
    4.1350  -11.5233    0.0000 C   0  0  2  0  0  0  0  0  0  0  0  0
    4.1368  -12.3483    0.0000 O   0  0  0  0  0  0  0  0  0  0  0  0
    3.4196  -11.1124    0.0000 C   0  0  1  0  0  0  0  0  0  0  0  0
    2.7060  -11.5264    0.0000 O   0  0  0  0  0  0  0  0  0  0  0  0
    3.4178  -10.2874    0.0000 C   0  0  2  0  0  0  0  0  0  0  0  0
    2.7024   -9.8764    0.0000 O   0  0  0  0  0  0  0  0  0  0  0  0
    4.1314   -9.8733    0.0000 C   0  0  2  0  0  0  0  0  0  0  0  0
    4.8467  -10.2843    0.0000 O   0  0  0  0  0  0  0  0  0  0  0  0
    4.1296   -9.0483    0.0000 C   0  0  0  0  0  0  0  0  0  0  0  0
    3.4142   -8.6374    0.0000 O   0  0  0  0  0  0  0  0  0  0  0  0
    3.4124   -7.8124    0.0000 C   0  0  2  0  0  0  0  0  0  0  0  0
    2.6970   -7.4014    0.0000 C   0  0  1  0  0  0  0  0  0  0  0  0
    1.9835   -7.8155    0.0000 O   0  0  0  0  0  0  0  0  0  0  0  0
    2.6952   -6.5764    0.0000 C   0  0  2  0  0  0  0  0  0  0  0  0
    1.9799   -6.1655    0.0000 O   0  0  0  0  0  0  0  0  0  0  0  0
    3.4088   -6.1624    0.0000 C   0  0  2  0  0  0  0  0  0  0  0  0
    3.4070   -5.3374    0.0000 O   0  0  0  0  0  0  0  0  0  0  0  0
    4.1242   -6.5733    0.0000 C   0  0  0  0  0  0  0  0  0  0  0  0
    4.1260   -7.3983    0.0000 O   0  0  0  0  0  0  0  0  0  0  0  0
    8.4235  -10.7041    0.0000 H   0  0  0  0  0  0  0  0  0  0  0  0
    5.5656  -11.5291    0.0000 O   0  0  0  0  0  0  0  0  0  0  0  0
  1  2  1  0  0  0  0
  2  3  1  0  0  0  0
  1  4  1  0  0  0  0
  4  5  1  0  0  0  0
  4  6  1  0  0  0  0
  4  7  1  0  0  0  0
  7  8  1  6  0  0  0
  7  9  1  0  0  0  0
  9 10  1  0  0  0  0
 10 11  1  0  0  0  0
 11 12  1  1  0  0  0
 11 13  1  0  0  0  0
 13 14  1  6  0  0  0
 13 15  1  0  0  0  0
 15 16  1  0  0  0  0
 16 17  1  0  0  0  0
 17 18  1  1  0  0  0
 17 19  1  0  0  0  0
 19 20  1  0  0  0  0
 20 21  1  0  0  0  0
 21 22  1  0  0  0  0
 21 23  1  0  0  0  0
 21 24  1  0  0  0  0
 24 25  1  0  0  0  0
 25 26  1  1  0  0  0
 17 25  1  0  0  0  0
 25 27  1  0  0  0  0
 13 27  1  0  0  0  0
 27 28  2  0  0  0  0
 28 29  1  0  0  0  0
 29 30  1  0  0  0  0
 11 30  1  0  0  0  0
 30 31  1  0  0  0  0
  3 31  1  0  0  0  0
  7 31  1  0  0  0  0
 31 32  1  1  0  0  0
 18 33  2  0  0  0  0
 18 34  1  0  0  0  0
 16 35  1  6  0  0  0
  2 36  1  1  0  0  0
 37 38  1  0  0  0  0
 38 39  1  6  0  0  0
 38 40  1  0  0  0  0
 40 41  1  1  0  0  0
 40 42  1  0  0  0  0
 42 43  1  6  0  0  0
 42 44  1  0  0  0  0
 44 45  1  0  0  0  0
 44 46  1  1  0  0  0
 46 47  1  0  0  0  0
 37 45  1  0  0  0  0
 48 49  1  0  0  0  0
 49 50  1  1  0  0  0
 49 51  1  0  0  0  0
 51 52  1  6  0  0  0
 51 53  1  0  0  0  0
 53 54  1  6  0  0  0
 53 55  1  0  0  0  0
 55 56  1  0  0  0  0
 48 56  1  0  0  0  0
 48 47  1  6  0  0  0
 30 57  1  6  0  0  0
  1 58  1  1  0  0  0
 37 58  1  1  0  0  0
M  END
>  <cdx:fragmentId>
5

$$$$
