95306.cdx
  Mrv1902 05222410212D          

 22 25  0  0  0  0            999 V2000
    4.7006   -7.9063    0.0000 C   0  0  0  0  0  0  0  0  0  0  0  0
    4.7006   -8.7313    0.0000 C   0  0  0  0  0  0  0  0  0  0  0  0
    5.4150   -9.1438    0.0000 C   0  0  0  0  0  0  0  0  0  0  0  0
    6.1295   -8.7313    0.0000 C   0  0  0  0  0  0  0  0  0  0  0  0
    6.1295   -7.9063    0.0000 C   0  0  0  0  0  0  0  0  0  0  0  0
    5.4150   -7.4937    0.0000 C   0  0  0  0  0  0  0  0  0  0  0  0
    6.8440   -9.1438    0.0000 C   0  0  0  0  0  0  0  0  0  0  0  0
    7.5584   -8.7313    0.0000 C   0  0  0  0  0  0  0  0  0  0  0  0
    7.5584   -7.9063    0.0000 C   0  0  0  0  0  0  0  0  0  0  0  0
    6.8440   -7.4937    0.0000 C   0  0  0  0  0  0  0  0  0  0  0  0
    8.2729   -7.4937    0.0000 C   0  0  0  0  0  0  0  0  0  0  0  0
    8.2729   -6.6688    0.0000 C   0  0  0  0  0  0  0  0  0  0  0  0
    7.5584   -6.2563    0.0000 C   0  0  0  0  0  0  0  0  0  0  0  0
    6.8440   -6.6688    0.0000 C   0  0  0  0  0  0  0  0  0  0  0  0
    9.0575   -7.7487    0.0000 O   0  0  0  0  0  0  0  0  0  0  0  0
    9.5425   -7.0812    0.0000 C   0  0  0  0  0  0  0  0  0  0  0  0
    9.0575   -6.4138    0.0000 C   0  0  0  0  0  0  0  0  0  0  0  0
    3.9861   -9.1438    0.0000 O   0  0  0  0  0  0  0  0  0  0  0  0
    5.4150   -9.9688    0.0000 C   0  0  0  0  0  0  0  0  0  0  0  0
    6.1295   -6.2563    0.0000 O   0  0  0  0  0  0  0  0  0  0  0  0
    7.5584   -5.4313    0.0000 O   0  0  0  0  0  0  0  0  0  0  0  0
    9.3125   -5.6292    0.0000 C   0  0  0  0  0  0  0  0  0  0  0  0
  1  2  1  0  0  0  0
  2  3  1  0  0  0  0
  3  4  1  0  0  0  0
  4  5  2  0  0  0  0
  5  6  1  0  0  0  0
  6  1  1  0  0  0  0
  4  7  1  0  0  0  0
  7  8  2  0  0  0  0
  8  9  1  0  0  0  0
  9 10  2  0  0  0  0
 10  5  1  0  0  0  0
  9 11  1  0  0  0  0
 11 12  2  0  0  0  0
 12 13  1  0  0  0  0
 13 14  1  0  0  0  0
 14 10  1  0  0  0  0
 11 15  1  0  0  0  0
 15 16  1  0  0  0  0
 16 17  2  0  0  0  0
 17 12  1  0  0  0  0
  2 18  1  0  0  0  0
  3 19  2  0  0  0  0
 14 20  2  0  0  0  0
 13 21  2  0  0  0  0
 17 22  1  0  0  0  0
M  END
>  <cdx:fragmentId>
5

$$$$
