95302.cdx
  Mrv1902 05222410222D          

 45 49  0  0  0  0            999 V2000
    8.8435   -5.9966    0.0000 C   0  0  0  0  0  0  0  0  0  0  0  0
    8.8435   -6.8216    0.0000 C   0  0  0  0  0  0  0  0  0  0  0  0
    8.1291   -7.2341    0.0000 C   0  0  0  0  0  0  0  0  0  0  0  0
    8.1291   -8.0591    0.0000 O   0  0  0  0  0  0  0  0  0  0  0  0
    7.4146   -6.8216    0.0000 C   0  0  0  0  0  0  0  0  0  0  0  0
    6.7001   -7.2341    0.0000 C   0  0  0  0  0  0  0  0  0  0  0  0
    6.7001   -8.0591    0.0000 O   0  0  0  0  0  0  0  0  0  0  0  0
    5.9856   -6.8216    0.0000 C   0  0  0  0  0  0  0  0  0  0  0  0
    5.9856   -5.9966    0.0000 C   0  0  0  0  0  0  0  0  0  0  0  0
    5.2712   -5.5841    0.0000 O   0  0  0  0  0  0  0  0  0  0  0  0
    6.7001   -5.5841    0.0000 C   0  0  0  0  0  0  0  0  0  0  0  0
    7.4146   -5.9966    0.0000 C   0  0  0  0  0  0  0  0  0  0  0  0
    8.1291   -5.5841    0.0000 O   0  0  0  0  0  0  0  0  0  0  0  0
    9.5580   -5.5841    0.0000 C   0  0  0  0  0  0  0  0  0  0  0  0
   10.2725   -5.9966    0.0000 C   0  0  0  0  0  0  0  0  0  0  0  0
   10.9869   -5.5841    0.0000 C   0  0  0  0  0  0  0  0  0  0  0  0
   10.9869   -4.7591    0.0000 C   0  0  0  0  0  0  0  0  0  0  0  0
   11.7014   -4.3466    0.0000 O   0  0  0  0  0  0  0  0  0  0  0  0
   10.2725   -4.3466    0.0000 C   0  0  0  0  0  0  0  0  0  0  0  0
    9.5580   -4.7591    0.0000 C   0  0  0  0  0  0  0  0  0  0  0  0
    5.2754   -7.2313    0.0000 C   0  0  1  0  0  0  0  0  0  0  0  0
    5.2682   -8.0563    0.0000 C   0  0  2  0  0  0  0  0  0  0  0  0
    5.9791   -8.4750    0.0000 O   0  0  0  0  0  0  0  0  0  0  0  0
    4.5502   -8.4626    0.0000 C   0  0  1  0  0  0  0  0  0  0  0  0
    4.5430   -9.2876    0.0000 O   0  0  0  0  0  0  0  0  0  0  0  0
    3.8393   -8.0439    0.0000 C   0  0  2  0  0  0  0  0  0  0  0  0
    3.1213   -8.4502    0.0000 O   0  0  0  0  0  0  0  0  0  0  0  0
    3.8465   -7.2189    0.0000 C   0  0  2  0  0  0  0  0  0  0  0  0
    4.5645   -6.8127    0.0000 O   0  0  0  0  0  0  0  0  0  0  0  0
    5.9719   -9.3000    0.0000 C   0  0  1  0  0  0  0  0  0  0  0  0
    6.6828   -9.7186    0.0000 C   0  0  2  0  0  0  0  0  0  0  0  0
    7.4008   -9.3124    0.0000 O   0  0  0  0  0  0  0  0  0  0  0  0
    6.6756  -10.5436    0.0000 C   0  0  1  0  0  0  0  0  0  0  0  0
    7.3865  -10.9623    0.0000 O   0  0  0  0  0  0  0  0  0  0  0  0
    5.9576  -10.9499    0.0000 C   0  0  1  0  0  0  0  0  0  0  0  0
    5.9504  -11.7749    0.0000 O   0  0  0  0  0  0  0  0  0  0  0  0
    5.2467  -10.5312    0.0000 C   0  0  2  0  0  0  0  0  0  0  0  0
    5.2539   -9.7062    0.0000 O   0  0  0  0  0  0  0  0  0  0  0  0
    4.5287  -10.9375    0.0000 C   0  0  0  0  0  0  0  0  0  0  0  0
    3.8178  -10.5188    0.0000 O   0  0  0  0  0  0  0  0  0  0  0  0
    4.5216  -11.7625    0.0000 O   0  0  0  0  0  0  0  0  0  0  0  0
   10.2725   -3.5216    0.0000 O   0  0  0  0  0  0  0  0  0  0  0  0
    3.1356   -6.8003    0.0000 C   0  0  0  0  0  0  0  0  0  0  0  0
    2.4176   -7.2066    0.0000 O   0  0  0  0  0  0  0  0  0  0  0  0
    5.2825   -6.4064    0.0000 H   0  0  0  0  0  0  0  0  0  0  0  0
  1  2  2  0  0  0  0
  2  3  1  0  0  0  0
  3  4  2  0  0  0  0
  3  5  1  0  0  0  0
  5  6  1  0  0  0  0
  6  7  1  0  0  0  0
  6  8  2  0  0  0  0
  8  9  1  0  0  0  0
  9 10  1  0  0  0  0
  9 11  2  0  0  0  0
 11 12  1  0  0  0  0
  5 12  2  0  0  0  0
 12 13  1  0  0  0  0
  1 13  1  0  0  0  0
  1 14  1  0  0  0  0
 14 15  1  0  0  0  0
 15 16  2  0  0  0  0
 16 17  1  0  0  0  0
 17 18  1  0  0  0  0
 17 19  2  0  0  0  0
 19 20  1  0  0  0  0
 14 20  2  0  0  0  0
 21 22  1  0  0  0  0
 22 23  1  6  0  0  0
 22 24  1  0  0  0  0
 24 25  1  1  0  0  0
 24 26  1  0  0  0  0
 26 27  1  6  0  0  0
 26 28  1  0  0  0  0
 28 29  1  0  0  0  0
 21 29  1  0  0  0  0
 30 31  1  0  0  0  0
 31 32  1  6  0  0  0
 31 33  1  0  0  0  0
 33 34  1  1  0  0  0
 33 35  1  0  0  0  0
 35 36  1  1  0  0  0
 35 37  1  0  0  0  0
 37 38  1  0  0  0  0
 37 39  1  1  0  0  0
 30 38  1  0  0  0  0
 39 40  2  0  0  0  0
 39 41  1  0  0  0  0
 30 23  1  1  0  0  0
 21  8  1  0  0  0  0
 19 42  1  0  0  0  0
 28 43  1  1  0  0  0
 43 44  1  0  0  0  0
 21 45  1  6  0  0  0
M  END
>  <cdx:groupId>
138

>  <cdx:fragmentId>
140

$$$$
