95300.cdx
  Mrv1902 05222410222D          

 42 46  0  0  0  0            999 V2000
    6.3918   -8.1125    0.0000 C   0  0  0  0  0  0  0  0  0  0  0  0
    6.3918   -8.9375    0.0000 C   0  0  0  0  0  0  0  0  0  0  0  0
    7.1063   -9.3500    0.0000 C   0  0  0  0  0  0  0  0  0  0  0  0
    7.8207   -8.9375    0.0000 C   0  0  0  0  0  0  0  0  0  0  0  0
    7.8207   -8.1125    0.0000 C   0  0  0  0  0  0  0  0  0  0  0  0
    7.1063   -7.7000    0.0000 C   0  0  0  0  0  0  0  0  0  0  0  0
    8.5352   -9.3500    0.0000 C   0  0  0  0  0  0  0  0  0  0  0  0
    9.2497   -8.9375    0.0000 C   0  0  0  0  0  0  0  0  0  0  0  0
    9.2497   -8.1125    0.0000 C   0  0  0  0  0  0  0  0  0  0  0  0
    8.5352   -7.7000    0.0000 O   0  0  0  0  0  0  0  0  0  0  0  0
    5.6773   -7.7000    0.0000 O   0  0  0  0  0  0  0  0  0  0  0  0
    7.1063  -10.1750    0.0000 O   0  0  0  0  0  0  0  0  0  0  0  0
    8.5352  -10.1750    0.0000 O   0  0  0  0  0  0  0  0  0  0  0  0
    9.9642   -7.7000    0.0000 C   0  0  0  0  0  0  0  0  0  0  0  0
   10.6786   -8.1125    0.0000 C   0  0  0  0  0  0  0  0  0  0  0  0
   11.3931   -7.7000    0.0000 C   0  0  0  0  0  0  0  0  0  0  0  0
   11.3931   -6.8750    0.0000 C   0  0  0  0  0  0  0  0  0  0  0  0
   10.6786   -6.4625    0.0000 C   0  0  0  0  0  0  0  0  0  0  0  0
    9.9642   -6.8750    0.0000 C   0  0  0  0  0  0  0  0  0  0  0  0
   10.6786   -5.6375    0.0000 O   0  0  0  0  0  0  0  0  0  0  0  0
   12.1076   -6.4625    0.0000 O   0  0  0  0  0  0  0  0  0  0  0  0
    6.3879   -5.6251    0.0000 C   0  0  2  0  0  0  0  0  0  0  0  0
    5.6708   -5.2172    0.0000 C   0  0  2  0  0  0  0  0  0  0  0  0
    4.9590   -5.6342    0.0000 C   0  0  1  0  0  0  0  0  0  0  0  0
    4.9643   -6.4592    0.0000 C   0  0  2  0  0  0  0  0  0  0  0  0
    5.6813   -6.8671    0.0000 C   0  0  1  0  0  0  0  0  0  0  0  0
    6.3932   -6.4501    0.0000 O   0  0  0  0  0  0  0  0  0  0  0  0
    7.0998   -5.2081    0.0000 C   0  0  0  0  0  0  0  0  0  0  0  0
    4.2419   -5.2263    0.0000 O   0  0  0  0  0  0  0  0  0  0  0  0
    5.6656   -4.3922    0.0000 O   0  0  0  0  0  0  0  0  0  0  0  0
    4.2524   -6.8762    0.0000 O   0  0  0  0  0  0  0  0  0  0  0  0
    7.0945   -4.3831    0.0000 O   0  0  0  0  0  0  0  0  0  0  0  0
    4.2878   -9.3447    0.0000 C   0  0  0  0  0  0  0  0  0  0  0  0
    4.2878  -10.1697    0.0000 C   0  0  1  0  0  0  0  0  0  0  0  0
    5.0023  -10.5822    0.0000 C   0  0  1  0  0  0  0  0  0  0  0  0
    5.7167  -10.1697    0.0000 C   0  0  2  0  0  0  0  0  0  0  0  0
    5.7167   -9.3447    0.0000 C   0  0  1  0  0  0  0  0  0  0  0  0
    5.0023   -8.9322    0.0000 O   0  0  0  0  0  0  0  0  0  0  0  0
    5.0023  -11.4072    0.0000 O   0  0  0  0  0  0  0  0  0  0  0  0
    3.5733  -10.5822    0.0000 O   0  0  0  0  0  0  0  0  0  0  0  0
    6.4312  -10.5822    0.0000 O   0  0  0  0  0  0  0  0  0  0  0  0
    5.7167   -8.5197    0.0000 H   0  0  0  0  0  0  0  0  0  0  0  0
  1  2  2  0  0  0  0
  2  3  1  0  0  0  0
  3  4  2  0  0  0  0
  4  5  1  0  0  0  0
  5  6  2  0  0  0  0
  6  1  1  0  0  0  0
  4  7  1  0  0  0  0
  7  8  1  0  0  0  0
  8  9  2  0  0  0  0
  9 10  1  0  0  0  0
 10  5  1  0  0  0  0
  1 11  1  0  0  0  0
  3 12  1  0  0  0  0
  7 13  2  0  0  0  0
  9 14  1  0  0  0  0
 14 15  2  0  0  0  0
 15 16  1  0  0  0  0
 16 17  2  0  0  0  0
 17 18  1  0  0  0  0
 18 19  2  0  0  0  0
 19 14  1  0  0  0  0
 18 20  1  0  0  0  0
 17 21  1  0  0  0  0
 22 23  1  0  0  0  0
 23 24  1  0  0  0  0
 24 25  1  0  0  0  0
 25 26  1  0  0  0  0
 26 27  1  0  0  0  0
 27 22  1  0  0  0  0
 22 28  1  1  0  0  0
 24 29  1  1  0  0  0
 23 30  1  6  0  0  0
 25 31  1  6  0  0  0
 28 32  1  0  0  0  0
 33 34  1  0  0  0  0
 34 35  1  0  0  0  0
 35 36  1  0  0  0  0
 36 37  1  0  0  0  0
 37 38  1  0  0  0  0
 38 33  1  0  0  0  0
 35 39  1  1  0  0  0
 34 40  1  1  0  0  0
 36 41  1  6  0  0  0
 26 11  1  1  0  0  0
 37  2  1  0  0  0  0
 37 42  1  6  0  0  0
M  END
>  <cdx:fragmentId>
5

$$$$
