95312.cdx
  Mrv1902 05222410212D          

 30 33  0  0  0  0            999 V2000
    5.9723   -9.1099    0.0000 C   0  0  0  0  0  0  0  0  0  0  0  0
    5.9723   -9.9349    0.0000 C   0  0  0  0  0  0  0  0  0  0  0  0
    6.6868  -10.3474    0.0000 C   0  0  0  0  0  0  0  0  0  0  0  0
    7.4012   -9.9349    0.0000 C   0  0  0  0  0  0  0  0  0  0  0  0
    8.1157  -10.3474    0.0000 C   0  0  0  0  0  0  0  0  0  0  0  0
    8.8302   -9.9349    0.0000 C   0  0  0  0  0  0  0  0  0  0  0  0
    8.8302   -9.1099    0.0000 C   0  0  0  0  0  0  0  0  0  0  0  0
    8.1157   -8.6974    0.0000 C   0  0  0  0  0  0  0  0  0  0  0  0
    7.4012   -9.1099    0.0000 C   0  0  0  0  0  0  0  0  0  0  0  0
    6.6868   -8.6974    0.0000 O   0  0  0  0  0  0  0  0  0  0  0  0
    9.4433   -8.5579    0.0000 O   0  0  0  0  0  0  0  0  0  0  0  0
    8.2872   -7.8904    0.0000 C   0  0  0  0  0  0  0  0  0  0  0  0
    9.1077   -7.8042    0.0000 C   0  0  0  0  0  0  0  0  0  0  0  0
    6.6868  -11.1724    0.0000 O   0  0  0  0  0  0  0  0  0  0  0  0
   10.3452   -5.6608    0.0000 O   0  0  0  0  0  0  0  0  0  0  0  0
    8.1157  -11.1724    0.0000 O   0  0  0  0  0  0  0  0  0  0  0  0
    5.2578  -10.3474    0.0000 O   0  0  0  0  0  0  0  0  0  0  0  0
   10.3452   -7.0897    0.0000 O   0  0  0  0  0  0  0  0  0  0  0  0
    9.1077   -4.9463    0.0000 C   0  0  0  0  0  0  0  0  0  0  0  0
    9.5202   -5.6608    0.0000 C   0  0  0  0  0  0  0  0  0  0  0  0
    9.1077   -6.3753    0.0000 C   0  0  0  0  0  0  0  0  0  0  0  0
    9.5202   -7.0897    0.0000 C   0  0  0  0  0  0  0  0  0  0  0  0
    4.5434   -6.6349    0.0000 O   0  0  0  0  0  0  0  0  0  0  0  0
    3.1144   -7.4599    0.0000 O   0  0  0  0  0  0  0  0  0  0  0  0
    4.5434   -9.1099    0.0000 C   0  0  0  0  0  0  0  0  0  0  0  0
    3.8289   -8.6974    0.0000 C   0  0  0  0  0  0  0  0  0  0  0  0
    3.8289   -7.8724    0.0000 C   0  0  0  0  0  0  0  0  0  0  0  0
    4.5434   -7.4599    0.0000 C   0  0  0  0  0  0  0  0  0  0  0  0
    5.2578   -7.8724    0.0000 C   0  0  0  0  0  0  0  0  0  0  0  0
    5.2578   -8.6974    0.0000 C   0  0  0  0  0  0  0  0  0  0  0  0
 20 15  1  0  0  0  0
 22 18  2  0  0  0  0
 20 19  1  0  0  0  0
 21 20  2  0  0  0  0
 22 21  1  0  0  0  0
 28 23  1  0  0  0  0
 27 24  1  0  0  0  0
 30 25  2  0  0  0  0
 26 25  1  0  0  0  0
 27 26  2  0  0  0  0
 28 27  1  0  0  0  0
 29 28  2  0  0  0  0
 30 29  1  0  0  0  0
  1  2  2  0  0  0  0
  2  3  1  0  0  0  0
  3  4  1  0  0  0  0
  4  5  1  0  0  0  0
  5  6  2  0  0  0  0
  6  7  1  0  0  0  0
  7  8  2  0  0  0  0
  8  9  1  0  0  0  0
  4  9  2  0  0  0  0
  9 10  1  0  0  0  0
  1 10  1  0  0  0  0
 12 13  1  0  0  0  0
 11 13  1  0  0  0  0
 11  7  1  0  0  0  0
 12  8  1  0  0  0  0
  3 14  2  0  0  0  0
 13 22  1  0  0  0  0
  5 16  1  0  0  0  0
  2 17  1  0  0  0  0
  1 30  1  0  0  0  0
M  END
>  <cdx:groupId>
95

>  <cdx:fragmentId>
5

$$$$
