95315.cdx
  Mrv1902 05222410232D          

 12 12  0  0  0  0            999 V2000
    5.7165   -8.9414    0.0000 C   0  0  0  0  0  0  0  0  0  0  0  0
    5.0020   -9.3539    0.0000 C   0  0  0  0  0  0  0  0  0  0  0  0
    5.7165   -8.1164    0.0000 O   0  0  0  0  0  0  0  0  0  0  0  0
    6.4310   -9.3539    0.0000 O   0  0  0  0  0  0  0  0  0  0  0  0
    7.8599   -7.7039    0.0000 N   0  0  0  0  0  0  0  0  0  0  0  0
    7.1455   -8.1164    0.0000 C   0  0  0  0  0  0  0  0  0  0  0  0
    7.1455   -8.9414    0.0000 C   0  0  0  0  0  0  0  0  0  0  0  0
    7.8599   -9.3539    0.0000 C   0  0  0  0  0  0  0  0  0  0  0  0
    8.5744   -8.9414    0.0000 C   0  0  0  0  0  0  0  0  0  0  0  0
    8.5744   -8.1164    0.0000 C   0  0  0  0  0  0  0  0  0  0  0  0
    9.2889   -7.7039    0.0000 O   0  0  0  0  0  0  0  0  0  0  0  0
    6.4310   -7.7039    0.0000 O   0  0  0  0  0  0  0  0  0  0  0  0
  1  2  1  0  0  0  0
  1  3  2  0  0  0  0
  1  4  1  0  0  0  0
  5  6  1  0  0  0  0
  6  7  1  0  0  0  0
  7  8  1  0  0  0  0
  8  9  1  0  0  0  0
  9 10  1  0  0  0  0
  5 10  1  0  0  0  0
 10 11  2  0  0  0  0
  6 12  2  0  0  0  0
  4  7  1  0  0  0  0
M  END
>  <cdx:groupId>
38

>  <cdx:fragmentId>
13

$$$$
