95310.cdx
  Mrv1902 05222410212D          

 23 23  0  0  0  0            999 V2000
    9.2875   -8.0362    0.0000 C   0  0  0  0  0  0  0  0  0  0  0  0
    8.5730   -7.6237    0.0000 C   0  0  0  0  0  0  0  0  0  0  0  0
    7.8586   -8.0362    0.0000 C   0  0  0  0  0  0  0  0  0  0  0  0
    7.1441   -7.6237    0.0000 C   0  0  0  0  0  0  0  0  0  0  0  0
    6.4296   -8.0362    0.0000 C   0  0  0  0  0  0  0  0  0  0  0  0
    5.7152   -7.6237    0.0000 C   0  0  0  0  0  0  0  0  0  0  0  0
    5.0007   -8.0362    0.0000 C   0  0  0  0  0  0  0  0  0  0  0  0
    4.2862   -7.6237    0.0000 C   0  0  0  0  0  0  0  0  0  0  0  0
    3.5717   -8.0362    0.0000 C   0  0  0  0  0  0  0  0  0  0  0  0
    2.8573   -7.6237    0.0000 C   0  0  0  0  0  0  0  0  0  0  0  0
    1.4283   -7.6237    0.0000 C   0  0  0  0  0  0  0  0  0  0  0  0
    0.7139   -8.0362    0.0000 C   0  0  0  0  0  0  0  0  0  0  0  0
    0.7139   -8.8612    0.0000 C   0  0  0  0  0  0  0  0  0  0  0  0
    1.4283   -9.2737    0.0000 C   0  0  0  0  0  0  0  0  0  0  0  0
    2.1428   -8.8612    0.0000 C   0  0  0  0  0  0  0  0  0  0  0  0
    2.1428   -8.0362    0.0000 N   0  0  0  0  0  0  0  0  0  0  0  0
    2.8573   -6.7987    0.0000 O   0  0  0  0  0  0  0  0  0  0  0  0
   10.0020   -7.6237    0.0000 C   0  0  0  0  0  0  0  0  0  0  0  0
   10.0020   -6.7987    0.0000 C   0  0  0  0  0  0  0  0  0  0  0  0
   10.7164   -6.3862    0.0000 C   0  0  0  0  0  0  0  0  0  0  0  0
   10.7164   -5.5612    0.0000 C   0  0  0  0  0  0  0  0  0  0  0  0
   11.4309   -5.1487    0.0000 C   0  0  0  0  0  0  0  0  0  0  0  0
   11.4309   -4.3237    0.0000 C   0  0  0  0  0  0  0  0  0  0  0  0
 16 10  1  0  0  0  0
  2  1  1  0  0  0  0
  3  2  1  0  0  0  0
  4  3  1  0  0  0  0
  5  4  1  0  0  0  0
  6  5  1  0  0  0  0
  7  6  2  0  0  0  0
  8  7  1  0  0  0  0
  9  8  2  0  0  0  0
 10  9  1  0  0  0  0
 16 11  1  0  0  0  0
 12 11  1  0  0  0  0
 13 12  1  0  0  0  0
 14 13  1  0  0  0  0
 15 14  1  0  0  0  0
 16 15  1  0  0  0  0
 10 17  2  0  0  0  0
  1 18  2  0  0  0  0
 18 19  1  0  0  0  0
 19 20  1  0  0  0  0
 20 21  1  0  0  0  0
 21 22  1  0  0  0  0
 22 23  1  0  0  0  0
M  END
>  <cdx:groupId>
68

>  <cdx:fragmentId>
17

$$$$
