95318.cdx
  Mrv1902 05222410232D          

 16 17  0  0  0  0            999 V2000
    6.7448   -6.7726    0.0000 C   0  0  1  0  0  0  0  0  0  0  0  0
    6.9069   -7.6712    0.0000 C   0  0  2  0  0  0  0  0  0  0  0  0
    8.0430   -7.1043    0.0000 C   0  0  0  0  0  0  0  0  0  0  0  0
    7.6690   -8.1275    0.0000 C   0  0  0  0  0  0  0  0  0  0  0  0
    8.3468   -7.7312    0.0000 C   0  0  0  0  0  0  0  0  0  0  0  0
    5.8075   -7.6097    0.0000 C   0  0  0  0  0  0  0  0  0  0  0  0
    7.1573   -6.0581    0.0000 C   0  0  0  0  0  0  0  0  0  0  0  0
    7.6647   -8.9525    0.0000 C   0  0  0  0  0  0  0  0  0  0  0  0
    5.0930   -7.1972    0.0000 C   0  0  0  0  0  0  0  0  0  0  0  0
    5.5718   -8.4003    0.0000 C   0  0  0  0  0  0  0  0  0  0  0  0
    7.4315   -5.2800    0.0000 O   0  0  0  0  0  0  0  0  0  0  0  0
    6.8947   -4.6535    0.0000 C   0  0  0  0  0  0  0  0  0  0  0  0
    7.1689   -3.8754    0.0000 C   0  0  0  0  0  0  0  0  0  0  0  0
    6.0838   -4.8051    0.0000 O   0  0  0  0  0  0  0  0  0  0  0  0
    6.1047   -6.2521    0.0000 H   0  0  0  0  0  0  0  0  0  0  0  0
    6.6649   -8.4599    0.0000 H   0  0  0  0  0  0  0  0  0  0  0  0
  1  3  1  0  0  0  0
  2  4  1  0  0  0  0
  3  5  1  0  0  0  0
  4  5  2  0  0  0  0
  2  6  1  0  0  0  0
  1  6  1  0  0  0  0
  1  7  1  0  0  0  0
  7  2  1  0  0  0  0
  4  8  1  0  0  0  0
  6  9  1  0  0  0  0
  6 10  1  0  0  0  0
  7 11  1  0  0  0  0
 11 12  1  0  0  0  0
 12 13  1  0  0  0  0
 12 14  2  0  0  0  0
  1 15  1  6  0  0  0
  2 16  1  1  0  0  0
M  END
>  <cdx:groupId>
822

>  <cdx:fragmentId>
823

$$$$
