95311.cdx
  Mrv1902 05222410202D          

 28 29  0  0  0  0            999 V2000
   14.1291   -9.8827    0.0000 C   0  0  0  0  0  0  0  0  0  0  0  0
   13.4149   -9.4704    0.0000 C   0  0  0  0  0  0  0  0  0  0  0  0
   13.4149   -8.6456    0.0000 C   0  0  0  0  0  0  0  0  0  0  0  0
   14.1291   -8.2333    0.0000 C   0  0  0  0  0  0  0  0  0  0  0  0
   14.8434   -9.4704    0.0000 C   0  0  0  0  0  0  0  0  0  0  0  0
   14.8434   -8.6456    0.0000 C   0  0  0  0  0  0  0  0  0  0  0  0
   15.6278   -8.3908    0.0000 O   0  0  0  0  0  0  0  0  0  0  0  0
   16.1125   -9.0580    0.0000 C   0  0  0  0  0  0  0  0  0  0  0  0
   15.6278   -9.7252    0.0000 O   0  0  0  0  0  0  0  0  0  0  0  0
    1.9870   -9.4704    0.0000 C   0  0  0  0  0  0  0  0  0  0  0  0
    1.2727   -8.2333    0.0000 C   0  0  0  0  0  0  0  0  0  0  0  0
    1.9870   -8.6456    0.0000 C   0  0  0  0  0  0  0  0  0  0  0  0
    2.7012   -8.2333    0.0000 C   0  0  0  0  0  0  0  0  0  0  0  0
    3.4155   -8.6456    0.0000 N   0  0  0  0  0  0  0  0  0  0  0  0
    4.1297   -7.4085    0.0000 O   0  0  0  0  0  0  0  0  0  0  0  0
   12.7006   -8.2333    0.0000 C   0  0  0  0  0  0  0  0  0  0  0  0
   11.9864   -8.6456    0.0000 C   0  0  0  0  0  0  0  0  0  0  0  0
   11.2722   -8.2333    0.0000 C   0  0  0  0  0  0  0  0  0  0  0  0
   10.5579   -8.6456    0.0000 C   0  0  0  0  0  0  0  0  0  0  0  0
    9.8437   -8.2333    0.0000 C   0  0  0  0  0  0  0  0  0  0  0  0
    9.1294   -8.6456    0.0000 C   0  0  0  0  0  0  0  0  0  0  0  0
    8.4152   -8.2333    0.0000 C   0  0  0  0  0  0  0  0  0  0  0  0
    7.7009   -8.6456    0.0000 C   0  0  0  0  0  0  0  0  0  0  0  0
    6.9867   -8.2333    0.0000 C   0  0  0  0  0  0  0  0  0  0  0  0
    6.2724   -8.6456    0.0000 C   0  0  0  0  0  0  0  0  0  0  0  0
    5.5582   -8.2333    0.0000 C   0  0  0  0  0  0  0  0  0  0  0  0
    4.8439   -8.6456    0.0000 C   0  0  0  0  0  0  0  0  0  0  0  0
    4.1297   -8.2333    0.0000 C   0  0  0  0  0  0  0  0  0  0  0  0
 16  3  1  0  0  0  0
  4  6  2  0  0  0  0
  1  5  2  0  0  0  0
  2  1  1  0  0  0  0
  3  2  2  0  0  0  0
  4  3  1  0  0  0  0
  9  5  1  0  0  0  0
  6  5  1  0  0  0  0
  7  6  1  0  0  0  0
  8  7  1  0  0  0  0
  9  8  1  0  0  0  0
 14 13  1  0  0  0  0
 12 10  1  0  0  0  0
 12 11  1  0  0  0  0
 13 12  1  0  0  0  0
 28 14  1  0  0  0  0
 28 15  2  0  0  0  0
 17 16  1  0  0  0  0
 18 17  1  0  0  0  0
 19 18  1  0  0  0  0
 20 19  1  0  0  0  0
 21 20  1  0  0  0  0
 22 21  1  0  0  0  0
 23 22  1  0  0  0  0
 24 23  1  0  0  0  0
 25 24  2  0  0  0  0
 26 25  1  0  0  0  0
 27 26  2  0  0  0  0
 28 27  1  0  0  0  0
M  END
>  <cdx:groupId>
87

>  <cdx:fragmentId>
5

$$$$
