95316.cdx
  Mrv1902 05222410222D          

 21 22  0  0  0  0            999 V2000
    5.6658   -7.3724    0.0000 C   0  0  0  0  0  0  0  0  0  0  0  0
    4.9513   -7.7849    0.0000 C   0  0  0  0  0  0  0  0  0  0  0  0
    4.2368   -7.3724    0.0000 C   0  0  0  0  0  0  0  0  0  0  0  0
    5.6658   -6.5474    0.0000 O   0  0  0  0  0  0  0  0  0  0  0  0
    6.3802   -7.7849    0.0000 N   0  0  0  0  0  0  0  0  0  0  0  0
    7.0947   -7.3724    0.0000 C   0  0  0  0  0  0  0  0  0  0  0  0
    7.8092   -7.7849    0.0000 C   0  0  0  0  0  0  0  0  0  0  0  0
    8.5236   -7.3724    0.0000 C   0  0  0  0  0  0  0  0  0  0  0  0
    8.5236   -6.5474    0.0000 C   0  0  0  0  0  0  0  0  0  0  0  0
    9.2381   -6.1349    0.0000 C   0  0  0  0  0  0  0  0  0  0  0  0
    9.9526   -6.5474    0.0000 C   0  0  0  0  0  0  0  0  0  0  0  0
    9.9526   -7.3724    0.0000 C   0  0  0  0  0  0  0  0  0  0  0  0
    9.2381   -7.7849    0.0000 C   0  0  0  0  0  0  0  0  0  0  0  0
   10.6671   -6.1349    0.0000 O   0  0  0  0  0  0  0  0  0  0  0  0
    4.2368   -6.5474    0.0000 C   0  0  0  0  0  0  0  0  0  0  0  0
    3.5223   -6.1349    0.0000 C   0  0  0  0  0  0  0  0  0  0  0  0
    3.5223   -5.3099    0.0000 C   0  0  0  0  0  0  0  0  0  0  0  0
    4.2368   -4.8974    0.0000 C   0  0  0  0  0  0  0  0  0  0  0  0
    4.9513   -5.3099    0.0000 C   0  0  0  0  0  0  0  0  0  0  0  0
    4.9513   -6.1349    0.0000 C   0  0  0  0  0  0  0  0  0  0  0  0
    4.2368   -4.0724    0.0000 O   0  0  0  0  0  0  0  0  0  0  0  0
  1  2  1  0  0  0  0
  2  3  2  0  0  0  0
  1  4  2  0  0  0  0
  1  5  1  0  0  0  0
  6  7  1  0  0  0  0
  8  9  1  0  0  0  0
  9 10  2  0  0  0  0
 10 11  1  0  0  0  0
 11 12  2  0  0  0  0
 12 13  1  0  0  0  0
  8 13  2  0  0  0  0
 11 14  1  0  0  0  0
  7  8  1  0  0  0  0
  5  6  1  0  0  0  0
 15 16  1  0  0  0  0
 16 17  2  0  0  0  0
 17 18  1  0  0  0  0
 18 19  2  0  0  0  0
 19 20  1  0  0  0  0
 15 20  2  0  0  0  0
 18 21  1  0  0  0  0
  3 15  1  0  0  0  0
M  END
>  <cdx:fragmentId>
99034

$$$$
