95313.cdx
  Mrv1902 05222410212D          

 30 33  0  0  0  0            999 V2000
    5.0648   -8.8212    0.0000 C   0  0  0  0  0  0  0  0  0  0  0  0
    5.0648   -9.6462    0.0000 C   0  0  0  0  0  0  0  0  0  0  0  0
    5.7793  -10.0587    0.0000 C   0  0  0  0  0  0  0  0  0  0  0  0
    6.4937   -9.6462    0.0000 C   0  0  0  0  0  0  0  0  0  0  0  0
    7.2082  -10.0587    0.0000 C   0  0  0  0  0  0  0  0  0  0  0  0
    7.9227   -9.6462    0.0000 C   0  0  0  0  0  0  0  0  0  0  0  0
    7.9227   -8.8212    0.0000 C   0  0  0  0  0  0  0  0  0  0  0  0
    7.2082   -8.4087    0.0000 C   0  0  0  0  0  0  0  0  0  0  0  0
    6.4937   -8.8212    0.0000 C   0  0  0  0  0  0  0  0  0  0  0  0
    5.7793   -8.4087    0.0000 O   0  0  0  0  0  0  0  0  0  0  0  0
    5.7793  -10.8837    0.0000 O   0  0  0  0  0  0  0  0  0  0  0  0
    7.2082  -10.8837    0.0000 O   0  0  0  0  0  0  0  0  0  0  0  0
    4.3503  -10.0587    0.0000 O   0  0  0  0  0  0  0  0  0  0  0  0
    4.3503   -8.4087    0.0000 C   0  0  0  0  0  0  0  0  0  0  0  0
    3.6359   -8.8212    0.0000 C   0  0  0  0  0  0  0  0  0  0  0  0
    2.9214   -8.4087    0.0000 C   0  0  0  0  0  0  0  0  0  0  0  0
    2.9214   -7.5837    0.0000 C   0  0  0  0  0  0  0  0  0  0  0  0
    3.6359   -7.1712    0.0000 C   0  0  0  0  0  0  0  0  0  0  0  0
    4.3503   -7.5837    0.0000 C   0  0  0  0  0  0  0  0  0  0  0  0
    2.2069   -7.1712    0.0000 O   0  0  0  0  0  0  0  0  0  0  0  0
    3.6359   -6.3462    0.0000 O   0  0  0  0  0  0  0  0  0  0  0  0
    8.7178   -9.8964    0.0000 C   0  0  0  0  0  0  0  0  0  0  0  0
    8.7051   -8.5616    0.0000 O   0  0  0  0  0  0  0  0  0  0  0  0
    9.1964   -9.2244    0.0000 C   0  0  0  0  0  0  0  0  0  0  0  0
   11.6712   -9.2008    0.0000 O   0  0  0  0  0  0  0  0  0  0  0  0
   10.4406   -9.9270    0.0000 O   0  0  0  0  0  0  0  0  0  0  0  0
   11.6576   -7.7719    0.0000 C   0  0  0  0  0  0  0  0  0  0  0  0
   11.2520   -8.4903    0.0000 C   0  0  0  0  0  0  0  0  0  0  0  0
   10.4270   -8.4982    0.0000 C   0  0  0  0  0  0  0  0  0  0  0  0
   10.0213   -9.2165    0.0000 C   0  0  0  0  0  0  0  0  0  0  0  0
  1  2  2  0  0  0  0
  2  3  1  0  0  0  0
  3  4  1  0  0  0  0
  4  5  1  0  0  0  0
  5  6  2  0  0  0  0
  6  7  1  0  0  0  0
  7  8  2  0  0  0  0
  8  9  1  0  0  0  0
  4  9  2  0  0  0  0
  9 10  1  0  0  0  0
  1 10  1  0  0  0  0
  3 11  2  0  0  0  0
  5 12  1  0  0  0  0
  2 13  1  0  0  0  0
 14 15  1  0  0  0  0
 15 16  2  0  0  0  0
 16 17  1  0  0  0  0
 17 18  2  0  0  0  0
 18 19  1  0  0  0  0
 14 19  2  0  0  0  0
 17 20  1  0  0  0  0
  1 14  1  0  0  0  0
 18 21  1  0  0  0  0
 28 25  1  0  0  0  0
 30 26  2  0  0  0  0
 28 27  1  0  0  0  0
 29 28  2  0  0  0  0
 30 29  1  0  0  0  0
 23 24  1  0  0  0  0
 22 24  1  0  0  0  0
 24 30  1  0  0  0  0
 23  7  1  0  0  0  0
 22  6  1  0  0  0  0
M  END
>  <cdx:fragmentId>
5

$$$$
