95324.cdx
  Mrv1902 05222410232D          

 41 45  0  0  0  0            999 V2000
    6.4812   -6.7666    0.0000 C   0  0  0  0  0  0  0  0  0  0  0  0
    6.4812   -7.5916    0.0000 C   0  0  0  0  0  0  0  0  0  0  0  0
    5.7667   -8.0041    0.0000 C   0  0  0  0  0  0  0  0  0  0  0  0
    5.7667   -8.8291    0.0000 O   0  0  0  0  0  0  0  0  0  0  0  0
    5.0522   -7.5916    0.0000 C   0  0  0  0  0  0  0  0  0  0  0  0
    4.3378   -8.0041    0.0000 C   0  0  0  0  0  0  0  0  0  0  0  0
    4.3378   -8.8291    0.0000 O   0  0  0  0  0  0  0  0  0  0  0  0
    3.6233   -7.5916    0.0000 C   0  0  0  0  0  0  0  0  0  0  0  0
    3.6233   -6.7666    0.0000 C   0  0  0  0  0  0  0  0  0  0  0  0
    2.9088   -6.3541    0.0000 O   0  0  0  0  0  0  0  0  0  0  0  0
    4.3378   -6.3541    0.0000 C   0  0  0  0  0  0  0  0  0  0  0  0
    5.0522   -6.7666    0.0000 C   0  0  0  0  0  0  0  0  0  0  0  0
    5.7667   -6.3541    0.0000 O   0  0  0  0  0  0  0  0  0  0  0  0
    7.1956   -6.3541    0.0000 C   0  0  0  0  0  0  0  0  0  0  0  0
    7.1956   -5.5291    0.0000 C   0  0  0  0  0  0  0  0  0  0  0  0
    7.9101   -5.1166    0.0000 C   0  0  0  0  0  0  0  0  0  0  0  0
    8.6246   -5.5291    0.0000 C   0  0  0  0  0  0  0  0  0  0  0  0
    9.3391   -5.1166    0.0000 O   0  0  0  0  0  0  0  0  0  0  0  0
    8.6246   -6.3541    0.0000 C   0  0  0  0  0  0  0  0  0  0  0  0
    7.9101   -6.7666    0.0000 C   0  0  0  0  0  0  0  0  0  0  0  0
    7.1956   -8.0041    0.0000 O   0  0  0  0  0  0  0  0  0  0  0  0
    7.1956   -8.8291    0.0000 C   0  0  1  0  0  0  0  0  0  0  0  0
    7.9101   -9.2416    0.0000 C   0  0  2  0  0  0  0  0  0  0  0  0
    8.6246   -8.8291    0.0000 O   0  0  0  0  0  0  0  0  0  0  0  0
    7.9101  -10.0666    0.0000 C   0  0  1  0  0  0  0  0  0  0  0  0
    8.6246  -10.4791    0.0000 O   0  0  0  0  0  0  0  0  0  0  0  0
    7.1956  -10.4791    0.0000 C   0  0  1  0  0  0  0  0  0  0  0  0
    7.1956  -11.3041    0.0000 O   0  0  0  0  0  0  0  0  0  0  0  0
    6.4812  -10.0666    0.0000 C   0  0  0  0  0  0  0  0  0  0  0  0
    6.4812   -9.2416    0.0000 O   0  0  0  0  0  0  0  0  0  0  0  0
    9.3391   -9.2416    0.0000 C   0  0  1  0  0  0  0  0  0  0  0  0
   10.0535   -8.8291    0.0000 C   0  0  2  0  0  0  0  0  0  0  0  0
   10.0535   -8.0041    0.0000 O   0  0  0  0  0  0  0  0  0  0  0  0
   10.7680   -9.2416    0.0000 C   0  0  1  0  0  0  0  0  0  0  0  0
   11.4825   -8.8291    0.0000 O   0  0  0  0  0  0  0  0  0  0  0  0
   10.7680  -10.0666    0.0000 C   0  0  2  0  0  0  0  0  0  0  0  0
   11.4825  -10.4791    0.0000 O   0  0  0  0  0  0  0  0  0  0  0  0
   10.0535  -10.4791    0.0000 C   0  0  2  0  0  0  0  0  0  0  0  0
    9.3391  -10.0666    0.0000 O   0  0  0  0  0  0  0  0  0  0  0  0
   10.0535  -11.3041    0.0000 C   0  0  0  0  0  0  0  0  0  0  0  0
   10.7680  -11.7166    0.0000 O   0  0  0  0  0  0  0  0  0  0  0  0
  1  2  2  0  0  0  0
  2  3  1  0  0  0  0
  3  4  2  0  0  0  0
  3  5  1  0  0  0  0
  5  6  1  0  0  0  0
  6  7  1  0  0  0  0
  6  8  2  0  0  0  0
  8  9  1  0  0  0  0
  9 10  1  0  0  0  0
  9 11  2  0  0  0  0
 11 12  1  0  0  0  0
  5 12  2  0  0  0  0
 12 13  1  0  0  0  0
  1 13  1  0  0  0  0
  1 14  1  0  0  0  0
 14 15  1  0  0  0  0
 15 16  2  0  0  0  0
 16 17  1  0  0  0  0
 17 18  1  0  0  0  0
 17 19  2  0  0  0  0
 19 20  1  0  0  0  0
 14 20  2  0  0  0  0
 22 21  1  1  0  0  0
 22 23  1  0  0  0  0
 23 24  1  6  0  0  0
 23 25  1  0  0  0  0
 25 26  1  1  0  0  0
 25 27  1  0  0  0  0
 27 28  1  1  0  0  0
 27 29  1  0  0  0  0
 29 30  1  0  0  0  0
 22 30  1  0  0  0  0
 31 32  1  0  0  0  0
 32 33  1  6  0  0  0
 32 34  1  0  0  0  0
 34 35  1  1  0  0  0
 34 36  1  0  0  0  0
 36 37  1  6  0  0  0
 36 38  1  0  0  0  0
 38 39  1  0  0  0  0
 38 40  1  1  0  0  0
 40 41  1  0  0  0  0
 31 39  1  0  0  0  0
 31 24  1  1  0  0  0
  2 21  1  0  0  0  0
M  END
>  <cdx:groupId>
129

>  <cdx:fragmentId>
65

$$$$
