95327.cdx
  Mrv1902 05222410242D          

 17 16  0  0  0  0            999 V2000
    9.3638   -8.0103    0.0000 C   0  0  0  0  0  0  0  0  0  0  0  0
    8.6493   -8.4228    0.0000 C   0  0  0  0  0  0  0  0  0  0  0  0
    7.9349   -8.0103    0.0000 C   0  0  0  0  0  0  0  0  0  0  0  0
    7.2204   -8.4228    0.0000 C   0  0  0  0  0  0  0  0  0  0  0  0
    6.5059   -8.0103    0.0000 C   0  0  0  0  0  0  0  0  0  0  0  0
    5.7915   -8.4228    0.0000 C   0  0  0  0  0  0  0  0  0  0  0  0
    5.0770   -8.0103    0.0000 C   0  0  0  0  0  0  0  0  0  0  0  0
    4.3625   -8.4228    0.0000 C   0  0  0  0  0  0  0  0  0  0  0  0
    3.6480   -8.8353    0.0000 C   0  0  0  0  0  0  0  0  0  0  0  0
    2.9336   -9.2478    0.0000 C   0  0  0  0  0  0  0  0  0  0  0  0
    2.2191   -9.6603    0.0000 C   0  0  0  0  0  0  0  0  0  0  0  0
    9.3638   -7.1853    0.0000 O   0  0  0  0  0  0  0  0  0  0  0  0
   10.0783   -8.4228    0.0000 N   0  0  0  0  0  0  0  0  0  0  0  0
   10.7928   -8.0103    0.0000 C   0  0  0  0  0  0  0  0  0  0  0  0
   11.5072   -8.4228    0.0000 C   0  0  0  0  0  0  0  0  0  0  0  0
   12.2217   -8.0103    0.0000 C   0  0  0  0  0  0  0  0  0  0  0  0
   11.5072   -9.2478    0.0000 C   0  0  0  0  0  0  0  0  0  0  0  0
  1  2  1  0  0  0  0
  2  3  2  0  0  0  0
  3  4  1  0  0  0  0
  4  5  2  0  0  0  0
  5  6  1  0  0  0  0
  6  7  1  0  0  0  0
  7  8  1  0  0  0  0
  8  9  3  0  0  0  0
  9 10  1  0  0  0  0
 10 11  3  0  0  0  0
  1 12  2  0  0  0  0
 14 15  1  0  0  0  0
 15 16  1  0  0  0  0
 17 15  1  0  0  0  0
 13 14  1  0  0  0  0
  1 13  1  0  0  0  0
M  END
>  <cdx:groupId>
52

>  <cdx:fragmentId>
5

$$$$
