95326.cdx
  Mrv1902 05222410242D          

 20 19  0  0  0  0            999 V2000
   10.4108   -8.9798    0.0000 C   0  0  0  0  0  0  0  0  0  0  0  0
    9.6963   -8.5673    0.0000 C   0  0  0  0  0  0  0  0  0  0  0  0
    8.9818   -8.9798    0.0000 C   0  0  0  0  0  0  0  0  0  0  0  0
    8.2674   -8.5673    0.0000 C   0  0  0  0  0  0  0  0  0  0  0  0
    7.5529   -8.9798    0.0000 C   0  0  0  0  0  0  0  0  0  0  0  0
    6.8384   -8.5673    0.0000 C   0  0  0  0  0  0  0  0  0  0  0  0
    6.1239   -8.9798    0.0000 C   0  0  0  0  0  0  0  0  0  0  0  0
    5.4095   -8.5673    0.0000 C   0  0  0  0  0  0  0  0  0  0  0  0
    4.6950   -8.1548    0.0000 C   0  0  0  0  0  0  0  0  0  0  0  0
    3.9805   -7.7423    0.0000 C   0  0  0  0  0  0  0  0  0  0  0  0
    3.2661   -7.3298    0.0000 C   0  0  0  0  0  0  0  0  0  0  0  0
    2.5516   -6.9173    0.0000 C   0  0  0  0  0  0  0  0  0  0  0  0
    1.8371   -7.3298    0.0000 C   0  0  0  0  0  0  0  0  0  0  0  0
    1.1226   -6.9173    0.0000 C   0  0  0  0  0  0  0  0  0  0  0  0
   10.4108   -9.8048    0.0000 O   0  0  0  0  0  0  0  0  0  0  0  0
   11.1252   -8.5673    0.0000 N   0  0  0  0  0  0  0  0  0  0  0  0
   11.8397   -8.9798    0.0000 C   0  0  0  0  0  0  0  0  0  0  0  0
   12.5542   -8.5673    0.0000 C   0  0  0  0  0  0  0  0  0  0  0  0
   13.2687   -8.9798    0.0000 C   0  0  0  0  0  0  0  0  0  0  0  0
   12.5542   -7.7423    0.0000 C   0  0  0  0  0  0  0  0  0  0  0  0
  1  2  1  0  0  0  0
  2  3  2  0  0  0  0
  3  4  1  0  0  0  0
  4  5  2  0  0  0  0
  5  6  1  0  0  0  0
  6  7  1  0  0  0  0
  7  8  1  0  0  0  0
  8  9  3  0  0  0  0
  9 10  1  0  0  0  0
 10 11  3  0  0  0  0
 11 12  1  0  0  0  0
 12 13  1  0  0  0  0
 13 14  1  0  0  0  0
  1 15  2  0  0  0  0
 17 18  1  0  0  0  0
 18 19  1  0  0  0  0
 20 18  1  0  0  0  0
 16 17  1  0  0  0  0
  1 16  1  0  0  0  0
M  END
>  <cdx:groupId>
61

>  <cdx:fragmentId>
5

$$$$
