95325.cdx
  Mrv1902 05222410232D          

 12 11  0  0  0  0            999 V2000
   10.0288   -8.7718    0.0000 C   0  0  0  0  0  0  0  0  0  0  0  0
   10.7433   -9.1843    0.0000 C   0  0  0  0  0  0  0  0  0  0  0  0
    9.3143   -8.3593    0.0000 C   0  0  0  0  0  0  0  0  0  0  0  0
    8.5998   -8.7718    0.0000 C   0  0  0  0  0  0  0  0  0  0  0  0
    7.8854   -8.3593    0.0000 C   0  0  0  0  0  0  0  0  0  0  0  0
    7.1709   -8.7718    0.0000 C   0  0  0  0  0  0  0  0  0  0  0  0
    6.4564   -8.3593    0.0000 C   0  0  0  0  0  0  0  0  0  0  0  0
    5.7420   -8.7718    0.0000 C   0  0  0  0  0  0  0  0  0  0  0  0
    5.0275   -8.3593    0.0000 C   0  0  0  0  0  0  0  0  0  0  0  0
    4.3130   -8.7718    0.0000 C   0  0  0  0  0  0  0  0  0  0  0  0
    3.5985   -8.3593    0.0000 C   0  0  0  0  0  0  0  0  0  0  0  0
    5.0275   -7.5343    0.0000 C   0  0  0  0  0  0  0  0  0  0  0  0
  1  2  3  0  0  0  0
  3  4  1  0  0  0  0
  4  5  1  0  0  0  0
  5  6  1  0  0  0  0
  6  7  1  0  0  0  0
  7  8  1  0  0  0  0
  8  9  1  0  0  0  0
  9 10  1  0  0  0  0
 10 11  1  0  0  0  0
  9 12  1  0  0  0  0
  1  3  1  0  0  0  0
M  END
>  <cdx:groupId>
37

>  <cdx:fragmentId>
9

$$$$
