95329.cdx
  Mrv1902 05222410232D          

 23 22  0  0  0  0            999 V2000
    2.4193   -8.8085    0.0000 O   0  0  0  0  0  0  0  0  0  0  0  0
    3.1335  -10.0456    0.0000 O   0  0  0  0  0  0  0  0  0  0  0  0
   10.9902   -8.8085    0.0000 C   0  0  0  0  0  0  0  0  0  0  0  0
   10.2760   -9.2208    0.0000 C   0  0  0  0  0  0  0  0  0  0  0  0
    9.5617   -8.8085    0.0000 C   0  0  0  0  0  0  0  0  0  0  0  0
    8.8475   -9.2208    0.0000 C   0  0  0  0  0  0  0  0  0  0  0  0
    8.1333   -8.8085    0.0000 C   0  0  0  0  0  0  0  0  0  0  0  0
    7.4190   -9.2208    0.0000 C   0  0  0  0  0  0  0  0  0  0  0  0
    6.7048   -8.8085    0.0000 C   0  0  0  0  0  0  0  0  0  0  0  0
    5.9905   -9.2208    0.0000 C   0  0  0  0  0  0  0  0  0  0  0  0
    5.2763   -8.8085    0.0000 C   0  0  0  0  0  0  0  0  0  0  0  0
    4.5620   -9.2208    0.0000 C   0  0  0  0  0  0  0  0  0  0  0  0
    3.8478   -8.8085    0.0000 C   0  0  0  0  0  0  0  0  0  0  0  0
    3.1335   -9.2208    0.0000 C   0  0  0  0  0  0  0  0  0  0  0  0
   10.9902   -7.9835    0.0000 C   0  0  0  0  0  0  0  0  0  0  0  0
   11.7047   -7.5710    0.0000 C   0  0  0  0  0  0  0  0  0  0  0  0
   11.7047   -6.7460    0.0000 C   0  0  0  0  0  0  0  0  0  0  0  0
   10.9902   -6.3335    0.0000 C   0  0  0  0  0  0  0  0  0  0  0  0
   10.9902   -5.5085    0.0000 C   0  0  0  0  0  0  0  0  0  0  0  0
   10.2758   -5.0960    0.0000 C   0  0  0  0  0  0  0  0  0  0  0  0
   10.2758   -4.2710    0.0000 C   0  0  0  0  0  0  0  0  0  0  0  0
    9.5613   -3.8585    0.0000 C   0  0  0  0  0  0  0  0  0  0  0  0
    1.7048   -9.2210    0.0000 C   0  0  0  0  0  0  0  0  0  0  0  0
 14  1  1  0  0  0  0
 14  2  2  0  0  0  0
  4  3  2  0  0  0  0
  5  4  1  0  0  0  0
  6  5  1  0  0  0  0
  7  6  1  0  0  0  0
  8  7  1  0  0  0  0
  9  8  1  0  0  0  0
 10  9  1  0  0  0  0
 11 10  1  0  0  0  0
 12 11  1  0  0  0  0
 13 12  1  0  0  0  0
 14 13  1  0  0  0  0
  3 15  1  0  0  0  0
 15 16  1  0  0  0  0
 16 17  2  0  0  0  0
 17 18  1  0  0  0  0
 18 19  1  0  0  0  0
 19 20  1  0  0  0  0
 20 21  1  0  0  0  0
 21 22  1  0  0  0  0
  1 23  1  0  0  0  0
M  END
>  <cdx:fragmentId>
5

$$$$
