95323.cdx
  Mrv1902 05222410252D          

 23 22  0  0  0  0            999 V2000
    2.1718   -8.0660    0.0000 O   0  0  0  0  0  0  0  0  0  0  0  0
    2.8860   -9.3031    0.0000 O   0  0  0  0  0  0  0  0  0  0  0  0
   10.7427   -8.0660    0.0000 C   0  0  0  0  0  0  0  0  0  0  0  0
   10.0285   -8.4783    0.0000 C   0  0  0  0  0  0  0  0  0  0  0  0
    9.3142   -8.0660    0.0000 C   0  0  0  0  0  0  0  0  0  0  0  0
    8.6000   -8.4783    0.0000 C   0  0  0  0  0  0  0  0  0  0  0  0
    7.8858   -8.0660    0.0000 C   0  0  0  0  0  0  0  0  0  0  0  0
    7.1715   -8.4783    0.0000 C   0  0  0  0  0  0  0  0  0  0  0  0
    6.4573   -8.0660    0.0000 C   0  0  0  0  0  0  0  0  0  0  0  0
    5.7430   -8.4783    0.0000 C   0  0  0  0  0  0  0  0  0  0  0  0
    5.0288   -8.0660    0.0000 C   0  0  0  0  0  0  0  0  0  0  0  0
    4.3145   -8.4783    0.0000 C   0  0  0  0  0  0  0  0  0  0  0  0
    3.6003   -8.0660    0.0000 C   0  0  0  0  0  0  0  0  0  0  0  0
    2.8860   -8.4783    0.0000 C   0  0  0  0  0  0  0  0  0  0  0  0
   11.4572   -8.4785    0.0000 C   0  0  0  0  0  0  0  0  0  0  0  0
   12.1717   -8.0660    0.0000 C   0  0  0  0  0  0  0  0  0  0  0  0
   12.8862   -8.4785    0.0000 C   0  0  0  0  0  0  0  0  0  0  0  0
   13.6006   -8.0660    0.0000 C   0  0  0  0  0  0  0  0  0  0  0  0
   14.3151   -8.4785    0.0000 C   0  0  0  0  0  0  0  0  0  0  0  0
   15.0296   -8.0660    0.0000 C   0  0  0  0  0  0  0  0  0  0  0  0
   15.7440   -8.4785    0.0000 C   0  0  0  0  0  0  0  0  0  0  0  0
   16.4585   -8.0660    0.0000 C   0  0  0  0  0  0  0  0  0  0  0  0
    1.4573   -8.4785    0.0000 C   0  0  0  0  0  0  0  0  0  0  0  0
 14  1  1  0  0  0  0
 14  2  2  0  0  0  0
  4  3  2  0  0  0  0
  5  4  1  0  0  0  0
  6  5  1  0  0  0  0
  7  6  1  0  0  0  0
  8  7  1  0  0  0  0
  9  8  1  0  0  0  0
 10  9  1  0  0  0  0
 11 10  1  0  0  0  0
 12 11  1  0  0  0  0
 13 12  1  0  0  0  0
 14 13  1  0  0  0  0
  3 15  1  0  0  0  0
 15 16  1  0  0  0  0
 16 17  2  0  0  0  0
 17 18  1  0  0  0  0
 18 19  1  0  0  0  0
 19 20  1  0  0  0  0
 20 21  1  0  0  0  0
 21 22  1  0  0  0  0
  1 23  1  0  0  0  0
M  END
>  <cdx:fragmentId>
5

$$$$
