95328.cdx
  Mrv1902 05222410222D          

 35 38  0  0  0  0            999 V2000
    8.5128   -4.7866    0.0000 O   0  0  0  0  0  0  0  0  0  0  0  0
    9.9418   -7.2616    0.0000 O   0  0  0  0  0  0  0  0  0  0  0  0
   10.6562   -6.0241    0.0000 C   0  0  0  0  0  0  0  0  0  0  0  0
    9.9418   -5.6116    0.0000 O   0  0  0  0  0  0  0  0  0  0  0  0
    8.5128   -7.2616    0.0000 C   0  0  0  0  0  0  0  0  0  0  0  0
    9.2273   -6.8491    0.0000 C   0  0  0  0  0  0  0  0  0  0  0  0
    9.2273   -6.0241    0.0000 C   0  0  0  0  0  0  0  0  0  0  0  0
    8.5128   -5.6116    0.0000 C   0  0  0  0  0  0  0  0  0  0  0  0
    7.7984   -6.0241    0.0000 C   0  0  0  0  0  0  0  0  0  0  0  0
    7.7984   -6.8491    0.0000 C   0  0  0  0  0  0  0  0  0  0  0  0
    7.7984   -8.4991    0.0000 O   0  0  0  0  0  0  0  0  0  0  0  0
    4.9405   -9.3241    0.0000 O   0  0  0  0  0  0  0  0  0  0  0  0
    3.5115   -6.8491    0.0000 O   0  0  0  0  0  0  0  0  0  0  0  0
    6.3694   -9.3241    0.0000 O   0  0  0  0  0  0  0  0  0  0  0  0
    6.3694   -6.8491    0.0000 O   0  0  0  0  0  0  0  0  0  0  0  0
    5.6549   -7.2616    0.0000 C   0  0  0  0  0  0  0  0  0  0  0  0
    4.9405   -6.8491    0.0000 C   0  0  0  0  0  0  0  0  0  0  0  0
    4.2260   -7.2616    0.0000 C   0  0  0  0  0  0  0  0  0  0  0  0
    4.2260   -8.0866    0.0000 C   0  0  0  0  0  0  0  0  0  0  0  0
    4.9405   -8.4991    0.0000 C   0  0  0  0  0  0  0  0  0  0  0  0
    5.6549   -8.0866    0.0000 C   0  0  0  0  0  0  0  0  0  0  0  0
    6.3694   -8.4991    0.0000 C   0  0  0  0  0  0  0  0  0  0  0  0
    7.0839   -8.0866    0.0000 C   0  0  0  0  0  0  0  0  0  0  0  0
    7.0839   -7.2616    0.0000 C   0  0  0  0  0  0  0  0  0  0  0  0
    7.7984   -9.3241    0.0000 C   0  0  2  0  0  0  0  0  0  0  0  0
    7.0839   -9.7366    0.0000 O   0  0  0  0  0  0  0  0  0  0  0  0
    7.0839  -10.5616    0.0000 C   0  0  1  0  0  0  0  0  0  0  0  0
    7.7984  -10.9741    0.0000 C   0  0  2  0  0  0  0  0  0  0  0  0
    8.5128  -10.5616    0.0000 C   0  0  1  0  0  0  0  0  0  0  0  0
    8.5128   -9.7366    0.0000 C   0  0  1  0  0  0  0  0  0  0  0  0
    6.3694  -10.9741    0.0000 C   0  0  0  0  0  0  0  0  0  0  0  0
    9.2273  -10.9741    0.0000 O   0  0  0  0  0  0  0  0  0  0  0  0
    7.7984  -11.7991    0.0000 O   0  0  0  0  0  0  0  0  0  0  0  0
    9.2273   -9.3241    0.0000 O   0  0  0  0  0  0  0  0  0  0  0  0
    6.3694  -11.7991    0.0000 O   0  0  0  0  0  0  0  0  0  0  0  0
 24 10  1  0  0  0  0
  8  1  1  0  0  0  0
  6  2  1  0  0  0  0
  7  4  1  0  0  0  0
  4  3  1  0  0  0  0
 10  5  2  0  0  0  0
  6  5  1  0  0  0  0
  7  6  2  0  0  0  0
  8  7  1  0  0  0  0
  9  8  2  0  0  0  0
 10  9  1  0  0  0  0
 23 11  1  0  0  0  0
 20 12  1  0  0  0  0
 18 13  1  0  0  0  0
 22 14  2  0  0  0  0
 24 15  1  0  0  0  0
 16 15  1  0  0  0  0
 21 16  2  0  0  0  0
 17 16  1  0  0  0  0
 18 17  2  0  0  0  0
 19 18  1  0  0  0  0
 20 19  2  0  0  0  0
 21 20  1  0  0  0  0
 22 21  1  0  0  0  0
 23 22  1  0  0  0  0
 24 23  2  0  0  0  0
 25 11  1  1  0  0  0
 25 26  1  0  0  0  0
 26 27  1  0  0  0  0
 27 28  1  0  0  0  0
 28 29  1  0  0  0  0
 29 30  1  0  0  0  0
 30 25  1  0  0  0  0
 27 31  1  1  0  0  0
 29 32  1  1  0  0  0
 28 33  1  6  0  0  0
 30 34  1  6  0  0  0
 31 35  1  0  0  0  0
M  END
>  <cdx:fragmentId>
5

$$$$
