95334.cdx
  Mrv1902 05222410262D          

 27 28  0  0  0  0            999 V2000
    6.5805   -6.3541    0.0000 C   0  0  0  0  0  0  0  0  0  0  0  0
    6.5805   -7.1791    0.0000 C   0  0  0  0  0  0  0  0  0  0  0  0
    7.2949   -7.5916    0.0000 C   0  0  1  0  0  0  0  0  0  0  0  0
    8.0094   -7.1791    0.0000 C   0  0  0  0  0  0  0  0  0  0  0  0
    7.2949   -5.9416    0.0000 O   0  0  0  0  0  0  0  0  0  0  0  0
    5.8660   -5.9416    0.0000 O   0  0  0  0  0  0  0  0  0  0  0  0
    8.7239   -7.5916    0.0000 C   0  0  0  0  0  0  0  0  0  0  0  0
    9.4384   -7.1791    0.0000 C   0  0  0  0  0  0  0  0  0  0  0  0
   10.1528   -7.5916    0.0000 C   0  0  0  0  0  0  0  0  0  0  0  0
   10.1528   -8.4166    0.0000 C   0  0  0  0  0  0  0  0  0  0  0  0
    9.4384   -8.8291    0.0000 C   0  0  0  0  0  0  0  0  0  0  0  0
    8.7239   -8.4166    0.0000 N   0  0  0  0  0  0  0  0  0  0  0  0
   10.8673   -7.1791    0.0000 O   0  0  0  0  0  0  0  0  0  0  0  0
    9.4384   -9.6541    0.0000 C   0  0  0  0  0  0  0  0  0  0  0  0
   10.1528  -10.0666    0.0000 C   0  0  0  0  0  0  0  0  0  0  0  0
    7.2949   -8.4166    0.0000 O   0  0  0  0  0  0  0  0  0  0  0  0
    6.5805   -8.8291    0.0000 C   0  0  1  0  0  0  0  0  0  0  0  0
    6.5805   -9.6541    0.0000 C   0  0  2  0  0  0  0  0  0  0  0  0
    7.2949  -10.0666    0.0000 O   0  0  0  0  0  0  0  0  0  0  0  0
    5.8660  -10.0666    0.0000 C   0  0  1  0  0  0  0  0  0  0  0  0
    5.8660  -10.8916    0.0000 O   0  0  0  0  0  0  0  0  0  0  0  0
    5.1515   -9.6541    0.0000 C   0  0  2  0  0  0  0  0  0  0  0  0
    4.4371  -10.0666    0.0000 O   0  0  0  0  0  0  0  0  0  0  0  0
    5.1515   -8.8291    0.0000 C   0  0  2  0  0  0  0  0  0  0  0  0
    5.8660   -8.4166    0.0000 O   0  0  0  0  0  0  0  0  0  0  0  0
    4.4371   -8.4166    0.0000 C   0  0  0  0  0  0  0  0  0  0  0  0
    3.7226   -8.8291    0.0000 O   0  0  0  0  0  0  0  0  0  0  0  0
  1  2  1  0  0  0  0
  2  3  1  0  0  0  0
  3  4  1  0  0  0  0
  1  5  2  0  0  0  0
  1  6  1  0  0  0  0
  7  8  2  0  0  0  0
  8  9  1  0  0  0  0
  9 10  1  0  0  0  0
 10 11  2  0  0  0  0
 11 12  1  0  0  0  0
  7 12  1  0  0  0  0
  9 13  2  0  0  0  0
 14 15  1  0  0  0  0
 11 14  1  0  0  0  0
  4  7  1  0  0  0  0
 17 16  1  1  0  0  0
 17 18  1  0  0  0  0
 18 19  1  6  0  0  0
 18 20  1  0  0  0  0
 20 21  1  1  0  0  0
 20 22  1  0  0  0  0
 22 23  1  6  0  0  0
 22 24  1  0  0  0  0
 24 25  1  0  0  0  0
 24 26  1  1  0  0  0
 26 27  1  0  0  0  0
 17 25  1  0  0  0  0
  3 16  1  1  0  0  0
M  END
>  <cdx:groupId>
84

>  <cdx:fragmentId>
17

$$$$
