95336.cdx
  Mrv1902 05222410242D          

 25 27  0  0  0  0            999 V2000
    5.2429   -8.1628    0.0000 O   0  0  0  0  0  0  0  0  0  0  0  0
    5.9592   -8.5721    0.0000 C   0  0  0  0  0  0  0  0  0  0  0  0
    6.6718   -8.1564    0.0000 C   0  0  0  0  0  0  0  0  0  0  0  0
    6.6681   -7.3314    0.0000 C   0  0  0  0  0  0  0  0  0  0  0  0
    7.3807   -6.9157    0.0000 C   0  0  0  0  0  0  0  0  0  0  0  0
    8.0970   -7.3250    0.0000 C   0  0  0  0  0  0  0  0  0  0  0  0
    8.1007   -8.1500    0.0000 C   0  0  0  0  0  0  0  0  0  0  0  0
    7.3881   -8.5657    0.0000 C   0  0  0  0  0  0  0  0  0  0  0  0
    8.8096   -6.9093    0.0000 O   0  0  0  0  0  0  0  0  0  0  0  0
    9.5259   -7.3186    0.0000 C   0  0  0  0  0  0  0  0  0  0  0  0
   10.2386   -6.9028    0.0000 C   0  0  0  0  0  0  0  0  0  0  0  0
   10.2348   -6.0779    0.0000 C   0  0  0  0  0  0  0  0  0  0  0  0
   10.9475   -5.6621    0.0000 C   0  0  0  0  0  0  0  0  0  0  0  0
   11.6638   -6.0714    0.0000 C   0  0  0  0  0  0  0  0  0  0  0  0
   11.6675   -6.8964    0.0000 C   0  0  0  0  0  0  0  0  0  0  0  0
   10.9549   -7.3121    0.0000 C   0  0  0  0  0  0  0  0  0  0  0  0
   12.3764   -5.6557    0.0000 O   0  0  0  0  0  0  0  0  0  0  0  0
    4.5303   -8.5785    0.0000 C   0  0  0  0  0  0  0  0  0  0  0  0
    3.8139   -8.1692    0.0000 C   0  0  2  0  0  0  0  0  0  0  0  0
    4.5340   -9.4035    0.0000 O   0  0  0  0  0  0  0  0  0  0  0  0
    3.7240   -7.3492    0.0000 C   0  0  0  0  0  0  0  0  0  0  0  0
    2.9163   -7.1813    0.0000 C   0  0  0  0  0  0  0  0  0  0  0  0
    2.5070   -7.8976    0.0000 C   0  0  0  0  0  0  0  0  0  0  0  0
    3.0618   -8.5082    0.0000 N   0  0  0  0  0  0  0  0  0  0  0  0
    1.6869   -7.9875    0.0000 O   0  0  0  0  0  0  0  0  0  0  0  0
  2  3  1  0  0  0  0
  3  4  1  0  0  0  0
  4  5  2  0  0  0  0
  5  6  1  0  0  0  0
  6  7  2  0  0  0  0
  7  8  1  0  0  0  0
  3  8  2  0  0  0  0
 10 11  1  0  0  0  0
 11 12  1  0  0  0  0
 12 13  2  0  0  0  0
 13 14  1  0  0  0  0
 14 15  2  0  0  0  0
 15 16  1  0  0  0  0
 11 16  2  0  0  0  0
  9 10  1  0  0  0  0
 14 17  1  0  0  0  0
  6  9  1  0  0  0  0
  1  2  1  0  0  0  0
  1 18  1  0  0  0  0
 19 18  1  1  0  0  0
 18 20  2  0  0  0  0
 19 21  1  0  0  0  0
 21 22  1  0  0  0  0
 22 23  1  0  0  0  0
 23 24  1  0  0  0  0
 24 19  1  0  0  0  0
 23 25  2  0  0  0  0
M  END
>  <cdx:fragmentId>
39

$$$$
