9533.cdx
  Mrv1902 05222410232D          

 13 14  0  0  0  0            999 V2000
    5.0237   -7.8788    0.0000 C   0  0  0  0  0  0  0  0  0  0  0  0
    5.0237   -8.7037    0.0000 C   0  0  0  0  0  0  0  0  0  0  0  0
    5.7381   -9.1162    0.0000 C   0  0  0  0  0  0  0  0  0  0  0  0
    6.4526   -8.7037    0.0000 C   0  0  2  0  0  0  0  0  0  0  0  0
    6.4526   -7.8788    0.0000 C   0  0  2  0  0  0  0  0  0  0  0  0
    5.7381   -7.4663    0.0000 C   0  0  0  0  0  0  0  0  0  0  0  0
    7.1671   -9.1162    0.0000 C   0  0  0  0  0  0  0  0  0  0  0  0
    7.8816   -8.7037    0.0000 C   0  0  0  0  0  0  0  0  0  0  0  0
    7.8816   -7.8788    0.0000 C   0  0  0  0  0  0  0  0  0  0  0  0
    7.1671   -7.4663    0.0000 C   0  0  2  0  0  0  0  0  0  0  0  0
    6.4526   -7.0537    0.0000 H   0  0  0  0  0  0  0  0  0  0  0  0
    6.4526   -9.5287    0.0000 H   0  0  0  0  0  0  0  0  0  0  0  0
    7.1671   -6.6413    0.0000 C   0  0  0  0  0  0  0  0  0  0  0  0
  1  2  1  0  0  0  0
  2  3  1  0  0  0  0
  3  4  1  0  0  0  0
  4  5  1  0  0  0  0
  5  6  1  0  0  0  0
  6  1  1  0  0  0  0
  4  7  1  0  0  0  0
  7  8  1  0  0  0  0
  8  9  1  0  0  0  0
  9 10  1  0  0  0  0
 10  5  1  0  0  0  0
  5 11  1  1  0  0  0
  4 12  1  1  0  0  0
 10 13  1  1  0  0  0
M  END
>  <cdx:fragmentId>
5

$$$$
