95333.cdx
  Mrv1902 05222410242D          

 58 63  0  0  0  0            999 V2000
    6.4743   -6.1188    0.0000 C   0  0  0  0  0  0  0  0  0  0  0  0
    6.4743   -6.9438    0.0000 C   0  0  0  0  0  0  0  0  0  0  0  0
    7.1888   -7.3563    0.0000 C   0  0  0  0  0  0  0  0  0  0  0  0
    7.9032   -6.9438    0.0000 C   0  0  0  0  0  0  0  0  0  0  0  0
    7.9032   -6.1188    0.0000 C   0  0  0  0  0  0  0  0  0  0  0  0
    7.1888   -5.7062    0.0000 C   0  0  0  0  0  0  0  0  0  0  0  0
    8.6177   -7.3563    0.0000 C   0  0  0  0  0  0  0  0  0  0  0  0
    9.3322   -6.9438    0.0000 C   0  0  0  0  0  0  0  0  0  0  0  0
    9.3322   -6.1188    0.0000 C   0  0  0  0  0  0  0  0  0  0  0  0
    8.6177   -5.7062    0.0000 O   0  0  0  0  0  0  0  0  0  0  0  0
    5.7598   -5.7062    0.0000 O   0  0  0  0  0  0  0  0  0  0  0  0
    5.7598   -7.3562    0.0000 C   0  0  0  0  0  0  0  0  0  0  0  0
   10.7617   -7.7687    0.0000 C   0  0  2  0  0  0  0  0  0  0  0  0
   10.7611   -6.1188    0.0000 C   0  0  0  0  0  0  0  0  0  0  0  0
   10.0467   -5.7062    0.0000 C   0  0  0  0  0  0  0  0  0  0  0  0
   11.4756   -5.7062    0.0000 C   0  0  0  0  0  0  0  0  0  0  0  0
   11.4756   -4.8812    0.0000 C   0  0  0  0  0  0  0  0  0  0  0  0
   10.7611   -4.4688    0.0000 C   0  0  0  0  0  0  0  0  0  0  0  0
   10.0467   -4.8812    0.0000 C   0  0  0  0  0  0  0  0  0  0  0  0
    7.1888   -8.1813    0.0000 O   0  0  0  0  0  0  0  0  0  0  0  0
    8.6177   -8.1813    0.0000 O   0  0  0  0  0  0  0  0  0  0  0  0
   10.7617   -8.5938    0.0000 C   0  0  2  0  0  0  0  0  0  0  0  0
   11.4761   -9.0062    0.0000 C   0  0  2  0  0  0  0  0  0  0  0  0
   12.1906   -8.5938    0.0000 C   0  0  2  0  0  0  0  0  0  0  0  0
   12.1906   -7.7687    0.0000 C   0  0  1  0  0  0  0  0  0  0  0  0
   11.4761   -7.3563    0.0000 O   0  0  0  0  0  0  0  0  0  0  0  0
   10.0472   -9.0062    0.0000 O   0  0  0  0  0  0  0  0  0  0  0  0
   11.4761   -9.8312    0.0000 O   0  0  0  0  0  0  0  0  0  0  0  0
   12.9051   -9.0062    0.0000 O   0  0  0  0  0  0  0  0  0  0  0  0
   12.9051   -7.3563    0.0000 C   0  0  0  0  0  0  0  0  0  0  0  0
   13.6195   -7.7687    0.0000 O   0  0  0  0  0  0  0  0  0  0  0  0
   12.1901   -4.4688    0.0000 O   0  0  0  0  0  0  0  0  0  0  0  0
   10.0467   -7.3563    0.0000 O   0  0  0  0  0  0  0  0  0  0  0  0
    5.7598   -8.1812    0.0000 C   0  0  0  0  0  0  0  0  0  0  0  0
    5.0454   -8.5937    0.0000 C   0  0  0  0  0  0  0  0  0  0  0  0
    5.0454   -9.4187    0.0000 C   0  0  0  0  0  0  0  0  0  0  0  0
    4.3309   -8.1812    0.0000 C   0  0  0  0  0  0  0  0  0  0  0  0
    5.0454   -5.2938    0.0000 C   0  0  0  0  0  0  0  0  0  0  0  0
    5.0454   -4.4688    0.0000 O   0  0  0  0  0  0  0  0  0  0  0  0
    4.3309   -5.7062    0.0000 C   0  0  0  0  0  0  0  0  0  0  0  0
    3.6164   -5.2938    0.0000 C   0  0  0  0  0  0  0  0  0  0  0  0
    2.9019   -5.7062    0.0000 C   0  0  0  0  0  0  0  0  0  0  0  0
    2.1875   -5.2938    0.0000 C   0  0  0  0  0  0  0  0  0  0  0  0
    1.4730   -5.7062    0.0000 C   0  0  0  0  0  0  0  0  0  0  0  0
    1.4730   -6.5313    0.0000 C   0  0  0  0  0  0  0  0  0  0  0  0
    2.1875   -6.9438    0.0000 C   0  0  0  0  0  0  0  0  0  0  0  0
    2.9019   -6.5313    0.0000 C   0  0  0  0  0  0  0  0  0  0  0  0
    0.7585   -6.9438    0.0000 O   0  0  0  0  0  0  0  0  0  0  0  0
   10.0323   -9.8424    0.0000 C   0  0  2  0  0  0  0  0  0  0  0  0
    9.3159  -10.2515    0.0000 C   0  0  2  0  0  0  0  0  0  0  0  0
    9.3120  -11.0765    0.0000 C   0  0  2  0  0  0  0  0  0  0  0  0
   10.0245  -11.4924    0.0000 C   0  0  2  0  0  0  0  0  0  0  0  0
   10.7409  -11.0833    0.0000 C   0  0  1  0  0  0  0  0  0  0  0  0
   10.7448  -10.2583    0.0000 O   0  0  0  0  0  0  0  0  0  0  0  0
   11.4534  -11.4992    0.0000 C   0  0  0  0  0  0  0  0  0  0  0  0
    8.6034   -9.8357    0.0000 O   0  0  0  0  0  0  0  0  0  0  0  0
    8.5955  -11.4856    0.0000 O   0  0  0  0  0  0  0  0  0  0  0  0
   10.0205  -12.3174    0.0000 O   0  0  0  0  0  0  0  0  0  0  0  0
  1  2  2  0  0  0  0
  2  3  1  0  0  0  0
  3  4  2  0  0  0  0
  4  5  1  0  0  0  0
  5  6  2  0  0  0  0
  6  1  1  0  0  0  0
  4  7  1  0  0  0  0
  7  8  1  0  0  0  0
  8  9  2  0  0  0  0
  9 10  1  0  0  0  0
 10  5  1  0  0  0  0
  1 11  1  0  0  0  0
 12  2  1  0  0  0  0
 14 15  2  0  0  0  0
 15  9  1  0  0  0  0
 14 16  1  0  0  0  0
 16 17  2  0  0  0  0
 17 18  1  0  0  0  0
 18 19  2  0  0  0  0
 19 15  1  0  0  0  0
  3 20  1  0  0  0  0
  7 21  2  0  0  0  0
 13 22  1  0  0  0  0
 22 23  1  0  0  0  0
 23 24  1  0  0  0  0
 24 25  1  0  0  0  0
 25 26  1  0  0  0  0
 26 13  1  0  0  0  0
 22 27  1  6  0  0  0
 23 28  1  6  0  0  0
 24 29  1  6  0  0  0
 25 30  1  1  0  0  0
 30 31  1  0  0  0  0
 17 32  1  0  0  0  0
  8 33  1  0  0  0  0
 12 34  2  0  0  0  0
 34 35  1  0  0  0  0
 35 36  1  0  0  0  0
 35 37  1  0  0  0  0
 11 38  1  0  0  0  0
 38 39  2  0  0  0  0
 38 40  1  0  0  0  0
 40 41  2  0  0  0  0
 41 42  1  0  0  0  0
 42 43  2  0  0  0  0
 43 44  1  0  0  0  0
 44 45  2  0  0  0  0
 45 46  1  0  0  0  0
 46 47  2  0  0  0  0
 47 42  1  0  0  0  0
 45 48  1  0  0  0  0
 13 33  1  1  0  0  0
 49 50  1  0  0  0  0
 50 51  1  0  0  0  0
 51 52  1  0  0  0  0
 52 53  1  0  0  0  0
 53 54  1  0  0  0  0
 54 49  1  0  0  0  0
 53 55  1  1  0  0  0
 50 56  1  6  0  0  0
 51 57  1  6  0  0  0
 52 58  1  6  0  0  0
 49 27  1  1  0  0  0
M  END
>  <cdx:fragmentId>
5

$$$$
