95331.cdx
  Mrv1902 05222410232D          

 45 48  0  0  0  0            999 V2000
    4.5895   -7.7550    0.0000 O   0  0  0  0  0  0  0  0  0  0  0  0
    4.5895   -6.9300    0.0000 C   0  0  0  0  0  0  0  0  0  0  0  0
    3.8750   -6.5175    0.0000 O   0  0  0  0  0  0  0  0  0  0  0  0
    5.3040   -8.1675    0.0000 C   0  0  0  0  0  0  0  0  0  0  0  0
    6.0184   -7.7550    0.0000 C   0  0  0  0  0  0  0  0  0  0  0  0
    6.0184   -6.9300    0.0000 C   0  0  2  0  0  0  0  0  0  0  0  0
    5.3040   -6.5175    0.0000 C   0  0  0  0  0  0  0  0  0  0  0  0
    6.7329   -8.1675    0.0000 C   0  0  0  0  0  0  0  0  0  0  0  0
    7.4474   -7.7550    0.0000 O   0  0  0  0  0  0  0  0  0  0  0  0
    7.4474   -6.9300    0.0000 C   0  0  0  0  0  0  0  0  0  0  0  0
    6.7329   -6.5175    0.0000 C   0  0  0  0  0  0  0  0  0  0  0  0
    8.8763   -7.7550    0.0000 C   0  0  0  0  0  0  0  0  0  0  0  0
    8.8763   -6.9300    0.0000 C   0  0  0  0  0  0  0  0  0  0  0  0
    8.1619   -6.5175    0.0000 C   0  0  0  0  0  0  0  0  0  0  0  0
    8.1619   -5.6925    0.0000 C   0  0  0  0  0  0  0  0  0  0  0  0
    7.4474   -5.2800    0.0000 C   0  0  0  0  0  0  0  0  0  0  0  0
    6.7329   -5.6925    0.0000 C   0  0  0  0  0  0  0  0  0  0  0  0
    8.8763   -9.4050    0.0000 C   0  0  0  0  0  0  0  0  0  0  0  0
    9.5908   -8.9925    0.0000 C   0  0  0  0  0  0  0  0  0  0  0  0
    9.5908   -8.1675    0.0000 C   0  0  0  0  0  0  0  0  0  0  0  0
    8.8763  -10.2300    0.0000 C   0  0  0  0  0  0  0  0  0  0  0  0
    9.5908  -10.6425    0.0000 C   0  0  0  0  0  0  0  0  0  0  0  0
   10.3053  -10.2300    0.0000 C   0  0  0  0  0  0  0  0  0  0  0  0
   10.3053   -9.4050    0.0000 C   0  0  0  0  0  0  0  0  0  0  0  0
    5.3040   -8.9925    0.0000 C   0  0  0  0  0  0  0  0  0  0  0  0
    6.0184   -9.4050    0.0000 C   0  0  0  0  0  0  0  0  0  0  0  0
    6.7329   -8.9925    0.0000 C   0  0  0  0  0  0  0  0  0  0  0  0
    6.0184  -10.2300    0.0000 O   0  0  0  0  0  0  0  0  0  0  0  0
    9.5908   -6.5175    0.0000 O   0  0  0  0  0  0  0  0  0  0  0  0
    9.5908  -11.4675    0.0000 O   0  0  0  0  0  0  0  0  0  0  0  0
    6.0184   -5.2800    0.0000 O   0  0  0  0  0  0  0  0  0  0  0  0
    8.8763   -5.2800    0.0000 O   0  0  0  0  0  0  0  0  0  0  0  0
    6.8640   -4.6966    0.0000 O   0  0  0  0  0  0  0  0  0  0  0  0
    8.0307   -4.6966    0.0000 C   0  0  2  0  0  0  0  0  0  0  0  0
    8.8276   -4.9102    0.0000 O   0  0  0  0  0  0  0  0  0  0  0  0
    9.4110   -4.3268    0.0000 C   0  0  1  0  0  0  0  0  0  0  0  0
    9.1975   -3.5299    0.0000 C   0  0  2  0  0  0  0  0  0  0  0  0
    8.4006   -3.3164    0.0000 C   0  0  1  0  0  0  0  0  0  0  0  0
    7.8172   -3.8997    0.0000 C   0  0  1  0  0  0  0  0  0  0  0  0
    7.0203   -3.6862    0.0000 O   0  0  0  0  0  0  0  0  0  0  0  0
    9.7808   -2.9465    0.0000 O   0  0  0  0  0  0  0  0  0  0  0  0
    8.1871   -2.5195    0.0000 O   0  0  0  0  0  0  0  0  0  0  0  0
   10.2079   -4.5403    0.0000 C   0  0  0  0  0  0  0  0  0  0  0  0
   10.7912   -3.9570    0.0000 O   0  0  0  0  0  0  0  0  0  0  0  0
    8.2443   -5.4935    0.0000 H   0  0  0  0  0  0  0  0  0  0  0  0
  1  2  2  0  0  0  0
  2  3  1  0  0  0  0
  4  5  2  0  0  0  0
  6  5  1  6  0  0  0
  6  7  1  0  0  0  0
  7  2  1  0  0  0  0
  5  8  1  0  0  0  0
  9 10  2  0  0  0  0
 10 11  1  0  0  0  0
 11  6  1  0  0  0  0
 12 13  1  0  0  0  0
 13 14  1  0  0  0  0
 14 10  1  0  0  0  0
 14 15  2  0  0  0  0
 15 16  1  0  0  0  0
 16 17  1  0  0  0  0
 17 11  2  0  0  0  0
 18 19  2  0  0  0  0
 19 20  1  0  0  0  0
 20 12  2  0  0  0  0
 18 21  1  0  0  0  0
 21 22  2  0  0  0  0
 22 23  1  0  0  0  0
 23 24  2  0  0  0  0
 24 19  1  0  0  0  0
  4 25  1  0  0  0  0
 25 26  2  0  0  0  0
 26 27  1  0  0  0  0
 27  8  2  0  0  0  0
 26 28  1  0  0  0  0
 13 29  2  0  0  0  0
 22 30  1  0  0  0  0
 17 31  1  0  0  0  0
 15 32  1  0  0  0  0
 16 33  1  0  0  0  0
 16 34  1  0  0  0  0
 34 35  1  0  0  0  0
 35 36  1  0  0  0  0
 36 37  1  0  0  0  0
 37 38  1  0  0  0  0
 38 39  1  0  0  0  0
 39 34  1  0  0  0  0
 39 40  1  6  0  0  0
 37 41  1  6  0  0  0
 38 42  1  1  0  0  0
 36 43  1  1  0  0  0
 43 44  1  0  0  0  0
 34 45  1  6  0  0  0
M  END
>  <cdx:fragmentId>
192

$$$$
