95338.cdx
  Mrv1902 05222410212D          

 18 20  0  0  0  0            999 V2000
    8.4951   -9.3628    0.0000 C   0  0  0  0  0  0  0  0  0  0  0  0
    8.9801   -8.6954    0.0000 C   0  0  0  0  0  0  0  0  0  0  0  0
    8.4951   -8.0279    0.0000 C   0  0  0  0  0  0  0  0  0  0  0  0
    7.7105   -8.2829    0.0000 C   0  0  0  0  0  0  0  0  0  0  0  0
    7.0655   -7.7685    0.0000 C   0  0  1  0  0  0  0  0  0  0  0  0
    6.2612   -7.9521    0.0000 C   0  0  1  0  0  0  0  0  0  0  0  0
    5.9032   -8.6954    0.0000 C   0  0  0  0  0  0  0  0  0  0  0  0
    6.2612   -9.4387    0.0000 C   0  0  0  0  0  0  0  0  0  0  0  0
    7.0655   -9.6223    0.0000 C   0  0  2  0  0  0  0  0  0  0  0  0
    7.7105   -9.1079    0.0000 C   0  0  2  0  0  0  0  0  0  0  0  0
    6.5044   -7.1637    0.0000 C   0  0  0  0  0  0  0  0  0  0  0  0
    8.7501   -7.2433    0.0000 C   0  0  0  0  0  0  0  0  0  0  0  0
    7.2491  -10.4266    0.0000 C   0  0  0  0  0  0  0  0  0  0  0  0
    5.9432   -6.5590    0.0000 C   0  0  0  0  0  0  0  0  0  0  0  0
    6.7475   -6.3754    0.0000 C   0  0  0  0  0  0  0  0  0  0  0  0
    5.4932   -7.6507    0.0000 H   0  0  0  0  0  0  0  0  0  0  0  0
    7.8578   -9.9196    0.0000 H   0  0  0  0  0  0  0  0  0  0  0  0
    7.6267   -7.1637    0.0000 H   0  0  0  0  0  0  0  0  0  0  0  0
  1  2  1  0  0  0  0
  2  3  1  0  0  0  0
  3  4  2  0  0  0  0
  4  5  1  0  0  0  0
  5  6  1  0  0  0  0
  6  7  1  0  0  0  0
  7  8  1  0  0  0  0
  8  9  1  0  0  0  0
  9 10  1  0  0  0  0
  1 10  1  0  0  0  0
  4 10  1  0  0  0  0
 11  5  1  0  0  0  0
 11  6  1  0  0  0  0
  3 12  1  0  0  0  0
  9 13  1  6  0  0  0
 11 14  1  0  0  0  0
 11 15  1  0  0  0  0
  6 16  1  6  0  0  0
 10 17  1  6  0  0  0
  5 18  1  6  0  0  0
M  END
>  <cdx:groupId>
58

>  <cdx:fragmentId>
5

$$$$
