95340.cdx
  Mrv1902 05222410272D          

 26 27  0  0  0  0            999 V2000
    4.8719   -7.0400    0.0000 C   0  0  0  0  0  0  0  0  0  0  0  0
    5.5864   -7.4525    0.0000 C   0  0  0  0  0  0  0  0  0  0  0  0
    5.5864   -8.2775    0.0000 C   0  0  2  0  0  0  0  0  0  0  0  0
    4.8719   -8.6900    0.0000 C   0  0  0  0  0  0  0  0  0  0  0  0
    4.1574   -8.2775    0.0000 C   0  0  1  0  0  0  0  0  0  0  0  0
    4.1574   -7.4525    0.0000 C   0  0  0  0  0  0  0  0  0  0  0  0
    4.8719   -6.2150    0.0000 C   0  0  0  0  0  0  0  0  0  0  0  0
    4.1574   -5.8025    0.0000 O   0  0  0  0  0  0  0  0  0  0  0  0
    5.5864   -5.8025    0.0000 O   0  0  0  0  0  0  0  0  0  0  0  0
    4.8719   -9.5150    0.0000 O   0  0  0  0  0  0  0  0  0  0  0  0
    5.5864   -6.6275    0.0000 O   0  0  0  0  0  0  0  0  0  0  0  0
    3.4430   -8.6900    0.0000 O   0  0  0  0  0  0  0  0  0  0  0  0
    6.3008   -8.6900    0.0000 O   0  0  0  0  0  0  0  0  0  0  0  0
    7.0153   -8.2775    0.0000 C   0  0  0  0  0  0  0  0  0  0  0  0
    7.7298   -8.6900    0.0000 C   0  0  0  0  0  0  0  0  0  0  0  0
    8.4443   -8.2775    0.0000 C   0  0  0  0  0  0  0  0  0  0  0  0
    7.0153   -7.4525    0.0000 O   0  0  0  0  0  0  0  0  0  0  0  0
    9.1587   -8.6900    0.0000 C   0  0  0  0  0  0  0  0  0  0  0  0
    9.8732   -8.2775    0.0000 C   0  0  0  0  0  0  0  0  0  0  0  0
   10.5877   -8.6900    0.0000 C   0  0  0  0  0  0  0  0  0  0  0  0
   10.5877   -9.5150    0.0000 C   0  0  0  0  0  0  0  0  0  0  0  0
    9.8732   -9.9275    0.0000 C   0  0  0  0  0  0  0  0  0  0  0  0
    9.1587   -9.5150    0.0000 C   0  0  0  0  0  0  0  0  0  0  0  0
   11.3021   -9.9275    0.0000 O   0  0  0  0  0  0  0  0  0  0  0  0
   11.3021   -8.2775    0.0000 O   0  0  0  0  0  0  0  0  0  0  0  0
    5.5864   -4.9775    0.0000 C   0  0  0  0  0  0  0  0  0  0  0  0
  1  2  1  0  0  0  0
  2  3  1  0  0  0  0
  3  4  1  0  0  0  0
  4  5  1  0  0  0  0
  5  6  1  0  0  0  0
  1  6  1  0  0  0  0
  7  8  2  0  0  0  0
  7  9  1  0  0  0  0
  1  7  1  0  0  0  0
  4 10  1  0  0  0  0
  1 11  1  0  0  0  0
  5 12  1  6  0  0  0
 14 15  1  0  0  0  0
 15 16  2  0  0  0  0
 14 17  2  0  0  0  0
 18 19  1  0  0  0  0
 19 20  2  0  0  0  0
 20 21  1  0  0  0  0
 21 22  2  0  0  0  0
 22 23  1  0  0  0  0
 18 23  2  0  0  0  0
 21 24  1  0  0  0  0
 20 25  1  0  0  0  0
 16 18  1  0  0  0  0
 13 14  1  0  0  0  0
  3 13  1  1  0  0  0
  9 26  1  0  0  0  0
M  END
>  <cdx:groupId>
118

>  <cdx:fragmentId>
37

$$$$
