95347.cdx
  Mrv1902 05222410262D          

 20 24  0  0  0  0            999 V2000
    7.9759   -9.4484    0.0000 C   0  0  0  0  0  0  0  0  0  0  0  0
    7.4910  -10.1159    0.0000 N   0  0  0  0  0  0  0  0  0  0  0  0
    6.7064   -9.8609    0.0000 C   0  0  0  0  0  0  0  0  0  0  0  0
    6.7064   -9.0359    0.0000 C   0  0  0  0  0  0  0  0  0  0  0  0
    7.4910   -8.7810    0.0000 N   0  0  0  0  0  0  0  0  0  0  0  0
    5.9919  -10.2734    0.0000 C   0  0  0  0  0  0  0  0  0  0  0  0
    5.2774   -9.8609    0.0000 C   0  0  0  0  0  0  0  0  0  0  0  0
    5.2774   -9.0359    0.0000 C   0  0  0  0  0  0  0  0  0  0  0  0
    5.9919   -8.6234    0.0000 C   0  0  0  0  0  0  0  0  0  0  0  0
    8.8009   -9.4484    0.0000 O   0  0  0  0  0  0  0  0  0  0  0  0
    7.7459   -7.9964    0.0000 C   0  0  0  0  0  0  0  0  0  0  0  0
    8.5132   -8.2378    0.0000 C   0  0  0  0  0  0  0  0  0  0  0  0
    9.1126   -7.7014    0.0000 C   0  0  0  0  0  0  0  0  0  0  0  0
    8.9577   -6.9121    0.0000 C   0  0  0  0  0  0  0  0  0  0  0  0
    8.2001   -6.6415    0.0000 C   0  0  0  0  0  0  0  0  0  0  0  0
    7.4179   -6.3793    0.0000 C   0  0  0  0  0  0  0  0  0  0  0  0
    6.7997   -6.9256    0.0000 C   0  0  0  0  0  0  0  0  0  0  0  0
    6.9637   -7.7341    0.0000 C   0  0  0  0  0  0  0  0  0  0  0  0
    8.0819   -6.9374    0.0000 C   0  0  0  0  0  0  0  0  0  0  0  0
    8.3641   -7.4501    0.0000 C   0  0  0  0  0  0  0  0  0  0  0  0
  1  2  1  0  0  0  0
  2  3  1  0  0  0  0
  3  4  1  0  0  0  0
  4  5  1  0  0  0  0
  1  5  1  0  0  0  0
  6  7  1  0  0  0  0
  7  8  2  0  0  0  0
  8  9  1  0  0  0  0
  9  4  2  0  0  0  0
  6  3  2  0  0  0  0
  1 10  2  0  0  0  0
 11 12  1  0  0  0  0
 12 13  1  0  0  0  0
 13 14  1  0  0  0  0
 14 15  1  0  0  0  0
 15 16  1  0  0  0  0
 16 17  1  0  0  0  0
 17 18  1  0  0  0  0
 11 18  1  0  0  0  0
 17 19  1  0  0  0  0
 13 19  1  0  0  0  0
 15 20  1  0  0  0  0
 11 20  1  0  0  0  0
  5 11  1  0  0  0  0
M  END
>  <cdx:groupId>
66

>  <cdx:fragmentId>
25

$$$$
