95346.cdx
  Mrv1902 05222410262D          

 17 18  0  0  0  0            999 V2000
    9.5882   -7.8110    0.0000 C   0  0  0  0  0  0  0  0  0  0  0  0
   10.0731   -8.4785    0.0000 O   0  0  0  0  0  0  0  0  0  0  0  0
    9.5882   -9.1459    0.0000 C   0  0  0  0  0  0  0  0  0  0  0  0
    8.8036   -8.8910    0.0000 C   0  0  0  0  0  0  0  0  0  0  0  0
    8.0891   -9.3035    0.0000 C   0  0  0  0  0  0  0  0  0  0  0  0
    7.3746   -8.8910    0.0000 C   0  0  0  0  0  0  0  0  0  0  0  0
    7.3746   -8.0660    0.0000 C   0  0  0  0  0  0  0  0  0  0  0  0
    8.0891   -7.6535    0.0000 C   0  0  0  0  0  0  0  0  0  0  0  0
    8.8036   -8.0660    0.0000 C   0  0  0  0  0  0  0  0  0  0  0  0
    9.8431   -7.0264    0.0000 O   0  0  0  0  0  0  0  0  0  0  0  0
    6.6602   -9.3035    0.0000 O   0  0  0  0  0  0  0  0  0  0  0  0
    5.9457   -8.8910    0.0000 C   0  0  0  0  0  0  0  0  0  0  0  0
    6.6602   -7.6535    0.0000 C   0  0  0  0  0  0  0  0  0  0  0  0
    5.9457   -8.0660    0.0000 C   0  0  0  0  0  0  0  0  0  0  0  0
    5.2312   -7.6535    0.0000 C   0  0  0  0  0  0  0  0  0  0  0  0
    6.6602   -6.8285    0.0000 O   0  0  0  0  0  0  0  0  0  0  0  0
    4.5168   -8.0660    0.0000 O   0  0  0  0  0  0  0  0  0  0  0  0
  1  2  1  0  0  0  0
  2  3  1  0  0  0  0
  3  4  1  0  0  0  0
  4  5  1  0  0  0  0
  5  6  2  0  0  0  0
  6  7  1  0  0  0  0
  7  8  2  0  0  0  0
  8  9  1  0  0  0  0
  4  9  2  0  0  0  0
  1  9  1  0  0  0  0
  1 10  2  0  0  0  0
 11 12  1  0  0  0  0
  6 11  1  0  0  0  0
 13 14  1  0  0  0  0
 14 15  1  0  0  0  0
 13 16  2  0  0  0  0
 15 17  1  0  0  0  0
  7 13  1  0  0  0  0
M  END
>  <cdx:groupId>
54

>  <cdx:fragmentId>
5

$$$$
