95342.cdx
  Mrv1902 05222410282D          

 38 40  0  0  0  0            999 V2000
    7.6769   -4.7369    0.0000 C   0  0  0  0  0  0  0  0  0  0  0  0
    8.3914   -5.1494    0.0000 C   0  0  0  0  0  0  0  0  0  0  0  0
    8.3914   -5.9744    0.0000 C   0  0  2  0  0  0  0  0  0  0  0  0
    7.6769   -6.3869    0.0000 C   0  0  0  0  0  0  0  0  0  0  0  0
    6.9624   -5.9744    0.0000 C   0  0  1  0  0  0  0  0  0  0  0  0
    6.9624   -5.1494    0.0000 C   0  0  0  0  0  0  0  0  0  0  0  0
    7.6769   -3.9119    0.0000 C   0  0  0  0  0  0  0  0  0  0  0  0
    6.9624   -3.4994    0.0000 O   0  0  0  0  0  0  0  0  0  0  0  0
    8.3914   -3.4994    0.0000 O   0  0  0  0  0  0  0  0  0  0  0  0
    7.6769   -7.2119    0.0000 O   0  0  0  0  0  0  0  0  0  0  0  0
    8.3914   -4.3244    0.0000 O   0  0  0  0  0  0  0  0  0  0  0  0
    6.2480   -6.3869    0.0000 O   0  0  0  0  0  0  0  0  0  0  0  0
    5.5335   -5.9744    0.0000 C   0  0  0  0  0  0  0  0  0  0  0  0
    4.8190   -6.3869    0.0000 C   0  0  0  0  0  0  0  0  0  0  0  0
    4.1045   -5.9744    0.0000 C   0  0  0  0  0  0  0  0  0  0  0  0
    5.5335   -5.1494    0.0000 O   0  0  0  0  0  0  0  0  0  0  0  0
    3.3901   -6.3869    0.0000 C   0  0  0  0  0  0  0  0  0  0  0  0
    2.6756   -5.9744    0.0000 C   0  0  0  0  0  0  0  0  0  0  0  0
    1.9611   -6.3869    0.0000 C   0  0  0  0  0  0  0  0  0  0  0  0
    1.9611   -7.2119    0.0000 C   0  0  0  0  0  0  0  0  0  0  0  0
    2.6756   -7.6244    0.0000 C   0  0  0  0  0  0  0  0  0  0  0  0
    3.3901   -7.2119    0.0000 C   0  0  0  0  0  0  0  0  0  0  0  0
    1.2467   -7.6244    0.0000 O   0  0  0  0  0  0  0  0  0  0  0  0
    1.2467   -5.9744    0.0000 O   0  0  0  0  0  0  0  0  0  0  0  0
    9.1058   -6.3869    0.0000 O   0  0  0  0  0  0  0  0  0  0  0  0
    8.3914   -2.6744    0.0000 C   0  0  0  0  0  0  0  0  0  0  0  0
    8.3888   -7.6371    0.0000 C   0  0  0  0  0  0  0  0  0  0  0  0
    8.3864   -8.4621    0.0000 C   0  0  0  0  0  0  0  0  0  0  0  0
    9.0997   -8.8767    0.0000 C   0  0  0  0  0  0  0  0  0  0  0  0
    9.1045   -7.2267    0.0000 O   0  0  0  0  0  0  0  0  0  0  0  0
    9.0972   -9.7017    0.0000 C   0  0  0  0  0  0  0  0  0  0  0  0
    9.8105  -10.1163    0.0000 C   0  0  0  0  0  0  0  0  0  0  0  0
    9.8081  -10.9413    0.0000 C   0  0  0  0  0  0  0  0  0  0  0  0
    9.0924  -11.3517    0.0000 C   0  0  0  0  0  0  0  0  0  0  0  0
    8.3791  -10.9371    0.0000 C   0  0  0  0  0  0  0  0  0  0  0  0
    8.3816  -10.1121    0.0000 C   0  0  0  0  0  0  0  0  0  0  0  0
    9.0900  -12.1767    0.0000 O   0  0  0  0  0  0  0  0  0  0  0  0
   10.5213  -11.3559    0.0000 O   0  0  0  0  0  0  0  0  0  0  0  0
  1  2  1  0  0  0  0
  2  3  1  0  0  0  0
  3  4  1  0  0  0  0
  4  5  1  0  0  0  0
  5  6  1  0  0  0  0
  1  6  1  0  0  0  0
  7  8  2  0  0  0  0
  7  9  1  0  0  0  0
  1  7  1  0  0  0  0
  4 10  1  0  0  0  0
  1 11  1  0  0  0  0
 13 14  1  0  0  0  0
 14 15  2  0  0  0  0
 13 16  2  0  0  0  0
 17 18  1  0  0  0  0
 18 19  2  0  0  0  0
 19 20  1  0  0  0  0
 20 21  2  0  0  0  0
 21 22  1  0  0  0  0
 17 22  2  0  0  0  0
 20 23  1  0  0  0  0
 19 24  1  0  0  0  0
 15 17  1  0  0  0  0
 12 13  1  0  0  0  0
  5 12  1  6  0  0  0
  3 25  1  1  0  0  0
  9 26  1  0  0  0  0
 27 28  1  0  0  0  0
 28 29  2  0  0  0  0
 27 30  2  0  0  0  0
 31 32  1  0  0  0  0
 32 33  2  0  0  0  0
 33 34  1  0  0  0  0
 34 35  2  0  0  0  0
 35 36  1  0  0  0  0
 31 36  2  0  0  0  0
 34 37  1  0  0  0  0
 33 38  1  0  0  0  0
 29 31  1  0  0  0  0
 27 10  1  0  0  0  0
M  END
>  <cdx:groupId>
118

>  <cdx:fragmentId>
37

$$$$
