95354.cdx
  Mrv1902 05222410272D          

 31 33  0  0  0  0            999 V2000
    6.0218   -6.7987    0.0000 O   0  0  0  0  0  0  0  0  0  0  0  0
    5.3097   -7.2197    0.0000 C   0  0  1  0  0  0  0  0  0  0  0  0
    5.3032   -8.0447    0.0000 C   0  0  2  0  0  0  0  0  0  0  0  0
    6.0144   -8.4628    0.0000 O   0  0  0  0  0  0  0  0  0  0  0  0
    4.5855   -8.4516    0.0000 C   0  0  1  0  0  0  0  0  0  0  0  0
    4.5790   -9.2766    0.0000 O   0  0  0  0  0  0  0  0  0  0  0  0
    3.8743   -8.0335    0.0000 C   0  0  2  0  0  0  0  0  0  0  0  0
    3.1566   -8.4404    0.0000 O   0  0  0  0  0  0  0  0  0  0  0  0
    3.8808   -7.2085    0.0000 C   0  0  2  0  0  0  0  0  0  0  0  0
    4.5985   -6.8016    0.0000 O   0  0  0  0  0  0  0  0  0  0  0  0
    3.1696   -6.7904    0.0000 C   0  0  0  0  0  0  0  0  0  0  0  0
    2.4519   -7.1973    0.0000 O   0  0  0  0  0  0  0  0  0  0  0  0
    7.4751   -9.2594    0.0000 C   0  0  0  0  0  0  0  0  0  0  0  0
    6.7553   -9.6625    0.0000 C   0  0  0  0  0  0  0  0  0  0  0  0
    6.7445  -10.4874    0.0000 C   0  0  0  0  0  0  0  0  0  0  0  0
    6.0246  -10.8905    0.0000 C   0  0  0  0  0  0  0  0  0  0  0  0
    6.0138  -11.7154    0.0000 C   0  0  0  0  0  0  0  0  0  0  0  0
    5.3156  -10.4687    0.0000 O   0  0  0  0  0  0  0  0  0  0  0  0
   10.3084   -6.7563    0.0000 C   0  0  0  0  0  0  0  0  0  0  0  0
    6.0463   -9.2407    0.0000 O   0  0  0  0  0  0  0  0  0  0  0  0
    8.8795   -6.7704    0.0000 O   0  0  0  0  0  0  0  0  0  0  0  0
    8.1692   -7.1900    0.0000 C   0  0  0  0  0  0  0  0  0  0  0  0
    7.4507   -6.7846    0.0000 C   0  0  0  0  0  0  0  0  0  0  0  0
    6.7403   -7.2041    0.0000 C   0  0  0  0  0  0  0  0  0  0  0  0
    6.7485   -8.0291    0.0000 C   0  0  0  0  0  0  0  0  0  0  0  0
    7.4670   -8.4345    0.0000 C   0  0  0  0  0  0  0  0  0  0  0  0
    8.1773   -8.0149    0.0000 C   0  0  0  0  0  0  0  0  0  0  0  0
    8.9040   -9.2453    0.0000 O   0  0  0  0  0  0  0  0  0  0  0  0
    8.8959   -8.4204    0.0000 C   0  0  0  0  0  0  0  0  0  0  0  0
    9.6062   -8.0008    0.0000 C   0  0  0  0  0  0  0  0  0  0  0  0
    9.5981   -7.1758    0.0000 C   0  0  0  0  0  0  0  0  0  0  0  0
 31 19  1  0  0  0  0
 26 13  1  0  0  0  0
 24  1  1  0  0  0  0
 31 21  1  0  0  0  0
 22 21  1  0  0  0  0
 27 22  2  0  0  0  0
 23 22  1  0  0  0  0
 24 23  2  0  0  0  0
 25 24  1  0  0  0  0
 26 25  2  0  0  0  0
 27 26  1  0  0  0  0
 29 27  1  0  0  0  0
 29 28  2  0  0  0  0
 30 29  1  0  0  0  0
 31 30  2  0  0  0  0
  2  3  1  0  0  0  0
  3  4  1  6  0  0  0
  3  5  1  0  0  0  0
  5  6  1  1  0  0  0
  5  7  1  0  0  0  0
  7  8  1  6  0  0  0
  7  9  1  0  0  0  0
  9 10  1  0  0  0  0
  9 11  1  1  0  0  0
 11 12  1  0  0  0  0
  2 10  1  0  0  0  0
 13 14  1  0  0  0  0
 14 15  1  0  0  0  0
 15 16  1  0  0  0  0
 16 17  1  0  0  0  0
 16 18  1  0  0  0  0
 14 20  2  0  0  0  0
  2  1  1  1  0  0  0
M  END
>  <cdx:fragmentId>
5

$$$$
