95350.cdx
  Mrv1902 05222410262D          

 17 18  0  0  0  0            999 V2000
    7.5529   -8.2019    0.0000 C   0  0  0  0  0  0  0  0  0  0  0  0
    6.8384   -8.6144    0.0000 C   0  0  0  0  0  0  0  0  0  0  0  0
    6.1239   -8.2019    0.0000 C   0  0  0  0  0  0  0  0  0  0  0  0
    6.8384   -9.4394    0.0000 O   0  0  0  0  0  0  0  0  0  0  0  0
    5.4095   -8.6144    0.0000 N   0  0  0  0  0  0  0  0  0  0  0  0
    5.4095   -9.4394    0.0000 C   0  0  0  0  0  0  0  0  0  0  0  0
    4.6950   -9.8519    0.0000 C   0  0  0  0  0  0  0  0  0  0  0  0
    3.9805   -9.4394    0.0000 C   0  0  0  0  0  0  0  0  0  0  0  0
    3.9805   -8.6144    0.0000 C   0  0  0  0  0  0  0  0  0  0  0  0
    4.6950   -8.2019    0.0000 C   0  0  0  0  0  0  0  0  0  0  0  0
    8.2674   -8.6144    0.0000 S   0  0  0  0  0  0  0  0  0  0  0  0
    8.9818   -8.2019    0.0000 C   0  0  0  0  0  0  0  0  0  0  0  0
    8.9818   -7.3769    0.0000 C   0  0  0  0  0  0  0  0  0  0  0  0
    9.6963   -6.9644    0.0000 C   0  0  0  0  0  0  0  0  0  0  0  0
   10.4108   -7.3769    0.0000 C   0  0  0  0  0  0  0  0  0  0  0  0
   10.4108   -8.2019    0.0000 C   0  0  0  0  0  0  0  0  0  0  0  0
    9.6963   -8.6144    0.0000 C   0  0  0  0  0  0  0  0  0  0  0  0
  1  2  1  0  0  0  0
  2  3  1  0  0  0  0
  2  4  1  0  0  0  0
  5  6  1  0  0  0  0
  6  7  1  0  0  0  0
  7  8  1  0  0  0  0
  8  9  1  0  0  0  0
  9 10  1  0  0  0  0
  5 10  1  0  0  0  0
  3  5  1  0  0  0  0
 12 13  1  0  0  0  0
 13 14  2  0  0  0  0
 14 15  1  0  0  0  0
 15 16  2  0  0  0  0
 16 17  1  0  0  0  0
 12 17  2  0  0  0  0
 11 12  1  0  0  0  0
  1 11  1  0  0  0  0
M  END
>  <cdx:groupId>
54

>  <cdx:fragmentId>
13

$$$$
