95359.cdx
  Mrv1902 05222410182D          

 33 35  0  0  0  0            999 V2000
    5.9960  -10.1402    0.0000 C   0  0  0  0  0  0  0  0  0  0  0  0
    5.9960   -9.3152    0.0000 C   0  0  0  0  0  0  0  0  0  0  0  0
    5.2815   -8.9027    0.0000 C   0  0  0  0  0  0  0  0  0  0  0  0
    6.7104  -10.5527    0.0000 C   0  0  0  0  0  0  0  0  0  0  0  0
    7.4249  -10.1402    0.0000 C   0  0  0  0  0  0  0  0  0  0  0  0
    7.4249   -9.3152    0.0000 C   0  0  0  0  0  0  0  0  0  0  0  0
    6.7104   -8.9027    0.0000 C   0  0  0  0  0  0  0  0  0  0  0  0
    6.7104   -8.0777    0.0000 C   0  0  1  0  0  0  0  0  0  0  0  0
    7.4249   -7.6652    0.0000 C   0  0  2  0  0  0  0  0  0  0  0  0
    8.2095   -7.9201    0.0000 C   0  0  0  0  0  0  0  0  0  0  0  0
    8.6945   -7.2527    0.0000 C   0  0  0  0  0  0  0  0  0  0  0  0
    8.2095   -6.5853    0.0000 C   0  0  2  0  0  0  0  0  0  0  0  0
    8.4645   -5.8006    0.0000 C   0  0  1  0  0  0  0  0  0  0  0  0
    9.2714   -5.6291    0.0000 C   0  0  0  0  0  0  0  0  0  0  0  0
    9.5264   -4.8445    0.0000 C   0  0  0  0  0  0  0  0  0  0  0  0
   10.3334   -4.6730    0.0000 C   0  0  0  0  0  0  0  0  0  0  0  0
   10.5883   -3.8883    0.0000 C   0  0  0  0  0  0  0  0  0  0  0  0
   10.0363   -3.2752    0.0000 C   0  0  0  0  0  0  0  0  0  0  0  0
   11.3953   -3.7168    0.0000 C   0  0  0  0  0  0  0  0  0  0  0  0
    7.9124   -5.1875    0.0000 C   0  0  0  0  0  0  0  0  0  0  0  0
    7.4249   -6.8402    0.0000 C   0  0  2  0  0  0  0  0  0  0  0  0
    7.4249   -6.0152    0.0000 C   0  0  0  0  0  0  0  0  0  0  0  0
    6.7104   -6.4277    0.0000 C   0  0  0  0  0  0  0  0  0  0  0  0
    5.9960   -6.8402    0.0000 C   0  0  0  0  0  0  0  0  0  0  0  0
    5.9960   -7.6652    0.0000 C   0  0  2  0  0  0  0  0  0  0  0  0
    5.2815   -8.0777    0.0000 C   0  0  1  0  0  0  0  0  0  0  0  0
    4.5670   -7.6652    0.0000 C   0  0  0  0  0  0  0  0  0  0  0  0
    5.9960   -8.4902    0.0000 H   0  0  0  0  0  0  0  0  0  0  0  0
    6.7104   -7.2527    0.0000 H   0  0  0  0  0  0  0  0  0  0  0  0
    7.4249   -8.4902    0.0000 H   0  0  0  0  0  0  0  0  0  0  0  0
    5.2815  -10.5527    0.0000 O   0  0  0  0  0  0  0  0  0  0  0  0
    8.1394  -10.5527    0.0000 O   0  0  0  0  0  0  0  0  0  0  0  0
    3.8526   -8.0777    0.0000 C   0  0  0  0  0  0  0  0  0  0  0  0
  1  2  1  0  0  0  0
  2  3  1  0  0  0  0
  1  4  1  0  0  0  0
  4  5  1  0  0  0  0
  5  6  1  0  0  0  0
  6  7  1  0  0  0  0
  7  8  1  0  0  0  0
  8  9  1  0  0  0  0
  9 10  1  0  0  0  0
 10 11  1  0  0  0  0
 12 11  1  1  0  0  0
 12 13  1  0  0  0  0
 13 14  1  0  0  0  0
 14 15  1  0  0  0  0
 15 16  1  0  0  0  0
 16 17  1  0  0  0  0
 17 18  1  0  0  0  0
 17 19  1  0  0  0  0
 13 20  1  6  0  0  0
 12 21  1  0  0  0  0
  9 21  1  0  0  0  0
 21 22  1  1  0  0  0
 21 23  1  0  0  0  0
 23 24  1  0  0  0  0
 24 25  1  0  0  0  0
  8 25  1  0  0  0  0
 25 26  1  0  0  0  0
  3 26  1  0  0  0  0
 26 27  1  6  0  0  0
 25 28  1  6  0  0  0
  8 29  1  1  0  0  0
  9 30  1  6  0  0  0
  1 31  2  0  0  0  0
  5 32  2  0  0  0  0
 27 33  2  0  0  0  0
M  END
>  <cdx:groupId>
103

>  <cdx:fragmentId>
5

$$$$
