95358.cdx
  Mrv1902 05222410192D          

 33 36  0  0  0  0            999 V2000
    8.8583   -7.1697    0.0000 O   0  0  0  0  0  0  0  0  0  0  0  0
    9.5664   -7.5930    0.0000 C   0  0  1  0  0  0  0  0  0  0  0  0
   10.2871   -7.1914    0.0000 C   0  0  2  0  0  0  0  0  0  0  0  0
   10.2996   -6.3665    0.0000 O   0  0  0  0  0  0  0  0  0  0  0  0
   10.9952   -7.6147    0.0000 C   0  0  1  0  0  0  0  0  0  0  0  0
   11.7158   -7.2131    0.0000 O   0  0  0  0  0  0  0  0  0  0  0  0
   10.9827   -8.4396    0.0000 C   0  0  2  0  0  0  0  0  0  0  0  0
   11.6908   -8.8629    0.0000 O   0  0  0  0  0  0  0  0  0  0  0  0
   10.2620   -8.8412    0.0000 C   0  0  2  0  0  0  0  0  0  0  0  0
    9.5539   -8.4179    0.0000 O   0  0  0  0  0  0  0  0  0  0  0  0
   10.2495   -9.6661    0.0000 C   0  0  0  0  0  0  0  0  0  0  0  0
   10.9576  -10.0894    0.0000 O   0  0  0  0  0  0  0  0  0  0  0  0
    6.7149   -5.9322    0.0000 C   0  0  0  0  0  0  0  0  0  0  0  0
    7.4293   -6.3447    0.0000 O   0  0  0  0  0  0  0  0  0  0  0  0
    7.4293   -8.8197    0.0000 C   0  0  0  0  0  0  0  0  0  0  0  0
    8.1438   -8.4072    0.0000 C   0  0  0  0  0  0  0  0  0  0  0  0
    8.1438   -7.5822    0.0000 C   0  0  0  0  0  0  0  0  0  0  0  0
    7.4293   -7.1697    0.0000 C   0  0  0  0  0  0  0  0  0  0  0  0
    6.7149   -7.5822    0.0000 C   0  0  0  0  0  0  0  0  0  0  0  0
    6.7149   -8.4072    0.0000 C   0  0  0  0  0  0  0  0  0  0  0  0
    6.0004   -8.8197    0.0000 C   0  0  0  0  0  0  0  0  0  0  0  0
    5.2859   -8.4072    0.0000 C   0  0  0  0  0  0  0  0  0  0  0  0
    3.8570   -8.4072    0.0000 O   0  0  0  0  0  0  0  0  0  0  0  0
    3.1425   -8.8197    0.0000 C   0  0  0  0  0  0  0  0  0  0  0  0
    2.4280   -8.4072    0.0000 C   0  0  0  0  0  0  0  0  0  0  0  0
    1.7136   -8.8197    0.0000 C   0  0  0  0  0  0  0  0  0  0  0  0
    1.7136   -9.6447    0.0000 C   0  0  0  0  0  0  0  0  0  0  0  0
    2.4280  -10.0572    0.0000 C   0  0  0  0  0  0  0  0  0  0  0  0
    3.1425   -9.6447    0.0000 C   0  0  0  0  0  0  0  0  0  0  0  0
    3.8570  -10.8822    0.0000 O   0  0  0  0  0  0  0  0  0  0  0  0
    3.8570  -10.0572    0.0000 C   0  0  0  0  0  0  0  0  0  0  0  0
    4.5715   -9.6447    0.0000 C   0  0  0  0  0  0  0  0  0  0  0  0
    4.5715   -8.8197    0.0000 C   0  0  0  0  0  0  0  0  0  0  0  0
 33 22  1  0  0  0  0
 21 20  1  0  0  0  0
 17  1  1  0  0  0  0
 18 14  1  0  0  0  0
 14 13  1  0  0  0  0
 20 15  2  0  0  0  0
 16 15  1  0  0  0  0
 17 16  2  0  0  0  0
 18 17  1  0  0  0  0
 19 18  2  0  0  0  0
 20 19  1  0  0  0  0
 22 21  1  0  0  0  0
 33 23  1  0  0  0  0
 24 23  1  0  0  0  0
 29 24  2  0  0  0  0
 25 24  1  0  0  0  0
 26 25  2  0  0  0  0
 27 26  1  0  0  0  0
 28 27  2  0  0  0  0
 29 28  1  0  0  0  0
 31 29  1  0  0  0  0
 31 30  2  0  0  0  0
 32 31  1  0  0  0  0
 33 32  2  0  0  0  0
  2  3  1  0  0  0  0
  3  4  1  6  0  0  0
  3  5  1  0  0  0  0
  5  6  1  1  0  0  0
  5  7  1  0  0  0  0
  7  8  1  6  0  0  0
  7  9  1  0  0  0  0
  9 10  1  0  0  0  0
  9 11  1  1  0  0  0
 11 12  1  0  0  0  0
  2 10  1  0  0  0  0
  2  1  1  1  0  0  0
M  END
>  <cdx:fragmentId>
49

$$$$
