95352.cdx
  Mrv1902 05222410262D          

 12 12  0  0  0  0            999 V2000
    7.9101   -7.5911    0.0000 O   0  0  0  0  0  0  0  0  0  0  0  0
    7.1956   -7.1786    0.0000 C   0  0  0  0  0  0  0  0  0  0  0  0
    6.4812   -7.5911    0.0000 O   0  0  0  0  0  0  0  0  0  0  0  0
    6.4812   -8.4161    0.0000 C   0  0  1  0  0  0  0  0  0  0  0  0
    7.1956   -8.8286    0.0000 C   0  0  0  0  0  0  0  0  0  0  0  0
    7.9101   -8.4161    0.0000 C   0  0  1  0  0  0  0  0  0  0  0  0
    8.6246   -8.8286    0.0000 C   0  0  0  0  0  0  0  0  0  0  0  0
    8.6246   -9.6536    0.0000 C   0  0  0  0  0  0  0  0  0  0  0  0
    9.3391   -8.4161    0.0000 C   0  0  0  0  0  0  0  0  0  0  0  0
    5.7667   -8.8286    0.0000 C   0  0  0  0  0  0  0  0  0  0  0  0
    5.7667   -9.6536    0.0000 C   0  0  0  0  0  0  0  0  0  0  0  0
    5.0522   -8.4161    0.0000 C   0  0  0  0  0  0  0  0  0  0  0  0
  1  2  1  0  0  0  0
  2  3  1  0  0  0  0
  3  4  1  0  0  0  0
  4  5  1  0  0  0  0
  5  6  1  0  0  0  0
  1  6  1  0  0  0  0
  7  8  1  0  0  0  0
  7  9  1  0  0  0  0
  6  7  1  6  0  0  0
 10 11  1  0  0  0  0
 10 12  1  0  0  0  0
  4 10  1  1  0  0  0
M  END
>  <cdx:groupId>
38

>  <cdx:fragmentId>
5

$$$$
