95351.cdx
  Mrv1902 05222410272D          

 23 24  0  0  0  0            999 V2000
    5.4445   -7.7979    0.0000 C   0  0  0  0  0  0  0  0  0  0  0  0
    6.1590   -7.3854    0.0000 C   0  0  0  0  0  0  0  0  0  0  0  0
    6.8735   -7.7979    0.0000 C   0  0  0  0  0  0  0  0  0  0  0  0
    6.8735   -8.6229    0.0000 C   0  0  0  0  0  0  0  0  0  0  0  0
    6.1590   -9.0354    0.0000 C   0  0  0  0  0  0  0  0  0  0  0  0
    5.4445   -8.6229    0.0000 C   0  0  0  0  0  0  0  0  0  0  0  0
    7.5879   -7.3854    0.0000 N   0  3  0  0  0  0  0  0  0  0  0  0
    7.5879   -6.5604    0.0000 O   0  0  0  0  0  0  0  0  0  0  0  0
    8.3024   -7.7979    0.0000 O   0  5  0  0  0  0  0  0  0  0  0  0
    7.5879   -9.0354    0.0000 O   0  0  0  0  0  0  0  0  0  0  0  0
    8.3024   -8.6229    0.0000 C   0  0  0  0  0  0  0  0  0  0  0  0
    9.0169   -9.0354    0.0000 C   0  0  0  0  0  0  0  0  0  0  0  0
    9.0169   -9.8604    0.0000 C   0  0  0  0  0  0  0  0  0  0  0  0
    9.7314  -10.2729    0.0000 C   0  0  0  0  0  0  0  0  0  0  0  0
   10.4458   -9.8604    0.0000 C   0  0  0  0  0  0  0  0  0  0  0  0
   10.4458   -9.0354    0.0000 C   0  0  0  0  0  0  0  0  0  0  0  0
    9.7314   -8.6229    0.0000 C   0  0  0  0  0  0  0  0  0  0  0  0
    8.3024  -10.2729    0.0000 O   0  0  0  0  0  0  0  0  0  0  0  0
    7.5879   -9.8604    0.0000 C   0  0  0  0  0  0  0  0  0  0  0  0
    4.7301   -7.3854    0.0000 C   0  0  0  0  0  0  0  0  0  0  0  0
    4.7301   -6.5604    0.0000 F   0  0  0  0  0  0  0  0  0  0  0  0
    4.0156   -6.9729    0.0000 F   0  0  0  0  0  0  0  0  0  0  0  0
    4.0156   -7.7979    0.0000 F   0  0  0  0  0  0  0  0  0  0  0  0
  1  2  1  0  0  0  0
  2  3  2  0  0  0  0
  3  4  1  0  0  0  0
  4  5  2  0  0  0  0
  5  6  1  0  0  0  0
  1  6  2  0  0  0  0
  7  8  2  0  0  0  0
  7  9  1  0  0  0  0
  3  7  1  0  0  0  0
 11 12  1  0  0  0  0
 12 13  1  0  0  0  0
 13 14  2  0  0  0  0
 14 15  1  0  0  0  0
 15 16  2  0  0  0  0
 16 17  1  0  0  0  0
 12 17  2  0  0  0  0
 10 11  1  0  0  0  0
 18 19  1  0  0  0  0
 13 18  1  0  0  0  0
  4 10  1  0  0  0  0
 20 21  1  0  0  0  0
 20 22  1  0  0  0  0
 20 23  1  0  0  0  0
  1 20  1  0  0  0  0
M  CHG  2   7   1   9  -1
M  END
>  <cdx:groupId>
72

>  <cdx:fragmentId>
25

$$$$
