95355.cdx
  Mrv1902 05222410272D          

111122  0  0  0  0            999 V2000
   10.8160  -11.7997    0.0000 C   0  0  1  0  0  0  0  0  0  0  0  0
   10.8160  -10.9750    0.0000 C   0  0  0  0  0  0  0  0  0  0  0  0
   11.5302  -10.5626    0.0000 C   0  0  0  0  0  0  0  0  0  0  0  0
   11.5302  -12.2121    0.0000 C   0  0  2  0  0  0  0  0  0  0  0  0
   11.9426  -12.9264    0.0000 C   0  0  0  0  0  0  0  0  0  0  0  0
   11.1179  -12.9264    0.0000 C   0  0  0  0  0  0  0  0  0  0  0  0
   12.2445  -11.7997    0.0000 C   0  0  2  0  0  0  0  0  0  0  0  0
   12.2445  -12.6245    0.0000 H   0  0  0  0  0  0  0  0  0  0  0  0
   12.9587  -12.2121    0.0000 C   0  0  0  0  0  0  0  0  0  0  0  0
   13.6730  -11.7997    0.0000 C   0  0  0  0  0  0  0  0  0  0  0  0
   13.6730  -10.9750    0.0000 C   0  0  1  0  0  0  0  0  0  0  0  0
   13.6730  -10.1503    0.0000 C   0  0  0  0  0  0  0  0  0  0  0  0
   14.3872  -10.5626    0.0000 C   0  0  2  0  0  0  0  0  0  0  0  0
   14.3872  -11.3874    0.0000 C   0  0  0  0  0  0  0  0  0  0  0  0
   15.1015  -10.9750    0.0000 C   0  0  0  0  0  0  0  0  0  0  0  0
   15.8157  -10.5626    0.0000 C   0  0  0  0  0  0  0  0  0  0  0  0
   15.8157   -9.7379    0.0000 C   0  0  1  0  0  0  0  0  0  0  0  0
   16.5691  -10.0733    0.0000 C   0  0  0  0  0  0  0  0  0  0  0  0
   16.4286   -9.1860    0.0000 C   0  0  0  0  0  0  0  0  0  0  0  0
   16.0932   -8.4326    0.0000 C   0  0  0  0  0  0  0  0  0  0  0  0
   15.2729   -8.5188    0.0000 C   0  0  1  0  0  0  0  0  0  0  0  0
   14.7211   -7.9059    0.0000 C   0  0  0  0  0  0  0  0  0  0  0  0
   14.9759   -7.1215    0.0000 C   0  0  0  0  0  0  0  0  0  0  0  0
   13.9144   -8.0774    0.0000 C   0  0  0  0  0  0  0  0  0  0  0  0
   15.1015   -9.3255    0.0000 C   0  0  2  0  0  0  0  0  0  0  0  0
   15.1015  -10.1503    0.0000 H   0  0  0  0  0  0  0  0  0  0  0  0
   14.3872   -9.7379    0.0000 C   0  0  1  0  0  0  0  0  0  0  0  0
   14.3872   -8.9131    0.0000 H   0  0  0  0  0  0  0  0  0  0  0  0
   13.6730   -9.3255    0.0000 C   0  0  0  0  0  0  0  0  0  0  0  0
   12.9587   -9.7379    0.0000 C   0  0  0  0  0  0  0  0  0  0  0  0
   12.9587  -10.5626    0.0000 C   0  0  2  0  0  0  0  0  0  0  0  0
   12.2445  -10.9750    0.0000 C   0  0  1  0  0  0  0  0  0  0  0  0
   12.2445  -10.1503    0.0000 C   0  0  0  0  0  0  0  0  0  0  0  0
   16.5709  -10.8981    0.0000 O   0  0  0  0  0  0  0  0  0  0  0  0
    7.2578  -10.5402    0.0000 O   0  0  0  0  0  0  0  0  0  0  0  0
    7.2512   -9.7155    0.0000 C   0  0  1  0  0  0  0  0  0  0  0  0
    6.5337   -9.3088    0.0000 C   0  0  2  0  0  0  0  0  0  0  0  0
    5.8228   -9.7269    0.0000 O   0  0  0  0  0  0  0  0  0  0  0  0
    6.5271   -8.4841    0.0000 C   0  0  1  0  0  0  0  0  0  0  0  0
    5.8095   -8.0775    0.0000 O   0  0  0  0  0  0  0  0  0  0  0  0
    7.2380   -8.0660    0.0000 C   0  0  1  0  0  0  0  0  0  0  0  0
    7.9555   -8.4727    0.0000 C   0  0  2  0  0  0  0  0  0  0  0  0
    7.9621   -9.2974    0.0000 O   0  0  0  0  0  0  0  0  0  0  0  0
    8.6664   -8.0546    0.0000 C   0  0  0  0  0  0  0  0  0  0  0  0
    8.6598   -7.2298    0.0000 O   0  0  0  0  0  0  0  0  0  0  0  0
   11.5302  -13.6406    0.0000 O   0  0  0  0  0  0  0  0  0  0  0  0
   19.4192  -12.5505    0.0000 O   0  0  0  0  0  0  0  0  0  0  0  0
   19.3920  -13.3748    0.0000 C   0  0  1  0  0  0  0  0  0  0  0  0
   20.0923  -13.8104    0.0000 C   0  0  2  0  0  0  0  0  0  0  0  0
   20.8198  -13.4218    0.0000 O   0  0  0  0  0  0  0  0  0  0  0  0
   20.0652  -14.6347    0.0000 C   0  0  1  0  0  0  0  0  0  0  0  0
   20.7655  -15.0703    0.0000 O   0  0  0  0  0  0  0  0  0  0  0  0
   19.3378  -15.0234    0.0000 C   0  0  1  0  0  0  0  0  0  0  0  0
   18.6375  -14.5877    0.0000 C   0  0  2  0  0  0  0  0  0  0  0  0
   18.6646  -13.7635    0.0000 O   0  0  0  0  0  0  0  0  0  0  0  0
   17.9101  -14.9764    0.0000 C   0  0  0  0  0  0  0  0  0  0  0  0
   17.8830  -15.8007    0.0000 O   0  0  0  0  0  0  0  0  0  0  0  0
   12.9587  -11.3874    0.0000 H   0  0  0  0  0  0  0  0  0  0  0  0
    5.8099  -13.0031    0.0000 C   0  0  0  0  0  0  0  0  0  0  0  0
    7.2383  -13.0143    0.0000 O   0  0  0  0  0  0  0  0  0  0  0  0
    6.5209  -13.4210    0.0000 C   0  0  2  0  0  0  0  0  0  0  0  0
    5.7969  -14.6525    0.0000 O   0  0  0  0  0  0  0  0  0  0  0  0
    6.5144  -14.2458    0.0000 C   0  0  2  0  0  0  0  0  0  0  0  0
    7.2189  -15.4885    0.0000 O   0  0  0  0  0  0  0  0  0  0  0  0
    7.2253  -14.6637    0.0000 C   0  0  1  0  0  0  0  0  0  0  0  0
    8.6538  -14.6750    0.0000 O   0  0  0  0  0  0  0  0  0  0  0  0
    7.9428  -14.2570    0.0000 C   0  0  1  0  0  0  0  0  0  0  0  0
    7.9493  -13.4323    0.0000 C   0  0  2  0  0  0  0  0  0  0  0  0
    6.8850   -3.6435    0.0000 O   0  0  0  0  0  0  0  0  0  0  0  0
    7.3134   -4.3855    0.0000 C   0  0  0  0  0  0  0  0  0  0  0  0
    7.2724   -5.8134    0.0000 O   0  0  0  0  0  0  0  0  0  0  0  0
    6.8807   -5.0876    0.0000 C   0  0  1  0  0  0  0  0  0  0  0  0
    5.6646   -4.3381    0.0000 O   0  0  0  0  0  0  0  0  0  0  0  0
    6.0563   -5.0639    0.0000 C   0  0  1  0  0  0  0  0  0  0  0  0
    4.7992   -5.7423    0.0000 O   0  0  0  0  0  0  0  0  0  0  0  0
    5.6236   -5.7660    0.0000 C   0  0  2  0  0  0  0  0  0  0  0  0
    5.5826   -7.1939    0.0000 O   0  0  0  0  0  0  0  0  0  0  0  0
    6.0153   -6.4918    0.0000 C   0  0  1  0  0  0  0  0  0  0  0  0
    6.8397   -6.5155    0.0000 C   0  0  2  0  0  0  0  0  0  0  0  0
    7.2314   -7.2413    0.0000 O   0  0  0  0  0  0  0  0  0  0  0  0
    9.3973  -10.9694    0.0000 O   0  0  0  0  0  0  0  0  0  0  0  0
    8.6863  -10.5514    0.0000 C   0  0  0  0  0  0  0  0  0  0  0  0
    7.9688  -10.9582    0.0000 C   0  0  1  0  0  0  0  0  0  0  0  0
    7.2448  -12.1896    0.0000 O   0  0  0  0  0  0  0  0  0  0  0  0
    7.9623  -11.7829    0.0000 C   0  0  2  0  0  0  0  0  0  0  0  0
    8.6668  -13.0256    0.0000 O   0  0  0  0  0  0  0  0  0  0  0  0
    8.6733  -12.2009    0.0000 C   0  0  1  0  0  0  0  0  0  0  0  0
    9.3908  -11.7941    0.0000 C   0  0  2  0  0  0  0  0  0  0  0  0
   10.1017  -12.2121    0.0000 O   0  0  0  0  0  0  0  0  0  0  0  0
   19.2057  -18.7027    0.0000 C   0  0  0  0  0  0  0  0  0  0  0  0
   19.2582  -17.2752    0.0000 O   0  0  0  0  0  0  0  0  0  0  0  0
   19.6440  -18.0041    0.0000 C   0  0  2  0  0  0  0  0  0  0  0  0
   20.8541  -18.7633    0.0000 O   0  0  0  0  0  0  0  0  0  0  0  0
   20.4682  -18.0344    0.0000 C   0  0  2  0  0  0  0  0  0  0  0  0
   21.7307  -17.3661    0.0000 O   0  0  0  0  0  0  0  0  0  0  0  0
   20.9066  -17.3358    0.0000 C   0  0  1  0  0  0  0  0  0  0  0  0
   20.9591  -15.9083    0.0000 O   0  0  0  0  0  0  0  0  0  0  0  0
   20.5207  -16.6069    0.0000 C   0  0  1  0  0  0  0  0  0  0  0  0
   19.6965  -16.5766    0.0000 C   0  0  2  0  0  0  0  0  0  0  0  0
   19.3107  -15.8477    0.0000 O   0  0  0  0  0  0  0  0  0  0  0  0
   18.7058  -12.1366    0.0000 C   0  0  0  0  0  0  0  0  0  0  0  0
   17.9941  -10.8980    0.0000 O   0  0  0  0  0  0  0  0  0  0  0  0
   18.7075  -11.3119    0.0000 C   0  0  1  0  0  0  0  0  0  0  0  0
   20.1360  -11.3149    0.0000 O   0  0  0  0  0  0  0  0  0  0  0  0
   19.4226  -10.9010    0.0000 C   0  0  1  0  0  0  0  0  0  0  0  0
   20.1395   -9.6654    0.0000 O   0  0  0  0  0  0  0  0  0  0  0  0
   19.4244  -10.0763    0.0000 C   0  0  2  0  0  0  0  0  0  0  0  0
   18.7127   -8.8377    0.0000 O   0  0  0  0  0  0  0  0  0  0  0  0
   18.7110   -9.6624    0.0000 C   0  0  1  0  0  0  0  0  0  0  0  0
   17.9959  -10.0733    0.0000 C   0  0  2  0  0  0  0  0  0  0  0  0
   17.2825   -9.6594    0.0000 O   0  0  0  0  0  0  0  0  0  0  0  0
110111  1  1  0  0  0
 88 89  1  1  0  0  0
 68 86  1  1  0  0  0
 68 60  1  0  0  0  0
 61 59  1  6  0  0  0
 61 60  1  0  0  0  0
 63 61  1  0  0  0  0
 63 62  1  1  0  0  0
 65 63  1  0  0  0  0
 65 64  1  6  0  0  0
 67 65  1  0  0  0  0
 67 66  1  6  0  0  0
 68 67  1  0  0  0  0
 79 80  1  1  0  0  0
 79 71  1  0  0  0  0
 70 69  1  0  0  0  0
 72 70  1  1  0  0  0
 72 71  1  0  0  0  0
 74 72  1  0  0  0  0
 74 73  1  6  0  0  0
 76 74  1  0  0  0  0
 76 75  1  1  0  0  0
 78 76  1  0  0  0  0
 78 77  1  6  0  0  0
 79 78  1  0  0  0  0
 36 37  1  0  0  0  0
 88 81  1  0  0  0  0
 82 81  1  0  0  0  0
 83 82  1  0  0  0  0
 83 35  1  1  0  0  0
 85 83  1  0  0  0  0
 85 84  1  1  0  0  0
 99100  1  1  0  0  0
 99 91  1  0  0  0  0
 92 90  1  6  0  0  0
 92 91  1  0  0  0  0
 94 92  1  0  0  0  0
 94 93  1  1  0  0  0
 96 94  1  0  0  0  0
 96 95  1  6  0  0  0
 98 96  1  0  0  0  0
 98 97  1  6  0  0  0
 99 98  1  0  0  0  0
 48 49  1  0  0  0  0
110102  1  0  0  0  0
101 47  1  0  0  0  0
103101  1  1  0  0  0
103102  1  0  0  0  0
105103  1  0  0  0  0
105104  1  6  0  0  0
107105  1  0  0  0  0
107106  1  1  0  0  0
109107  1  0  0  0  0
  1  2  1  0  0  0  0
  2  3  1  0  0  0  0
  1  4  1  0  0  0  0
  4  5  1  6  0  0  0
  4  6  1  1  0  0  0
  4  7  1  0  0  0  0
  7  8  1  6  0  0  0
  7  9  1  0  0  0  0
  9 10  1  0  0  0  0
 10 11  1  0  0  0  0
 11 12  1  1  0  0  0
 11 13  1  0  0  0  0
 13 14  1  6  0  0  0
 13 15  1  0  0  0  0
 15 16  1  0  0  0  0
 16 17  1  0  0  0  0
 17 18  1  1  0  0  0
 17 19  1  0  0  0  0
 19 20  1  0  0  0  0
 20 21  1  0  0  0  0
 21 22  1  6  0  0  0
 22 23  2  0  0  0  0
 22 24  1  0  0  0  0
 21 25  1  0  0  0  0
 25 26  1  6  0  0  0
 17 25  1  0  0  0  0
 25 27  1  0  0  0  0
 13 27  1  0  0  0  0
 27 28  1  1  0  0  0
 27 29  1  0  0  0  0
 29 30  1  0  0  0  0
 30 31  1  0  0  0  0
 11 31  1  0  0  0  0
 31 32  1  0  0  0  0
  3 32  1  0  0  0  0
  7 32  1  0  0  0  0
 32 33  1  1  0  0  0
 18 34  2  0  0  0  0
 18111  1  0  0  0  0
 87 85  1  0  0  0  0
 87 86  1  6  0  0  0
 88 87  1  0  0  0  0
 37 38  1  6  0  0  0
 37 39  1  0  0  0  0
 39 40  1  1  0  0  0
 39 41  1  0  0  0  0
 41 80  1  6  0  0  0
 41 42  1  0  0  0  0
 42 43  1  0  0  0  0
 42 44  1  1  0  0  0
 44 45  1  0  0  0  0
 36 43  1  0  0  0  0
 36 35  1  1  0  0  0
  1 89  1  1  0  0  0
  5 46  1  0  0  0  0
109108  1  6  0  0  0
110109  1  0  0  0  0
 49 50  1  6  0  0  0
 49 51  1  0  0  0  0
 51 52  1  1  0  0  0
 51 53  1  0  0  0  0
 53100  1  6  0  0  0
 53 54  1  0  0  0  0
 54 55  1  0  0  0  0
 54 56  1  1  0  0  0
 56 57  1  0  0  0  0
 48 55  1  0  0  0  0
 48 47  1  1  0  0  0
 31 58  1  6  0  0  0
M  END
>  <cdx:groupId>
346

>  <cdx:fragmentId>
95

$$$$
