95353.cdx
  Mrv1902 05222410262D          

 34 36  0  0  0  0            999 V2000
    4.3788   -6.8491    0.0000 C   0  0  0  0  0  0  0  0  0  0  0  0
    3.6643   -7.2616    0.0000 C   0  0  0  0  0  0  0  0  0  0  0  0
    3.6643   -8.0866    0.0000 C   0  0  0  0  0  0  0  0  0  0  0  0
    2.9498   -8.4991    0.0000 C   0  0  0  0  0  0  0  0  0  0  0  0
    2.2353   -8.0866    0.0000 C   0  0  0  0  0  0  0  0  0  0  0  0
    2.2353   -7.2616    0.0000 C   0  0  0  0  0  0  0  0  0  0  0  0
    2.9498   -6.8491    0.0000 C   0  0  0  0  0  0  0  0  0  0  0  0
    4.3788   -6.0241    0.0000 O   0  0  0  0  0  0  0  0  0  0  0  0
    5.0932   -7.2616    0.0000 O   0  0  0  0  0  0  0  0  0  0  0  0
    1.5209   -6.8491    0.0000 O   0  0  0  0  0  0  0  0  0  0  0  0
    1.5209   -8.4991    0.0000 O   0  0  0  0  0  0  0  0  0  0  0  0
    2.9498   -9.3241    0.0000 O   0  0  0  0  0  0  0  0  0  0  0  0
    5.8077   -6.8491    0.0000 C   0  0  0  0  0  0  0  0  0  0  0  0
    7.2366   -6.8491    0.0000 O   0  0  0  0  0  0  0  0  0  0  0  0
    6.5222   -7.2616    0.0000 C   0  0  1  0  0  0  0  0  0  0  0  0
    6.5222   -8.0866    0.0000 C   0  0  2  0  0  0  0  0  0  0  0  0
    7.2366   -8.4991    0.0000 C   0  0  1  0  0  0  0  0  0  0  0  0
    7.9511   -8.0866    0.0000 C   0  0  2  0  0  0  0  0  0  0  0  0
    7.9511   -7.2616    0.0000 C   0  0  2  0  0  0  0  0  0  0  0  0
    8.6656   -6.8491    0.0000 O   0  0  0  0  0  0  0  0  0  0  0  0
    8.6656   -8.4991    0.0000 O   0  0  0  0  0  0  0  0  0  0  0  0
    7.2366   -9.3241    0.0000 O   0  0  0  0  0  0  0  0  0  0  0  0
    5.8077   -8.4991    0.0000 O   0  0  0  0  0  0  0  0  0  0  0  0
    8.6730   -9.3296    0.0000 C   0  0  0  0  0  0  0  0  0  0  0  0
    9.3873   -9.7424    0.0000 C   0  0  0  0  0  0  0  0  0  0  0  0
   10.1019   -9.3302    0.0000 C   0  0  0  0  0  0  0  0  0  0  0  0
   10.8162   -9.7430    0.0000 C   0  0  0  0  0  0  0  0  0  0  0  0
   10.8159  -10.5680    0.0000 C   0  0  0  0  0  0  0  0  0  0  0  0
   10.1012  -10.9802    0.0000 C   0  0  0  0  0  0  0  0  0  0  0  0
    9.3869  -10.5674    0.0000 C   0  0  0  0  0  0  0  0  0  0  0  0
    7.9583   -9.7418    0.0000 O   0  0  0  0  0  0  0  0  0  0  0  0
   10.1009  -11.8052    0.0000 O   0  0  0  0  0  0  0  0  0  0  0  0
   11.5302  -10.9808    0.0000 O   0  0  0  0  0  0  0  0  0  0  0  0
   11.5308   -9.3308    0.0000 O   0  0  0  0  0  0  0  0  0  0  0  0
  1  2  1  0  0  0  0
  2  3  1  0  0  0  0
  3  4  2  0  0  0  0
  4  5  1  0  0  0  0
  5  6  2  0  0  0  0
  6  7  1  0  0  0  0
  2  7  2  0  0  0  0
  1  8  2  0  0  0  0
  1  9  1  0  0  0  0
  6 10  1  0  0  0  0
  5 11  1  0  0  0  0
  4 12  1  0  0  0  0
 14 15  1  0  0  0  0
 15 16  1  0  0  0  0
 16 17  1  0  0  0  0
 17 18  1  0  0  0  0
 18 19  1  0  0  0  0
 14 19  1  0  0  0  0
 19 20  1  1  0  0  0
 18 21  1  6  0  0  0
 17 22  1  1  0  0  0
 16 23  1  6  0  0  0
 15 13  1  1  0  0  0
  9 13  1  0  0  0  0
 24 25  1  0  0  0  0
 25 26  1  0  0  0  0
 26 27  2  0  0  0  0
 27 28  1  0  0  0  0
 28 29  2  0  0  0  0
 29 30  1  0  0  0  0
 25 30  2  0  0  0  0
 24 31  2  0  0  0  0
 29 32  1  0  0  0  0
 28 33  1  0  0  0  0
 27 34  1  0  0  0  0
 24 21  1  0  0  0  0
M  END
>  <cdx:groupId>
106

>  <cdx:fragmentId>
45

$$$$
