95360.cdx
  Mrv1902 05222410192D          

 23 25  0  0  0  0            999 V2000
    7.5268   -6.0188    0.0000 O   0  0  0  0  0  0  0  0  0  0  0  0
    6.8123   -6.4313    0.0000 C   0  0  1  0  0  0  0  0  0  0  0  0
    6.8123   -7.2563    0.0000 C   0  0  2  0  0  0  0  0  0  0  0  0
    7.5268   -7.6688    0.0000 O   0  0  0  0  0  0  0  0  0  0  0  0
    6.0979   -7.6688    0.0000 C   0  0  1  0  0  0  0  0  0  0  0  0
    6.0979   -8.4938    0.0000 O   0  0  0  0  0  0  0  0  0  0  0  0
    5.3834   -7.2563    0.0000 C   0  0  2  0  0  0  0  0  0  0  0  0
    4.6689   -7.6688    0.0000 O   0  0  0  0  0  0  0  0  0  0  0  0
    5.3834   -6.4313    0.0000 C   0  0  2  0  0  0  0  0  0  0  0  0
    6.0979   -6.0188    0.0000 O   0  0  0  0  0  0  0  0  0  0  0  0
    4.6689   -6.0188    0.0000 C   0  0  0  0  0  0  0  0  0  0  0  0
    3.9544   -6.4313    0.0000 O   0  0  0  0  0  0  0  0  0  0  0  0
    7.5411   -4.9559    0.0000 C   0  0  0  0  0  0  0  0  0  0  0  0
    8.0619   -4.4000    0.0000 C   0  0  0  0  0  0  0  0  0  0  0  0
    9.1619   -4.4275    0.0000 C   0  0  0  0  0  0  0  0  0  0  0  0
    9.0244   -3.6163    0.0000 C   0  0  0  0  0  0  0  0  0  0  0  0
    8.0619   -3.6025    0.0000 C   0  0  0  0  0  0  0  0  0  0  0  0
    7.1131   -4.5650    0.0000 C   0  0  0  0  0  0  0  0  0  0  0  0
    8.0589   -2.7858    0.0000 C   0  0  0  0  0  0  0  0  0  0  0  0
    6.7969   -3.4788    0.0000 C   0  0  0  0  0  0  0  0  0  0  0  0
    6.0824   -3.8912    0.0000 C   0  0  0  0  0  0  0  0  0  0  0  0
    6.0000   -3.2652    0.0000 C   0  0  0  0  0  0  0  0  0  0  0  0
    7.3056   -2.9288    0.0000 O   0  0  0  0  0  0  0  0  0  0  0  0
  2  1  1  1  0  0  0
  2  3  1  0  0  0  0
  3  4  1  6  0  0  0
  3  5  1  0  0  0  0
  5  6  1  1  0  0  0
  5  7  1  0  0  0  0
  7  8  1  6  0  0  0
  7  9  1  0  0  0  0
  9 10  1  0  0  0  0
  9 11  1  1  0  0  0
 11 12  1  0  0  0  0
  2 10  1  0  0  0  0
 13 14  1  0  0  0  0
 14 15  1  0  0  0  0
 15 16  1  0  0  0  0
 16 17  1  0  0  0  0
 17 18  1  0  0  0  0
 13 18  1  0  0  0  0
 17 19  1  0  0  0  0
 20 21  1  0  0  0  0
 20 22  1  0  0  0  0
 14 20  1  0  0  0  0
 17 23  1  0  0  0  0
 20 23  1  0  0  0  0
  1 13  1  0  0  0  0
M  END
>  <cdx:groupId>
73

>  <cdx:fragmentId>
3

$$$$
