95363.cdx
  Mrv1902 05222410202D          

 74 80  0  0  0  0            999 V2000
   12.2479   -7.6193    0.0000 C   0  0  0  0  0  0  0  0  0  0  0  0
   11.5335   -8.0318    0.0000 C   0  0  2  0  0  0  0  0  0  0  0  0
   11.5335   -8.8568    0.0000 C   0  0  1  0  0  0  0  0  0  0  0  0
   12.2479   -9.2693    0.0000 C   0  0  2  0  0  0  0  0  0  0  0  0
   12.9624   -8.8568    0.0000 C   0  0  2  0  0  0  0  0  0  0  0  0
   13.6769   -9.2693    0.0000 C   0  0  0  0  0  0  0  0  0  0  0  0
   14.3913   -8.8568    0.0000 C   0  0  0  0  0  0  0  0  0  0  0  0
   14.3913   -8.0318    0.0000 C   0  0  1  0  0  0  0  0  0  0  0  0
   15.1058   -7.6193    0.0000 C   0  0  2  0  0  0  0  0  0  0  0  0
   15.1058   -6.7943    0.0000 C   0  0  0  0  0  0  0  0  0  0  0  0
   14.3913   -6.3818    0.0000 C   0  0  0  0  0  0  0  0  0  0  0  0
   13.6769   -6.7943    0.0000 C   0  0  0  0  0  0  0  0  0  0  0  0
   13.6769   -7.6193    0.0000 C   0  0  2  0  0  0  0  0  0  0  0  0
   12.9624   -8.0318    0.0000 C   0  0  1  0  0  0  0  0  0  0  0  0
   15.1058   -8.4443    0.0000 C   0  0  0  0  0  0  0  0  0  0  0  0
   12.9624   -7.2068    0.0000 C   0  0  0  0  0  0  0  0  0  0  0  0
   14.3913   -7.2068    0.0000 C   0  0  0  0  0  0  0  0  0  0  0  0
   12.6604   -9.9838    0.0000 C   0  0  0  0  0  0  0  0  0  0  0  0
   11.8354   -9.9838    0.0000 C   0  0  0  0  0  0  0  0  0  0  0  0
   10.8190   -9.2693    0.0000 S   0  0  0  0  0  0  0  0  0  0  0  0
   11.2315   -9.9838    0.0000 O   0  0  0  0  0  0  0  0  0  0  0  0
   10.4065   -8.5548    0.0000 O   0  0  0  0  0  0  0  0  0  0  0  0
   10.1045   -9.6818    0.0000 O   0  5  0  0  0  0  0  0  0  0  0  0
   10.1045  -10.5068    0.0000 Na  0  3  0  0  0  0  0  0  0  0  0  0
   15.8203   -8.0318    0.0000 C   0  0  0  0  0  0  0  0  0  0  0  0
   16.5348   -7.6193    0.0000 C   0  0  0  0  0  0  0  0  0  0  0  0
   16.5348   -6.7943    0.0000 C   0  0  2  0  0  0  0  0  0  0  0  0
   15.8203   -6.3818    0.0000 C   0  0  1  0  0  0  0  0  0  0  0  0
   17.2492   -6.3818    0.0000 C   0  0  0  0  0  0  0  0  0  0  0  0
   17.2492   -5.5568    0.0000 C   0  0  0  0  0  0  0  0  0  0  0  0
   16.5348   -5.1443    0.0000 C   0  0  0  0  0  0  0  0  0  0  0  0
   15.8203   -5.5568    0.0000 C   0  0  0  0  0  0  0  0  0  0  0  0
   16.9473   -4.4298    0.0000 C   0  0  0  0  0  0  0  0  0  0  0  0
   16.1223   -4.4298    0.0000 C   0  0  0  0  0  0  0  0  0  0  0  0
   17.2492   -7.2068    0.0000 C   0  0  0  0  0  0  0  0  0  0  0  0
   17.2492   -8.0318    0.0000 O   0  0  0  0  0  0  0  0  0  0  0  0
   17.9637   -6.7943    0.0000 O   0  0  0  0  0  0  0  0  0  0  0  0
   12.9624   -9.6818    0.0000 H   0  0  0  0  0  0  0  0  0  0  0  0
   13.6769   -8.4443    0.0000 H   0  0  0  0  0  0  0  0  0  0  0  0
   15.1058   -5.9693    0.0000 H   0  0  0  0  0  0  0  0  0  0  0  0
   18.6782   -7.2068    0.0000 C   0  0  2  0  0  0  0  0  0  0  0  0
   18.6782   -8.0318    0.0000 O   0  0  0  0  0  0  0  0  0  0  0  0
   19.3926   -8.4443    0.0000 C   0  0  1  0  0  0  0  0  0  0  0  0
   20.1071   -8.0318    0.0000 C   0  0  2  0  0  0  0  0  0  0  0  0
   20.1071   -7.2068    0.0000 C   0  0  1  0  0  0  0  0  0  0  0  0
   19.3926   -6.7943    0.0000 C   0  0  1  0  0  0  0  0  0  0  0  0
   19.3926   -9.2693    0.0000 C   0  0  0  0  0  0  0  0  0  0  0  0
   20.8216   -6.7943    0.0000 O   0  0  0  0  0  0  0  0  0  0  0  0
   19.3926   -5.9693    0.0000 O   0  0  0  0  0  0  0  0  0  0  0  0
   20.8216   -8.4443    0.0000 O   0  0  0  0  0  0  0  0  0  0  0  0
   18.6782   -9.6818    0.0000 O   0  0  0  0  0  0  0  0  0  0  0  0
   18.6782  -10.5068    0.0000 C   0  0  2  0  0  0  0  0  0  0  0  0
   17.9637  -10.9193    0.0000 O   0  0  0  0  0  0  0  0  0  0  0  0
   17.9637  -11.7443    0.0000 C   0  0  1  0  0  0  0  0  0  0  0  0
   18.6782  -12.1568    0.0000 C   0  0  2  0  0  0  0  0  0  0  0  0
   19.3926  -11.7443    0.0000 C   0  0  1  0  0  0  0  0  0  0  0  0
   19.3926  -10.9193    0.0000 C   0  0  1  0  0  0  0  0  0  0  0  0
   17.2492  -12.1568    0.0000 C   0  0  0  0  0  0  0  0  0  0  0  0
   20.1071  -12.1568    0.0000 O   0  0  0  0  0  0  0  0  0  0  0  0
   20.1071  -10.5068    0.0000 O   0  0  0  0  0  0  0  0  0  0  0  0
   18.6782  -12.9818    0.0000 O   0  0  0  0  0  0  0  0  0  0  0  0
   17.2492  -12.9818    0.0000 O   0  0  0  0  0  0  0  0  0  0  0  0
   19.1157  -13.6813    0.0000 C   0  0  2  0  0  0  0  0  0  0  0  0
   18.7287  -14.4099    0.0000 O   0  0  0  0  0  0  0  0  0  0  0  0
   19.1662  -15.1093    0.0000 C   0  0  2  0  0  0  0  0  0  0  0  0
   19.9907  -15.0801    0.0000 C   0  0  1  0  0  0  0  0  0  0  0  0
   20.3777  -14.3515    0.0000 C   0  0  2  0  0  0  0  0  0  0  0  0
   19.9402  -13.6521    0.0000 C   0  0  1  0  0  0  0  0  0  0  0  0
   20.4282  -15.7796    0.0000 O   0  0  0  0  0  0  0  0  0  0  0  0
   21.2021  -14.3224    0.0000 O   0  0  0  0  0  0  0  0  0  0  0  0
   18.7792  -15.8379    0.0000 C   0  0  0  0  0  0  0  0  0  0  0  0
   20.3271  -12.9235    0.0000 O   0  0  0  0  0  0  0  0  0  0  0  0
   12.2479  -10.6983    0.0000 O   0  0  0  0  0  0  0  0  0  0  0  0
   10.8190   -7.6193    0.0000 O   0  0  0  0  0  0  0  0  0  0  0  0
  1  2  1  0  0  0  0
  2  3  1  0  0  0  0
  3  4  1  0  0  0  0
  4  5  1  0  0  0  0
  5  6  1  0  0  0  0
  6  7  1  0  0  0  0
  7  8  1  0  0  0  0
  8  9  1  0  0  0  0
  9 10  1  0  0  0  0
 10 11  2  0  0  0  0
 11 12  1  0  0  0  0
 12 13  1  0  0  0  0
  8 13  1  0  0  0  0
 13 14  1  0  0  0  0
  5 14  1  0  0  0  0
  1 14  1  0  0  0  0
  9 15  1  6  0  0  0
 14 16  1  1  0  0  0
  8 17  1  1  0  0  0
  4 18  1  6  0  0  0
  4 19  1  1  0  0  0
  3 20  1  1  0  0  0
  9 25  1  0  0  0  0
 25 26  1  0  0  0  0
 26 27  1  0  0  0  0
 27 28  1  0  0  0  0
 28 10  1  0  0  0  0
 27 29  1  0  0  0  0
 29 30  1  0  0  0  0
 30 31  1  0  0  0  0
 31 32  1  0  0  0  0
 32 28  1  0  0  0  0
 31 33  1  0  0  0  0
 31 34  1  0  0  0  0
 27 35  1  1  0  0  0
 35 36  2  0  0  0  0
 35 37  1  0  0  0  0
  5 38  1  6  0  0  0
 13 39  1  6  0  0  0
 28 40  1  1  0  0  0
 41 37  1  1  0  0  0
 41 42  1  0  0  0  0
 42 43  1  0  0  0  0
 43 44  1  0  0  0  0
 44 45  1  0  0  0  0
 45 46  1  0  0  0  0
 46 41  1  0  0  0  0
 43 47  1  1  0  0  0
 45 48  1  1  0  0  0
 46 49  1  6  0  0  0
 44 50  1  6  0  0  0
 47 51  1  0  0  0  0
 52 51  1  1  0  0  0
 52 53  1  0  0  0  0
 53 54  1  0  0  0  0
 54 55  1  0  0  0  0
 55 56  1  0  0  0  0
 56 57  1  0  0  0  0
 57 52  1  0  0  0  0
 54 58  1  1  0  0  0
 56 59  1  1  0  0  0
 57 60  1  6  0  0  0
 55 61  1  6  0  0  0
 58 62  1  0  0  0  0
 63 61  1  1  0  0  0
 63 64  1  0  0  0  0
 64 65  1  0  0  0  0
 65 66  1  0  0  0  0
 66 67  1  0  0  0  0
 67 68  1  0  0  0  0
 68 63  1  0  0  0  0
 66 69  1  1  0  0  0
 67 70  1  6  0  0  0
 65 71  1  6  0  0  0
 68 72  1  6  0  0  0
 18 73  1  0  0  0  0
  2 74  1  6  0  0  0
 20 21  2  0  0  0  0
 20 22  2  0  0  0  0
 20 23  1  0  0  0  0
M  CHG  2  23  -1  24   1
M  STY  1   1 SUP
M  SAL   1  5  20  21  22  23  24
M  SBL   1  1  22
M  SMT   1 SO3-Na\S+
M  SAP   1  1  20   3  1
M  END
>  <cdx:fragmentId>
31943

$$$$
