95366.cdx
  Mrv1902 05222410182D          

 37 41  0  0  0  0            999 V2000
    4.3172   -7.8184    0.0000 C   0  0  1  0  0  0  0  0  0  0  0  0
    4.3172   -8.6104    0.0000 C   0  0  1  0  0  0  0  0  0  0  0  0
    5.0031   -9.0064    0.0000 C   0  0  2  0  0  0  0  0  0  0  0  0
    5.6890   -8.6104    0.0000 C   0  0  1  0  0  0  0  0  0  0  0  0
    5.6890   -7.8184    0.0000 C   0  0  2  0  0  0  0  0  0  0  0  0
    5.0031   -7.4224    0.0000 C   0  0  0  0  0  0  0  0  0  0  0  0
    6.3749   -9.0064    0.0000 C   0  0  0  0  0  0  0  0  0  0  0  0
    7.0608   -8.6104    0.0000 C   0  0  0  0  0  0  0  0  0  0  0  0
    7.0608   -7.8184    0.0000 C   0  0  2  0  0  0  0  0  0  0  0  0
    6.3749   -7.4224    0.0000 C   0  0  2  0  0  0  0  0  0  0  0  0
    7.7467   -7.4224    0.0000 C   0  0  1  0  0  0  0  0  0  0  0  0
    7.7467   -6.6304    0.0000 C   0  0  0  0  0  0  0  0  0  0  0  0
    7.0608   -6.2344    0.0000 C   0  0  0  0  0  0  0  0  0  0  0  0
    6.3749   -6.6304    0.0000 C   0  0  0  0  0  0  0  0  0  0  0  0
    8.4326   -7.8184    0.0000 C   0  0  0  0  0  0  0  0  0  0  0  0
    9.1185   -7.4224    0.0000 C   0  0  0  0  0  0  0  0  0  0  0  0
    9.1185   -6.6304    0.0000 C   0  0  2  0  0  0  0  0  0  0  0  0
    8.4326   -6.2344    0.0000 C   0  0  1  0  0  0  0  0  0  0  0  0
    9.8044   -6.2344    0.0000 C   0  0  0  0  0  0  0  0  0  0  0  0
    9.8044   -5.4424    0.0000 C   0  0  0  0  0  0  0  0  0  0  0  0
    9.1185   -5.0464    0.0000 C   0  0  0  0  0  0  0  0  0  0  0  0
    8.4326   -5.4424    0.0000 C   0  0  0  0  0  0  0  0  0  0  0  0
    7.7467   -8.2144    0.0000 C   0  0  0  0  0  0  0  0  0  0  0  0
    6.3749   -8.2144    0.0000 H   0  0  0  0  0  0  0  0  0  0  0  0
    5.6890   -9.4024    0.0000 H   0  0  0  0  0  0  0  0  0  0  0  0
    5.4156   -9.7208    0.0000 C   0  0  0  0  0  0  0  0  0  0  0  0
    3.6313   -7.4224    0.0000 O   0  0  0  0  0  0  0  0  0  0  0  0
    3.6313   -9.0064    0.0000 O   0  0  0  0  0  0  0  0  0  0  0  0
    4.5906   -9.7208    0.0000 C   0  0  0  0  0  0  0  0  0  0  0  0
    5.6890   -7.0264    0.0000 C   0  0  0  0  0  0  0  0  0  0  0  0
    7.0608   -7.0264    0.0000 C   0  0  0  0  0  0  0  0  0  0  0  0
    7.7181   -5.8219    0.0000 H   0  0  0  0  0  0  0  0  0  0  0  0
   10.4903   -6.6304    0.0000 O   0  0  0  0  0  0  0  0  0  0  0  0
    9.8044   -7.8184    0.0000 O   0  0  0  0  0  0  0  0  0  0  0  0
    9.8044   -7.0264    0.0000 C   0  0  0  0  0  0  0  0  0  0  0  0
    9.1185   -4.3534    0.0000 C   0  0  0  0  0  0  0  0  0  0  0  0
    5.0031  -10.4353    0.0000 O   0  0  0  0  0  0  0  0  0  0  0  0
  1  2  1  0  0  0  0
  2  3  1  0  0  0  0
  3  4  1  0  0  0  0
  4  5  1  0  0  0  0
  5  6  1  0  0  0  0
  6  1  1  0  0  0  0
  4  7  1  0  0  0  0
  7  8  1  0  0  0  0
  8  9  1  0  0  0  0
  9 10  1  0  0  0  0
 10  5  1  0  0  0  0
  9 11  1  0  0  0  0
 11 12  1  0  0  0  0
 12 13  2  0  0  0  0
 13 14  1  0  0  0  0
 14 10  1  0  0  0  0
 11 15  1  0  0  0  0
 15 16  1  0  0  0  0
 16 17  1  0  0  0  0
 17 18  1  0  0  0  0
 18 12  1  0  0  0  0
 17 19  1  0  0  0  0
 19 20  1  0  0  0  0
 20 21  1  0  0  0  0
 21 22  1  0  0  0  0
 22 18  1  0  0  0  0
 11 23  1  6  0  0  0
 10 24  1  6  0  0  0
  4 25  1  6  0  0  0
  3 26  1  6  0  0  0
  1 27  1  6  0  0  0
  2 28  1  1  0  0  0
  3 29  1  1  0  0  0
  5 30  1  1  0  0  0
  9 31  1  1  0  0  0
 18 32  1  1  0  0  0
 35 33  1  0  0  0  0
 17 35  1  1  0  0  0
 35 34  2  0  0  0  0
 21 36  2  0  0  0  0
 26 37  1  0  0  0  0
M  END
>  <cdx:fragmentId>
5

$$$$
