95361.cdx
  Mrv1902 05222410192D          

 19 19  0  0  0  0            999 V2000
    6.9879   -7.1791    0.0000 O   0  0  0  0  0  0  0  0  0  0  0  0
    6.2734   -7.5916    0.0000 C   0  0  1  0  0  0  0  0  0  0  0  0
    6.2734   -8.4166    0.0000 C   0  0  2  0  0  0  0  0  0  0  0  0
    6.9879   -8.8291    0.0000 O   0  0  0  0  0  0  0  0  0  0  0  0
    5.5590   -8.8291    0.0000 C   0  0  1  0  0  0  0  0  0  0  0  0
    5.5590   -9.6541    0.0000 O   0  0  0  0  0  0  0  0  0  0  0  0
    4.8445   -8.4166    0.0000 C   0  0  2  0  0  0  0  0  0  0  0  0
    4.1300   -8.8291    0.0000 O   0  0  0  0  0  0  0  0  0  0  0  0
    4.8445   -7.5916    0.0000 C   0  0  2  0  0  0  0  0  0  0  0  0
    5.5590   -7.1791    0.0000 O   0  0  0  0  0  0  0  0  0  0  0  0
    4.1300   -7.1791    0.0000 C   0  0  0  0  0  0  0  0  0  0  0  0
    3.4155   -7.5916    0.0000 O   0  0  0  0  0  0  0  0  0  0  0  0
    7.7024   -8.4166    0.0000 C   0  0  0  0  0  0  0  0  0  0  0  0
    7.7024   -7.5916    0.0000 C   0  0  0  0  0  0  0  0  0  0  0  0
    8.4168   -7.1791    0.0000 C   0  0  0  0  0  0  0  0  0  0  0  0
    9.1313   -7.5916    0.0000 C   0  0  0  0  0  0  0  0  0  0  0  0
    9.8458   -7.1791    0.0000 C   0  0  0  0  0  0  0  0  0  0  0  0
   10.5603   -7.5916    0.0000 C   0  0  0  0  0  0  0  0  0  0  0  0
   11.2747   -7.1791    0.0000 C   0  0  0  0  0  0  0  0  0  0  0  0
  2  1  1  1  0  0  0
  2  3  1  0  0  0  0
  3  4  1  6  0  0  0
  3  5  1  0  0  0  0
  5  6  1  1  0  0  0
  5  7  1  0  0  0  0
  7  8  1  6  0  0  0
  7  9  1  0  0  0  0
  9 10  1  0  0  0  0
  9 11  1  1  0  0  0
 11 12  1  0  0  0  0
  2 10  1  0  0  0  0
 13 14  1  0  0  0  0
 14 15  1  0  0  0  0
 15 16  1  0  0  0  0
 16 17  1  0  0  0  0
 17 18  1  0  0  0  0
 18 19  1  0  0  0  0
  1 14  1  0  0  0  0
M  END
>  <cdx:groupId>
59

>  <cdx:fragmentId>
3

$$$$
