95370.cdx
  Mrv1902 05222410192D          

 87 96  0  0  0  0            999 V2000
   12.2479   -7.6193    0.0000 C   0  0  0  0  0  0  0  0  0  0  0  0
   11.5335   -8.0318    0.0000 C   0  0  0  0  0  0  0  0  0  0  0  0
   11.5335   -8.8568    0.0000 C   0  0  1  0  0  0  0  0  0  0  0  0
   12.2479   -9.2693    0.0000 C   0  0  0  0  0  0  0  0  0  0  0  0
   12.9624   -8.8568    0.0000 C   0  0  2  0  0  0  0  0  0  0  0  0
   13.6769   -9.2693    0.0000 C   0  0  0  0  0  0  0  0  0  0  0  0
   14.3913   -8.8568    0.0000 C   0  0  0  0  0  0  0  0  0  0  0  0
   14.3913   -8.0318    0.0000 C   0  0  1  0  0  0  0  0  0  0  0  0
   15.1058   -7.6193    0.0000 C   0  0  2  0  0  0  0  0  0  0  0  0
   15.1058   -6.7943    0.0000 C   0  0  0  0  0  0  0  0  0  0  0  0
   14.3913   -6.3818    0.0000 C   0  0  0  0  0  0  0  0  0  0  0  0
   13.6769   -6.7943    0.0000 C   0  0  0  0  0  0  0  0  0  0  0  0
   13.6769   -7.6193    0.0000 C   0  0  2  0  0  0  0  0  0  0  0  0
   12.9624   -8.0318    0.0000 C   0  0  1  0  0  0  0  0  0  0  0  0
   15.1058   -8.4443    0.0000 C   0  0  0  0  0  0  0  0  0  0  0  0
   12.9624   -7.2068    0.0000 C   0  0  0  0  0  0  0  0  0  0  0  0
   14.3913   -7.2068    0.0000 C   0  0  0  0  0  0  0  0  0  0  0  0
   12.6604   -9.9838    0.0000 C   0  0  0  0  0  0  0  0  0  0  0  0
   11.8354   -9.9838    0.0000 C   0  0  0  0  0  0  0  0  0  0  0  0
   10.8190   -9.2693    0.0000 O   0  0  0  0  0  0  0  0  0  0  0  0
   15.8203   -8.0318    0.0000 C   0  0  0  0  0  0  0  0  0  0  0  0
   16.5348   -7.6193    0.0000 C   0  0  0  0  0  0  0  0  0  0  0  0
   16.5348   -6.7943    0.0000 C   0  0  2  0  0  0  0  0  0  0  0  0
   15.8203   -6.3818    0.0000 C   0  0  1  0  0  0  0  0  0  0  0  0
   17.2492   -6.3818    0.0000 C   0  0  0  0  0  0  0  0  0  0  0  0
   17.2492   -5.5568    0.0000 C   0  0  0  0  0  0  0  0  0  0  0  0
   16.5348   -5.1443    0.0000 C   0  0  0  0  0  0  0  0  0  0  0  0
   15.8203   -5.5568    0.0000 C   0  0  0  0  0  0  0  0  0  0  0  0
   16.9473   -4.4298    0.0000 C   0  0  0  0  0  0  0  0  0  0  0  0
   16.1223   -4.4298    0.0000 C   0  0  0  0  0  0  0  0  0  0  0  0
   17.2492   -7.2068    0.0000 C   0  0  0  0  0  0  0  0  0  0  0  0
   17.2492   -8.0318    0.0000 O   0  0  0  0  0  0  0  0  0  0  0  0
   17.9637   -6.7943    0.0000 O   0  0  0  0  0  0  0  0  0  0  0  0
   12.9624   -9.6818    0.0000 H   0  0  0  0  0  0  0  0  0  0  0  0
   13.6769   -8.4443    0.0000 H   0  0  0  0  0  0  0  0  0  0  0  0
   15.1058   -5.9693    0.0000 H   0  0  0  0  0  0  0  0  0  0  0  0
   10.1045   -8.8568    0.0000 C   0  0  2  0  0  0  0  0  0  0  0  0
   10.1045   -8.0318    0.0000 O   0  0  0  0  0  0  0  0  0  0  0  0
    9.3901   -7.6193    0.0000 C   0  0  0  0  0  0  0  0  0  0  0  0
    8.6756   -8.0318    0.0000 C   0  0  1  0  0  0  0  0  0  0  0  0
    8.6756   -8.8568    0.0000 C   0  0  1  0  0  0  0  0  0  0  0  0
    9.3901   -9.2693    0.0000 C   0  0  1  0  0  0  0  0  0  0  0  0
    9.3901  -10.0943    0.0000 O   0  0  0  0  0  0  0  0  0  0  0  0
    7.9611   -9.2693    0.0000 O   0  0  0  0  0  0  0  0  0  0  0  0
    7.9611   -7.6193    0.0000 O   0  0  0  0  0  0  0  0  0  0  0  0
    8.6756  -10.5068    0.0000 C   0  0  2  0  0  0  0  0  0  0  0  0
    7.9611  -10.0943    0.0000 O   0  0  0  0  0  0  0  0  0  0  0  0
    7.2466  -10.5068    0.0000 C   0  0  2  0  0  0  0  0  0  0  0  0
    7.2466  -11.3318    0.0000 C   0  0  1  0  0  0  0  0  0  0  0  0
    7.9611  -11.7443    0.0000 C   0  0  2  0  0  0  0  0  0  0  0  0
    8.6756  -11.3318    0.0000 C   0  0  1  0  0  0  0  0  0  0  0  0
    6.5322  -11.7443    0.0000 O   0  0  0  0  0  0  0  0  0  0  0  0
    6.5322  -10.0943    0.0000 C   0  0  0  0  0  0  0  0  0  0  0  0
    7.9611  -12.5693    0.0000 O   0  0  0  0  0  0  0  0  0  0  0  0
    9.3901  -11.7443    0.0000 O   0  0  0  0  0  0  0  0  0  0  0  0
   18.6782   -7.2068    0.0000 C   0  0  2  0  0  0  0  0  0  0  0  0
   18.6782   -8.0318    0.0000 O   0  0  0  0  0  0  0  0  0  0  0  0
   19.3926   -8.4443    0.0000 C   0  0  1  0  0  0  0  0  0  0  0  0
   20.1071   -8.0318    0.0000 C   0  0  2  0  0  0  0  0  0  0  0  0
   20.1071   -7.2068    0.0000 C   0  0  1  0  0  0  0  0  0  0  0  0
   19.3926   -6.7943    0.0000 C   0  0  1  0  0  0  0  0  0  0  0  0
   19.3926   -9.2693    0.0000 C   0  0  0  0  0  0  0  0  0  0  0  0
   20.8216   -6.7943    0.0000 O   0  0  0  0  0  0  0  0  0  0  0  0
   19.3926   -5.9693    0.0000 O   0  0  0  0  0  0  0  0  0  0  0  0
   20.8216   -8.4443    0.0000 O   0  0  0  0  0  0  0  0  0  0  0  0
   18.6782   -9.6818    0.0000 O   0  0  0  0  0  0  0  0  0  0  0  0
   18.6782  -10.5068    0.0000 C   0  0  2  0  0  0  0  0  0  0  0  0
   17.9637  -10.9193    0.0000 O   0  0  0  0  0  0  0  0  0  0  0  0
   17.9637  -11.7443    0.0000 C   0  0  1  0  0  0  0  0  0  0  0  0
   18.6782  -12.1568    0.0000 C   0  0  2  0  0  0  0  0  0  0  0  0
   19.3926  -11.7443    0.0000 C   0  0  1  0  0  0  0  0  0  0  0  0
   19.3926  -10.9193    0.0000 C   0  0  1  0  0  0  0  0  0  0  0  0
   17.2492  -12.1568    0.0000 C   0  0  0  0  0  0  0  0  0  0  0  0
   20.1071  -12.1568    0.0000 O   0  0  0  0  0  0  0  0  0  0  0  0
   20.1071  -10.5068    0.0000 O   0  0  0  0  0  0  0  0  0  0  0  0
   18.6782  -12.9818    0.0000 O   0  0  0  0  0  0  0  0  0  0  0  0
   17.2492  -12.9818    0.0000 O   0  0  0  0  0  0  0  0  0  0  0  0
   19.1157  -13.6813    0.0000 C   0  0  2  0  0  0  0  0  0  0  0  0
   18.7287  -14.4099    0.0000 O   0  0  0  0  0  0  0  0  0  0  0  0
   19.1662  -15.1093    0.0000 C   0  0  2  0  0  0  0  0  0  0  0  0
   19.9907  -15.0801    0.0000 C   0  0  1  0  0  0  0  0  0  0  0  0
   20.3777  -14.3515    0.0000 C   0  0  2  0  0  0  0  0  0  0  0  0
   19.9402  -13.6521    0.0000 C   0  0  1  0  0  0  0  0  0  0  0  0
   20.4282  -15.7796    0.0000 O   0  0  0  0  0  0  0  0  0  0  0  0
   21.2021  -14.3224    0.0000 O   0  0  0  0  0  0  0  0  0  0  0  0
   18.7792  -15.8379    0.0000 C   0  0  0  0  0  0  0  0  0  0  0  0
   20.3271  -12.9235    0.0000 O   0  0  0  0  0  0  0  0  0  0  0  0
  1  2  1  0  0  0  0
  2  3  1  0  0  0  0
  3  4  1  0  0  0  0
  4  5  1  0  0  0  0
  5  6  1  0  0  0  0
  6  7  1  0  0  0  0
  7  8  1  0  0  0  0
  8  9  1  0  0  0  0
  9 10  1  0  0  0  0
 10 11  2  0  0  0  0
 11 12  1  0  0  0  0
 12 13  1  0  0  0  0
  8 13  1  0  0  0  0
 13 14  1  0  0  0  0
  5 14  1  0  0  0  0
  1 14  1  0  0  0  0
  9 15  1  6  0  0  0
 14 16  1  1  0  0  0
  8 17  1  1  0  0  0
  4 18  1  0  0  0  0
  4 19  1  0  0  0  0
  3 20  1  1  0  0  0
  9 21  1  0  0  0  0
 21 22  1  0  0  0  0
 22 23  1  0  0  0  0
 23 24  1  0  0  0  0
 24 10  1  0  0  0  0
 23 25  1  0  0  0  0
 25 26  1  0  0  0  0
 26 27  1  0  0  0  0
 27 28  1  0  0  0  0
 28 24  1  0  0  0  0
 27 29  1  0  0  0  0
 27 30  1  0  0  0  0
 23 31  1  1  0  0  0
 31 32  2  0  0  0  0
 31 33  1  0  0  0  0
  5 34  1  6  0  0  0
 13 35  1  6  0  0  0
 24 36  1  1  0  0  0
 37 20  1  1  0  0  0
 37 38  1  0  0  0  0
 38 39  1  0  0  0  0
 39 40  1  0  0  0  0
 40 41  1  0  0  0  0
 41 42  1  0  0  0  0
 42 37  1  0  0  0  0
 42 43  1  6  0  0  0
 41 44  1  1  0  0  0
 40 45  1  1  0  0  0
 46 43  1  1  0  0  0
 46 47  1  0  0  0  0
 47 48  1  0  0  0  0
 48 49  1  0  0  0  0
 49 50  1  0  0  0  0
 50 51  1  0  0  0  0
 51 46  1  0  0  0  0
 49 52  1  1  0  0  0
 48 53  1  6  0  0  0
 50 54  1  6  0  0  0
 51 55  1  6  0  0  0
 56 33  1  1  0  0  0
 56 57  1  0  0  0  0
 57 58  1  0  0  0  0
 58 59  1  0  0  0  0
 59 60  1  0  0  0  0
 60 61  1  0  0  0  0
 61 56  1  0  0  0  0
 58 62  1  1  0  0  0
 60 63  1  1  0  0  0
 61 64  1  6  0  0  0
 59 65  1  6  0  0  0
 62 66  1  0  0  0  0
 67 66  1  1  0  0  0
 67 68  1  0  0  0  0
 68 69  1  0  0  0  0
 69 70  1  0  0  0  0
 70 71  1  0  0  0  0
 71 72  1  0  0  0  0
 72 67  1  0  0  0  0
 69 73  1  1  0  0  0
 71 74  1  1  0  0  0
 72 75  1  6  0  0  0
 70 76  1  6  0  0  0
 73 77  1  0  0  0  0
 78 76  1  1  0  0  0
 78 79  1  0  0  0  0
 79 80  1  0  0  0  0
 80 81  1  0  0  0  0
 81 82  1  0  0  0  0
 82 83  1  0  0  0  0
 83 78  1  0  0  0  0
 81 84  1  1  0  0  0
 82 85  1  6  0  0  0
 80 86  1  6  0  0  0
 83 87  1  6  0  0  0
M  END
>  <cdx:fragmentId>
31943

$$$$
