95376.cdx
  Mrv1902 05222410202D          

 11 11  0  0  0  0            999 V2000
    2.2405   -1.6786    0.0000 C   0  0  0  0  0  0  0  0  0  0  0  0
    2.9549   -2.0911    0.0000 C   0  0  0  0  0  0  0  0  0  0  0  0
    3.6694   -1.6786    0.0000 C   0  0  0  0  0  0  0  0  0  0  0  0
    4.3839   -2.0911    0.0000 C   0  0  0  0  0  0  0  0  0  0  0  0
    4.3839   -2.9161    0.0000 C   0  0  0  0  0  0  0  0  0  0  0  0
    3.6694   -3.3286    0.0000 C   0  0  0  0  0  0  0  0  0  0  0  0
    2.9549   -2.9161    0.0000 C   0  0  0  0  0  0  0  0  0  0  0  0
    5.0984   -3.3286    0.0000 C   0  0  0  0  0  0  0  0  0  0  0  0
    5.8128   -2.9161    0.0000 C   0  0  0  0  0  0  0  0  0  0  0  0
    5.0984   -4.1536    0.0000 C   0  0  0  0  0  0  0  0  0  0  0  0
    6.5273   -3.3286    0.0000 O   0  0  0  0  0  0  0  0  0  0  0  0
  1  2  1  0  0  0  0
  2  3  1  0  0  0  0
  3  4  2  0  0  0  0
  4  5  1  0  0  0  0
  5  6  2  0  0  0  0
  6  7  1  0  0  0  0
  2  7  2  0  0  0  0
  8  9  1  0  0  0  0
  8 10  1  0  0  0  0
  5  8  1  0  0  0  0
  9 11  1  0  0  0  0
M  END
>  <cdx:groupId>
35

>  <cdx:fragmentId>
5

$$$$
