953776.cdx
  Mrv1902 05222410212D          

 30 31  0  0  0  0            999 V2000
    8.9869   -9.3137    0.0000 C   0  0  0  0  0  0  0  0  0  0  0  0
    8.2725   -8.9012    0.0000 C   0  0  1  0  0  0  0  0  0  0  0  0
    8.2725   -8.0762    0.0000 C   0  0  0  0  0  0  0  0  0  0  0  0
    8.9869  -10.1387    0.0000 O   0  0  0  0  0  0  0  0  0  0  0  0
    9.7014   -8.9012    0.0000 O   0  0  0  0  0  0  0  0  0  0  0  0
    7.5580   -9.3137    0.0000 O   0  0  0  0  0  0  0  0  0  0  0  0
    6.8435   -8.9012    0.0000 C   0  0  0  0  0  0  0  0  0  0  0  0
    6.1290   -9.3137    0.0000 C   0  0  0  0  0  0  0  0  0  0  0  0
    5.4146   -8.9012    0.0000 C   0  0  0  0  0  0  0  0  0  0  0  0
    6.8435   -8.0762    0.0000 O   0  0  0  0  0  0  0  0  0  0  0  0
    4.7001   -9.3137    0.0000 C   0  0  0  0  0  0  0  0  0  0  0  0
    3.9856   -8.9012    0.0000 C   0  0  0  0  0  0  0  0  0  0  0  0
    3.2712   -9.3137    0.0000 C   0  0  0  0  0  0  0  0  0  0  0  0
    3.2712  -10.1387    0.0000 C   0  0  0  0  0  0  0  0  0  0  0  0
    3.9856  -10.5512    0.0000 C   0  0  0  0  0  0  0  0  0  0  0  0
    4.7001  -10.1387    0.0000 C   0  0  0  0  0  0  0  0  0  0  0  0
    2.5567  -10.5512    0.0000 O   0  0  0  0  0  0  0  0  0  0  0  0
    2.5567   -8.9012    0.0000 O   0  0  0  0  0  0  0  0  0  0  0  0
    8.9869   -7.6637    0.0000 C   0  0  0  0  0  0  0  0  0  0  0  0
    9.7014   -8.0762    0.0000 C   0  0  0  0  0  0  0  0  0  0  0  0
   10.4159   -7.6637    0.0000 C   0  0  0  0  0  0  0  0  0  0  0  0
   10.4159   -6.8387    0.0000 C   0  0  0  0  0  0  0  0  0  0  0  0
    9.7014   -6.4262    0.0000 C   0  0  0  0  0  0  0  0  0  0  0  0
    8.9869   -6.8387    0.0000 C   0  0  0  0  0  0  0  0  0  0  0  0
   11.1303   -6.4262    0.0000 O   0  0  0  0  0  0  0  0  0  0  0  0
   11.1303   -8.0762    0.0000 O   0  0  0  0  0  0  0  0  0  0  0  0
   10.4159   -9.3137    0.0000 C   0  0  0  0  0  0  0  0  0  0  0  0
   11.1303   -8.9012    0.0000 C   0  0  0  0  0  0  0  0  0  0  0  0
   11.8448   -9.3137    0.0000 C   0  0  0  0  0  0  0  0  0  0  0  0
   12.5593   -8.9012    0.0000 C   0  0  0  0  0  0  0  0  0  0  0  0
  1  2  1  0  0  0  0
  2  3  1  6  0  0  0
  1  4  2  0  0  0  0
  1  5  1  0  0  0  0
  7  8  1  0  0  0  0
  8  9  2  0  0  0  0
  7 10  2  0  0  0  0
 11 12  1  0  0  0  0
 12 13  2  0  0  0  0
 13 14  1  0  0  0  0
 14 15  2  0  0  0  0
 15 16  1  0  0  0  0
 11 16  2  0  0  0  0
 14 17  1  0  0  0  0
 13 18  1  0  0  0  0
  9 11  1  0  0  0  0
  6  7  1  0  0  0  0
  2  6  1  0  0  0  0
 19 20  1  0  0  0  0
 20 21  2  0  0  0  0
 21 22  1  0  0  0  0
 22 23  2  0  0  0  0
 23 24  1  0  0  0  0
 19 24  2  0  0  0  0
 22 25  1  0  0  0  0
 21 26  1  0  0  0  0
  3 19  1  0  0  0  0
 27 28  1  0  0  0  0
 28 29  1  0  0  0  0
 29 30  1  0  0  0  0
  5 27  1  0  0  0  0
M  END
>  <cdx:groupId>
83196

>  <cdx:fragmentId>
83128

$$$$
