95379.cdx
  Mrv1902 05222410272D          

 23 23  0  0  0  0            999 V2000
    7.0381   -5.1975    0.0000 C   0  0  0  0  0  0  0  0  0  0  0  0
    7.0381   -6.0225    0.0000 C   0  0  0  0  0  0  0  0  0  0  0  0
    7.7525   -6.4350    0.0000 C   0  0  2  0  0  0  0  0  0  0  0  0
    8.4670   -6.0225    0.0000 C   0  0  0  0  0  0  0  0  0  0  0  0
    8.4670   -5.1975    0.0000 C   0  0  0  0  0  0  0  0  0  0  0  0
    7.7525   -4.7850    0.0000 C   0  0  0  0  0  0  0  0  0  0  0  0
    7.7525   -3.9600    0.0000 C   0  0  0  0  0  0  0  0  0  0  0  0
    7.0381   -3.5475    0.0000 C   0  0  0  0  0  0  0  0  0  0  0  0
    8.4670   -3.5475    0.0000 C   0  0  0  0  0  0  0  0  0  0  0  0
    6.3236   -3.9600    0.0000 O   0  0  0  0  0  0  0  0  0  0  0  0
    7.0381   -2.7225    0.0000 O   0  0  0  0  0  0  0  0  0  0  0  0
    7.1692   -7.0184    0.0000 O   0  0  0  0  0  0  0  0  0  0  0  0
    8.3359   -7.0184    0.0000 C   0  0  0  0  0  0  0  0  0  0  0  0
    6.4453   -7.4142    0.0000 C   0  0  2  0  0  0  0  0  0  0  0  0
    5.7406   -6.9853    0.0000 O   0  0  0  0  0  0  0  0  0  0  0  0
    5.0168   -7.3811    0.0000 C   0  0  1  0  0  0  0  0  0  0  0  0
    4.9977   -8.2059    0.0000 C   0  0  2  0  0  0  0  0  0  0  0  0
    5.7024   -8.6348    0.0000 C   0  0  1  0  0  0  0  0  0  0  0  0
    6.4262   -8.2390    0.0000 C   0  0  1  0  0  0  0  0  0  0  0  0
    5.6833   -9.4596    0.0000 O   0  0  0  0  0  0  0  0  0  0  0  0
    4.3120   -6.9522    0.0000 C   0  0  0  0  0  0  0  0  0  0  0  0
    4.2738   -8.6017    0.0000 O   0  0  0  0  0  0  0  0  0  0  0  0
    7.1309   -8.6679    0.0000 O   0  0  0  0  0  0  0  0  0  0  0  0
  1  2  2  0  0  0  0
  2  3  1  0  0  0  0
  3  4  1  0  0  0  0
  4  5  1  0  0  0  0
  5  6  1  0  0  0  0
  6  7  2  0  0  0  0
  7  8  1  0  0  0  0
  7  9  1  0  0  0  0
  8 10  1  0  0  0  0
  8 11  2  0  0  0  0
  3 12  1  6  0  0  0
  3 13  1  1  0  0  0
 14 12  1  1  0  0  0
 14 15  1  0  0  0  0
 15 16  1  0  0  0  0
 16 17  1  0  0  0  0
 17 18  1  0  0  0  0
 18 19  1  0  0  0  0
 19 14  1  0  0  0  0
 18 20  1  1  0  0  0
 16 21  1  1  0  0  0
 17 22  1  6  0  0  0
 19 23  1  6  0  0  0
M  END
>  <cdx:fragmentId>
5

$$$$
