95382.cdx
  Mrv1902 05222410272D          

 29 28  0  0  0  0            999 V2000
   12.9114   -8.6229    0.0000 C   0  0  0  0  0  0  0  0  0  0  0  0
   12.1969   -8.2104    0.0000 C   0  0  0  0  0  0  0  0  0  0  0  0
   11.4825   -8.6229    0.0000 C   0  0  0  0  0  0  0  0  0  0  0  0
   10.7680   -8.2104    0.0000 C   0  0  0  0  0  0  0  0  0  0  0  0
   10.0535   -8.6229    0.0000 C   0  0  0  0  0  0  0  0  0  0  0  0
    9.3391   -8.2104    0.0000 C   0  0  0  0  0  0  0  0  0  0  0  0
    8.6246   -8.6229    0.0000 C   0  0  0  0  0  0  0  0  0  0  0  0
    7.9101   -8.2104    0.0000 C   0  0  0  0  0  0  0  0  0  0  0  0
    7.1956   -8.6229    0.0000 C   0  0  0  0  0  0  0  0  0  0  0  0
    6.4812   -8.2104    0.0000 C   0  0  0  0  0  0  0  0  0  0  0  0
    5.7667   -8.6229    0.0000 C   0  0  0  0  0  0  0  0  0  0  0  0
    5.0522   -9.0354    0.0000 C   0  0  0  0  0  0  0  0  0  0  0  0
    4.3378   -9.4479    0.0000 C   0  0  0  0  0  0  0  0  0  0  0  0
    3.6233   -9.8604    0.0000 C   0  0  0  0  0  0  0  0  0  0  0  0
    2.9088  -10.2729    0.0000 C   0  0  0  0  0  0  0  0  0  0  0  0
    2.1944   -9.8604    0.0000 C   0  0  0  0  0  0  0  0  0  0  0  0
    1.4799  -10.2729    0.0000 C   0  0  0  0  0  0  0  0  0  0  0  0
    6.4812   -7.3854    0.0000 O   0  0  0  0  0  0  0  0  0  0  0  0
    5.7667   -6.9729    0.0000 C   0  0  0  0  0  0  0  0  0  0  0  0
    5.7667   -6.1479    0.0000 O   0  0  0  0  0  0  0  0  0  0  0  0
    5.0522   -7.3854    0.0000 C   0  0  0  0  0  0  0  0  0  0  0  0
    7.1956   -9.4479    0.0000 O   0  0  0  0  0  0  0  0  0  0  0  0
    6.4812   -9.8604    0.0000 C   0  0  0  0  0  0  0  0  0  0  0  0
    6.4812  -10.6854    0.0000 O   0  0  0  0  0  0  0  0  0  0  0  0
    5.7667   -9.4479    0.0000 C   0  0  0  0  0  0  0  0  0  0  0  0
    7.9101   -7.3854    0.0000 O   0  0  0  0  0  0  0  0  0  0  0  0
    8.6246   -6.9729    0.0000 C   0  0  0  0  0  0  0  0  0  0  0  0
    8.6246   -6.1479    0.0000 O   0  0  0  0  0  0  0  0  0  0  0  0
    9.3391   -7.3854    0.0000 C   0  0  0  0  0  0  0  0  0  0  0  0
  1  2  2  0  0  0  0
  2  3  1  0  0  0  0
  3  4  1  0  0  0  0
  4  5  1  0  0  0  0
  5  6  1  0  0  0  0
  6  7  1  0  0  0  0
  7  8  1  0  0  0  0
  8  9  1  0  0  0  0
  9 10  1  0  0  0  0
 10 11  1  0  0  0  0
 11 12  3  0  0  0  0
 12 13  1  0  0  0  0
 13 14  3  0  0  0  0
 14 15  1  0  0  0  0
 15 16  1  0  0  0  0
 16 17  1  0  0  0  0
 19 20  2  0  0  0  0
 19 21  1  0  0  0  0
 18 19  1  0  0  0  0
 10 18  1  0  0  0  0
 23 24  2  0  0  0  0
 23 25  1  0  0  0  0
 22 23  1  0  0  0  0
  9 22  1  0  0  0  0
 27 28  2  0  0  0  0
 27 29  1  0  0  0  0
 26 27  1  0  0  0  0
  8 26  1  0  0  0  0
M  END
>  <cdx:groupId>
88

>  <cdx:fragmentId>
5

$$$$
