95380.cdx
  Mrv1902 05222410282D          

 31 33  0  0  0  0            999 V2000
    6.7473   -7.9347    0.0000 C   0  0  0  0  0  0  0  0  0  0  0  0
    6.9919   -8.7226    0.0000 C   0  0  0  0  0  0  0  0  0  0  0  0
    7.8168   -8.7335    0.0000 C   0  0  0  0  0  0  0  0  0  0  0  0
    8.0821   -7.9523    0.0000 C   0  0  0  0  0  0  0  0  0  0  0  0
    7.4211   -7.4586    0.0000 O   0  0  0  0  0  0  0  0  0  0  0  0
    6.4982   -9.3836    0.0000 C   0  0  0  0  0  0  0  0  0  0  0  0
    8.2929   -9.4073    0.0000 C   0  0  0  0  0  0  0  0  0  0  0  0
    7.9474  -10.1565    0.0000 O   0  0  0  0  0  0  0  0  0  0  0  0
    8.8700   -7.7077    0.0000 C   0  0  0  0  0  0  0  0  0  0  0  0
    6.8238  -10.1416    0.0000 O   0  0  0  0  0  0  0  0  0  0  0  0
    5.6789   -9.2865    0.0000 C   0  0  0  0  0  0  0  0  0  0  0  0
    9.4758   -8.2678    0.0000 C   0  0  0  0  0  0  0  0  0  0  0  0
   10.2637   -8.0233    0.0000 C   0  0  0  0  0  0  0  0  0  0  0  0
   10.4459   -7.2186    0.0000 C   0  0  0  0  0  0  0  0  0  0  0  0
    9.8401   -6.6585    0.0000 C   0  0  0  0  0  0  0  0  0  0  0  0
    9.0522   -6.9031    0.0000 C   0  0  0  0  0  0  0  0  0  0  0  0
    5.3534   -8.5285    0.0000 C   0  0  0  0  0  0  0  0  0  0  0  0
    4.5341   -8.4314    0.0000 C   0  0  0  0  0  0  0  0  0  0  0  0
    4.0404   -9.0924    0.0000 C   0  0  0  0  0  0  0  0  0  0  0  0
    4.3660   -9.8505    0.0000 C   0  0  0  0  0  0  0  0  0  0  0  0
    5.1853   -9.9475    0.0000 C   0  0  0  0  0  0  0  0  0  0  0  0
   10.0223   -5.8539    0.0000 O   0  0  0  0  0  0  0  0  0  0  0  0
    9.4165   -5.2938    0.0000 C   0  0  0  0  0  0  0  0  0  0  0  0
   11.2338   -6.9741    0.0000 O   0  0  0  0  0  0  0  0  0  0  0  0
   10.8695   -8.5833    0.0000 O   0  0  0  0  0  0  0  0  0  0  0  0
   11.6574   -8.3388    0.0000 C   0  0  0  0  0  0  0  0  0  0  0  0
    4.2085   -7.6734    0.0000 O   0  0  0  0  0  0  0  0  0  0  0  0
    4.7022   -7.0124    0.0000 C   0  0  0  0  0  0  0  0  0  0  0  0
    3.2211   -8.9954    0.0000 O   0  0  0  0  0  0  0  0  0  0  0  0
    3.8723  -10.5114    0.0000 O   0  0  0  0  0  0  0  0  0  0  0  0
    3.0473  -10.5114    0.0000 C   0  0  0  0  0  0  0  0  0  0  0  0
  1  2  1  0  0  0  0
  2  3  1  0  0  0  0
  3  4  1  0  0  0  0
  4  5  1  0  0  0  0
  5  1  1  0  0  0  0
  2  6  1  0  0  0  0
  3  7  1  0  0  0  0
  7  8  1  0  0  0  0
  4  9  1  0  0  0  0
  6 10  2  0  0  0  0
  6 11  1  0  0  0  0
  9 12  2  0  0  0  0
 12 13  1  0  0  0  0
 13 14  2  0  0  0  0
 14 15  1  0  0  0  0
 15 16  2  0  0  0  0
 16  9  1  0  0  0  0
 11 17  2  0  0  0  0
 17 18  1  0  0  0  0
 18 19  2  0  0  0  0
 19 20  1  0  0  0  0
 20 21  2  0  0  0  0
 21 11  1  0  0  0  0
 15 22  1  0  0  0  0
 22 23  1  0  0  0  0
 14 24  1  0  0  0  0
 13 25  1  0  0  0  0
 25 26  1  0  0  0  0
 18 27  1  0  0  0  0
 27 28  1  0  0  0  0
 19 29  1  0  0  0  0
 20 30  1  0  0  0  0
 30 31  1  0  0  0  0
M  END
>  <cdx:fragmentId>
5

$$$$
