953828.cdx
  Mrv1902 05222410262D          

 29 32  0  0  0  0            999 V2000
    7.9217   -6.7310    0.0000 C   0  0  0  0  0  0  0  0  0  0  0  0
    8.6361   -6.3185    0.0000 C   0  0  0  0  0  0  0  0  0  0  0  0
    9.3506   -6.7310    0.0000 C   0  0  0  0  0  0  0  0  0  0  0  0
    9.3506   -7.5560    0.0000 C   0  0  0  0  0  0  0  0  0  0  0  0
    8.6361   -7.9685    0.0000 C   0  0  0  0  0  0  0  0  0  0  0  0
    7.9217   -7.5560    0.0000 C   0  0  0  0  0  0  0  0  0  0  0  0
    9.3506  -10.0310    0.0000 O   0  0  0  0  0  0  0  0  0  0  0  0
    9.3506  -11.6810    0.0000 O   0  0  0  0  0  0  0  0  0  0  0  0
    7.9217  -12.5060    0.0000 O   0  0  0  0  0  0  0  0  0  0  0  0
    6.4927  -11.6810    0.0000 C   0  0  0  0  0  0  0  0  0  0  0  0
    7.2072  -11.2685    0.0000 C   0  0  2  0  0  0  0  0  0  0  0  0
    7.9217  -11.6810    0.0000 C   0  0  2  0  0  0  0  0  0  0  0  0
    8.6361  -11.2685    0.0000 C   0  0  1  0  0  0  0  0  0  0  0  0
    8.6361  -10.4435    0.0000 C   0  0  2  0  0  0  0  0  0  0  0  0
    7.9217  -10.0310    0.0000 C   0  0  1  0  0  0  0  0  0  0  0  0
    7.2072  -10.4435    0.0000 O   0  0  0  0  0  0  0  0  0  0  0  0
    7.9217   -9.2060    0.0000 O   0  0  0  0  0  0  0  0  0  0  0  0
    6.4927  -10.0310    0.0000 O   0  0  0  0  0  0  0  0  0  0  0  0
    6.4927   -7.5560    0.0000 O   0  0  0  0  0  0  0  0  0  0  0  0
    5.7782   -7.9685    0.0000 C   0  0  0  0  0  0  0  0  0  0  0  0
    5.0638   -7.5560    0.0000 C   0  0  0  0  0  0  0  0  0  0  0  0
    4.3493   -7.9685    0.0000 C   0  0  0  0  0  0  0  0  0  0  0  0
    4.3493   -8.7935    0.0000 C   0  0  0  0  0  0  0  0  0  0  0  0
    5.0638   -9.2060    0.0000 C   0  0  0  0  0  0  0  0  0  0  0  0
    5.7782   -8.7935    0.0000 C   0  0  0  0  0  0  0  0  0  0  0  0
    6.4927   -9.2060    0.0000 C   0  0  0  0  0  0  0  0  0  0  0  0
    7.2072   -8.7935    0.0000 C   0  0  0  0  0  0  0  0  0  0  0  0
    7.2072   -7.9685    0.0000 C   0  0  0  0  0  0  0  0  0  0  0  0
    6.4927  -12.5060    0.0000 O   0  0  0  0  0  0  0  0  0  0  0  0
 28  6  1  0  0  0  0
  6  1  2  0  0  0  0
  2  1  1  0  0  0  0
  3  2  2  0  0  0  0
  4  3  1  0  0  0  0
  5  4  2  0  0  0  0
  6  5  1  0  0  0  0
 27 17  1  0  0  0  0
 15 17  1  1  0  0  0
 14  7  1  6  0  0  0
 13  8  1  1  0  0  0
 12  9  1  6  0  0  0
 11 10  1  1  0  0  0
 16 11  1  0  0  0  0
 12 11  1  0  0  0  0
 13 12  1  0  0  0  0
 14 13  1  0  0  0  0
 15 14  1  0  0  0  0
 16 15  1  0  0  0  0
 26 18  2  0  0  0  0
 28 19  1  0  0  0  0
 20 19  1  0  0  0  0
 25 20  2  0  0  0  0
 21 20  1  0  0  0  0
 22 21  2  0  0  0  0
 23 22  1  0  0  0  0
 24 23  2  0  0  0  0
 25 24  1  0  0  0  0
 26 25  1  0  0  0  0
 27 26  1  0  0  0  0
 28 27  2  0  0  0  0
 10 29  1  0  0  0  0
M  END
>  <cdx:fragmentId>
83229

$$$$
