95388.cdx
  Mrv1902 05222410202D          

 49 53  0  0  0  0            999 V2000
   10.4806   -7.0141    0.0000 C   0  0  0  0  0  0  0  0  0  0  0  0
   10.4806   -7.8391    0.0000 C   0  0  0  0  0  0  0  0  0  0  0  0
    9.7661   -8.2516    0.0000 C   0  0  0  0  0  0  0  0  0  0  0  0
    9.7661   -9.0766    0.0000 O   0  0  0  0  0  0  0  0  0  0  0  0
    9.0516   -7.8391    0.0000 C   0  0  0  0  0  0  0  0  0  0  0  0
    8.3372   -8.2516    0.0000 C   0  0  0  0  0  0  0  0  0  0  0  0
    8.3372   -9.0766    0.0000 O   0  0  0  0  0  0  0  0  0  0  0  0
    7.6227   -7.8391    0.0000 C   0  0  0  0  0  0  0  0  0  0  0  0
    7.6227   -7.0141    0.0000 C   0  0  0  0  0  0  0  0  0  0  0  0
    6.9082   -6.6016    0.0000 O   0  0  0  0  0  0  0  0  0  0  0  0
    8.3372   -6.6016    0.0000 C   0  0  0  0  0  0  0  0  0  0  0  0
    9.0516   -7.0141    0.0000 C   0  0  0  0  0  0  0  0  0  0  0  0
    9.7661   -6.6016    0.0000 O   0  0  0  0  0  0  0  0  0  0  0  0
   11.1950   -6.6016    0.0000 C   0  0  0  0  0  0  0  0  0  0  0  0
   11.9095   -7.0141    0.0000 C   0  0  0  0  0  0  0  0  0  0  0  0
   12.6240   -6.6016    0.0000 C   0  0  0  0  0  0  0  0  0  0  0  0
   13.3385   -7.0141    0.0000 O   0  0  0  0  0  0  0  0  0  0  0  0
   12.6240   -5.7766    0.0000 C   0  0  0  0  0  0  0  0  0  0  0  0
   13.3385   -5.3641    0.0000 O   0  0  0  0  0  0  0  0  0  0  0  0
   11.9095   -5.3641    0.0000 C   0  0  0  0  0  0  0  0  0  0  0  0
   11.1950   -5.7766    0.0000 C   0  0  0  0  0  0  0  0  0  0  0  0
    6.9086   -8.2715    0.0000 C   0  0  0  0  0  0  0  0  0  0  0  0
    6.9128   -9.0964    0.0000 C   0  0  0  0  0  0  0  0  0  0  0  0
    7.6293   -9.5053    0.0000 O   0  0  0  0  0  0  0  0  0  0  0  0
    6.2004   -9.5125    0.0000 C   0  0  0  0  0  0  0  0  0  0  0  0
    6.2046  -10.3375    0.0000 O   0  0  0  0  0  0  0  0  0  0  0  0
    5.4839   -9.1037    0.0000 C   0  0  0  0  0  0  0  0  0  0  0  0
    4.7715   -9.5197    0.0000 O   0  0  0  0  0  0  0  0  0  0  0  0
    5.4797   -8.2787    0.0000 C   0  0  0  0  0  0  0  0  0  0  0  0
    6.1921   -7.8626    0.0000 O   0  0  0  0  0  0  0  0  0  0  0  0
    4.7632   -7.8698    0.0000 C   0  0  0  0  0  0  0  0  0  0  0  0
    4.0508   -8.2859    0.0000 O   0  0  0  0  0  0  0  0  0  0  0  0
    9.8405   -3.3616    0.0000 O   0  0  0  0  0  0  0  0  0  0  0  0
    9.8192   -4.1864    0.0000 C   0  0  0  0  0  0  0  0  0  0  0  0
    9.0729   -5.4050    0.0000 O   0  0  0  0  0  0  0  0  0  0  0  0
    9.0943   -4.5802    0.0000 C   0  0  0  0  0  0  0  0  0  0  0  0
    8.4121   -3.3247    0.0000 O   0  0  0  0  0  0  0  0  0  0  0  0
    8.3907   -4.1494    0.0000 C   0  0  0  0  0  0  0  0  0  0  0  0
    6.9623   -4.1124    0.0000 O   0  0  0  0  0  0  0  0  0  0  0  0
    7.6658   -4.5433    0.0000 C   0  0  0  0  0  0  0  0  0  0  0  0
    6.9196   -5.7619    0.0000 O   0  0  0  0  0  0  0  0  0  0  0  0
    7.6445   -5.3680    0.0000 C   0  0  0  0  0  0  0  0  0  0  0  0
    8.3480   -5.7988    0.0000 C   0  0  0  0  0  0  0  0  0  0  0  0
    3.3343   -7.8770    0.0000 C   0  0  0  0  0  0  0  0  0  0  0  0
    2.6219   -8.2931    0.0000 C   0  0  0  0  0  0  0  0  0  0  0  0
    1.9053   -7.8842    0.0000 C   0  0  0  0  0  0  0  0  0  0  0  0
    1.1930   -8.3003    0.0000 O   0  0  0  0  0  0  0  0  0  0  0  0
    1.9012   -7.0592    0.0000 O   0  0  0  0  0  0  0  0  0  0  0  0
    3.3301   -7.0520    0.0000 O   0  0  0  0  0  0  0  0  0  0  0  0
 43 35  1  0  0  0  0
 34 36  1  0  0  0  0
 34 33  1  0  0  0  0
 36 38  1  0  0  0  0
 36 35  1  0  0  0  0
 38 40  1  0  0  0  0
 38 37  1  0  0  0  0
 40 42  1  0  0  0  0
 40 39  1  0  0  0  0
 42 43  1  0  0  0  0
 42 41  1  0  0  0  0
  1  2  2  0  0  0  0
  2  3  1  0  0  0  0
  3  4  2  0  0  0  0
  3  5  1  0  0  0  0
  5  6  1  0  0  0  0
  6  7  1  0  0  0  0
  6  8  2  0  0  0  0
  8  9  1  0  0  0  0
  9 10  1  0  0  0  0
  9 11  2  0  0  0  0
 11 12  1  0  0  0  0
  5 12  2  0  0  0  0
 12 13  1  0  0  0  0
  1 13  1  0  0  0  0
  1 14  1  0  0  0  0
 14 15  1  0  0  0  0
 15 16  2  0  0  0  0
 16 17  1  0  0  0  0
 16 18  1  0  0  0  0
 18 19  1  0  0  0  0
 18 20  2  0  0  0  0
 20 21  1  0  0  0  0
 14 21  2  0  0  0  0
 23 24  1  0  0  0  0
 23 22  1  0  0  0  0
 25 26  1  0  0  0  0
 25 23  1  0  0  0  0
 27 28  1  0  0  0  0
 27 25  1  0  0  0  0
 29 30  1  0  0  0  0
 29 27  1  0  0  0  0
 31 32  1  0  0  0  0
 31 29  1  0  0  0  0
 22 30  1  0  0  0  0
 32 44  1  0  0  0  0
 44 45  1  0  0  0  0
 45 46  1  0  0  0  0
 46 47  1  0  0  0  0
 46 48  2  0  0  0  0
 44 49  2  0  0  0  0
 43 11  1  0  0  0  0
 22  8  1  0  0  0  0
M  END
>  <cdx:fragmentId>
5

$$$$
