953944.cdx
  Mrv1902 05222410212D          

 55 59  0  0  0  0            999 V2000
    5.5123   -8.8737    0.0000 C   0  0  0  0  0  0  0  0  0  0  0  0
    4.7979   -9.2862    0.0000 C   0  0  0  0  0  0  0  0  0  0  0  0
    4.0834   -8.8737    0.0000 C   0  0  0  0  0  0  0  0  0  0  0  0
    5.5123   -8.0487    0.0000 O   0  0  0  0  0  0  0  0  0  0  0  0
    6.2268   -9.2862    0.0000 O   0  0  0  0  0  0  0  0  0  0  0  0
    3.3689   -9.2862    0.0000 C   0  0  0  0  0  0  0  0  0  0  0  0
    2.6544   -8.8737    0.0000 C   0  0  0  0  0  0  0  0  0  0  0  0
    1.9400   -9.2862    0.0000 C   0  0  0  0  0  0  0  0  0  0  0  0
    1.9400  -10.1112    0.0000 C   0  0  0  0  0  0  0  0  0  0  0  0
    2.6544  -10.5237    0.0000 C   0  0  0  0  0  0  0  0  0  0  0  0
    3.3689  -10.1112    0.0000 C   0  0  0  0  0  0  0  0  0  0  0  0
    1.2255  -10.5237    0.0000 O   0  0  0  0  0  0  0  0  0  0  0  0
    1.2255   -8.8737    0.0000 O   0  0  0  0  0  0  0  0  0  0  0  0
    7.6557   -7.6362    0.0000 O   0  0  0  0  0  0  0  0  0  0  0  0
    6.9413   -8.0487    0.0000 C   0  0  1  0  0  0  0  0  0  0  0  0
    6.9413   -8.8737    0.0000 C   0  0  2  0  0  0  0  0  0  0  0  0
    7.6557   -9.2862    0.0000 C   0  0  1  0  0  0  0  0  0  0  0  0
    8.3702   -8.8737    0.0000 C   0  0  2  0  0  0  0  0  0  0  0  0
    8.3702   -8.0487    0.0000 C   0  0  2  0  0  0  0  0  0  0  0  0
    7.6557  -10.1112    0.0000 O   0  0  0  0  0  0  0  0  0  0  0  0
    6.2268  -10.1112    0.0000 O   0  0  0  0  0  0  0  0  0  0  0  0
    6.9413  -10.5237    0.0000 C   0  0  2  0  0  0  0  0  0  0  0  0
    6.9413  -11.3487    0.0000 C   0  0  1  0  0  0  0  0  0  0  0  0
    6.2268  -11.7612    0.0000 C   0  0  1  0  0  0  0  0  0  0  0  0
    5.5123  -11.3487    0.0000 C   0  0  2  0  0  0  0  0  0  0  0  0
    5.5123  -10.5237    0.0000 C   0  0  2  0  0  0  0  0  0  0  0  0
    4.7979  -10.1112    0.0000 C   0  0  0  0  0  0  0  0  0  0  0  0
    4.7979  -11.7612    0.0000 O   0  0  0  0  0  0  0  0  0  0  0  0
    6.2268  -12.5862    0.0000 O   0  0  0  0  0  0  0  0  0  0  0  0
    7.6557  -11.7612    0.0000 O   0  0  0  0  0  0  0  0  0  0  0  0
    6.2268   -7.6362    0.0000 C   0  0  0  0  0  0  0  0  0  0  0  0
    9.0847   -9.2862    0.0000 O   0  0  0  0  0  0  0  0  0  0  0  0
    9.0847   -7.6362    0.0000 O   0  0  0  0  0  0  0  0  0  0  0  0
    9.7991   -8.0487    0.0000 C   0  0  0  0  0  0  0  0  0  0  0  0
   10.5136   -7.6362    0.0000 C   0  0  0  0  0  0  0  0  0  0  0  0
   11.2281   -8.0487    0.0000 C   0  0  0  0  0  0  0  0  0  0  0  0
   11.9426   -7.6362    0.0000 C   0  0  0  0  0  0  0  0  0  0  0  0
   12.6570   -8.0487    0.0000 C   0  0  0  0  0  0  0  0  0  0  0  0
   12.6570   -8.8737    0.0000 C   0  0  0  0  0  0  0  0  0  0  0  0
   11.9426   -9.2862    0.0000 C   0  0  0  0  0  0  0  0  0  0  0  0
   11.2281   -8.8737    0.0000 C   0  0  0  0  0  0  0  0  0  0  0  0
   13.3715   -9.2862    0.0000 O   0  0  0  0  0  0  0  0  0  0  0  0
   13.3715   -7.6362    0.0000 O   0  0  0  0  0  0  0  0  0  0  0  0
    4.5770   -6.8378    0.0000 O   0  0  0  0  0  0  0  0  0  0  0  0
    3.7291   -5.4223    0.0000 O   0  0  0  0  0  0  0  0  0  0  0  0
    4.5310   -3.9802    0.0000 O   0  0  0  0  0  0  0  0  0  0  0  0
    5.7568   -3.2459    0.0000 O   0  0  0  0  0  0  0  0  0  0  0  0
    6.1808   -3.9537    0.0000 C   0  0  0  0  0  0  0  0  0  0  0  0
    5.7798   -4.6747    0.0000 C   0  0  2  0  0  0  0  0  0  0  0  0
    4.9549   -4.6880    0.0000 C   0  0  1  0  0  0  0  0  0  0  0  0
    4.5540   -5.4090    0.0000 C   0  0  1  0  0  0  0  0  0  0  0  0
    4.9779   -6.1167    0.0000 C   0  0  2  0  0  0  0  0  0  0  0  0
    5.8028   -6.1034    0.0000 C   0  0  1  0  0  0  0  0  0  0  0  0
    6.2038   -5.3824    0.0000 O   0  0  0  0  0  0  0  0  0  0  0  0
    6.2268   -6.8112    0.0000 O   0  0  0  0  0  0  0  0  0  0  0  0
 53 55  1  1  0  0  0
 52 44  1  6  0  0  0
 51 45  1  1  0  0  0
 50 46  1  1  0  0  0
 49 48  1  1  0  0  0
 48 47  1  0  0  0  0
 54 49  1  0  0  0  0
 50 49  1  0  0  0  0
 51 50  1  0  0  0  0
 52 51  1  0  0  0  0
 53 52  1  0  0  0  0
 54 53  1  0  0  0  0
  1  2  1  0  0  0  0
  2  3  2  0  0  0  0
  1  4  2  0  0  0  0
  1  5  1  0  0  0  0
  6  7  1  0  0  0  0
  7  8  2  0  0  0  0
  8  9  1  0  0  0  0
  9 10  2  0  0  0  0
 10 11  1  0  0  0  0
  6 11  2  0  0  0  0
  9 12  1  0  0  0  0
  8 13  1  0  0  0  0
  3  6  1  0  0  0  0
 14 15  1  0  0  0  0
 15 16  1  0  0  0  0
 16 17  1  0  0  0  0
 17 18  1  0  0  0  0
 18 19  1  0  0  0  0
 14 19  1  0  0  0  0
 21 22  1  0  0  0  0
 22 23  1  0  0  0  0
 23 24  1  0  0  0  0
 24 25  1  0  0  0  0
 25 26  1  0  0  0  0
 21 26  1  0  0  0  0
 26 27  1  6  0  0  0
 25 28  1  1  0  0  0
 24 29  1  6  0  0  0
 23 30  1  6  0  0  0
 22 20  1  1  0  0  0
 17 20  1  1  0  0  0
 31 55  1  0  0  0  0
 15 31  1  1  0  0  0
 18 32  1  6  0  0  0
 34 35  1  0  0  0  0
 33 34  1  0  0  0  0
 36 37  1  0  0  0  0
 37 38  2  0  0  0  0
 38 39  1  0  0  0  0
 39 40  2  0  0  0  0
 40 41  1  0  0  0  0
 36 41  2  0  0  0  0
 39 42  1  0  0  0  0
 38 43  1  0  0  0  0
 35 36  1  0  0  0  0
 19 33  1  1  0  0  0
 16  5  1  6  0  0  0
M  END
>  <cdx:fragmentId>
83345

$$$$
