95392.cdx
  Mrv1902 05222410272D          

 41 45  0  0  0  0            999 V2000
    8.9732   -9.2416    0.0000 C   0  0  0  0  0  0  0  0  0  0  0  0
    8.9732  -10.0666    0.0000 C   0  0  0  0  0  0  0  0  0  0  0  0
    8.2587  -10.4791    0.0000 C   0  0  0  0  0  0  0  0  0  0  0  0
    8.2587  -11.3041    0.0000 O   0  0  0  0  0  0  0  0  0  0  0  0
    7.5443  -10.0666    0.0000 C   0  0  0  0  0  0  0  0  0  0  0  0
    6.8298  -10.4791    0.0000 C   0  0  0  0  0  0  0  0  0  0  0  0
    6.8298  -11.3041    0.0000 O   0  0  0  0  0  0  0  0  0  0  0  0
    6.1153  -10.0666    0.0000 C   0  0  0  0  0  0  0  0  0  0  0  0
    6.1153   -9.2416    0.0000 C   0  0  0  0  0  0  0  0  0  0  0  0
    5.4009   -8.8291    0.0000 O   0  0  0  0  0  0  0  0  0  0  0  0
    6.8298   -8.8291    0.0000 C   0  0  0  0  0  0  0  0  0  0  0  0
    7.5443   -9.2416    0.0000 C   0  0  0  0  0  0  0  0  0  0  0  0
    8.2587   -8.8291    0.0000 O   0  0  0  0  0  0  0  0  0  0  0  0
    9.6877   -8.8291    0.0000 C   0  0  0  0  0  0  0  0  0  0  0  0
   10.4022   -9.2416    0.0000 C   0  0  0  0  0  0  0  0  0  0  0  0
   11.1166   -8.8291    0.0000 C   0  0  0  0  0  0  0  0  0  0  0  0
   11.8311   -9.2416    0.0000 O   0  0  0  0  0  0  0  0  0  0  0  0
   11.1166   -8.0041    0.0000 C   0  0  0  0  0  0  0  0  0  0  0  0
   11.8311   -7.5916    0.0000 O   0  0  0  0  0  0  0  0  0  0  0  0
   10.4022   -7.5916    0.0000 C   0  0  0  0  0  0  0  0  0  0  0  0
    9.6877   -8.0041    0.0000 C   0  0  0  0  0  0  0  0  0  0  0  0
    5.4262  -10.5149    0.0000 C   0  0  0  0  0  0  0  0  0  0  0  0
    5.3662  -11.3377    0.0000 C   0  0  0  0  0  0  0  0  0  0  0  0
    5.9966  -11.8699    0.0000 O   0  0  0  0  0  0  0  0  0  0  0  0
    4.5651  -11.5349    0.0000 C   0  0  0  0  0  0  0  0  0  0  0  0
    4.2538  -12.2989    0.0000 O   0  0  0  0  0  0  0  0  0  0  0  0
    4.1300  -10.8340    0.0000 C   0  0  0  0  0  0  0  0  0  0  0  0
    4.6622  -10.2036    0.0000 O   0  0  0  0  0  0  0  0  0  0  0  0
    3.3072  -10.7740    0.0000 C   0  0  0  0  0  0  0  0  0  0  0  0
    2.8438  -11.4565    0.0000 O   0  0  0  0  0  0  0  0  0  0  0  0
    6.8460   -8.0060    0.0000 C   0  0  0  0  0  0  0  0  0  0  0  0
    7.5621   -7.5964    0.0000 C   0  0  0  0  0  0  0  0  0  0  0  0
    8.2749   -8.0118    0.0000 O   0  0  0  0  0  0  0  0  0  0  0  0
    7.5654   -6.7714    0.0000 C   0  0  0  0  0  0  0  0  0  0  0  0
    8.2816   -6.3618    0.0000 O   0  0  0  0  0  0  0  0  0  0  0  0
    6.8527   -6.3560    0.0000 C   0  0  0  0  0  0  0  0  0  0  0  0
    6.8560   -5.5310    0.0000 O   0  0  0  0  0  0  0  0  0  0  0  0
    6.1365   -6.7656    0.0000 C   0  0  0  0  0  0  0  0  0  0  0  0
    6.1332   -7.5906    0.0000 O   0  0  0  0  0  0  0  0  0  0  0  0
    5.4237   -6.3502    0.0000 C   0  0  0  0  0  0  0  0  0  0  0  0
    5.4271   -5.5252    0.0000 O   0  0  0  0  0  0  0  0  0  0  0  0
  1  2  2  0  0  0  0
  2  3  1  0  0  0  0
  3  4  2  0  0  0  0
  3  5  1  0  0  0  0
  5  6  1  0  0  0  0
  6  7  1  0  0  0  0
  6  8  2  0  0  0  0
  8  9  1  0  0  0  0
  9 10  1  0  0  0  0
  9 11  2  0  0  0  0
 11 12  1  0  0  0  0
  5 12  2  0  0  0  0
 12 13  1  0  0  0  0
  1 13  1  0  0  0  0
  1 14  1  0  0  0  0
 14 15  1  0  0  0  0
 15 16  2  0  0  0  0
 16 17  1  0  0  0  0
 16 18  1  0  0  0  0
 18 19  1  0  0  0  0
 18 20  2  0  0  0  0
 20 21  1  0  0  0  0
 14 21  2  0  0  0  0
 23 24  1  0  0  0  0
 23 22  1  0  0  0  0
 25 26  1  0  0  0  0
 25 23  1  0  0  0  0
 27 28  1  0  0  0  0
 27 25  1  0  0  0  0
 29 30  1  0  0  0  0
 29 27  1  0  0  0  0
 22 28  1  0  0  0  0
 32 33  1  0  0  0  0
 32 31  1  0  0  0  0
 34 35  1  0  0  0  0
 34 32  1  0  0  0  0
 36 37  1  0  0  0  0
 36 34  1  0  0  0  0
 38 39  1  0  0  0  0
 38 36  1  0  0  0  0
 40 41  1  0  0  0  0
 40 38  1  0  0  0  0
 31 39  1  0  0  0  0
 31 11  1  0  0  0  0
 22  8  1  0  0  0  0
M  END
>  <cdx:groupId>
135

>  <cdx:fragmentId>
5

$$$$
