95393.cdx
  Mrv1902 05222410262D          

 42 46  0  0  0  0            999 V2000
    8.6246   -8.0041    0.0000 C   0  0  0  0  0  0  0  0  0  0  0  0
    8.6246   -8.8291    0.0000 C   0  0  0  0  0  0  0  0  0  0  0  0
    7.9101   -9.2416    0.0000 C   0  0  0  0  0  0  0  0  0  0  0  0
    7.9101  -10.0666    0.0000 O   0  0  0  0  0  0  0  0  0  0  0  0
    7.1956   -8.8291    0.0000 C   0  0  0  0  0  0  0  0  0  0  0  0
    6.4812   -9.2416    0.0000 C   0  0  0  0  0  0  0  0  0  0  0  0
    6.4812  -10.0666    0.0000 O   0  0  0  0  0  0  0  0  0  0  0  0
    5.7667   -8.8291    0.0000 C   0  0  0  0  0  0  0  0  0  0  0  0
    5.7667   -8.0041    0.0000 C   0  0  0  0  0  0  0  0  0  0  0  0
    5.0522   -7.5916    0.0000 O   0  0  0  0  0  0  0  0  0  0  0  0
    6.4812   -7.5916    0.0000 C   0  0  0  0  0  0  0  0  0  0  0  0
    7.1956   -8.0041    0.0000 C   0  0  0  0  0  0  0  0  0  0  0  0
    7.9101   -7.5916    0.0000 O   0  0  0  0  0  0  0  0  0  0  0  0
    9.3391   -7.5916    0.0000 C   0  0  0  0  0  0  0  0  0  0  0  0
   10.0535   -8.0041    0.0000 C   0  0  0  0  0  0  0  0  0  0  0  0
   10.7680   -7.5916    0.0000 C   0  0  0  0  0  0  0  0  0  0  0  0
   11.4825   -8.0041    0.0000 O   0  0  0  0  0  0  0  0  0  0  0  0
   10.7680   -6.7666    0.0000 C   0  0  0  0  0  0  0  0  0  0  0  0
   11.4825   -6.3541    0.0000 O   0  0  0  0  0  0  0  0  0  0  0  0
   10.0535   -6.3541    0.0000 C   0  0  0  0  0  0  0  0  0  0  0  0
    9.3391   -6.7666    0.0000 C   0  0  0  0  0  0  0  0  0  0  0  0
    2.9002   -8.8384    0.0000 C   0  0  0  0  0  0  0  0  0  0  0  0
    4.3292   -8.8388    0.0000 O   0  0  0  0  0  0  0  0  0  0  0  0
    3.6146   -9.2511    0.0000 C   0  0  2  0  0  0  0  0  0  0  0  0
    2.8998  -10.4884    0.0000 O   0  0  0  0  0  0  0  0  0  0  0  0
    3.6144  -10.0761    0.0000 C   0  0  2  0  0  0  0  0  0  0  0  0
    4.3286  -11.3138    0.0000 O   0  0  0  0  0  0  0  0  0  0  0  0
    4.3288  -10.4888    0.0000 C   0  0  1  0  0  0  0  0  0  0  0  0
    5.7577  -10.4891    0.0000 O   0  0  0  0  0  0  0  0  0  0  0  0
    5.0434  -10.0765    0.0000 C   0  0  1  0  0  0  0  0  0  0  0  0
    5.0436   -9.2515    0.0000 C   0  0  2  0  0  0  0  0  0  0  0  0
    7.9674   -4.3371    0.0000 O   0  0  0  0  0  0  0  0  0  0  0  0
    7.9509   -5.1619    0.0000 C   0  0  0  0  0  0  0  0  0  0  0  0
    7.2118   -6.3849    0.0000 O   0  0  0  0  0  0  0  0  0  0  0  0
    7.2283   -5.5601    0.0000 C   0  0  0  0  0  0  0  0  0  0  0  0
    6.5388   -4.3085    0.0000 O   0  0  0  0  0  0  0  0  0  0  0  0
    6.5222   -5.1333    0.0000 C   0  0  0  0  0  0  0  0  0  0  0  0
    5.0936   -5.1047    0.0000 O   0  0  0  0  0  0  0  0  0  0  0  0
    5.7997   -5.5315    0.0000 C   0  0  0  0  0  0  0  0  0  0  0  0
    5.0606   -6.7544    0.0000 O   0  0  0  0  0  0  0  0  0  0  0  0
    5.7831   -6.3563    0.0000 C   0  0  0  0  0  0  0  0  0  0  0  0
    6.4892   -6.7830    0.0000 C   0  0  0  0  0  0  0  0  0  0  0  0
 31 23  1  0  0  0  0
 24 22  1  6  0  0  0
 24 23  1  0  0  0  0
 26 24  1  0  0  0  0
 26 25  1  1  0  0  0
 28 26  1  0  0  0  0
 28 27  1  6  0  0  0
 30 28  1  0  0  0  0
 30 29  1  6  0  0  0
 31 30  1  0  0  0  0
 42 34  1  0  0  0  0
 33 35  1  0  0  0  0
 33 32  1  0  0  0  0
 35 37  1  0  0  0  0
 35 34  1  0  0  0  0
 37 39  1  0  0  0  0
 37 36  1  0  0  0  0
 39 41  1  0  0  0  0
 39 38  1  0  0  0  0
 41 42  1  0  0  0  0
 41 40  1  0  0  0  0
  1  2  2  0  0  0  0
  2  3  1  0  0  0  0
  3  4  2  0  0  0  0
  3  5  1  0  0  0  0
  5  6  1  0  0  0  0
  6  7  1  0  0  0  0
  6  8  2  0  0  0  0
  8  9  1  0  0  0  0
  9 10  1  0  0  0  0
  9 11  2  0  0  0  0
 11 12  1  0  0  0  0
  5 12  2  0  0  0  0
 12 13  1  0  0  0  0
  1 13  1  0  0  0  0
  1 14  1  0  0  0  0
 14 15  1  0  0  0  0
 15 16  2  0  0  0  0
 16 17  1  0  0  0  0
 16 18  1  0  0  0  0
 18 19  1  0  0  0  0
 18 20  2  0  0  0  0
 20 21  1  0  0  0  0
 14 21  2  0  0  0  0
 42 11  1  0  0  0  0
 31  8  1  1  0  0  0
M  END
>  <cdx:fragmentId>
5

$$$$
