95395.cdx
  Mrv1902 05222410282D          

 29 30  0  0  0  0            999 V2000
    3.7804   -8.4118    0.0000 C   0  0  0  0  0  0  0  0  0  0  0  0
    3.0897   -9.6623    0.0000 C   0  0  0  0  0  0  0  0  0  0  0  0
    3.7960   -9.2364    0.0000 C   0  0  0  0  0  0  0  0  0  0  0  0
    4.5180   -9.6352    0.0000 C   0  0  0  0  0  0  0  0  0  0  0  0
    5.2243   -9.2093    0.0000 C   0  0  0  0  0  0  0  0  0  0  0  0
    6.6369   -8.3577    0.0000 O   0  0  0  0  0  0  0  0  0  0  0  0
    5.9462   -9.6081    0.0000 N   0  0  0  0  0  0  0  0  0  0  0  0
    6.6525   -9.1823    0.0000 C   0  0  0  0  0  0  0  0  0  0  0  0
    7.3745   -9.5810    0.0000 C   0  0  0  0  0  0  0  0  0  0  0  0
    8.0808   -9.1552    0.0000 C   0  0  0  0  0  0  0  0  0  0  0  0
    8.8027   -9.5539    0.0000 C   0  0  0  0  0  0  0  0  0  0  0  0
    9.5090   -9.1281    0.0000 C   0  0  0  0  0  0  0  0  0  0  0  0
   10.2309   -9.5268    0.0000 C   0  0  0  0  0  0  0  0  0  0  0  0
   10.9372   -9.1010    0.0000 C   0  0  0  0  0  0  0  0  0  0  0  0
   11.6592   -9.4998    0.0000 C   0  0  0  0  0  0  0  0  0  0  0  0
   12.3655   -9.0739    0.0000 C   0  0  0  0  0  0  0  0  0  0  0  0
   13.0874   -9.4727    0.0000 C   0  0  0  0  0  0  0  0  0  0  0  0
   13.7937   -9.0468    0.0000 C   0  0  0  0  0  0  0  0  0  0  0  0
   14.5156   -9.4456    0.0000 C   0  0  0  0  0  0  0  0  0  0  0  0
   15.2219   -9.0198    0.0000 C   0  0  0  0  0  0  0  0  0  0  0  0
   18.1768  -10.4560    0.0000 O   0  0  0  0  0  0  0  0  0  0  0  0
   18.6488   -9.7797    0.0000 C   0  0  0  0  0  0  0  0  0  0  0  0
   18.1515   -9.1217    0.0000 O   0  0  0  0  0  0  0  0  0  0  0  0
   16.6502   -8.9927    0.0000 C   0  0  0  0  0  0  0  0  0  0  0  0
   15.9439   -9.4185    0.0000 C   0  0  0  0  0  0  0  0  0  0  0  0
   15.9595  -10.2431    0.0000 C   0  0  0  0  0  0  0  0  0  0  0  0
   16.6814  -10.6418    0.0000 C   0  0  0  0  0  0  0  0  0  0  0  0
   17.3877  -10.2160    0.0000 C   0  0  0  0  0  0  0  0  0  0  0  0
   17.3721   -9.3914    0.0000 C   0  0  0  0  0  0  0  0  0  0  0  0
  3  1  1  0  0  0  0
  3  2  1  0  0  0  0
  4  3  1  0  0  0  0
  5  4  1  0  0  0  0
  7  5  1  0  0  0  0
  8  6  2  0  0  0  0
  8  7  1  0  0  0  0
  9  8  1  0  0  0  0
 10  9  2  0  0  0  0
 11 10  1  0  0  0  0
 12 11  2  0  0  0  0
 13 12  1  0  0  0  0
 14 13  1  0  0  0  0
 15 14  1  0  0  0  0
 16 15  1  0  0  0  0
 17 16  1  0  0  0  0
 18 17  1  0  0  0  0
 19 18  1  0  0  0  0
 20 19  2  0  0  0  0
 25 20  1  0  0  0  0
 21 28  1  0  0  0  0
 22 21  1  0  0  0  0
 23 22  1  0  0  0  0
 29 23  1  0  0  0  0
 24 29  1  0  0  0  0
 25 24  2  0  0  0  0
 26 25  1  0  0  0  0
 27 26  2  0  0  0  0
 28 27  1  0  0  0  0
 29 28  2  0  0  0  0
M  END
>  <cdx:fragmentId>
5

$$$$
