95399.cdx
  Mrv1902 05222410182D          

 22 24  0  0  0  0            999 V2000
    8.0057   -9.4533    0.0000 C   0  0  0  0  0  0  0  0  0  0  0  0
    8.8102   -9.6360    0.0000 C   0  0  2  0  0  0  0  0  0  0  0  0
    9.4547   -9.1210    0.0000 C   0  0  0  0  0  0  0  0  0  0  0  0
    9.4538   -8.2960    0.0000 C   0  0  0  0  0  0  0  0  0  0  0  0
    8.8082   -7.7823    0.0000 C   0  0  2  0  0  0  0  0  0  0  0  0
    8.0041   -7.9667    0.0000 C   0  0  0  0  0  0  0  0  0  0  0  0
    7.6470   -8.7104    0.0000 C   0  0  1  0  0  0  0  0  0  0  0  0
    6.8204   -7.2824    0.0000 O   0  0  0  0  0  0  0  0  0  0  0  0
    6.8220   -8.7113    0.0000 O   0  0  0  0  0  0  0  0  0  0  0  0
    5.5852   -9.4271    0.0000 C   0  0  0  0  0  0  0  0  0  0  0  0
    5.1720   -8.7131    0.0000 C   0  0  0  0  0  0  0  0  0  0  0  0
    6.4087   -7.9973    0.0000 C   0  0  0  0  0  0  0  0  0  0  0  0
    4.3470   -8.7140    0.0000 C   0  0  0  0  0  0  0  0  0  0  0  0
    3.9352   -9.4289    0.0000 C   0  0  0  0  0  0  0  0  0  0  0  0
    4.3485  -10.1429    0.0000 C   0  0  0  0  0  0  0  0  0  0  0  0
    5.1735  -10.1420    0.0000 C   0  0  0  0  0  0  0  0  0  0  0  0
    5.5837   -7.9982    0.0000 C   0  0  0  0  0  0  0  0  0  0  0  0
    5.1704   -7.2841    0.0000 C   0  0  0  0  0  0  0  0  0  0  0  0
    8.1856   -8.6487    0.0000 N   0  0  0  0  0  0  0  0  0  0  0  0
    7.4064   -8.4207    0.0000 C   0  0  0  0  0  0  0  0  0  0  0  0
    8.9910   -6.9778    0.0000 H   0  0  0  0  0  0  0  0  0  0  0  0
    8.9947  -10.4402    0.0000 H   0  0  0  0  0  0  0  0  0  0  0  0
  1  7  1  0  0  0  0
  2  1  1  0  0  0  0
  3  2  1  0  0  0  0
  4  3  1  0  0  0  0
  5  4  1  0  0  0  0
  6  5  1  0  0  0  0
  7  6  1  0  0  0  0
  7  9  1  6  0  0  0
 12  8  2  0  0  0  0
 12  9  1  0  0  0  0
 17 12  1  0  0  0  0
 10 11  2  0  0  0  0
 11 13  1  0  0  0  0
 13 14  2  0  0  0  0
 14 15  1  0  0  0  0
 15 16  2  0  0  0  0
 16 10  1  0  0  0  0
 11 17  1  0  0  0  0
 17 18  2  0  0  0  0
  5 19  1  0  0  0  0
  2 19  1  0  0  0  0
 19 20  1  0  0  0  0
  5 21  1  6  0  0  0
  2 22  1  6  0  0  0
M  END
>  <cdx:fragmentId>
5

$$$$
