95397.cdx
  Mrv1902 05222410272D          

 44 48  0  0  0  0            999 V2000
    9.0908   -4.9241    0.0000 O   0  0  0  0  0  0  0  0  0  0  0  0
    9.0908   -3.2741    0.0000 O   0  0  0  0  0  0  0  0  0  0  0  0
    6.9474   -3.6866    0.0000 C   0  0  0  0  0  0  0  0  0  0  0  0
    7.6618   -3.2741    0.0000 C   0  0  0  0  0  0  0  0  0  0  0  0
    8.3763   -3.6866    0.0000 C   0  0  0  0  0  0  0  0  0  0  0  0
    8.3763   -4.5116    0.0000 C   0  0  0  0  0  0  0  0  0  0  0  0
    7.6618   -4.9241    0.0000 C   0  0  0  0  0  0  0  0  0  0  0  0
    6.9474   -4.5116    0.0000 C   0  0  0  0  0  0  0  0  0  0  0  0
    6.9474   -6.1616    0.0000 O   0  0  0  0  0  0  0  0  0  0  0  0
    4.0895   -6.9866    0.0000 O   0  0  0  0  0  0  0  0  0  0  0  0
    2.6605   -4.5116    0.0000 O   0  0  0  0  0  0  0  0  0  0  0  0
    5.5184   -6.9866    0.0000 O   0  0  0  0  0  0  0  0  0  0  0  0
    5.5184   -4.5116    0.0000 O   0  0  0  0  0  0  0  0  0  0  0  0
    4.8039   -4.9241    0.0000 C   0  0  0  0  0  0  0  0  0  0  0  0
    4.0895   -4.5116    0.0000 C   0  0  0  0  0  0  0  0  0  0  0  0
    3.3750   -4.9241    0.0000 C   0  0  0  0  0  0  0  0  0  0  0  0
    3.3750   -5.7491    0.0000 C   0  0  0  0  0  0  0  0  0  0  0  0
    4.0895   -6.1616    0.0000 C   0  0  0  0  0  0  0  0  0  0  0  0
    4.8039   -5.7491    0.0000 C   0  0  0  0  0  0  0  0  0  0  0  0
    5.5184   -6.1616    0.0000 C   0  0  0  0  0  0  0  0  0  0  0  0
    6.2329   -5.7491    0.0000 C   0  0  0  0  0  0  0  0  0  0  0  0
    6.2329   -4.9241    0.0000 C   0  0  0  0  0  0  0  0  0  0  0  0
    6.2341   -8.2167    0.0000 C   0  0  2  0  0  0  0  0  0  0  0  0
    6.9480   -8.6302    0.0000 C   0  0  1  0  0  0  0  0  0  0  0  0
    7.6630   -8.2188    0.0000 C   0  0  1  0  0  0  0  0  0  0  0  0
    7.6642   -7.3938    0.0000 C   0  0  2  0  0  0  0  0  0  0  0  0
    6.9504   -6.9803    0.0000 C   0  0  1  0  0  0  0  0  0  0  0  0
    6.2353   -7.3917    0.0000 O   0  0  0  0  0  0  0  0  0  0  0  0
    6.9468   -9.4552    0.0000 O   0  0  0  0  0  0  0  0  0  0  0  0
    5.5190   -8.6282    0.0000 C   0  0  0  0  0  0  0  0  0  0  0  0
    8.3769   -8.6323    0.0000 O   0  0  0  0  0  0  0  0  0  0  0  0
    8.3793   -6.9823    0.0000 O   0  0  0  0  0  0  0  0  0  0  0  0
    5.5291   -9.4598    0.0000 O   0  0  0  0  0  0  0  0  0  0  0  0
    4.8085   -9.8616    0.0000 C   0  0  0  0  0  0  0  0  0  0  0  0
    4.1003   -9.4384    0.0000 C   0  0  0  0  0  0  0  0  0  0  0  0
    3.3797   -9.8401    0.0000 C   0  0  0  0  0  0  0  0  0  0  0  0
    3.3673  -10.6650    0.0000 C   0  0  0  0  0  0  0  0  0  0  0  0
    2.6468  -11.0668    0.0000 C   0  0  0  0  0  0  0  0  0  0  0  0
    2.6344  -11.8917    0.0000 C   0  0  0  0  0  0  0  0  0  0  0  0
    3.3426  -12.3149    0.0000 C   0  0  0  0  0  0  0  0  0  0  0  0
    4.0632  -11.9131    0.0000 C   0  0  0  0  0  0  0  0  0  0  0  0
    4.0755  -11.0882    0.0000 C   0  0  0  0  0  0  0  0  0  0  0  0
    4.7961  -10.6865    0.0000 O   0  0  0  0  0  0  0  0  0  0  0  0
    3.3302  -13.1398    0.0000 O   0  0  0  0  0  0  0  0  0  0  0  0
 22  8  1  0  0  0  0
  6  1  1  0  0  0  0
  5  2  1  0  0  0  0
  8  3  2  0  0  0  0
  4  3  1  0  0  0  0
  5  4  2  0  0  0  0
  6  5  1  0  0  0  0
  7  6  2  0  0  0  0
  8  7  1  0  0  0  0
 21  9  1  0  0  0  0
 18 10  1  0  0  0  0
 16 11  1  0  0  0  0
 20 12  2  0  0  0  0
 22 13  1  0  0  0  0
 14 13  1  0  0  0  0
 19 14  2  0  0  0  0
 15 14  1  0  0  0  0
 16 15  2  0  0  0  0
 17 16  1  0  0  0  0
 18 17  2  0  0  0  0
 19 18  1  0  0  0  0
 20 19  1  0  0  0  0
 21 20  1  0  0  0  0
 22 21  2  0  0  0  0
 23 24  1  0  0  0  0
 24 25  1  0  0  0  0
 25 26  1  0  0  0  0
 26 27  1  0  0  0  0
 27 28  1  0  0  0  0
 28 23  1  0  0  0  0
 24 29  1  1  0  0  0
 23 30  1  1  0  0  0
 25 31  1  1  0  0  0
 26 32  1  6  0  0  0
 27  9  1  1  0  0  0
 34 35  1  0  0  0  0
 35 36  2  0  0  0  0
 36 37  1  0  0  0  0
 37 38  1  0  0  0  0
 38 39  2  0  0  0  0
 39 40  1  0  0  0  0
 40 41  2  0  0  0  0
 41 42  1  0  0  0  0
 37 42  2  0  0  0  0
 34 43  2  0  0  0  0
 40 44  1  0  0  0  0
 33 34  1  0  0  0  0
 33 30  1  0  0  0  0
M  END
>  <cdx:fragmentId>
5

$$$$
