95398.cdx
  Mrv1902 05222410182D          

 43 47  0  0  0  0            999 V2000
    9.0908   -3.2741    0.0000 O   0  0  0  0  0  0  0  0  0  0  0  0
    6.9474   -3.6866    0.0000 C   0  0  0  0  0  0  0  0  0  0  0  0
    7.6618   -3.2741    0.0000 C   0  0  0  0  0  0  0  0  0  0  0  0
    8.3763   -3.6866    0.0000 C   0  0  0  0  0  0  0  0  0  0  0  0
    8.3763   -4.5116    0.0000 C   0  0  0  0  0  0  0  0  0  0  0  0
    7.6618   -4.9241    0.0000 C   0  0  0  0  0  0  0  0  0  0  0  0
    6.9474   -4.5116    0.0000 C   0  0  0  0  0  0  0  0  0  0  0  0
    6.9474   -6.1616    0.0000 O   0  0  0  0  0  0  0  0  0  0  0  0
    4.0895   -6.9866    0.0000 O   0  0  0  0  0  0  0  0  0  0  0  0
    2.6605   -4.5116    0.0000 O   0  0  0  0  0  0  0  0  0  0  0  0
    5.5184   -6.9866    0.0000 O   0  0  0  0  0  0  0  0  0  0  0  0
    5.5184   -4.5116    0.0000 O   0  0  0  0  0  0  0  0  0  0  0  0
    4.8039   -4.9241    0.0000 C   0  0  0  0  0  0  0  0  0  0  0  0
    4.0895   -4.5116    0.0000 C   0  0  0  0  0  0  0  0  0  0  0  0
    3.3750   -4.9241    0.0000 C   0  0  0  0  0  0  0  0  0  0  0  0
    3.3750   -5.7491    0.0000 C   0  0  0  0  0  0  0  0  0  0  0  0
    4.0895   -6.1616    0.0000 C   0  0  0  0  0  0  0  0  0  0  0  0
    4.8039   -5.7491    0.0000 C   0  0  0  0  0  0  0  0  0  0  0  0
    5.5184   -6.1616    0.0000 C   0  0  0  0  0  0  0  0  0  0  0  0
    6.2329   -5.7491    0.0000 C   0  0  0  0  0  0  0  0  0  0  0  0
    6.2329   -4.9241    0.0000 C   0  0  0  0  0  0  0  0  0  0  0  0
    6.2341   -8.2167    0.0000 C   0  0  2  0  0  0  0  0  0  0  0  0
    6.9480   -8.6302    0.0000 C   0  0  1  0  0  0  0  0  0  0  0  0
    7.6630   -8.2188    0.0000 C   0  0  1  0  0  0  0  0  0  0  0  0
    7.6642   -7.3938    0.0000 C   0  0  2  0  0  0  0  0  0  0  0  0
    6.9504   -6.9803    0.0000 C   0  0  1  0  0  0  0  0  0  0  0  0
    6.2353   -7.3917    0.0000 O   0  0  0  0  0  0  0  0  0  0  0  0
    6.9468   -9.4552    0.0000 O   0  0  0  0  0  0  0  0  0  0  0  0
    5.5190   -8.6282    0.0000 C   0  0  0  0  0  0  0  0  0  0  0  0
    8.3769   -8.6323    0.0000 O   0  0  0  0  0  0  0  0  0  0  0  0
    8.3793   -6.9823    0.0000 O   0  0  0  0  0  0  0  0  0  0  0  0
    5.5291   -9.4598    0.0000 O   0  0  0  0  0  0  0  0  0  0  0  0
    4.8138   -9.8710    0.0000 C   0  0  0  0  0  0  0  0  0  0  0  0
    4.1001   -9.4571    0.0000 C   0  0  0  0  0  0  0  0  0  0  0  0
    3.3849   -9.8682    0.0000 C   0  0  0  0  0  0  0  0  0  0  0  0
    3.3833  -10.6932    0.0000 C   0  0  0  0  0  0  0  0  0  0  0  0
    2.6680  -11.1044    0.0000 C   0  0  0  0  0  0  0  0  0  0  0  0
    2.6665  -11.9294    0.0000 C   0  0  0  0  0  0  0  0  0  0  0  0
    3.3801  -12.3432    0.0000 C   0  0  0  0  0  0  0  0  0  0  0  0
    4.0954  -11.9321    0.0000 C   0  0  0  0  0  0  0  0  0  0  0  0
    4.0970  -11.1071    0.0000 C   0  0  0  0  0  0  0  0  0  0  0  0
    4.8122  -10.6960    0.0000 O   0  0  0  0  0  0  0  0  0  0  0  0
    3.3785  -13.1682    0.0000 O   0  0  0  0  0  0  0  0  0  0  0  0
 21  7  1  0  0  0  0
  4  1  1  0  0  0  0
  7  2  2  0  0  0  0
  3  2  1  0  0  0  0
  4  3  2  0  0  0  0
  5  4  1  0  0  0  0
  6  5  2  0  0  0  0
  7  6  1  0  0  0  0
 20  8  1  0  0  0  0
 17  9  1  0  0  0  0
 15 10  1  0  0  0  0
 19 11  2  0  0  0  0
 21 12  1  0  0  0  0
 13 12  1  0  0  0  0
 18 13  2  0  0  0  0
 14 13  1  0  0  0  0
 15 14  2  0  0  0  0
 16 15  1  0  0  0  0
 17 16  2  0  0  0  0
 18 17  1  0  0  0  0
 19 18  1  0  0  0  0
 20 19  1  0  0  0  0
 21 20  2  0  0  0  0
 22 23  1  0  0  0  0
 23 24  1  0  0  0  0
 24 25  1  0  0  0  0
 25 26  1  0  0  0  0
 26 27  1  0  0  0  0
 27 22  1  0  0  0  0
 23 28  1  1  0  0  0
 22 29  1  1  0  0  0
 24 30  1  1  0  0  0
 25 31  1  6  0  0  0
 26  8  1  1  0  0  0
 33 34  1  0  0  0  0
 34 35  2  0  0  0  0
 35 36  1  0  0  0  0
 36 37  1  0  0  0  0
 37 38  2  0  0  0  0
 38 39  1  0  0  0  0
 39 40  2  0  0  0  0
 40 41  1  0  0  0  0
 36 41  2  0  0  0  0
 33 42  2  0  0  0  0
 39 43  1  0  0  0  0
 32 33  1  0  0  0  0
 32 29  1  0  0  0  0
M  END
>  <cdx:fragmentId>
5

$$$$
