95394.cdx
  Mrv1902 05222410282D          

 16 17  0  0  0  0            999 V2000
    6.8419   -9.0828    0.0000 H   0  0  0  0  0  0  0  0  0  0  0  0
    6.1274   -6.1953    0.0000 C   0  0  0  0  0  0  0  0  0  0  0  0
    8.9853   -8.6703    0.0000 C   0  0  0  0  0  0  0  0  0  0  0  0
    5.4129   -9.9078    0.0000 C   0  0  0  0  0  0  0  0  0  0  0  0
    6.1274   -9.4953    0.0000 C   0  0  0  0  0  0  0  0  0  0  0  0
    6.8419   -9.9078    0.0000 C   0  0  0  0  0  0  0  0  0  0  0  0
    6.8419   -8.2578    0.0000 C   0  0  2  0  0  0  0  0  0  0  0  0
    7.5563   -8.6703    0.0000 C   0  0  0  0  0  0  0  0  0  0  0  0
    8.2708   -8.2578    0.0000 C   0  0  0  0  0  0  0  0  0  0  0  0
    8.2708   -7.4328    0.0000 C   0  0  0  0  0  0  0  0  0  0  0  0
    7.5563   -7.0203    0.0000 C   0  0  0  0  0  0  0  0  0  0  0  0
    6.8419   -7.4328    0.0000 C   0  0  0  0  0  0  0  0  0  0  0  0
    6.1274   -7.0203    0.0000 C   0  0  0  0  0  0  0  0  0  0  0  0
    5.4129   -7.4328    0.0000 C   0  0  0  0  0  0  0  0  0  0  0  0
    5.4129   -8.2578    0.0000 C   0  0  0  0  0  0  0  0  0  0  0  0
    6.1274   -8.6703    0.0000 C   0  0  2  0  0  0  0  0  0  0  0  0
  7  1  1  6  0  0  0
 13  2  1  0  0  0  0
  9  3  1  0  0  0  0
 16  5  1  1  0  0  0
  5  4  1  0  0  0  0
  6  5  1  0  0  0  0
 12  7  1  0  0  0  0
 16  7  1  0  0  0  0
  8  7  1  0  0  0  0
  9  8  2  0  0  0  0
 10  9  1  0  0  0  0
 11 10  1  0  0  0  0
 12 11  1  0  0  0  0
 13 12  2  0  0  0  0
 14 13  1  0  0  0  0
 15 14  1  0  0  0  0
 16 15  1  0  0  0  0
M  END
>  <cdx:groupId>
51

>  <cdx:fragmentId>
5

$$$$
