95390.cdx
  Mrv1902 05222410262D          

 42 46  0  0  0  0            999 V2000
    8.8993   -7.6260    0.0000 C   0  0  0  0  0  0  0  0  0  0  0  0
    8.8993   -8.4510    0.0000 C   0  0  0  0  0  0  0  0  0  0  0  0
    8.1849   -8.8635    0.0000 C   0  0  0  0  0  0  0  0  0  0  0  0
    8.1849   -9.6885    0.0000 O   0  0  0  0  0  0  0  0  0  0  0  0
    7.4704   -8.4510    0.0000 C   0  0  0  0  0  0  0  0  0  0  0  0
    6.7559   -8.8635    0.0000 C   0  0  0  0  0  0  0  0  0  0  0  0
    6.7559   -9.6885    0.0000 O   0  0  0  0  0  0  0  0  0  0  0  0
    6.0414   -8.4510    0.0000 C   0  0  0  0  0  0  0  0  0  0  0  0
    6.0414   -7.6260    0.0000 C   0  0  0  0  0  0  0  0  0  0  0  0
    5.3270   -7.2135    0.0000 O   0  0  0  0  0  0  0  0  0  0  0  0
    6.7559   -7.2135    0.0000 C   0  0  0  0  0  0  0  0  0  0  0  0
    7.4704   -7.6260    0.0000 C   0  0  0  0  0  0  0  0  0  0  0  0
    8.1849   -7.2135    0.0000 O   0  0  0  0  0  0  0  0  0  0  0  0
    9.6138   -7.2135    0.0000 C   0  0  0  0  0  0  0  0  0  0  0  0
   10.3283   -7.6260    0.0000 C   0  0  0  0  0  0  0  0  0  0  0  0
   11.0427   -7.2135    0.0000 C   0  0  0  0  0  0  0  0  0  0  0  0
   11.7572   -7.6260    0.0000 O   0  0  0  0  0  0  0  0  0  0  0  0
   11.0427   -6.3885    0.0000 C   0  0  0  0  0  0  0  0  0  0  0  0
   11.7572   -5.9760    0.0000 O   0  0  0  0  0  0  0  0  0  0  0  0
   10.3283   -5.9760    0.0000 C   0  0  0  0  0  0  0  0  0  0  0  0
    9.6138   -6.3885    0.0000 C   0  0  0  0  0  0  0  0  0  0  0  0
    5.3447   -8.8379    0.0000 C   0  0  0  0  0  0  0  0  0  0  0  0
    5.3405   -9.6629    0.0000 C   0  0  0  0  0  0  0  0  0  0  0  0
    6.0528  -10.0790    0.0000 O   0  0  0  0  0  0  0  0  0  0  0  0
    4.6239  -10.0717    0.0000 C   0  0  0  0  0  0  0  0  0  0  0  0
    4.6197  -10.8967    0.0000 O   0  0  0  0  0  0  0  0  0  0  0  0
    3.9115   -9.6556    0.0000 C   0  0  0  0  0  0  0  0  0  0  0  0
    3.1950  -10.0645    0.0000 O   0  0  0  0  0  0  0  0  0  0  0  0
    3.9157   -8.8306    0.0000 C   0  0  0  0  0  0  0  0  0  0  0  0
    4.6323   -8.4217    0.0000 O   0  0  0  0  0  0  0  0  0  0  0  0
    3.2034   -8.4145    0.0000 C   0  0  0  0  0  0  0  0  0  0  0  0
    2.4868   -8.8233    0.0000 O   0  0  0  0  0  0  0  0  0  0  0  0
    6.7593   -6.4676    0.0000 C   0  0  1  0  0  0  0  0  0  0  0  0
    6.0459   -6.0534    0.0000 C   0  0  2  0  0  0  0  0  0  0  0  0
    5.3304   -6.4641    0.0000 O   0  0  0  0  0  0  0  0  0  0  0  0
    6.0480   -5.2284    0.0000 C   0  0  2  0  0  0  0  0  0  0  0  0
    5.3345   -4.8141    0.0000 O   0  0  0  0  0  0  0  0  0  0  0  0
    6.7635   -4.8177    0.0000 C   0  0  1  0  0  0  0  0  0  0  0  0
    6.7655   -3.9927    0.0000 O   0  0  0  0  0  0  0  0  0  0  0  0
    7.4769   -5.2319    0.0000 C   0  0  1  0  0  0  0  0  0  0  0  0
    7.4748   -6.0569    0.0000 O   0  0  0  0  0  0  0  0  0  0  0  0
    8.1924   -4.8212    0.0000 C   0  0  0  0  0  0  0  0  0  0  0  0
  1  2  2  0  0  0  0
  2  3  1  0  0  0  0
  3  4  2  0  0  0  0
  3  5  1  0  0  0  0
  5  6  1  0  0  0  0
  6  7  1  0  0  0  0
  6  8  2  0  0  0  0
  8  9  1  0  0  0  0
  9 10  1  0  0  0  0
  9 11  2  0  0  0  0
 11 12  1  0  0  0  0
  5 12  2  0  0  0  0
 12 13  1  0  0  0  0
  1 13  1  0  0  0  0
  1 14  1  0  0  0  0
 14 15  1  0  0  0  0
 15 16  2  0  0  0  0
 16 17  1  0  0  0  0
 16 18  1  0  0  0  0
 18 19  1  0  0  0  0
 18 20  2  0  0  0  0
 20 21  1  0  0  0  0
 14 21  2  0  0  0  0
 23 24  1  0  0  0  0
 23 22  1  0  0  0  0
 25 26  1  0  0  0  0
 25 23  1  0  0  0  0
 27 28  1  0  0  0  0
 27 25  1  0  0  0  0
 29 30  1  0  0  0  0
 29 27  1  0  0  0  0
 31 32  1  0  0  0  0
 31 29  1  0  0  0  0
 22 30  1  0  0  0  0
 33 34  1  0  0  0  0
 34 35  1  6  0  0  0
 34 36  1  0  0  0  0
 36 37  1  6  0  0  0
 36 38  1  0  0  0  0
 38 39  1  1  0  0  0
 38 40  1  0  0  0  0
 40 41  1  0  0  0  0
 40 42  1  6  0  0  0
 33 41  1  0  0  0  0
 22  8  1  0  0  0  0
 33 11  1  1  0  0  0
M  END
>  <cdx:fragmentId>
5

$$$$
