95404.cdx
  Mrv1902 05222410202D          

 31 32  0  0  0  0            999 V2000
    5.7731   -7.5213    0.0000 C   0  0  0  0  0  0  0  0  0  0  0  0
    5.7731   -8.3462    0.0000 C   0  0  0  0  0  0  0  0  0  0  0  0
    6.4875   -8.7588    0.0000 C   0  0  0  0  0  0  0  0  0  0  0  0
    7.2020   -8.3462    0.0000 C   0  0  0  0  0  0  0  0  0  0  0  0
    7.2020   -7.5213    0.0000 C   0  0  0  0  0  0  0  0  0  0  0  0
    6.4875   -7.1088    0.0000 C   0  0  0  0  0  0  0  0  0  0  0  0
    7.9165   -8.7588    0.0000 O   0  0  0  0  0  0  0  0  0  0  0  0
    8.6309   -7.5213    0.0000 C   0  0  0  0  0  0  0  0  0  0  0  0
    7.9165   -7.1088    0.0000 C   0  0  0  0  0  0  0  0  0  0  0  0
    9.3454   -8.7588    0.0000 O   0  0  0  0  0  0  0  0  0  0  0  0
   10.0599   -8.3462    0.0000 C   0  0  0  0  0  0  0  0  0  0  0  0
   10.0599   -7.5213    0.0000 C   0  0  0  0  0  0  0  0  0  0  0  0
    9.3454   -7.1088    0.0000 C   0  0  0  0  0  0  0  0  0  0  0  0
   10.7744   -8.7588    0.0000 C   0  0  0  0  0  0  0  0  0  0  0  0
   11.4888   -8.3462    0.0000 C   0  0  0  0  0  0  0  0  0  0  0  0
   11.4888   -7.5213    0.0000 C   0  0  0  0  0  0  0  0  0  0  0  0
   10.7744   -7.1088    0.0000 C   0  0  0  0  0  0  0  0  0  0  0  0
    6.4875   -6.2837    0.0000 O   0  0  0  0  0  0  0  0  0  0  0  0
    7.9165   -6.2837    0.0000 O   0  0  0  0  0  0  0  0  0  0  0  0
   12.2033   -8.7588    0.0000 O   0  0  0  0  0  0  0  0  0  0  0  0
    5.0820   -8.7668    0.0000 C   0  0  0  0  0  0  0  0  0  0  0  0
    4.3649   -8.3590    0.0000 C   0  0  0  0  0  0  0  0  0  0  0  0
    3.6531   -8.7762    0.0000 C   0  0  0  0  0  0  0  0  0  0  0  0
    4.3595   -7.5340    0.0000 C   0  0  0  0  0  0  0  0  0  0  0  0
    5.0712   -7.1169    0.0000 C   0  0  0  0  0  0  0  0  0  0  0  0
    3.6423   -7.1262    0.0000 C   0  0  0  0  0  0  0  0  0  0  0  0
    2.9305   -7.5434    0.0000 C   0  0  0  0  0  0  0  0  0  0  0  0
    2.2134   -7.1356    0.0000 C   0  0  0  0  0  0  0  0  0  0  0  0
    1.5016   -7.5527    0.0000 C   0  0  0  0  0  0  0  0  0  0  0  0
    2.2080   -6.3106    0.0000 C   0  0  0  0  0  0  0  0  0  0  0  0
    5.7731   -9.1713    0.0000 O   0  0  0  0  0  0  0  0  0  0  0  0
  1  2  2  0  0  0  0
  2  3  1  0  0  0  0
  3  4  2  0  0  0  0
  4  5  1  0  0  0  0
  5  6  2  0  0  0  0
  6  1  1  0  0  0  0
  4  7  1  0  0  0  0
  8  9  1  0  0  0  0
  9  5  1  0  0  0  0
 10 11  1  0  0  0  0
 11 12  2  0  0  0  0
 12 13  1  0  0  0  0
 13  8  2  0  0  0  0
 11 14  1  0  0  0  0
 14 15  2  0  0  0  0
 15 16  1  0  0  0  0
 16 17  2  0  0  0  0
 17 12  1  0  0  0  0
  6 18  1  0  0  0  0
  9 19  2  0  0  0  0
 15 20  1  0  0  0  0
 21 22  2  0  0  0  0
 22 23  1  0  0  0  0
 22 24  1  0  0  0  0
 24 25  1  0  0  0  0
 24 26  1  0  0  0  0
 26 27  1  0  0  0  0
 27 28  2  0  0  0  0
 28 29  1  0  0  0  0
 28 30  1  0  0  0  0
  2 31  1  0  0  0  0
 25  1  1  0  0  0  0
M  END
>  <cdx:fragmentId>
5

$$$$
