95408.cdx
  Mrv1902 05222410262D          

 48 53  0  0  0  0            999 V2000
    5.4843   -8.1263    0.0000 C   0  0  0  0  0  0  0  0  0  0  0  0
    5.4843   -8.9513    0.0000 C   0  0  1  0  0  0  0  0  0  0  0  0
    6.1988   -9.3637    0.0000 C   0  0  1  0  0  0  0  0  0  0  0  0
    6.9132   -8.9513    0.0000 C   0  0  1  0  0  0  0  0  0  0  0  0
    6.9132   -8.1263    0.0000 C   0  0  2  0  0  0  0  0  0  0  0  0
    6.1988   -7.7138    0.0000 C   0  0  0  0  0  0  0  0  0  0  0  0
    7.6277   -9.3637    0.0000 C   0  0  0  0  0  0  0  0  0  0  0  0
    8.3422   -8.9513    0.0000 C   0  0  0  0  0  0  0  0  0  0  0  0
    8.3422   -8.1263    0.0000 C   0  0  2  0  0  0  0  0  0  0  0  0
    7.6277   -7.7138    0.0000 C   0  0  2  0  0  0  0  0  0  0  0  0
    9.0567   -7.7138    0.0000 C   0  0  1  0  0  0  0  0  0  0  0  0
    9.0567   -6.8888    0.0000 C   0  0  0  0  0  0  0  0  0  0  0  0
    8.3422   -6.4763    0.0000 C   0  0  0  0  0  0  0  0  0  0  0  0
    7.6277   -6.8888    0.0000 C   0  0  0  0  0  0  0  0  0  0  0  0
    9.7711   -8.1263    0.0000 C   0  0  0  0  0  0  0  0  0  0  0  0
   10.4856   -7.7138    0.0000 C   0  0  0  0  0  0  0  0  0  0  0  0
   10.4856   -6.8888    0.0000 C   0  0  2  0  0  0  0  0  0  0  0  0
    9.7711   -6.4763    0.0000 C   0  0  1  0  0  0  0  0  0  0  0  0
   11.2001   -6.4763    0.0000 C   0  0  0  0  0  0  0  0  0  0  0  0
   11.2001   -5.6512    0.0000 C   0  0  0  0  0  0  0  0  0  0  0  0
   10.4856   -5.2387    0.0000 C   0  0  0  0  0  0  0  0  0  0  0  0
    9.7711   -5.6512    0.0000 C   0  0  0  0  0  0  0  0  0  0  0  0
   11.2001   -8.1263    0.0000 O   0  0  0  0  0  0  0  0  0  0  0  0
   10.0731   -4.5243    0.0000 C   0  0  0  0  0  0  0  0  0  0  0  0
    8.3422   -7.3012    0.0000 C   0  0  0  0  0  0  0  0  0  0  0  0
    6.9132   -7.3012    0.0000 C   0  0  0  0  0  0  0  0  0  0  0  0
    5.7863  -10.0782    0.0000 C   0  0  0  0  0  0  0  0  0  0  0  0
    6.6113  -10.0782    0.0000 C   0  0  0  0  0  0  0  0  0  0  0  0
    9.0567   -8.5388    0.0000 C   0  0  0  0  0  0  0  0  0  0  0  0
   10.8981   -4.5243    0.0000 C   0  0  0  0  0  0  0  0  0  0  0  0
    4.7698   -9.3637    0.0000 O   0  0  0  0  0  0  0  0  0  0  0  0
    4.0554   -8.9513    0.0000 C   0  0  2  0  0  0  0  0  0  0  0  0
    4.0554   -8.1263    0.0000 O   0  0  0  0  0  0  0  0  0  0  0  0
    3.3409   -7.7138    0.0000 C   0  0  1  0  0  0  0  0  0  0  0  0
    2.6264   -8.1263    0.0000 C   0  0  2  0  0  0  0  0  0  0  0  0
    2.6264   -8.9513    0.0000 C   0  0  1  0  0  0  0  0  0  0  0  0
    3.3409   -9.3637    0.0000 C   0  0  1  0  0  0  0  0  0  0  0  0
    1.9119   -9.3637    0.0000 O   0  0  0  0  0  0  0  0  0  0  0  0
    1.9119   -7.7138    0.0000 O   0  0  0  0  0  0  0  0  0  0  0  0
    3.3409  -10.1887    0.0000 O   0  0  0  0  0  0  0  0  0  0  0  0
    2.6264   -6.4763    0.0000 O   0  0  0  0  0  0  0  0  0  0  0  0
    4.0554   -6.4763    0.0000 O   0  0  0  0  0  0  0  0  0  0  0  0
    3.3409   -6.8888    0.0000 C   0  0  0  0  0  0  0  0  0  0  0  0
    6.1988  -10.7927    0.0000 O   0  0  0  0  0  0  0  0  0  0  0  0
    7.6277   -8.5388    0.0000 H   0  0  0  0  0  0  0  0  0  0  0  0
    6.9132   -9.7763    0.0000 H   0  0  0  0  0  0  0  0  0  0  0  0
    9.0567   -6.0638    0.0000 H   0  0  0  0  0  0  0  0  0  0  0  0
   11.2001   -7.3012    0.0000 H   0  0  0  0  0  0  0  0  0  0  0  0
  1  2  1  0  0  0  0
  2  3  1  0  0  0  0
  3  4  1  0  0  0  0
  4  5  1  0  0  0  0
  5  6  1  0  0  0  0
  6  1  1  0  0  0  0
  4  7  1  0  0  0  0
  7  8  1  0  0  0  0
  8  9  1  0  0  0  0
  9 10  1  0  0  0  0
 10  5  1  0  0  0  0
  9 11  1  0  0  0  0
 11 12  1  0  0  0  0
 12 13  2  0  0  0  0
 13 14  1  0  0  0  0
 14 10  1  0  0  0  0
 11 15  1  0  0  0  0
 15 16  1  0  0  0  0
 16 17  1  0  0  0  0
 17 18  1  0  0  0  0
 18 12  1  0  0  0  0
 17 19  1  0  0  0  0
 19 20  1  0  0  0  0
 20 21  1  0  0  0  0
 21 22  1  0  0  0  0
 22 18  1  0  0  0  0
 16 23  2  0  0  0  0
 21 24  1  0  0  0  0
  9 25  1  1  0  0  0
  5 26  1  1  0  0  0
  3 27  1  1  0  0  0
  3 28  1  6  0  0  0
 11 29  1  6  0  0  0
 21 30  1  0  0  0  0
  2 31  1  1  0  0  0
 32 31  1  1  0  0  0
 32 33  1  0  0  0  0
 33 34  1  0  0  0  0
 34 35  1  0  0  0  0
 35 36  1  0  0  0  0
 36 37  1  0  0  0  0
 37 32  1  0  0  0  0
 43 41  1  0  0  0  0
 34 43  1  1  0  0  0
 36 38  1  1  0  0  0
 35 39  1  6  0  0  0
 37 40  1  6  0  0  0
 43 42  2  0  0  0  0
 27 44  1  0  0  0  0
 10 45  1  6  0  0  0
  4 46  1  6  0  0  0
 18 47  1  1  0  0  0
 17 48  1  1  0  0  0
M  END
>  <cdx:fragmentId>
5

$$$$
