95409.cdx
  Mrv1902 05222410262D          

 13 14  0  0  0  0            999 V2000
    8.2708   -9.2887    0.0000 C   0  0  0  0  0  0  0  0  0  0  0  0
    7.5563   -9.7012    0.0000 C   0  0  0  0  0  0  0  0  0  0  0  0
    6.8419   -9.2887    0.0000 C   0  0  0  0  0  0  0  0  0  0  0  0
    6.8419   -8.4637    0.0000 C   0  0  0  0  0  0  0  0  0  0  0  0
    7.5563   -8.0512    0.0000 C   0  0  0  0  0  0  0  0  0  0  0  0
    8.2708   -8.4637    0.0000 O   0  0  0  0  0  0  0  0  0  0  0  0
    6.1274   -8.0512    0.0000 C   0  0  0  0  0  0  0  0  0  0  0  0
    5.4129   -8.4637    0.0000 C   0  0  0  0  0  0  0  0  0  0  0  0
    5.4129   -9.2887    0.0000 C   0  0  0  0  0  0  0  0  0  0  0  0
    6.1274   -9.7012    0.0000 C   0  0  0  0  0  0  0  0  0  0  0  0
    7.5563   -7.2262    0.0000 O   0  0  0  0  0  0  0  0  0  0  0  0
    8.9853   -9.7012    0.0000 C   0  0  0  0  0  0  0  0  0  0  0  0
    6.1274   -7.2262    0.0000 O   0  0  0  0  0  0  0  0  0  0  0  0
  1  2  1  0  0  0  0
  2  3  1  0  0  0  0
  3  4  1  0  0  0  0
  4  5  1  0  0  0  0
  5  6  1  0  0  0  0
  1  6  1  0  0  0  0
  7  8  1  0  0  0  0
  8  9  2  0  0  0  0
  9 10  1  0  0  0  0
 10  3  2  0  0  0  0
  7  4  2  0  0  0  0
  5 11  2  0  0  0  0
  1 12  1  0  0  0  0
  7 13  1  0  0  0  0
M  END
>  <cdx:groupId>
42

>  <cdx:fragmentId>
5

$$$$
