9540.cdx
  Mrv1902 05222410182D          

 38 42  0  0  0  0            999 V2000
    3.1817  -10.4479    0.0000 C   0  0  0  0  0  0  0  0  0  0  0  0
    3.1817  -11.2729    0.0000 C   0  0  0  0  0  0  0  0  0  0  0  0
    3.8961  -11.6854    0.0000 C   0  0  0  0  0  0  0  0  0  0  0  0
    4.6106  -11.2729    0.0000 C   0  0  0  0  0  0  0  0  0  0  0  0
    5.3251  -11.6854    0.0000 C   0  0  0  0  0  0  0  0  0  0  0  0
    6.0395  -11.2729    0.0000 C   0  0  0  0  0  0  0  0  0  0  0  0
    6.0395  -10.4479    0.0000 C   0  0  0  0  0  0  0  0  0  0  0  0
    5.3251  -10.0354    0.0000 C   0  0  0  0  0  0  0  0  0  0  0  0
    4.6106  -10.4479    0.0000 C   0  0  0  0  0  0  0  0  0  0  0  0
    3.8961  -10.0354    0.0000 O   0  0  0  0  0  0  0  0  0  0  0  0
    6.8242  -10.1930    0.0000 O   0  0  0  0  0  0  0  0  0  0  0  0
    6.8242  -11.5278    0.0000 C   0  0  0  0  0  0  0  0  0  0  0  0
    7.3091  -10.8604    0.0000 C   0  0  0  0  0  0  0  0  0  0  0  0
    2.4672  -10.0354    0.0000 O   0  0  0  0  0  0  0  0  0  0  0  0
    8.8486  -11.2729    0.0000 C   0  0  0  0  0  0  0  0  0  0  0  0
    8.1341  -10.8604    0.0000 C   0  0  0  0  0  0  0  0  0  0  0  0
    8.1341  -11.6854    0.0000 C   0  0  0  0  0  0  0  0  0  0  0  0
    8.5466  -10.1459    0.0000 O   0  0  0  0  0  0  0  0  0  0  0  0
    9.2626   -8.9093    0.0000 O   0  0  0  0  0  0  0  0  0  0  0  0
    8.5476   -9.3209    0.0000 C   0  0  2  0  0  0  0  0  0  0  0  0
    7.8336   -8.9076    0.0000 C   0  0  1  0  0  0  0  0  0  0  0  0
    7.8346   -8.0826    0.0000 C   0  0  2  0  0  0  0  0  0  0  0  0
    8.5496   -7.6709    0.0000 C   0  0  1  0  0  0  0  0  0  0  0  0
    9.2636   -8.0843    0.0000 C   0  0  1  0  0  0  0  0  0  0  0  0
    8.5506   -6.8459    0.0000 O   0  0  0  0  0  0  0  0  0  0  0  0
    7.1207   -7.6692    0.0000 O   0  0  0  0  0  0  0  0  0  0  0  0
    7.1186   -9.3192    0.0000 O   0  0  0  0  0  0  0  0  0  0  0  0
    9.9785   -7.6727    0.0000 C   0  0  0  0  0  0  0  0  0  0  0  0
    9.9795   -6.8477    0.0000 O   0  0  0  0  0  0  0  0  0  0  0  0
   11.4478   -6.7725    0.0000 O   0  0  0  0  0  0  0  0  0  0  0  0
   10.6945   -6.4360    0.0000 C   0  0  2  0  0  0  0  0  0  0  0  0
   10.7818   -5.6157    0.0000 C   0  0  1  0  0  0  0  0  0  0  0  0
   11.5889   -5.4451    0.0000 C   0  0  2  0  0  0  0  0  0  0  0  0
   12.0006   -6.1601    0.0000 C   0  0  0  0  0  0  0  0  0  0  0  0
   11.5037   -4.6245    0.0000 C   0  0  0  0  0  0  0  0  0  0  0  0
   12.1717   -4.1404    0.0000 O   0  0  0  0  0  0  0  0  0  0  0  0
   12.2570   -4.9610    0.0000 O   0  0  0  0  0  0  0  0  0  0  0  0
   10.1693   -5.0629    0.0000 O   0  0  0  0  0  0  0  0  0  0  0  0
  1  2  1  0  0  0  0
  2  3  2  0  0  0  0
  3  4  1  0  0  0  0
  4  5  2  0  0  0  0
  5  6  1  0  0  0  0
  6  7  2  0  0  0  0
  7  8  1  0  0  0  0
  8  9  2  0  0  0  0
  4  9  1  0  0  0  0
  9 10  1  0  0  0  0
  1 10  1  0  0  0  0
 12 13  1  0  0  0  0
 11 13  1  0  0  0  0
 12  6  1  0  0  0  0
 11  7  1  0  0  0  0
  1 14  2  0  0  0  0
 15 16  1  0  0  0  0
 16 17  1  0  0  0  0
 19 20  1  0  0  0  0
 20 21  1  0  0  0  0
 21 22  1  0  0  0  0
 22 23  1  0  0  0  0
 23 24  1  0  0  0  0
 19 24  1  0  0  0  0
 23 25  1  6  0  0  0
 22 26  1  1  0  0  0
 21 27  1  6  0  0  0
 30 31  1  0  0  0  0
 31 32  1  0  0  0  0
 32 33  1  0  0  0  0
 33 34  1  0  0  0  0
 30 34  1  0  0  0  0
 35 36  1  0  0  0  0
 33 35  1  1  0  0  0
 33 37  1  6  0  0  0
 32 38  1  6  0  0  0
 31 29  1  1  0  0  0
 28 29  1  0  0  0  0
 24 28  1  1  0  0  0
 20 18  1  1  0  0  0
 16 18  1  0  0  0  0
 13 16  1  0  0  0  0
M  END
>  <cdx:fragmentId>
63

$$$$
