95401.cdx
  Mrv1902 05222410182D          

 45 48  0  0  0  0            999 V2000
    6.1581   -7.3150    0.0000 C   0  0  2  0  0  0  0  0  0  0  0  0
    6.1581   -8.1400    0.0000 C   0  0  2  0  0  0  0  0  0  0  0  0
    6.8725   -8.5525    0.0000 C   0  0  1  0  0  0  0  0  0  0  0  0
    7.5870   -8.1400    0.0000 C   0  0  2  0  0  0  0  0  0  0  0  0
    7.5870   -7.3150    0.0000 C   0  0  1  0  0  0  0  0  0  0  0  0
    6.8725   -6.9025    0.0000 O   0  0  0  0  0  0  0  0  0  0  0  0
    5.4436   -6.9025    0.0000 C   0  0  0  0  0  0  0  0  0  0  0  0
    8.3015   -6.9025    0.0000 O   0  0  0  0  0  0  0  0  0  0  0  0
    6.8725   -9.3775    0.0000 O   0  0  0  0  0  0  0  0  0  0  0  0
    5.4436   -8.5525    0.0000 O   0  0  0  0  0  0  0  0  0  0  0  0
    8.3015   -8.5525    0.0000 O   0  0  0  0  0  0  0  0  0  0  0  0
    4.7291   -7.3150    0.0000 O   0  0  0  0  0  0  0  0  0  0  0  0
   10.4313   -5.6823    0.0000 C   0  0  0  0  0  0  0  0  0  0  0  0
    9.7146   -6.0910    0.0000 C   0  0  0  0  0  0  0  0  0  0  0  0
    9.7102   -6.9160    0.0000 C   0  0  0  0  0  0  0  0  0  0  0  0
   10.4224   -7.3323    0.0000 C   0  0  0  0  0  0  0  0  0  0  0  0
   11.1391   -6.9236    0.0000 C   0  0  0  0  0  0  0  0  0  0  0  0
   11.1435   -6.0986    0.0000 C   0  0  0  0  0  0  0  0  0  0  0  0
   10.4357   -4.8573    0.0000 O   0  0  0  0  0  0  0  0  0  0  0  0
   11.8602   -5.6900    0.0000 O   0  0  0  0  0  0  0  0  0  0  0  0
   11.8513   -7.3400    0.0000 O   0  0  0  0  0  0  0  0  0  0  0  0
    8.9935   -7.3246    0.0000 C   0  0  0  0  0  0  0  0  0  0  0  0
    8.9890   -8.1496    0.0000 O   0  0  0  0  0  0  0  0  0  0  0  0
    6.8719  -11.8716    0.0000 C   0  0  0  0  0  0  0  0  0  0  0  0
    6.8720  -11.0466    0.0000 C   0  0  0  0  0  0  0  0  0  0  0  0
    6.1576  -10.6340    0.0000 C   0  0  0  0  0  0  0  0  0  0  0  0
    5.4431  -11.0464    0.0000 C   0  0  0  0  0  0  0  0  0  0  0  0
    5.4430  -11.8714    0.0000 C   0  0  0  0  0  0  0  0  0  0  0  0
    6.1574  -12.2840    0.0000 C   0  0  0  0  0  0  0  0  0  0  0  0
    7.5863  -12.2843    0.0000 O   0  0  0  0  0  0  0  0  0  0  0  0
    6.1572  -13.1090    0.0000 O   0  0  0  0  0  0  0  0  0  0  0  0
    4.7284  -12.2838    0.0000 O   0  0  0  0  0  0  0  0  0  0  0  0
    6.1578   -9.8090    0.0000 C   0  0  0  0  0  0  0  0  0  0  0  0
    5.4434   -9.3964    0.0000 O   0  0  0  0  0  0  0  0  0  0  0  0
   10.4519   -9.7887    0.0000 C   0  0  0  0  0  0  0  0  0  0  0  0
    9.7356   -9.3794    0.0000 C   0  0  0  0  0  0  0  0  0  0  0  0
    9.0229   -9.7951    0.0000 C   0  0  0  0  0  0  0  0  0  0  0  0
    9.0266  -10.6200    0.0000 C   0  0  0  0  0  0  0  0  0  0  0  0
    9.7429  -11.0294    0.0000 C   0  0  0  0  0  0  0  0  0  0  0  0
   10.4555  -10.6137    0.0000 C   0  0  0  0  0  0  0  0  0  0  0  0
   11.1645   -9.3730    0.0000 O   0  0  0  0  0  0  0  0  0  0  0  0
   11.1718  -11.0230    0.0000 O   0  0  0  0  0  0  0  0  0  0  0  0
    9.7466  -11.8544    0.0000 O   0  0  0  0  0  0  0  0  0  0  0  0
    8.3066   -9.3857    0.0000 C   0  0  0  0  0  0  0  0  0  0  0  0
    7.5940   -9.8014    0.0000 O   0  0  0  0  0  0  0  0  0  0  0  0
  1  2  1  0  0  0  0
  2  3  1  0  0  0  0
  3  4  1  0  0  0  0
  4  5  1  0  0  0  0
  5  6  1  0  0  0  0
  6  1  1  0  0  0  0
  1  7  1  1  0  0  0
  5  8  1  1  0  0  0
  3  9  1  1  0  0  0
  2 10  1  6  0  0  0
  4 11  1  6  0  0  0
  7 12  1  0  0  0  0
 13 14  2  0  0  0  0
 14 15  1  0  0  0  0
 15 16  2  0  0  0  0
 16 17  1  0  0  0  0
 17 18  2  0  0  0  0
 18 13  1  0  0  0  0
 13 19  1  0  0  0  0
 18 20  1  0  0  0  0
 17 21  1  0  0  0  0
 15 22  1  0  0  0  0
 22 23  2  0  0  0  0
 24 25  2  0  0  0  0
 25 26  1  0  0  0  0
 26 27  2  0  0  0  0
 27 28  1  0  0  0  0
 28 29  2  0  0  0  0
 29 24  1  0  0  0  0
 24 30  1  0  0  0  0
 29 31  1  0  0  0  0
 28 32  1  0  0  0  0
 26 33  1  0  0  0  0
 33 34  2  0  0  0  0
 35 36  2  0  0  0  0
 36 37  1  0  0  0  0
 37 38  2  0  0  0  0
 38 39  1  0  0  0  0
 39 40  2  0  0  0  0
 40 35  1  0  0  0  0
 35 41  1  0  0  0  0
 40 42  1  0  0  0  0
 39 43  1  0  0  0  0
 37 44  1  0  0  0  0
 44 45  2  0  0  0  0
 44 11  1  0  0  0  0
 33  9  1  0  0  0  0
  8 22  1  0  0  0  0
M  END
>  <cdx:fragmentId>
5

$$$$
