95400.cdx
  Mrv1902 05222410182D          

 12 11  0  0  0  0            999 V2000
    3.4962   -8.6229    0.0000 C   0  0  0  0  0  0  0  0  0  0  0  0
   10.6409   -8.6229    0.0000 O   0  0  0  0  0  0  0  0  0  0  0  0
    4.2107   -9.0354    0.0000 O   0  0  0  0  0  0  0  0  0  0  0  0
    4.9251   -7.7979    0.0000 O   0  0  0  0  0  0  0  0  0  0  0  0
    9.9264   -9.0354    0.0000 C   0  0  0  0  0  0  0  0  0  0  0  0
    9.2120   -8.6229    0.0000 C   0  0  0  0  0  0  0  0  0  0  0  0
    8.4975   -9.0354    0.0000 C   0  0  0  0  0  0  0  0  0  0  0  0
    7.7830   -8.6229    0.0000 C   0  0  0  0  0  0  0  0  0  0  0  0
    7.0686   -9.0354    0.0000 C   0  0  0  0  0  0  0  0  0  0  0  0
    6.3541   -8.6229    0.0000 C   0  0  0  0  0  0  0  0  0  0  0  0
    5.6396   -9.0354    0.0000 C   0  0  0  0  0  0  0  0  0  0  0  0
    4.9251   -8.6229    0.0000 C   0  0  0  0  0  0  0  0  0  0  0  0
  3  1  1  0  0  0  0
  5  2  1  0  0  0  0
 12  3  1  0  0  0  0
 12  4  2  0  0  0  0
  6  5  1  0  0  0  0
  7  6  1  0  0  0  0
  8  7  1  0  0  0  0
  9  8  1  0  0  0  0
 10  9  1  0  0  0  0
 11 10  1  0  0  0  0
 12 11  1  0  0  0  0
M  END
>  <cdx:groupId>
37

>  <cdx:fragmentId>
5

$$$$
