95414.cdx
  Mrv1902 05222410182D          

 24 27  0  0  0  0            999 V2000
    6.0022   -4.0287    0.0000 C   0  0  0  0  0  0  0  0  0  0  0  0
    6.0022   -4.8538    0.0000 C   0  0  0  0  0  0  0  0  0  0  0  0
    6.6472   -5.3681    0.0000 C   0  0  2  0  0  0  0  0  0  0  0  0
    7.4515   -5.1845    0.0000 C   0  0  1  0  0  0  0  0  0  0  0  0
    7.8095   -4.4412    0.0000 C   0  0  2  0  0  0  0  0  0  0  0  0
    7.4515   -3.6980    0.0000 C   0  0  0  0  0  0  0  0  0  0  0  0
    6.6472   -3.5144    0.0000 C   0  0  0  0  0  0  0  0  0  0  0  0
    5.2176   -3.7738    0.0000 C   0  0  0  0  0  0  0  0  0  0  0  0
    4.7327   -4.4412    0.0000 C   0  0  1  0  0  0  0  0  0  0  0  0
    5.2176   -5.1087    0.0000 C   0  0  2  0  0  0  0  0  0  0  0  0
    6.4636   -2.7101    0.0000 C   0  0  0  0  0  0  0  0  0  0  0  0
    6.5733   -6.1898    0.0000 O   0  0  0  0  0  0  0  0  0  0  0  0
    7.3319   -6.5141    0.0000 C   0  0  0  0  0  0  0  0  0  0  0  0
    7.8747   -5.8928    0.0000 C   0  0  0  0  0  0  0  0  0  0  0  0
    7.5155   -7.3184    0.0000 O   0  0  0  0  0  0  0  0  0  0  0  0
    8.6964   -5.9667    0.0000 C   0  0  0  0  0  0  0  0  0  0  0  0
    4.3202   -5.1557    0.0000 O   0  0  0  0  0  0  0  0  0  0  0  0
    5.3679   -5.9199    0.0000 C   0  0  0  0  0  0  0  0  0  0  0  0
    8.6345   -4.4412    0.0000 O   0  0  0  0  0  0  0  0  0  0  0  0
    9.0470   -3.7268    0.0000 C   0  0  0  0  0  0  0  0  0  0  0  0
    9.8720   -3.7268    0.0000 C   0  0  0  0  0  0  0  0  0  0  0  0
    8.6345   -3.0123    0.0000 O   0  0  0  0  0  0  0  0  0  0  0  0
   10.2845   -3.0123    0.0000 C   0  0  0  0  0  0  0  0  0  0  0  0
   10.2845   -4.4412    0.0000 C   0  0  0  0  0  0  0  0  0  0  0  0
  1  2  1  0  0  0  0
  2  3  1  0  0  0  0
  3  4  1  0  0  0  0
  4  5  1  0  0  0  0
  5  6  1  0  0  0  0
  6  7  1  0  0  0  0
  7  1  2  0  0  0  0
  1  8  1  0  0  0  0
  8  9  1  0  0  0  0
  9 10  1  0  0  0  0
 10  2  1  0  0  0  0
  7 11  1  0  0  0  0
  3 12  1  6  0  0  0
 12 13  1  0  0  0  0
 13 14  1  0  0  0  0
  4 14  1  1  0  0  0
 13 15  2  0  0  0  0
 14 16  2  0  0  0  0
  9 17  1  1  0  0  0
 10 17  1  1  0  0  0
 10 18  1  6  0  0  0
  5 19  1  6  0  0  0
 19 20  1  0  0  0  0
 20 21  1  0  0  0  0
 20 22  2  0  0  0  0
 21 23  1  0  0  0  0
 21 24  1  0  0  0  0
M  END
>  <cdx:fragmentId>
5

$$$$
