95415.cdx
  Mrv1902 05222410182D          

 25 28  0  0  0  0            999 V2000
    5.9197   -5.3487    0.0000 C   0  0  0  0  0  0  0  0  0  0  0  0
    5.9197   -6.1737    0.0000 C   0  0  0  0  0  0  0  0  0  0  0  0
    6.5647   -6.6881    0.0000 C   0  0  2  0  0  0  0  0  0  0  0  0
    7.3690   -6.5045    0.0000 C   0  0  1  0  0  0  0  0  0  0  0  0
    7.7270   -5.7612    0.0000 C   0  0  2  0  0  0  0  0  0  0  0  0
    7.3690   -5.0180    0.0000 C   0  0  0  0  0  0  0  0  0  0  0  0
    6.5647   -4.8344    0.0000 C   0  0  0  0  0  0  0  0  0  0  0  0
    5.1351   -5.0938    0.0000 C   0  0  0  0  0  0  0  0  0  0  0  0
    4.6502   -5.7612    0.0000 C   0  0  1  0  0  0  0  0  0  0  0  0
    5.1351   -6.4287    0.0000 C   0  0  2  0  0  0  0  0  0  0  0  0
    6.3811   -4.0301    0.0000 C   0  0  0  0  0  0  0  0  0  0  0  0
    6.4908   -7.5098    0.0000 O   0  0  0  0  0  0  0  0  0  0  0  0
    7.2494   -7.8341    0.0000 C   0  0  0  0  0  0  0  0  0  0  0  0
    7.7922   -7.2128    0.0000 C   0  0  0  0  0  0  0  0  0  0  0  0
    7.4330   -8.6384    0.0000 O   0  0  0  0  0  0  0  0  0  0  0  0
    8.6139   -7.2867    0.0000 C   0  0  0  0  0  0  0  0  0  0  0  0
    4.2377   -6.4757    0.0000 O   0  0  0  0  0  0  0  0  0  0  0  0
    5.2854   -7.2399    0.0000 C   0  0  0  0  0  0  0  0  0  0  0  0
    8.5520   -5.7612    0.0000 O   0  0  0  0  0  0  0  0  0  0  0  0
    8.9645   -5.0468    0.0000 C   0  0  0  0  0  0  0  0  0  0  0  0
    9.7895   -5.0468    0.0000 C   0  0  0  0  0  0  0  0  0  0  0  0
    8.5520   -4.3323    0.0000 O   0  0  0  0  0  0  0  0  0  0  0  0
   10.2020   -4.3323    0.0000 C   0  0  0  0  0  0  0  0  0  0  0  0
   10.2020   -5.7612    0.0000 C   0  0  0  0  0  0  0  0  0  0  0  0
    9.7895   -3.6178    0.0000 C   0  0  0  0  0  0  0  0  0  0  0  0
  1  2  1  0  0  0  0
  2  3  1  0  0  0  0
  3  4  1  0  0  0  0
  4  5  1  0  0  0  0
  5  6  1  0  0  0  0
  6  7  1  0  0  0  0
  7  1  2  0  0  0  0
  1  8  1  0  0  0  0
  8  9  1  0  0  0  0
  9 10  1  0  0  0  0
 10  2  1  0  0  0  0
  7 11  1  0  0  0  0
  3 12  1  6  0  0  0
 12 13  1  0  0  0  0
 13 14  1  0  0  0  0
  4 14  1  1  0  0  0
 13 15  2  0  0  0  0
 14 16  2  0  0  0  0
  9 17  1  1  0  0  0
 10 17  1  1  0  0  0
 10 18  1  6  0  0  0
  5 19  1  6  0  0  0
 19 20  1  0  0  0  0
 20 21  1  0  0  0  0
 20 22  2  0  0  0  0
 21 23  2  0  0  0  0
 21 24  1  0  0  0  0
 23 25  1  0  0  0  0
M  END
>  <cdx:fragmentId>
5

$$$$
