95416.cdx
  Mrv1902 05222410192D          

 65 72  0  0  0  0            999 V2000
    6.7081   -5.5687    0.0000 C   0  0  0  0  0  0  0  0  0  0  0  0
    6.7081   -6.3937    0.0000 C   0  0  1  0  0  0  0  0  0  0  0  0
    7.4225   -6.8062    0.0000 C   0  0  0  0  0  0  0  0  0  0  0  0
    8.1370   -6.3937    0.0000 C   0  0  1  0  0  0  0  0  0  0  0  0
    8.1370   -5.5687    0.0000 C   0  0  2  0  0  0  0  0  0  0  0  0
    7.4225   -5.1563    0.0000 C   0  0  0  0  0  0  0  0  0  0  0  0
    8.8515   -6.8062    0.0000 C   0  0  0  0  0  0  0  0  0  0  0  0
    9.5659   -6.3937    0.0000 C   0  0  0  0  0  0  0  0  0  0  0  0
    9.5659   -5.5687    0.0000 C   0  0  2  0  0  0  0  0  0  0  0  0
    8.8515   -5.1563    0.0000 C   0  0  0  0  0  0  0  0  0  0  0  0
   10.2804   -5.1563    0.0000 C   0  0  2  0  0  0  0  0  0  0  0  0
   10.2804   -4.3313    0.0000 C   0  0  2  0  0  0  0  0  0  0  0  0
    9.5659   -3.9188    0.0000 C   0  0  1  0  0  0  0  0  0  0  0  0
    8.8515   -4.3313    0.0000 C   0  0  1  0  0  0  0  0  0  0  0  0
   11.0650   -5.4112    0.0000 C   0  0  0  0  0  0  0  0  0  0  0  0
   11.5500   -4.7438    0.0000 C   0  0  0  0  0  0  0  0  0  0  0  0
   11.0650   -4.0763    0.0000 C   0  0  1  0  0  0  0  0  0  0  0  0
    5.9936   -6.8062    0.0000 O   0  0  0  0  0  0  0  0  0  0  0  0
    8.1370   -4.7438    0.0000 C   0  0  0  0  0  0  0  0  0  0  0  0
   10.2804   -5.9813    0.0000 O   0  0  0  0  0  0  0  0  0  0  0  0
    9.5659   -3.0938    0.0000 O   0  0  0  0  0  0  0  0  0  0  0  0
   10.3666   -3.5108    0.0000 C   0  0  0  0  0  0  0  0  0  0  0  0
   11.3200   -3.2917    0.0000 C   0  0  0  0  0  0  0  0  0  0  0  0
   10.7679   -2.6786    0.0000 C   0  0  0  0  0  0  0  0  0  0  0  0
   12.1269   -3.1202    0.0000 O   0  0  0  0  0  0  0  0  0  0  0  0
    8.1370   -7.2188    0.0000 H   0  0  0  0  0  0  0  0  0  0  0  0
    8.1370   -3.9188    0.0000 O   0  0  0  0  0  0  0  0  0  0  0  0
    7.9235   -3.1219    0.0000 C   0  0  0  0  0  0  0  0  0  0  0  0
    7.1266   -2.9083    0.0000 C   0  0  0  0  0  0  0  0  0  0  0  0
    8.5068   -2.5385    0.0000 O   0  0  0  0  0  0  0  0  0  0  0  0
    9.9784   -2.3793    0.0000 C   0  0  0  0  0  0  0  0  0  0  0  0
    9.5659   -1.6648    0.0000 C   0  0  0  0  0  0  0  0  0  0  0  0
   10.8034   -2.3793    0.0000 O   0  0  0  0  0  0  0  0  0  0  0  0
    5.2783   -8.8774    0.0000 C   0  0  2  0  0  0  0  0  0  0  0  0
    5.9972   -9.2821    0.0000 C   0  0  2  0  0  0  0  0  0  0  0  0
    6.7071   -8.8618    0.0000 C   0  0  1  0  0  0  0  0  0  0  0  0
    6.6981   -8.0369    0.0000 C   0  0  0  0  0  0  0  0  0  0  0  0
    5.9792   -7.6322    0.0000 C   0  0  1  0  0  0  0  0  0  0  0  0
    5.2693   -8.0525    0.0000 O   0  0  0  0  0  0  0  0  0  0  0  0
    4.5683   -9.2977    0.0000 C   0  0  0  0  0  0  0  0  0  0  0  0
    6.0062  -10.1070    0.0000 O   0  0  0  0  0  0  0  0  0  0  0  0
    7.4261   -9.2665    0.0000 O   0  0  0  0  0  0  0  0  0  0  0  0
    5.2963  -10.5273    0.0000 C   0  0  2  0  0  0  0  0  0  0  0  0
    4.5774  -10.1227    0.0000 O   0  0  0  0  0  0  0  0  0  0  0  0
    3.8674  -10.5429    0.0000 C   0  0  1  0  0  0  0  0  0  0  0  0
    3.8764  -11.3679    0.0000 C   0  0  2  0  0  0  0  0  0  0  0  0
    4.5954  -11.7726    0.0000 C   0  0  2  0  0  0  0  0  0  0  0  0
    5.3053  -11.3523    0.0000 C   0  0  1  0  0  0  0  0  0  0  0  0
    3.1485  -10.1383    0.0000 C   0  0  0  0  0  0  0  0  0  0  0  0
    3.1665  -11.7882    0.0000 O   0  0  0  0  0  0  0  0  0  0  0  0
    4.6044  -12.5975    0.0000 O   0  0  0  0  0  0  0  0  0  0  0  0
    6.0242  -11.7569    0.0000 O   0  0  0  0  0  0  0  0  0  0  0  0
    3.1755  -12.6131    0.0000 C   0  0  2  0  0  0  0  0  0  0  0  0
    2.4656  -13.0334    0.0000 O   0  0  0  0  0  0  0  0  0  0  0  0
    2.4746  -13.8584    0.0000 C   0  0  1  0  0  0  0  0  0  0  0  0
    3.1936  -14.2630    0.0000 C   0  0  2  0  0  0  0  0  0  0  0  0
    3.9035  -13.8427    0.0000 C   0  0  1  0  0  0  0  0  0  0  0  0
    3.8945  -13.0178    0.0000 C   0  0  1  0  0  0  0  0  0  0  0  0
    4.6134  -13.4225    0.0000 O   0  0  0  0  0  0  0  0  0  0  0  0
    3.2026  -15.0880    0.0000 O   0  0  0  0  0  0  0  0  0  0  0  0
    4.6224  -14.2474    0.0000 O   0  0  0  0  0  0  0  0  0  0  0  0
    1.7647  -14.2786    0.0000 C   0  0  0  0  0  0  0  0  0  0  0  0
    1.7737  -15.1036    0.0000 O   0  0  0  0  0  0  0  0  0  0  0  0
    5.3233  -13.0022    0.0000 C   0  0  0  0  0  0  0  0  0  0  0  0
    8.1360   -8.8462    0.0000 C   0  0  0  0  0  0  0  0  0  0  0  0
  1  2  1  0  0  0  0
  2  3  1  0  0  0  0
  3  4  1  0  0  0  0
  4  5  1  0  0  0  0
  5  6  1  0  0  0  0
  6  1  1  0  0  0  0
  4  7  1  0  0  0  0
  7  8  1  0  0  0  0
  8  9  1  0  0  0  0
  9 10  1  0  0  0  0
 10  5  1  0  0  0  0
  9 11  1  0  0  0  0
 11 12  1  0  0  0  0
 12 13  1  0  0  0  0
 13 14  1  0  0  0  0
 14 10  1  0  0  0  0
 11 15  1  0  0  0  0
 15 16  1  0  0  0  0
 16 17  1  0  0  0  0
 17 12  1  0  0  0  0
  2 18  1  1  0  0  0
  5 19  1  1  0  0  0
  9 20  1  1  0  0  0
 11 20  1  1  0  0  0
 13 21  1  1  0  0  0
 12 22  1  1  0  0  0
 17 23  1  6  0  0  0
 23 24  1  0  0  0  0
 23 25  2  0  0  0  0
  4 26  1  6  0  0  0
 14 27  1  6  0  0  0
 27 28  1  0  0  0  0
 28 29  1  0  0  0  0
 28 30  2  0  0  0  0
 21 31  1  0  0  0  0
 31 32  1  0  0  0  0
 31 33  2  0  0  0  0
 34 35  1  0  0  0  0
 35 36  1  0  0  0  0
 36 37  1  0  0  0  0
 37 38  1  0  0  0  0
 38 39  1  0  0  0  0
 39 34  1  0  0  0  0
 34 40  1  1  0  0  0
 35 41  1  6  0  0  0
 36 42  1  1  0  0  0
 43 41  1  1  0  0  0
 43 44  1  0  0  0  0
 44 45  1  0  0  0  0
 45 46  1  0  0  0  0
 46 47  1  0  0  0  0
 47 48  1  0  0  0  0
 48 43  1  0  0  0  0
 45 49  1  1  0  0  0
 46 50  1  6  0  0  0
 47 51  1  6  0  0  0
 48 52  1  6  0  0  0
 53 50  1  1  0  0  0
 53 54  1  0  0  0  0
 54 55  1  0  0  0  0
 55 56  1  0  0  0  0
 56 57  1  0  0  0  0
 57 58  1  0  0  0  0
 58 53  1  0  0  0  0
 58 59  1  6  0  0  0
 56 60  1  6  0  0  0
 57 61  1  1  0  0  0
 55 62  1  1  0  0  0
 62 63  1  0  0  0  0
 51 64  1  0  0  0  0
 42 65  1  0  0  0  0
 38 18  1  1  0  0  0
M  END
>  <cdx:fragmentId>
5

$$$$
