95413.cdx
  Mrv1902 05222410192D          

 53 60  0  0  0  0            999 V2000
    9.9716   -6.8623    0.0000 C   0  0  2  0  0  0  0  0  0  0  0  0
    9.6379   -6.1078    0.0000 C   0  0  2  0  0  0  0  0  0  0  0  0
   10.7919   -6.9505    0.0000 C   0  0  2  0  0  0  0  0  0  0  0  0
   11.2784   -6.2843    0.0000 C   0  0  1  0  0  0  0  0  0  0  0  0
   10.9448   -5.5298    0.0000 C   0  0  1  0  0  0  0  0  0  0  0  0
   10.1245   -5.4415    0.0000 C   0  0  1  0  0  0  0  0  0  0  0  0
   11.4313   -4.8636    0.0000 C   0  0  2  0  0  0  0  0  0  0  0  0
   11.0977   -4.1091    0.0000 C   0  0  1  0  0  0  0  0  0  0  0  0
   10.2774   -4.0208    0.0000 N   0  0  0  0  0  0  0  0  0  0  0  0
    9.7908   -4.6870    0.0000 C   0  0  0  0  0  0  0  0  0  0  0  0
   11.5842   -3.4428    0.0000 C   0  0  0  0  0  0  0  0  0  0  0  0
   11.2506   -2.6883    0.0000 C   0  0  0  0  0  0  0  0  0  0  0  0
   10.4303   -2.6001    0.0000 C   0  0  1  0  0  0  0  0  0  0  0  0
    9.9437   -3.2663    0.0000 C   0  0  0  0  0  0  0  0  0  0  0  0
   10.3053   -7.6168    0.0000 O   0  0  0  0  0  0  0  0  0  0  0  0
   11.1255   -7.7051    0.0000 O   0  0  0  0  0  0  0  0  0  0  0  0
    9.3550   -5.1440    0.0000 H   0  0  0  0  0  0  0  0  0  0  0  0
   11.7698   -5.5298    0.0000 H   0  0  0  0  0  0  0  0  0  0  0  0
   12.1458   -4.4511    0.0000 C   0  0  0  0  0  0  0  0  0  0  0  0
    9.0545   -5.5244    0.0000 O   0  0  0  0  0  0  0  0  0  0  0  0
   10.0966   -1.8455    0.0000 C   0  0  0  0  0  0  0  0  0  0  0  0
   11.9179   -4.1973    0.0000 H   0  0  0  0  0  0  0  0  0  0  0  0
   12.1458   -5.2761    0.0000 O   0  0  0  0  0  0  0  0  0  0  0  0
   12.0987   -6.3726    0.0000 O   0  0  0  0  0  0  0  0  0  0  0  0
    8.8172   -6.1920    0.0000 C   0  0  0  0  0  0  0  0  0  0  0  0
    8.6437   -6.9985    0.0000 C   0  0  1  0  0  0  0  0  0  0  0  0
    9.3571   -7.4128    0.0000 C   0  0  1  0  0  0  0  0  0  0  0  0
    6.4988   -7.3867    0.0000 C   0  0  0  0  0  0  0  0  0  0  0  0
    6.4866   -8.2116    0.0000 C   0  0  1  0  0  0  0  0  0  0  0  0
    7.1949   -8.6347    0.0000 C   0  0  2  0  0  0  0  0  0  0  0  0
    7.9154   -8.2328    0.0000 C   0  0  2  0  0  0  0  0  0  0  0  0
    7.9276   -7.4079    0.0000 C   0  0  2  0  0  0  0  0  0  0  0  0
    7.2193   -6.9848    0.0000 C   0  0  0  0  0  0  0  0  0  0  0  0
    8.6237   -8.6558    0.0000 C   0  0  0  0  0  0  0  0  0  0  0  0
    9.3442   -8.2539    0.0000 C   0  0  0  0  0  0  0  0  0  0  0  0
    7.4250   -7.3700    0.0000 O   0  0  0  0  0  0  0  0  0  0  0  0
    5.7661   -8.6135    0.0000 O   0  0  0  0  0  0  0  0  0  0  0  0
    5.0578   -8.1905    0.0000 C   0  0  0  0  0  0  0  0  0  0  0  0
    5.0700   -7.3656    0.0000 O   0  0  0  0  0  0  0  0  0  0  0  0
    1.4858   -8.5607    0.0000 C   0  0  0  0  0  0  0  0  0  0  0  0
    2.2003   -8.1482    0.0000 O   0  0  0  0  0  0  0  0  0  0  0  0
    1.4614   -9.3855    0.0000 C   0  0  0  0  0  0  0  0  0  0  0  0
    2.1758   -9.7980    0.0000 O   0  0  0  0  0  0  0  0  0  0  0  0
    3.6290   -8.1693    0.0000 C   0  0  0  0  0  0  0  0  0  0  0  0
    2.9085   -8.5712    0.0000 C   0  0  0  0  0  0  0  0  0  0  0  0
    2.8963   -9.3961    0.0000 C   0  0  0  0  0  0  0  0  0  0  0  0
    3.6046   -9.8192    0.0000 C   0  0  0  0  0  0  0  0  0  0  0  0
    4.3251   -9.4173    0.0000 C   0  0  0  0  0  0  0  0  0  0  0  0
    4.3373   -8.5924    0.0000 C   0  0  0  0  0  0  0  0  0  0  0  0
    7.1827   -9.4596    0.0000 O   0  0  0  0  0  0  0  0  0  0  0  0
    7.9032   -9.0577    0.0000 H   0  0  0  0  0  0  0  0  0  0  0  0
    7.9398   -6.5830    0.0000 C   0  0  0  0  0  0  0  0  0  0  0  0
    9.9405   -7.9961    0.0000 H   0  0  0  0  0  0  0  0  0  0  0  0
  1  2  1  0  0  0  0
  1  3  1  0  0  0  0
  3  4  1  0  0  0  0
  4  5  1  0  0  0  0
  5  6  1  0  0  0  0
  6  2  1  0  0  0  0
  5  7  1  0  0  0  0
  7  8  1  0  0  0  0
  8  9  1  0  0  0  0
  9 10  1  0  0  0  0
 10  6  1  0  0  0  0
  8 11  1  0  0  0  0
 11 12  1  0  0  0  0
 12 13  1  0  0  0  0
 13 14  1  0  0  0  0
 14  9  1  0  0  0  0
  1 15  1  6  0  0  0
  3 16  1  6  0  0  0
  6 17  1  1  0  0  0
  5 18  1  6  0  0  0
  7 19  1  6  0  0  0
  2 20  1  1  0  0  0
 13 21  1  1  0  0  0
  8 22  1  6  0  0  0
  7 23  1  1  0  0  0
  4 24  1  1  0  0  0
  2 25  1  0  0  0  0
 26 25  1  1  0  0  0
 26 27  1  0  0  0  0
 27  1  1  0  0  0  0
 28 29  1  0  0  0  0
 29 30  1  0  0  0  0
 30 31  1  0  0  0  0
 32 33  1  0  0  0  0
 33 28  1  0  0  0  0
 31 34  1  0  0  0  0
 34 35  1  0  0  0  0
 30 36  1  0  0  0  0
 32 31  1  0  0  0  0
 29 37  1  1  0  0  0
 37 38  1  0  0  0  0
 41 40  1  0  0  0  0
 38 49  1  0  0  0  0
 38 39  2  0  0  0  0
 45 41  1  0  0  0  0
 43 42  1  0  0  0  0
 46 43  1  0  0  0  0
 44 49  1  0  0  0  0
 45 44  2  0  0  0  0
 46 45  1  0  0  0  0
 47 46  2  0  0  0  0
 48 47  1  0  0  0  0
 49 48  2  0  0  0  0
 30 50  1  6  0  0  0
 31 51  1  1  0  0  0
 32 52  1  1  0  0  0
 26 32  1  0  0  0  0
 26 36  1  0  0  0  0
 27 35  1  0  0  0  0
 27 53  1  1  0  0  0
M  END
>  <cdx:fragmentId>
198

$$$$
