95421.cdx
  Mrv1902 05222410262D          

 62 69  0  0  0  0            999 V2000
    6.6531   -6.3662    0.0000 C   0  0  0  0  0  0  0  0  0  0  0  0
    6.6531   -7.1913    0.0000 C   0  0  1  0  0  0  0  0  0  0  0  0
    7.3675   -7.6037    0.0000 C   0  0  0  0  0  0  0  0  0  0  0  0
    8.0820   -7.1913    0.0000 C   0  0  1  0  0  0  0  0  0  0  0  0
    8.0820   -6.3662    0.0000 C   0  0  2  0  0  0  0  0  0  0  0  0
    7.3675   -5.9538    0.0000 C   0  0  0  0  0  0  0  0  0  0  0  0
    8.7965   -7.6037    0.0000 C   0  0  0  0  0  0  0  0  0  0  0  0
    9.5109   -7.1913    0.0000 C   0  0  0  0  0  0  0  0  0  0  0  0
    9.5109   -6.3662    0.0000 C   0  0  2  0  0  0  0  0  0  0  0  0
    8.7965   -5.9538    0.0000 C   0  0  0  0  0  0  0  0  0  0  0  0
   10.2254   -5.9538    0.0000 C   0  0  2  0  0  0  0  0  0  0  0  0
   10.2254   -5.1287    0.0000 C   0  0  2  0  0  0  0  0  0  0  0  0
    9.5109   -4.7162    0.0000 C   0  0  1  0  0  0  0  0  0  0  0  0
    8.7965   -5.1287    0.0000 C   0  0  1  0  0  0  0  0  0  0  0  0
   11.0100   -6.2087    0.0000 C   0  0  0  0  0  0  0  0  0  0  0  0
   11.4950   -5.5413    0.0000 C   0  0  0  0  0  0  0  0  0  0  0  0
   11.0100   -4.8738    0.0000 C   0  0  1  0  0  0  0  0  0  0  0  0
    5.9386   -7.6037    0.0000 O   0  0  0  0  0  0  0  0  0  0  0  0
    8.0820   -5.5413    0.0000 C   0  0  0  0  0  0  0  0  0  0  0  0
   10.2254   -6.7788    0.0000 O   0  0  0  0  0  0  0  0  0  0  0  0
    9.5109   -3.8912    0.0000 O   0  0  0  0  0  0  0  0  0  0  0  0
   10.3116   -4.3083    0.0000 C   0  0  0  0  0  0  0  0  0  0  0  0
   11.2650   -4.0892    0.0000 C   0  0  0  0  0  0  0  0  0  0  0  0
   10.7129   -3.4761    0.0000 C   0  0  0  0  0  0  0  0  0  0  0  0
   12.0719   -3.9177    0.0000 O   0  0  0  0  0  0  0  0  0  0  0  0
    8.0820   -8.0162    0.0000 H   0  0  0  0  0  0  0  0  0  0  0  0
    8.0820   -4.7162    0.0000 O   0  0  0  0  0  0  0  0  0  0  0  0
    5.2233   -9.6749    0.0000 C   0  0  2  0  0  0  0  0  0  0  0  0
    5.9422  -10.0796    0.0000 C   0  0  2  0  0  0  0  0  0  0  0  0
    6.6521   -9.6593    0.0000 C   0  0  1  0  0  0  0  0  0  0  0  0
    6.6431   -8.8344    0.0000 C   0  0  0  0  0  0  0  0  0  0  0  0
    5.9242   -8.4297    0.0000 C   0  0  1  0  0  0  0  0  0  0  0  0
    5.2143   -8.8500    0.0000 O   0  0  0  0  0  0  0  0  0  0  0  0
    4.5133  -10.0952    0.0000 C   0  0  0  0  0  0  0  0  0  0  0  0
    5.9512  -10.9045    0.0000 O   0  0  0  0  0  0  0  0  0  0  0  0
    7.3711  -10.0640    0.0000 O   0  0  0  0  0  0  0  0  0  0  0  0
    5.2413  -11.3248    0.0000 C   0  0  2  0  0  0  0  0  0  0  0  0
    4.5224  -10.9202    0.0000 O   0  0  0  0  0  0  0  0  0  0  0  0
    3.8124  -11.3404    0.0000 C   0  0  1  0  0  0  0  0  0  0  0  0
    3.8214  -12.1654    0.0000 C   0  0  2  0  0  0  0  0  0  0  0  0
    4.5404  -12.5701    0.0000 C   0  0  2  0  0  0  0  0  0  0  0  0
    5.2503  -12.1498    0.0000 C   0  0  1  0  0  0  0  0  0  0  0  0
    3.0935  -10.9358    0.0000 C   0  0  0  0  0  0  0  0  0  0  0  0
    3.1115  -12.5857    0.0000 O   0  0  0  0  0  0  0  0  0  0  0  0
    4.5494  -13.3950    0.0000 O   0  0  0  0  0  0  0  0  0  0  0  0
    5.9692  -12.5544    0.0000 O   0  0  0  0  0  0  0  0  0  0  0  0
    3.1205  -13.4106    0.0000 C   0  0  2  0  0  0  0  0  0  0  0  0
    2.4106  -13.8309    0.0000 O   0  0  0  0  0  0  0  0  0  0  0  0
    2.4196  -14.6559    0.0000 C   0  0  1  0  0  0  0  0  0  0  0  0
    3.1386  -15.0605    0.0000 C   0  0  2  0  0  0  0  0  0  0  0  0
    3.8485  -14.6402    0.0000 C   0  0  1  0  0  0  0  0  0  0  0  0
    3.8395  -13.8153    0.0000 C   0  0  1  0  0  0  0  0  0  0  0  0
    4.5584  -14.2200    0.0000 O   0  0  0  0  0  0  0  0  0  0  0  0
    3.1476  -15.8855    0.0000 O   0  0  0  0  0  0  0  0  0  0  0  0
    4.5674  -15.0449    0.0000 O   0  0  0  0  0  0  0  0  0  0  0  0
    1.7097  -15.0761    0.0000 C   0  0  0  0  0  0  0  0  0  0  0  0
    1.7187  -15.9011    0.0000 O   0  0  0  0  0  0  0  0  0  0  0  0
    5.2683  -13.7997    0.0000 C   0  0  0  0  0  0  0  0  0  0  0  0
    8.0810   -9.6437    0.0000 C   0  0  0  0  0  0  0  0  0  0  0  0
    6.8450   -3.9870    0.0000 C   0  0  0  0  0  0  0  0  0  0  0  0
    7.2575   -4.7014    0.0000 C   0  0  0  0  0  0  0  0  0  0  0  0
    6.8450   -5.4159    0.0000 O   0  0  0  0  0  0  0  0  0  0  0  0
  1  2  1  0  0  0  0
  2  3  1  0  0  0  0
  3  4  1  0  0  0  0
  4  5  1  0  0  0  0
  5  6  1  0  0  0  0
  6  1  1  0  0  0  0
  4  7  1  0  0  0  0
  7  8  1  0  0  0  0
  8  9  1  0  0  0  0
  9 10  1  0  0  0  0
 10  5  1  0  0  0  0
  9 11  1  0  0  0  0
 11 12  1  0  0  0  0
 12 13  1  0  0  0  0
 13 14  1  0  0  0  0
 14 10  1  0  0  0  0
 11 15  1  0  0  0  0
 15 16  1  0  0  0  0
 16 17  1  0  0  0  0
 17 12  1  0  0  0  0
  2 18  1  1  0  0  0
  5 19  1  1  0  0  0
 11 20  1  1  0  0  0
 13 21  1  1  0  0  0
 12 22  1  1  0  0  0
 17 23  1  6  0  0  0
 23 24  1  0  0  0  0
 23 25  2  0  0  0  0
  4 26  1  6  0  0  0
 14 27  1  6  0  0  0
 28 29  1  0  0  0  0
 29 30  1  0  0  0  0
 30 31  1  0  0  0  0
 31 32  1  0  0  0  0
 32 33  1  0  0  0  0
 33 28  1  0  0  0  0
 28 34  1  1  0  0  0
 29 35  1  6  0  0  0
 30 36  1  1  0  0  0
 37 35  1  1  0  0  0
 37 38  1  0  0  0  0
 38 39  1  0  0  0  0
 39 40  1  0  0  0  0
 40 41  1  0  0  0  0
 41 42  1  0  0  0  0
 42 37  1  0  0  0  0
 39 43  1  1  0  0  0
 40 44  1  6  0  0  0
 41 45  1  6  0  0  0
 42 46  1  6  0  0  0
 47 44  1  1  0  0  0
 47 48  1  0  0  0  0
 48 49  1  0  0  0  0
 49 50  1  0  0  0  0
 50 51  1  0  0  0  0
 51 52  1  0  0  0  0
 52 47  1  0  0  0  0
 52 53  1  6  0  0  0
 50 54  1  6  0  0  0
 51 55  1  1  0  0  0
 49 56  1  1  0  0  0
 56 57  1  0  0  0  0
 45 58  1  0  0  0  0
 36 59  1  0  0  0  0
 32 18  1  1  0  0  0
 60 61  1  0  0  0  0
 61 62  2  0  0  0  0
 61 27  1  0  0  0  0
  9 20  1  1  0  0  0
M  END
>  <cdx:fragmentId>
5

$$$$
