95433.cdx
  Mrv1902 05222410272D          

  8  7  0  0  0  0            999 V2000
    5.2634   -3.5692    0.0000 C   0  0  0  0  0  0  0  0  0  0  0  0
    4.5489   -3.9817    0.0000 C   0  0  0  0  0  0  0  0  0  0  0  0
    3.8344   -3.5692    0.0000 C   0  0  0  0  0  0  0  0  0  0  0  0
    3.1199   -3.9817    0.0000 C   0  0  0  0  0  0  0  0  0  0  0  0
    5.2634   -2.7442    0.0000 O   0  0  0  0  0  0  0  0  0  0  0  0
    5.9778   -3.9817    0.0000 O   0  0  0  0  0  0  0  0  0  0  0  0
    4.1364   -4.6962    0.0000 C   0  0  0  0  0  0  0  0  0  0  0  0
    4.9614   -4.6962    0.0000 O   0  0  0  0  0  0  0  0  0  0  0  0
  1  2  1  0  0  0  0
  2  3  1  0  0  0  0
  3  4  1  0  0  0  0
  1  5  2  0  0  0  0
  1  6  1  0  0  0  0
  2  7  1  0  0  0  0
  2  8  1  0  0  0  0
M  END
>  <cdx:groupId>
25

>  <cdx:fragmentId>
5

$$$$
