95431.cdx
  Mrv1902 05222410282D          

 38 42  0  0  0  0            999 V2000
    9.8699   -8.4562    0.0000 C   0  0  0  0  0  0  0  0  0  0  0  0
    9.1163   -8.1207    0.0000 C   0  0  1  0  0  0  0  0  0  0  0  0
    9.1163   -8.9457    0.0000 C   0  0  0  0  0  0  0  0  0  0  0  0
    8.4018   -9.3582    0.0000 C   0  0  0  0  0  0  0  0  0  0  0  0
    7.6873   -8.9457    0.0000 C   0  0  1  0  0  0  0  0  0  0  0  0
    7.6873   -9.7707    0.0000 C   0  0  0  0  0  0  0  0  0  0  0  0
    6.9729   -9.3582    0.0000 C   0  0  2  0  0  0  0  0  0  0  0  0
    6.9729   -8.5332    0.0000 C   0  0  0  0  0  0  0  0  0  0  0  0
    6.9729  -10.1832    0.0000 C   0  0  0  0  0  0  0  0  0  0  0  0
    6.2584  -10.5957    0.0000 C   0  0  0  0  0  0  0  0  0  0  0  0
    5.5439  -10.1832    0.0000 C   0  0  1  0  0  0  0  0  0  0  0  0
    5.5439  -11.0082    0.0000 H   0  0  0  0  0  0  0  0  0  0  0  0
    4.8294  -10.5957    0.0000 C   0  0  0  0  0  0  0  0  0  0  0  0
    5.2419  -11.3101    0.0000 C   0  0  0  0  0  0  0  0  0  0  0  0
    4.4169  -11.3101    0.0000 C   0  0  0  0  0  0  0  0  0  0  0  0
    4.1150  -10.1832    0.0000 C   0  0  1  0  0  0  0  0  0  0  0  0
    3.4005  -10.5957    0.0000 O   0  0  0  0  0  0  0  0  0  0  0  0
    4.1150   -9.3582    0.0000 C   0  0  0  0  0  0  0  0  0  0  0  0
    4.8294   -8.9457    0.0000 C   0  0  0  0  0  0  0  0  0  0  0  0
    5.5439   -9.3582    0.0000 C   0  0  1  0  0  0  0  0  0  0  0  0
    5.5439   -8.5332    0.0000 C   0  0  0  0  0  0  0  0  0  0  0  0
    6.2584   -8.9457    0.0000 C   0  0  1  0  0  0  0  0  0  0  0  0
    6.2584   -9.7707    0.0000 H   0  0  0  0  0  0  0  0  0  0  0  0
    6.2584   -8.1207    0.0000 C   0  0  0  0  0  0  0  0  0  0  0  0
    6.9729   -7.7082    0.0000 C   0  0  0  0  0  0  0  0  0  0  0  0
    7.6873   -8.1207    0.0000 C   0  0  2  0  0  0  0  0  0  0  0  0
    7.6873   -7.2957    0.0000 H   0  0  0  0  0  0  0  0  0  0  0  0
    8.4018   -7.7082    0.0000 C   0  0  1  0  0  0  0  0  0  0  0  0
    8.4018   -8.5332    0.0000 H   0  0  0  0  0  0  0  0  0  0  0  0
    8.5733   -6.9012    0.0000 C   0  0  2  0  0  0  0  0  0  0  0  0
    8.0213   -6.2881    0.0000 C   0  0  0  0  0  0  0  0  0  0  0  0
    8.2762   -5.5035    0.0000 C   0  0  0  0  0  0  0  0  0  0  0  0
    7.2143   -6.4596    0.0000 C   0  0  0  0  0  0  0  0  0  0  0  0
    9.3938   -6.8150    0.0000 C   0  0  0  0  0  0  0  0  0  0  0  0
    9.7294   -7.5686    0.0000 C   0  0  0  0  0  0  0  0  0  0  0  0
    9.8699   -9.2812    0.0000 O   0  0  0  0  0  0  0  0  0  0  0  0
   10.5618   -8.0069    0.0000 O   0  0  0  0  0  0  0  0  0  0  0  0
   11.2969   -8.3814    0.0000 C   0  0  0  0  0  0  0  0  0  0  0  0
  2  1  1  1  0  0  0
  2  3  1  0  0  0  0
  3  4  1  0  0  0  0
  4  5  1  0  0  0  0
  5  6  1  6  0  0  0
  5  7  1  0  0  0  0
  7  8  1  1  0  0  0
  7  9  1  0  0  0  0
  9 10  1  0  0  0  0
 10 11  1  0  0  0  0
 11 12  1  6  0  0  0
 11 13  1  0  0  0  0
 13 14  1  0  0  0  0
 13 15  1  0  0  0  0
 13 16  1  0  0  0  0
 16 17  1  1  0  0  0
 16 18  1  0  0  0  0
 18 19  1  0  0  0  0
 19 20  1  0  0  0  0
 11 20  1  0  0  0  0
 20 21  1  1  0  0  0
 20 22  1  0  0  0  0
  7 22  1  0  0  0  0
 22 23  1  6  0  0  0
 22 24  1  0  0  0  0
 24 25  1  0  0  0  0
 25 26  1  0  0  0  0
  5 26  1  0  0  0  0
 26 27  1  1  0  0  0
 26 28  1  0  0  0  0
  2 28  1  0  0  0  0
 28 29  1  6  0  0  0
 28 30  1  0  0  0  0
 30 31  1  6  0  0  0
 31 32  1  0  0  0  0
 31 33  2  0  0  0  0
 30 34  1  0  0  0  0
 34 35  1  0  0  0  0
  2 35  1  0  0  0  0
  1 36  2  0  0  0  0
  1 37  1  0  0  0  0
 37 38  1  0  0  0  0
M  END
>  <cdx:fragmentId>
3

$$$$
