95439.cdx
  Mrv1902 05222410202D          

 70 77  0  0  0  0            999 V2000
   16.5384   -5.4275    0.0000 C   0  0  0  0  0  0  0  0  0  0  0  0
   17.2528   -5.0150    0.0000 C   0  0  0  0  0  0  0  0  0  0  0  0
   17.9673   -5.4275    0.0000 C   0  0  0  0  0  0  0  0  0  0  0  0
   17.9673   -6.2525    0.0000 C   0  0  0  0  0  0  0  0  0  0  0  0
   17.2528   -6.6650    0.0000 C   0  0  2  0  0  0  0  0  0  0  0  0
   17.2528   -7.4900    0.0000 C   0  0  0  0  0  0  0  0  0  0  0  0
   16.5384   -7.9025    0.0000 C   0  0  0  0  0  0  0  0  0  0  0  0
   15.8239   -7.4900    0.0000 C   0  0  1  0  0  0  0  0  0  0  0  0
   15.1094   -7.9025    0.0000 C   0  0  2  0  0  0  0  0  0  0  0  0
   15.1094   -8.7275    0.0000 C   0  0  0  0  0  0  0  0  0  0  0  0
   14.3950   -9.1400    0.0000 C   0  0  0  0  0  0  0  0  0  0  0  0
   13.6805   -8.7275    0.0000 C   0  0  1  0  0  0  0  0  0  0  0  0
   12.9660   -9.1400    0.0000 C   0  0  2  0  0  0  0  0  0  0  0  0
   12.2515   -8.7275    0.0000 C   0  0  2  0  0  0  0  0  0  0  0  0
   12.2515   -7.9025    0.0000 C   0  0  0  0  0  0  0  0  0  0  0  0
   12.9660   -7.4900    0.0000 C   0  0  0  0  0  0  0  0  0  0  0  0
   13.6805   -7.9025    0.0000 C   0  0  2  0  0  0  0  0  0  0  0  0
   14.3950   -7.4900    0.0000 C   0  0  1  0  0  0  0  0  0  0  0  0
   14.3950   -6.6650    0.0000 C   0  0  0  0  0  0  0  0  0  0  0  0
   15.1094   -6.2525    0.0000 C   0  0  0  0  0  0  0  0  0  0  0  0
   15.8239   -6.6650    0.0000 C   0  0  0  0  0  0  0  0  0  0  0  0
   16.5384   -6.2525    0.0000 C   0  0  2  0  0  0  0  0  0  0  0  0
   17.9673   -7.9025    0.0000 O   0  0  0  0  0  0  0  0  0  0  0  0
   13.6805   -7.0775    0.0000 C   0  0  0  0  0  0  0  0  0  0  0  0
   12.5535   -9.8544    0.0000 C   0  0  0  0  0  0  0  0  0  0  0  0
   16.8403   -4.3005    0.0000 C   0  0  0  0  0  0  0  0  0  0  0  0
   17.6653   -4.3005    0.0000 C   0  0  0  0  0  0  0  0  0  0  0  0
   13.3785   -9.8544    0.0000 C   0  0  0  0  0  0  0  0  0  0  0  0
   12.9660  -10.5689    0.0000 O   0  0  0  0  0  0  0  0  0  0  0  0
   11.5371   -9.1400    0.0000 O   0  0  0  0  0  0  0  0  0  0  0  0
   13.6805   -9.5525    0.0000 H   0  0  0  0  0  0  0  0  0  0  0  0
   18.6818   -6.6650    0.0000 O   0  0  0  0  0  0  0  0  0  0  0  0
   17.9673   -7.0775    0.0000 C   0  0  0  0  0  0  0  0  0  0  0  0
   10.8348   -8.7300    0.0000 C   0  0  1  0  0  0  0  0  0  0  0  0
   10.1201   -9.1422    0.0000 C   0  0  2  0  0  0  0  0  0  0  0  0
   10.1198   -9.9672    0.0000 O   0  0  0  0  0  0  0  0  0  0  0  0
    9.4058   -8.7294    0.0000 C   0  0  1  0  0  0  0  0  0  0  0  0
    8.6912   -9.1416    0.0000 O   0  0  0  0  0  0  0  0  0  0  0  0
    9.4062   -7.9044    0.0000 C   0  0  2  0  0  0  0  0  0  0  0  0
    8.6919   -7.4916    0.0000 O   0  0  0  0  0  0  0  0  0  0  0  0
   10.1208   -7.4922    0.0000 C   0  0  2  0  0  0  0  0  0  0  0  0
   10.8351   -7.9050    0.0000 O   0  0  0  0  0  0  0  0  0  0  0  0
   10.1212   -6.6672    0.0000 C   0  0  0  0  0  0  0  0  0  0  0  0
    9.4069   -6.2544    0.0000 O   0  0  0  0  0  0  0  0  0  0  0  0
    5.8089   -9.1254    0.0000 O   0  0  0  0  0  0  0  0  0  0  0  0
    5.0931   -8.7153    0.0000 C   0  0  2  0  0  0  0  0  0  0  0  0
    5.0903   -7.8903    0.0000 O   0  0  0  0  0  0  0  0  0  0  0  0
    4.3745   -7.4801    0.0000 C   0  0  2  0  0  0  0  0  0  0  0  0
    3.6614   -7.8950    0.0000 C   0  0  1  0  0  0  0  0  0  0  0  0
    3.6641   -8.7200    0.0000 C   0  0  2  0  0  0  0  0  0  0  0  0
    4.3800   -9.1301    0.0000 C   0  0  1  0  0  0  0  0  0  0  0  0
    2.9456   -7.4848    0.0000 O   0  0  0  0  0  0  0  0  0  0  0  0
    4.3718   -6.6551    0.0000 C   0  0  0  0  0  0  0  0  0  0  0  0
    4.3827   -9.9551    0.0000 O   0  0  0  0  0  0  0  0  0  0  0  0
    2.9510   -9.1348    0.0000 O   0  0  0  0  0  0  0  0  0  0  0  0
    6.5432   -6.2345    0.0000 O   0  0  0  0  0  0  0  0  0  0  0  0
    7.2552   -6.6513    0.0000 C   0  0  0  0  0  0  0  0  0  0  0  0
    7.9623   -7.8930    0.0000 O   0  0  0  0  0  0  0  0  0  0  0  0
    7.2503   -7.4763    0.0000 C   0  0  1  0  0  0  0  0  0  0  0  0
    5.8214   -7.4677    0.0000 O   0  0  0  0  0  0  0  0  0  0  0  0
    6.5333   -7.8845    0.0000 C   0  0  2  0  0  0  0  0  0  0  0  0
    6.5284   -8.7095    0.0000 C   0  0  1  0  0  0  0  0  0  0  0  0
    7.2355   -9.9512    0.0000 O   0  0  0  0  0  0  0  0  0  0  0  0
    7.2404   -9.1262    0.0000 C   0  0  1  0  0  0  0  0  0  0  0  0
    7.9573   -8.7180    0.0000 C   0  0  2  0  0  0  0  0  0  0  0  0
   14.3950   -8.3150    0.0000 H   0  0  0  0  0  0  0  0  0  0  0  0
   15.8239   -8.3150    0.0000 C   0  0  0  0  0  0  0  0  0  0  0  0
   15.1094   -7.0775    0.0000 C   0  0  0  0  0  0  0  0  0  0  0  0
   16.5384   -7.0775    0.0000 H   0  0  0  0  0  0  0  0  0  0  0  0
   10.8358   -6.2550    0.0000 O   0  0  0  0  0  0  0  0  0  0  0  0
 33 23  2  0  0  0  0
 33 32  1  0  0  0  0
  1  2  1  0  0  0  0
  2  3  1  0  0  0  0
  3  4  1  0  0  0  0
  4  5  1  0  0  0  0
  5  6  1  0  0  0  0
  6  7  1  0  0  0  0
  7  8  1  0  0  0  0
  8  9  1  0  0  0  0
  9 10  1  0  0  0  0
 10 11  1  0  0  0  0
 11 12  1  0  0  0  0
 12 13  1  0  0  0  0
 13 14  1  0  0  0  0
 14 15  1  0  0  0  0
 15 16  1  0  0  0  0
 16 17  1  0  0  0  0
 12 17  1  0  0  0  0
 17 18  1  0  0  0  0
  9 18  1  0  0  0  0
 18 19  1  0  0  0  0
 19 20  1  0  0  0  0
 20 21  2  0  0  0  0
  8 21  1  0  0  0  0
 21 22  1  0  0  0  0
  5 22  1  0  0  0  0
  1 22  1  0  0  0  0
  5 33  1  1  0  0  0
 17 24  1  1  0  0  0
 13 25  1  1  0  0  0
  2 26  1  0  0  0  0
  2 27  1  0  0  0  0
 28 29  1  0  0  0  0
 13 28  1  0  0  0  0
 14 30  1  1  0  0  0
 12 31  1  6  0  0  0
 34 35  1  0  0  0  0
 35 36  1  6  0  0  0
 35 37  1  0  0  0  0
 37 38  1  1  0  0  0
 37 39  1  0  0  0  0
 39 40  1  6  0  0  0
 39 41  1  0  0  0  0
 41 42  1  0  0  0  0
 41 43  1  1  0  0  0
 43 44  1  0  0  0  0
 34 42  1  0  0  0  0
 46 45  1  1  0  0  0
 46 47  1  0  0  0  0
 47 48  1  0  0  0  0
 48 49  1  0  0  0  0
 49 50  1  0  0  0  0
 50 51  1  0  0  0  0
 51 46  1  0  0  0  0
 49 52  1  1  0  0  0
 48 53  1  6  0  0  0
 51 54  1  6  0  0  0
 50 55  1  6  0  0  0
 65 58  1  0  0  0  0
 57 56  1  0  0  0  0
 59 57  1  1  0  0  0
 59 58  1  0  0  0  0
 61 59  1  0  0  0  0
 61 60  1  1  0  0  0
 62 61  1  0  0  0  0
 64 62  1  0  0  0  0
 64 63  1  6  0  0  0
 65 64  1  0  0  0  0
 65 38  1  1  0  0  0
 62 45  1  1  0  0  0
 34 30  1  1  0  0  0
 18 66  1  6  0  0  0
  8 67  1  6  0  0  0
  9 68  1  1  0  0  0
 22 69  1  1  0  0  0
 43 70  2  0  0  0  0
M  END
>  <cdx:fragmentId>
5

$$$$
