95438.cdx
  Mrv1902 05222410202D          

 81 89  0  0  0  0            999 V2000
   13.7240   -4.8580    0.0000 C   0  0  0  0  0  0  0  0  0  0  0  0
   14.4385   -4.4455    0.0000 C   0  0  0  0  0  0  0  0  0  0  0  0
   15.1530   -4.8580    0.0000 C   0  0  0  0  0  0  0  0  0  0  0  0
   15.1530   -5.6830    0.0000 C   0  0  0  0  0  0  0  0  0  0  0  0
   14.4385   -6.0955    0.0000 C   0  0  2  0  0  0  0  0  0  0  0  0
   14.4385   -6.9205    0.0000 C   0  0  0  0  0  0  0  0  0  0  0  0
   13.7240   -7.3330    0.0000 C   0  0  0  0  0  0  0  0  0  0  0  0
   13.0095   -6.9205    0.0000 C   0  0  1  0  0  0  0  0  0  0  0  0
   12.2951   -7.3330    0.0000 C   0  0  2  0  0  0  0  0  0  0  0  0
   12.2951   -8.1580    0.0000 C   0  0  0  0  0  0  0  0  0  0  0  0
   11.5806   -8.5705    0.0000 C   0  0  0  0  0  0  0  0  0  0  0  0
   10.8661   -8.1580    0.0000 C   0  0  1  0  0  0  0  0  0  0  0  0
   10.1517   -8.5705    0.0000 C   0  0  2  0  0  0  0  0  0  0  0  0
    9.4372   -8.1580    0.0000 C   0  0  2  0  0  0  0  0  0  0  0  0
    9.4372   -7.3330    0.0000 C   0  0  0  0  0  0  0  0  0  0  0  0
   10.1517   -6.9205    0.0000 C   0  0  0  0  0  0  0  0  0  0  0  0
   10.8661   -7.3330    0.0000 C   0  0  2  0  0  0  0  0  0  0  0  0
   11.5806   -6.9205    0.0000 C   0  0  1  0  0  0  0  0  0  0  0  0
   11.5806   -6.0955    0.0000 C   0  0  0  0  0  0  0  0  0  0  0  0
   12.2951   -5.6830    0.0000 C   0  0  0  0  0  0  0  0  0  0  0  0
   13.0095   -6.0955    0.0000 C   0  0  0  0  0  0  0  0  0  0  0  0
   13.7240   -5.6830    0.0000 C   0  0  2  0  0  0  0  0  0  0  0  0
   16.6040   -6.4683    0.0000 C   0  0  1  0  0  0  0  0  0  0  0  0
   10.8661   -6.5080    0.0000 C   0  0  0  0  0  0  0  0  0  0  0  0
    9.7392   -9.2850    0.0000 C   0  0  0  0  0  0  0  0  0  0  0  0
   14.0260   -3.7311    0.0000 C   0  0  0  0  0  0  0  0  0  0  0  0
   14.8510   -3.7311    0.0000 C   0  0  0  0  0  0  0  0  0  0  0  0
   10.5642   -9.2850    0.0000 C   0  0  0  0  0  0  0  0  0  0  0  0
   10.1517   -9.9995    0.0000 O   0  0  0  0  0  0  0  0  0  0  0  0
    8.7227   -8.5705    0.0000 O   0  0  0  0  0  0  0  0  0  0  0  0
   10.8661   -8.9830    0.0000 H   0  0  0  0  0  0  0  0  0  0  0  0
   13.7240   -6.5080    0.0000 H   0  0  0  0  0  0  0  0  0  0  0  0
   17.3067   -6.0361    0.0000 C   0  0  2  0  0  0  0  0  0  0  0  0
   17.2838   -5.2114    0.0000 O   0  0  0  0  0  0  0  0  0  0  0  0
   18.0324   -6.4286    0.0000 C   0  0  1  0  0  0  0  0  0  0  0  0
   18.7351   -5.9965    0.0000 O   0  0  0  0  0  0  0  0  0  0  0  0
   18.0553   -7.2533    0.0000 C   0  0  2  0  0  0  0  0  0  0  0  0
   18.7809   -7.6458    0.0000 O   0  0  0  0  0  0  0  0  0  0  0  0
   17.3525   -7.6855    0.0000 C   0  0  2  0  0  0  0  0  0  0  0  0
   16.6269   -7.2930    0.0000 O   0  0  0  0  0  0  0  0  0  0  0  0
   17.3755   -8.5102    0.0000 C   0  0  0  0  0  0  0  0  0  0  0  0
   16.7528  -12.2364    0.0000 O   0  0  0  0  0  0  0  0  0  0  0  0
   16.7327  -11.4117    0.0000 C   0  0  0  0  0  0  0  0  0  0  0  0
   17.4169  -10.1572    0.0000 O   0  0  0  0  0  0  0  0  0  0  0  0
   17.4370  -10.9819    0.0000 C   0  0  1  0  0  0  0  0  0  0  0  0
   18.1813  -12.2017    0.0000 O   0  0  0  0  0  0  0  0  0  0  0  0
   18.1613  -11.3769    0.0000 C   0  0  1  0  0  0  0  0  0  0  0  0
   19.5898  -11.3422    0.0000 O   0  0  0  0  0  0  0  0  0  0  0  0
   18.8655  -10.9472    0.0000 C   0  0  2  0  0  0  0  0  0  0  0  0
   19.5497   -9.6927    0.0000 O   0  0  0  0  0  0  0  0  0  0  0  0
   18.8454  -10.1224    0.0000 C   0  0  1  0  0  0  0  0  0  0  0  0
   18.1212   -9.7274    0.0000 C   0  0  2  0  0  0  0  0  0  0  0  0
   18.1011   -8.9027    0.0000 O   0  0  0  0  0  0  0  0  0  0  0  0
   15.8783   -6.0758    0.0000 O   0  0  0  0  0  0  0  0  0  0  0  0
   15.1530   -7.3330    0.0000 O   0  0  0  0  0  0  0  0  0  0  0  0
    8.0064   -8.1681    0.0000 C   0  0  1  0  0  0  0  0  0  0  0  0
    7.2918   -8.5804    0.0000 C   0  0  2  0  0  0  0  0  0  0  0  0
    7.2916   -9.4054    0.0000 O   0  0  0  0  0  0  0  0  0  0  0  0
    6.5775   -8.1677    0.0000 C   0  0  1  0  0  0  0  0  0  0  0  0
    5.8629   -8.5800    0.0000 O   0  0  0  0  0  0  0  0  0  0  0  0
    6.5777   -7.3427    0.0000 C   0  0  2  0  0  0  0  0  0  0  0  0
    5.8633   -6.9300    0.0000 O   0  0  0  0  0  0  0  0  0  0  0  0
    7.2923   -6.9304    0.0000 C   0  0  2  0  0  0  0  0  0  0  0  0
    8.0066   -7.3431    0.0000 O   0  0  0  0  0  0  0  0  0  0  0  0
    7.2925   -6.1054    0.0000 C   0  0  0  0  0  0  0  0  0  0  0  0
    6.5781   -5.6927    0.0000 O   0  0  0  0  0  0  0  0  0  0  0  0
    6.5771   -9.8177    0.0000 C   0  0  2  0  0  0  0  0  0  0  0  0
    5.8627   -9.4050    0.0000 O   0  0  0  0  0  0  0  0  0  0  0  0
    5.1481   -9.8173    0.0000 C   0  0  2  0  0  0  0  0  0  0  0  0
    5.1479  -10.6423    0.0000 C   0  0  1  0  0  0  0  0  0  0  0  0
    5.8623  -11.0550    0.0000 C   0  0  2  0  0  0  0  0  0  0  0  0
    6.5768  -10.6427    0.0000 C   0  0  1  0  0  0  0  0  0  0  0  0
    4.4333  -11.0546    0.0000 O   0  0  0  0  0  0  0  0  0  0  0  0
    4.4337   -9.4046    0.0000 C   0  0  0  0  0  0  0  0  0  0  0  0
    7.2912  -11.0554    0.0000 O   0  0  0  0  0  0  0  0  0  0  0  0
    5.8621  -11.8800    0.0000 O   0  0  0  0  0  0  0  0  0  0  0  0
   15.1530   -6.5080    0.0000 C   0  0  0  0  0  0  0  0  0  0  0  0
    7.9990   -5.6931    0.0000 O   0  0  0  0  0  0  0  0  0  0  0  0
   11.5806   -7.7455    0.0000 H   0  0  0  0  0  0  0  0  0  0  0  0
   13.0095   -7.7455    0.0000 C   0  0  0  0  0  0  0  0  0  0  0  0
   12.2951   -6.5080    0.0000 C   0  0  0  0  0  0  0  0  0  0  0  0
 77 54  1  0  0  0  0
  1  2  1  0  0  0  0
  2  3  1  0  0  0  0
  3  4  1  0  0  0  0
  4  5  1  0  0  0  0
  5  6  1  0  0  0  0
  6  7  1  0  0  0  0
  7  8  1  0  0  0  0
  8  9  1  0  0  0  0
  9 10  1  0  0  0  0
 10 11  1  0  0  0  0
 11 12  1  0  0  0  0
 12 13  1  0  0  0  0
 13 14  1  0  0  0  0
 14 15  1  0  0  0  0
 15 16  1  0  0  0  0
 16 17  1  0  0  0  0
 12 17  1  0  0  0  0
 17 18  1  0  0  0  0
  9 18  1  0  0  0  0
 18 19  1  0  0  0  0
 19 20  1  0  0  0  0
 20 21  2  0  0  0  0
  8 21  1  0  0  0  0
 21 22  1  0  0  0  0
  5 22  1  0  0  0  0
  1 22  1  0  0  0  0
  5 77  1  1  0  0  0
 17 24  1  1  0  0  0
 13 25  1  1  0  0  0
  2 26  1  0  0  0  0
  2 27  1  0  0  0  0
 28 29  1  0  0  0  0
 13 28  1  0  0  0  0
 14 30  1  1  0  0  0
 12 31  1  6  0  0  0
 22 32  1  1  0  0  0
 52 53  1  1  0  0  0
 52 44  1  0  0  0  0
 43 42  1  0  0  0  0
 45 43  1  1  0  0  0
 45 44  1  0  0  0  0
 47 45  1  0  0  0  0
 47 46  1  6  0  0  0
 49 47  1  0  0  0  0
 49 48  1  1  0  0  0
 51 49  1  0  0  0  0
 51 50  1  6  0  0  0
 52 51  1  0  0  0  0
 23 33  1  0  0  0  0
 33 34  1  6  0  0  0
 33 35  1  0  0  0  0
 35 36  1  1  0  0  0
 35 37  1  0  0  0  0
 37 38  1  6  0  0  0
 37 39  1  0  0  0  0
 39 40  1  0  0  0  0
 39 41  1  1  0  0  0
 41 53  1  0  0  0  0
 23 40  1  0  0  0  0
 23 54  1  1  0  0  0
 77 55  2  0  0  0  0
 56 57  1  0  0  0  0
 57 58  1  6  0  0  0
 57 59  1  0  0  0  0
 59 60  1  1  0  0  0
 59 61  1  0  0  0  0
 61 62  1  6  0  0  0
 61 63  1  0  0  0  0
 63 64  1  0  0  0  0
 63 65  1  1  0  0  0
 65 66  1  0  0  0  0
 56 64  1  0  0  0  0
 67 58  1  1  0  0  0
 67 68  1  0  0  0  0
 68 69  1  0  0  0  0
 69 70  1  0  0  0  0
 70 71  1  0  0  0  0
 71 72  1  0  0  0  0
 72 67  1  0  0  0  0
 70 73  1  1  0  0  0
 69 74  1  6  0  0  0
 72 75  1  6  0  0  0
 71 76  1  6  0  0  0
 56 30  1  1  0  0  0
 65 78  2  0  0  0  0
 18 79  1  6  0  0  0
  8 80  1  6  0  0  0
  9 81  1  1  0  0  0
M  END
>  <cdx:fragmentId>
5

$$$$
