95448.cdx
  Mrv1902 05222410212D          

 67 74  0  0  0  0            999 V2000
   15.0984   -4.6832    0.0000 C   0  0  0  0  0  0  0  0  0  0  0  0
   15.8128   -4.2707    0.0000 C   0  0  0  0  0  0  0  0  0  0  0  0
   16.5273   -4.6832    0.0000 C   0  0  0  0  0  0  0  0  0  0  0  0
   16.5273   -5.5082    0.0000 C   0  0  0  0  0  0  0  0  0  0  0  0
   15.8128   -5.9207    0.0000 C   0  0  2  0  0  0  0  0  0  0  0  0
   15.8128   -6.7457    0.0000 C   0  0  0  0  0  0  0  0  0  0  0  0
   15.0984   -7.1582    0.0000 C   0  0  0  0  0  0  0  0  0  0  0  0
   14.3839   -6.7457    0.0000 C   0  0  1  0  0  0  0  0  0  0  0  0
   13.6694   -7.1582    0.0000 C   0  0  2  0  0  0  0  0  0  0  0  0
   13.6694   -7.9832    0.0000 C   0  0  0  0  0  0  0  0  0  0  0  0
   12.9549   -8.3957    0.0000 C   0  0  0  0  0  0  0  0  0  0  0  0
   12.2405   -7.9832    0.0000 C   0  0  1  0  0  0  0  0  0  0  0  0
   11.5260   -8.3957    0.0000 C   0  0  0  0  0  0  0  0  0  0  0  0
   10.8115   -7.9832    0.0000 C   0  0  2  0  0  0  0  0  0  0  0  0
   10.8115   -7.1582    0.0000 C   0  0  0  0  0  0  0  0  0  0  0  0
   11.5260   -6.7457    0.0000 C   0  0  0  0  0  0  0  0  0  0  0  0
   12.2405   -7.1582    0.0000 C   0  0  2  0  0  0  0  0  0  0  0  0
   12.9549   -6.7457    0.0000 C   0  0  1  0  0  0  0  0  0  0  0  0
   12.9549   -5.9207    0.0000 C   0  0  0  0  0  0  0  0  0  0  0  0
   13.6694   -5.5082    0.0000 C   0  0  0  0  0  0  0  0  0  0  0  0
   14.3839   -5.9207    0.0000 C   0  0  0  0  0  0  0  0  0  0  0  0
   15.0984   -5.5082    0.0000 C   0  0  2  0  0  0  0  0  0  0  0  0
   17.2418   -5.9207    0.0000 O   0  0  0  0  0  0  0  0  0  0  0  0
   18.0377   -6.3599    0.0000 C   0  0  1  0  0  0  0  0  0  0  0  0
   18.7471   -5.9387    0.0000 C   0  0  2  0  0  0  0  0  0  0  0  0
   12.2405   -6.3332    0.0000 C   0  0  0  0  0  0  0  0  0  0  0  0
   11.9385   -9.1101    0.0000 C   0  0  0  0  0  0  0  0  0  0  0  0
   11.1135   -9.1101    0.0000 C   0  0  0  0  0  0  0  0  0  0  0  0
   15.4003   -3.5562    0.0000 C   0  0  0  0  0  0  0  0  0  0  0  0
   16.2253   -3.5562    0.0000 C   0  0  0  0  0  0  0  0  0  0  0  0
   10.0971   -8.3957    0.0000 O   0  0  0  0  0  0  0  0  0  0  0  0
   12.2405   -8.8082    0.0000 H   0  0  0  0  0  0  0  0  0  0  0  0
   15.0984   -6.3332    0.0000 H   0  0  0  0  0  0  0  0  0  0  0  0
   18.7370   -5.1137    0.0000 O   0  0  0  0  0  0  0  0  0  0  0  0
   19.4665   -6.3424    0.0000 C   0  0  1  0  0  0  0  0  0  0  0  0
    9.3842   -7.9905    0.0000 C   0  0  1  0  0  0  0  0  0  0  0  0
    8.6701   -8.4037    0.0000 C   0  0  2  0  0  0  0  0  0  0  0  0
    8.6709   -9.2287    0.0000 O   0  0  0  0  0  0  0  0  0  0  0  0
    7.9553   -7.9919    0.0000 C   0  0  1  0  0  0  0  0  0  0  0  0
    7.2412   -8.4050    0.0000 O   0  0  0  0  0  0  0  0  0  0  0  0
    7.9545   -7.1669    0.0000 C   0  0  2  0  0  0  0  0  0  0  0  0
    7.2397   -6.7550    0.0000 O   0  0  0  0  0  0  0  0  0  0  0  0
    8.6686   -6.7537    0.0000 C   0  0  2  0  0  0  0  0  0  0  0  0
    9.3835   -7.1655    0.0000 O   0  0  0  0  0  0  0  0  0  0  0  0
    8.6678   -5.9287    0.0000 C   0  0  0  0  0  0  0  0  0  0  0  0
    7.9530   -5.5169    0.0000 O   0  0  0  0  0  0  0  0  0  0  0  0
    9.3819   -5.5155    0.0000 O   0  0  0  0  0  0  0  0  0  0  0  0
   19.4766   -7.1673    0.0000 C   0  0  1  0  0  0  0  0  0  0  0  0
   20.1961   -7.5711    0.0000 O   0  0  0  0  0  0  0  0  0  0  0  0
   18.7672   -7.5885    0.0000 C   0  0  1  0  0  0  0  0  0  0  0  0
   18.0478   -7.1848    0.0000 O   0  0  0  0  0  0  0  0  0  0  0  0
   18.7773   -8.4135    0.0000 C   0  0  0  0  0  0  0  0  0  0  0  0
   20.1759   -5.9212    0.0000 O   0  0  0  0  0  0  0  0  0  0  0  0
   16.5273   -7.1582    0.0000 O   0  0  0  0  0  0  0  0  0  0  0  0
   16.5273   -6.3332    0.0000 C   0  0  0  0  0  0  0  0  0  0  0  0
    6.5190   -7.9802    0.0000 C   0  0  2  0  0  0  0  0  0  0  0  0
    6.5289   -7.1553    0.0000 O   0  0  0  0  0  0  0  0  0  0  0  0
    5.8194   -6.7342    0.0000 C   0  0  0  0  0  0  0  0  0  0  0  0
    5.1000   -7.1381    0.0000 C   0  0  2  0  0  0  0  0  0  0  0  0
    5.0901   -7.9630    0.0000 C   0  0  1  0  0  0  0  0  0  0  0  0
    5.7996   -8.3841    0.0000 C   0  0  1  0  0  0  0  0  0  0  0  0
    4.3906   -6.7170    0.0000 O   0  0  0  0  0  0  0  0  0  0  0  0
    5.7896   -9.2090    0.0000 O   0  0  0  0  0  0  0  0  0  0  0  0
    4.3707   -8.3669    0.0000 O   0  0  0  0  0  0  0  0  0  0  0  0
   12.9549   -7.5707    0.0000 H   0  0  0  0  0  0  0  0  0  0  0  0
   14.3839   -7.5707    0.0000 C   0  0  0  0  0  0  0  0  0  0  0  0
   13.6694   -6.3332    0.0000 C   0  0  0  0  0  0  0  0  0  0  0  0
  1  2  1  0  0  0  0
  2  3  1  0  0  0  0
  3  4  1  0  0  0  0
  4  5  1  0  0  0  0
  5  6  1  0  0  0  0
  6  7  1  0  0  0  0
  7  8  1  0  0  0  0
  8  9  1  0  0  0  0
  9 10  1  0  0  0  0
 10 11  1  0  0  0  0
 11 12  1  0  0  0  0
 12 13  1  0  0  0  0
 13 14  1  0  0  0  0
 14 15  1  0  0  0  0
 15 16  1  0  0  0  0
 16 17  1  0  0  0  0
 12 17  1  0  0  0  0
 17 18  1  0  0  0  0
  9 18  1  0  0  0  0
 18 19  1  0  0  0  0
 19 20  1  0  0  0  0
 20 21  2  0  0  0  0
  8 21  1  0  0  0  0
 21 22  1  0  0  0  0
  5 22  1  0  0  0  0
  1 22  1  0  0  0  0
  5 55  1  1  0  0  0
 17 26  1  1  0  0  0
 13 27  1  0  0  0  0
 13 28  1  0  0  0  0
  2 29  1  0  0  0  0
  2 30  1  0  0  0  0
 14 31  1  1  0  0  0
 12 32  1  6  0  0  0
 22 33  1  1  0  0  0
 36 37  1  0  0  0  0
 37 38  1  6  0  0  0
 37 39  1  0  0  0  0
 39 40  1  1  0  0  0
 39 41  1  0  0  0  0
 41 42  1  6  0  0  0
 41 43  1  0  0  0  0
 43 44  1  0  0  0  0
 43 45  1  1  0  0  0
 45 46  1  0  0  0  0
 36 44  1  0  0  0  0
 45 47  2  0  0  0  0
 36 31  1  1  0  0  0
 24 25  1  0  0  0  0
 25 34  1  6  0  0  0
 25 35  1  0  0  0  0
 35 48  1  0  0  0  0
 48 49  1  1  0  0  0
 48 50  1  0  0  0  0
 50 51  1  0  0  0  0
 50 52  1  6  0  0  0
 24 51  1  0  0  0  0
 35 53  1  6  0  0  0
 55 54  2  0  0  0  0
 55 23  1  0  0  0  0
 24 23  1  1  0  0  0
 56 57  1  0  0  0  0
 57 58  1  0  0  0  0
 58 59  1  0  0  0  0
 59 60  1  0  0  0  0
 60 61  1  0  0  0  0
 61 56  1  0  0  0  0
 59 62  1  6  0  0  0
 61 63  1  6  0  0  0
 60 64  1  1  0  0  0
 56 40  1  1  0  0  0
 18 65  1  6  0  0  0
  8 66  1  6  0  0  0
  9 67  1  1  0  0  0
M  END
>  <cdx:fragmentId>
5

$$$$
