95440.cdx
  Mrv1902 05222410242D          

 70 77  0  0  0  0            999 V2000
   15.1052   -6.4178    0.0000 C   0  0  0  0  0  0  0  0  0  0  0  0
   15.8197   -6.0053    0.0000 C   0  0  0  0  0  0  0  0  0  0  0  0
   16.5341   -6.4178    0.0000 C   0  0  0  0  0  0  0  0  0  0  0  0
   16.5341   -7.2428    0.0000 C   0  0  0  0  0  0  0  0  0  0  0  0
   15.8197   -7.6553    0.0000 C   0  0  2  0  0  0  0  0  0  0  0  0
   15.8197   -8.4803    0.0000 C   0  0  0  0  0  0  0  0  0  0  0  0
   15.1052   -8.8928    0.0000 C   0  0  0  0  0  0  0  0  0  0  0  0
   14.3907   -8.4803    0.0000 C   0  0  1  0  0  0  0  0  0  0  0  0
   13.6763   -8.8928    0.0000 C   0  0  2  0  0  0  0  0  0  0  0  0
   13.6763   -9.7178    0.0000 C   0  0  0  0  0  0  0  0  0  0  0  0
   12.9618  -10.1303    0.0000 C   0  0  0  0  0  0  0  0  0  0  0  0
   12.2473   -9.7178    0.0000 C   0  0  1  0  0  0  0  0  0  0  0  0
   11.5329  -10.1303    0.0000 C   0  0  2  0  0  0  0  0  0  0  0  0
   10.8184   -9.7178    0.0000 C   0  0  2  0  0  0  0  0  0  0  0  0
   10.8184   -8.8928    0.0000 C   0  0  0  0  0  0  0  0  0  0  0  0
   11.5329   -8.4803    0.0000 C   0  0  0  0  0  0  0  0  0  0  0  0
   12.2473   -8.8928    0.0000 C   0  0  2  0  0  0  0  0  0  0  0  0
   12.9618   -8.4803    0.0000 C   0  0  1  0  0  0  0  0  0  0  0  0
   12.9618   -7.6553    0.0000 C   0  0  0  0  0  0  0  0  0  0  0  0
   13.6763   -7.2428    0.0000 C   0  0  0  0  0  0  0  0  0  0  0  0
   14.3907   -7.6553    0.0000 C   0  0  0  0  0  0  0  0  0  0  0  0
   15.1052   -7.2428    0.0000 C   0  0  2  0  0  0  0  0  0  0  0  0
   17.9861   -8.0263    0.0000 C   0  0  1  0  0  0  0  0  0  0  0  0
   12.2473   -8.0678    0.0000 C   0  0  0  0  0  0  0  0  0  0  0  0
   11.1204  -10.8447    0.0000 C   0  0  0  0  0  0  0  0  0  0  0  0
   15.4072   -5.2908    0.0000 C   0  0  0  0  0  0  0  0  0  0  0  0
   16.2322   -5.2908    0.0000 C   0  0  0  0  0  0  0  0  0  0  0  0
   11.9454  -10.8447    0.0000 C   0  0  0  0  0  0  0  0  0  0  0  0
   11.5329  -11.5592    0.0000 O   0  0  0  0  0  0  0  0  0  0  0  0
   10.1039  -10.1303    0.0000 O   0  0  0  0  0  0  0  0  0  0  0  0
   12.2473  -10.5428    0.0000 H   0  0  0  0  0  0  0  0  0  0  0  0
   15.1052   -8.0678    0.0000 H   0  0  0  0  0  0  0  0  0  0  0  0
   18.6878   -7.5924    0.0000 C   0  0  2  0  0  0  0  0  0  0  0  0
   18.6629   -6.7678    0.0000 O   0  0  0  0  0  0  0  0  0  0  0  0
   19.4144   -7.9832    0.0000 C   0  0  1  0  0  0  0  0  0  0  0  0
   20.1161   -7.5493    0.0000 O   0  0  0  0  0  0  0  0  0  0  0  0
   19.4393   -8.8078    0.0000 C   0  0  2  0  0  0  0  0  0  0  0  0
   20.1659   -9.1986    0.0000 O   0  0  0  0  0  0  0  0  0  0  0  0
   18.7376   -9.2417    0.0000 C   0  0  2  0  0  0  0  0  0  0  0  0
   18.0110   -8.8509    0.0000 O   0  0  0  0  0  0  0  0  0  0  0  0
   18.7625  -10.0663    0.0000 C   0  0  0  0  0  0  0  0  0  0  0  0
   19.4891  -10.4571    0.0000 O   0  0  0  0  0  0  0  0  0  0  0  0
   17.2595   -7.6355    0.0000 O   0  0  0  0  0  0  0  0  0  0  0  0
   16.5341   -8.8928    0.0000 O   0  0  0  0  0  0  0  0  0  0  0  0
    9.3876   -9.7278    0.0000 C   0  0  1  0  0  0  0  0  0  0  0  0
    8.6730  -10.1401    0.0000 C   0  0  2  0  0  0  0  0  0  0  0  0
    8.6728  -10.9651    0.0000 O   0  0  0  0  0  0  0  0  0  0  0  0
    7.9587   -9.7274    0.0000 C   0  0  1  0  0  0  0  0  0  0  0  0
    7.2441  -10.1397    0.0000 O   0  0  0  0  0  0  0  0  0  0  0  0
    7.9589   -8.9024    0.0000 C   0  0  2  0  0  0  0  0  0  0  0  0
    7.2445   -8.4897    0.0000 O   0  0  0  0  0  0  0  0  0  0  0  0
    8.6735   -8.4901    0.0000 C   0  0  2  0  0  0  0  0  0  0  0  0
    9.3878   -8.9028    0.0000 O   0  0  0  0  0  0  0  0  0  0  0  0
    8.6737   -7.6651    0.0000 C   0  0  0  0  0  0  0  0  0  0  0  0
    7.9593   -7.2524    0.0000 O   0  0  0  0  0  0  0  0  0  0  0  0
    7.9583  -11.3774    0.0000 C   0  0  2  0  0  0  0  0  0  0  0  0
    7.2439  -10.9647    0.0000 O   0  0  0  0  0  0  0  0  0  0  0  0
    6.5293  -11.3771    0.0000 C   0  0  2  0  0  0  0  0  0  0  0  0
    6.5291  -12.2021    0.0000 C   0  0  1  0  0  0  0  0  0  0  0  0
    7.2435  -12.6147    0.0000 C   0  0  2  0  0  0  0  0  0  0  0  0
    7.9580  -12.2024    0.0000 C   0  0  1  0  0  0  0  0  0  0  0  0
    5.8145  -12.6144    0.0000 O   0  0  0  0  0  0  0  0  0  0  0  0
    5.8149  -10.9644    0.0000 C   0  0  0  0  0  0  0  0  0  0  0  0
    8.6724  -12.6151    0.0000 O   0  0  0  0  0  0  0  0  0  0  0  0
    7.2433  -13.4398    0.0000 O   0  0  0  0  0  0  0  0  0  0  0  0
   16.5341   -8.0678    0.0000 C   0  0  0  0  0  0  0  0  0  0  0  0
    9.3802   -7.2529    0.0000 O   0  0  0  0  0  0  0  0  0  0  0  0
   13.6763   -8.0678    0.0000 C   0  0  0  0  0  0  0  0  0  0  0  0
   12.9618   -9.3053    0.0000 H   0  0  0  0  0  0  0  0  0  0  0  0
   14.3907   -9.3053    0.0000 C   0  0  0  0  0  0  0  0  0  0  0  0
 66 43  1  0  0  0  0
  1  2  1  0  0  0  0
  2  3  1  0  0  0  0
  3  4  1  0  0  0  0
  4  5  1  0  0  0  0
  5  6  1  0  0  0  0
  6  7  1  0  0  0  0
  7  8  1  0  0  0  0
  8  9  1  0  0  0  0
  9 10  1  0  0  0  0
 10 11  1  0  0  0  0
 11 12  1  0  0  0  0
 12 13  1  0  0  0  0
 13 14  1  0  0  0  0
 14 15  1  0  0  0  0
 15 16  1  0  0  0  0
 16 17  1  0  0  0  0
 12 17  1  0  0  0  0
 17 18  1  0  0  0  0
  9 18  1  0  0  0  0
 18 19  1  0  0  0  0
 19 20  1  0  0  0  0
 20 21  2  0  0  0  0
  8 21  1  0  0  0  0
 21 22  1  0  0  0  0
  5 22  1  0  0  0  0
  1 22  1  0  0  0  0
  5 66  1  1  0  0  0
 17 24  1  1  0  0  0
 13 25  1  1  0  0  0
  2 26  1  0  0  0  0
  2 27  1  0  0  0  0
 28 29  2  0  0  0  0
 13 28  1  0  0  0  0
 14 30  1  1  0  0  0
 12 31  1  6  0  0  0
 22 32  1  1  0  0  0
 23 33  1  0  0  0  0
 33 34  1  6  0  0  0
 33 35  1  0  0  0  0
 35 36  1  1  0  0  0
 35 37  1  0  0  0  0
 37 38  1  6  0  0  0
 37 39  1  0  0  0  0
 39 40  1  0  0  0  0
 39 41  1  1  0  0  0
 41 42  1  0  0  0  0
 23 40  1  0  0  0  0
 23 43  1  1  0  0  0
 66 44  2  0  0  0  0
 45 46  1  0  0  0  0
 46 47  1  6  0  0  0
 46 48  1  0  0  0  0
 48 49  1  1  0  0  0
 48 50  1  0  0  0  0
 50 51  1  6  0  0  0
 50 52  1  0  0  0  0
 52 53  1  0  0  0  0
 52 54  1  1  0  0  0
 54 55  1  0  0  0  0
 45 53  1  0  0  0  0
 56 47  1  1  0  0  0
 56 57  1  0  0  0  0
 57 58  1  0  0  0  0
 58 59  1  0  0  0  0
 59 60  1  0  0  0  0
 60 61  1  0  0  0  0
 61 56  1  0  0  0  0
 59 62  1  1  0  0  0
 58 63  1  6  0  0  0
 61 64  1  6  0  0  0
 60 65  1  6  0  0  0
 45 30  1  1  0  0  0
 54 67  2  0  0  0  0
  9 68  1  1  0  0  0
 18 69  1  6  0  0  0
  8 70  1  6  0  0  0
M  END
>  <cdx:fragmentId>
5

$$$$
