95441.cdx
  Mrv1902 05222410242D          

 80 88  0  0  0  0            999 V2000
   16.5111   -4.6402    0.0000 C   0  0  0  0  0  0  0  0  0  0  0  0
   17.2255   -4.2277    0.0000 C   0  0  0  0  0  0  0  0  0  0  0  0
   17.9400   -4.6402    0.0000 C   0  0  0  0  0  0  0  0  0  0  0  0
   17.9400   -5.4652    0.0000 C   0  0  0  0  0  0  0  0  0  0  0  0
   17.2255   -5.8777    0.0000 C   0  0  2  0  0  0  0  0  0  0  0  0
   17.2255   -6.7027    0.0000 C   0  0  0  0  0  0  0  0  0  0  0  0
   16.5111   -7.1152    0.0000 C   0  0  0  0  0  0  0  0  0  0  0  0
   15.7966   -6.7027    0.0000 C   0  0  1  0  0  0  0  0  0  0  0  0
   15.0821   -7.1152    0.0000 C   0  0  2  0  0  0  0  0  0  0  0  0
   15.0821   -7.9402    0.0000 C   0  0  0  0  0  0  0  0  0  0  0  0
   14.3676   -8.3527    0.0000 C   0  0  0  0  0  0  0  0  0  0  0  0
   13.6532   -7.9402    0.0000 C   0  0  1  0  0  0  0  0  0  0  0  0
   12.9387   -8.3527    0.0000 C   0  0  0  0  0  0  0  0  0  0  0  0
   12.2242   -7.9402    0.0000 C   0  0  2  0  0  0  0  0  0  0  0  0
   12.2242   -7.1152    0.0000 C   0  0  0  0  0  0  0  0  0  0  0  0
   12.9387   -6.7027    0.0000 C   0  0  0  0  0  0  0  0  0  0  0  0
   13.6532   -7.1152    0.0000 C   0  0  2  0  0  0  0  0  0  0  0  0
   14.3676   -6.7027    0.0000 C   0  0  1  0  0  0  0  0  0  0  0  0
   14.3676   -5.8777    0.0000 C   0  0  0  0  0  0  0  0  0  0  0  0
   15.0821   -5.4652    0.0000 C   0  0  0  0  0  0  0  0  0  0  0  0
   15.7966   -5.8777    0.0000 C   0  0  0  0  0  0  0  0  0  0  0  0
   16.5111   -5.4652    0.0000 C   0  0  2  0  0  0  0  0  0  0  0  0
   18.6545   -5.8777    0.0000 O   0  0  0  0  0  0  0  0  0  0  0  0
   19.3674   -6.2974    0.0000 C   0  0  1  0  0  0  0  0  0  0  0  0
   20.0823   -5.8857    0.0000 C   0  0  2  0  0  0  0  0  0  0  0  0
   13.6532   -6.2902    0.0000 C   0  0  0  0  0  0  0  0  0  0  0  0
   13.3512   -9.0671    0.0000 C   0  0  0  0  0  0  0  0  0  0  0  0
   12.5262   -9.0671    0.0000 C   0  0  0  0  0  0  0  0  0  0  0  0
   16.8130   -3.5132    0.0000 C   0  0  0  0  0  0  0  0  0  0  0  0
   17.6380   -3.5132    0.0000 C   0  0  0  0  0  0  0  0  0  0  0  0
   11.5098   -8.3527    0.0000 O   0  0  0  0  0  0  0  0  0  0  0  0
   13.6532   -8.7652    0.0000 H   0  0  0  0  0  0  0  0  0  0  0  0
   16.5111   -6.2902    0.0000 H   0  0  0  0  0  0  0  0  0  0  0  0
   20.0831   -5.0607    0.0000 O   0  0  0  0  0  0  0  0  0  0  0  0
   20.7963   -6.2989    0.0000 C   0  0  1  0  0  0  0  0  0  0  0  0
   10.7966   -7.9481    0.0000 C   0  0  1  0  0  0  0  0  0  0  0  0
   10.0828   -8.3617    0.0000 C   0  0  2  0  0  0  0  0  0  0  0  0
   10.0842   -9.1867    0.0000 O   0  0  0  0  0  0  0  0  0  0  0  0
    9.3677   -7.9504    0.0000 C   0  0  1  0  0  0  0  0  0  0  0  0
    8.6539   -8.3641    0.0000 O   0  0  0  0  0  0  0  0  0  0  0  0
    9.3663   -7.1254    0.0000 C   0  0  2  0  0  0  0  0  0  0  0  0
    8.6512   -6.7141    0.0000 O   0  0  0  0  0  0  0  0  0  0  0  0
   10.0801   -6.7117    0.0000 C   0  0  2  0  0  0  0  0  0  0  0  0
   10.7953   -7.1231    0.0000 O   0  0  0  0  0  0  0  0  0  0  0  0
   10.0787   -5.8867    0.0000 C   0  0  0  0  0  0  0  0  0  0  0  0
    9.3636   -5.4754    0.0000 O   0  0  0  0  0  0  0  0  0  0  0  0
    9.6518   -9.8893    0.0000 C   0  0  2  0  0  0  0  0  0  0  0  0
    8.8271   -9.8662    0.0000 O   0  0  0  0  0  0  0  0  0  0  0  0
    8.3948  -10.5688    0.0000 C   0  0  2  0  0  0  0  0  0  0  0  0
    8.7870  -11.2946    0.0000 C   0  0  1  0  0  0  0  0  0  0  0  0
    9.6117  -11.3177    0.0000 C   0  0  2  0  0  0  0  0  0  0  0  0
   10.0441  -10.6151    0.0000 C   0  0  1  0  0  0  0  0  0  0  0  0
    8.3546  -11.9972    0.0000 O   0  0  0  0  0  0  0  0  0  0  0  0
    7.5701  -10.5456    0.0000 C   0  0  0  0  0  0  0  0  0  0  0  0
   10.8688  -10.6383    0.0000 O   0  0  0  0  0  0  0  0  0  0  0  0
   10.0040  -12.0435    0.0000 O   0  0  0  0  0  0  0  0  0  0  0  0
    7.9937   -7.9680    0.0000 C   0  0  1  0  0  0  0  0  0  0  0  0
    7.2855   -8.3912    0.0000 C   0  0  2  0  0  0  0  0  0  0  0  0
    7.2978   -9.2161    0.0000 O   0  0  0  0  0  0  0  0  0  0  0  0
    6.5649   -7.9894    0.0000 C   0  0  2  0  0  0  0  0  0  0  0  0
    6.5526   -7.1645    0.0000 C   0  0  2  0  0  0  0  0  0  0  0  0
    5.8320   -6.7628    0.0000 O   0  0  0  0  0  0  0  0  0  0  0  0
    7.2608   -6.7414    0.0000 C   0  0  2  0  0  0  0  0  0  0  0  0
    7.9813   -7.1431    0.0000 O   0  0  0  0  0  0  0  0  0  0  0  0
    7.2484   -5.9165    0.0000 C   0  0  0  0  0  0  0  0  0  0  0  0
    6.5279   -5.5147    0.0000 O   0  0  0  0  0  0  0  0  0  0  0  0
   10.7925   -5.4731    0.0000 O   0  0  0  0  0  0  0  0  0  0  0  0
    5.8567   -8.4126    0.0000 O   0  0  0  0  0  0  0  0  0  0  0  0
   21.5112   -5.8871    0.0000 O   0  0  0  0  0  0  0  0  0  0  0  0
   20.7955   -7.1239    0.0000 C   0  0  2  0  0  0  0  0  0  0  0  0
   21.5095   -7.5371    0.0000 O   0  0  0  0  0  0  0  0  0  0  0  0
   20.0806   -7.5357    0.0000 C   0  0  2  0  0  0  0  0  0  0  0  0
   19.3665   -7.1224    0.0000 O   0  0  0  0  0  0  0  0  0  0  0  0
   20.0797   -8.3607    0.0000 C   0  0  0  0  0  0  0  0  0  0  0  0
   20.7938   -8.7739    0.0000 O   0  0  0  0  0  0  0  0  0  0  0  0
   17.9400   -7.1152    0.0000 O   0  0  0  0  0  0  0  0  0  0  0  0
   17.9400   -6.2902    0.0000 C   0  0  0  0  0  0  0  0  0  0  0  0
   14.3676   -7.5277    0.0000 H   0  0  0  0  0  0  0  0  0  0  0  0
   15.7966   -7.5277    0.0000 C   0  0  0  0  0  0  0  0  0  0  0  0
   15.0821   -6.2902    0.0000 C   0  0  0  0  0  0  0  0  0  0  0  0
  1  2  1  0  0  0  0
  2  3  1  0  0  0  0
  3  4  1  0  0  0  0
  4  5  1  0  0  0  0
  5  6  1  0  0  0  0
  6  7  1  0  0  0  0
  7  8  1  0  0  0  0
  8  9  1  0  0  0  0
  9 10  1  0  0  0  0
 10 11  1  0  0  0  0
 11 12  1  0  0  0  0
 12 13  1  0  0  0  0
 13 14  1  0  0  0  0
 14 15  1  0  0  0  0
 15 16  1  0  0  0  0
 16 17  1  0  0  0  0
 12 17  1  0  0  0  0
 17 18  1  0  0  0  0
  9 18  1  0  0  0  0
 18 19  1  0  0  0  0
 19 20  1  0  0  0  0
 20 21  2  0  0  0  0
  8 21  1  0  0  0  0
 21 22  1  0  0  0  0
  5 22  1  0  0  0  0
  1 22  1  0  0  0  0
  5 77  1  1  0  0  0
 17 26  1  1  0  0  0
 13 27  1  0  0  0  0
 13 28  1  0  0  0  0
  2 29  1  0  0  0  0
  2 30  1  0  0  0  0
 14 31  1  1  0  0  0
 12 32  1  6  0  0  0
 22 33  1  1  0  0  0
 36 37  1  0  0  0  0
 37 38  1  6  0  0  0
 37 39  1  0  0  0  0
 39 40  1  1  0  0  0
 39 41  1  0  0  0  0
 41 42  1  6  0  0  0
 41 43  1  0  0  0  0
 43 44  1  0  0  0  0
 43 45  1  1  0  0  0
 45 46  1  0  0  0  0
 36 44  1  0  0  0  0
 47 38  1  1  0  0  0
 47 48  1  0  0  0  0
 48 49  1  0  0  0  0
 49 50  1  0  0  0  0
 50 51  1  0  0  0  0
 51 52  1  0  0  0  0
 52 47  1  0  0  0  0
 50 53  1  1  0  0  0
 49 54  1  6  0  0  0
 52 55  1  6  0  0  0
 51 56  1  6  0  0  0
 57 58  1  0  0  0  0
 58 59  1  6  0  0  0
 58 60  1  0  0  0  0
 60 61  1  0  0  0  0
 61 62  1  6  0  0  0
 61 63  1  0  0  0  0
 63 64  1  0  0  0  0
 63 65  1  1  0  0  0
 65 66  1  0  0  0  0
 57 64  1  0  0  0  0
 45 67  2  0  0  0  0
 60 68  1  1  0  0  0
 57 40  1  1  0  0  0
 24 25  1  0  0  0  0
 25 34  1  6  0  0  0
 25 35  1  0  0  0  0
 35 69  1  1  0  0  0
 35 70  1  0  0  0  0
 70 71  1  6  0  0  0
 70 72  1  0  0  0  0
 72 73  1  0  0  0  0
 72 74  1  1  0  0  0
 74 75  1  0  0  0  0
 24 73  1  0  0  0  0
 77 76  2  0  0  0  0
 77 23  1  0  0  0  0
 24 23  1  1  0  0  0
 36 31  1  1  0  0  0
 18 78  1  6  0  0  0
  8 79  1  6  0  0  0
  9 80  1  1  0  0  0
M  END
>  <cdx:fragmentId>
5

$$$$
