95446.cdx
  Mrv1902 05222410252D          

 69 76  0  0  0  0            999 V2000
   16.5322   -5.1553    0.0000 C   0  0  0  0  0  0  0  0  0  0  0  0
   17.2466   -4.7428    0.0000 C   0  0  0  0  0  0  0  0  0  0  0  0
   17.9611   -5.1553    0.0000 C   0  0  0  0  0  0  0  0  0  0  0  0
   17.9611   -5.9803    0.0000 C   0  0  0  0  0  0  0  0  0  0  0  0
   17.2466   -6.3928    0.0000 C   0  0  2  0  0  0  0  0  0  0  0  0
   17.2466   -7.2178    0.0000 C   0  0  0  0  0  0  0  0  0  0  0  0
   16.5322   -7.6303    0.0000 C   0  0  0  0  0  0  0  0  0  0  0  0
   15.8177   -7.2178    0.0000 C   0  0  1  0  0  0  0  0  0  0  0  0
   15.1032   -7.6303    0.0000 C   0  0  2  0  0  0  0  0  0  0  0  0
   15.1032   -8.4553    0.0000 C   0  0  0  0  0  0  0  0  0  0  0  0
   14.3888   -8.8678    0.0000 C   0  0  0  0  0  0  0  0  0  0  0  0
   13.6743   -8.4553    0.0000 C   0  0  1  0  0  0  0  0  0  0  0  0
   12.9598   -8.8678    0.0000 C   0  0  0  0  0  0  0  0  0  0  0  0
   12.2453   -8.4553    0.0000 C   0  0  2  0  0  0  0  0  0  0  0  0
   12.2453   -7.6303    0.0000 C   0  0  0  0  0  0  0  0  0  0  0  0
   12.9598   -7.2178    0.0000 C   0  0  0  0  0  0  0  0  0  0  0  0
   13.6743   -7.6303    0.0000 C   0  0  2  0  0  0  0  0  0  0  0  0
   14.3888   -7.2178    0.0000 C   0  0  1  0  0  0  0  0  0  0  0  0
   14.3888   -6.3928    0.0000 C   0  0  0  0  0  0  0  0  0  0  0  0
   15.1032   -5.9803    0.0000 C   0  0  0  0  0  0  0  0  0  0  0  0
   15.8177   -6.3928    0.0000 C   0  0  0  0  0  0  0  0  0  0  0  0
   16.5322   -5.9803    0.0000 C   0  0  2  0  0  0  0  0  0  0  0  0
   17.9611   -7.6303    0.0000 O   0  0  0  0  0  0  0  0  0  0  0  0
   13.6743   -6.8053    0.0000 C   0  0  0  0  0  0  0  0  0  0  0  0
   13.3723   -9.5822    0.0000 C   0  0  0  0  0  0  0  0  0  0  0  0
   12.5473   -9.5822    0.0000 C   0  0  0  0  0  0  0  0  0  0  0  0
   16.8341   -4.0283    0.0000 C   0  0  0  0  0  0  0  0  0  0  0  0
   17.6591   -4.0283    0.0000 C   0  0  0  0  0  0  0  0  0  0  0  0
   11.5309   -8.8678    0.0000 O   0  0  0  0  0  0  0  0  0  0  0  0
   13.6743   -9.2803    0.0000 H   0  0  0  0  0  0  0  0  0  0  0  0
   16.5322   -6.8053    0.0000 H   0  0  0  0  0  0  0  0  0  0  0  0
   18.6756   -6.3928    0.0000 O   0  0  0  0  0  0  0  0  0  0  0  0
   17.9611   -6.8053    0.0000 C   0  0  0  0  0  0  0  0  0  0  0  0
   10.8177   -8.4632    0.0000 C   0  0  1  0  0  0  0  0  0  0  0  0
   10.1040   -8.8769    0.0000 C   0  0  2  0  0  0  0  0  0  0  0  0
   10.1053   -9.7019    0.0000 O   0  0  0  0  0  0  0  0  0  0  0  0
    9.3888   -8.4656    0.0000 C   0  0  1  0  0  0  0  0  0  0  0  0
    8.6750   -8.8793    0.0000 O   0  0  0  0  0  0  0  0  0  0  0  0
    9.3874   -7.6406    0.0000 C   0  0  2  0  0  0  0  0  0  0  0  0
    8.6722   -7.2293    0.0000 O   0  0  0  0  0  0  0  0  0  0  0  0
   10.1012   -7.2269    0.0000 C   0  0  2  0  0  0  0  0  0  0  0  0
   10.8163   -7.6382    0.0000 O   0  0  0  0  0  0  0  0  0  0  0  0
   10.0998   -6.4019    0.0000 C   0  0  0  0  0  0  0  0  0  0  0  0
    9.3846   -5.9906    0.0000 O   0  0  0  0  0  0  0  0  0  0  0  0
   10.8136   -5.9882    0.0000 O   0  0  0  0  0  0  0  0  0  0  0  0
    7.7556   -7.2462    0.0000 C   0  0  1  0  0  0  0  0  0  0  0  0
    7.3529   -7.9663    0.0000 C   0  0  2  0  0  0  0  0  0  0  0  0
    7.7752   -8.6750    0.0000 O   0  0  0  0  0  0  0  0  0  0  0  0
    6.5280   -7.9776    0.0000 C   0  0  1  0  0  0  0  0  0  0  0  0
    6.1057   -7.2689    0.0000 C   0  0  1  0  0  0  0  0  0  0  0  0
    5.2808   -7.2802    0.0000 O   0  0  0  0  0  0  0  0  0  0  0  0
    6.5084   -6.5488    0.0000 C   0  0  1  0  0  0  0  0  0  0  0  0
    7.3333   -6.5375    0.0000 O   0  0  0  0  0  0  0  0  0  0  0  0
    6.0861   -5.8401    0.0000 C   0  0  0  0  0  0  0  0  0  0  0  0
    6.1254   -8.6977    0.0000 O   0  0  0  0  0  0  0  0  0  0  0  0
    9.3990  -10.1185    0.0000 C   0  0  2  0  0  0  0  0  0  0  0  0
    8.6826   -9.7093    0.0000 O   0  0  0  0  0  0  0  0  0  0  0  0
    7.9700  -10.1250    0.0000 C   0  0  1  0  0  0  0  0  0  0  0  0
    7.9738  -10.9500    0.0000 C   0  0  2  0  0  0  0  0  0  0  0  0
    8.6902  -11.3593    0.0000 C   0  0  1  0  0  0  0  0  0  0  0  0
    9.4027  -10.9435    0.0000 C   0  0  1  0  0  0  0  0  0  0  0  0
    7.2612  -11.3658    0.0000 O   0  0  0  0  0  0  0  0  0  0  0  0
    7.2537   -9.7158    0.0000 C   0  0  0  0  0  0  0  0  0  0  0  0
   10.1191  -11.3527    0.0000 O   0  0  0  0  0  0  0  0  0  0  0  0
    8.6939  -12.1843    0.0000 O   0  0  0  0  0  0  0  0  0  0  0  0
    6.5646  -10.1377    0.0000 O   0  0  0  0  0  0  0  0  0  0  0  0
   14.3888   -8.0428    0.0000 H   0  0  0  0  0  0  0  0  0  0  0  0
   15.8177   -8.0428    0.0000 C   0  0  0  0  0  0  0  0  0  0  0  0
   15.1032   -6.8053    0.0000 C   0  0  0  0  0  0  0  0  0  0  0  0
 33 23  2  0  0  0  0
 33 32  1  0  0  0  0
  1  2  1  0  0  0  0
  2  3  1  0  0  0  0
  3  4  1  0  0  0  0
  4  5  1  0  0  0  0
  5  6  1  0  0  0  0
  6  7  1  0  0  0  0
  7  8  1  0  0  0  0
  8  9  1  0  0  0  0
  9 10  1  0  0  0  0
 10 11  1  0  0  0  0
 11 12  1  0  0  0  0
 12 13  1  0  0  0  0
 13 14  1  0  0  0  0
 14 15  1  0  0  0  0
 15 16  1  0  0  0  0
 16 17  1  0  0  0  0
 12 17  1  0  0  0  0
 17 18  1  0  0  0  0
  9 18  1  0  0  0  0
 18 19  1  0  0  0  0
 19 20  1  0  0  0  0
 20 21  2  0  0  0  0
  8 21  1  0  0  0  0
 21 22  1  0  0  0  0
  5 22  1  0  0  0  0
  1 22  1  0  0  0  0
  5 33  1  1  0  0  0
 17 24  1  1  0  0  0
 13 25  1  0  0  0  0
 13 26  1  0  0  0  0
  2 27  1  0  0  0  0
  2 28  1  0  0  0  0
 14 29  1  1  0  0  0
 12 30  1  6  0  0  0
 22 31  1  1  0  0  0
 34 35  1  0  0  0  0
 35 36  1  6  0  0  0
 35 37  1  0  0  0  0
 37 38  1  1  0  0  0
 37 39  1  0  0  0  0
 39 40  1  6  0  0  0
 39 41  1  0  0  0  0
 41 42  1  0  0  0  0
 41 43  1  1  0  0  0
 43 44  1  0  0  0  0
 34 42  1  0  0  0  0
 43 45  2  0  0  0  0
 34 29  1  1  0  0  0
 46 47  1  0  0  0  0
 47 48  1  6  0  0  0
 47 49  1  0  0  0  0
 49 50  1  0  0  0  0
 50 51  1  1  0  0  0
 50 52  1  0  0  0  0
 52 53  1  0  0  0  0
 52 54  1  6  0  0  0
 46 53  1  0  0  0  0
 49 55  1  6  0  0  0
 56 57  1  0  0  0  0
 57 58  1  0  0  0  0
 58 59  1  0  0  0  0
 59 60  1  0  0  0  0
 60 61  1  0  0  0  0
 61 56  1  0  0  0  0
 59 62  1  6  0  0  0
 58 63  1  1  0  0  0
 61 64  1  6  0  0  0
 60 65  1  1  0  0  0
 63 66  1  0  0  0  0
 56 36  1  1  0  0  0
 46 40  1  1  0  0  0
 18 67  1  6  0  0  0
  8 68  1  6  0  0  0
  9 69  1  1  0  0  0
M  END
>  <cdx:fragmentId>
5

$$$$
