95449.cdx
  Mrv1902 05222410212D          

 80 88  0  0  0  0            999 V2000
   15.1121   -4.5350    0.0000 C   0  0  0  0  0  0  0  0  0  0  0  0
   15.8266   -4.1225    0.0000 C   0  0  0  0  0  0  0  0  0  0  0  0
   16.5411   -4.5350    0.0000 C   0  0  0  0  0  0  0  0  0  0  0  0
   16.5411   -5.3600    0.0000 C   0  0  0  0  0  0  0  0  0  0  0  0
   15.8266   -5.7725    0.0000 C   0  0  2  0  0  0  0  0  0  0  0  0
   15.8266   -6.5975    0.0000 C   0  0  0  0  0  0  0  0  0  0  0  0
   15.1121   -7.0100    0.0000 C   0  0  0  0  0  0  0  0  0  0  0  0
   14.3977   -6.5975    0.0000 C   0  0  1  0  0  0  0  0  0  0  0  0
   13.6832   -7.0100    0.0000 C   0  0  2  0  0  0  0  0  0  0  0  0
   13.6832   -7.8350    0.0000 C   0  0  0  0  0  0  0  0  0  0  0  0
   12.9687   -8.2475    0.0000 C   0  0  0  0  0  0  0  0  0  0  0  0
   12.2542   -7.8350    0.0000 C   0  0  1  0  0  0  0  0  0  0  0  0
   11.5398   -8.2475    0.0000 C   0  0  0  0  0  0  0  0  0  0  0  0
   10.8253   -7.8350    0.0000 C   0  0  2  0  0  0  0  0  0  0  0  0
   10.8253   -7.0100    0.0000 C   0  0  0  0  0  0  0  0  0  0  0  0
   11.5398   -6.5975    0.0000 C   0  0  0  0  0  0  0  0  0  0  0  0
   12.2542   -7.0100    0.0000 C   0  0  2  0  0  0  0  0  0  0  0  0
   12.9687   -6.5975    0.0000 C   0  0  1  0  0  0  0  0  0  0  0  0
   12.9687   -5.7725    0.0000 C   0  0  0  0  0  0  0  0  0  0  0  0
   13.6832   -5.3600    0.0000 C   0  0  0  0  0  0  0  0  0  0  0  0
   14.3977   -5.7725    0.0000 C   0  0  0  0  0  0  0  0  0  0  0  0
   15.1121   -5.3600    0.0000 C   0  0  2  0  0  0  0  0  0  0  0  0
   17.2555   -5.7725    0.0000 O   0  0  0  0  0  0  0  0  0  0  0  0
   17.9764   -6.1882    0.0000 C   0  0  2  0  0  0  0  0  0  0  0  0
   17.9717   -7.0132    0.0000 O   0  0  0  0  0  0  0  0  0  0  0  0
   12.2542   -6.1850    0.0000 C   0  0  0  0  0  0  0  0  0  0  0  0
   11.9523   -8.9620    0.0000 C   0  0  0  0  0  0  0  0  0  0  0  0
   11.1273   -8.9620    0.0000 C   0  0  0  0  0  0  0  0  0  0  0  0
   15.4141   -3.4080    0.0000 C   0  0  0  0  0  0  0  0  0  0  0  0
   16.2391   -3.4080    0.0000 C   0  0  0  0  0  0  0  0  0  0  0  0
   10.1108   -8.2475    0.0000 O   0  0  0  0  0  0  0  0  0  0  0  0
   12.2542   -8.6600    0.0000 H   0  0  0  0  0  0  0  0  0  0  0  0
   15.1121   -6.1850    0.0000 H   0  0  0  0  0  0  0  0  0  0  0  0
   18.6838   -7.4298    0.0000 C   0  0  1  0  0  0  0  0  0  0  0  0
   19.4006   -7.0214    0.0000 C   0  0  2  0  0  0  0  0  0  0  0  0
    9.3981   -7.8422    0.0000 C   0  0  1  0  0  0  0  0  0  0  0  0
    8.6839   -8.2553    0.0000 C   0  0  2  0  0  0  0  0  0  0  0  0
    8.6845   -9.0803    0.0000 O   0  0  0  0  0  0  0  0  0  0  0  0
    7.9691   -7.8433    0.0000 C   0  0  1  0  0  0  0  0  0  0  0  0
    7.2550   -8.2564    0.0000 O   0  0  0  0  0  0  0  0  0  0  0  0
    7.9685   -7.0183    0.0000 C   0  0  2  0  0  0  0  0  0  0  0  0
    7.2537   -6.6064    0.0000 O   0  0  0  0  0  0  0  0  0  0  0  0
    8.6826   -6.6053    0.0000 C   0  0  2  0  0  0  0  0  0  0  0  0
    9.3974   -7.0172    0.0000 O   0  0  0  0  0  0  0  0  0  0  0  0
    8.6820   -5.7803    0.0000 C   0  0  0  0  0  0  0  0  0  0  0  0
    7.9672   -5.3683    0.0000 O   0  0  0  0  0  0  0  0  0  0  0  0
    6.4607   -7.8068    0.0000 C   0  0  1  0  0  0  0  0  0  0  0  0
    5.7521   -8.2293    0.0000 C   0  0  2  0  0  0  0  0  0  0  0  0
    5.7637   -9.0542    0.0000 O   0  0  0  0  0  0  0  0  0  0  0  0
    5.0319   -7.8269    0.0000 C   0  0  1  0  0  0  0  0  0  0  0  0
    5.0203   -7.0020    0.0000 C   0  0  1  0  0  0  0  0  0  0  0  0
    4.3000   -6.5996    0.0000 O   0  0  0  0  0  0  0  0  0  0  0  0
    5.7288   -6.5795    0.0000 C   0  0  1  0  0  0  0  0  0  0  0  0
    6.4491   -6.9819    0.0000 O   0  0  0  0  0  0  0  0  0  0  0  0
    5.7172   -5.7545    0.0000 C   0  0  0  0  0  0  0  0  0  0  0  0
    9.3961   -5.3672    0.0000 O   0  0  0  0  0  0  0  0  0  0  0  0
    4.3233   -8.2494    0.0000 O   0  0  0  0  0  0  0  0  0  0  0  0
   19.4053   -6.1964    0.0000 C   0  0  1  0  0  0  0  0  0  0  0  0
   18.6932   -5.7798    0.0000 C   0  0  1  0  0  0  0  0  0  0  0  0
   20.1127   -7.4380    0.0000 O   0  0  0  0  0  0  0  0  0  0  0  0
   18.6790   -8.2548    0.0000 C   0  0  0  0  0  0  0  0  0  0  0  0
   18.6980   -4.9548    0.0000 O   0  0  0  0  0  0  0  0  0  0  0  0
   20.1221   -5.7880    0.0000 O   0  0  0  0  0  0  0  0  0  0  0  0
   19.3850   -8.6478    0.0000 O   0  0  0  0  0  0  0  0  0  0  0  0
   16.5411   -7.0100    0.0000 O   0  0  0  0  0  0  0  0  0  0  0  0
   16.5411   -6.1850    0.0000 C   0  0  0  0  0  0  0  0  0  0  0  0
    8.2560   -9.7915    0.0000 C   0  0  2  0  0  0  0  0  0  0  0  0
    7.4312   -9.7696    0.0000 O   0  0  0  0  0  0  0  0  0  0  0  0
    6.9999  -10.4729    0.0000 C   0  0  1  0  0  0  0  0  0  0  0  0
    7.3933  -11.1981    0.0000 C   0  0  2  0  0  0  0  0  0  0  0  0
    8.2180  -11.2200    0.0000 C   0  0  1  0  0  0  0  0  0  0  0  0
    8.6493  -10.5167    0.0000 C   0  0  1  0  0  0  0  0  0  0  0  0
    6.9619  -11.9013    0.0000 O   0  0  0  0  0  0  0  0  0  0  0  0
    6.1752  -10.4510    0.0000 C   0  0  0  0  0  0  0  0  0  0  0  0
    9.4740  -10.5387    0.0000 O   0  0  0  0  0  0  0  0  0  0  0  0
    8.6114  -11.9452    0.0000 O   0  0  0  0  0  0  0  0  0  0  0  0
    5.7675  -11.1485    0.0000 O   0  0  0  0  0  0  0  0  0  0  0  0
   12.9687   -7.4225    0.0000 H   0  0  0  0  0  0  0  0  0  0  0  0
   14.3977   -7.4225    0.0000 C   0  0  0  0  0  0  0  0  0  0  0  0
   13.6832   -6.1850    0.0000 C   0  0  0  0  0  0  0  0  0  0  0  0
  1  2  1  0  0  0  0
  2  3  1  0  0  0  0
  3  4  1  0  0  0  0
  4  5  1  0  0  0  0
  5  6  1  0  0  0  0
  6  7  1  0  0  0  0
  7  8  1  0  0  0  0
  8  9  1  0  0  0  0
  9 10  1  0  0  0  0
 10 11  1  0  0  0  0
 11 12  1  0  0  0  0
 12 13  1  0  0  0  0
 13 14  1  0  0  0  0
 14 15  1  0  0  0  0
 15 16  1  0  0  0  0
 16 17  1  0  0  0  0
 12 17  1  0  0  0  0
 17 18  1  0  0  0  0
  9 18  1  0  0  0  0
 18 19  1  0  0  0  0
 19 20  1  0  0  0  0
 20 21  2  0  0  0  0
  8 21  1  0  0  0  0
 21 22  1  0  0  0  0
  5 22  1  0  0  0  0
  1 22  1  0  0  0  0
  5 66  1  1  0  0  0
 17 26  1  1  0  0  0
 13 27  1  0  0  0  0
 13 28  1  0  0  0  0
  2 29  1  0  0  0  0
  2 30  1  0  0  0  0
 14 31  1  1  0  0  0
 12 32  1  6  0  0  0
 22 33  1  1  0  0  0
 36 37  1  0  0  0  0
 37 38  1  6  0  0  0
 37 39  1  0  0  0  0
 39 40  1  1  0  0  0
 39 41  1  0  0  0  0
 41 42  1  6  0  0  0
 41 43  1  0  0  0  0
 43 44  1  0  0  0  0
 43 45  1  1  0  0  0
 45 46  1  0  0  0  0
 36 44  1  0  0  0  0
 47 48  1  0  0  0  0
 48 49  1  6  0  0  0
 48 50  1  0  0  0  0
 50 51  1  0  0  0  0
 51 52  1  1  0  0  0
 51 53  1  0  0  0  0
 53 54  1  0  0  0  0
 53 55  1  6  0  0  0
 47 54  1  0  0  0  0
 45 56  2  0  0  0  0
 50 57  1  6  0  0  0
 47 40  1  1  0  0  0
 36 31  1  1  0  0  0
 24 25  1  0  0  0  0
 25 34  1  0  0  0  0
 34 35  1  0  0  0  0
 35 58  1  0  0  0  0
 58 59  1  0  0  0  0
 59 24  1  0  0  0  0
 35 60  1  6  0  0  0
 34 61  1  1  0  0  0
 59 62  1  6  0  0  0
 58 63  1  1  0  0  0
 61 64  1  0  0  0  0
 66 65  2  0  0  0  0
 66 23  1  0  0  0  0
 24 23  1  1  0  0  0
 67 68  1  0  0  0  0
 68 69  1  0  0  0  0
 69 70  1  0  0  0  0
 70 71  1  0  0  0  0
 71 72  1  0  0  0  0
 72 67  1  0  0  0  0
 70 73  1  6  0  0  0
 69 74  1  1  0  0  0
 72 75  1  6  0  0  0
 71 76  1  1  0  0  0
 74 77  1  0  0  0  0
 67 38  1  1  0  0  0
 18 78  1  6  0  0  0
  8 79  1  6  0  0  0
  9 80  1  1  0  0  0
M  END
>  <cdx:fragmentId>
5

$$$$
