95444.cdx
  Mrv1902 05222410242D          

 70 77  0  0  0  0            999 V2000
   15.1144   -6.8793    0.0000 C   0  0  0  0  0  0  0  0  0  0  0  0
   15.8289   -6.4668    0.0000 C   0  0  0  0  0  0  0  0  0  0  0  0
   16.5434   -6.8793    0.0000 C   0  0  0  0  0  0  0  0  0  0  0  0
   16.5434   -7.7043    0.0000 C   0  0  0  0  0  0  0  0  0  0  0  0
   15.8289   -8.1168    0.0000 C   0  0  2  0  0  0  0  0  0  0  0  0
   15.8289   -8.9418    0.0000 C   0  0  0  0  0  0  0  0  0  0  0  0
   15.1144   -9.3543    0.0000 C   0  0  0  0  0  0  0  0  0  0  0  0
   14.4000   -8.9418    0.0000 C   0  0  1  0  0  0  0  0  0  0  0  0
   13.6855   -9.3543    0.0000 C   0  0  2  0  0  0  0  0  0  0  0  0
   13.6855  -10.1793    0.0000 C   0  0  0  0  0  0  0  0  0  0  0  0
   12.9710  -10.5918    0.0000 C   0  0  0  0  0  0  0  0  0  0  0  0
   12.2566  -10.1793    0.0000 C   0  0  1  0  0  0  0  0  0  0  0  0
   11.5421  -10.5918    0.0000 C   0  0  2  0  0  0  0  0  0  0  0  0
   10.8276  -10.1793    0.0000 C   0  0  2  0  0  0  0  0  0  0  0  0
   10.8276   -9.3543    0.0000 C   0  0  0  0  0  0  0  0  0  0  0  0
   11.5421   -8.9418    0.0000 C   0  0  0  0  0  0  0  0  0  0  0  0
   12.2566   -9.3543    0.0000 C   0  0  2  0  0  0  0  0  0  0  0  0
   12.9710   -8.9418    0.0000 C   0  0  1  0  0  0  0  0  0  0  0  0
   12.9710   -8.1168    0.0000 C   0  0  0  0  0  0  0  0  0  0  0  0
   13.6855   -7.7043    0.0000 C   0  0  0  0  0  0  0  0  0  0  0  0
   14.4000   -8.1168    0.0000 C   0  0  0  0  0  0  0  0  0  0  0  0
   15.1144   -7.7043    0.0000 C   0  0  2  0  0  0  0  0  0  0  0  0
   17.9893   -8.4989    0.0000 C   0  0  1  0  0  0  0  0  0  0  0  0
   12.2566   -8.5293    0.0000 C   0  0  0  0  0  0  0  0  0  0  0  0
   11.1296  -11.3063    0.0000 C   0  0  0  0  0  0  0  0  0  0  0  0
   15.4164   -5.7523    0.0000 C   0  0  0  0  0  0  0  0  0  0  0  0
   16.2414   -5.7523    0.0000 C   0  0  0  0  0  0  0  0  0  0  0  0
   11.9546  -11.3063    0.0000 C   0  0  0  0  0  0  0  0  0  0  0  0
   11.5421  -12.0207    0.0000 O   0  0  0  0  0  0  0  0  0  0  0  0
   10.1131  -10.5918    0.0000 O   0  0  0  0  0  0  0  0  0  0  0  0
   12.2566  -11.0043    0.0000 H   0  0  0  0  0  0  0  0  0  0  0  0
   15.1144   -8.5293    0.0000 H   0  0  0  0  0  0  0  0  0  0  0  0
   18.6976   -8.0758    0.0000 C   0  0  2  0  0  0  0  0  0  0  0  0
   18.6852   -7.2509    0.0000 O   0  0  0  0  0  0  0  0  0  0  0  0
   19.4181   -8.4776    0.0000 C   0  0  1  0  0  0  0  0  0  0  0  0
   20.1263   -8.0545    0.0000 O   0  0  0  0  0  0  0  0  0  0  0  0
   19.4304   -9.3025    0.0000 C   0  0  2  0  0  0  0  0  0  0  0  0
   20.1509   -9.7043    0.0000 O   0  0  0  0  0  0  0  0  0  0  0  0
   18.7222   -9.7256    0.0000 C   0  0  2  0  0  0  0  0  0  0  0  0
   18.0016   -9.3238    0.0000 O   0  0  0  0  0  0  0  0  0  0  0  0
   18.7345  -10.5505    0.0000 C   0  0  0  0  0  0  0  0  0  0  0  0
   19.4550  -10.9523    0.0000 O   0  0  0  0  0  0  0  0  0  0  0  0
   17.2688   -8.0971    0.0000 O   0  0  0  0  0  0  0  0  0  0  0  0
   16.5434   -9.3543    0.0000 O   0  0  0  0  0  0  0  0  0  0  0  0
    9.3969  -10.1893    0.0000 C   0  0  1  0  0  0  0  0  0  0  0  0
    8.6823  -10.6016    0.0000 C   0  0  2  0  0  0  0  0  0  0  0  0
    8.6821  -11.4266    0.0000 O   0  0  0  0  0  0  0  0  0  0  0  0
    7.9679  -10.1890    0.0000 C   0  0  1  0  0  0  0  0  0  0  0  0
    7.2533  -10.6013    0.0000 O   0  0  0  0  0  0  0  0  0  0  0  0
    7.9681   -9.3640    0.0000 C   0  0  2  0  0  0  0  0  0  0  0  0
    7.2538   -8.9513    0.0000 O   0  0  0  0  0  0  0  0  0  0  0  0
    8.6827   -8.9516    0.0000 C   0  0  2  0  0  0  0  0  0  0  0  0
    9.3971   -9.3643    0.0000 O   0  0  0  0  0  0  0  0  0  0  0  0
    8.6829   -8.1266    0.0000 C   0  0  0  0  0  0  0  0  0  0  0  0
    7.9686   -7.7140    0.0000 O   0  0  0  0  0  0  0  0  0  0  0  0
   16.5434   -8.5293    0.0000 C   0  0  0  0  0  0  0  0  0  0  0  0
    9.3895   -7.7144    0.0000 O   0  0  0  0  0  0  0  0  0  0  0  0
    6.5276  -10.1773    0.0000 C   0  0  2  0  0  0  0  0  0  0  0  0
    6.5284   -9.3523    0.0000 O   0  0  0  0  0  0  0  0  0  0  0  0
    5.8143   -8.9391    0.0000 C   0  0  2  0  0  0  0  0  0  0  0  0
    5.0994   -9.3509    0.0000 C   0  0  1  0  0  0  0  0  0  0  0  0
    5.0986  -10.1759    0.0000 C   0  0  2  0  0  0  0  0  0  0  0  0
    5.8127  -10.5891    0.0000 C   0  0  1  0  0  0  0  0  0  0  0  0
    4.3854   -8.9377    0.0000 O   0  0  0  0  0  0  0  0  0  0  0  0
    5.8151   -8.1141    0.0000 C   0  0  0  0  0  0  0  0  0  0  0  0
    5.8119  -11.4141    0.0000 O   0  0  0  0  0  0  0  0  0  0  0  0
    4.3838  -10.5877    0.0000 O   0  0  0  0  0  0  0  0  0  0  0  0
   12.9710   -9.7668    0.0000 H   0  0  0  0  0  0  0  0  0  0  0  0
   14.4000   -9.7668    0.0000 C   0  0  0  0  0  0  0  0  0  0  0  0
   13.6855   -8.5293    0.0000 C   0  0  0  0  0  0  0  0  0  0  0  0
 56 43  1  0  0  0  0
  1  2  1  0  0  0  0
  2  3  1  0  0  0  0
  3  4  1  0  0  0  0
  4  5  1  0  0  0  0
  5  6  1  0  0  0  0
  6  7  1  0  0  0  0
  7  8  1  0  0  0  0
  8  9  1  0  0  0  0
  9 10  1  0  0  0  0
 10 11  1  0  0  0  0
 11 12  1  0  0  0  0
 12 13  1  0  0  0  0
 13 14  1  0  0  0  0
 14 15  1  0  0  0  0
 15 16  1  0  0  0  0
 16 17  1  0  0  0  0
 12 17  1  0  0  0  0
 17 18  1  0  0  0  0
  9 18  1  0  0  0  0
 18 19  1  0  0  0  0
 19 20  1  0  0  0  0
 20 21  2  0  0  0  0
  8 21  1  0  0  0  0
 21 22  1  0  0  0  0
  5 22  1  0  0  0  0
  1 22  1  0  0  0  0
  5 56  1  1  0  0  0
 17 24  1  1  0  0  0
 13 25  1  1  0  0  0
  2 26  1  0  0  0  0
  2 27  1  0  0  0  0
 28 29  1  0  0  0  0
 13 28  1  0  0  0  0
 14 30  1  1  0  0  0
 12 31  1  6  0  0  0
 22 32  1  1  0  0  0
 23 33  1  0  0  0  0
 33 34  1  6  0  0  0
 33 35  1  0  0  0  0
 35 36  1  1  0  0  0
 35 37  1  0  0  0  0
 37 38  1  6  0  0  0
 37 39  1  0  0  0  0
 39 40  1  0  0  0  0
 39 41  1  1  0  0  0
 41 42  1  0  0  0  0
 23 40  1  0  0  0  0
 23 43  1  1  0  0  0
 56 44  2  0  0  0  0
 45 46  1  0  0  0  0
 46 47  1  6  0  0  0
 46 48  1  0  0  0  0
 48 49  1  1  0  0  0
 48 50  1  0  0  0  0
 50 51  1  6  0  0  0
 50 52  1  0  0  0  0
 52 53  1  0  0  0  0
 52 54  1  1  0  0  0
 54 55  1  0  0  0  0
 45 53  1  0  0  0  0
 45 30  1  1  0  0  0
 54 57  2  0  0  0  0
 58 59  1  0  0  0  0
 59 60  1  0  0  0  0
 60 61  1  0  0  0  0
 61 62  1  0  0  0  0
 62 63  1  0  0  0  0
 63 58  1  0  0  0  0
 61 64  1  1  0  0  0
 60 65  1  6  0  0  0
 63 66  1  6  0  0  0
 62 67  1  6  0  0  0
 58 49  1  1  0  0  0
 18 68  1  6  0  0  0
  8 69  1  6  0  0  0
  9 70  1  1  0  0  0
M  END
>  <cdx:fragmentId>
5

$$$$
