95443.cdx
  Mrv1902 05222410232D          

 58 64  0  0  0  0            999 V2000
   15.0927   -5.5433    0.0000 C   0  0  0  0  0  0  0  0  0  0  0  0
   15.8072   -5.1308    0.0000 C   0  0  0  0  0  0  0  0  0  0  0  0
   16.5216   -5.5433    0.0000 C   0  0  0  0  0  0  0  0  0  0  0  0
   16.5216   -6.3683    0.0000 C   0  0  0  0  0  0  0  0  0  0  0  0
   15.8072   -6.7808    0.0000 C   0  0  2  0  0  0  0  0  0  0  0  0
   15.8072   -7.6058    0.0000 C   0  0  0  0  0  0  0  0  0  0  0  0
   15.0927   -8.0183    0.0000 C   0  0  0  0  0  0  0  0  0  0  0  0
   14.3782   -7.6058    0.0000 C   0  0  1  0  0  0  0  0  0  0  0  0
   13.6637   -8.0183    0.0000 C   0  0  2  0  0  0  0  0  0  0  0  0
   13.6637   -8.8433    0.0000 C   0  0  0  0  0  0  0  0  0  0  0  0
   12.9493   -9.2558    0.0000 C   0  0  0  0  0  0  0  0  0  0  0  0
   12.2348   -8.8433    0.0000 C   0  0  1  0  0  0  0  0  0  0  0  0
   11.5203   -9.2558    0.0000 C   0  0  0  0  0  0  0  0  0  0  0  0
   10.8059   -8.8433    0.0000 C   0  0  2  0  0  0  0  0  0  0  0  0
   10.8059   -8.0183    0.0000 C   0  0  0  0  0  0  0  0  0  0  0  0
   11.5203   -7.6058    0.0000 C   0  0  0  0  0  0  0  0  0  0  0  0
   12.2348   -8.0183    0.0000 C   0  0  2  0  0  0  0  0  0  0  0  0
   12.9493   -7.6058    0.0000 C   0  0  1  0  0  0  0  0  0  0  0  0
   12.9493   -6.7808    0.0000 C   0  0  0  0  0  0  0  0  0  0  0  0
   13.6637   -6.3683    0.0000 C   0  0  0  0  0  0  0  0  0  0  0  0
   14.3782   -6.7808    0.0000 C   0  0  0  0  0  0  0  0  0  0  0  0
   15.0927   -6.3683    0.0000 C   0  0  2  0  0  0  0  0  0  0  0  0
   16.5216   -8.0183    0.0000 O   0  0  0  0  0  0  0  0  0  0  0  0
   12.2348   -7.1933    0.0000 C   0  0  0  0  0  0  0  0  0  0  0  0
   11.9328   -9.9703    0.0000 C   0  0  0  0  0  0  0  0  0  0  0  0
   11.1078   -9.9703    0.0000 C   0  0  0  0  0  0  0  0  0  0  0  0
   15.3947   -4.4163    0.0000 C   0  0  0  0  0  0  0  0  0  0  0  0
   16.2197   -4.4163    0.0000 C   0  0  0  0  0  0  0  0  0  0  0  0
   10.0914   -9.2558    0.0000 O   0  0  0  0  0  0  0  0  0  0  0  0
   12.2348   -9.6683    0.0000 H   0  0  0  0  0  0  0  0  0  0  0  0
   15.0927   -7.1933    0.0000 H   0  0  0  0  0  0  0  0  0  0  0  0
   17.2361   -6.7808    0.0000 O   0  0  0  0  0  0  0  0  0  0  0  0
   16.5216   -7.1933    0.0000 C   0  0  0  0  0  0  0  0  0  0  0  0
    9.3793   -8.8494    0.0000 C   0  0  1  0  0  0  0  0  0  0  0  0
    8.6644   -9.2613    0.0000 C   0  0  2  0  0  0  0  0  0  0  0  0
    8.6638  -10.0863    0.0000 O   0  0  0  0  0  0  0  0  0  0  0  0
    7.9503   -8.8482    0.0000 C   0  0  1  0  0  0  0  0  0  0  0  0
    7.2355   -9.2601    0.0000 O   0  0  0  0  0  0  0  0  0  0  0  0
    7.9510   -8.0232    0.0000 C   0  0  2  0  0  0  0  0  0  0  0  0
    7.2369   -7.6101    0.0000 O   0  0  0  0  0  0  0  0  0  0  0  0
    8.6658   -7.6113    0.0000 C   0  0  2  0  0  0  0  0  0  0  0  0
    9.3800   -8.0244    0.0000 O   0  0  0  0  0  0  0  0  0  0  0  0
    8.6665   -6.7863    0.0000 C   0  0  0  0  0  0  0  0  0  0  0  0
    7.9524   -6.3732    0.0000 O   0  0  0  0  0  0  0  0  0  0  0  0
    6.4849   -8.8836    0.0000 C   0  0  1  0  0  0  0  0  0  0  0  0
    5.7756   -9.3050    0.0000 C   0  0  2  0  0  0  0  0  0  0  0  0
    5.7859  -10.1299    0.0000 O   0  0  0  0  0  0  0  0  0  0  0  0
    5.0560   -8.9014    0.0000 C   0  0  1  0  0  0  0  0  0  0  0  0
    5.0457   -8.0765    0.0000 C   0  0  1  0  0  0  0  0  0  0  0  0
    4.3262   -7.6729    0.0000 O   0  0  0  0  0  0  0  0  0  0  0  0
    5.7550   -7.6551    0.0000 C   0  0  1  0  0  0  0  0  0  0  0  0
    6.4746   -8.0587    0.0000 O   0  0  0  0  0  0  0  0  0  0  0  0
    5.7447   -6.8302    0.0000 C   0  0  0  0  0  0  0  0  0  0  0  0
    9.3814   -6.3744    0.0000 O   0  0  0  0  0  0  0  0  0  0  0  0
    4.3467   -9.3228    0.0000 O   0  0  0  0  0  0  0  0  0  0  0  0
   13.6637   -7.1933    0.0000 C   0  0  0  0  0  0  0  0  0  0  0  0
   12.9493   -8.4308    0.0000 H   0  0  0  0  0  0  0  0  0  0  0  0
   14.3782   -8.4308    0.0000 C   0  0  0  0  0  0  0  0  0  0  0  0
 33 23  2  0  0  0  0
 33 32  1  0  0  0  0
  1  2  1  0  0  0  0
  2  3  1  0  0  0  0
  3  4  1  0  0  0  0
  4  5  1  0  0  0  0
  5  6  1  0  0  0  0
  6  7  1  0  0  0  0
  7  8  1  0  0  0  0
  8  9  1  0  0  0  0
  9 10  1  0  0  0  0
 10 11  1  0  0  0  0
 11 12  1  0  0  0  0
 12 13  1  0  0  0  0
 13 14  1  0  0  0  0
 14 15  1  0  0  0  0
 15 16  1  0  0  0  0
 16 17  1  0  0  0  0
 12 17  1  0  0  0  0
 17 18  1  0  0  0  0
  9 18  1  0  0  0  0
 18 19  1  0  0  0  0
 19 20  1  0  0  0  0
 20 21  2  0  0  0  0
  8 21  1  0  0  0  0
 21 22  1  0  0  0  0
  5 22  1  0  0  0  0
  1 22  1  0  0  0  0
  5 33  1  1  0  0  0
 17 24  1  1  0  0  0
 13 25  1  0  0  0  0
 13 26  1  0  0  0  0
  2 27  1  0  0  0  0
  2 28  1  0  0  0  0
 14 29  1  1  0  0  0
 12 30  1  6  0  0  0
 22 31  1  1  0  0  0
 34 35  1  0  0  0  0
 35 36  1  6  0  0  0
 35 37  1  0  0  0  0
 37 38  1  1  0  0  0
 37 39  1  0  0  0  0
 39 40  1  6  0  0  0
 39 41  1  0  0  0  0
 41 42  1  0  0  0  0
 41 43  1  1  0  0  0
 43 44  1  0  0  0  0
 34 42  1  0  0  0  0
 45 46  1  0  0  0  0
 46 47  1  6  0  0  0
 46 48  1  0  0  0  0
 48 49  1  0  0  0  0
 49 50  1  1  0  0  0
 49 51  1  0  0  0  0
 51 52  1  0  0  0  0
 51 53  1  6  0  0  0
 45 52  1  0  0  0  0
 43 54  2  0  0  0  0
 48 55  1  6  0  0  0
 45 38  1  1  0  0  0
 34 29  1  1  0  0  0
  9 56  1  1  0  0  0
 18 57  1  6  0  0  0
  8 58  1  6  0  0  0
M  END
>  <cdx:fragmentId>
5

$$$$
