95447.cdx
  Mrv1902 05222410252D          

 70 77  0  0  0  0            999 V2000
   15.1166   -6.0695    0.0000 C   0  0  0  0  0  0  0  0  0  0  0  0
   15.8311   -5.6570    0.0000 C   0  0  0  0  0  0  0  0  0  0  0  0
   16.5456   -6.0695    0.0000 C   0  0  0  0  0  0  0  0  0  0  0  0
   16.5456   -6.8945    0.0000 C   0  0  0  0  0  0  0  0  0  0  0  0
   15.8311   -7.3070    0.0000 C   0  0  2  0  0  0  0  0  0  0  0  0
   15.8311   -8.1320    0.0000 C   0  0  0  0  0  0  0  0  0  0  0  0
   15.1166   -8.5445    0.0000 C   0  0  0  0  0  0  0  0  0  0  0  0
   14.4022   -8.1320    0.0000 C   0  0  1  0  0  0  0  0  0  0  0  0
   13.6877   -8.5445    0.0000 C   0  0  2  0  0  0  0  0  0  0  0  0
   13.6877   -9.3695    0.0000 C   0  0  0  0  0  0  0  0  0  0  0  0
   12.9732   -9.7820    0.0000 C   0  0  0  0  0  0  0  0  0  0  0  0
   12.2587   -9.3695    0.0000 C   0  0  1  0  0  0  0  0  0  0  0  0
   11.5443   -9.7820    0.0000 C   0  0  2  0  0  0  0  0  0  0  0  0
   10.8298   -9.3695    0.0000 C   0  0  2  0  0  0  0  0  0  0  0  0
   10.8298   -8.5445    0.0000 C   0  0  0  0  0  0  0  0  0  0  0  0
   11.5443   -8.1320    0.0000 C   0  0  0  0  0  0  0  0  0  0  0  0
   12.2587   -8.5445    0.0000 C   0  0  2  0  0  0  0  0  0  0  0  0
   12.9732   -8.1320    0.0000 C   0  0  1  0  0  0  0  0  0  0  0  0
   12.9732   -7.3070    0.0000 C   0  0  0  0  0  0  0  0  0  0  0  0
   13.6877   -6.8945    0.0000 C   0  0  0  0  0  0  0  0  0  0  0  0
   14.4022   -7.3070    0.0000 C   0  0  0  0  0  0  0  0  0  0  0  0
   15.1166   -6.8945    0.0000 C   0  0  2  0  0  0  0  0  0  0  0  0
   17.9905   -7.6909    0.0000 C   0  0  1  0  0  0  0  0  0  0  0  0
   12.2587   -7.7195    0.0000 C   0  0  0  0  0  0  0  0  0  0  0  0
   11.1318  -10.4965    0.0000 C   0  0  0  0  0  0  0  0  0  0  0  0
   15.4186   -4.9425    0.0000 C   0  0  0  0  0  0  0  0  0  0  0  0
   16.2436   -4.9425    0.0000 C   0  0  0  0  0  0  0  0  0  0  0  0
   11.9568  -10.4965    0.0000 C   0  0  0  0  0  0  0  0  0  0  0  0
   11.5443  -11.2109    0.0000 O   0  0  0  0  0  0  0  0  0  0  0  0
   10.1153   -9.7820    0.0000 O   0  0  0  0  0  0  0  0  0  0  0  0
   12.2587  -10.1945    0.0000 H   0  0  0  0  0  0  0  0  0  0  0  0
   15.1166   -7.7195    0.0000 H   0  0  0  0  0  0  0  0  0  0  0  0
   18.6998   -7.2695    0.0000 C   0  0  2  0  0  0  0  0  0  0  0  0
   18.6895   -6.4446    0.0000 O   0  0  0  0  0  0  0  0  0  0  0  0
   19.4193   -7.6731    0.0000 C   0  0  1  0  0  0  0  0  0  0  0  0
   20.1286   -7.2518    0.0000 O   0  0  0  0  0  0  0  0  0  0  0  0
   19.4296   -8.4981    0.0000 C   0  0  2  0  0  0  0  0  0  0  0  0
   20.1491   -8.9017    0.0000 O   0  0  0  0  0  0  0  0  0  0  0  0
   18.7203   -8.9194    0.0000 C   0  0  2  0  0  0  0  0  0  0  0  0
   18.0007   -8.5158    0.0000 O   0  0  0  0  0  0  0  0  0  0  0  0
   18.7305   -9.7443    0.0000 C   0  0  0  0  0  0  0  0  0  0  0  0
   19.4501  -10.1479    0.0000 O   0  0  0  0  0  0  0  0  0  0  0  0
   17.2709   -7.2873    0.0000 O   0  0  0  0  0  0  0  0  0  0  0  0
   16.5456   -8.5445    0.0000 O   0  0  0  0  0  0  0  0  0  0  0  0
    9.3990   -9.3795    0.0000 C   0  0  1  0  0  0  0  0  0  0  0  0
    8.6845   -9.7918    0.0000 C   0  0  2  0  0  0  0  0  0  0  0  0
    8.6843  -10.6168    0.0000 O   0  0  0  0  0  0  0  0  0  0  0  0
    7.9701   -9.3792    0.0000 C   0  0  1  0  0  0  0  0  0  0  0  0
    7.2555   -9.7915    0.0000 O   0  0  0  0  0  0  0  0  0  0  0  0
    7.9703   -8.5542    0.0000 C   0  0  2  0  0  0  0  0  0  0  0  0
    7.2559   -8.1415    0.0000 O   0  0  0  0  0  0  0  0  0  0  0  0
    8.6849   -8.1418    0.0000 C   0  0  2  0  0  0  0  0  0  0  0  0
    9.3993   -8.5545    0.0000 O   0  0  0  0  0  0  0  0  0  0  0  0
    8.6851   -7.3168    0.0000 C   0  0  0  0  0  0  0  0  0  0  0  0
    7.9707   -6.9042    0.0000 O   0  0  0  0  0  0  0  0  0  0  0  0
   16.5456   -7.7195    0.0000 C   0  0  0  0  0  0  0  0  0  0  0  0
    9.3916   -6.9046    0.0000 O   0  0  0  0  0  0  0  0  0  0  0  0
    6.4380   -8.1056    0.0000 C   0  0  2  0  0  0  0  0  0  0  0  0
    6.0438   -7.3809    0.0000 O   0  0  0  0  0  0  0  0  0  0  0  0
    5.2191   -7.3598    0.0000 C   0  0  2  0  0  0  0  0  0  0  0  0
    4.7885   -8.0636    0.0000 C   0  0  1  0  0  0  0  0  0  0  0  0
    5.1827   -8.7883    0.0000 C   0  0  2  0  0  0  0  0  0  0  0  0
    6.0074   -8.8093    0.0000 C   0  0  1  0  0  0  0  0  0  0  0  0
    3.9638   -8.0426    0.0000 O   0  0  0  0  0  0  0  0  0  0  0  0
    4.8249   -6.6351    0.0000 C   0  0  0  0  0  0  0  0  0  0  0  0
    6.4016   -9.5341    0.0000 O   0  0  0  0  0  0  0  0  0  0  0  0
    4.7521   -9.4921    0.0000 O   0  0  0  0  0  0  0  0  0  0  0  0
   12.9732   -8.9570    0.0000 H   0  0  0  0  0  0  0  0  0  0  0  0
   14.4022   -8.9570    0.0000 C   0  0  0  0  0  0  0  0  0  0  0  0
   13.6877   -7.7195    0.0000 C   0  0  0  0  0  0  0  0  0  0  0  0
 56 43  1  0  0  0  0
  1  2  1  0  0  0  0
  2  3  1  0  0  0  0
  3  4  1  0  0  0  0
  4  5  1  0  0  0  0
  5  6  1  0  0  0  0
  6  7  1  0  0  0  0
  7  8  1  0  0  0  0
  8  9  1  0  0  0  0
  9 10  1  0  0  0  0
 10 11  1  0  0  0  0
 11 12  1  0  0  0  0
 12 13  1  0  0  0  0
 13 14  1  0  0  0  0
 14 15  1  0  0  0  0
 15 16  1  0  0  0  0
 16 17  1  0  0  0  0
 12 17  1  0  0  0  0
 17 18  1  0  0  0  0
  9 18  1  0  0  0  0
 18 19  1  0  0  0  0
 19 20  1  0  0  0  0
 20 21  2  0  0  0  0
  8 21  1  0  0  0  0
 21 22  1  0  0  0  0
  5 22  1  0  0  0  0
  1 22  1  0  0  0  0
  5 56  1  1  0  0  0
 17 24  1  1  0  0  0
 13 25  1  1  0  0  0
  2 26  1  0  0  0  0
  2 27  1  0  0  0  0
 28 29  1  0  0  0  0
 13 28  1  0  0  0  0
 14 30  1  1  0  0  0
 12 31  1  6  0  0  0
 22 32  1  1  0  0  0
 23 33  1  0  0  0  0
 33 34  1  6  0  0  0
 33 35  1  0  0  0  0
 35 36  1  1  0  0  0
 35 37  1  0  0  0  0
 37 38  1  6  0  0  0
 37 39  1  0  0  0  0
 39 40  1  0  0  0  0
 39 41  1  1  0  0  0
 41 42  1  0  0  0  0
 23 40  1  0  0  0  0
 23 43  1  1  0  0  0
 56 44  2  0  0  0  0
 45 46  1  0  0  0  0
 46 47  1  6  0  0  0
 46 48  1  0  0  0  0
 48 49  1  1  0  0  0
 48 50  1  0  0  0  0
 50 51  1  6  0  0  0
 50 52  1  0  0  0  0
 52 53  1  0  0  0  0
 52 54  1  1  0  0  0
 54 55  1  0  0  0  0
 45 53  1  0  0  0  0
 45 30  1  1  0  0  0
 54 57  2  0  0  0  0
 58 59  1  0  0  0  0
 59 60  1  0  0  0  0
 60 61  1  0  0  0  0
 61 62  1  0  0  0  0
 62 63  1  0  0  0  0
 63 58  1  0  0  0  0
 61 64  1  1  0  0  0
 60 65  1  6  0  0  0
 63 66  1  6  0  0  0
 62 67  1  6  0  0  0
 58 51  1  1  0  0  0
 18 68  1  6  0  0  0
  8 69  1  6  0  0  0
  9 70  1  1  0  0  0
M  END
>  <cdx:fragmentId>
5

$$$$
