95458.cdx
  Mrv1902 05222410222D          

 35 38  0  0  0  0            999 V2000
    6.7493   -7.0400    0.0000 C   0  0  0  0  0  0  0  0  0  0  0  0
    6.7493   -7.8650    0.0000 C   0  0  2  0  0  0  0  0  0  0  0  0
    7.4638   -8.2775    0.0000 C   0  0  2  0  0  0  0  0  0  0  0  0
    8.1782   -7.8650    0.0000 C   0  0  0  0  0  0  0  0  0  0  0  0
    8.1782   -7.0400    0.0000 C   0  0  1  0  0  0  0  0  0  0  0  0
    7.4638   -6.6275    0.0000 C   0  0  0  0  0  0  0  0  0  0  0  0
    8.8927   -8.2775    0.0000 C   0  0  0  0  0  0  0  0  0  0  0  0
    9.6072   -7.8650    0.0000 C   0  0  0  0  0  0  0  0  0  0  0  0
    9.6072   -7.0400    0.0000 C   0  0  0  0  0  0  0  0  0  0  0  0
    8.8927   -6.6275    0.0000 C   0  0  1  0  0  0  0  0  0  0  0  0
    7.0513   -8.9920    0.0000 C   0  0  0  0  0  0  0  0  0  0  0  0
    8.1782   -6.2150    0.0000 C   0  0  0  0  0  0  0  0  0  0  0  0
    8.8927   -5.8025    0.0000 C   0  0  0  0  0  0  0  0  0  0  0  0
    7.8763   -8.9920    0.0000 C   0  0  0  0  0  0  0  0  0  0  0  0
   10.3217   -6.6275    0.0000 C   0  0  0  0  0  0  0  0  0  0  0  0
    9.6072   -5.3900    0.0000 C   0  0  0  0  0  0  0  0  0  0  0  0
    6.2263   -8.9920    0.0000 O   0  0  0  0  0  0  0  0  0  0  0  0
    5.6429   -9.5753    0.0000 C   0  0  2  0  0  0  0  0  0  0  0  0
    4.8460   -9.3618    0.0000 O   0  0  0  0  0  0  0  0  0  0  0  0
    4.2627   -9.9452    0.0000 C   0  0  1  0  0  0  0  0  0  0  0  0
    4.4762  -10.7421    0.0000 C   0  0  2  0  0  0  0  0  0  0  0  0
    5.2731  -10.9556    0.0000 C   0  0  1  0  0  0  0  0  0  0  0  0
    5.8564  -10.3722    0.0000 C   0  0  1  0  0  0  0  0  0  0  0  0
    3.4658   -9.7316    0.0000 C   0  0  0  0  0  0  0  0  0  0  0  0
    5.4866  -11.7525    0.0000 O   0  0  0  0  0  0  0  0  0  0  0  0
    3.8928  -11.3254    0.0000 O   0  0  0  0  0  0  0  0  0  0  0  0
    6.6533  -10.5857    0.0000 O   0  0  0  0  0  0  0  0  0  0  0  0
    2.8824  -10.3150    0.0000 O   0  0  0  0  0  0  0  0  0  0  0  0
    6.0348   -8.2775    0.0000 O   0  0  0  0  0  0  0  0  0  0  0  0
    9.6042   -4.5535    0.0000 C   0  0  0  0  0  0  0  0  0  0  0  0
   10.2716   -4.0686    0.0000 C   0  0  0  0  0  0  0  0  0  0  0  0
   10.0167   -3.2840    0.0000 O   0  0  0  0  0  0  0  0  0  0  0  0
    9.1917   -3.2840    0.0000 C   0  0  0  0  0  0  0  0  0  0  0  0
    8.9368   -4.0686    0.0000 C   0  0  0  0  0  0  0  0  0  0  0  0
   11.0563   -4.3235    0.0000 O   0  0  0  0  0  0  0  0  0  0  0  0
  1  2  1  0  0  0  0
  2  3  1  0  0  0  0
  3  4  1  0  0  0  0
  4  5  1  0  0  0  0
  5  6  1  0  0  0  0
  6  1  1  0  0  0  0
  4  7  1  0  0  0  0
  7  8  1  0  0  0  0
  8  9  1  0  0  0  0
  9 10  1  0  0  0  0
 10  5  1  0  0  0  0
  3 11  1  6  0  0  0
  5 12  1  6  0  0  0
 10 13  1  6  0  0  0
  3 14  1  1  0  0  0
  9 15  2  0  0  0  0
 13 16  1  0  0  0  0
 11 17  1  0  0  0  0
 18 17  1  1  0  0  0
 18 19  1  0  0  0  0
 19 20  1  0  0  0  0
 20 21  1  0  0  0  0
 21 22  1  0  0  0  0
 22 23  1  0  0  0  0
 23 18  1  0  0  0  0
 20 24  1  1  0  0  0
 22 25  1  1  0  0  0
 21 26  1  6  0  0  0
 23 27  1  6  0  0  0
 24 28  1  0  0  0  0
  2 29  1  6  0  0  0
 30 31  1  0  0  0  0
 31 32  1  0  0  0  0
 32 33  1  0  0  0  0
 33 34  2  0  0  0  0
 34 30  1  0  0  0  0
 31 35  2  0  0  0  0
 16 30  1  0  0  0  0
M  END
>  <cdx:fragmentId>
5

$$$$
