95459.cdx
  Mrv1902 05222410222D          

 25 29  0  0  0  0            999 V2000
    3.3428   -8.5589    0.0000 C   0  0  0  0  0  0  0  0  0  0  0  0
    4.0578   -8.1474    0.0000 O   0  0  0  0  0  0  0  0  0  0  0  0
    8.3447   -8.1533    0.0000 C   0  0  0  0  0  0  0  0  0  0  0  0
    4.0556   -9.7974    0.0000 O   0  0  0  0  0  0  0  0  0  0  0  0
    9.0574   -9.3918    0.0000 C   0  0  0  0  0  0  0  0  0  0  0  0
    9.0552  -11.0418    0.0000 C   0  0  0  0  0  0  0  0  0  0  0  0
    9.7713   -9.8052    0.0000 C   0  0  0  0  0  0  0  0  0  0  0  0
    9.7702  -10.6302    0.0000 C   0  0  0  0  0  0  0  0  0  0  0  0
   10.5545  -10.8863    0.0000 O   0  0  0  0  0  0  0  0  0  0  0  0
   11.0403  -10.2195    0.0000 C   0  0  0  0  0  0  0  0  0  0  0  0
   10.5563   -9.5514    0.0000 O   0  0  0  0  0  0  0  0  0  0  0  0
    6.9134   -9.8013    0.0000 C   0  0  0  0  0  0  0  0  0  0  0  0
    6.1995   -9.3878    0.0000 C   0  0  0  0  0  0  0  0  0  0  0  0
    5.4845   -9.7993    0.0000 C   0  0  0  0  0  0  0  0  0  0  0  0
    4.7706   -9.3859    0.0000 C   0  0  0  0  0  0  0  0  0  0  0  0
    4.7717   -8.5609    0.0000 C   0  0  0  0  0  0  0  0  0  0  0  0
    5.4868   -8.1493    0.0000 C   0  0  0  0  0  0  0  0  0  0  0  0
    6.2007   -8.5628    0.0000 C   0  0  0  0  0  0  0  0  0  0  0  0
    6.9157   -8.1513    0.0000 C   0  0  0  0  0  0  0  0  0  0  0  0
    7.6296   -8.5648    0.0000 N   0  3  0  0  0  0  0  0  0  0  0  0
    7.6285   -9.3898    0.0000 C   0  0  0  0  0  0  0  0  0  0  0  0
    8.3424   -9.8033    0.0000 C   0  0  0  0  0  0  0  0  0  0  0  0
    8.3412  -10.6283    0.0000 C   0  0  0  0  0  0  0  0  0  0  0  0
    7.6262  -11.0398    0.0000 C   0  0  0  0  0  0  0  0  0  0  0  0
    6.9123  -10.6263    0.0000 C   0  0  0  0  0  0  0  0  0  0  0  0
 16  2  1  0  0  0  0
  2  1  1  0  0  0  0
 20  3  1  0  0  0  0
 15  4  1  0  0  0  0
  5 22  2  0  0  0  0
  6 23  2  0  0  0  0
  6  8  1  0  0  0  0
  5  7  1  0  0  0  0
 11  7  1  0  0  0  0
  8  7  2  0  0  0  0
  9  8  1  0  0  0  0
 10  9  1  0  0  0  0
 11 10  1  0  0  0  0
 25 12  1  0  0  0  0
 21 12  2  0  0  0  0
 13 12  1  0  0  0  0
 18 13  1  0  0  0  0
 14 13  2  0  0  0  0
 15 14  1  0  0  0  0
 16 15  2  0  0  0  0
 17 16  1  0  0  0  0
 18 17  2  0  0  0  0
 19 18  1  0  0  0  0
 20 19  2  0  0  0  0
 21 20  1  0  0  0  0
 22 21  1  0  0  0  0
 23 22  1  0  0  0  0
 24 23  1  0  0  0  0
 25 24  2  0  0  0  0
M  CHG  1  20   1
M  END
>  <cdx:fragmentId>
5

$$$$
