95451.cdx
  Mrv1902 05222410252D          

 69 76  0  0  0  0            999 V2000
   15.1270   -5.1424    0.0000 C   0  0  0  0  0  0  0  0  0  0  0  0
   15.8414   -4.7299    0.0000 C   0  0  0  0  0  0  0  0  0  0  0  0
   16.5559   -5.1424    0.0000 C   0  0  0  0  0  0  0  0  0  0  0  0
   16.5559   -5.9674    0.0000 C   0  0  0  0  0  0  0  0  0  0  0  0
   15.8414   -6.3799    0.0000 C   0  0  2  0  0  0  0  0  0  0  0  0
   15.8414   -7.2049    0.0000 C   0  0  0  0  0  0  0  0  0  0  0  0
   15.1270   -7.6174    0.0000 C   0  0  0  0  0  0  0  0  0  0  0  0
   14.4125   -7.2049    0.0000 C   0  0  1  0  0  0  0  0  0  0  0  0
   13.6980   -7.6174    0.0000 C   0  0  2  0  0  0  0  0  0  0  0  0
   13.6980   -8.4424    0.0000 C   0  0  0  0  0  0  0  0  0  0  0  0
   12.9836   -8.8549    0.0000 C   0  0  0  0  0  0  0  0  0  0  0  0
   12.2691   -8.4424    0.0000 C   0  0  1  0  0  0  0  0  0  0  0  0
   11.5546   -8.8549    0.0000 C   0  0  0  0  0  0  0  0  0  0  0  0
   10.8401   -8.4424    0.0000 C   0  0  2  0  0  0  0  0  0  0  0  0
   10.8401   -7.6174    0.0000 C   0  0  0  0  0  0  0  0  0  0  0  0
   11.5546   -7.2049    0.0000 C   0  0  0  0  0  0  0  0  0  0  0  0
   12.2691   -7.6174    0.0000 C   0  0  2  0  0  0  0  0  0  0  0  0
   12.9836   -7.2049    0.0000 C   0  0  1  0  0  0  0  0  0  0  0  0
   12.9836   -6.3799    0.0000 C   0  0  0  0  0  0  0  0  0  0  0  0
   13.6980   -5.9674    0.0000 C   0  0  0  0  0  0  0  0  0  0  0  0
   14.4125   -6.3799    0.0000 C   0  0  0  0  0  0  0  0  0  0  0  0
   15.1270   -5.9674    0.0000 C   0  0  2  0  0  0  0  0  0  0  0  0
   16.5559   -7.6174    0.0000 O   0  0  0  0  0  0  0  0  0  0  0  0
   12.2691   -6.7924    0.0000 C   0  0  0  0  0  0  0  0  0  0  0  0
   11.9671   -9.5694    0.0000 C   0  0  0  0  0  0  0  0  0  0  0  0
   11.1421   -9.5694    0.0000 C   0  0  0  0  0  0  0  0  0  0  0  0
   15.4289   -4.0154    0.0000 C   0  0  0  0  0  0  0  0  0  0  0  0
   16.2539   -4.0154    0.0000 C   0  0  0  0  0  0  0  0  0  0  0  0
   10.1257   -8.8549    0.0000 O   0  0  0  0  0  0  0  0  0  0  0  0
   12.2691   -9.2674    0.0000 H   0  0  0  0  0  0  0  0  0  0  0  0
   15.1270   -6.7924    0.0000 H   0  0  0  0  0  0  0  0  0  0  0  0
   17.2704   -6.3799    0.0000 O   0  0  0  0  0  0  0  0  0  0  0  0
   16.5559   -6.7924    0.0000 C   0  0  0  0  0  0  0  0  0  0  0  0
    9.4128   -8.4499    0.0000 C   0  0  1  0  0  0  0  0  0  0  0  0
    8.6988   -8.8633    0.0000 C   0  0  2  0  0  0  0  0  0  0  0  0
    8.6997   -9.6883    0.0000 O   0  0  0  0  0  0  0  0  0  0  0  0
    7.9838   -8.4516    0.0000 C   0  0  1  0  0  0  0  0  0  0  0  0
    7.2698   -8.8649    0.0000 O   0  0  0  0  0  0  0  0  0  0  0  0
    7.9829   -7.6266    0.0000 C   0  0  2  0  0  0  0  0  0  0  0  0
    7.2679   -7.2149    0.0000 O   0  0  0  0  0  0  0  0  0  0  0  0
    8.6968   -7.2133    0.0000 C   0  0  2  0  0  0  0  0  0  0  0  0
    9.4118   -7.6249    0.0000 O   0  0  0  0  0  0  0  0  0  0  0  0
    8.6959   -6.3883    0.0000 C   0  0  0  0  0  0  0  0  0  0  0  0
    7.9809   -5.9766    0.0000 O   0  0  0  0  0  0  0  0  0  0  0  0
    9.4099   -5.9749    0.0000 O   0  0  0  0  0  0  0  0  0  0  0  0
    8.2980  -10.4032    0.0000 C   0  0  2  0  0  0  0  0  0  0  0  0
    7.4730  -10.4089    0.0000 O   0  0  0  0  0  0  0  0  0  0  0  0
    7.0655  -11.1263    0.0000 C   0  0  1  0  0  0  0  0  0  0  0  0
    7.4829  -11.8378    0.0000 C   0  0  2  0  0  0  0  0  0  0  0  0
    8.3079  -11.8321    0.0000 C   0  0  1  0  0  0  0  0  0  0  0  0
    8.7154  -11.1148    0.0000 C   0  0  1  0  0  0  0  0  0  0  0  0
    7.0754  -12.5552    0.0000 O   0  0  0  0  0  0  0  0  0  0  0  0
    6.2405  -11.1320    0.0000 C   0  0  0  0  0  0  0  0  0  0  0  0
    9.5404  -11.1091    0.0000 O   0  0  0  0  0  0  0  0  0  0  0  0
    8.7254  -12.5437    0.0000 O   0  0  0  0  0  0  0  0  0  0  0  0
    5.8564  -11.8428    0.0000 O   0  0  0  0  0  0  0  0  0  0  0  0
    6.5827   -8.4599    0.0000 C   0  0  1  0  0  0  0  0  0  0  0  0
    5.8663   -8.8690    0.0000 C   0  0  2  0  0  0  0  0  0  0  0  0
    5.8625   -9.6940    0.0000 O   0  0  0  0  0  0  0  0  0  0  0  0
    5.1538   -8.4532    0.0000 C   0  0  1  0  0  0  0  0  0  0  0  0
    5.1576   -7.6282    0.0000 C   0  0  1  0  0  0  0  0  0  0  0  0
    4.4451   -7.2124    0.0000 O   0  0  0  0  0  0  0  0  0  0  0  0
    5.8740   -7.2190    0.0000 C   0  0  1  0  0  0  0  0  0  0  0  0
    6.5865   -7.6349    0.0000 O   0  0  0  0  0  0  0  0  0  0  0  0
    5.8778   -6.3941    0.0000 C   0  0  0  0  0  0  0  0  0  0  0  0
    4.4374   -8.8624    0.0000 O   0  0  0  0  0  0  0  0  0  0  0  0
   12.9836   -8.0299    0.0000 H   0  0  0  0  0  0  0  0  0  0  0  0
   14.4125   -8.0299    0.0000 C   0  0  0  0  0  0  0  0  0  0  0  0
   13.6980   -6.7924    0.0000 C   0  0  0  0  0  0  0  0  0  0  0  0
 33 23  2  0  0  0  0
 33 32  1  0  0  0  0
  1  2  1  0  0  0  0
  2  3  1  0  0  0  0
  3  4  1  0  0  0  0
  4  5  1  0  0  0  0
  5  6  1  0  0  0  0
  6  7  1  0  0  0  0
  7  8  1  0  0  0  0
  8  9  1  0  0  0  0
  9 10  1  0  0  0  0
 10 11  1  0  0  0  0
 11 12  1  0  0  0  0
 12 13  1  0  0  0  0
 13 14  1  0  0  0  0
 14 15  1  0  0  0  0
 15 16  1  0  0  0  0
 16 17  1  0  0  0  0
 12 17  1  0  0  0  0
 17 18  1  0  0  0  0
  9 18  1  0  0  0  0
 18 19  1  0  0  0  0
 19 20  1  0  0  0  0
 20 21  2  0  0  0  0
  8 21  1  0  0  0  0
 21 22  1  0  0  0  0
  5 22  1  0  0  0  0
  1 22  1  0  0  0  0
  5 33  1  1  0  0  0
 17 24  1  1  0  0  0
 13 25  1  0  0  0  0
 13 26  1  0  0  0  0
  2 27  1  0  0  0  0
  2 28  1  0  0  0  0
 14 29  1  1  0  0  0
 12 30  1  6  0  0  0
 22 31  1  1  0  0  0
 34 35  1  0  0  0  0
 35 36  1  6  0  0  0
 35 37  1  0  0  0  0
 37 38  1  1  0  0  0
 37 39  1  0  0  0  0
 39 40  1  6  0  0  0
 39 41  1  0  0  0  0
 41 42  1  0  0  0  0
 41 43  1  1  0  0  0
 43 44  1  0  0  0  0
 34 42  1  0  0  0  0
 43 45  2  0  0  0  0
 34 29  1  1  0  0  0
 46 47  1  0  0  0  0
 47 48  1  0  0  0  0
 48 49  1  0  0  0  0
 49 50  1  0  0  0  0
 50 51  1  0  0  0  0
 51 46  1  0  0  0  0
 49 52  1  6  0  0  0
 48 53  1  1  0  0  0
 51 54  1  6  0  0  0
 50 55  1  1  0  0  0
 53 56  1  0  0  0  0
 46 36  1  1  0  0  0
 57 58  1  0  0  0  0
 58 59  1  6  0  0  0
 58 60  1  0  0  0  0
 60 61  1  0  0  0  0
 61 62  1  1  0  0  0
 61 63  1  0  0  0  0
 63 64  1  0  0  0  0
 63 65  1  6  0  0  0
 57 64  1  0  0  0  0
 60 66  1  6  0  0  0
 57 38  1  1  0  0  0
 18 67  1  6  0  0  0
  8 68  1  6  0  0  0
  9 69  1  1  0  0  0
M  END
>  <cdx:fragmentId>
5

$$$$
