95450.cdx
  Mrv1902 05222410242D          

 70 77  0  0  0  0            999 V2000
   15.1005   -5.6841    0.0000 C   0  0  0  0  0  0  0  0  0  0  0  0
   15.8149   -5.2716    0.0000 C   0  0  0  0  0  0  0  0  0  0  0  0
   16.5294   -5.6841    0.0000 C   0  0  0  0  0  0  0  0  0  0  0  0
   16.5294   -6.5091    0.0000 C   0  0  0  0  0  0  0  0  0  0  0  0
   15.8149   -6.9216    0.0000 C   0  0  2  0  0  0  0  0  0  0  0  0
   15.8149   -7.7466    0.0000 C   0  0  0  0  0  0  0  0  0  0  0  0
   15.1005   -8.1591    0.0000 C   0  0  0  0  0  0  0  0  0  0  0  0
   14.3860   -7.7466    0.0000 C   0  0  1  0  0  0  0  0  0  0  0  0
   13.6715   -8.1591    0.0000 C   0  0  2  0  0  0  0  0  0  0  0  0
   13.6715   -8.9841    0.0000 C   0  0  0  0  0  0  0  0  0  0  0  0
   12.9571   -9.3966    0.0000 C   0  0  0  0  0  0  0  0  0  0  0  0
   12.2426   -8.9841    0.0000 C   0  0  1  0  0  0  0  0  0  0  0  0
   11.5281   -9.3966    0.0000 C   0  0  2  0  0  0  0  0  0  0  0  0
   10.8136   -8.9841    0.0000 C   0  0  2  0  0  0  0  0  0  0  0  0
   10.8136   -8.1591    0.0000 C   0  0  0  0  0  0  0  0  0  0  0  0
   11.5281   -7.7466    0.0000 C   0  0  0  0  0  0  0  0  0  0  0  0
   12.2426   -8.1591    0.0000 C   0  0  2  0  0  0  0  0  0  0  0  0
   12.9571   -7.7466    0.0000 C   0  0  1  0  0  0  0  0  0  0  0  0
   12.9571   -6.9216    0.0000 C   0  0  0  0  0  0  0  0  0  0  0  0
   13.6715   -6.5091    0.0000 C   0  0  0  0  0  0  0  0  0  0  0  0
   14.3860   -6.9216    0.0000 C   0  0  0  0  0  0  0  0  0  0  0  0
   15.1005   -6.5091    0.0000 C   0  0  2  0  0  0  0  0  0  0  0  0
   17.2548   -6.9019    0.0000 O   0  0  0  0  0  0  0  0  0  0  0  0
   12.2426   -7.3341    0.0000 C   0  0  0  0  0  0  0  0  0  0  0  0
   11.1156  -10.1111    0.0000 C   0  0  0  0  0  0  0  0  0  0  0  0
   15.4024   -4.5572    0.0000 C   0  0  0  0  0  0  0  0  0  0  0  0
   16.2274   -4.5572    0.0000 C   0  0  0  0  0  0  0  0  0  0  0  0
   11.9406  -10.1111    0.0000 C   0  0  0  0  0  0  0  0  0  0  0  0
   11.5281  -10.8256    0.0000 O   0  0  0  0  0  0  0  0  0  0  0  0
   10.0992   -9.3966    0.0000 O   0  0  0  0  0  0  0  0  0  0  0  0
   12.2426   -9.8091    0.0000 H   0  0  0  0  0  0  0  0  0  0  0  0
   15.1005   -7.3341    0.0000 H   0  0  0  0  0  0  0  0  0  0  0  0
   16.5294   -8.1591    0.0000 O   0  0  0  0  0  0  0  0  0  0  0  0
    9.3829   -8.9942    0.0000 C   0  0  1  0  0  0  0  0  0  0  0  0
    8.6683   -9.4065    0.0000 C   0  0  2  0  0  0  0  0  0  0  0  0
    8.6681  -10.2315    0.0000 O   0  0  0  0  0  0  0  0  0  0  0  0
    7.9539   -8.9938    0.0000 C   0  0  1  0  0  0  0  0  0  0  0  0
    7.2394   -9.4061    0.0000 O   0  0  0  0  0  0  0  0  0  0  0  0
    7.9542   -8.1688    0.0000 C   0  0  2  0  0  0  0  0  0  0  0  0
    7.2398   -7.7561    0.0000 O   0  0  0  0  0  0  0  0  0  0  0  0
    8.6687   -7.7565    0.0000 C   0  0  2  0  0  0  0  0  0  0  0  0
    9.3831   -8.1692    0.0000 O   0  0  0  0  0  0  0  0  0  0  0  0
    8.6689   -6.9315    0.0000 C   0  0  0  0  0  0  0  0  0  0  0  0
    7.9546   -6.5188    0.0000 O   0  0  0  0  0  0  0  0  0  0  0  0
   16.5294   -7.3341    0.0000 C   0  0  0  0  0  0  0  0  0  0  0  0
    9.3755   -6.5192    0.0000 O   0  0  0  0  0  0  0  0  0  0  0  0
    8.2457  -10.9426    0.0000 C   0  0  1  0  0  0  0  0  0  0  0  0
    8.6526  -11.6602    0.0000 C   0  0  2  0  0  0  0  0  0  0  0  0
    9.4776  -11.6667    0.0000 O   0  0  0  0  0  0  0  0  0  0  0  0
    8.2345  -12.3715    0.0000 C   0  0  1  0  0  0  0  0  0  0  0  0
    8.6414  -13.0891    0.0000 O   0  0  0  0  0  0  0  0  0  0  0  0
    7.4095  -12.3650    0.0000 C   0  0  2  0  0  0  0  0  0  0  0  0
    6.9915  -13.0763    0.0000 O   0  0  0  0  0  0  0  0  0  0  0  0
    7.0026  -11.6474    0.0000 C   0  0  2  0  0  0  0  0  0  0  0  0
    7.4207  -10.9361    0.0000 O   0  0  0  0  0  0  0  0  0  0  0  0
    6.1777  -11.6409    0.0000 C   0  0  0  0  0  0  0  0  0  0  0  0
    5.7596  -12.3522    0.0000 O   0  0  0  0  0  0  0  0  0  0  0  0
    6.5335   -9.0005    0.0000 C   0  0  2  0  0  0  0  0  0  0  0  0
    6.5333   -8.1755    0.0000 O   0  0  0  0  0  0  0  0  0  0  0  0
    5.8188   -7.7632    0.0000 C   0  0  2  0  0  0  0  0  0  0  0  0
    5.1044   -8.1758    0.0000 C   0  0  1  0  0  0  0  0  0  0  0  0
    5.1046   -9.0008    0.0000 C   0  0  2  0  0  0  0  0  0  0  0  0
    5.8191   -9.4132    0.0000 C   0  0  1  0  0  0  0  0  0  0  0  0
    4.3898   -7.7635    0.0000 O   0  0  0  0  0  0  0  0  0  0  0  0
    5.8186   -6.9381    0.0000 C   0  0  0  0  0  0  0  0  0  0  0  0
    5.8193  -10.2382    0.0000 O   0  0  0  0  0  0  0  0  0  0  0  0
    4.3902   -9.4135    0.0000 O   0  0  0  0  0  0  0  0  0  0  0  0
   13.6715   -7.3341    0.0000 C   0  0  0  0  0  0  0  0  0  0  0  0
   12.9571   -8.5716    0.0000 H   0  0  0  0  0  0  0  0  0  0  0  0
   14.3860   -8.5716    0.0000 C   0  0  0  0  0  0  0  0  0  0  0  0
 45 23  1  0  0  0  0
  1  2  1  0  0  0  0
  2  3  1  0  0  0  0
  3  4  1  0  0  0  0
  4  5  1  0  0  0  0
  5  6  1  0  0  0  0
  6  7  1  0  0  0  0
  7  8  1  0  0  0  0
  8  9  1  0  0  0  0
  9 10  1  0  0  0  0
 10 11  1  0  0  0  0
 11 12  1  0  0  0  0
 12 13  1  0  0  0  0
 13 14  1  0  0  0  0
 14 15  1  0  0  0  0
 15 16  1  0  0  0  0
 16 17  1  0  0  0  0
 12 17  1  0  0  0  0
 17 18  1  0  0  0  0
  9 18  1  0  0  0  0
 18 19  1  0  0  0  0
 19 20  1  0  0  0  0
 20 21  2  0  0  0  0
  8 21  1  0  0  0  0
 21 22  1  0  0  0  0
  5 22  1  0  0  0  0
  1 22  1  0  0  0  0
 45 33  2  0  0  0  0
  5 45  1  1  0  0  0
 17 24  1  1  0  0  0
 13 25  1  1  0  0  0
  2 26  1  0  0  0  0
  2 27  1  0  0  0  0
 28 29  2  0  0  0  0
 13 28  1  0  0  0  0
 14 30  1  1  0  0  0
 12 31  1  6  0  0  0
 22 32  1  1  0  0  0
 34 35  1  0  0  0  0
 35 36  1  6  0  0  0
 35 37  1  0  0  0  0
 37 38  1  1  0  0  0
 37 39  1  0  0  0  0
 39 40  1  6  0  0  0
 39 41  1  0  0  0  0
 41 42  1  0  0  0  0
 41 43  1  1  0  0  0
 43 44  1  0  0  0  0
 34 42  1  0  0  0  0
 34 30  1  1  0  0  0
 43 46  2  0  0  0  0
 47 48  1  0  0  0  0
 48 49  1  6  0  0  0
 48 50  1  0  0  0  0
 50 51  1  1  0  0  0
 50 52  1  0  0  0  0
 52 53  1  6  0  0  0
 52 54  1  0  0  0  0
 54 55  1  0  0  0  0
 54 56  1  1  0  0  0
 56 57  1  0  0  0  0
 47 55  1  0  0  0  0
 58 59  1  0  0  0  0
 59 60  1  0  0  0  0
 60 61  1  0  0  0  0
 61 62  1  0  0  0  0
 62 63  1  0  0  0  0
 63 58  1  0  0  0  0
 61 64  1  1  0  0  0
 60 65  1  6  0  0  0
 63 66  1  6  0  0  0
 62 67  1  6  0  0  0
 58 38  1  1  0  0  0
 47 36  1  1  0  0  0
  9 68  1  1  0  0  0
 18 69  1  6  0  0  0
  8 70  1  6  0  0  0
M  END
>  <cdx:fragmentId>
5

$$$$
