95453.cdx
  Mrv1902 05222410252D          

 59 65  0  0  0  0            999 V2000
    8.4652   -7.4739    0.0000 C   0  0  0  0  0  0  0  0  0  0  0  0
    9.1797   -7.0614    0.0000 C   0  0  0  0  0  0  0  0  0  0  0  0
    9.8942   -7.4739    0.0000 C   0  0  0  0  0  0  0  0  0  0  0  0
    9.8942   -8.2989    0.0000 C   0  0  0  0  0  0  0  0  0  0  0  0
    9.1797   -8.7114    0.0000 C   0  0  2  0  0  0  0  0  0  0  0  0
    9.1797   -9.5364    0.0000 C   0  0  0  0  0  0  0  0  0  0  0  0
    8.4652   -9.9489    0.0000 C   0  0  0  0  0  0  0  0  0  0  0  0
    7.7507   -9.5364    0.0000 C   0  0  1  0  0  0  0  0  0  0  0  0
    7.0363   -9.9489    0.0000 C   0  0  2  0  0  0  0  0  0  0  0  0
    7.0363  -10.7739    0.0000 C   0  0  0  0  0  0  0  0  0  0  0  0
    6.3218  -11.1864    0.0000 C   0  0  0  0  0  0  0  0  0  0  0  0
    5.6073  -10.7739    0.0000 C   0  0  1  0  0  0  0  0  0  0  0  0
    4.8929  -11.1864    0.0000 C   0  0  2  0  0  0  0  0  0  0  0  0
    4.1784  -10.7739    0.0000 C   0  0  2  0  0  0  0  0  0  0  0  0
    4.1784   -9.9489    0.0000 C   0  0  0  0  0  0  0  0  0  0  0  0
    4.8929   -9.5364    0.0000 C   0  0  0  0  0  0  0  0  0  0  0  0
    5.6073   -9.9489    0.0000 C   0  0  2  0  0  0  0  0  0  0  0  0
    6.3218   -9.5364    0.0000 C   0  0  1  0  0  0  0  0  0  0  0  0
    6.3218   -8.7114    0.0000 C   0  0  0  0  0  0  0  0  0  0  0  0
    7.0363   -8.2989    0.0000 C   0  0  0  0  0  0  0  0  0  0  0  0
    7.7507   -8.7114    0.0000 C   0  0  0  0  0  0  0  0  0  0  0  0
    8.4652   -8.2989    0.0000 C   0  0  2  0  0  0  0  0  0  0  0  0
   10.6086   -8.7114    0.0000 O   0  0  0  0  0  0  0  0  0  0  0  0
   11.3094   -9.1231    0.0000 C   0  0  2  0  0  0  0  0  0  0  0  0
   11.3018   -9.9481    0.0000 O   0  0  0  0  0  0  0  0  0  0  0  0
    5.6073   -9.1239    0.0000 C   0  0  0  0  0  0  0  0  0  0  0  0
    4.4804  -11.9009    0.0000 C   0  0  0  0  0  0  0  0  0  0  0  0
    8.7672   -6.3469    0.0000 C   0  0  0  0  0  0  0  0  0  0  0  0
    9.5922   -6.3469    0.0000 C   0  0  0  0  0  0  0  0  0  0  0  0
    5.3054  -11.9009    0.0000 C   0  0  0  0  0  0  0  0  0  0  0  0
    4.8929  -12.6154    0.0000 O   0  0  0  0  0  0  0  0  0  0  0  0
    3.4639  -11.1864    0.0000 O   0  0  0  0  0  0  0  0  0  0  0  0
    5.6073  -11.5989    0.0000 H   0  0  0  0  0  0  0  0  0  0  0  0
    8.4652   -9.1239    0.0000 H   0  0  0  0  0  0  0  0  0  0  0  0
   12.0125  -10.3671    0.0000 C   0  0  2  0  0  0  0  0  0  0  0  0
   12.7307   -9.9612    0.0000 C   0  0  1  0  0  0  0  0  0  0  0  0
    2.7621  -10.7756    0.0000 C   0  0  1  0  0  0  0  0  0  0  0  0
    2.0470  -11.1869    0.0000 C   0  0  2  0  0  0  0  0  0  0  0  0
    2.0456  -12.0119    0.0000 O   0  0  0  0  0  0  0  0  0  0  0  0
    1.3332  -10.7733    0.0000 C   0  0  1  0  0  0  0  0  0  0  0  0
    0.6180  -11.1846    0.0000 O   0  0  0  0  0  0  0  0  0  0  0  0
    1.3345   -9.9483    0.0000 C   0  0  2  0  0  0  0  0  0  0  0  0
    0.6207   -9.5346    0.0000 O   0  0  0  0  0  0  0  0  0  0  0  0
    2.0497   -9.5369    0.0000 C   0  0  2  0  0  0  0  0  0  0  0  0
    2.7635   -9.9506    0.0000 O   0  0  0  0  0  0  0  0  0  0  0  0
    2.0510   -8.7119    0.0000 C   0  0  0  0  0  0  0  0  0  0  0  0
    1.3372   -8.2983    0.0000 O   0  0  0  0  0  0  0  0  0  0  0  0
   12.7382   -9.1362    0.0000 C   0  0  2  0  0  0  0  0  0  0  0  0
   12.0276   -8.7172    0.0000 C   0  0  1  0  0  0  0  0  0  0  0  0
   13.4414  -10.3802    0.0000 O   0  0  0  0  0  0  0  0  0  0  0  0
   12.0049  -11.1921    0.0000 C   0  0  0  0  0  0  0  0  0  0  0  0
   12.0351   -7.8922    0.0000 O   0  0  0  0  0  0  0  0  0  0  0  0
   13.4565   -8.7302    0.0000 O   0  0  0  0  0  0  0  0  0  0  0  0
    9.8942   -9.9489    0.0000 O   0  0  0  0  0  0  0  0  0  0  0  0
    2.7662   -8.3006    0.0000 O   0  0  0  0  0  0  0  0  0  0  0  0
    9.8942   -9.1239    0.0000 C   0  0  0  0  0  0  0  0  0  0  0  0
    6.3218  -10.3614    0.0000 H   0  0  0  0  0  0  0  0  0  0  0  0
    7.7507  -10.3614    0.0000 C   0  0  0  0  0  0  0  0  0  0  0  0
    7.0363   -9.1239    0.0000 C   0  0  0  0  0  0  0  0  0  0  0  0
  1  2  1  0  0  0  0
  2  3  1  0  0  0  0
  3  4  1  0  0  0  0
  4  5  1  0  0  0  0
  5  6  1  0  0  0  0
  6  7  1  0  0  0  0
  7  8  1  0  0  0  0
  8  9  1  0  0  0  0
  9 10  1  0  0  0  0
 10 11  1  0  0  0  0
 11 12  1  0  0  0  0
 12 13  1  0  0  0  0
 13 14  1  0  0  0  0
 14 15  1  0  0  0  0
 15 16  1  0  0  0  0
 16 17  1  0  0  0  0
 12 17  1  0  0  0  0
 17 18  1  0  0  0  0
  9 18  1  0  0  0  0
 18 19  1  0  0  0  0
 19 20  1  0  0  0  0
 20 21  2  0  0  0  0
  8 21  1  0  0  0  0
 21 22  1  0  0  0  0
  5 22  1  0  0  0  0
  1 22  1  0  0  0  0
  5 56  1  1  0  0  0
 17 26  1  1  0  0  0
 13 27  1  1  0  0  0
  2 28  1  0  0  0  0
  2 29  1  0  0  0  0
 30 31  1  0  0  0  0
 13 30  1  0  0  0  0
 14 32  1  1  0  0  0
 12 33  1  6  0  0  0
 22 34  1  1  0  0  0
 37 38  1  0  0  0  0
 38 39  1  6  0  0  0
 38 40  1  0  0  0  0
 40 41  1  1  0  0  0
 40 42  1  0  0  0  0
 42 43  1  6  0  0  0
 42 44  1  0  0  0  0
 44 45  1  0  0  0  0
 44 46  1  1  0  0  0
 46 47  1  0  0  0  0
 37 45  1  0  0  0  0
 24 25  1  0  0  0  0
 25 35  1  0  0  0  0
 35 36  1  0  0  0  0
 36 48  1  0  0  0  0
 48 49  1  0  0  0  0
 49 24  1  0  0  0  0
 36 50  1  1  0  0  0
 35 51  1  6  0  0  0
 49 52  1  6  0  0  0
 48 53  1  6  0  0  0
 56 54  2  0  0  0  0
 56 23  1  0  0  0  0
 24 23  1  1  0  0  0
 37 32  1  1  0  0  0
 46 55  2  0  0  0  0
 18 57  1  6  0  0  0
  8 58  1  6  0  0  0
  9 59  1  1  0  0  0
M  END
>  <cdx:fragmentId>
5

$$$$
