95454.cdx
  Mrv1902 05222410242D          

 19 20  0  0  0  0            999 V2000
    8.3119   -9.2786    0.0000 O   0  0  0  0  0  0  0  0  0  0  0  0
    8.7968   -8.6111    0.0000 C   0  0  0  0  0  0  0  0  0  0  0  0
    8.3119   -7.9437    0.0000 C   0  0  0  0  0  0  0  0  0  0  0  0
    7.5273   -8.1986    0.0000 C   0  0  1  0  0  0  0  0  0  0  0  0
    6.8128   -7.7861    0.0000 C   0  0  0  0  0  0  0  0  0  0  0  0
    6.0983   -8.1986    0.0000 C   0  0  1  0  0  0  0  0  0  0  0  0
    6.0983   -9.0236    0.0000 C   0  0  1  0  0  0  0  0  0  0  0  0
    6.8128   -9.4361    0.0000 C   0  0  0  0  0  0  0  0  0  0  0  0
    7.5273   -9.0236    0.0000 C   0  0  1  0  0  0  0  0  0  0  0  0
    9.6218   -8.6111    0.0000 O   0  0  0  0  0  0  0  0  0  0  0  0
    5.3839   -6.9611    0.0000 C   0  0  0  0  0  0  0  0  0  0  0  0
    5.3839   -7.7861    0.0000 C   0  0  0  0  0  0  0  0  0  0  0  0
    4.6694   -8.1986    0.0000 C   0  0  0  0  0  0  0  0  0  0  0  0
    8.5668   -7.1591    0.0000 C   0  0  0  0  0  0  0  0  0  0  0  0
    5.6858   -9.7381    0.0000 C   0  0  0  0  0  0  0  0  0  0  0  0
    5.2733   -9.0236    0.0000 C   0  0  0  0  0  0  0  0  0  0  0  0
    4.8608   -9.7381    0.0000 C   0  0  0  0  0  0  0  0  0  0  0  0
    7.6135   -7.3782    0.0000 H   0  0  0  0  0  0  0  0  0  0  0  0
    7.6135   -9.8441    0.0000 H   0  0  0  0  0  0  0  0  0  0  0  0
  1  2  1  0  0  0  0
  2  3  1  0  0  0  0
  3  4  1  0  0  0  0
  4  5  1  0  0  0  0
  5  6  1  0  0  0  0
  6  7  1  0  0  0  0
  7  8  1  0  0  0  0
  8  9  1  0  0  0  0
  4  9  1  0  0  0  0
  1  9  1  0  0  0  0
  2 10  2  0  0  0  0
 11 12  2  0  0  0  0
 12 13  1  0  0  0  0
  6 12  1  1  0  0  0
  3 14  2  0  0  0  0
  7 15  1  1  0  0  0
 16 17  2  0  0  0  0
  7 16  1  0  0  0  0
  4 18  1  1  0  0  0
  9 19  1  1  0  0  0
M  END
>  <cdx:fragmentId>
5

$$$$
