95457.cdx
  Mrv1902 05222410232D          

 14 14  0  0  0  0            999 V2000
    6.4738   -6.2705    0.0000 C   0  0  0  0  0  0  0  0  0  0  0  0
    6.0613   -6.9850    0.0000 C   0  0  0  0  0  0  0  0  0  0  0  0
    6.4738   -7.6995    0.0000 C   0  0  0  0  0  0  0  0  0  0  0  0
    7.2988   -7.6995    0.0000 C   0  0  0  0  0  0  0  0  0  0  0  0
    7.7113   -6.9850    0.0000 C   0  0  0  0  0  0  0  0  0  0  0  0
    7.2988   -6.2705    0.0000 C   0  0  0  0  0  0  0  0  0  0  0  0
    7.7113   -5.5561    0.0000 O   0  0  0  0  0  0  0  0  0  0  0  0
    7.7113   -8.4139    0.0000 C   0  0  0  0  0  0  0  0  0  0  0  0
    5.3468   -7.3975    0.0000 C   0  0  0  0  0  0  0  0  0  0  0  0
    5.3468   -6.5725    0.0000 C   0  0  0  0  0  0  0  0  0  0  0  0
    6.0613   -8.4139    0.0000 C   0  0  0  0  0  0  0  0  0  0  0  0
    5.2363   -8.4139    0.0000 C   0  0  0  0  0  0  0  0  0  0  0  0
    4.8238   -9.1284    0.0000 C   0  0  0  0  0  0  0  0  0  0  0  0
    3.9988   -9.1284    0.0000 C   0  0  0  0  0  0  0  0  0  0  0  0
  1  2  1  0  0  0  0
  2  3  1  0  0  0  0
  3  4  1  0  0  0  0
  4  5  2  0  0  0  0
  5  6  1  0  0  0  0
  6  1  1  0  0  0  0
  6  7  2  0  0  0  0
  4  8  1  0  0  0  0
  2  9  1  0  0  0  0
  2 10  1  0  0  0  0
  3 11  1  0  0  0  0
 11 12  2  0  0  0  0
 12 13  1  0  0  0  0
 13 14  2  0  0  0  0
M  END
>  <cdx:fragmentId>
5

$$$$
