95461.cdx
  Mrv1902 05222410212D          

 24 26  0  0  0  0            999 V2000
    4.7418   -8.7037    0.0000 C   0  0  0  0  0  0  0  0  0  0  0  0
    4.7418   -9.5287    0.0000 C   0  0  0  0  0  0  0  0  0  0  0  0
    5.4563   -9.9413    0.0000 C   0  0  1  0  0  0  0  0  0  0  0  0
    6.1707   -9.5287    0.0000 C   0  0  0  0  0  0  0  0  0  0  0  0
    6.1707   -8.7037    0.0000 C   0  0  1  0  0  0  0  0  0  0  0  0
    5.4563   -8.2912    0.0000 C   0  0  0  0  0  0  0  0  0  0  0  0
    6.8852   -9.9413    0.0000 C   0  0  0  0  0  0  0  0  0  0  0  0
    7.5997   -9.5287    0.0000 C   0  0  0  0  0  0  0  0  0  0  0  0
    7.5997   -8.7037    0.0000 C   0  0  0  0  0  0  0  0  0  0  0  0
    6.8852   -8.2912    0.0000 C   0  0  1  0  0  0  0  0  0  0  0  0
    8.3142   -8.2912    0.0000 C   0  0  0  0  0  0  0  0  0  0  0  0
    7.5997   -7.0537    0.0000 C   0  0  0  0  0  0  0  0  0  0  0  0
    6.8852   -7.4663    0.0000 C   0  0  0  0  0  0  0  0  0  0  0  0
    7.5997   -6.2287    0.0000 C   0  0  0  0  0  0  0  0  0  0  0  0
    6.8852   -5.8163    0.0000 C   0  0  0  0  0  0  0  0  0  0  0  0
    8.2128   -5.6767    0.0000 C   0  0  0  0  0  0  0  0  0  0  0  0
    7.8772   -4.9230    0.0000 O   0  0  0  0  0  0  0  0  0  0  0  0
    7.0567   -5.0093    0.0000 C   0  0  0  0  0  0  0  0  0  0  0  0
    4.0273   -9.9413    0.0000 O   0  0  0  0  0  0  0  0  0  0  0  0
    9.0198   -5.8482    0.0000 O   0  0  0  0  0  0  0  0  0  0  0  0
    5.0438  -10.6557    0.0000 C   0  0  0  0  0  0  0  0  0  0  0  0
    5.8688  -10.6557    0.0000 C   0  0  0  0  0  0  0  0  0  0  0  0
    6.1707   -7.8788    0.0000 C   0  0  0  0  0  0  0  0  0  0  0  0
    5.4563  -11.3702    0.0000 O   0  0  0  0  0  0  0  0  0  0  0  0
  1  2  1  0  0  0  0
  2  3  1  0  0  0  0
  3  4  1  0  0  0  0
  4  5  1  0  0  0  0
  5  6  1  0  0  0  0
  6  1  1  0  0  0  0
  4  7  1  0  0  0  0
  7  8  1  0  0  0  0
  8  9  1  0  0  0  0
  9 10  1  0  0  0  0
 10  5  1  0  0  0  0
  9 11  2  0  0  0  0
 12 13  2  0  0  0  0
 10 13  1  6  0  0  0
 12 14  1  0  0  0  0
 14 15  2  0  0  0  0
 14 16  1  0  0  0  0
 16 17  1  0  0  0  0
 17 18  1  0  0  0  0
 18 15  1  0  0  0  0
  2 19  2  0  0  0  0
 16 20  2  0  0  0  0
  3 21  1  1  0  0  0
  3 22  1  6  0  0  0
  5 23  1  6  0  0  0
 22 24  2  0  0  0  0
M  END
>  <cdx:fragmentId>
5

$$$$
