9546.cdx
  Mrv1902 05222410192D          

 31 33  0  0  0  0            999 V2000
    6.1358   -5.7338    0.0000 C   0  0  2  0  0  0  0  0  0  0  0  0
    6.1358   -6.5587    0.0000 C   0  0  0  0  0  0  0  0  0  0  0  0
    6.8502   -6.9712    0.0000 O   0  0  0  0  0  0  0  0  0  0  0  0
    7.5647   -6.5587    0.0000 C   0  0  0  0  0  0  0  0  0  0  0  0
    7.5647   -5.7338    0.0000 C   0  0  0  0  0  0  0  0  0  0  0  0
    6.8502   -5.3213    0.0000 C   0  0  1  0  0  0  0  0  0  0  0  0
    8.2792   -6.9712    0.0000 C   0  0  0  0  0  0  0  0  0  0  0  0
    8.9937   -6.5587    0.0000 C   0  0  0  0  0  0  0  0  0  0  0  0
    8.9937   -5.7338    0.0000 C   0  0  0  0  0  0  0  0  0  0  0  0
    8.2792   -5.3213    0.0000 C   0  0  0  0  0  0  0  0  0  0  0  0
    9.7081   -6.9712    0.0000 O   0  0  0  0  0  0  0  0  0  0  0  0
   10.4226   -6.5587    0.0000 C   0  0  0  0  0  0  0  0  0  0  0  0
   10.4226   -5.7338    0.0000 C   0  0  0  0  0  0  0  0  0  0  0  0
    9.7081   -5.3213    0.0000 C   0  0  0  0  0  0  0  0  0  0  0  0
    5.3108   -6.5587    0.0000 C   0  0  0  0  0  0  0  0  0  0  0  0
    5.7233   -7.2732    0.0000 C   0  0  0  0  0  0  0  0  0  0  0  0
   11.1371   -6.9712    0.0000 O   0  0  0  0  0  0  0  0  0  0  0  0
    3.9627   -5.3006    0.0000 C   0  0  0  0  0  0  0  0  0  0  0  0
    4.6772   -5.7131    0.0000 C   0  0  0  0  0  0  0  0  0  0  0  0
    5.3917   -5.3006    0.0000 O   0  0  0  0  0  0  0  0  0  0  0  0
    4.6772   -6.5381    0.0000 O   0  0  0  0  0  0  0  0  0  0  0  0
    3.2483   -5.7131    0.0000 C   0  0  0  0  0  0  0  0  0  0  0  0
    2.5338   -5.3006    0.0000 C   0  0  0  0  0  0  0  0  0  0  0  0
    3.2483   -6.5381    0.0000 C   0  0  0  0  0  0  0  0  0  0  0  0
    6.8502   -4.4962    0.0000 O   0  0  0  0  0  0  0  0  0  0  0  0
    6.1358   -4.0838    0.0000 C   0  0  0  0  0  0  0  0  0  0  0  0
    6.1358   -3.2588    0.0000 C   0  0  0  0  0  0  0  0  0  0  0  0
    5.4213   -4.4962    0.0000 O   0  0  0  0  0  0  0  0  0  0  0  0
    5.4213   -2.8463    0.0000 C   0  0  0  0  0  0  0  0  0  0  0  0
    6.8502   -2.8462    0.0000 C   0  0  0  0  0  0  0  0  0  0  0  0
    7.5647   -3.2587    0.0000 C   0  0  0  0  0  0  0  0  0  0  0  0
  1  2  1  0  0  0  0
  2  3  1  0  0  0  0
  3  4  1  0  0  0  0
  4  5  2  0  0  0  0
  5  6  1  0  0  0  0
  6  1  1  0  0  0  0
  4  7  1  0  0  0  0
  7  8  2  0  0  0  0
  8  9  1  0  0  0  0
  9 10  2  0  0  0  0
 10  5  1  0  0  0  0
  8 11  1  0  0  0  0
 11 12  1  0  0  0  0
 12 13  1  0  0  0  0
 13 14  2  0  0  0  0
 14  9  1  0  0  0  0
  2 15  1  0  0  0  0
  2 16  1  0  0  0  0
 12 17  2  0  0  0  0
 18 19  1  0  0  0  0
 19 20  1  0  0  0  0
 19 21  2  0  0  0  0
  1 20  1  1  0  0  0
 18 22  2  0  0  0  0
 22 23  1  0  0  0  0
 22 24  1  0  0  0  0
  6 25  1  6  0  0  0
 25 26  1  0  0  0  0
 26 27  1  0  0  0  0
 26 28  2  0  0  0  0
 27 29  1  0  0  0  0
 27 30  2  0  0  0  0
 30 31  1  0  0  0  0
M  END
>  <cdx:fragmentId>
5

$$$$
