95460.cdx
  Mrv1902 05222410212D          

 34 36  0  0  0  0            999 V2000
    8.6331   -5.8575    0.0000 C   0  0  2  0  0  0  0  0  0  0  0  0
    8.6331   -6.6825    0.0000 C   0  0  2  0  0  0  0  0  0  0  0  0
    9.3475   -7.0950    0.0000 C   0  0  1  0  0  0  0  0  0  0  0  0
   10.0620   -6.6825    0.0000 C   0  0  2  0  0  0  0  0  0  0  0  0
   10.0620   -5.8575    0.0000 C   0  0  1  0  0  0  0  0  0  0  0  0
    9.3475   -5.4450    0.0000 O   0  0  0  0  0  0  0  0  0  0  0  0
   10.7765   -5.4450    0.0000 O   0  0  0  0  0  0  0  0  0  0  0  0
    7.9186   -5.4450    0.0000 C   0  0  0  0  0  0  0  0  0  0  0  0
    9.3475   -7.9200    0.0000 O   0  0  0  0  0  0  0  0  0  0  0  0
    7.9186   -7.0950    0.0000 O   0  0  0  0  0  0  0  0  0  0  0  0
   10.7765   -7.0950    0.0000 O   0  0  0  0  0  0  0  0  0  0  0  0
    7.9186   -4.6200    0.0000 O   0  0  0  0  0  0  0  0  0  0  0  0
    8.6331   -8.3325    0.0000 C   0  0  2  0  0  0  0  0  0  0  0  0
    7.9186   -7.9200    0.0000 O   0  0  0  0  0  0  0  0  0  0  0  0
    7.2041   -8.3325    0.0000 C   0  0  1  0  0  0  0  0  0  0  0  0
    7.2041   -9.1575    0.0000 C   0  0  2  0  0  0  0  0  0  0  0  0
    7.9186   -9.5700    0.0000 C   0  0  1  0  0  0  0  0  0  0  0  0
    8.6331   -9.1575    0.0000 C   0  0  1  0  0  0  0  0  0  0  0  0
    6.4896   -7.9200    0.0000 C   0  0  0  0  0  0  0  0  0  0  0  0
    7.9186  -10.3950    0.0000 O   0  0  0  0  0  0  0  0  0  0  0  0
    6.4896   -9.5700    0.0000 O   0  0  0  0  0  0  0  0  0  0  0  0
    9.3475   -9.5700    0.0000 O   0  0  0  0  0  0  0  0  0  0  0  0
    5.7752   -8.3325    0.0000 O   0  0  0  0  0  0  0  0  0  0  0  0
    5.7833   -6.6841    0.0000 C   0  0  0  0  0  0  0  0  0  0  0  0
    5.0679   -7.0950    0.0000 C   0  0  0  0  0  0  0  0  0  0  0  0
    5.0661   -7.9200    0.0000 C   0  0  0  0  0  0  0  0  0  0  0  0
    4.3507   -8.3309    0.0000 C   0  0  0  0  0  0  0  0  0  0  0  0
    3.6372   -7.9168    0.0000 C   0  0  0  0  0  0  0  0  0  0  0  0
    3.6390   -7.0919    0.0000 C   0  0  0  0  0  0  0  0  0  0  0  0
    4.3544   -6.6809    0.0000 C   0  0  0  0  0  0  0  0  0  0  0  0
    2.9218   -8.3278    0.0000 O   0  0  0  0  0  0  0  0  0  0  0  0
    6.4969   -7.0982    0.0000 C   0  0  0  0  0  0  0  0  0  0  0  0
    7.2122   -6.6873    0.0000 C   0  0  0  0  0  0  0  0  0  0  0  0
    7.2141   -5.8623    0.0000 O   0  0  0  0  0  0  0  0  0  0  0  0
  1  2  1  0  0  0  0
  2  3  1  0  0  0  0
  3  4  1  0  0  0  0
  4  5  1  0  0  0  0
  5  6  1  0  0  0  0
  6  1  1  0  0  0  0
  5  7  1  1  0  0  0
  1  8  1  1  0  0  0
  3  9  1  1  0  0  0
  2 10  1  6  0  0  0
  4 11  1  6  0  0  0
  8 12  1  0  0  0  0
 13  9  1  1  0  0  0
 13 14  1  0  0  0  0
 14 15  1  0  0  0  0
 15 16  1  0  0  0  0
 16 17  1  0  0  0  0
 17 18  1  0  0  0  0
 18 13  1  0  0  0  0
 15 19  1  1  0  0  0
 17 20  1  1  0  0  0
 16 21  1  6  0  0  0
 18 22  1  6  0  0  0
 19 23  1  0  0  0  0
 24 25  1  0  0  0  0
 25 26  1  0  0  0  0
 26 27  2  0  0  0  0
 27 28  1  0  0  0  0
 28 29  2  0  0  0  0
 29 30  1  0  0  0  0
 25 30  2  0  0  0  0
 28 31  1  0  0  0  0
 24 32  2  0  0  0  0
 32 33  1  0  0  0  0
 33 34  2  0  0  0  0
 33 10  1  0  0  0  0
M  END
>  <cdx:fragmentId>
5

$$$$
