95463.cdx
  Mrv1902 05222410202D          

 22 24  0  0  0  0            999 V2000
    3.8068   -5.6375    0.0000 C   0  0  0  0  0  0  0  0  0  0  0  0
    3.8068   -6.4625    0.0000 C   0  0  0  0  0  0  0  0  0  0  0  0
    4.5213   -6.8750    0.0000 C   0  0  0  0  0  0  0  0  0  0  0  0
    5.2357   -6.4625    0.0000 C   0  0  0  0  0  0  0  0  0  0  0  0
    5.2357   -5.6375    0.0000 C   0  0  0  0  0  0  0  0  0  0  0  0
    4.5213   -5.2250    0.0000 C   0  0  0  0  0  0  0  0  0  0  0  0
    5.9502   -6.8750    0.0000 C   0  0  0  0  0  0  0  0  0  0  0  0
    6.6647   -6.4625    0.0000 C   0  0  0  0  0  0  0  0  0  0  0  0
    6.6647   -5.6375    0.0000 C   0  0  0  0  0  0  0  0  0  0  0  0
    5.9502   -5.2250    0.0000 O   0  0  0  0  0  0  0  0  0  0  0  0
    7.3792   -6.8750    0.0000 C   0  0  0  0  0  0  0  0  0  0  0  0
    8.0936   -6.4625    0.0000 C   0  0  0  0  0  0  0  0  0  0  0  0
    8.0936   -5.6375    0.0000 O   0  0  0  0  0  0  0  0  0  0  0  0
    7.3792   -7.7000    0.0000 C   0  0  0  0  0  0  0  0  0  0  0  0
    8.0936   -8.1125    0.0000 C   0  0  0  0  0  0  0  0  0  0  0  0
    8.8081   -7.7000    0.0000 C   0  0  0  0  0  0  0  0  0  0  0  0
    8.8081   -6.8750    0.0000 C   0  0  0  0  0  0  0  0  0  0  0  0
    3.0923   -5.2250    0.0000 O   0  0  0  0  0  0  0  0  0  0  0  0
    9.5226   -6.4625    0.0000 O   0  0  0  0  0  0  0  0  0  0  0  0
   10.2370   -6.8750    0.0000 C   0  0  0  0  0  0  0  0  0  0  0  0
    9.5226   -8.1125    0.0000 O   0  0  0  0  0  0  0  0  0  0  0  0
    9.5226   -8.9375    0.0000 C   0  0  0  0  0  0  0  0  0  0  0  0
  1  2  2  0  0  0  0
  2  3  1  0  0  0  0
  3  4  2  0  0  0  0
  4  5  1  0  0  0  0
  5  6  2  0  0  0  0
  6  1  1  0  0  0  0
  4  7  1  0  0  0  0
  7  8  1  0  0  0  0
  8  9  1  0  0  0  0
  9 10  1  0  0  0  0
 10  5  1  0  0  0  0
  8 11  1  0  0  0  0
 11 12  2  0  0  0  0
 12 13  1  0  0  0  0
 11 14  1  0  0  0  0
 14 15  2  0  0  0  0
 15 16  1  0  0  0  0
 16 17  2  0  0  0  0
 17 12  1  0  0  0  0
  1 18  1  0  0  0  0
 17 19  1  0  0  0  0
 19 20  1  0  0  0  0
 16 21  1  0  0  0  0
 21 22  1  0  0  0  0
M  END
>  <cdx:fragmentId>
5

$$$$
