95468.cdx
  Mrv1902 05222410242D          

 36 39  0  0  0  0            999 V2000
    8.8118   -5.4175    0.0000 C   0  0  1  0  0  0  0  0  0  0  0  0
    8.8118   -6.2425    0.0000 C   0  0  0  0  0  0  0  0  0  0  0  0
    9.5263   -6.6550    0.0000 C   0  0  0  0  0  0  0  0  0  0  0  0
   10.2407   -6.2425    0.0000 O   0  0  0  0  0  0  0  0  0  0  0  0
   10.2407   -5.4175    0.0000 C   0  0  0  0  0  0  0  0  0  0  0  0
    9.5263   -5.0050    0.0000 C   0  0  0  0  0  0  0  0  0  0  0  0
    8.0272   -5.1626    0.0000 C   0  0  1  0  0  0  0  0  0  0  0  0
    7.5423   -5.8300    0.0000 C   0  0  0  0  0  0  0  0  0  0  0  0
    8.0272   -6.4974    0.0000 C   0  0  2  0  0  0  0  0  0  0  0  0
    7.3127   -6.9099    0.0000 O   0  0  0  0  0  0  0  0  0  0  0  0
    6.5982   -6.4974    0.0000 C   0  0  0  0  0  0  0  0  0  0  0  0
    5.8838   -6.9099    0.0000 C   0  0  0  0  0  0  0  0  0  0  0  0
    6.5982   -5.6724    0.0000 O   0  0  0  0  0  0  0  0  0  0  0  0
    5.1693   -6.4974    0.0000 C   0  0  0  0  0  0  0  0  0  0  0  0
    4.4548   -6.9099    0.0000 C   0  0  0  0  0  0  0  0  0  0  0  0
    3.7404   -6.4974    0.0000 C   0  0  0  0  0  0  0  0  0  0  0  0
    3.0259   -6.9099    0.0000 C   0  0  0  0  0  0  0  0  0  0  0  0
    3.0259   -7.7349    0.0000 C   0  0  0  0  0  0  0  0  0  0  0  0
    3.7404   -8.1474    0.0000 C   0  0  0  0  0  0  0  0  0  0  0  0
    4.4548   -7.7349    0.0000 C   0  0  0  0  0  0  0  0  0  0  0  0
    2.3114   -8.1474    0.0000 O   0  0  0  0  0  0  0  0  0  0  0  0
    9.5263   -7.4800    0.0000 O   0  0  0  0  0  0  0  0  0  0  0  0
    7.7722   -4.3779    0.0000 O   0  0  0  0  0  0  0  0  0  0  0  0
    8.8118   -4.5925    0.0000 O   0  0  0  0  0  0  0  0  0  0  0  0
    7.8860   -8.9253    0.0000 C   0  0  2  0  0  0  0  0  0  0  0  0
    8.3008   -9.6385    0.0000 C   0  0  2  0  0  0  0  0  0  0  0  0
    9.1257   -9.6358    0.0000 C   0  0  1  0  0  0  0  0  0  0  0  0
    9.5359   -8.9200    0.0000 C   0  0  2  0  0  0  0  0  0  0  0  0
    9.1212   -8.2069    0.0000 C   0  0  1  0  0  0  0  0  0  0  0  0
    8.2962   -8.2095    0.0000 O   0  0  0  0  0  0  0  0  0  0  0  0
    7.0610   -8.9280    0.0000 C   0  0  0  0  0  0  0  0  0  0  0  0
    9.5405  -10.3489    0.0000 O   0  0  0  0  0  0  0  0  0  0  0  0
    7.8906  -10.3543    0.0000 O   0  0  0  0  0  0  0  0  0  0  0  0
   10.3609   -8.9174    0.0000 O   0  0  0  0  0  0  0  0  0  0  0  0
    6.6508   -9.6438    0.0000 O   0  0  0  0  0  0  0  0  0  0  0  0
    8.2407   -7.2943    0.0000 C   0  0  0  0  0  0  0  0  0  0  0  0
  1  2  1  0  0  0  0
  2  3  1  0  0  0  0
  3  4  1  0  0  0  0
  4  5  1  0  0  0  0
  5  6  2  0  0  0  0
  6  1  1  0  0  0  0
  1  7  1  0  0  0  0
  7  8  1  0  0  0  0
  8  9  1  0  0  0  0
  9  2  1  0  0  0  0
  9 10  1  1  0  0  0
 10 11  1  0  0  0  0
 11 12  1  0  0  0  0
 11 13  2  0  0  0  0
 12 14  2  0  0  0  0
 14 15  1  0  0  0  0
 15 16  2  0  0  0  0
 16 17  1  0  0  0  0
 17 18  2  0  0  0  0
 18 19  1  0  0  0  0
 19 20  2  0  0  0  0
 20 15  1  0  0  0  0
 18 21  1  0  0  0  0
  3 22  1  0  0  0  0
  7 23  1  1  0  0  0
  1 24  1  1  0  0  0
 25 26  1  0  0  0  0
 26 27  1  0  0  0  0
 27 28  1  0  0  0  0
 28 29  1  0  0  0  0
 29 30  1  0  0  0  0
 30 25  1  0  0  0  0
 25 31  1  1  0  0  0
 27 32  1  1  0  0  0
 26 33  1  6  0  0  0
 28 34  1  6  0  0  0
 31 35  1  0  0  0  0
  9 36  1  6  0  0  0
 29 22  1  1  0  0  0
M  END
>  <cdx:fragmentId>
5

$$$$
