95472.cdx
  Mrv1902 05222410222D          

 36 40  0  0  0  0            999 V2000
    4.8381   -8.3050    0.0000 C   0  0  0  0  0  0  0  0  0  0  0  0
    4.8381   -9.1300    0.0000 C   0  0  0  0  0  0  0  0  0  0  0  0
    5.5525   -9.5425    0.0000 C   0  0  0  0  0  0  0  0  0  0  0  0
    6.2670   -9.1300    0.0000 C   0  0  0  0  0  0  0  0  0  0  0  0
    6.2670   -8.3050    0.0000 C   0  0  0  0  0  0  0  0  0  0  0  0
    5.5525   -7.8925    0.0000 C   0  0  0  0  0  0  0  0  0  0  0  0
    6.9815   -9.5425    0.0000 C   0  0  0  0  0  0  0  0  0  0  0  0
    7.6959   -9.1300    0.0000 C   0  0  0  0  0  0  0  0  0  0  0  0
    7.6959   -8.3050    0.0000 C   0  0  0  0  0  0  0  0  0  0  0  0
    6.9815   -7.8925    0.0000 O   0  0  0  0  0  0  0  0  0  0  0  0
    8.4104   -9.5425    0.0000 C   0  0  0  0  0  0  0  0  0  0  0  0
    9.1249   -9.1300    0.0000 C   0  0  0  0  0  0  0  0  0  0  0  0
    9.1249   -8.3050    0.0000 C   0  0  0  0  0  0  0  0  0  0  0  0
    8.4104   -7.8925    0.0000 C   0  0  0  0  0  0  0  0  0  0  0  0
    4.1236   -7.8925    0.0000 O   0  0  0  0  0  0  0  0  0  0  0  0
    5.5525  -10.3675    0.0000 O   0  0  0  0  0  0  0  0  0  0  0  0
    6.9815  -10.3675    0.0000 O   0  0  0  0  0  0  0  0  0  0  0  0
    9.8394   -7.8925    0.0000 O   0  0  0  0  0  0  0  0  0  0  0  0
    8.4104   -7.0675    0.0000 C   0  0  0  0  0  0  0  0  0  0  0  0
    7.6959   -6.6550    0.0000 C   0  0  0  0  0  0  0  0  0  0  0  0
    7.6959   -5.8300    0.0000 C   0  0  0  0  0  0  0  0  0  0  0  0
    6.9815   -5.4175    0.0000 C   0  0  0  0  0  0  0  0  0  0  0  0
    8.4104   -5.4175    0.0000 C   0  0  0  0  0  0  0  0  0  0  0  0
    5.5525   -7.0675    0.0000 C   0  0  0  0  0  0  0  0  0  0  0  0
    4.8381   -6.6550    0.0000 C   0  0  0  0  0  0  0  0  0  0  0  0
    4.8381   -5.8300    0.0000 C   0  0  0  0  0  0  0  0  0  0  0  0
    4.1236   -5.4175    0.0000 C   0  0  0  0  0  0  0  0  0  0  0  0
    5.5525   -5.4175    0.0000 C   0  0  0  0  0  0  0  0  0  0  0  0
    8.9938   -7.3091    0.0000 O   0  0  0  0  0  0  0  0  0  0  0  0
    8.4031   -8.2421    0.0000 C   0  0  0  0  0  0  0  0  0  0  0  0
    8.8778   -8.5452    0.0000 C   0  0  0  0  0  0  0  0  0  0  0  0
    9.4057   -7.5356    0.0000 C   0  0  0  0  0  0  0  0  0  0  0  0
   10.2294   -7.4898    0.0000 C   0  0  0  0  0  0  0  0  0  0  0  0
    9.5886   -6.7311    0.0000 C   0  0  0  0  0  0  0  0  0  0  0  0
    9.1249   -5.8300    0.0000 O   0  0  0  0  0  0  0  0  0  0  0  0
    8.4104   -4.5925    0.0000 O   0  0  0  0  0  0  0  0  0  0  0  0
  1  2  2  0  0  0  0
  2  3  1  0  0  0  0
  3  4  2  0  0  0  0
  4  5  1  0  0  0  0
  5  6  2  0  0  0  0
  6  1  1  0  0  0  0
  4  7  1  0  0  0  0
  7  8  1  0  0  0  0
  8  9  1  0  0  0  0
  9 10  1  0  0  0  0
 10  5  1  0  0  0  0
  8 11  2  0  0  0  0
 11 12  1  0  0  0  0
 12 13  1  0  0  0  0
 13 14  1  0  0  0  0
 14  9  1  0  0  0  0
  1 15  1  0  0  0  0
  3 16  1  0  0  0  0
  7 17  2  0  0  0  0
 13 18  2  0  0  0  0
 14 19  1  0  0  0  0
 19 20  1  0  0  0  0
 20 21  2  0  0  0  0
 21 22  1  0  0  0  0
 21 23  1  0  0  0  0
  6 24  1  0  0  0  0
 24 25  1  0  0  0  0
 25 26  2  0  0  0  0
 26 27  1  0  0  0  0
 26 28  1  0  0  0  0
 14 29  1  0  0  0  0
  9 30  1  0  0  0  0
 30 31  1  0  0  0  0
 31 12  1  0  0  0  0
 29 32  1  0  0  0  0
 30 32  1  0  0  0  0
 32 33  1  0  0  0  0
 32 34  1  0  0  0  0
 23 35  1  0  0  0  0
 23 36  2  0  0  0  0
M  END
>  <cdx:fragmentId>
5

$$$$
