95476.cdx
  Mrv1902 05222410212D          

 45 49  0  0  0  0            999 V2000
    7.7393   -7.6175    0.0000 C   0  0  0  0  0  0  0  0  0  0  0  0
    7.7393   -8.4425    0.0000 C   0  0  0  0  0  0  0  0  0  0  0  0
    8.4538   -8.8550    0.0000 C   0  0  0  0  0  0  0  0  0  0  0  0
    9.1682   -8.4425    0.0000 C   0  0  0  0  0  0  0  0  0  0  0  0
    9.1682   -7.6175    0.0000 C   0  0  0  0  0  0  0  0  0  0  0  0
    8.4538   -7.2050    0.0000 C   0  0  0  0  0  0  0  0  0  0  0  0
    9.8827   -8.8550    0.0000 C   0  0  0  0  0  0  0  0  0  0  0  0
   10.5972   -8.4425    0.0000 C   0  0  0  0  0  0  0  0  0  0  0  0
   10.5972   -7.6175    0.0000 C   0  0  0  0  0  0  0  0  0  0  0  0
    9.8827   -7.2050    0.0000 O   0  0  0  0  0  0  0  0  0  0  0  0
   11.3117   -8.8550    0.0000 C   0  0  0  0  0  0  0  0  0  0  0  0
   12.0261   -8.4425    0.0000 C   0  0  0  0  0  0  0  0  0  0  0  0
   12.0261   -7.6175    0.0000 C   0  0  0  0  0  0  0  0  0  0  0  0
   11.3117   -7.2050    0.0000 C   0  0  0  0  0  0  0  0  0  0  0  0
    7.0248   -7.2050    0.0000 O   0  0  0  0  0  0  0  0  0  0  0  0
    8.4538   -9.6800    0.0000 O   0  0  0  0  0  0  0  0  0  0  0  0
    9.8827   -9.6800    0.0000 O   0  0  0  0  0  0  0  0  0  0  0  0
   12.7406   -7.2050    0.0000 O   0  0  0  0  0  0  0  0  0  0  0  0
   11.3117   -6.3800    0.0000 C   0  0  0  0  0  0  0  0  0  0  0  0
   10.5972   -5.9675    0.0000 C   0  0  0  0  0  0  0  0  0  0  0  0
   10.5972   -5.1425    0.0000 C   0  0  0  0  0  0  0  0  0  0  0  0
    9.8827   -4.7300    0.0000 C   0  0  0  0  0  0  0  0  0  0  0  0
   11.3117   -4.7300    0.0000 C   0  0  0  0  0  0  0  0  0  0  0  0
    8.4538   -6.3800    0.0000 C   0  0  0  0  0  0  0  0  0  0  0  0
    7.7393   -5.9675    0.0000 C   0  0  0  0  0  0  0  0  0  0  0  0
    7.7393   -5.1425    0.0000 C   0  0  0  0  0  0  0  0  0  0  0  0
    7.0248   -4.7300    0.0000 C   0  0  0  0  0  0  0  0  0  0  0  0
    8.4538   -4.7300    0.0000 C   0  0  0  0  0  0  0  0  0  0  0  0
   11.8950   -6.6216    0.0000 O   0  0  0  0  0  0  0  0  0  0  0  0
   11.3043   -7.5546    0.0000 C   0  0  0  0  0  0  0  0  0  0  0  0
   11.7791   -7.8577    0.0000 C   0  0  0  0  0  0  0  0  0  0  0  0
   12.3069   -6.8481    0.0000 C   0  0  0  0  0  0  0  0  0  0  0  0
   13.1306   -6.8023    0.0000 C   0  0  0  0  0  0  0  0  0  0  0  0
   12.4898   -6.0436    0.0000 C   0  0  0  0  0  0  0  0  0  0  0  0
    7.0248   -8.8550    0.0000 C   0  0  0  0  0  0  0  0  0  0  0  0
    6.3104   -8.4425    0.0000 C   0  0  0  0  0  0  0  0  0  0  0  0
    5.5959   -8.8550    0.0000 C   0  0  0  0  0  0  0  0  0  0  0  0
    4.8814   -8.4425    0.0000 C   0  0  0  0  0  0  0  0  0  0  0  0
    5.5959   -9.6800    0.0000 C   0  0  0  0  0  0  0  0  0  0  0  0
    4.1669   -8.8550    0.0000 C   0  0  0  0  0  0  0  0  0  0  0  0
    3.4525   -8.4425    0.0000 C   0  0  0  0  0  0  0  0  0  0  0  0
    2.7380   -8.8550    0.0000 C   0  0  0  0  0  0  0  0  0  0  0  0
    2.0235   -8.4425    0.0000 C   0  0  0  0  0  0  0  0  0  0  0  0
    2.7380   -9.6800    0.0000 C   0  0  0  0  0  0  0  0  0  0  0  0
    9.8827   -3.9050    0.0000 O   0  0  0  0  0  0  0  0  0  0  0  0
  1  2  2  0  0  0  0
  2  3  1  0  0  0  0
  3  4  2  0  0  0  0
  4  5  1  0  0  0  0
  5  6  2  0  0  0  0
  6  1  1  0  0  0  0
  4  7  1  0  0  0  0
  7  8  1  0  0  0  0
  8  9  1  0  0  0  0
  9 10  1  0  0  0  0
 10  5  1  0  0  0  0
  8 11  2  0  0  0  0
 11 12  1  0  0  0  0
 12 13  1  0  0  0  0
 13 14  1  0  0  0  0
 14  9  1  0  0  0  0
  1 15  1  0  0  0  0
  3 16  1  0  0  0  0
  7 17  2  0  0  0  0
 13 18  2  0  0  0  0
 14 19  1  0  0  0  0
 19 20  1  0  0  0  0
 20 21  2  0  0  0  0
 21 22  1  0  0  0  0
 21 23  1  0  0  0  0
  6 24  1  0  0  0  0
 24 25  1  0  0  0  0
 25 26  2  0  0  0  0
 26 27  1  0  0  0  0
 26 28  1  0  0  0  0
 14 29  1  0  0  0  0
  9 30  1  0  0  0  0
 30 31  1  0  0  0  0
 31 12  1  0  0  0  0
 29 32  1  0  0  0  0
 30 32  1  0  0  0  0
 32 33  1  0  0  0  0
 32 34  1  0  0  0  0
  2 35  1  0  0  0  0
 35 36  1  0  0  0  0
 36 37  2  0  0  0  0
 37 38  1  0  0  0  0
 37 39  1  0  0  0  0
 38 40  1  0  0  0  0
 40 41  1  0  0  0  0
 41 42  2  0  0  0  0
 42 43  1  0  0  0  0
 42 44  1  0  0  0  0
 22 45  1  0  0  0  0
M  END
>  <cdx:fragmentId>
5

$$$$
