95471.cdx
  Mrv1902 05222410222D          

 54 59  0  0  0  0            999 V2000
    8.5115  -11.7436    0.0000 O   0  0  0  0  0  0  0  0  0  0  0  0
    7.0826  -10.9186    0.0000 O   0  0  0  0  0  0  0  0  0  0  0  0
    7.0826   -9.2686    0.0000 O   0  0  0  0  0  0  0  0  0  0  0  0
   11.3694   -8.4436    0.0000 C   0  0  0  0  0  0  0  0  0  0  0  0
   12.0839   -8.0311    0.0000 C   0  0  0  0  0  0  0  0  0  0  0  0
   12.7983   -8.4436    0.0000 C   0  0  0  0  0  0  0  0  0  0  0  0
   12.7983   -9.2686    0.0000 C   0  0  0  0  0  0  0  0  0  0  0  0
   12.0839   -9.6811    0.0000 C   0  0  0  0  0  0  0  0  0  0  0  0
   11.3694   -9.2686    0.0000 C   0  0  0  0  0  0  0  0  0  0  0  0
    9.9404  -11.7436    0.0000 O   0  0  0  0  0  0  0  0  0  0  0  0
    9.9404   -9.2686    0.0000 O   0  0  0  0  0  0  0  0  0  0  0  0
    9.2260   -9.6811    0.0000 C   0  0  0  0  0  0  0  0  0  0  0  0
    8.5115   -9.2686    0.0000 C   0  0  0  0  0  0  0  0  0  0  0  0
    7.7970   -9.6811    0.0000 C   0  0  0  0  0  0  0  0  0  0  0  0
    7.7970  -10.5061    0.0000 C   0  0  0  0  0  0  0  0  0  0  0  0
    8.5115  -10.9186    0.0000 C   0  0  0  0  0  0  0  0  0  0  0  0
    9.2260  -10.5061    0.0000 C   0  0  0  0  0  0  0  0  0  0  0  0
    9.9404  -10.9186    0.0000 C   0  0  0  0  0  0  0  0  0  0  0  0
   10.6549  -10.5061    0.0000 C   0  0  0  0  0  0  0  0  0  0  0  0
   10.6549   -9.6811    0.0000 C   0  0  0  0  0  0  0  0  0  0  0  0
    5.6523   -7.6182    0.0000 C   0  0  2  0  0  0  0  0  0  0  0  0
    4.9394   -8.0335    0.0000 C   0  0  2  0  0  0  0  0  0  0  0  0
    4.9426   -8.8585    0.0000 C   0  0  1  0  0  0  0  0  0  0  0  0
    5.6587   -9.2682    0.0000 C   0  0  2  0  0  0  0  0  0  0  0  0
    6.3715   -8.8530    0.0000 C   0  0  1  0  0  0  0  0  0  0  0  0
    6.3684   -8.0280    0.0000 O   0  0  0  0  0  0  0  0  0  0  0  0
    5.6491   -6.7932    0.0000 C   0  0  0  0  0  0  0  0  0  0  0  0
    4.2297   -9.2737    0.0000 O   0  0  0  0  0  0  0  0  0  0  0  0
    5.6618  -10.0932    0.0000 O   0  0  0  0  0  0  0  0  0  0  0  0
    4.2234   -7.6237    0.0000 O   0  0  0  0  0  0  0  0  0  0  0  0
    4.9331   -6.3835    0.0000 O   0  0  0  0  0  0  0  0  0  0  0  0
    3.5198   -4.7211    0.0000 C   0  0  2  0  0  0  0  0  0  0  0  0
    2.7996   -5.1235    0.0000 C   0  0  2  0  0  0  0  0  0  0  0  0
    2.7880   -5.9484    0.0000 C   0  0  1  0  0  0  0  0  0  0  0  0
    3.4966   -6.3710    0.0000 C   0  0  2  0  0  0  0  0  0  0  0  0
    4.2168   -5.9685    0.0000 C   0  0  1  0  0  0  0  0  0  0  0  0
    4.2284   -5.1436    0.0000 O   0  0  0  0  0  0  0  0  0  0  0  0
    3.5314   -3.8962    0.0000 C   0  0  0  0  0  0  0  0  0  0  0  0
    2.0678   -6.3509    0.0000 O   0  0  0  0  0  0  0  0  0  0  0  0
    3.4850   -7.1959    0.0000 O   0  0  0  0  0  0  0  0  0  0  0  0
    2.0910   -4.7010    0.0000 O   0  0  0  0  0  0  0  0  0  0  0  0
    2.8228   -3.4737    0.0000 O   0  0  0  0  0  0  0  0  0  0  0  0
    2.5626  -10.6746    0.0000 C   0  0  2  0  0  0  0  0  0  0  0  0
    2.9633  -11.3957    0.0000 C   0  0  2  0  0  0  0  0  0  0  0  0
    3.7882  -11.4093    0.0000 C   0  0  1  0  0  0  0  0  0  0  0  0
    4.2124  -10.7016    0.0000 C   0  0  2  0  0  0  0  0  0  0  0  0
    3.8116   -9.9805    0.0000 C   0  0  1  0  0  0  0  0  0  0  0  0
    2.9867   -9.9670    0.0000 O   0  0  0  0  0  0  0  0  0  0  0  0
    1.7377  -10.6611    0.0000 C   0  0  0  0  0  0  0  0  0  0  0  0
    4.1889  -12.1304    0.0000 O   0  0  0  0  0  0  0  0  0  0  0  0
    5.0372  -10.7152    0.0000 O   0  0  0  0  0  0  0  0  0  0  0  0
    2.5392  -12.1033    0.0000 O   0  0  0  0  0  0  0  0  0  0  0  0
    1.3135  -11.3687    0.0000 O   0  0  0  0  0  0  0  0  0  0  0  0
    1.3370   -9.9399    0.0000 O   0  0  0  0  0  0  0  0  0  0  0  0
 16  1  1  0  0  0  0
 15  2  1  0  0  0  0
 14  3  1  0  0  0  0
 20  9  1  0  0  0  0
  9  4  2  0  0  0  0
  5  4  1  0  0  0  0
  6  5  2  0  0  0  0
  7  6  1  0  0  0  0
  8  7  2  0  0  0  0
  9  8  1  0  0  0  0
 18 10  2  0  0  0  0
 20 11  1  0  0  0  0
 12 11  1  0  0  0  0
 17 12  2  0  0  0  0
 13 12  1  0  0  0  0
 14 13  2  0  0  0  0
 15 14  1  0  0  0  0
 16 15  2  0  0  0  0
 17 16  1  0  0  0  0
 18 17  1  0  0  0  0
 19 18  1  0  0  0  0
 20 19  2  0  0  0  0
 21 22  1  0  0  0  0
 22 23  1  0  0  0  0
 23 24  1  0  0  0  0
 24 25  1  0  0  0  0
 25 26  1  0  0  0  0
 26 21  1  0  0  0  0
 21 27  1  1  0  0  0
 23 28  1  1  0  0  0
 24 29  1  6  0  0  0
 22 30  1  6  0  0  0
 27 31  1  0  0  0  0
 32 33  1  0  0  0  0
 33 34  1  0  0  0  0
 34 35  1  0  0  0  0
 35 36  1  0  0  0  0
 36 37  1  0  0  0  0
 37 32  1  0  0  0  0
 32 38  1  1  0  0  0
 34 39  1  1  0  0  0
 35 40  1  6  0  0  0
 33 41  1  6  0  0  0
 38 42  1  0  0  0  0
 43 44  1  0  0  0  0
 44 45  1  0  0  0  0
 45 46  1  0  0  0  0
 46 47  1  0  0  0  0
 47 48  1  0  0  0  0
 48 43  1  0  0  0  0
 43 49  1  1  0  0  0
 45 50  1  1  0  0  0
 46 51  1  6  0  0  0
 44 52  1  6  0  0  0
 49 53  1  0  0  0  0
 49 54  2  0  0  0  0
 36 31  1  1  0  0  0
 25  3  1  1  0  0  0
 47 28  1  1  0  0  0
M  END
>  <cdx:fragmentId>
69

$$$$
