95475.cdx
  Mrv1902 05222410212D          

 40 44  0  0  0  0            999 V2000
    6.0343   -7.9063    0.0000 C   0  0  0  0  0  0  0  0  0  0  0  0
    6.0343   -8.7313    0.0000 C   0  0  0  0  0  0  0  0  0  0  0  0
    6.7488   -9.1438    0.0000 C   0  0  0  0  0  0  0  0  0  0  0  0
    7.4632   -8.7313    0.0000 C   0  0  0  0  0  0  0  0  0  0  0  0
    7.4632   -7.9063    0.0000 C   0  0  0  0  0  0  0  0  0  0  0  0
    6.7488   -7.4937    0.0000 C   0  0  0  0  0  0  0  0  0  0  0  0
    8.1777   -9.1438    0.0000 C   0  0  0  0  0  0  0  0  0  0  0  0
    8.8922   -8.7313    0.0000 C   0  0  0  0  0  0  0  0  0  0  0  0
    8.8922   -7.9063    0.0000 C   0  0  0  0  0  0  0  0  0  0  0  0
    8.1777   -7.4937    0.0000 O   0  0  0  0  0  0  0  0  0  0  0  0
    9.6067   -9.1438    0.0000 C   0  0  0  0  0  0  0  0  0  0  0  0
   10.3211   -8.7313    0.0000 C   0  0  0  0  0  0  0  0  0  0  0  0
   10.3211   -7.9063    0.0000 C   0  0  0  0  0  0  0  0  0  0  0  0
    9.6067   -7.4937    0.0000 C   0  0  0  0  0  0  0  0  0  0  0  0
    5.3198   -7.4937    0.0000 O   0  0  0  0  0  0  0  0  0  0  0  0
    6.7488   -9.9688    0.0000 O   0  0  0  0  0  0  0  0  0  0  0  0
    8.1777   -9.9688    0.0000 O   0  0  0  0  0  0  0  0  0  0  0  0
   11.0356   -7.4937    0.0000 O   0  0  0  0  0  0  0  0  0  0  0  0
    9.6067   -6.6688    0.0000 C   0  0  0  0  0  0  0  0  0  0  0  0
    8.8922   -6.2563    0.0000 C   0  0  0  0  0  0  0  0  0  0  0  0
    8.8922   -5.4313    0.0000 C   0  0  0  0  0  0  0  0  0  0  0  0
    8.1777   -5.0187    0.0000 C   0  0  0  0  0  0  0  0  0  0  0  0
    9.6067   -5.0187    0.0000 C   0  0  0  0  0  0  0  0  0  0  0  0
    6.7488   -6.6688    0.0000 C   0  0  0  0  0  0  0  0  0  0  0  0
    6.0343   -6.2563    0.0000 C   0  0  0  0  0  0  0  0  0  0  0  0
    6.0343   -5.4313    0.0000 C   0  0  0  0  0  0  0  0  0  0  0  0
    5.3198   -5.0187    0.0000 C   0  0  0  0  0  0  0  0  0  0  0  0
    6.7488   -5.0187    0.0000 C   0  0  0  0  0  0  0  0  0  0  0  0
   10.1900   -6.9104    0.0000 O   0  0  0  0  0  0  0  0  0  0  0  0
    9.5993   -7.8434    0.0000 C   0  0  0  0  0  0  0  0  0  0  0  0
   10.0741   -8.1465    0.0000 C   0  0  0  0  0  0  0  0  0  0  0  0
   10.6019   -7.1369    0.0000 C   0  0  0  0  0  0  0  0  0  0  0  0
   11.4256   -7.0910    0.0000 C   0  0  0  0  0  0  0  0  0  0  0  0
   10.7848   -6.3324    0.0000 C   0  0  0  0  0  0  0  0  0  0  0  0
    5.3198   -9.1438    0.0000 C   0  0  0  0  0  0  0  0  0  0  0  0
    4.6054   -8.7313    0.0000 C   0  0  0  0  0  0  0  0  0  0  0  0
    3.8909   -9.1438    0.0000 C   0  0  0  0  0  0  0  0  0  0  0  0
    3.1764   -8.7313    0.0000 C   0  0  0  0  0  0  0  0  0  0  0  0
    3.8909   -9.9688    0.0000 C   0  0  0  0  0  0  0  0  0  0  0  0
   10.3211   -5.4313    0.0000 O   0  0  0  0  0  0  0  0  0  0  0  0
  1  2  2  0  0  0  0
  2  3  1  0  0  0  0
  3  4  2  0  0  0  0
  4  5  1  0  0  0  0
  5  6  2  0  0  0  0
  6  1  1  0  0  0  0
  4  7  1  0  0  0  0
  7  8  1  0  0  0  0
  8  9  1  0  0  0  0
  9 10  1  0  0  0  0
 10  5  1  0  0  0  0
  8 11  2  0  0  0  0
 11 12  1  0  0  0  0
 12 13  1  0  0  0  0
 13 14  1  0  0  0  0
 14  9  1  0  0  0  0
  1 15  1  0  0  0  0
  3 16  1  0  0  0  0
  7 17  2  0  0  0  0
 13 18  2  0  0  0  0
 14 19  1  0  0  0  0
 19 20  1  0  0  0  0
 20 21  2  0  0  0  0
 21 22  1  0  0  0  0
 21 23  1  0  0  0  0
  6 24  1  0  0  0  0
 24 25  1  0  0  0  0
 25 26  2  0  0  0  0
 26 27  1  0  0  0  0
 26 28  1  0  0  0  0
 14 29  1  0  0  0  0
  9 30  1  0  0  0  0
 30 31  1  0  0  0  0
 31 12  1  0  0  0  0
 29 32  1  0  0  0  0
 30 32  1  0  0  0  0
 32 33  1  0  0  0  0
 32 34  1  0  0  0  0
  2 35  1  0  0  0  0
 35 36  1  0  0  0  0
 36 37  2  0  0  0  0
 37 38  1  0  0  0  0
 37 39  1  0  0  0  0
 23 40  1  0  0  0  0
M  END
>  <cdx:fragmentId>
5

$$$$
