95478.cdx
  Mrv1902 05222410242D          

 41 45  0  0  0  0            999 V2000
    5.9793   -7.7825    0.0000 C   0  0  0  0  0  0  0  0  0  0  0  0
    5.9793   -8.6075    0.0000 C   0  0  0  0  0  0  0  0  0  0  0  0
    6.6938   -9.0200    0.0000 C   0  0  0  0  0  0  0  0  0  0  0  0
    7.4082   -8.6075    0.0000 C   0  0  0  0  0  0  0  0  0  0  0  0
    7.4082   -7.7825    0.0000 C   0  0  0  0  0  0  0  0  0  0  0  0
    6.6938   -7.3700    0.0000 C   0  0  0  0  0  0  0  0  0  0  0  0
    8.1227   -9.0200    0.0000 C   0  0  0  0  0  0  0  0  0  0  0  0
    8.8372   -8.6075    0.0000 C   0  0  0  0  0  0  0  0  0  0  0  0
    8.8372   -7.7825    0.0000 C   0  0  0  0  0  0  0  0  0  0  0  0
    8.1227   -7.3700    0.0000 O   0  0  0  0  0  0  0  0  0  0  0  0
    9.5517   -9.0200    0.0000 C   0  0  0  0  0  0  0  0  0  0  0  0
   10.2661   -8.6075    0.0000 C   0  0  0  0  0  0  0  0  0  0  0  0
   10.2661   -7.7825    0.0000 C   0  0  0  0  0  0  0  0  0  0  0  0
    9.5517   -7.3700    0.0000 C   0  0  0  0  0  0  0  0  0  0  0  0
    5.2648   -7.3700    0.0000 O   0  0  0  0  0  0  0  0  0  0  0  0
    6.6938   -9.8450    0.0000 O   0  0  0  0  0  0  0  0  0  0  0  0
    8.1227   -9.8450    0.0000 O   0  0  0  0  0  0  0  0  0  0  0  0
   10.9806   -7.3700    0.0000 O   0  0  0  0  0  0  0  0  0  0  0  0
    9.5517   -6.5450    0.0000 C   0  0  0  0  0  0  0  0  0  0  0  0
    8.8372   -6.1325    0.0000 C   0  0  0  0  0  0  0  0  0  0  0  0
    8.8372   -5.3075    0.0000 C   0  0  0  0  0  0  0  0  0  0  0  0
    8.1227   -4.8950    0.0000 C   0  0  0  0  0  0  0  0  0  0  0  0
    9.5517   -4.8950    0.0000 C   0  0  0  0  0  0  0  0  0  0  0  0
    6.6938   -6.5450    0.0000 C   0  0  0  0  0  0  0  0  0  0  0  0
    5.9793   -6.1325    0.0000 C   0  0  0  0  0  0  0  0  0  0  0  0
    5.9793   -5.3075    0.0000 C   0  0  0  0  0  0  0  0  0  0  0  0
    5.2648   -4.8950    0.0000 C   0  0  0  0  0  0  0  0  0  0  0  0
    6.6938   -4.8950    0.0000 C   0  0  0  0  0  0  0  0  0  0  0  0
   10.1350   -6.7866    0.0000 O   0  0  0  0  0  0  0  0  0  0  0  0
    9.5443   -7.7196    0.0000 C   0  0  0  0  0  0  0  0  0  0  0  0
   10.0191   -8.0227    0.0000 C   0  0  0  0  0  0  0  0  0  0  0  0
   10.5469   -7.0131    0.0000 C   0  0  0  0  0  0  0  0  0  0  0  0
   11.3706   -6.9673    0.0000 C   0  0  0  0  0  0  0  0  0  0  0  0
   10.7298   -6.2086    0.0000 C   0  0  0  0  0  0  0  0  0  0  0  0
    5.2648   -9.0200    0.0000 C   0  0  0  0  0  0  0  0  0  0  0  0
    4.5504   -8.6075    0.0000 C   0  0  0  0  0  0  0  0  0  0  0  0
    3.8359   -9.0200    0.0000 C   0  0  0  0  0  0  0  0  0  0  0  0
    3.1214   -8.6075    0.0000 C   0  0  0  0  0  0  0  0  0  0  0  0
    3.8359   -9.8450    0.0000 C   0  0  0  0  0  0  0  0  0  0  0  0
    8.1227   -4.0700    0.0000 O   0  0  0  0  0  0  0  0  0  0  0  0
    7.4082   -5.3075    0.0000 O   0  0  0  0  0  0  0  0  0  0  0  0
  1  2  2  0  0  0  0
  2  3  1  0  0  0  0
  3  4  2  0  0  0  0
  4  5  1  0  0  0  0
  5  6  2  0  0  0  0
  6  1  1  0  0  0  0
  4  7  1  0  0  0  0
  7  8  1  0  0  0  0
  8  9  1  0  0  0  0
  9 10  1  0  0  0  0
 10  5  1  0  0  0  0
  8 11  2  0  0  0  0
 11 12  1  0  0  0  0
 12 13  1  0  0  0  0
 13 14  1  0  0  0  0
 14  9  1  0  0  0  0
  1 15  1  0  0  0  0
  3 16  1  0  0  0  0
  7 17  2  0  0  0  0
 13 18  2  0  0  0  0
 14 19  1  0  0  0  0
 19 20  1  0  0  0  0
 20 21  2  0  0  0  0
 21 22  1  0  0  0  0
 21 23  1  0  0  0  0
  6 24  1  0  0  0  0
 24 25  1  0  0  0  0
 25 26  2  0  0  0  0
 26 27  1  0  0  0  0
 26 28  1  0  0  0  0
 14 29  1  0  0  0  0
  9 30  1  0  0  0  0
 30 31  1  0  0  0  0
 31 12  1  0  0  0  0
 29 32  1  0  0  0  0
 30 32  1  0  0  0  0
 32 33  1  0  0  0  0
 32 34  1  0  0  0  0
  2 35  1  0  0  0  0
 35 36  1  0  0  0  0
 36 37  2  0  0  0  0
 37 38  1  0  0  0  0
 37 39  1  0  0  0  0
 22 40  2  0  0  0  0
 22 41  1  0  0  0  0
M  END
>  <cdx:fragmentId>
5

$$$$
