95485.cdx
  Mrv1902 05222410262D          

 26 25  0  0  0  0            999 V2000
    6.2607   -9.2032    0.0000 C   0  0  0  0  0  0  0  0  0  0  0  0
    6.9745   -9.6169    0.0000 C   0  0  0  0  0  0  0  0  0  0  0  0
    7.6897   -9.2057    0.0000 C   0  0  0  0  0  0  0  0  0  0  0  0
    8.4034   -9.6194    0.0000 C   0  0  0  0  0  0  0  0  0  0  0  0
    9.1186   -9.2082    0.0000 C   0  0  0  0  0  0  0  0  0  0  0  0
    9.8324   -9.6219    0.0000 C   0  0  0  0  0  0  0  0  0  0  0  0
   10.5476   -9.2107    0.0000 C   0  0  0  0  0  0  0  0  0  0  0  0
   11.2613   -9.6244    0.0000 C   0  0  0  0  0  0  0  0  0  0  0  0
   11.9765   -9.2132    0.0000 C   0  0  0  0  0  0  0  0  0  0  0  0
   12.6903   -9.6269    0.0000 C   0  0  0  0  0  0  0  0  0  0  0  0
   13.4054   -9.2157    0.0000 C   0  0  0  0  0  0  0  0  0  0  0  0
   14.1192   -9.6294    0.0000 C   0  0  0  0  0  0  0  0  0  0  0  0
   14.8344   -9.2182    0.0000 C   0  0  0  0  0  0  0  0  0  0  0  0
   15.5481   -9.6319    0.0000 C   0  0  0  0  0  0  0  0  0  0  0  0
   16.2633   -9.2207    0.0000 C   0  0  0  0  0  0  0  0  0  0  0  0
    6.2622   -8.3782    0.0000 O   0  0  0  0  0  0  0  0  0  0  0  0
    5.5456   -9.6144    0.0000 N   0  0  0  0  0  0  0  0  0  0  0  0
    4.8318   -9.2007    0.0000 C   0  0  0  0  0  0  0  0  0  0  0  0
    4.1166   -9.6119    0.0000 C   0  0  0  0  0  0  0  0  0  0  0  0
    4.1152  -10.4369    0.0000 C   0  0  0  0  0  0  0  0  0  0  0  0
    3.4029   -9.1982    0.0000 C   0  0  0  0  0  0  0  0  0  0  0  0
   16.9771   -9.6344    0.0000 C   0  0  0  0  0  0  0  0  0  0  0  0
   16.9756  -10.4594    0.0000 C   0  0  0  0  0  0  0  0  0  0  0  0
   17.6894  -10.8732    0.0000 C   0  0  0  0  0  0  0  0  0  0  0  0
   17.6879  -11.6982    0.0000 C   0  0  0  0  0  0  0  0  0  0  0  0
   18.4017  -12.1119    0.0000 C   0  0  0  0  0  0  0  0  0  0  0  0
  1  2  1  0  0  0  0
  2  3  2  0  0  0  0
  3  4  1  0  0  0  0
  4  5  2  0  0  0  0
  5  6  1  0  0  0  0
  6  7  1  0  0  0  0
  7  8  1  0  0  0  0
  8  9  1  0  0  0  0
  9 10  1  0  0  0  0
 10 11  1  0  0  0  0
 11 12  1  0  0  0  0
 12 13  1  0  0  0  0
 13 14  1  0  0  0  0
 14 15  1  0  0  0  0
  1 16  2  0  0  0  0
  1 17  1  0  0  0  0
 18 19  1  0  0  0  0
 19 20  1  0  0  0  0
 21 19  1  0  0  0  0
 17 18  1  0  0  0  0
 15 22  2  0  0  0  0
 22 23  1  0  0  0  0
 23 24  1  0  0  0  0
 24 25  1  0  0  0  0
 25 26  1  0  0  0  0
M  END
>  <cdx:groupId>
100

>  <cdx:fragmentId>
101

$$$$
