95481.cdx
  Mrv1902 05222410232D          

 99109  0  0  0  0            999 V2000
   16.5171   -8.9185    0.0000 C   0  0  0  0  0  0  0  0  0  0  0  0
   10.8013  -10.5685    0.0000 C   0  0  1  0  0  0  0  0  0  0  0  0
   10.0869  -10.9810    0.0000 O   0  0  0  0  0  0  0  0  0  0  0  0
   10.8013   -9.7435    0.0000 C   0  0  0  0  0  0  0  0  0  0  0  0
   11.5158   -9.3310    0.0000 C   0  0  0  0  0  0  0  0  0  0  0  0
   11.5158  -10.9810    0.0000 C   0  0  0  0  0  0  0  0  0  0  0  0
   11.9283  -11.6955    0.0000 C   0  0  0  0  0  0  0  0  0  0  0  0
   11.1033  -11.6955    0.0000 C   0  0  0  0  0  0  0  0  0  0  0  0
   12.2303  -10.5685    0.0000 C   0  0  2  0  0  0  0  0  0  0  0  0
   12.2303  -11.3935    0.0000 H   0  0  0  0  0  0  0  0  0  0  0  0
   12.9447  -10.9810    0.0000 C   0  0  0  0  0  0  0  0  0  0  0  0
   13.6592  -10.5685    0.0000 C   0  0  0  0  0  0  0  0  0  0  0  0
   13.6592   -9.7435    0.0000 C   0  0  1  0  0  0  0  0  0  0  0  0
   13.6592   -8.9185    0.0000 C   0  0  0  0  0  0  0  0  0  0  0  0
   14.3737   -9.3310    0.0000 C   0  0  2  0  0  0  0  0  0  0  0  0
   14.3737  -10.1560    0.0000 C   0  0  0  0  0  0  0  0  0  0  0  0
   15.0881   -9.7435    0.0000 C   0  0  0  0  0  0  0  0  0  0  0  0
   15.8026   -9.3310    0.0000 C   0  0  0  0  0  0  0  0  0  0  0  0
   15.8026   -8.5060    0.0000 C   0  0  2  0  0  0  0  0  0  0  0  0
   16.5171   -8.0935    0.0000 C   0  0  0  0  0  0  0  0  0  0  0  0
   16.5171   -7.2685    0.0000 C   0  0  0  0  0  0  0  0  0  0  0  0
   15.8026   -6.8560    0.0000 C   0  0  0  0  0  0  0  0  0  0  0  0
   15.3901   -6.1415    0.0000 C   0  0  0  0  0  0  0  0  0  0  0  0
   16.2151   -6.1415    0.0000 C   0  0  0  0  0  0  0  0  0  0  0  0
   15.0881   -7.2685    0.0000 C   0  0  0  0  0  0  0  0  0  0  0  0
   15.0881   -8.0935    0.0000 C   0  0  1  0  0  0  0  0  0  0  0  0
   15.0881   -8.9185    0.0000 H   0  0  0  0  0  0  0  0  0  0  0  0
   14.3737   -8.5060    0.0000 C   0  0  0  0  0  0  0  0  0  0  0  0
   13.6592   -8.0935    0.0000 C   0  0  0  0  0  0  0  0  0  0  0  0
   12.9447   -8.5060    0.0000 C   0  0  0  0  0  0  0  0  0  0  0  0
   12.9447   -9.3310    0.0000 C   0  0  2  0  0  0  0  0  0  0  0  0
   12.2303   -9.7435    0.0000 C   0  0  1  0  0  0  0  0  0  0  0  0
   12.2303   -8.9185    0.0000 C   0  0  0  0  0  0  0  0  0  0  0  0
   16.5171   -9.7435    0.0000 O   0  0  0  0  0  0  0  0  0  0  0  0
   15.0881  -10.5685    0.0000 O   0  0  0  0  0  0  0  0  0  0  0  0
    9.3724  -10.5685    0.0000 C   0  0  1  0  0  0  0  0  0  0  0  0
    8.6579  -10.9810    0.0000 C   0  0  2  0  0  0  0  0  0  0  0  0
    8.6579  -11.8060    0.0000 O   0  0  0  0  0  0  0  0  0  0  0  0
    7.9434  -10.5685    0.0000 C   0  0  1  0  0  0  0  0  0  0  0  0
    7.2290  -10.9810    0.0000 O   0  0  0  0  0  0  0  0  0  0  0  0
    7.9434   -9.7435    0.0000 C   0  0  1  0  0  0  0  0  0  0  0  0
    7.2290   -9.3310    0.0000 O   0  0  0  0  0  0  0  0  0  0  0  0
    8.6579   -9.3310    0.0000 C   0  0  0  0  0  0  0  0  0  0  0  0
    9.3724   -9.7435    0.0000 O   0  0  0  0  0  0  0  0  0  0  0  0
    6.5145   -9.7435    0.0000 C   0  0  1  0  0  0  0  0  0  0  0  0
    5.8000   -9.3310    0.0000 C   0  0  2  0  0  0  0  0  0  0  0  0
    5.8000   -8.5060    0.0000 O   0  0  0  0  0  0  0  0  0  0  0  0
    5.0856   -9.7435    0.0000 C   0  0  1  0  0  0  0  0  0  0  0  0
    4.3711   -9.3310    0.0000 O   0  0  0  0  0  0  0  0  0  0  0  0
    5.0856  -10.5685    0.0000 C   0  0  2  0  0  0  0  0  0  0  0  0
    4.3711  -10.9810    0.0000 O   0  0  0  0  0  0  0  0  0  0  0  0
    5.8000  -10.9810    0.0000 C   0  0  2  0  0  0  0  0  0  0  0  0
    6.5145  -10.5685    0.0000 O   0  0  0  0  0  0  0  0  0  0  0  0
    5.8000  -11.8060    0.0000 C   0  0  0  0  0  0  0  0  0  0  0  0
    5.0856  -12.2185    0.0000 O   0  0  0  0  0  0  0  0  0  0  0  0
   17.9611   -8.9049    0.0000 C   0  0  1  0  0  0  0  0  0  0  0  0
   18.6720   -8.4863    0.0000 C   0  0  2  0  0  0  0  0  0  0  0  0
   18.6649   -7.6613    0.0000 O   0  0  0  0  0  0  0  0  0  0  0  0
   19.3900   -8.8926    0.0000 C   0  0  1  0  0  0  0  0  0  0  0  0
   20.1009   -8.4740    0.0000 O   0  0  0  0  0  0  0  0  0  0  0  0
   19.3971   -9.7176    0.0000 C   0  0  2  0  0  0  0  0  0  0  0  0
   20.1151  -10.1239    0.0000 O   0  0  0  0  0  0  0  0  0  0  0  0
   18.6862  -10.1362    0.0000 C   0  0  2  0  0  0  0  0  0  0  0  0
   17.9682   -9.7299    0.0000 O   0  0  0  0  0  0  0  0  0  0  0  0
   18.0108  -14.6797    0.0000 O   0  0  0  0  0  0  0  0  0  0  0  0
   17.6169  -15.4046    0.0000 C   0  0  1  0  0  0  0  0  0  0  0  0
   18.0477  -16.1081    0.0000 C   0  0  2  0  0  0  0  0  0  0  0  0
   18.8724  -16.0868    0.0000 O   0  0  0  0  0  0  0  0  0  0  0  0
   17.6538  -16.8330    0.0000 C   0  0  2  0  0  0  0  0  0  0  0  0
   18.0846  -17.5366    0.0000 O   0  0  0  0  0  0  0  0  0  0  0  0
   16.8290  -16.8543    0.0000 C   0  0  1  0  0  0  0  0  0  0  0  0
   16.4351  -17.5792    0.0000 O   0  0  0  0  0  0  0  0  0  0  0  0
   16.3982  -16.1508    0.0000 C   0  0  1  0  0  0  0  0  0  0  0  0
   16.7921  -15.4259    0.0000 O   0  0  0  0  0  0  0  0  0  0  0  0
   15.5735  -16.1721    0.0000 C   0  0  0  0  0  0  0  0  0  0  0  0
   12.9447  -10.1560    0.0000 H   0  0  0  0  0  0  0  0  0  0  0  0
   16.5819  -14.6920    0.0000 O   0  0  0  0  0  0  0  0  0  0  0  0
   16.5748  -13.8670    0.0000 C   0  0  0  0  0  0  0  0  0  0  0  0
   17.2786  -12.6234    0.0000 O   0  0  0  0  0  0  0  0  0  0  0  0
   17.2857  -13.4484    0.0000 C   0  0  1  0  0  0  0  0  0  0  0  0
   18.0037  -13.8547    0.0000 C   0  0  2  0  0  0  0  0  0  0  0  0
   19.4326  -13.8424    0.0000 O   0  0  0  0  0  0  0  0  0  0  0  0
   18.7146  -13.4361    0.0000 C   0  0  2  0  0  0  0  0  0  0  0  0
   19.4184  -12.1925    0.0000 O   0  0  0  0  0  0  0  0  0  0  0  0
   18.7075  -12.6111    0.0000 C   0  0  1  0  0  0  0  0  0  0  0  0
   17.9895  -12.2048    0.0000 C   0  0  2  0  0  0  0  0  0  0  0  0
   17.9824  -11.3798    0.0000 O   0  0  0  0  0  0  0  0  0  0  0  0
   18.6933  -10.9612    0.0000 C   0  0  0  0  0  0  0  0  0  0  0  0
    8.2460  -12.5255    0.0000 C   0  0  1  0  0  0  0  0  0  0  0  0
    8.6583  -13.2401    0.0000 C   0  0  2  0  0  0  0  0  0  0  0  0
    9.4833  -13.2403    0.0000 O   0  0  0  0  0  0  0  0  0  0  0  0
    8.2457  -13.9545    0.0000 C   0  0  2  0  0  0  0  0  0  0  0  0
    8.6580  -14.6690    0.0000 O   0  0  0  0  0  0  0  0  0  0  0  0
    7.4207  -13.9543    0.0000 C   0  0  1  0  0  0  0  0  0  0  0  0
    7.0080  -14.6686    0.0000 O   0  0  0  0  0  0  0  0  0  0  0  0
    7.0083  -13.2397    0.0000 C   0  0  1  0  0  0  0  0  0  0  0  0
    7.4210  -12.5253    0.0000 O   0  0  0  0  0  0  0  0  0  0  0  0
    6.1833  -13.2395    0.0000 C   0  0  0  0  0  0  0  0  0  0  0  0
   17.2316   -8.5060    0.0000 O   0  0  0  0  0  0  0  0  0  0  0  0
 56 99  1  1  0  0  0
 86 87  1  1  0  0  0
 86 79  1  0  0  0  0
 78 77  1  0  0  0  0
 80 78  1  1  0  0  0
 80 79  1  0  0  0  0
 81 80  1  0  0  0  0
 81 65  1  6  0  0  0
 83 81  1  0  0  0  0
 83 82  1  1  0  0  0
 85 83  1  0  0  0  0
 85 84  1  6  0  0  0
 86 85  1  0  0  0  0
  2  3  1  1  0  0  0
  2  4  1  0  0  0  0
  4  5  1  0  0  0  0
  2  6  1  0  0  0  0
  6  7  1  0  0  0  0
  6  8  1  0  0  0  0
  6  9  1  0  0  0  0
  9 10  1  6  0  0  0
  9 11  1  0  0  0  0
 11 12  1  0  0  0  0
 12 13  1  0  0  0  0
 13 14  1  1  0  0  0
 13 15  1  0  0  0  0
 15 16  1  6  0  0  0
 15 17  1  0  0  0  0
 17 18  1  0  0  0  0
 18 19  1  0  0  0  0
 19  1  1  1  0  0  0
 19 20  1  0  0  0  0
 20 21  1  0  0  0  0
 21 22  1  0  0  0  0
 22 23  1  0  0  0  0
 22 24  1  0  0  0  0
 22 25  1  0  0  0  0
 25 26  1  0  0  0  0
 26 27  1  1  0  0  0
 19 26  1  0  0  0  0
 26 28  1  0  0  0  0
 15 28  1  0  0  0  0
 28 29  2  0  0  0  0
 29 30  1  0  0  0  0
 30 31  1  0  0  0  0
 13 31  1  0  0  0  0
 31 32  1  0  0  0  0
  5 32  1  0  0  0  0
  9 32  1  0  0  0  0
 32 33  1  1  0  0  0
  1 34  2  0  0  0  0
  1 99  1  0  0  0  0
 16 35  1  0  0  0  0
 36 37  1  0  0  0  0
 37 38  1  6  0  0  0
 37 39  1  0  0  0  0
 39 40  1  1  0  0  0
 39 41  1  0  0  0  0
 41 42  1  1  0  0  0
 41 43  1  0  0  0  0
 43 44  1  0  0  0  0
 36 44  1  0  0  0  0
 45 46  1  0  0  0  0
 46 47  1  1  0  0  0
 46 48  1  0  0  0  0
 48 49  1  6  0  0  0
 48 50  1  0  0  0  0
 50 51  1  1  0  0  0
 50 52  1  0  0  0  0
 52 53  1  0  0  0  0
 52 54  1  6  0  0  0
 54 55  1  0  0  0  0
 45 53  1  0  0  0  0
 45 42  1  6  0  0  0
 36  3  1  1  0  0  0
 56 57  1  0  0  0  0
 57 58  1  6  0  0  0
 57 59  1  0  0  0  0
 59 60  1  1  0  0  0
 59 61  1  0  0  0  0
 61 62  1  6  0  0  0
 61 63  1  0  0  0  0
 63 64  1  0  0  0  0
 63 88  1  1  0  0  0
 88 87  1  0  0  0  0
 56 64  1  0  0  0  0
 66 67  1  0  0  0  0
 67 68  1  6  0  0  0
 67 69  1  0  0  0  0
 69 70  1  6  0  0  0
 69 71  1  0  0  0  0
 71 72  1  1  0  0  0
 71 73  1  0  0  0  0
 73 74  1  0  0  0  0
 73 75  1  6  0  0  0
 66 74  1  0  0  0  0
 66 65  1  1  0  0  0
 31 76  1  6  0  0  0
 89 90  1  0  0  0  0
 90 91  1  6  0  0  0
 90 92  1  0  0  0  0
 92 93  1  6  0  0  0
 92 94  1  0  0  0  0
 94 95  1  1  0  0  0
 94 96  1  0  0  0  0
 96 97  1  0  0  0  0
 96 98  1  6  0  0  0
 89 97  1  0  0  0  0
 89 38  1  1  0  0  0
M  END
>  <cdx:fragmentId>
7

$$$$
