95484.cdx
  Mrv1902 05222410252D          

 24 23  0  0  0  0            999 V2000
    3.4647   -9.5535    0.0000 O   0  0  0  0  0  0  0  0  0  0  0  0
    1.3220  -11.6154    0.0000 C   0  0  0  0  0  0  0  0  0  0  0  0
    0.6077  -10.3782    0.0000 C   0  0  0  0  0  0  0  0  0  0  0  0
    1.3220  -10.7906    0.0000 C   0  0  0  0  0  0  0  0  0  0  0  0
    2.0362  -10.3782    0.0000 C   0  0  0  0  0  0  0  0  0  0  0  0
    2.7505  -10.7906    0.0000 N   0  0  0  0  0  0  0  0  0  0  0  0
    3.4647  -10.3782    0.0000 C   0  0  0  0  0  0  0  0  0  0  0  0
    4.1790  -10.7906    0.0000 C   0  0  0  0  0  0  0  0  0  0  0  0
    4.8932  -10.3782    0.0000 C   0  0  0  0  0  0  0  0  0  0  0  0
    5.6075  -10.7906    0.0000 C   0  0  0  0  0  0  0  0  0  0  0  0
    6.3217  -10.3782    0.0000 C   0  0  0  0  0  0  0  0  0  0  0  0
    7.0360  -10.7906    0.0000 C   0  0  0  0  0  0  0  0  0  0  0  0
    7.7502  -10.3782    0.0000 C   0  0  0  0  0  0  0  0  0  0  0  0
    8.4645  -10.7906    0.0000 C   0  0  0  0  0  0  0  0  0  0  0  0
    9.1787  -10.3782    0.0000 C   0  0  0  0  0  0  0  0  0  0  0  0
    9.8929  -10.7906    0.0000 C   0  0  0  0  0  0  0  0  0  0  0  0
   10.6072  -10.3782    0.0000 C   0  0  0  0  0  0  0  0  0  0  0  0
   11.3327  -10.8112    0.0000 C   0  0  0  0  0  0  0  0  0  0  0  0
   12.0530  -10.4091    0.0000 C   0  0  0  0  0  0  0  0  0  0  0  0
   12.7615  -10.8319    0.0000 C   0  0  0  0  0  0  0  0  0  0  0  0
   12.7495  -11.6568    0.0000 C   0  0  0  0  0  0  0  0  0  0  0  0
   13.4579  -12.0796    0.0000 C   0  0  0  0  0  0  0  0  0  0  0  0
   13.4460  -12.9046    0.0000 C   0  0  0  0  0  0  0  0  0  0  0  0
   14.1544  -13.3274    0.0000 C   0  0  0  0  0  0  0  0  0  0  0  0
 17 18  1  0  0  0  0
  7  1  2  0  0  0  0
  4  2  1  0  0  0  0
  4  3  1  0  0  0  0
  5  4  1  0  0  0  0
  6  5  1  0  0  0  0
  7  6  1  0  0  0  0
  8  7  1  0  0  0  0
  9  8  2  0  0  0  0
 10  9  1  0  0  0  0
 11 10  2  0  0  0  0
 12 11  1  0  0  0  0
 13 12  1  0  0  0  0
 14 13  1  0  0  0  0
 15 14  1  0  0  0  0
 16 15  1  0  0  0  0
 17 16  1  0  0  0  0
 18 19  1  0  0  0  0
 19 20  2  0  0  0  0
 20 21  1  0  0  0  0
 21 22  1  0  0  0  0
 22 23  1  0  0  0  0
 23 24  1  0  0  0  0
M  END
>  <cdx:fragmentId>
21

$$$$
