95489+.cdx
  Mrv1902 05222410212D          

 26 26  0  0  0  0            999 V2000
    4.5062   -9.7183    0.0000 N   0  0  0  0  0  0  0  0  0  0  0  0
    4.4218  -10.5390    0.0000 C   0  0  0  0  0  0  0  0  0  0  0  0
    3.6152  -10.7122    0.0000 C   0  0  0  0  0  0  0  0  0  0  0  0
    3.2011   -9.9987    0.0000 C   0  0  0  0  0  0  0  0  0  0  0  0
    3.7518   -9.3844    0.0000 C   0  0  0  0  0  0  0  0  0  0  0  0
    5.2198   -9.3042    0.0000 C   0  0  0  0  0  0  0  0  0  0  0  0
    5.9352   -9.7152    0.0000 C   0  0  0  0  0  0  0  0  0  0  0  0
    6.6487   -9.3011    0.0000 C   0  0  0  0  0  0  0  0  0  0  0  0
    7.3641   -9.7121    0.0000 C   0  0  0  0  0  0  0  0  0  0  0  0
    8.0777   -9.2980    0.0000 C   0  0  0  0  0  0  0  0  0  0  0  0
    8.7930   -9.7090    0.0000 C   0  0  0  0  0  0  0  0  0  0  0  0
    9.5066   -9.2949    0.0000 C   0  0  0  0  0  0  0  0  0  0  0  0
   10.2220   -9.7059    0.0000 C   0  0  0  0  0  0  0  0  0  0  0  0
   10.9356   -9.2918    0.0000 C   0  0  0  0  0  0  0  0  0  0  0  0
   11.6509   -9.7027    0.0000 C   0  0  0  0  0  0  0  0  0  0  0  0
   12.3645   -9.2887    0.0000 C   0  0  0  0  0  0  0  0  0  0  0  0
   13.0799   -9.6996    0.0000 C   0  0  0  0  0  0  0  0  0  0  0  0
   13.7934   -9.2856    0.0000 C   0  0  0  0  0  0  0  0  0  0  0  0
   14.5088   -9.6965    0.0000 C   0  0  0  0  0  0  0  0  0  0  0  0
   15.2224   -9.2825    0.0000 C   0  0  0  0  0  0  0  0  0  0  0  0
    5.2180   -8.4792    0.0000 O   0  0  0  0  0  0  0  0  0  0  0  0
   15.9377   -9.6934    0.0000 C   0  0  0  0  0  0  0  0  0  0  0  0
   15.9395  -10.5184    0.0000 C   0  0  0  0  0  0  0  0  0  0  0  0
   16.6549  -10.9294    0.0000 C   0  0  0  0  0  0  0  0  0  0  0  0
   16.6567  -11.7544    0.0000 C   0  0  0  0  0  0  0  0  0  0  0  0
   17.3721  -12.1653    0.0000 C   0  0  0  0  0  0  0  0  0  0  0  0
  1  2  1  0  0  0  0
  2  3  1  0  0  0  0
  3  4  1  0  0  0  0
  4  5  1  0  0  0  0
  1  5  1  0  0  0  0
  6  7  1  0  0  0  0
  7  8  2  0  0  0  0
  8  9  1  0  0  0  0
  9 10  2  0  0  0  0
 10 11  1  0  0  0  0
 11 12  1  0  0  0  0
 12 13  1  0  0  0  0
 13 14  1  0  0  0  0
 14 15  1  0  0  0  0
 15 16  1  0  0  0  0
 16 17  1  0  0  0  0
 17 18  1  0  0  0  0
 18 19  1  0  0  0  0
  1  6  1  0  0  0  0
 19 20  1  0  0  0  0
  6 21  2  0  0  0  0
 20 22  2  0  0  0  0
 22 23  1  0  0  0  0
 23 24  1  0  0  0  0
 24 25  1  0  0  0  0
 25 26  1  0  0  0  0
M  END
>  <cdx:groupId>
77

>  <cdx:fragmentId>
15

$$$$
