95490.cdx
  Mrv1902 05222410252D          

 25 25  0  0  0  0            999 V2000
    2.6569  -10.9523    0.0000 N   0  0  0  0  0  0  0  0  0  0  0  0
    2.6528  -11.7773    0.0000 C   0  0  0  0  0  0  0  0  0  0  0  0
    1.9363  -12.1863    0.0000 C   0  0  0  0  0  0  0  0  0  0  0  0
    1.2239  -11.7702    0.0000 C   0  0  0  0  0  0  0  0  0  0  0  0
    1.2280  -10.9452    0.0000 C   0  0  0  0  0  0  0  0  0  0  0  0
    1.9445  -10.5363    0.0000 C   0  0  0  0  0  0  0  0  0  0  0  0
    3.3734  -10.5433    0.0000 C   0  0  0  0  0  0  0  0  0  0  0  0
    4.0858  -10.9594    0.0000 C   0  0  0  0  0  0  0  0  0  0  0  0
    4.8023  -10.5504    0.0000 C   0  0  0  0  0  0  0  0  0  0  0  0
    5.5148  -10.9664    0.0000 C   0  0  0  0  0  0  0  0  0  0  0  0
    6.2313  -10.5575    0.0000 C   0  0  0  0  0  0  0  0  0  0  0  0
    6.9437  -10.9735    0.0000 C   0  0  0  0  0  0  0  0  0  0  0  0
    7.6602  -10.5645    0.0000 C   0  0  0  0  0  0  0  0  0  0  0  0
    8.3726  -10.9806    0.0000 C   0  0  0  0  0  0  0  0  0  0  0  0
    9.0891  -10.5716    0.0000 C   0  0  0  0  0  0  0  0  0  0  0  0
    9.8015  -10.9876    0.0000 C   0  0  0  0  0  0  0  0  0  0  0  0
   10.5180  -10.5787    0.0000 C   0  0  0  0  0  0  0  0  0  0  0  0
   11.2305  -10.9947    0.0000 C   0  0  0  0  0  0  0  0  0  0  0  0
   11.9470  -10.5857    0.0000 C   0  0  0  0  0  0  0  0  0  0  0  0
    3.3775   -9.7183    0.0000 O   0  0  0  0  0  0  0  0  0  0  0  0
   11.9510   -9.7607    0.0000 C   0  0  0  0  0  0  0  0  0  0  0  0
   12.6675   -9.3518    0.0000 C   0  0  0  0  0  0  0  0  0  0  0  0
   12.6716   -8.5268    0.0000 C   0  0  0  0  0  0  0  0  0  0  0  0
   13.3881   -8.1178    0.0000 C   0  0  0  0  0  0  0  0  0  0  0  0
   13.3922   -7.2928    0.0000 C   0  0  0  0  0  0  0  0  0  0  0  0
  1  2  1  0  0  0  0
  2  3  1  0  0  0  0
  3  4  1  0  0  0  0
  4  5  1  0  0  0  0
  5  6  1  0  0  0  0
  1  6  1  0  0  0  0
  7  8  1  0  0  0  0
  8  9  2  0  0  0  0
  9 10  1  0  0  0  0
 10 11  2  0  0  0  0
 11 12  1  0  0  0  0
 12 13  1  0  0  0  0
 13 14  1  0  0  0  0
 14 15  1  0  0  0  0
 15 16  1  0  0  0  0
 16 17  1  0  0  0  0
 17 18  1  0  0  0  0
 18 19  2  0  0  0  0
  1  7  1  0  0  0  0
  7 20  2  0  0  0  0
 19 21  1  0  0  0  0
 21 22  1  0  0  0  0
 22 23  1  0  0  0  0
 23 24  1  0  0  0  0
 24 25  1  0  0  0  0
M  END
>  <cdx:fragmentId>
17

$$$$
