95495.cdx
  Mrv1902 05222410232D          

 14 13  0  0  0  0            999 V2000
    3.6595   -3.2390    0.0000 C   0  0  0  0  0  0  0  0  0  0  0  0
    4.3806   -3.6399    0.0000 C   0  0  0  0  0  0  0  0  0  0  0  0
    5.0883   -3.2159    0.0000 C   0  0  0  0  0  0  0  0  0  0  0  0
    5.8093   -3.6167    0.0000 C   0  0  0  0  0  0  0  0  0  0  0  0
    6.5170   -3.1927    0.0000 C   0  0  0  0  0  0  0  0  0  0  0  0
    7.2381   -3.5936    0.0000 C   0  0  0  0  0  0  0  0  0  0  0  0
    7.9458   -3.1696    0.0000 C   0  0  0  0  0  0  0  0  0  0  0  0
    8.6669   -3.5705    0.0000 C   0  0  0  0  0  0  0  0  0  0  0  0
    9.3746   -3.1464    0.0000 C   0  0  0  0  0  0  0  0  0  0  0  0
   10.0956   -3.5473    0.0000 C   0  0  0  0  0  0  0  0  0  0  0  0
   10.1090   -4.3722    0.0000 C   0  0  0  0  0  0  0  0  0  0  0  0
    4.3940   -4.4648    0.0000 O   0  0  0  0  0  0  0  0  0  0  0  0
   10.8033   -3.1233    0.0000 C   0  0  0  0  0  0  0  0  0  0  0  0
    7.2515   -4.4185    0.0000 C   0  0  0  0  0  0  0  0  0  0  0  0
  1  2  1  0  0  0  0
  2  3  1  0  0  0  0
  3  4  1  0  0  0  0
  4  5  1  0  0  0  0
  5  6  1  0  0  0  0
  6  7  1  0  0  0  0
  7  8  1  0  0  0  0
  8  9  1  0  0  0  0
  9 10  1  0  0  0  0
 10 11  1  0  0  0  0
  2 12  2  0  0  0  0
 10 13  1  0  0  0  0
  6 14  1  0  0  0  0
M  END
>  <cdx:fragmentId>
5

$$$$
