95498.cdx
  Mrv1902 05222410232D          

 52 58  0  0  0  0            999 V2000
    3.2007   -6.3388    0.0000 O   0  0  0  0  0  0  0  0  0  0  0  0
    3.9152   -6.7512    0.0000 C   0  0  0  0  0  0  0  0  0  0  0  0
    3.9152   -7.5762    0.0000 C   0  0  0  0  0  0  0  0  0  0  0  0
    4.6297   -7.9888    0.0000 C   0  0  0  0  0  0  0  0  0  0  0  0
    5.3442   -7.5762    0.0000 C   0  0  0  0  0  0  0  0  0  0  0  0
    5.3442   -6.7512    0.0000 C   0  0  0  0  0  0  0  0  0  0  0  0
    4.6297   -6.3388    0.0000 C   0  0  0  0  0  0  0  0  0  0  0  0
    6.0586   -7.9888    0.0000 C   0  0  1  0  0  0  0  0  0  0  0  0
    6.7731   -7.5762    0.0000 C   0  0  2  0  0  0  0  0  0  0  0  0
    6.7731   -6.7512    0.0000 C   0  0  2  0  0  0  0  0  0  0  0  0
    6.0586   -6.3388    0.0000 O   0  0  0  0  0  0  0  0  0  0  0  0
    7.4876   -7.9888    0.0000 O   0  0  0  0  0  0  0  0  0  0  0  0
    8.2020   -6.7512    0.0000 C   0  0  0  0  0  0  0  0  0  0  0  0
    7.4876   -6.3388    0.0000 C   0  0  0  0  0  0  0  0  0  0  0  0
    8.9165   -6.3388    0.0000 C   0  0  0  0  0  0  0  0  0  0  0  0
    8.9165   -5.5137    0.0000 C   0  0  0  0  0  0  0  0  0  0  0  0
    8.2020   -5.1013    0.0000 C   0  0  0  0  0  0  0  0  0  0  0  0
    7.4876   -5.5137    0.0000 C   0  0  0  0  0  0  0  0  0  0  0  0
    6.0586   -9.0613    0.0000 C   0  0  0  0  0  0  0  0  0  0  0  0
    6.7731   -9.4738    0.0000 C   0  0  0  0  0  0  0  0  0  0  0  0
    5.3442   -9.4738    0.0000 C   0  0  0  0  0  0  0  0  0  0  0  0
    5.3442  -10.2988    0.0000 C   0  0  0  0  0  0  0  0  0  0  0  0
    6.0586  -10.7112    0.0000 C   0  0  0  0  0  0  0  0  0  0  0  0
    6.7731  -10.2988    0.0000 C   0  0  0  0  0  0  0  0  0  0  0  0
    8.2020   -4.2763    0.0000 O   0  0  0  0  0  0  0  0  0  0  0  0
    9.6310   -5.1013    0.0000 O   0  0  0  0  0  0  0  0  0  0  0  0
    4.6297   -8.8138    0.0000 O   0  0  0  0  0  0  0  0  0  0  0  0
    4.6297   -9.0613    0.0000 O   0  0  0  0  0  0  0  0  0  0  0  0
    6.0586  -11.5362    0.0000 O   0  0  0  0  0  0  0  0  0  0  0  0
    7.5577  -10.5537    0.0000 C   0  0  0  0  0  0  0  0  0  0  0  0
    8.0426   -9.8863    0.0000 C   0  0  1  0  0  0  0  0  0  0  0  0
    7.5577   -9.2188    0.0000 O   0  0  0  0  0  0  0  0  0  0  0  0
    8.7571  -10.2988    0.0000 C   0  0  2  0  0  0  0  0  0  0  0  0
    8.7548  -11.1167    0.0000 C   0  0  0  0  0  0  0  0  0  0  0  0
    8.0487  -11.5434    0.0000 C   0  0  0  0  0  0  0  0  0  0  0  0
    8.0652  -12.3682    0.0000 C   0  0  0  0  0  0  0  0  0  0  0  0
    8.7877  -12.7664    0.0000 C   0  0  0  0  0  0  0  0  0  0  0  0
    9.4938  -12.3397    0.0000 C   0  0  0  0  0  0  0  0  0  0  0  0
    9.4774  -11.5149    0.0000 C   0  0  0  0  0  0  0  0  0  0  0  0
    7.3261  -11.1452    0.0000 O   0  0  0  0  0  0  0  0  0  0  0  0
   10.1835  -11.0882    0.0000 O   0  0  0  0  0  0  0  0  0  0  0  0
    8.8042  -13.5912    0.0000 O   0  0  0  0  0  0  0  0  0  0  0  0
    8.4551   -9.1718    0.0000 H   0  0  0  0  0  0  0  0  0  0  0  0
    9.4722   -9.8873    0.0000 C   0  0  0  0  0  0  0  0  0  0  0  0
   10.1855  -10.3018    0.0000 C   0  0  0  0  0  0  0  0  0  0  0  0
   10.9011   -9.8873    0.0000 C   0  0  0  0  0  0  0  0  0  0  0  0
   10.9011   -9.0623    0.0000 C   0  0  0  0  0  0  0  0  0  0  0  0
   10.1855   -8.6477    0.0000 C   0  0  0  0  0  0  0  0  0  0  0  0
    9.4722   -9.0623    0.0000 C   0  0  0  0  0  0  0  0  0  0  0  0
   10.1849   -7.8227    0.0000 O   0  0  0  0  0  0  0  0  0  0  0  0
   11.6159   -8.6503    0.0000 O   0  0  0  0  0  0  0  0  0  0  0  0
    9.4744  -10.6908    0.0000 H   0  0  0  0  0  0  0  0  0  0  0  0
  1  2  1  0  0  0  0
  2  3  2  0  0  0  0
  3  4  1  0  0  0  0
  4  5  2  0  0  0  0
  5  6  1  0  0  0  0
  6  7  2  0  0  0  0
  7  2  1  0  0  0  0
  5  8  1  0  0  0  0
  8  9  1  0  0  0  0
  9 10  1  0  0  0  0
 10 11  1  0  0  0  0
 11  6  1  0  0  0  0
  9 12  1  6  0  0  0
 13 14  2  0  0  0  0
 10 14  1  6  0  0  0
 13 15  1  0  0  0  0
 15 16  2  0  0  0  0
 16 17  1  0  0  0  0
 17 18  2  0  0  0  0
 18 14  1  0  0  0  0
  8 19  1  1  0  0  0
 19 20  2  0  0  0  0
 19 21  1  0  0  0  0
 21 22  2  0  0  0  0
 22 23  1  0  0  0  0
 23 24  2  0  0  0  0
 24 20  1  0  0  0  0
 17 25  1  0  0  0  0
 16 26  1  0  0  0  0
  4 27  1  0  0  0  0
 21 28  1  0  0  0  0
 23 29  1  0  0  0  0
 24 30  1  0  0  0  0
 30 31  1  0  0  0  0
 31 32  1  1  0  0  0
 32 20  1  0  0  0  0
 31 33  1  0  0  0  0
 33 34  1  1  0  0  0
 34 35  2  0  0  0  0
 35 36  1  0  0  0  0
 36 37  2  0  0  0  0
 37 38  1  0  0  0  0
 38 39  2  0  0  0  0
 39 34  1  0  0  0  0
 35 40  1  0  0  0  0
 39 41  1  0  0  0  0
 37 42  1  0  0  0  0
 31 43  1  6  0  0  0
 33 44  1  0  0  0  0
 44 45  2  0  0  0  0
 45 46  1  0  0  0  0
 46 47  2  0  0  0  0
 47 48  1  0  0  0  0
 48 49  2  0  0  0  0
 49 44  1  0  0  0  0
 48 50  1  0  0  0  0
 47 51  1  0  0  0  0
 33 52  1  6  0  0  0
M  END
>  <cdx:fragmentId>
5

$$$$
