95497.cdx
  Mrv1902 05222410242D          

 38 42  0  0  0  0            999 V2000
    3.0781   -5.3487    0.0000 C   0  0  0  0  0  0  0  0  0  0  0  0
    3.0781   -6.1737    0.0000 C   0  0  0  0  0  0  0  0  0  0  0  0
    3.7925   -6.5863    0.0000 C   0  0  0  0  0  0  0  0  0  0  0  0
    4.5070   -6.1737    0.0000 C   0  0  0  0  0  0  0  0  0  0  0  0
    4.5070   -5.3487    0.0000 C   0  0  0  0  0  0  0  0  0  0  0  0
    3.7925   -4.9363    0.0000 C   0  0  0  0  0  0  0  0  0  0  0  0
    2.3636   -4.9363    0.0000 O   0  0  0  0  0  0  0  0  0  0  0  0
    3.7925   -7.4112    0.0000 O   0  0  0  0  0  0  0  0  0  0  0  0
    5.2215   -4.9363    0.0000 O   0  0  0  0  0  0  0  0  0  0  0  0
    5.2215   -6.5863    0.0000 C   0  0  0  0  0  0  0  0  0  0  0  0
    5.2215   -7.4112    0.0000 C   0  0  0  0  0  0  0  0  0  0  0  0
    5.9359   -7.8237    0.0000 C   0  0  0  0  0  0  0  0  0  0  0  0
    6.6504   -7.4112    0.0000 C   0  0  0  0  0  0  0  0  0  0  0  0
    6.6504   -6.5863    0.0000 C   0  0  0  0  0  0  0  0  0  0  0  0
    5.9359   -6.1737    0.0000 C   0  0  0  0  0  0  0  0  0  0  0  0
    7.3649   -7.8237    0.0000 C   0  0  1  0  0  0  0  0  0  0  0  0
    8.0794   -7.4112    0.0000 C   0  0  2  0  0  0  0  0  0  0  0  0
    8.0794   -6.5863    0.0000 C   0  0  2  0  0  0  0  0  0  0  0  0
    7.3649   -6.1737    0.0000 O   0  0  0  0  0  0  0  0  0  0  0  0
    8.7938   -7.8237    0.0000 O   0  0  0  0  0  0  0  0  0  0  0  0
    9.5083   -6.5863    0.0000 C   0  0  0  0  0  0  0  0  0  0  0  0
    8.7938   -6.1737    0.0000 C   0  0  0  0  0  0  0  0  0  0  0  0
   10.2228   -6.1737    0.0000 C   0  0  0  0  0  0  0  0  0  0  0  0
   10.2228   -5.3487    0.0000 C   0  0  0  0  0  0  0  0  0  0  0  0
    9.5083   -4.9363    0.0000 C   0  0  0  0  0  0  0  0  0  0  0  0
    8.7938   -5.3487    0.0000 C   0  0  0  0  0  0  0  0  0  0  0  0
    7.3649   -9.0062    0.0000 C   0  0  0  0  0  0  0  0  0  0  0  0
    8.0794   -9.4187    0.0000 C   0  0  0  0  0  0  0  0  0  0  0  0
    8.7938   -9.0062    0.0000 O   0  0  0  0  0  0  0  0  0  0  0  0
    6.6504   -9.4187    0.0000 C   0  0  0  0  0  0  0  0  0  0  0  0
    6.6504  -10.2437    0.0000 C   0  0  0  0  0  0  0  0  0  0  0  0
    7.3649  -10.6563    0.0000 C   0  0  0  0  0  0  0  0  0  0  0  0
    8.0794  -10.2437    0.0000 C   0  0  0  0  0  0  0  0  0  0  0  0
    9.5083   -4.1113    0.0000 O   0  0  0  0  0  0  0  0  0  0  0  0
   10.9372   -4.9363    0.0000 O   0  0  0  0  0  0  0  0  0  0  0  0
    5.9359   -8.6487    0.0000 O   0  0  0  0  0  0  0  0  0  0  0  0
    5.9359   -9.0062    0.0000 O   0  0  0  0  0  0  0  0  0  0  0  0
    7.3649  -11.4813    0.0000 O   0  0  0  0  0  0  0  0  0  0  0  0
  1  2  2  0  0  0  0
  2  3  1  0  0  0  0
  3  4  2  0  0  0  0
  4  5  1  0  0  0  0
  5  6  2  0  0  0  0
  6  1  1  0  0  0  0
  1  7  1  0  0  0  0
  3  8  1  0  0  0  0
  5  9  1  0  0  0  0
  4 10  1  0  0  0  0
 10 11  2  0  0  0  0
 11 12  1  0  0  0  0
 12 13  2  0  0  0  0
 13 14  1  0  0  0  0
 14 15  2  0  0  0  0
 15 10  1  0  0  0  0
 13 16  1  0  0  0  0
 16 17  1  0  0  0  0
 17 18  1  0  0  0  0
 18 19  1  0  0  0  0
 19 14  1  0  0  0  0
 17 20  1  6  0  0  0
 21 22  2  0  0  0  0
 18 22  1  6  0  0  0
 21 23  1  0  0  0  0
 23 24  2  0  0  0  0
 24 25  1  0  0  0  0
 25 26  2  0  0  0  0
 26 22  1  0  0  0  0
 16 27  1  1  0  0  0
 27 28  2  0  0  0  0
 28 29  1  0  0  0  0
 27 30  1  0  0  0  0
 30 31  2  0  0  0  0
 31 32  1  0  0  0  0
 32 33  2  0  0  0  0
 33 28  1  0  0  0  0
 25 34  1  0  0  0  0
 24 35  1  0  0  0  0
 12 36  1  0  0  0  0
 30 37  1  0  0  0  0
 32 38  1  0  0  0  0
M  END
>  <cdx:fragmentId>
5

$$$$
