95493.cdx
  Mrv1902 05222410242D          

 24 24  0  0  0  0            999 V2000
    4.3894  -10.3473    0.0000 N   0  0  0  0  0  0  0  0  0  0  0  0
    5.1059   -9.9383    0.0000 C   0  0  0  0  0  0  0  0  0  0  0  0
    5.8183  -10.3544    0.0000 C   0  0  0  0  0  0  0  0  0  0  0  0
    6.5348   -9.9454    0.0000 C   0  0  0  0  0  0  0  0  0  0  0  0
    7.2473  -10.3614    0.0000 C   0  0  0  0  0  0  0  0  0  0  0  0
    7.9638   -9.9525    0.0000 C   0  0  0  0  0  0  0  0  0  0  0  0
    8.6762  -10.3685    0.0000 C   0  0  0  0  0  0  0  0  0  0  0  0
    9.3927   -9.9595    0.0000 C   0  0  0  0  0  0  0  0  0  0  0  0
   10.1051  -10.3756    0.0000 C   0  0  0  0  0  0  0  0  0  0  0  0
   10.8216   -9.9666    0.0000 C   0  0  0  0  0  0  0  0  0  0  0  0
   11.5340  -10.3826    0.0000 C   0  0  0  0  0  0  0  0  0  0  0  0
   12.2505   -9.9737    0.0000 C   0  0  0  0  0  0  0  0  0  0  0  0
   12.9630  -10.3897    0.0000 C   0  0  0  0  0  0  0  0  0  0  0  0
   13.6795   -9.9807    0.0000 C   0  0  0  0  0  0  0  0  0  0  0  0
   14.3919  -10.3968    0.0000 C   0  0  0  0  0  0  0  0  0  0  0  0
    5.1100   -9.1133    0.0000 O   0  0  0  0  0  0  0  0  0  0  0  0
   14.3878  -11.2218    0.0000 C   0  0  0  0  0  0  0  0  0  0  0  0
   15.1002  -11.6378    0.0000 C   0  0  0  0  0  0  0  0  0  0  0  0
   15.0961  -12.4628    0.0000 C   0  0  0  0  0  0  0  0  0  0  0  0
   15.8086  -12.8788    0.0000 C   0  0  0  0  0  0  0  0  0  0  0  0
    3.6374  -10.0080    0.0000 C   0  0  0  0  0  0  0  0  0  0  0  0
    3.0823  -10.6184    0.0000 C   0  0  0  0  0  0  0  0  0  0  0  0
    3.4913  -11.3349    0.0000 C   0  0  0  0  0  0  0  0  0  0  0  0
    4.2991  -11.1673    0.0000 C   0  0  0  0  0  0  0  0  0  0  0  0
  2  3  1  0  0  0  0
  3  4  2  0  0  0  0
  4  5  1  0  0  0  0
  5  6  2  0  0  0  0
  6  7  1  0  0  0  0
  7  8  1  0  0  0  0
  8  9  1  0  0  0  0
  9 10  1  0  0  0  0
 10 11  1  0  0  0  0
 11 12  1  0  0  0  0
 12 13  1  0  0  0  0
 13 14  1  0  0  0  0
 14 15  2  0  0  0  0
  1  2  1  0  0  0  0
  2 16  2  0  0  0  0
 15 17  1  0  0  0  0
 17 18  1  0  0  0  0
 18 19  1  0  0  0  0
 19 20  1  0  0  0  0
  1 21  1  0  0  0  0
 21 22  1  0  0  0  0
 22 23  1  0  0  0  0
 23 24  1  0  0  0  0
 24  1  1  0  0  0  0
M  END
>  <cdx:groupId>
80

>  <cdx:fragmentId>
17

$$$$
