95494.cdx
  Mrv1902 05222410242D          

 24 26  0  0  0  0            999 V2000
    3.6412   -7.2262    0.0000 O   0  0  0  0  0  0  0  0  0  0  0  0
   12.2850   -9.5436    0.0000 O   0  0  0  0  0  0  0  0  0  0  0  0
   12.2850   -8.2087    0.0000 O   0  0  0  0  0  0  0  0  0  0  0  0
   12.7700   -8.8762    0.0000 C   0  0  0  0  0  0  0  0  0  0  0  0
   10.0715   -9.2887    0.0000 C   0  0  0  0  0  0  0  0  0  0  0  0
   10.7859   -9.7012    0.0000 C   0  0  0  0  0  0  0  0  0  0  0  0
   11.5004   -9.2887    0.0000 C   0  0  0  0  0  0  0  0  0  0  0  0
   11.5004   -8.4637    0.0000 C   0  0  0  0  0  0  0  0  0  0  0  0
   10.7859   -8.0512    0.0000 C   0  0  0  0  0  0  0  0  0  0  0  0
   10.0715   -8.4637    0.0000 C   0  0  0  0  0  0  0  0  0  0  0  0
    9.3570   -8.0512    0.0000 C   0  0  0  0  0  0  0  0  0  0  0  0
    8.6425   -8.4637    0.0000 C   0  0  0  0  0  0  0  0  0  0  0  0
    7.9281   -8.0512    0.0000 C   0  0  0  0  0  0  0  0  0  0  0  0
    7.2136   -8.4637    0.0000 C   0  0  0  0  0  0  0  0  0  0  0  0
    6.4991   -8.0512    0.0000 C   0  0  0  0  0  0  0  0  0  0  0  0
    5.7846   -8.4637    0.0000 C   0  0  0  0  0  0  0  0  0  0  0  0
    5.0702   -8.0512    0.0000 C   0  0  0  0  0  0  0  0  0  0  0  0
    4.3557   -8.4637    0.0000 C   0  0  0  0  0  0  0  0  0  0  0  0
    3.6412   -8.0512    0.0000 C   0  0  0  0  0  0  0  0  0  0  0  0
    2.8405   -9.2841    0.0000 C   0  0  0  0  0  0  0  0  0  0  0  0
    2.0335   -9.4557    0.0000 C   0  0  0  0  0  0  0  0  0  0  0  0
    1.6210   -8.7412    0.0000 C   0  0  0  0  0  0  0  0  0  0  0  0
    2.1731   -8.1281    0.0000 C   0  0  0  0  0  0  0  0  0  0  0  0
    2.9268   -8.4637    0.0000 N   0  0  0  0  0  0  0  0  0  0  0  0
 24 19  1  0  0  0  0
 19  1  2  0  0  0  0
 11 10  1  0  0  0  0
  7  2  1  0  0  0  0
  8  3  1  0  0  0  0
  4  2  1  0  0  0  0
  4  3  1  0  0  0  0
 10  5  1  0  0  0  0
  6  5  2  0  0  0  0
  7  6  1  0  0  0  0
  8  7  2  0  0  0  0
  9  8  1  0  0  0  0
 10  9  2  0  0  0  0
 12 11  2  0  0  0  0
 13 12  1  0  0  0  0
 14 13  1  0  0  0  0
 15 14  1  0  0  0  0
 16 15  2  0  0  0  0
 17 16  1  0  0  0  0
 18 17  2  0  0  0  0
 19 18  1  0  0  0  0
 24 20  1  0  0  0  0
 21 20  1  0  0  0  0
 22 21  1  0  0  0  0
 23 22  1  0  0  0  0
 24 23  1  0  0  0  0
M  END
>  <cdx:groupId>
76

>  <cdx:fragmentId>
33

$$$$
