95501.cdx
  Mrv1902 05222410212D          

 13 14  0  0  0  0            999 V2000
    6.9006   -5.9315    0.0000 O   0  0  0  0  0  0  0  0  0  0  0  0
    6.4157   -5.2641    0.0000 C   0  0  0  0  0  0  0  0  0  0  0  0
    6.9006   -4.5967    0.0000 C   0  0  0  0  0  0  0  0  0  0  0  0
    7.6852   -4.8516    0.0000 C   0  0  0  0  0  0  0  0  0  0  0  0
    7.6852   -5.6766    0.0000 C   0  0  0  0  0  0  0  0  0  0  0  0
    8.3997   -4.4391    0.0000 C   0  0  0  0  0  0  0  0  0  0  0  0
    9.1141   -4.8516    0.0000 C   0  0  0  0  0  0  0  0  0  0  0  0
    9.1141   -5.6766    0.0000 C   0  0  0  0  0  0  0  0  0  0  0  0
    8.3997   -6.0891    0.0000 C   0  0  0  0  0  0  0  0  0  0  0  0
    5.5907   -5.2641    0.0000 O   0  0  0  0  0  0  0  0  0  0  0  0
    7.5990   -6.4971    0.0000 C   0  0  0  0  0  0  0  0  0  0  0  0
    7.9872   -3.7246    0.0000 C   0  0  0  0  0  0  0  0  0  0  0  0
    8.8122   -3.7246    0.0000 C   0  0  0  0  0  0  0  0  0  0  0  0
  1  2  1  0  0  0  0
  2  3  1  0  0  0  0
  3  4  2  0  0  0  0
  4  5  1  0  0  0  0
  1  5  1  0  0  0  0
  6  7  1  0  0  0  0
  7  8  1  0  0  0  0
  8  9  1  0  0  0  0
  9  5  1  0  0  0  0
  6  4  1  0  0  0  0
  2 10  2  0  0  0  0
  5 11  1  0  0  0  0
  6 12  1  0  0  0  0
  6 13  1  0  0  0  0
M  END
>  <cdx:fragmentId>
5

$$$$
