95502.cdx
  Mrv1902 05222410212D          

 16 16  0  0  0  0            999 V2000
    6.8384   -8.0041    0.0000 C   0  0  0  0  0  0  0  0  0  0  0  0
    6.1239   -8.4166    0.0000 C   0  0  0  0  0  0  0  0  0  0  0  0
    5.4095   -8.0041    0.0000 C   0  0  0  0  0  0  0  0  0  0  0  0
    4.6950   -8.4166    0.0000 C   0  0  0  0  0  0  0  0  0  0  0  0
    4.6950   -9.2416    0.0000 C   0  0  0  0  0  0  0  0  0  0  0  0
    5.4095   -9.6541    0.0000 C   0  0  0  0  0  0  0  0  0  0  0  0
    6.1239   -9.2416    0.0000 C   0  0  0  0  0  0  0  0  0  0  0  0
    6.8384   -7.1791    0.0000 O   0  0  0  0  0  0  0  0  0  0  0  0
    7.5529   -8.4166    0.0000 O   0  0  0  0  0  0  0  0  0  0  0  0
    3.9805   -9.6541    0.0000 O   0  0  0  0  0  0  0  0  0  0  0  0
    3.9805   -8.0041    0.0000 O   0  0  0  0  0  0  0  0  0  0  0  0
    8.2674   -8.0041    0.0000 C   0  0  0  0  0  0  0  0  0  0  0  0
    8.9818   -8.4166    0.0000 C   0  0  1  0  0  0  0  0  0  0  0  0
    9.6963   -8.0041    0.0000 C   0  0  0  0  0  0  0  0  0  0  0  0
   10.4108   -8.4166    0.0000 O   0  0  0  0  0  0  0  0  0  0  0  0
    8.9818   -9.2416    0.0000 O   0  0  0  0  0  0  0  0  0  0  0  0
  1  2  1  0  0  0  0
  2  3  1  0  0  0  0
  3  4  2  0  0  0  0
  4  5  1  0  0  0  0
  5  6  2  0  0  0  0
  6  7  1  0  0  0  0
  2  7  2  0  0  0  0
  1  8  2  0  0  0  0
  1  9  1  0  0  0  0
  5 10  1  0  0  0  0
  4 11  1  0  0  0  0
 12 13  1  0  0  0  0
 13 14  1  0  0  0  0
 14 15  1  0  0  0  0
 13 16  1  1  0  0  0
  9 12  1  0  0  0  0
M  END
>  <cdx:groupId>
50

>  <cdx:fragmentId>
5

$$$$
