95500.cdx
  Mrv1902 05222410212D          

 32 32  0  0  0  0            999 V2000
   20.5716   -9.1565    0.0000 C   0  0  0  0  0  0  0  0  0  0  0  0
   19.8584   -9.5712    0.0000 C   0  0  0  0  0  0  0  0  0  0  0  0
   19.1426   -9.1610    0.0000 C   0  0  0  0  0  0  0  0  0  0  0  0
   18.4295   -9.5758    0.0000 C   0  0  0  0  0  0  0  0  0  0  0  0
   17.7137   -9.1655    0.0000 C   0  0  0  0  0  0  0  0  0  0  0  0
   17.0005   -9.5803    0.0000 C   0  0  0  0  0  0  0  0  0  0  0  0
   16.2848   -9.1700    0.0000 C   0  0  0  0  0  0  0  0  0  0  0  0
   15.5716   -9.5848    0.0000 C   0  0  0  0  0  0  0  0  0  0  0  0
   14.8558   -9.1746    0.0000 C   0  0  0  0  0  0  0  0  0  0  0  0
   14.1427   -9.5893    0.0000 C   0  0  0  0  0  0  0  0  0  0  0  0
   13.4269   -9.1791    0.0000 C   0  0  0  0  0  0  0  0  0  0  0  0
   12.7137   -9.5939    0.0000 C   0  0  0  0  0  0  0  0  0  0  0  0
   11.9980   -9.1836    0.0000 C   0  0  0  0  0  0  0  0  0  0  0  0
   11.2848   -9.5984    0.0000 C   0  0  0  0  0  0  0  0  0  0  0  0
   10.5690   -9.1881    0.0000 C   0  0  0  0  0  0  0  0  0  0  0  0
    9.8559   -9.6029    0.0000 C   0  0  0  0  0  0  0  0  0  0  0  0
    9.1401   -9.1927    0.0000 C   0  0  0  0  0  0  0  0  0  0  0  0
    8.4269   -9.6074    0.0000 C   0  0  0  0  0  0  0  0  0  0  0  0
    7.7112   -9.1972    0.0000 C   0  0  0  0  0  0  0  0  0  0  0  0
    6.9980   -9.6120    0.0000 C   0  0  0  0  0  0  0  0  0  0  0  0
    6.2822   -9.2017    0.0000 C   0  0  0  0  0  0  0  0  0  0  0  0
    5.5691   -9.6165    0.0000 C   0  0  0  0  0  0  0  0  0  0  0  0
    4.8533   -9.2063    0.0000 C   0  0  0  0  0  0  0  0  0  0  0  0
    4.1401   -9.6210    0.0000 C   0  0  0  0  0  0  0  0  0  0  0  0
    3.4244   -9.2108    0.0000 C   0  0  0  0  0  0  0  0  0  0  0  0
    2.7112   -9.6255    0.0000 C   0  0  0  0  0  0  0  0  0  0  0  0
   11.9954   -8.3586    0.0000 C   0  0  0  0  0  0  0  0  0  0  0  0
   11.2796   -7.9484    0.0000 C   0  0  0  0  0  0  0  0  0  0  0  0
   11.2770   -7.1234    0.0000 C   0  0  0  0  0  0  0  0  0  0  0  0
   11.9901   -6.7086    0.0000 C   0  0  0  0  0  0  0  0  0  0  0  0
   12.7059   -7.1189    0.0000 C   0  0  0  0  0  0  0  0  0  0  0  0
   12.7085   -7.9439    0.0000 C   0  0  0  0  0  0  0  0  0  0  0  0
  1  2  1  0  0  0  0
  2  3  1  0  0  0  0
  3  4  1  0  0  0  0
  4  5  1  0  0  0  0
  5  6  1  0  0  0  0
  6  7  1  0  0  0  0
  7  8  1  0  0  0  0
  8  9  1  0  0  0  0
  9 10  1  0  0  0  0
 10 11  1  0  0  0  0
 11 12  1  0  0  0  0
 12 13  1  0  0  0  0
 13 14  1  0  0  0  0
 14 15  1  0  0  0  0
 15 16  1  0  0  0  0
 16 17  1  0  0  0  0
 17 18  1  0  0  0  0
 18 19  1  0  0  0  0
 19 20  1  0  0  0  0
 20 21  1  0  0  0  0
 21 22  1  0  0  0  0
 22 23  1  0  0  0  0
 23 24  1  0  0  0  0
 24 25  1  0  0  0  0
 25 26  1  0  0  0  0
 27 28  1  0  0  0  0
 28 29  1  0  0  0  0
 29 30  1  0  0  0  0
 30 31  1  0  0  0  0
 31 32  1  0  0  0  0
 27 32  1  0  0  0  0
 13 27  1  0  0  0  0
M  END
>  <cdx:fragmentId>
5

$$$$
