95516.cdx
  Mrv1902 05222410212D          

 17 17  0  0  0  0            999 V2000
    5.0522   -8.3611    0.0000 C   0  0  0  0  0  0  0  0  0  0  0  0
    4.3378   -8.7736    0.0000 N   0  0  0  0  0  0  0  0  0  0  0  0
    5.0522   -7.5361    0.0000 O   0  0  0  0  0  0  0  0  0  0  0  0
    5.7667   -8.7736    0.0000 O   0  0  0  0  0  0  0  0  0  0  0  0
    4.3378   -9.5986    0.0000 C   0  0  0  0  0  0  0  0  0  0  0  0
    3.6233   -8.3611    0.0000 C   0  0  0  0  0  0  0  0  0  0  0  0
    6.4812   -8.3611    0.0000 C   0  0  0  0  0  0  0  0  0  0  0  0
    7.1956   -8.7736    0.0000 C   0  0  0  0  0  0  0  0  0  0  0  0
    7.9101   -8.3611    0.0000 C   0  0  0  0  0  0  0  0  0  0  0  0
    7.9101   -7.5361    0.0000 C   0  0  0  0  0  0  0  0  0  0  0  0
    7.1956   -7.1236    0.0000 C   0  0  0  0  0  0  0  0  0  0  0  0
    6.4812   -7.5361    0.0000 C   0  0  0  0  0  0  0  0  0  0  0  0
    8.6246   -8.7736    0.0000 C   0  0  0  0  0  0  0  0  0  0  0  0
    9.3391   -8.3611    0.0000 C   0  0  0  0  0  0  0  0  0  0  0  0
   10.0535   -8.7736    0.0000 C   0  0  0  0  0  0  0  0  0  0  0  0
   10.7680   -8.3611    0.0000 C   0  0  0  0  0  0  0  0  0  0  0  0
   10.0535   -9.5986    0.0000 O   0  0  0  0  0  0  0  0  0  0  0  0
  1  2  1  0  0  0  0
  1  3  2  0  0  0  0
  1  4  1  0  0  0  0
  2  5  1  0  0  0  0
  2  6  1  0  0  0  0
  7  8  1  0  0  0  0
  8  9  2  0  0  0  0
  9 10  1  0  0  0  0
 10 11  2  0  0  0  0
 11 12  1  0  0  0  0
  7 12  2  0  0  0  0
 13 14  2  0  0  0  0
 14 15  1  0  0  0  0
 15 16  1  0  0  0  0
 15 17  2  0  0  0  0
  9 13  1  0  0  0  0
  4  7  1  0  0  0  0
M  END
>  <cdx:groupId>
53

>  <cdx:fragmentId>
17

$$$$
