95519.cdx
  Mrv1902 05222410252D          

160173  0  0  0  0            999 V2000
   10.8205   -8.1429    0.0000 C   0  0  0  0  0  0  0  0  0  0  0  0
   10.8224   -8.9679    0.0000 C   0  0  1  0  0  0  0  0  0  0  0  0
   11.5377   -9.3789    0.0000 C   0  0  0  0  0  0  0  0  0  0  0  0
   12.2513   -8.9648    0.0000 C   0  0  1  0  0  0  0  0  0  0  0  0
   12.2495   -8.1398    0.0000 C   0  0  2  0  0  0  0  0  0  0  0  0
   11.5341   -7.7289    0.0000 C   0  0  0  0  0  0  0  0  0  0  0  0
   12.9667   -9.3757    0.0000 C   0  0  0  0  0  0  0  0  0  0  0  0
   13.6802   -8.9617    0.0000 C   0  0  0  0  0  0  0  0  0  0  0  0
   13.6784   -8.1367    0.0000 C   0  0  2  0  0  0  0  0  0  0  0  0
   12.9631   -7.7257    0.0000 C   0  0  2  0  0  0  0  0  0  0  0  0
   14.3920   -7.7226    0.0000 C   0  0  1  0  0  0  0  0  0  0  0  0
   14.3902   -6.8976    0.0000 C   0  0  0  0  0  0  0  0  0  0  0  0
   13.6748   -6.4867    0.0000 C   0  0  0  0  0  0  0  0  0  0  0  0
   12.9612   -6.9007    0.0000 C   0  0  0  0  0  0  0  0  0  0  0  0
   15.1074   -8.1335    0.0000 C   0  0  0  0  0  0  0  0  0  0  0  0
   15.8209   -7.7195    0.0000 C   0  0  0  0  0  0  0  0  0  0  0  0
   15.8191   -6.8945    0.0000 C   0  0  2  0  0  0  0  0  0  0  0  0
   15.1038   -6.4835    0.0000 C   0  0  1  0  0  0  0  0  0  0  0  0
   16.5327   -6.4804    0.0000 C   0  0  0  0  0  0  0  0  0  0  0  0
   16.5309   -5.6554    0.0000 C   0  0  0  0  0  0  0  0  0  0  0  0
   15.8155   -5.2445    0.0000 C   0  0  0  0  0  0  0  0  0  0  0  0
   15.1019   -5.6586    0.0000 C   0  0  0  0  0  0  0  0  0  0  0  0
   10.1088   -9.3820    0.0000 O   0  0  0  0  0  0  0  0  0  0  0  0
    9.3934   -8.9710    0.0000 C   0  0  2  0  0  0  0  0  0  0  0  0
    9.3916   -8.1461    0.0000 O   0  0  0  0  0  0  0  0  0  0  0  0
    8.6762   -7.7351    0.0000 C   0  0  1  0  0  0  0  0  0  0  0  0
    7.9627   -8.1492    0.0000 C   0  0  2  0  0  0  0  0  0  0  0  0
    7.9645   -8.9742    0.0000 C   0  0  1  0  0  0  0  0  0  0  0  0
    8.6798   -9.3851    0.0000 C   0  0  1  0  0  0  0  0  0  0  0  0
    8.6744   -6.9101    0.0000 C   0  0  0  0  0  0  0  0  0  0  0  0
    7.2509   -9.3882    0.0000 O   0  0  0  0  0  0  0  0  0  0  0  0
    8.6817  -10.2101    0.0000 O   0  0  0  0  0  0  0  0  0  0  0  0
    7.2473   -7.7382    0.0000 O   0  0  0  0  0  0  0  0  0  0  0  0
   11.1268  -10.0942    0.0000 C   0  0  0  0  0  0  0  0  0  0  0  0
   11.9518  -10.0924    0.0000 C   0  0  0  0  0  0  0  0  0  0  0  0
   12.2477   -7.3148    0.0000 C   0  0  0  0  0  0  0  0  0  0  0  0
   12.2531   -9.7898    0.0000 H   0  0  0  0  0  0  0  0  0  0  0  0
   12.9649   -8.5507    0.0000 H   0  0  0  0  0  0  0  0  0  0  0  0
   13.6766   -7.3117    0.0000 C   0  0  0  0  0  0  0  0  0  0  0  0
   14.3938   -8.5476    0.0000 C   0  0  0  0  0  0  0  0  0  0  0  0
   15.1056   -7.3085    0.0000 H   0  0  0  0  0  0  0  0  0  0  0  0
   16.5345   -7.3054    0.0000 C   0  0  0  0  0  0  0  0  0  0  0  0
   17.2481   -6.8914    0.0000 O   0  0  0  0  0  0  0  0  0  0  0  0
   16.5363   -8.1304    0.0000 O   0  0  0  0  0  0  0  0  0  0  0  0
   15.4015   -4.5309    0.0000 C   0  0  0  0  0  0  0  0  0  0  0  0
   16.2265   -4.5291    0.0000 C   0  0  0  0  0  0  0  0  0  0  0  0
   17.9634   -7.3023    0.0000 C   0  0  2  0  0  0  0  0  0  0  0  0
   17.9652   -8.1273    0.0000 O   0  0  0  0  0  0  0  0  0  0  0  0
   18.6806   -8.5382    0.0000 C   0  0  1  0  0  0  0  0  0  0  0  0
   19.3942   -8.1242    0.0000 C   0  0  2  0  0  0  0  0  0  0  0  0
   19.3924   -7.2992    0.0000 C   0  0  1  0  0  0  0  0  0  0  0  0
   18.6770   -6.8882    0.0000 C   0  0  1  0  0  0  0  0  0  0  0  0
   18.6752   -6.0632    0.0000 O   0  0  0  0  0  0  0  0  0  0  0  0
   20.1059   -6.8851    0.0000 O   0  0  0  0  0  0  0  0  0  0  0  0
   20.1096   -8.5351    0.0000 O   0  0  0  0  0  0  0  0  0  0  0  0
   19.3888   -5.6492    0.0000 C   0  0  2  0  0  0  0  0  0  0  0  0
   20.1041   -6.0601    0.0000 O   0  0  0  0  0  0  0  0  0  0  0  0
   20.8177   -5.6460    0.0000 C   0  0  2  0  0  0  0  0  0  0  0  0
   20.8159   -4.8210    0.0000 C   0  0  1  0  0  0  0  0  0  0  0  0
   20.1005   -4.4101    0.0000 C   0  0  2  0  0  0  0  0  0  0  0  0
   19.3870   -4.8242    0.0000 C   0  0  1  0  0  0  0  0  0  0  0  0
   18.6716   -4.4132    0.0000 O   0  0  0  0  0  0  0  0  0  0  0  0
   20.0987   -3.5851    0.0000 O   0  0  0  0  0  0  0  0  0  0  0  0
   21.5295   -4.4070    0.0000 O   0  0  0  0  0  0  0  0  0  0  0  0
   21.5331   -6.0570    0.0000 C   0  0  0  0  0  0  0  0  0  0  0  0
   22.2448   -4.8179    0.0000 C   0  0  2  0  0  0  0  0  0  0  0  0
   22.2466   -5.6429    0.0000 O   0  0  0  0  0  0  0  0  0  0  0  0
   22.9620   -6.0539    0.0000 C   0  0  0  0  0  0  0  0  0  0  0  0
   23.6756   -5.6398    0.0000 C   0  0  2  0  0  0  0  0  0  0  0  0
   23.6738   -4.8148    0.0000 C   0  0  1  0  0  0  0  0  0  0  0  0
   22.9584   -4.4039    0.0000 C   0  0  1  0  0  0  0  0  0  0  0  0
   22.9566   -3.5789    0.0000 O   0  0  0  0  0  0  0  0  0  0  0  0
   24.3910   -6.0507    0.0000 O   0  0  0  0  0  0  0  0  0  0  0  0
   24.3873   -4.4007    0.0000 O   0  0  0  0  0  0  0  0  0  0  0  0
    7.9591   -6.4992    0.0000 O   0  0  0  0  0  0  0  0  0  0  0  0
    7.9573   -5.6742    0.0000 C   0  0  2  0  0  0  0  0  0  0  0  0
    8.6708   -5.2601    0.0000 O   0  0  0  0  0  0  0  0  0  0  0  0
    8.6690   -4.4351    0.0000 C   0  0  0  0  0  0  0  0  0  0  0  0
    7.9536   -4.0242    0.0000 C   0  0  1  0  0  0  0  0  0  0  0  0
    7.2401   -4.4382    0.0000 C   0  0  1  0  0  0  0  0  0  0  0  0
    7.2419   -5.2632    0.0000 C   0  0  1  0  0  0  0  0  0  0  0  0
    6.5247   -4.0273    0.0000 O   0  0  0  0  0  0  0  0  0  0  0  0
    7.9518   -3.1992    0.0000 O   0  0  0  0  0  0  0  0  0  0  0  0
    6.5283   -5.6773    0.0000 O   0  0  0  0  0  0  0  0  0  0  0  0
   25.1027   -4.8117    0.0000 C   0  0  2  0  0  0  0  0  0  0  0  0
    5.8129   -5.2664    0.0000 C   0  0  2  0  0  0  0  0  0  0  0  0
    5.8111   -4.4414    0.0000 O   0  0  0  0  0  0  0  0  0  0  0  0
    5.0958   -4.0304    0.0000 C   0  0  0  0  0  0  0  0  0  0  0  0
    4.3822   -4.4445    0.0000 C   0  0  2  0  0  0  0  0  0  0  0  0
    4.3840   -5.2695    0.0000 C   0  0  1  0  0  0  0  0  0  0  0  0
    5.0994   -5.6804    0.0000 C   0  0  1  0  0  0  0  0  0  0  0  0
    5.1012   -6.5054    0.0000 O   0  0  0  0  0  0  0  0  0  0  0  0
    3.6704   -5.6836    0.0000 O   0  0  0  0  0  0  0  0  0  0  0  0
    3.6668   -4.0336    0.0000 O   0  0  0  0  0  0  0  0  0  0  0  0
   18.6824   -9.3632    0.0000 C   0  0  0  0  0  0  0  0  0  0  0  0
   19.3978   -9.7742    0.0000 O   0  0  0  0  0  0  0  0  0  0  0  0
   25.1045   -5.6367    0.0000 O   0  0  0  0  0  0  0  0  0  0  0  0
   25.8199   -6.0476    0.0000 C   0  0  0  0  0  0  0  0  0  0  0  0
   26.5335   -5.6335    0.0000 C   0  0  2  0  0  0  0  0  0  0  0  0
   26.5317   -4.8085    0.0000 C   0  0  1  0  0  0  0  0  0  0  0  0
   25.8163   -4.3976    0.0000 C   0  0  1  0  0  0  0  0  0  0  0  0
   25.8145   -3.5726    0.0000 O   0  0  0  0  0  0  0  0  0  0  0  0
   27.2452   -4.3945    0.0000 O   0  0  0  0  0  0  0  0  0  0  0  0
   27.2488   -6.0445    0.0000 O   0  0  0  0  0  0  0  0  0  0  0  0
   18.6698   -3.5882    0.0000 C   0  0  2  0  0  0  0  0  0  0  0  0
   19.3847   -3.1765    0.0000 O   0  0  0  0  0  0  0  0  0  0  0  0
   19.3847   -2.3515    0.0000 C   0  0  1  0  0  0  0  0  0  0  0  0
   18.6698   -1.9382    0.0000 C   0  0  1  0  0  0  0  0  0  0  0  0
   17.9549   -2.3515    0.0000 C   0  0  1  0  0  0  0  0  0  0  0  0
   17.9549   -3.1765    0.0000 C   0  0  1  0  0  0  0  0  0  0  0  0
   20.0993   -1.9392    0.0000 C   0  0  0  0  0  0  0  0  0  0  0  0
   18.6698   -1.1132    0.0000 O   0  0  0  0  0  0  0  0  0  0  0  0
   17.2403   -1.9392    0.0000 O   0  0  0  0  0  0  0  0  0  0  0  0
   17.2406   -3.5894    0.0000 O   0  0  0  0  0  0  0  0  0  0  0  0
   20.0995   -1.1142    0.0000 O   0  0  0  0  0  0  0  0  0  0  0  0
   20.7182   -7.4380    0.0000 C   0  0  0  0  0  0  0  0  0  0  0  0
   21.5032   -7.1842    0.0000 C   0  0  0  0  0  0  0  0  0  0  0  0
   20.5455   -8.2448    0.0000 O   0  0  0  0  0  0  0  0  0  0  0  0
   22.1155   -7.7372    0.0000 C   0  0  0  0  0  0  0  0  0  0  0  0
   22.9005   -7.4834    0.0000 C   0  0  0  0  0  0  0  0  0  0  0  0
   23.5128   -8.0363    0.0000 C   0  0  0  0  0  0  0  0  0  0  0  0
   24.2978   -7.7825    0.0000 C   0  0  0  0  0  0  0  0  0  0  0  0
   24.5113   -8.5794    0.0000 C   0  0  0  0  0  0  0  0  0  0  0  0
   24.0843   -6.9856    0.0000 C   0  0  0  0  0  0  0  0  0  0  0  0
   25.0828   -7.5287    0.0000 O   0  0  0  0  0  0  0  0  0  0  0  0
   25.3082   -8.7929    0.0000 C   0  0  0  0  0  0  0  0  0  0  0  0
   21.6759   -6.3775    0.0000 C   0  0  0  0  0  0  0  0  0  0  0  0
   19.3996  -10.5992    0.0000 C   0  0  0  0  0  0  0  0  0  0  0  0
   20.1150  -11.0101    0.0000 C   0  0  0  0  0  0  0  0  0  0  0  0
   18.6860  -11.0132    0.0000 O   0  0  0  0  0  0  0  0  0  0  0  0
   20.8285  -10.5960    0.0000 C   0  0  0  0  0  0  0  0  0  0  0  0
   20.1168  -11.8351    0.0000 C   0  0  0  0  0  0  0  0  0  0  0  0
   20.8321  -12.2460    0.0000 C   0  0  0  0  0  0  0  0  0  0  0  0
   20.8339  -13.0710    0.0000 C   0  0  0  0  0  0  0  0  0  0  0  0
   21.5493  -13.4820    0.0000 C   0  0  1  0  0  0  0  0  0  0  0  0
   21.9618  -12.7675    0.0000 C   0  0  0  0  0  0  0  0  0  0  0  0
   21.1368  -14.1964    0.0000 C   0  0  0  0  0  0  0  0  0  0  0  0
   22.2647  -13.8929    0.0000 O   0  0  0  0  0  0  0  0  0  0  0  0
   22.2641  -14.7179    0.0000 C   0  0  2  0  0  0  0  0  0  0  0  0
   21.5503  -15.1315    0.0000 O   0  0  0  0  0  0  0  0  0  0  0  0
   21.5461  -15.9533    0.0000 C   0  0  0  0  0  0  0  0  0  0  0  0
   22.2593  -16.3679    0.0000 C   0  0  2  0  0  0  0  0  0  0  0  0
   22.9714  -15.9574    0.0000 C   0  0  1  0  0  0  0  0  0  0  0  0
   22.9774  -15.1325    0.0000 C   0  0  1  0  0  0  0  0  0  0  0  0
   23.6939  -14.7236    0.0000 O   0  0  0  0  0  0  0  0  0  0  0  0
   23.6842  -16.3728    0.0000 O   0  0  0  0  0  0  0  0  0  0  0  0
   22.2579  -17.1929    0.0000 O   0  0  0  0  0  0  0  0  0  0  0  0
   22.7868  -12.7675    0.0000 C   0  0  0  0  0  0  0  0  0  0  0  0
   23.6981  -13.8986    0.0000 C   0  0  0  0  0  0  0  0  0  0  0  0
   22.9858  -13.4825    0.0000 O   0  0  0  0  0  0  0  0  0  0  0  0
   24.4147  -13.4897    0.0000 C   0  0  0  0  0  0  0  0  0  0  0  0
   25.1270  -13.9059    0.0000 C   0  0  0  0  0  0  0  0  0  0  0  0
   24.4189  -12.6647    0.0000 C   0  0  0  0  0  0  0  0  0  0  0  0
   25.1354  -12.2559    0.0000 C   0  0  0  0  0  0  0  0  0  0  0  0
   25.1396  -11.4309    0.0000 C   0  0  0  0  0  0  0  0  0  0  0  0
   25.8562  -11.0220    0.0000 C   0  0  2  0  0  0  0  0  0  0  0  0
   26.2687  -11.7365    0.0000 C   0  0  0  0  0  0  0  0  0  0  0  0
   25.4437  -10.3075    0.0000 C   0  0  0  0  0  0  0  0  0  0  0  0
   26.5727  -10.6131    0.0000 O   0  0  0  0  0  0  0  0  0  0  0  0
   27.0937  -11.7365    0.0000 C   0  0  0  0  0  0  0  0  0  0  0  0
  1  2  1  0  0  0  0
  2  3  1  0  0  0  0
  3  4  1  0  0  0  0
  4  5  1  0  0  0  0
  5  6  1  0  0  0  0
  6  1  1  0  0  0  0
  4  7  1  0  0  0  0
  7  8  1  0  0  0  0
  8  9  1  0  0  0  0
  9 10  1  0  0  0  0
 10  5  1  0  0  0  0
  9 11  1  0  0  0  0
 11 12  1  0  0  0  0
 12 13  2  0  0  0  0
 13 14  1  0  0  0  0
 14 10  1  0  0  0  0
 11 15  1  0  0  0  0
 15 16  1  0  0  0  0
 16 17  1  0  0  0  0
 17 18  1  0  0  0  0
 18 12  1  0  0  0  0
 17 19  1  0  0  0  0
 19 20  1  0  0  0  0
 20 21  1  0  0  0  0
 21 22  1  0  0  0  0
 22 18  1  0  0  0  0
  2 23  1  1  0  0  0
 24 23  1  1  0  0  0
 24 25  1  0  0  0  0
 25 26  1  0  0  0  0
 26 27  1  0  0  0  0
 27 28  1  0  0  0  0
 28 29  1  0  0  0  0
 29 24  1  0  0  0  0
 26 30  1  1  0  0  0
 28 31  1  1  0  0  0
 29 32  1  6  0  0  0
 27 33  1  6  0  0  0
  3 34  1  0  0  0  0
  3 35  1  0  0  0  0
  5 36  1  1  0  0  0
  4 37  1  6  0  0  0
 10 38  1  6  0  0  0
  9 39  1  1  0  0  0
 11 40  1  6  0  0  0
 18 41  1  1  0  0  0
 17 42  1  1  0  0  0
 42 43  1  0  0  0  0
 42 44  2  0  0  0  0
 21 45  1  0  0  0  0
 21 46  1  0  0  0  0
 47 43  1  1  0  0  0
 47 48  1  0  0  0  0
 48 49  1  0  0  0  0
 49 50  1  0  0  0  0
 50 51  1  0  0  0  0
 51 52  1  0  0  0  0
 52 47  1  0  0  0  0
 52 53  1  6  0  0  0
 51 54  1  1  0  0  0
 50 55  1  6  0  0  0
 56 53  1  1  0  0  0
 56 57  1  0  0  0  0
 57 58  1  0  0  0  0
 58 59  1  0  0  0  0
 59 60  1  0  0  0  0
 60 61  1  0  0  0  0
 61 56  1  0  0  0  0
 61 62  1  6  0  0  0
 60 63  1  6  0  0  0
 59 64  1  1  0  0  0
 58 65  1  6  0  0  0
 66 64  1  1  0  0  0
 66 67  1  0  0  0  0
 67 68  1  0  0  0  0
 68 69  1  0  0  0  0
 69 70  1  0  0  0  0
 70 71  1  0  0  0  0
 71 66  1  0  0  0  0
 71 72  1  6  0  0  0
 70 74  1  1  0  0  0
 69 73  1  6  0  0  0
 30 75  1  0  0  0  0
 76 75  1  1  0  0  0
 76 77  1  0  0  0  0
 77 78  1  0  0  0  0
 78 79  1  0  0  0  0
 79 80  1  0  0  0  0
 80 81  1  0  0  0  0
 81 76  1  0  0  0  0
 80 82  1  1  0  0  0
 79 83  1  1  0  0  0
 81 84  1  6  0  0  0
 85 74  1  1  0  0  0
 86 84  1  1  0  0  0
 86 87  1  0  0  0  0
 87 88  1  0  0  0  0
 88 89  1  0  0  0  0
 89 90  1  0  0  0  0
 90 91  1  0  0  0  0
 91 86  1  0  0  0  0
 91 92  1  6  0  0  0
 90 93  1  1  0  0  0
 89 94  1  6  0  0  0
 49 95  1  1  0  0  0
 95 96  1  0  0  0  0
 85 97  1  0  0  0  0
 97 98  1  0  0  0  0
 98 99  1  0  0  0  0
 99100  1  0  0  0  0
100101  1  0  0  0  0
101 85  1  0  0  0  0
101102  1  6  0  0  0
100103  1  1  0  0  0
 99104  1  6  0  0  0
105 62  1  1  0  0  0
105106  1  0  0  0  0
106107  1  0  0  0  0
107108  1  0  0  0  0
108109  1  0  0  0  0
109110  1  0  0  0  0
110105  1  0  0  0  0
107111  1  1  0  0  0
108112  1  1  0  0  0
109113  1  1  0  0  0
110114  1  6  0  0  0
111115  1  0  0  0  0
 54116  1  0  0  0  0
116117  1  0  0  0  0
116118  2  0  0  0  0
117119  2  0  0  0  0
119120  1  0  0  0  0
120121  1  0  0  0  0
121122  1  0  0  0  0
122123  1  0  0  0  0
122124  1  0  0  0  0
122125  1  0  0  0  0
123126  2  0  0  0  0
117127  1  0  0  0  0
 96128  1  0  0  0  0
128129  1  0  0  0  0
128130  2  0  0  0  0
129131  1  0  0  0  0
129132  2  0  0  0  0
132133  1  0  0  0  0
133134  1  0  0  0  0
134135  1  0  0  0  0
135136  1  0  0  0  0
135137  1  1  0  0  0
135138  1  6  0  0  0
139138  1  1  0  0  0
139140  1  0  0  0  0
140141  1  0  0  0  0
141142  1  0  0  0  0
142143  1  0  0  0  0
143144  1  0  0  0  0
144139  1  0  0  0  0
144145  1  6  0  0  0
143146  1  1  0  0  0
142147  1  6  0  0  0
136148  2  0  0  0  0
145149  1  0  0  0  0
149150  2  0  0  0  0
149151  1  0  0  0  0
151152  1  0  0  0  0
151153  2  0  0  0  0
153154  1  0  0  0  0
154155  1  0  0  0  0
155156  1  0  0  0  0
156157  1  0  0  0  0
156158  1  1  0  0  0
156159  1  6  0  0  0
157160  2  0  0  0  0
M  END
>  <cdx:fragmentId>
189

$$$$
