95521.cdx
  Mrv1902 05222410242D          

 21 23  0  0  0  0            999 V2000
    7.8292   -7.7177    0.0000 C   0  0  0  0  0  0  0  0  0  0  0  0
    8.3813   -8.3308    0.0000 N   0  0  0  0  0  0  0  0  0  0  0  0
    8.1263   -9.1155    0.0000 C   0  0  0  0  0  0  0  0  0  0  0  0
    7.3194   -9.2870    0.0000 C   0  0  0  0  0  0  0  0  0  0  0  0
    6.7673   -8.6739    0.0000 C   0  0  0  0  0  0  0  0  0  0  0  0
    5.9423   -8.6739    0.0000 C   0  0  0  0  0  0  0  0  0  0  0  0
    5.3903   -9.2870    0.0000 C   0  0  0  0  0  0  0  0  0  0  0  0
    4.5833   -9.1155    0.0000 C   0  0  0  0  0  0  0  0  0  0  0  0
    4.3284   -8.3308    0.0000 C   0  0  0  0  0  0  0  0  0  0  0  0
    4.8804   -7.7177    0.0000 C   0  0  0  0  0  0  0  0  0  0  0  0
    5.6874   -7.8893    0.0000 C   0  0  0  0  0  0  0  0  0  0  0  0
    6.3548   -7.4044    0.0000 N   0  0  0  0  0  0  0  0  0  0  0  0
    7.0223   -7.8893    0.0000 C   0  0  0  0  0  0  0  0  0  0  0  0
    7.0644  -10.0716    0.0000 O   0  0  0  0  0  0  0  0  0  0  0  0
    8.6784   -9.7286    0.0000 C   0  0  0  0  0  0  0  0  0  0  0  0
    8.4234  -10.5132    0.0000 O   0  0  0  0  0  0  0  0  0  0  0  0
    9.4853   -9.5570    0.0000 O   0  0  0  0  0  0  0  0  0  0  0  0
   10.0687  -10.1404    0.0000 C   0  0  0  0  0  0  0  0  0  0  0  0
    8.0842   -6.9331    0.0000 C   0  0  0  0  0  0  0  0  0  0  0  0
    7.5322   -6.3200    0.0000 O   0  0  0  0  0  0  0  0  0  0  0  0
    8.8912   -6.7616    0.0000 C   0  0  0  0  0  0  0  0  0  0  0  0
  1  2  2  0  0  0  0
  2  3  1  0  0  0  0
  3  4  2  0  0  0  0
  4  5  1  0  0  0  0
  5  6  1  0  0  0  0
  6  7  1  0  0  0  0
  7  8  2  0  0  0  0
  8  9  1  0  0  0  0
  9 10  2  0  0  0  0
 10 11  1  0  0  0  0
  6 11  2  0  0  0  0
 11 12  1  0  0  0  0
 12 13  1  0  0  0  0
  5 13  2  0  0  0  0
  1 13  1  0  0  0  0
  4 14  1  0  0  0  0
 15 16  2  0  0  0  0
 17 18  1  0  0  0  0
 15 17  1  0  0  0  0
  3 15  1  0  0  0  0
 19 20  2  0  0  0  0
 19 21  1  0  0  0  0
  1 19  1  0  0  0  0
M  END
>  <cdx:groupId>
67

>  <cdx:fragmentId>
5

$$$$
