95526.cdx
  Mrv1902 05222410252D          

 13 13  0  0  0  0            999 V2000
    7.2710   -7.8359    0.0000 C   0  0  0  0  0  0  0  0  0  0  0  0
    7.9855   -8.2484    0.0000 C   0  0  0  0  0  0  0  0  0  0  0  0
    7.9856   -9.0734    0.0000 C   0  0  0  0  0  0  0  0  0  0  0  0
    7.2712   -9.4859    0.0000 C   0  0  0  0  0  0  0  0  0  0  0  0
    6.5567   -9.0735    0.0000 C   0  0  0  0  0  0  0  0  0  0  0  0
    6.5566   -8.2485    0.0000 C   0  0  0  0  0  0  0  0  0  0  0  0
    7.2709   -7.0109    0.0000 C   0  0  0  0  0  0  0  0  0  0  0  0
    7.2708   -6.1859    0.0000 O   0  0  0  0  0  0  0  0  0  0  0  0
    7.6838  -10.2004    0.0000 C   0  0  0  0  0  0  0  0  0  0  0  0
    6.4459   -7.0111    0.0000 C   0  0  0  0  0  0  0  0  0  0  0  0
    8.0959   -7.0108    0.0000 C   0  0  0  0  0  0  0  0  0  0  0  0
    6.8588  -10.2005    0.0000 C   0  0  0  0  0  0  0  0  0  0  0  0
    7.2714  -10.9149    0.0000 C   0  0  0  0  0  0  0  0  0  0  0  0
  1  2  1  0  0  0  0
  2  3  1  0  0  0  0
  3  4  1  0  0  0  0
  4  5  1  0  0  0  0
  5  6  1  0  0  0  0
  1  6  1  0  0  0  0
  7  8  1  0  0  0  0
  1  7  1  0  0  0  0
  4  9  1  0  0  0  0
  7 10  1  0  0  0  0
  7 11  1  0  0  0  0
 12 13  1  0  0  0  0
  4 12  1  0  0  0  0
M  END
>  <cdx:groupId>
41

>  <cdx:fragmentId>
5

$$$$
