95527.cdx
  Mrv1902 05222410252D          

 12 12  0  0  0  0            999 V2000
    7.7024   -8.0041    0.0000 C   0  0  0  0  0  0  0  0  0  0  0  0
    8.4168   -8.4166    0.0000 C   0  0  0  0  0  0  0  0  0  0  0  0
    9.1313   -8.0041    0.0000 C   0  0  0  0  0  0  0  0  0  0  0  0
    9.8458   -8.4166    0.0000 C   0  0  0  0  0  0  0  0  0  0  0  0
    9.1313   -7.1791    0.0000 O   0  0  0  0  0  0  0  0  0  0  0  0
    6.9879   -8.4166    0.0000 C   0  0  0  0  0  0  0  0  0  0  0  0
    6.2734   -8.0041    0.0000 C   0  0  0  0  0  0  0  0  0  0  0  0
    5.5590   -8.4166    0.0000 C   0  0  0  0  0  0  0  0  0  0  0  0
    5.5590   -9.2416    0.0000 C   0  0  0  0  0  0  0  0  0  0  0  0
    6.2734   -9.6541    0.0000 C   0  0  0  0  0  0  0  0  0  0  0  0
    6.9879   -9.2416    0.0000 C   0  0  0  0  0  0  0  0  0  0  0  0
    4.8445   -9.6541    0.0000 O   0  0  0  0  0  0  0  0  0  0  0  0
  1  2  2  0  0  0  0
  2  3  1  0  0  0  0
  3  4  1  0  0  0  0
  3  5  2  0  0  0  0
  6  7  1  0  0  0  0
  7  8  2  0  0  0  0
  8  9  1  0  0  0  0
  9 10  2  0  0  0  0
 10 11  1  0  0  0  0
  6 11  2  0  0  0  0
  9 12  1  0  0  0  0
  1  6  1  0  0  0  0
M  END
>  <cdx:groupId>
38

>  <cdx:fragmentId>
15

$$$$
