95525.cdx
  Mrv1902 05222410252D          

 18 19  0  0  0  0            999 V2000
    5.6207   -7.0262    0.0000 C   0  0  0  0  0  0  0  0  0  0  0  0
    4.9062   -7.4387    0.0000 C   0  0  0  0  0  0  0  0  0  0  0  0
    4.9062   -8.2637    0.0000 C   0  0  0  0  0  0  0  0  0  0  0  0
    5.6207   -8.6762    0.0000 C   0  0  0  0  0  0  0  0  0  0  0  0
    5.6207   -9.5013    0.0000 C   0  0  0  0  0  0  0  0  0  0  0  0
    6.3351   -8.2637    0.0000 C   0  0  2  0  0  0  0  0  0  0  0  0
    6.3351   -9.0887    0.0000 H   0  0  0  0  0  0  0  0  0  0  0  0
    7.0496   -8.6762    0.0000 C   0  0  0  0  0  0  0  0  0  0  0  0
    7.7641   -8.2637    0.0000 C   0  0  2  0  0  0  0  0  0  0  0  0
    8.4785   -8.6762    0.0000 C   0  0  0  0  0  0  0  0  0  0  0  0
    8.4785   -9.5013    0.0000 C   0  0  0  0  0  0  0  0  0  0  0  0
    9.1930   -8.2637    0.0000 C   0  0  0  0  0  0  0  0  0  0  0  0
    7.7641   -7.4387    0.0000 C   0  0  0  0  0  0  0  0  0  0  0  0
    7.0496   -7.0263    0.0000 C   0  0  0  0  0  0  0  0  0  0  0  0
    6.3351   -7.4387    0.0000 C   0  0  1  0  0  0  0  0  0  0  0  0
    6.3351   -6.6137    0.0000 C   0  0  0  0  0  0  0  0  0  0  0  0
    8.4785   -7.8513    0.0000 O   0  0  0  0  0  0  0  0  0  0  0  0
    9.1930   -9.0887    0.0000 O   0  0  0  0  0  0  0  0  0  0  0  0
  1  2  1  0  0  0  0
  2  3  1  0  0  0  0
  3  4  1  0  0  0  0
  4  5  2  0  0  0  0
  4  6  1  0  0  0  0
  6  7  1  6  0  0  0
  6  8  1  0  0  0  0
  8  9  1  0  0  0  0
  9 10  1  1  0  0  0
 10 11  1  0  0  0  0
 10 12  1  0  0  0  0
  9 13  1  0  0  0  0
 13 14  1  0  0  0  0
 14 15  1  0  0  0  0
 15 16  1  1  0  0  0
  6 15  1  0  0  0  0
  1 15  1  0  0  0  0
  9 17  1  6  0  0  0
 10 18  1  0  0  0  0
M  END
>  <cdx:fragmentId>
5

$$$$
