95528.cdx
  Mrv1902 05222410212D          

 17 19  0  0  0  0            999 V2000
    6.4812   -7.7510    0.0000 C   0  0  0  0  0  0  0  0  0  0  0  0
    7.1956   -8.1635    0.0000 C   0  0  0  0  0  0  0  0  0  0  0  0
    7.1956   -8.9885    0.0000 C   0  0  0  0  0  0  0  0  0  0  0  0
    6.4812   -9.4010    0.0000 C   0  0  0  0  0  0  0  0  0  0  0  0
    5.7667   -8.9885    0.0000 C   0  0  0  0  0  0  0  0  0  0  0  0
    5.0522   -9.4010    0.0000 C   0  0  0  0  0  0  0  0  0  0  0  0
    4.3378   -8.9885    0.0000 C   0  0  0  0  0  0  0  0  0  0  0  0
    4.3378   -8.1635    0.0000 C   0  0  0  0  0  0  0  0  0  0  0  0
    5.0522   -7.7510    0.0000 C   0  0  0  0  0  0  0  0  0  0  0  0
    5.7667   -8.1635    0.0000 C   0  0  0  0  0  0  0  0  0  0  0  0
    7.9101   -7.7510    0.0000 N   0  0  0  0  0  0  0  0  0  0  0  0
    8.6246   -8.1635    0.0000 C   0  0  0  0  0  0  0  0  0  0  0  0
    9.3391   -7.7510    0.0000 C   0  0  0  0  0  0  0  0  0  0  0  0
   10.0535   -8.1635    0.0000 C   0  0  0  0  0  0  0  0  0  0  0  0
   10.0535   -8.9885    0.0000 C   0  0  0  0  0  0  0  0  0  0  0  0
    9.3391   -9.4010    0.0000 C   0  0  0  0  0  0  0  0  0  0  0  0
    8.6246   -8.9885    0.0000 C   0  0  0  0  0  0  0  0  0  0  0  0
  1  2  1  0  0  0  0
  2  3  2  0  0  0  0
  3  4  1  0  0  0  0
  4  5  2  0  0  0  0
  5  6  1  0  0  0  0
  6  7  2  0  0  0  0
  7  8  1  0  0  0  0
  8  9  2  0  0  0  0
  9 10  1  0  0  0  0
  1 10  2  0  0  0  0
  5 10  1  0  0  0  0
  2 11  1  0  0  0  0
 12 13  1  0  0  0  0
 13 14  2  0  0  0  0
 14 15  1  0  0  0  0
 15 16  2  0  0  0  0
 16 17  1  0  0  0  0
 12 17  2  0  0  0  0
 11 12  1  0  0  0  0
M  END
>  <cdx:groupId>
55

>  <cdx:fragmentId>
5

$$$$
