95537.cdx
  Mrv1902 05222410232D          

 29 31  0  0  0  0            999 V2000
    2.2531   -8.5388    0.0000 C   0  0  0  0  0  0  0  0  0  0  0  0
    2.2531   -9.3637    0.0000 C   0  0  0  0  0  0  0  0  0  0  0  0
    2.9675   -9.7763    0.0000 C   0  0  0  0  0  0  0  0  0  0  0  0
    3.6820   -9.3637    0.0000 C   0  0  0  0  0  0  0  0  0  0  0  0
    3.6820   -8.5388    0.0000 C   0  0  0  0  0  0  0  0  0  0  0  0
    2.9675   -8.1263    0.0000 C   0  0  0  0  0  0  0  0  0  0  0  0
    4.4666   -9.6187    0.0000 O   0  0  0  0  0  0  0  0  0  0  0  0
    4.9515   -8.9513    0.0000 C   0  0  0  0  0  0  0  0  0  0  0  0
    4.4666   -8.2838    0.0000 C   0  0  0  0  0  0  0  0  0  0  0  0
    5.7765   -8.9513    0.0000 C   0  0  0  0  0  0  0  0  0  0  0  0
    1.5386   -9.7763    0.0000 O   0  0  0  0  0  0  0  0  0  0  0  0
    6.1890   -9.6657    0.0000 C   0  0  0  0  0  0  0  0  0  0  0  0
    7.0140   -9.6657    0.0000 C   0  0  0  0  0  0  0  0  0  0  0  0
    7.4265   -8.9513    0.0000 C   0  0  0  0  0  0  0  0  0  0  0  0
    7.0140   -8.2368    0.0000 C   0  0  0  0  0  0  0  0  0  0  0  0
    6.1890   -8.2368    0.0000 C   0  0  0  0  0  0  0  0  0  0  0  0
    7.4265   -7.5223    0.0000 O   0  0  0  0  0  0  0  0  0  0  0  0
    7.4265  -10.3802    0.0000 O   0  0  0  0  0  0  0  0  0  0  0  0
    8.2153   -8.9478    0.0000 C   0  0  0  0  0  0  0  0  0  0  0  0
    8.6236   -8.2309    0.0000 C   0  0  0  0  0  0  0  0  0  0  0  0
    9.4486   -8.2261    0.0000 C   0  0  0  0  0  0  0  0  0  0  0  0
    9.8569   -7.5092    0.0000 C   0  0  0  0  0  0  0  0  0  0  0  0
    9.8652   -8.9381    0.0000 C   0  0  0  0  0  0  0  0  0  0  0  0
   10.6819   -7.5044    0.0000 C   0  0  0  0  0  0  0  0  0  0  0  0
   11.0902   -6.7875    0.0000 C   0  0  0  0  0  0  0  0  0  0  0  0
   11.9152   -6.7827    0.0000 C   0  0  0  0  0  0  0  0  0  0  0  0
   10.6735   -6.0755    0.0000 O   0  0  0  0  0  0  0  0  0  0  0  0
   12.3235   -6.0658    0.0000 C   0  0  0  0  0  0  0  0  0  0  0  0
   12.3319   -7.4947    0.0000 C   0  0  0  0  0  0  0  0  0  0  0  0
  1  2  2  0  0  0  0
  2  3  1  0  0  0  0
  3  4  2  0  0  0  0
  4  5  1  0  0  0  0
  5  6  2  0  0  0  0
  6  1  1  0  0  0  0
  4  7  1  0  0  0  0
  7  8  1  0  0  0  0
  8  9  2  0  0  0  0
  9  5  1  0  0  0  0
  8 10  1  0  0  0  0
  2 11  1  0  0  0  0
 10 12  2  0  0  0  0
 12 13  1  0  0  0  0
 13 14  2  0  0  0  0
 14 15  1  0  0  0  0
 15 16  2  0  0  0  0
 16 10  1  0  0  0  0
 15 17  1  0  0  0  0
 13 18  1  0  0  0  0
 19 20  1  0  0  0  0
 20 21  2  0  0  0  0
 21 22  1  0  0  0  0
 21 23  1  0  0  0  0
 22 24  1  0  0  0  0
 24 25  1  0  0  0  0
 25 26  1  0  0  0  0
 25 27  1  0  0  0  0
 26 28  2  0  0  0  0
 26 29  1  0  0  0  0
 19 14  1  0  0  0  0
M  END
>  <cdx:fragmentId>
5

$$$$
