95536.cdx
  Mrv1902 05222410232D          

 30 32  0  0  0  0            999 V2000
    1.9506   -8.5938    0.0000 C   0  0  0  0  0  0  0  0  0  0  0  0
    1.9506   -9.4187    0.0000 C   0  0  0  0  0  0  0  0  0  0  0  0
    2.6650   -9.8312    0.0000 C   0  0  0  0  0  0  0  0  0  0  0  0
    3.3795   -9.4187    0.0000 C   0  0  0  0  0  0  0  0  0  0  0  0
    3.3795   -8.5938    0.0000 C   0  0  0  0  0  0  0  0  0  0  0  0
    2.6650   -8.1813    0.0000 C   0  0  0  0  0  0  0  0  0  0  0  0
    4.1641   -9.6737    0.0000 O   0  0  0  0  0  0  0  0  0  0  0  0
    4.6490   -9.0062    0.0000 C   0  0  0  0  0  0  0  0  0  0  0  0
    4.1641   -8.3388    0.0000 C   0  0  0  0  0  0  0  0  0  0  0  0
    5.4740   -9.0062    0.0000 C   0  0  0  0  0  0  0  0  0  0  0  0
    1.2361   -9.8312    0.0000 O   0  0  0  0  0  0  0  0  0  0  0  0
    5.8865   -9.7207    0.0000 C   0  0  0  0  0  0  0  0  0  0  0  0
    6.7115   -9.7207    0.0000 C   0  0  0  0  0  0  0  0  0  0  0  0
    7.1240   -9.0062    0.0000 C   0  0  0  0  0  0  0  0  0  0  0  0
    6.7115   -8.2918    0.0000 C   0  0  0  0  0  0  0  0  0  0  0  0
    5.8865   -8.2918    0.0000 C   0  0  0  0  0  0  0  0  0  0  0  0
    7.1240   -7.5773    0.0000 O   0  0  0  0  0  0  0  0  0  0  0  0
    7.1240  -10.4352    0.0000 O   0  0  0  0  0  0  0  0  0  0  0  0
    7.9128   -9.0028    0.0000 C   0  0  0  0  0  0  0  0  0  0  0  0
    8.3211   -8.2859    0.0000 C   0  0  0  0  0  0  0  0  0  0  0  0
    9.1461   -8.2811    0.0000 C   0  0  0  0  0  0  0  0  0  0  0  0
    9.5544   -7.5642    0.0000 C   0  0  0  0  0  0  0  0  0  0  0  0
    9.5627   -8.9931    0.0000 C   0  0  0  0  0  0  0  0  0  0  0  0
   10.3794   -7.5594    0.0000 C   0  0  0  0  0  0  0  0  0  0  0  0
   10.7877   -6.8425    0.0000 C   0  0  0  0  0  0  0  0  0  0  0  0
   11.6127   -6.8377    0.0000 C   0  0  0  0  0  0  0  0  0  0  0  0
   10.3710   -6.1305    0.0000 O   0  0  0  0  0  0  0  0  0  0  0  0
   11.6127   -6.0127    0.0000 C   0  0  0  0  0  0  0  0  0  0  0  0
   11.6127   -7.6627    0.0000 C   0  0  0  0  0  0  0  0  0  0  0  0
   12.4377   -6.8368    0.0000 O   0  0  0  0  0  0  0  0  0  0  0  0
  1  2  2  0  0  0  0
  2  3  1  0  0  0  0
  3  4  2  0  0  0  0
  4  5  1  0  0  0  0
  5  6  2  0  0  0  0
  6  1  1  0  0  0  0
  4  7  1  0  0  0  0
  7  8  1  0  0  0  0
  8  9  2  0  0  0  0
  9  5  1  0  0  0  0
  8 10  1  0  0  0  0
  2 11  1  0  0  0  0
 10 12  2  0  0  0  0
 12 13  1  0  0  0  0
 13 14  2  0  0  0  0
 14 15  1  0  0  0  0
 15 16  2  0  0  0  0
 16 10  1  0  0  0  0
 15 17  1  0  0  0  0
 13 18  1  0  0  0  0
 19 20  1  0  0  0  0
 20 21  2  0  0  0  0
 21 22  1  0  0  0  0
 21 23  1  0  0  0  0
 22 24  1  0  0  0  0
 24 25  1  0  0  0  0
 25 26  1  0  0  0  0
 25 27  1  0  0  0  0
 26 28  1  0  0  0  0
 26 29  1  0  0  0  0
 26 30  1  0  0  0  0
 19 14  1  0  0  0  0
M  END
>  <cdx:fragmentId>
5

$$$$
