95531.cdx
  Mrv1902 05222410252D          

 27 29  0  0  0  0            999 V2000
    6.7749   -7.4633    0.0000 O   0  0  0  0  0  0  0  0  0  0  0  0
    6.0482   -7.0728    0.0000 C   0  0  0  0  0  0  0  0  0  0  0  0
    6.0231   -6.2481    0.0000 C   0  0  0  0  0  0  0  0  0  0  0  0
    5.3466   -7.5068    0.0000 O   0  0  0  0  0  0  0  0  0  0  0  0
    5.3748   -8.3047    0.0000 O   0  0  0  0  0  0  0  0  0  0  0  0
    4.6561   -8.7098    0.0000 C   0  0  0  0  0  0  0  0  0  0  0  0
    3.9460   -8.2900    0.0000 C   0  0  0  0  0  0  0  0  0  0  0  0
    4.6476   -9.5348    0.0000 O   0  0  0  0  0  0  0  0  0  0  0  0
    5.6972  -10.2603    0.0000 C   0  0  0  0  0  0  0  0  0  0  0  0
    5.2847   -9.5458    0.0000 C   0  0  0  0  0  0  0  0  0  0  0  0
    8.9073   -6.1945    0.0000 O   0  0  0  0  0  0  0  0  0  0  0  0
    9.6590   -8.2438    0.0000 C   0  0  0  0  0  0  0  0  0  0  0  0
    9.6441   -7.4189    0.0000 C   0  0  0  0  0  0  0  0  0  0  0  0
    8.9222   -7.0194    0.0000 C   0  0  0  0  0  0  0  0  0  0  0  0
    8.2153   -7.4448    0.0000 O   0  0  0  0  0  0  0  0  0  0  0  0
    8.2602   -9.9194    0.0000 C   0  0  0  0  0  0  0  0  0  0  0  0
    8.9671   -9.4940    0.0000 C   0  0  0  0  0  0  0  0  0  0  0  0
    8.9521   -8.6691    0.0000 C   0  0  0  0  0  0  0  0  0  0  0  0
    8.2303   -8.2697    0.0000 C   0  0  0  0  0  0  0  0  0  0  0  0
    7.5384   -9.5199    0.0000 C   0  0  0  0  0  0  0  0  0  0  0  0
    7.5234   -8.6950    0.0000 C   0  0  0  0  0  0  0  0  0  0  0  0
    6.8016   -8.2955    0.0000 C   0  0  2  0  0  0  0  0  0  0  0  0
    6.0947   -8.7209    0.0000 C   0  0  1  0  0  0  0  0  0  0  0  0
    6.1097   -9.5458    0.0000 C   0  0  0  0  0  0  0  0  0  0  0  0
    6.8315   -9.9453    0.0000 O   0  0  0  0  0  0  0  0  0  0  0  0
    6.7247   -5.8141    0.0000 C   0  0  0  0  0  0  0  0  0  0  0  0
    5.2964   -5.8576    0.0000 C   0  0  0  0  0  0  0  0  0  0  0  0
 22  1  1  6  0  0  0
 23  5  1  1  0  0  0
  1  2  1  0  0  0  0
  2  3  1  0  0  0  0
  2  4  2  0  0  0  0
  5  6  1  0  0  0  0
  6  7  1  0  0  0  0
  6  8  2  0  0  0  0
 24  9  1  0  0  0  0
 24 10  1  0  0  0  0
 14 11  2  0  0  0  0
 12 18  1  0  0  0  0
 13 12  2  0  0  0  0
 14 13  1  0  0  0  0
 15 14  1  0  0  0  0
 19 15  1  0  0  0  0
 16 20  1  0  0  0  0
 17 16  2  0  0  0  0
 18 17  1  0  0  0  0
 19 18  2  0  0  0  0
 21 19  1  0  0  0  0
 20 25  1  0  0  0  0
 21 20  2  0  0  0  0
 22 21  1  0  0  0  0
 23 22  1  0  0  0  0
 24 23  1  0  0  0  0
 25 24  1  0  0  0  0
  3 26  1  0  0  0  0
  3 27  1  0  0  0  0
M  END
>  <cdx:fragmentId>
5

$$$$
