95535.cdx
  Mrv1902 05222410242D          

 29 32  0  0  0  0            999 V2000
    3.6968   -6.2700    0.0000 C   0  0  0  0  0  0  0  0  0  0  0  0
    3.6968   -7.0950    0.0000 C   0  0  0  0  0  0  0  0  0  0  0  0
    4.4113   -7.5075    0.0000 C   0  0  0  0  0  0  0  0  0  0  0  0
    5.1257   -7.0950    0.0000 C   0  0  0  0  0  0  0  0  0  0  0  0
    5.1257   -6.2700    0.0000 C   0  0  0  0  0  0  0  0  0  0  0  0
    4.4113   -5.8575    0.0000 C   0  0  0  0  0  0  0  0  0  0  0  0
    5.9104   -7.3499    0.0000 O   0  0  0  0  0  0  0  0  0  0  0  0
    6.3953   -6.6825    0.0000 C   0  0  0  0  0  0  0  0  0  0  0  0
    5.9104   -6.0151    0.0000 C   0  0  0  0  0  0  0  0  0  0  0  0
    2.9823   -7.5075    0.0000 O   0  0  0  0  0  0  0  0  0  0  0  0
    7.2203   -6.6825    0.0000 C   0  0  0  0  0  0  0  0  0  0  0  0
    7.6328   -7.3970    0.0000 C   0  0  0  0  0  0  0  0  0  0  0  0
    8.4578   -7.3970    0.0000 C   0  0  0  0  0  0  0  0  0  0  0  0
    8.8703   -6.6825    0.0000 C   0  0  0  0  0  0  0  0  0  0  0  0
    8.4578   -5.9680    0.0000 C   0  0  0  0  0  0  0  0  0  0  0  0
    7.6328   -5.9680    0.0000 C   0  0  0  0  0  0  0  0  0  0  0  0
    8.8703   -5.2536    0.0000 O   0  0  0  0  0  0  0  0  0  0  0  0
    8.8703   -8.1114    0.0000 O   0  0  0  0  0  0  0  0  0  0  0  0
    9.6953   -8.1114    0.0000 C   0  0  0  0  0  0  0  0  0  0  0  0
   10.1078   -7.3970    0.0000 C   0  0  1  0  0  0  0  0  0  0  0  0
    9.6953   -6.6825    0.0000 C   0  0  0  0  0  0  0  0  0  0  0  0
   10.1078   -8.8259    0.0000 C   0  0  1  0  0  0  0  0  0  0  0  0
   10.9328   -8.8259    0.0000 C   0  0  0  0  0  0  0  0  0  0  0  0
   11.3453   -8.1114    0.0000 C   0  0  0  0  0  0  0  0  0  0  0  0
   10.9328   -7.3970    0.0000 C   0  0  0  0  0  0  0  0  0  0  0  0
    8.9808   -7.6989    0.0000 C   0  0  0  0  0  0  0  0  0  0  0  0
    9.1119   -8.6948    0.0000 C   0  0  0  0  0  0  0  0  0  0  0  0
   11.3453   -6.6825    0.0000 C   0  0  0  0  0  0  0  0  0  0  0  0
    9.6953   -9.5404    0.0000 O   0  0  0  0  0  0  0  0  0  0  0  0
  1  2  2  0  0  0  0
  2  3  1  0  0  0  0
  3  4  2  0  0  0  0
  4  5  1  0  0  0  0
  5  6  2  0  0  0  0
  6  1  1  0  0  0  0
  4  7  1  0  0  0  0
  7  8  1  0  0  0  0
  8  9  2  0  0  0  0
  9  5  1  0  0  0  0
  2 10  1  0  0  0  0
  8 11  1  0  0  0  0
 11 12  2  0  0  0  0
 12 13  1  0  0  0  0
 13 14  2  0  0  0  0
 14 15  1  0  0  0  0
 15 16  2  0  0  0  0
 16 11  1  0  0  0  0
 15 17  1  0  0  0  0
 13 18  1  0  0  0  0
 19 20  1  0  0  0  0
 20 21  1  1  0  0  0
 21 14  1  0  0  0  0
 19 22  1  0  0  0  0
 22 23  1  0  0  0  0
 23 24  1  0  0  0  0
 24 25  1  0  0  0  0
 25 20  1  0  0  0  0
 19 26  1  0  0  0  0
 19 27  1  0  0  0  0
 25 28  2  0  0  0  0
 22 29  1  1  0  0  0
M  END
>  <cdx:fragmentId>
5

$$$$
