95532.cdx
  Mrv1902 05222410252D          

 29 30  0  0  0  0            999 V2000
    9.8458   -9.4479    0.0000 C   0  0  0  0  0  0  0  0  0  0  0  0
    9.1313   -9.0354    0.0000 C   0  0  0  0  0  0  0  0  0  0  0  0
    9.1313   -8.2104    0.0000 C   0  0  1  0  0  0  0  0  0  0  0  0
    9.8458   -7.7979    0.0000 C   0  0  0  0  0  0  0  0  0  0  0  0
   10.5603   -8.2104    0.0000 C   0  0  0  0  0  0  0  0  0  0  0  0
   11.2747   -7.7979    0.0000 C   0  0  0  0  0  0  0  0  0  0  0  0
   11.9892   -8.2104    0.0000 C   0  0  0  0  0  0  0  0  0  0  0  0
   12.7037   -7.7979    0.0000 C   0  0  0  0  0  0  0  0  0  0  0  0
    8.4168   -7.7979    0.0000 O   0  0  0  0  0  0  0  0  0  0  0  0
    7.7024   -8.2104    0.0000 C   0  0  1  0  0  0  0  0  0  0  0  0
    7.7024   -9.0354    0.0000 C   0  0  2  0  0  0  0  0  0  0  0  0
    8.4168   -9.4479    0.0000 O   0  0  0  0  0  0  0  0  0  0  0  0
    6.9879   -9.4479    0.0000 C   0  0  1  0  0  0  0  0  0  0  0  0
    6.9879  -10.2729    0.0000 O   0  0  0  0  0  0  0  0  0  0  0  0
    6.2734   -9.0354    0.0000 C   0  0  2  0  0  0  0  0  0  0  0  0
    5.5590   -9.4479    0.0000 O   0  0  0  0  0  0  0  0  0  0  0  0
    6.2734   -8.2104    0.0000 C   0  0  2  0  0  0  0  0  0  0  0  0
    6.9879   -7.7979    0.0000 O   0  0  0  0  0  0  0  0  0  0  0  0
    5.5590   -7.7979    0.0000 C   0  0  0  0  0  0  0  0  0  0  0  0
    4.8445   -8.2104    0.0000 O   0  0  0  0  0  0  0  0  0  0  0  0
    4.1300   -7.7979    0.0000 C   0  0  1  0  0  0  0  0  0  0  0  0
    3.4155   -8.2104    0.0000 C   0  0  2  0  0  0  0  0  0  0  0  0
    3.4155   -9.0354    0.0000 O   0  0  0  0  0  0  0  0  0  0  0  0
    2.7011   -7.7979    0.0000 C   0  0  1  0  0  0  0  0  0  0  0  0
    1.9866   -8.2104    0.0000 O   0  0  0  0  0  0  0  0  0  0  0  0
    2.7011   -6.9729    0.0000 C   0  0  1  0  0  0  0  0  0  0  0  0
    1.9866   -6.5604    0.0000 O   0  0  0  0  0  0  0  0  0  0  0  0
    3.4155   -6.5604    0.0000 C   0  0  0  0  0  0  0  0  0  0  0  0
    4.1300   -6.9729    0.0000 O   0  0  0  0  0  0  0  0  0  0  0  0
  1  2  2  0  0  0  0
  2  3  1  0  0  0  0
  3  4  1  0  0  0  0
  4  5  1  0  0  0  0
  5  6  1  0  0  0  0
  6  7  1  0  0  0  0
  7  8  1  0  0  0  0
  3  9  1  6  0  0  0
 10 11  1  0  0  0  0
 11 12  1  6  0  0  0
 11 13  1  0  0  0  0
 13 14  1  1  0  0  0
 13 15  1  0  0  0  0
 15 16  1  6  0  0  0
 15 17  1  0  0  0  0
 17 18  1  0  0  0  0
 17 19  1  1  0  0  0
 19 20  1  0  0  0  0
 10 18  1  0  0  0  0
 21 22  1  0  0  0  0
 22 23  1  6  0  0  0
 22 24  1  0  0  0  0
 24 25  1  1  0  0  0
 24 26  1  0  0  0  0
 26 27  1  1  0  0  0
 26 28  1  0  0  0  0
 28 29  1  0  0  0  0
 21 29  1  0  0  0  0
 21 20  1  1  0  0  0
 10  9  1  1  0  0  0
M  END
>  <cdx:fragmentId>
23

$$$$
