95544.cdx
  Mrv1902 05222410282D          

 30 32  0  0  0  0            999 V2000
    4.6181   -8.4288    0.0000 C   0  0  0  0  0  0  0  0  0  0  0  0
    4.6181   -9.2538    0.0000 C   0  0  0  0  0  0  0  0  0  0  0  0
    5.3325   -9.6662    0.0000 C   0  0  0  0  0  0  0  0  0  0  0  0
    6.0470   -9.2538    0.0000 C   0  0  0  0  0  0  0  0  0  0  0  0
    6.0470   -8.4288    0.0000 C   0  0  0  0  0  0  0  0  0  0  0  0
    5.3325   -8.0162    0.0000 C   0  0  0  0  0  0  0  0  0  0  0  0
    6.8316   -9.5087    0.0000 O   0  0  0  0  0  0  0  0  0  0  0  0
    7.3165   -8.8413    0.0000 C   0  0  0  0  0  0  0  0  0  0  0  0
    6.8316   -8.1738    0.0000 C   0  0  0  0  0  0  0  0  0  0  0  0
    8.1415   -8.8413    0.0000 C   0  0  0  0  0  0  0  0  0  0  0  0
    3.9036   -9.6662    0.0000 O   0  0  0  0  0  0  0  0  0  0  0  0
    8.5540   -9.5557    0.0000 C   0  0  0  0  0  0  0  0  0  0  0  0
    9.3790   -9.5557    0.0000 C   0  0  0  0  0  0  0  0  0  0  0  0
    9.7915   -8.8413    0.0000 C   0  0  0  0  0  0  0  0  0  0  0  0
    9.3790   -8.1268    0.0000 C   0  0  0  0  0  0  0  0  0  0  0  0
    8.5540   -8.1268    0.0000 C   0  0  0  0  0  0  0  0  0  0  0  0
    9.7915   -7.4123    0.0000 O   0  0  0  0  0  0  0  0  0  0  0  0
   10.6165   -7.4123    0.0000 C   0  0  0  0  0  0  0  0  0  0  0  0
    9.7915  -10.2702    0.0000 O   0  0  0  0  0  0  0  0  0  0  0  0
    8.1210   -7.3954    0.0000 C   0  0  0  0  0  0  0  0  0  0  0  0
    7.2960   -7.3993    0.0000 C   0  0  0  0  0  0  0  0  0  0  0  0
    6.8801   -6.6868    0.0000 C   0  0  0  0  0  0  0  0  0  0  0  0
    6.0551   -6.6908    0.0000 C   0  0  0  0  0  0  0  0  0  0  0  0
    7.2892   -5.9704    0.0000 C   0  0  0  0  0  0  0  0  0  0  0  0
    5.6392   -5.9783    0.0000 C   0  0  0  0  0  0  0  0  0  0  0  0
    4.8142   -5.9823    0.0000 C   0  0  1  0  0  0  0  0  0  0  0  0
    4.3982   -5.2698    0.0000 C   0  0  0  0  0  0  0  0  0  0  0  0
    4.4051   -6.6988    0.0000 O   0  0  0  0  0  0  0  0  0  0  0  0
    3.5733   -5.2738    0.0000 C   0  0  0  0  0  0  0  0  0  0  0  0
    4.8073   -4.5534    0.0000 C   0  0  0  0  0  0  0  0  0  0  0  0
  1  2  2  0  0  0  0
  2  3  1  0  0  0  0
  3  4  2  0  0  0  0
  4  5  1  0  0  0  0
  5  6  2  0  0  0  0
  6  1  1  0  0  0  0
  4  7  1  0  0  0  0
  7  8  1  0  0  0  0
  8  9  2  0  0  0  0
  9  5  1  0  0  0  0
  8 10  1  0  0  0  0
  2 11  1  0  0  0  0
 10 12  2  0  0  0  0
 12 13  1  0  0  0  0
 13 14  2  0  0  0  0
 14 15  1  0  0  0  0
 15 16  2  0  0  0  0
 16 10  1  0  0  0  0
 15 17  1  0  0  0  0
 17 18  1  0  0  0  0
 13 19  1  0  0  0  0
 20 21  1  0  0  0  0
 21 22  2  0  0  0  0
 22 23  1  0  0  0  0
 22 24  1  0  0  0  0
 23 25  1  0  0  0  0
 25 26  1  0  0  0  0
 26 27  1  0  0  0  0
 26 28  1  6  0  0  0
 27 29  2  0  0  0  0
 27 30  1  0  0  0  0
 20 16  1  0  0  0  0
M  END
>  <cdx:fragmentId>
5

$$$$
