95546.cdx
  Mrv1902 05222410272D          

 35 38  0  0  0  0            999 V2000
    6.8384   -7.4344    0.0000 C   0  0  0  0  0  0  0  0  0  0  0  0
    6.8384   -6.6094    0.0000 C   0  0  0  0  0  0  0  0  0  0  0  0
    6.1239   -6.1969    0.0000 C   0  0  0  0  0  0  0  0  0  0  0  0
    5.4095   -6.6094    0.0000 C   0  0  0  0  0  0  0  0  0  0  0  0
    4.6950   -6.1969    0.0000 C   0  0  0  0  0  0  0  0  0  0  0  0
    3.9805   -6.6094    0.0000 C   0  0  0  0  0  0  0  0  0  0  0  0
    3.9805   -7.4344    0.0000 C   0  0  0  0  0  0  0  0  0  0  0  0
    4.6950   -7.8469    0.0000 C   0  0  0  0  0  0  0  0  0  0  0  0
    5.4095   -7.4344    0.0000 C   0  0  0  0  0  0  0  0  0  0  0  0
    6.1239   -7.8469    0.0000 O   0  0  0  0  0  0  0  0  0  0  0  0
    6.1239   -5.3719    0.0000 O   0  0  0  0  0  0  0  0  0  0  0  0
    4.6950   -8.6719    0.0000 C   0  0  0  0  0  0  0  0  0  0  0  0
    3.9805   -9.0844    0.0000 C   0  0  0  0  0  0  0  0  0  0  0  0
    3.9805   -9.9094    0.0000 C   0  0  0  0  0  0  0  0  0  0  0  0
    4.6950  -10.3219    0.0000 C   0  0  0  0  0  0  0  0  0  0  0  0
    3.2661  -10.3219    0.0000 C   0  0  0  0  0  0  0  0  0  0  0  0
    3.2661   -7.8469    0.0000 O   0  0  0  0  0  0  0  0  0  0  0  0
   10.4108   -8.6719    0.0000 C   0  0  0  0  0  0  0  0  0  0  0  0
   10.4108   -7.8469    0.0000 C   0  0  0  0  0  0  0  0  0  0  0  0
    9.6963   -7.4344    0.0000 C   0  0  0  0  0  0  0  0  0  0  0  0
    8.9818   -7.8469    0.0000 C   0  0  0  0  0  0  0  0  0  0  0  0
    8.2674   -7.4344    0.0000 C   0  0  0  0  0  0  0  0  0  0  0  0
    7.5529   -7.8469    0.0000 C   0  0  0  0  0  0  0  0  0  0  0  0
    7.5529   -8.6719    0.0000 C   0  0  0  0  0  0  0  0  0  0  0  0
    8.2674   -9.0844    0.0000 C   0  0  0  0  0  0  0  0  0  0  0  0
    8.9818   -8.6719    0.0000 C   0  0  0  0  0  0  0  0  0  0  0  0
    9.6963   -9.0844    0.0000 O   0  0  0  0  0  0  0  0  0  0  0  0
    8.2674   -9.9094    0.0000 C   0  0  0  0  0  0  0  0  0  0  0  0
    8.9818  -10.3219    0.0000 C   0  0  0  0  0  0  0  0  0  0  0  0
    8.9818  -11.1469    0.0000 C   0  0  0  0  0  0  0  0  0  0  0  0
    8.2674  -11.5594    0.0000 C   0  0  0  0  0  0  0  0  0  0  0  0
    9.6963  -11.5594    0.0000 C   0  0  0  0  0  0  0  0  0  0  0  0
   11.2358   -8.6719    0.0000 C   0  0  0  0  0  0  0  0  0  0  0  0
   10.8233   -9.3864    0.0000 C   0  0  0  0  0  0  0  0  0  0  0  0
   11.1252   -7.4344    0.0000 O   0  0  0  0  0  0  0  0  0  0  0  0
  1  2  1  0  0  0  0
  2  3  1  0  0  0  0
  3  4  1  0  0  0  0
  4  5  1  0  0  0  0
  5  6  2  0  0  0  0
  6  7  1  0  0  0  0
  7  8  2  0  0  0  0
  8  9  1  0  0  0  0
  4  9  2  0  0  0  0
  9 10  1  0  0  0  0
  1 10  1  0  0  0  0
  3 11  2  0  0  0  0
 12 13  1  0  0  0  0
 13 14  2  0  0  0  0
 14 15  1  0  0  0  0
 14 16  1  0  0  0  0
  8 12  1  0  0  0  0
  7 17  1  0  0  0  0
 18 19  1  0  0  0  0
 19 20  1  0  0  0  0
 20 21  1  0  0  0  0
 21 22  1  0  0  0  0
 22 23  2  0  0  0  0
 23 24  1  0  0  0  0
 24 25  2  0  0  0  0
 25 26  1  0  0  0  0
 21 26  2  0  0  0  0
 26 27  1  0  0  0  0
 18 27  1  0  0  0  0
 28 29  1  0  0  0  0
 29 30  2  0  0  0  0
 30 31  1  0  0  0  0
 30 32  1  0  0  0  0
 25 28  1  0  0  0  0
 18 33  1  0  0  0  0
 18 34  1  0  0  0  0
 19 35  1  0  0  0  0
  1 23  1  0  0  0  0
M  END
>  <cdx:groupId>
110

>  <cdx:fragmentId>
39

$$$$
