95549.cdx
  Mrv1902 05222410182D          

 56 62  0  0  0  0            999 V2000
    4.2830   -9.8381    0.0000 C   0  0  1  0  0  0  0  0  0  0  0  0
    4.2830   -9.0131    0.0000 C   0  0  0  0  0  0  0  0  0  0  0  0
    4.9975   -8.6006    0.0000 C   0  0  0  0  0  0  0  0  0  0  0  0
    4.9975  -10.2506    0.0000 C   0  0  0  0  0  0  0  0  0  0  0  0
    5.4100  -10.9651    0.0000 C   0  0  0  0  0  0  0  0  0  0  0  0
    4.5850  -10.9651    0.0000 C   0  0  0  0  0  0  0  0  0  0  0  0
    5.7120   -9.8381    0.0000 C   0  0  2  0  0  0  0  0  0  0  0  0
    5.7120  -10.6631    0.0000 H   0  0  0  0  0  0  0  0  0  0  0  0
    6.4264  -10.2506    0.0000 C   0  0  0  0  0  0  0  0  0  0  0  0
    7.1409   -9.8381    0.0000 C   0  0  0  0  0  0  0  0  0  0  0  0
    7.1409   -9.0131    0.0000 C   0  0  1  0  0  0  0  0  0  0  0  0
    7.1409   -8.1881    0.0000 C   0  0  0  0  0  0  0  0  0  0  0  0
    7.8554   -8.6006    0.0000 C   0  0  2  0  0  0  0  0  0  0  0  0
    7.8554   -9.4256    0.0000 C   0  0  0  0  0  0  0  0  0  0  0  0
    8.5699   -9.0131    0.0000 C   0  0  0  0  0  0  0  0  0  0  0  0
    9.2843   -8.6006    0.0000 C   0  0  0  0  0  0  0  0  0  0  0  0
    9.2843   -7.7756    0.0000 C   0  0  1  0  0  0  0  0  0  0  0  0
    9.9988   -8.1881    0.0000 C   0  0  0  0  0  0  0  0  0  0  0  0
    9.9988   -7.3631    0.0000 C   0  0  0  0  0  0  0  0  0  0  0  0
    9.9988   -6.5381    0.0000 C   0  0  0  0  0  0  0  0  0  0  0  0
    9.2843   -6.1256    0.0000 C   0  0  1  0  0  0  0  0  0  0  0  0
    9.2843   -5.3006    0.0000 C   0  0  0  0  0  0  0  0  0  0  0  0
    8.5699   -6.5381    0.0000 C   0  0  0  0  0  0  0  0  0  0  0  0
    7.8554   -6.1256    0.0000 C   0  0  0  0  0  0  0  0  0  0  0  0
    8.5699   -7.3631    0.0000 C   0  0  1  0  0  0  0  0  0  0  0  0
    8.5699   -8.1881    0.0000 H   0  0  0  0  0  0  0  0  0  0  0  0
    7.8554   -7.7756    0.0000 C   0  0  0  0  0  0  0  0  0  0  0  0
    7.1409   -7.3631    0.0000 C   0  0  0  0  0  0  0  0  0  0  0  0
    6.4264   -7.7756    0.0000 C   0  0  0  0  0  0  0  0  0  0  0  0
    6.4264   -8.6006    0.0000 C   0  0  2  0  0  0  0  0  0  0  0  0
    5.7120   -9.0131    0.0000 C   0  0  1  0  0  0  0  0  0  0  0  0
    5.7120   -8.1881    0.0000 C   0  0  0  0  0  0  0  0  0  0  0  0
    9.9988   -9.0131    0.0000 O   0  0  0  0  0  0  0  0  0  0  0  0
    3.5686  -10.2506    0.0000 O   0  0  0  0  0  0  0  0  0  0  0  0
    2.8541   -9.8381    0.0000 C   0  0  1  0  0  0  0  0  0  0  0  0
    2.1396  -10.2506    0.0000 C   0  0  2  0  0  0  0  0  0  0  0  0
    2.1396  -11.0756    0.0000 O   0  0  0  0  0  0  0  0  0  0  0  0
    1.4251   -9.8381    0.0000 C   0  0  1  0  0  0  0  0  0  0  0  0
    0.7107  -10.2506    0.0000 O   0  0  0  0  0  0  0  0  0  0  0  0
    1.4251   -9.0131    0.0000 C   0  0  1  0  0  0  0  0  0  0  0  0
    0.7107   -8.6006    0.0000 O   0  0  0  0  0  0  0  0  0  0  0  0
    2.1396   -8.6006    0.0000 C   0  0  0  0  0  0  0  0  0  0  0  0
    2.8541   -9.0131    0.0000 O   0  0  0  0  0  0  0  0  0  0  0  0
    6.4264   -9.4256    0.0000 H   0  0  0  0  0  0  0  0  0  0  0  0
   12.8462  -10.6709    0.0000 O   0  0  0  0  0  0  0  0  0  0  0  0
   12.1332  -10.2558    0.0000 C   0  0  0  0  0  0  0  0  0  0  0  0
   11.4233   -9.0157    0.0000 O   0  0  0  0  0  0  0  0  0  0  0  0
   12.1362   -9.4308    0.0000 C   0  0  1  0  0  0  0  0  0  0  0  0
   13.5652   -9.4360    0.0000 O   0  0  0  0  0  0  0  0  0  0  0  0
   12.8522   -9.0209    0.0000 C   0  0  1  0  0  0  0  0  0  0  0  0
   13.5711   -7.7860    0.0000 O   0  0  0  0  0  0  0  0  0  0  0  0
   12.8552   -8.1959    0.0000 C   0  0  2  0  0  0  0  0  0  0  0  0
   12.1452   -6.9558    0.0000 O   0  0  0  0  0  0  0  0  0  0  0  0
   12.1422   -7.7808    0.0000 C   0  0  1  0  0  0  0  0  0  0  0  0
   11.4262   -8.1907    0.0000 C   0  0  2  0  0  0  0  0  0  0  0  0
   10.7133   -7.7756    0.0000 O   0  0  0  0  0  0  0  0  0  0  0  0
 55 56  1  1  0  0  0
 55 47  1  0  0  0  0
 46 45  1  0  0  0  0
 48 46  1  1  0  0  0
 48 47  1  0  0  0  0
 50 48  1  0  0  0  0
 50 49  1  6  0  0  0
 52 50  1  0  0  0  0
 52 51  1  1  0  0  0
 54 52  1  0  0  0  0
 54 53  1  6  0  0  0
 55 54  1  0  0  0  0
  1  2  1  0  0  0  0
  2  3  1  0  0  0  0
  1  4  1  0  0  0  0
  4  5  1  0  0  0  0
  4  6  1  0  0  0  0
  4  7  1  0  0  0  0
  7  8  1  6  0  0  0
  7  9  1  0  0  0  0
  9 10  1  0  0  0  0
 10 11  1  0  0  0  0
 11 12  1  1  0  0  0
 11 13  1  0  0  0  0
 13 14  1  6  0  0  0
 13 15  1  0  0  0  0
 15 16  1  0  0  0  0
 16 17  1  0  0  0  0
 17 18  1  1  0  0  0
 17 19  1  0  0  0  0
 19 20  1  0  0  0  0
 20 21  1  0  0  0  0
 21 22  1  6  0  0  0
 21 23  1  0  0  0  0
 23 24  2  0  0  0  0
 23 25  1  0  0  0  0
 25 26  1  1  0  0  0
 17 25  1  0  0  0  0
 25 27  1  0  0  0  0
 13 27  1  0  0  0  0
 27 28  2  0  0  0  0
 28 29  1  0  0  0  0
 29 30  1  0  0  0  0
 11 30  1  0  0  0  0
 30 31  1  0  0  0  0
  3 31  1  0  0  0  0
  7 31  1  0  0  0  0
 31 32  1  1  0  0  0
 18 33  2  0  0  0  0
 18 56  1  0  0  0  0
 35 36  1  0  0  0  0
 36 37  1  6  0  0  0
 36 38  1  0  0  0  0
 38 39  1  1  0  0  0
 38 40  1  0  0  0  0
 40 41  1  1  0  0  0
 40 42  1  0  0  0  0
 42 43  1  0  0  0  0
 35 43  1  0  0  0  0
 35 34  1  1  0  0  0
  1 34  1  1  0  0  0
 30 44  1  6  0  0  0
M  END
>  <cdx:groupId>
176

>  <cdx:fragmentId>
5

$$$$
