95548.cdx
  Mrv1902 05222410182D          

 39 42  0  0  0  0            999 V2000
    8.7706   -6.9173    0.0000 C   0  0  0  0  0  0  0  0  0  0  0  0
    8.7706   -7.7423    0.0000 C   0  0  0  0  0  0  0  0  0  0  0  0
    9.4851   -8.1548    0.0000 C   0  0  0  0  0  0  0  0  0  0  0  0
    9.4851   -8.9798    0.0000 C   0  0  0  0  0  0  0  0  0  0  0  0
    8.7706   -9.3923    0.0000 C   0  0  0  0  0  0  0  0  0  0  0  0
    8.0562   -8.9798    0.0000 C   0  0  0  0  0  0  0  0  0  0  0  0
    8.0562   -8.1548    0.0000 C   0  0  0  0  0  0  0  0  0  0  0  0
    8.0562   -6.5048    0.0000 O   0  0  0  0  0  0  0  0  0  0  0  0
    9.4851   -6.5048    0.0000 O   0  0  0  0  0  0  0  0  0  0  0  0
   10.1996   -7.7423    0.0000 O   0  0  0  0  0  0  0  0  0  0  0  0
    7.3417   -7.7423    0.0000 O   0  0  0  0  0  0  0  0  0  0  0  0
    6.6272   -8.1548    0.0000 C   0  0  1  0  0  0  0  0  0  0  0  0
    6.6272   -8.9798    0.0000 C   0  0  2  0  0  0  0  0  0  0  0  0
    7.3417   -9.3923    0.0000 O   0  0  0  0  0  0  0  0  0  0  0  0
    5.9128   -9.3923    0.0000 C   0  0  1  0  0  0  0  0  0  0  0  0
    5.9128  -10.2173    0.0000 O   0  0  0  0  0  0  0  0  0  0  0  0
    5.1983   -8.9798    0.0000 C   0  0  2  0  0  0  0  0  0  0  0  0
    4.4838   -9.3923    0.0000 O   0  0  0  0  0  0  0  0  0  0  0  0
    5.1983   -8.1548    0.0000 C   0  0  2  0  0  0  0  0  0  0  0  0
    5.9128   -7.7423    0.0000 O   0  0  0  0  0  0  0  0  0  0  0  0
    4.4838   -7.7423    0.0000 C   0  0  0  0  0  0  0  0  0  0  0  0
    3.7693   -8.1548    0.0000 O   0  0  0  0  0  0  0  0  0  0  0  0
    5.1983  -10.6298    0.0000 C   0  0  1  0  0  0  0  0  0  0  0  0
    5.1983  -11.4548    0.0000 C   0  0  2  0  0  0  0  0  0  0  0  0
    5.9128  -11.8673    0.0000 O   0  0  0  0  0  0  0  0  0  0  0  0
    4.4838  -11.8673    0.0000 C   0  0  2  0  0  0  0  0  0  0  0  0
    4.4838  -12.6923    0.0000 O   0  0  0  0  0  0  0  0  0  0  0  0
    3.7693  -11.4548    0.0000 C   0  0  1  0  0  0  0  0  0  0  0  0
    3.0549  -11.8673    0.0000 O   0  0  0  0  0  0  0  0  0  0  0  0
    3.7693  -10.6298    0.0000 C   0  0  1  0  0  0  0  0  0  0  0  0
    4.4838  -10.2173    0.0000 O   0  0  0  0  0  0  0  0  0  0  0  0
    3.0549  -10.2173    0.0000 C   0  0  0  0  0  0  0  0  0  0  0  0
    9.4851   -5.6798    0.0000 C   0  0  0  0  0  0  0  0  0  0  0  0
   10.1996   -5.2673    0.0000 C   0  0  0  0  0  0  0  0  0  0  0  0
   10.1996   -4.4423    0.0000 C   0  0  0  0  0  0  0  0  0  0  0  0
   10.9141   -4.0298    0.0000 C   0  0  0  0  0  0  0  0  0  0  0  0
   11.6285   -4.4423    0.0000 C   0  0  0  0  0  0  0  0  0  0  0  0
   11.6285   -5.2673    0.0000 C   0  0  0  0  0  0  0  0  0  0  0  0
   10.9141   -5.6798    0.0000 C   0  0  0  0  0  0  0  0  0  0  0  0
  1  2  1  0  0  0  0
  2  3  1  0  0  0  0
  3  4  2  0  0  0  0
  4  5  1  0  0  0  0
  5  6  2  0  0  0  0
  6  7  1  0  0  0  0
  2  7  2  0  0  0  0
  1  8  2  0  0  0  0
  1  9  1  0  0  0  0
  3 10  1  0  0  0  0
 12 11  1  1  0  0  0
 12 13  1  0  0  0  0
 13 14  1  6  0  0  0
 13 15  1  0  0  0  0
 15 16  1  1  0  0  0
 15 17  1  0  0  0  0
 17 18  1  6  0  0  0
 17 19  1  0  0  0  0
 19 20  1  0  0  0  0
 19 21  1  1  0  0  0
 21 22  1  0  0  0  0
 12 20  1  0  0  0  0
 23 24  1  0  0  0  0
 24 25  1  6  0  0  0
 24 26  1  0  0  0  0
 26 27  1  6  0  0  0
 26 28  1  0  0  0  0
 28 29  1  1  0  0  0
 28 30  1  0  0  0  0
 30 31  1  0  0  0  0
 30 32  1  6  0  0  0
 23 31  1  0  0  0  0
 23 16  1  1  0  0  0
  7 11  1  0  0  0  0
 33 34  1  0  0  0  0
 34 35  1  0  0  0  0
 35 36  2  0  0  0  0
 36 37  1  0  0  0  0
 37 38  2  0  0  0  0
 38 39  1  0  0  0  0
 34 39  2  0  0  0  0
  9 33  1  0  0  0  0
M  END
>  <cdx:groupId>
122

>  <cdx:fragmentId>
23

$$$$
