95547.cdx
  Mrv1902 05222410272D          

 24 25  0  0  0  0            999 V2000
    7.5529   -8.2104    0.0000 C   0  0  0  0  0  0  0  0  0  0  0  0
    7.5529   -7.3854    0.0000 C   0  0  0  0  0  0  0  0  0  0  0  0
    8.2674   -6.9729    0.0000 C   0  0  0  0  0  0  0  0  0  0  0  0
    8.9818   -7.3854    0.0000 C   0  0  0  0  0  0  0  0  0  0  0  0
    8.9818   -8.2104    0.0000 C   0  0  0  0  0  0  0  0  0  0  0  0
    8.2674   -8.6229    0.0000 C   0  0  0  0  0  0  0  0  0  0  0  0
    6.8384   -8.6229    0.0000 C   0  0  0  0  0  0  0  0  0  0  0  0
    6.8384   -9.4479    0.0000 C   0  0  0  0  0  0  0  0  0  0  0  0
    6.1239   -9.8604    0.0000 C   0  0  0  0  0  0  0  0  0  0  0  0
    5.4095   -9.4479    0.0000 C   0  0  0  0  0  0  0  0  0  0  0  0
    5.4095   -8.6229    0.0000 C   0  0  0  0  0  0  0  0  0  0  0  0
    6.1239   -8.2104    0.0000 C   0  0  0  0  0  0  0  0  0  0  0  0
    8.2674   -6.1479    0.0000 O   0  0  0  0  0  0  0  0  0  0  0  0
    9.6963   -6.9729    0.0000 O   0  0  0  0  0  0  0  0  0  0  0  0
    7.5529   -9.8604    0.0000 C   0  0  0  0  0  0  0  0  0  0  0  0
    6.8384   -6.9729    0.0000 C   0  0  0  0  0  0  0  0  0  0  0  0
    4.6950   -8.2104    0.0000 C   0  0  0  0  0  0  0  0  0  0  0  0
    4.6950   -7.3854    0.0000 C   0  0  0  0  0  0  0  0  0  0  0  0
    3.9805   -8.6229    0.0000 C   0  0  0  0  0  0  0  0  0  0  0  0
    9.6963   -8.6229    0.0000 C   0  0  0  0  0  0  0  0  0  0  0  0
    9.6963   -9.4479    0.0000 C   0  0  0  0  0  0  0  0  0  0  0  0
   10.4108   -8.2104    0.0000 C   0  0  0  0  0  0  0  0  0  0  0  0
    4.6950   -9.8604    0.0000 O   0  0  0  0  0  0  0  0  0  0  0  0
    6.1239  -10.6854    0.0000 O   0  0  0  0  0  0  0  0  0  0  0  0
  1  2  2  0  0  0  0
  2  3  1  0  0  0  0
  3  4  1  0  0  0  0
  4  5  1  0  0  0  0
  5  6  2  0  0  0  0
  1  6  1  0  0  0  0
  7  8  1  0  0  0  0
  8  9  2  0  0  0  0
  9 10  1  0  0  0  0
 10 11  2  0  0  0  0
 11 12  1  0  0  0  0
  7 12  2  0  0  0  0
  1  7  1  0  0  0  0
  3 13  2  0  0  0  0
  4 14  2  0  0  0  0
  8 15  1  0  0  0  0
  2 16  1  0  0  0  0
 17 18  1  0  0  0  0
 17 19  1  0  0  0  0
 11 17  1  0  0  0  0
 20 21  1  0  0  0  0
 20 22  1  0  0  0  0
  5 20  1  0  0  0  0
 10 23  1  0  0  0  0
  9 24  1  0  0  0  0
M  END
>  <cdx:groupId>
75

>  <cdx:fragmentId>
17

$$$$
