95543.cdx
  Mrv1902 05222410272D          

 14 15  0  0  0  0            999 V2000
    7.3036   -7.2411    0.0000 C   0  0  0  0  0  0  0  0  0  0  0  0
    7.8557   -7.8542    0.0000 C   0  0  0  0  0  0  0  0  0  0  0  0
    6.7516   -6.6280    0.0000 N   0  0  0  0  0  0  0  0  0  0  0  0
    7.6007   -9.9737    0.0000 N   0  0  0  0  0  0  0  0  0  0  0  0
    8.0856   -9.3063    0.0000 C   0  0  0  0  0  0  0  0  0  0  0  0
    7.6007   -8.6388    0.0000 C   0  0  0  0  0  0  0  0  0  0  0  0
    6.8161   -8.8938    0.0000 C   0  0  0  0  0  0  0  0  0  0  0  0
    6.1016   -8.4813    0.0000 C   0  0  0  0  0  0  0  0  0  0  0  0
    5.3872   -8.8938    0.0000 C   0  0  0  0  0  0  0  0  0  0  0  0
    5.3872   -9.7188    0.0000 C   0  0  0  0  0  0  0  0  0  0  0  0
    6.1016  -10.1313    0.0000 C   0  0  0  0  0  0  0  0  0  0  0  0
    6.8161   -9.7188    0.0000 C   0  0  0  0  0  0  0  0  0  0  0  0
    8.9106   -9.3063    0.0000 O   0  0  0  0  0  0  0  0  0  0  0  0
    6.1016   -7.6563    0.0000 O   0  0  0  0  0  0  0  0  0  0  0  0
  1  2  1  0  0  0  0
  1  3  3  0  0  0  0
  4  5  1  0  0  0  0
  5  6  1  0  0  0  0
  6  7  1  0  0  0  0
  7  8  1  0  0  0  0
  8  9  2  0  0  0  0
  9 10  1  0  0  0  0
 10 11  2  0  0  0  0
 11 12  1  0  0  0  0
  4 12  1  0  0  0  0
  7 12  2  0  0  0  0
  5 13  2  0  0  0  0
  8 14  1  0  0  0  0
  2  6  2  0  0  0  0
M  END
>  <cdx:groupId>
45

>  <cdx:fragmentId>
11

$$$$
