95542.cdx
  Mrv1902 05222410272D          

 20 23  0  0  0  0            999 V2000
    9.0569   -9.5528    0.0000 C   0  0  0  0  0  0  0  0  0  0  0  0
    9.8436   -9.8013    0.0000 C   0  0  0  0  0  0  0  0  0  0  0  0
   10.4521   -9.2443    0.0000 C   0  0  0  0  0  0  0  0  0  0  0  0
   10.2740   -8.4387    0.0000 C   0  0  0  0  0  0  0  0  0  0  0  0
    9.4873   -8.1902    0.0000 C   0  0  0  0  0  0  0  0  0  0  0  0
    8.8788   -8.7473    0.0000 C   0  0  0  0  0  0  0  0  0  0  0  0
    8.0576   -8.6678    0.0000 C   0  0  0  0  0  0  0  0  0  0  0  0
    7.7282   -9.4242    0.0000 C   0  0  0  0  0  0  0  0  0  0  0  0
    8.3458   -9.9712    0.0000 N   0  0  0  0  0  0  0  0  0  0  0  0
    7.6393   -7.9567    0.0000 C   0  0  0  0  0  0  0  0  0  0  0  0
    6.5724   -6.5134    0.0000 O   0  0  0  0  0  0  0  0  0  0  0  0
    5.5482   -8.3864    0.0000 C   0  0  0  0  0  0  0  0  0  0  0  0
    4.8371   -8.8047    0.0000 C   0  0  0  0  0  0  0  0  0  0  0  0
    4.1193   -8.3981    0.0000 C   0  0  0  0  0  0  0  0  0  0  0  0
    4.1125   -7.5731    0.0000 C   0  0  0  0  0  0  0  0  0  0  0  0
    4.8236   -7.1548    0.0000 C   0  0  0  0  0  0  0  0  0  0  0  0
    5.5414   -7.5614    0.0000 C   0  0  0  0  0  0  0  0  0  0  0  0
    6.3239   -7.3000    0.0000 C   0  0  0  0  0  0  0  0  0  0  0  0
    6.8143   -7.9635    0.0000 C   0  0  0  0  0  0  0  0  0  0  0  0
    6.3348   -8.6349    0.0000 N   0  0  0  0  0  0  0  0  0  0  0  0
 19 10  2  0  0  0  0
 10  7  1  0  0  0  0
  6  1  2  0  0  0  0
  9  1  1  0  0  0  0
  2  1  1  0  0  0  0
  3  2  2  0  0  0  0
  4  3  1  0  0  0  0
  5  4  2  0  0  0  0
  6  5  1  0  0  0  0
  7  6  1  0  0  0  0
  8  7  2  0  0  0  0
  9  8  1  0  0  0  0
 18 11  2  0  0  0  0
 17 12  2  0  0  0  0
 20 12  1  0  0  0  0
 13 12  1  0  0  0  0
 14 13  2  0  0  0  0
 15 14  1  0  0  0  0
 16 15  2  0  0  0  0
 17 16  1  0  0  0  0
 18 17  1  0  0  0  0
 19 18  1  0  0  0  0
 20 19  1  0  0  0  0
M  END
>  <cdx:groupId>
65

>  <cdx:fragmentId>
27

$$$$
