95540.cdx
  Mrv1902 05222410262D          

 23 25  0  0  0  0            999 V2000
    8.4007   -6.1167    0.0000 C   0  0  0  0  0  0  0  0  0  0  0  0
    7.5938   -6.2883    0.0000 C   0  0  0  0  0  0  0  0  0  0  0  0
    9.2077   -5.9452    0.0000 N   0  0  0  0  0  0  0  0  0  0  0  0
    7.3388   -8.4078    0.0000 N   0  0  0  0  0  0  0  0  0  0  0  0
    7.8237   -7.7403    0.0000 C   0  0  0  0  0  0  0  0  0  0  0  0
    7.3388   -7.0729    0.0000 C   0  0  0  0  0  0  0  0  0  0  0  0
    6.5542   -7.3278    0.0000 C   0  0  0  0  0  0  0  0  0  0  0  0
    5.8397   -6.9153    0.0000 C   0  0  0  0  0  0  0  0  0  0  0  0
    5.1253   -7.3278    0.0000 C   0  0  0  0  0  0  0  0  0  0  0  0
    5.1253   -8.1528    0.0000 C   0  0  0  0  0  0  0  0  0  0  0  0
    5.8397   -8.5653    0.0000 C   0  0  0  0  0  0  0  0  0  0  0  0
    6.5542   -8.1528    0.0000 C   0  0  0  0  0  0  0  0  0  0  0  0
    5.8397   -6.0903    0.0000 O   0  0  0  0  0  0  0  0  0  0  0  0
    5.1253   -5.6778    0.0000 C   0  0  0  0  0  0  0  0  0  0  0  0
    5.8397   -9.3903    0.0000 C   0  0  1  0  0  0  0  0  0  0  0  0
    5.1253   -9.8028    0.0000 C   0  0  0  0  0  0  0  0  0  0  0  0
    6.5542   -9.8028    0.0000 C   0  0  0  0  0  0  0  0  0  0  0  0
    7.2687   -9.3903    0.0000 C   0  0  0  0  0  0  0  0  0  0  0  0
    7.9831   -9.8028    0.0000 C   0  0  0  0  0  0  0  0  0  0  0  0
    7.9831  -10.6278    0.0000 C   0  0  0  0  0  0  0  0  0  0  0  0
    7.2687  -11.0403    0.0000 C   0  0  0  0  0  0  0  0  0  0  0  0
    6.5542  -10.6278    0.0000 C   0  0  0  0  0  0  0  0  0  0  0  0
    8.6976  -11.0403    0.0000 O   0  0  0  0  0  0  0  0  0  0  0  0
  1  2  1  0  0  0  0
  1  3  3  0  0  0  0
  4  5  1  0  0  0  0
  5  6  2  0  0  0  0
  6  7  1  0  0  0  0
  7  8  1  0  0  0  0
  8  9  2  0  0  0  0
  9 10  1  0  0  0  0
 10 11  2  0  0  0  0
 11 12  1  0  0  0  0
  4 12  1  0  0  0  0
  7 12  2  0  0  0  0
 13 14  1  0  0  0  0
  8 13  1  0  0  0  0
 15 16  1  6  0  0  0
 17 18  1  0  0  0  0
 18 19  2  0  0  0  0
 19 20  1  0  0  0  0
 20 21  2  0  0  0  0
 21 22  1  0  0  0  0
 17 22  2  0  0  0  0
 20 23  1  0  0  0  0
 15 17  1  0  0  0  0
 11 15  1  0  0  0  0
  2  6  1  0  0  0  0
M  END
>  <cdx:groupId>
73

>  <cdx:fragmentId>
11

$$$$
