95555.cdx
  Mrv1902 05222410262D          

 36 41  0  0  0  0            999 V2000
   15.8013  -10.0344    0.0000 C   0  0  1  0  0  0  0  0  0  0  0  0
   16.5127   -9.6168    0.0000 C   0  0  2  0  0  0  0  0  0  0  0  0
   17.2992   -9.8660    0.0000 C   0  0  0  0  0  0  0  0  0  0  0  0
   17.7793   -9.1951    0.0000 C   0  0  2  0  0  0  0  0  0  0  0  0
   18.5620   -8.9345    0.0000 O   0  0  0  0  0  0  0  0  0  0  0  0
   18.5561   -8.1095    0.0000 C   0  0  2  0  0  0  0  0  0  0  0  0
   17.7696   -7.8603    0.0000 C   0  0  2  0  0  0  0  0  0  0  0  0
   17.2895   -8.5312    0.0000 C   0  0  2  0  0  0  0  0  0  0  0  0
   16.5068   -8.7918    0.0000 C   0  0  1  0  0  0  0  0  0  0  0  0
   15.7894   -8.3844    0.0000 C   0  0  0  0  0  0  0  0  0  0  0  0
   15.0779   -8.8021    0.0000 C   0  0  0  0  0  0  0  0  0  0  0  0
   15.0838   -9.6271    0.0000 C   0  0  2  0  0  0  0  0  0  0  0  0
   14.3724  -10.0447    0.0000 C   0  0  1  0  0  0  0  0  0  0  0  0
   13.6549   -9.6374    0.0000 C   0  0  1  0  0  0  0  0  0  0  0  0
   12.9435  -10.0550    0.0000 C   0  0  0  0  0  0  0  0  0  0  0  0
   12.9494  -10.8800    0.0000 C   0  0  1  0  0  0  0  0  0  0  0  0
   13.6668  -11.2873    0.0000 C   0  0  0  0  0  0  0  0  0  0  0  0
   14.3783  -10.8697    0.0000 C   0  0  0  0  0  0  0  0  0  0  0  0
   15.0958  -11.2770    0.0000 C   0  0  0  0  0  0  0  0  0  0  0  0
   15.8072  -10.8594    0.0000 C   0  0  0  0  0  0  0  0  0  0  0  0
   18.4639   -7.2897    0.0000 O   0  0  0  0  0  0  0  0  0  0  0  0
   19.3122   -8.4396    0.0000 C   0  0  0  0  0  0  0  0  0  0  0  0
   19.9761   -7.9499    0.0000 C   0  0  0  0  0  0  0  0  0  0  0  0
   19.8839   -7.1301    0.0000 C   0  0  2  0  0  0  0  0  0  0  0  0
   19.1278   -6.8000    0.0000 C   0  0  0  0  0  0  0  0  0  0  0  0
   13.6490   -8.8124    0.0000 O   0  0  0  0  0  0  0  0  0  0  0  0
   12.2379  -11.2977    0.0000 O   0  0  0  0  0  0  0  0  0  0  0  0
   14.3664   -9.2197    0.0000 C   0  0  0  0  0  0  0  0  0  0  0  0
   16.5068   -7.9668    0.0000 C   0  0  0  0  0  0  0  0  0  0  0  0
   17.5090   -7.0775    0.0000 C   0  0  0  0  0  0  0  0  0  0  0  0
   20.5478   -6.6403    0.0000 C   0  0  0  0  0  0  0  0  0  0  0  0
   15.7953   -9.2094    0.0000 H   0  0  0  0  0  0  0  0  0  0  0  0
   16.5187  -10.4417    0.0000 H   0  0  0  0  0  0  0  0  0  0  0  0
   18.2690   -9.8590    0.0000 H   0  0  0  0  0  0  0  0  0  0  0  0
   16.9225   -7.7923    0.0000 H   0  0  0  0  0  0  0  0  0  0  0  0
   15.0898  -10.4520    0.0000 H   0  0  0  0  0  0  0  0  0  0  0  0
  1  2  1  0  0  0  0
  2  3  1  0  0  0  0
  3  4  1  0  0  0  0
  4  5  1  0  0  0  0
  6  5  1  6  0  0  0
  6  7  1  0  0  0  0
  7  8  1  0  0  0  0
  8  9  1  0  0  0  0
  9 10  1  0  0  0  0
 10 11  1  0  0  0  0
 11 12  1  0  0  0  0
 12 13  1  0  0  0  0
 13 14  1  0  0  0  0
 14 15  1  0  0  0  0
 15 16  1  0  0  0  0
 16 17  1  0  0  0  0
 17 18  1  0  0  0  0
 18 19  2  0  0  0  0
 19 20  1  0  0  0  0
  1 20  1  0  0  0  0
  1 12  1  0  0  0  0
 13 18  1  0  0  0  0
  2  9  1  0  0  0  0
  4  8  1  0  0  0  0
 22 23  1  0  0  0  0
 23 24  1  0  0  0  0
 24 25  1  0  0  0  0
 21 25  1  0  0  0  0
  6 21  1  0  0  0  0
  6 22  1  0  0  0  0
 14 26  1  1  0  0  0
 16 27  1  1  0  0  0
 13 28  1  1  0  0  0
  9 29  1  1  0  0  0
  7 30  1  6  0  0  0
 24 31  1  6  0  0  0
  1 32  1  1  0  0  0
  2 33  1  6  0  0  0
  4 34  1  6  0  0  0
  8 35  1  6  0  0  0
 12 36  1  6  0  0  0
M  END
>  <cdx:fragmentId>
300

$$$$
