95558.cdx
  Mrv1902 05222410202D          

 57 64  0  0  0  0            999 V2000
   15.8013   -9.8144    0.0000 C   0  0  1  0  0  0  0  0  0  0  0  0
   16.5127   -9.3968    0.0000 C   0  0  2  0  0  0  0  0  0  0  0  0
   17.2992   -9.6460    0.0000 C   0  0  0  0  0  0  0  0  0  0  0  0
   17.7793   -8.9751    0.0000 C   0  0  2  0  0  0  0  0  0  0  0  0
   18.5620   -8.7145    0.0000 O   0  0  0  0  0  0  0  0  0  0  0  0
   18.5561   -7.8895    0.0000 C   0  0  2  0  0  0  0  0  0  0  0  0
   17.7696   -7.6403    0.0000 C   0  0  2  0  0  0  0  0  0  0  0  0
   17.2895   -8.3112    0.0000 C   0  0  2  0  0  0  0  0  0  0  0  0
   16.5068   -8.5718    0.0000 C   0  0  1  0  0  0  0  0  0  0  0  0
   15.7894   -8.1644    0.0000 C   0  0  0  0  0  0  0  0  0  0  0  0
   15.0779   -8.5821    0.0000 C   0  0  0  0  0  0  0  0  0  0  0  0
   15.0838   -9.4071    0.0000 C   0  0  2  0  0  0  0  0  0  0  0  0
   14.3724   -9.8247    0.0000 C   0  0  1  0  0  0  0  0  0  0  0  0
   13.6549   -9.4174    0.0000 C   0  0  1  0  0  0  0  0  0  0  0  0
   12.9435   -9.8350    0.0000 C   0  0  0  0  0  0  0  0  0  0  0  0
   12.9494  -10.6600    0.0000 C   0  0  1  0  0  0  0  0  0  0  0  0
   13.6668  -11.0673    0.0000 C   0  0  0  0  0  0  0  0  0  0  0  0
   14.3783  -10.6497    0.0000 C   0  0  0  0  0  0  0  0  0  0  0  0
   15.0958  -11.0570    0.0000 C   0  0  0  0  0  0  0  0  0  0  0  0
   15.8072  -10.6394    0.0000 C   0  0  0  0  0  0  0  0  0  0  0  0
   18.4639   -7.0697    0.0000 O   0  0  0  0  0  0  0  0  0  0  0  0
   19.3122   -8.2196    0.0000 C   0  0  0  0  0  0  0  0  0  0  0  0
   19.9761   -7.7299    0.0000 C   0  0  0  0  0  0  0  0  0  0  0  0
   19.8839   -6.9101    0.0000 C   0  0  2  0  0  0  0  0  0  0  0  0
   19.1278   -6.5800    0.0000 C   0  0  0  0  0  0  0  0  0  0  0  0
   13.6490   -8.5924    0.0000 O   0  0  0  0  0  0  0  0  0  0  0  0
   12.2379  -11.0777    0.0000 O   0  0  0  0  0  0  0  0  0  0  0  0
   14.3664   -8.9997    0.0000 C   0  0  0  0  0  0  0  0  0  0  0  0
   16.5068   -7.7468    0.0000 C   0  0  0  0  0  0  0  0  0  0  0  0
   17.5090   -6.8575    0.0000 C   0  0  0  0  0  0  0  0  0  0  0  0
   20.5478   -6.4203    0.0000 C   0  0  0  0  0  0  0  0  0  0  0  0
   15.7953   -8.9894    0.0000 H   0  0  0  0  0  0  0  0  0  0  0  0
   16.5187  -10.2217    0.0000 H   0  0  0  0  0  0  0  0  0  0  0  0
   18.2690   -9.6390    0.0000 H   0  0  0  0  0  0  0  0  0  0  0  0
   16.9225   -7.5723    0.0000 H   0  0  0  0  0  0  0  0  0  0  0  0
   15.0898  -10.2320    0.0000 H   0  0  0  0  0  0  0  0  0  0  0  0
   13.2011   -7.8995    0.0000 C   0  0  2  0  0  0  0  0  0  0  0  0
   13.5746   -7.1639    0.0000 O   0  0  0  0  0  0  0  0  0  0  0  0
   13.1242   -6.4727    0.0000 C   0  0  1  0  0  0  0  0  0  0  0  0
   12.3076   -6.5033    0.0000 C   0  0  1  0  0  0  0  0  0  0  0  0
   11.9262   -7.2348    0.0000 C   0  0  1  0  0  0  0  0  0  0  0  0
   12.3686   -7.9219    0.0000 C   0  0  1  0  0  0  0  0  0  0  0  0
   13.5036   -5.7401    0.0000 C   0  0  0  0  0  0  0  0  0  0  0  0
   11.8666   -5.8061    0.0000 O   0  0  0  0  0  0  0  0  0  0  0  0
   11.1020   -7.2726    0.0000 O   0  0  0  0  0  0  0  0  0  0  0  0
   11.9833   -8.6514    0.0000 O   0  0  0  0  0  0  0  0  0  0  0  0
   11.2689   -9.0639    0.0000 C   0  0  2  0  0  0  0  0  0  0  0  0
   10.5544   -8.6514    0.0000 O   0  0  0  0  0  0  0  0  0  0  0  0
    9.8399   -9.0639    0.0000 C   0  0  1  0  0  0  0  0  0  0  0  0
    9.8399   -9.8889    0.0000 C   0  0  2  0  0  0  0  0  0  0  0  0
   10.5544  -10.3014    0.0000 C   0  0  1  0  0  0  0  0  0  0  0  0
   11.2689   -9.8889    0.0000 C   0  0  1  0  0  0  0  0  0  0  0  0
    9.1254   -8.6514    0.0000 C   0  0  0  0  0  0  0  0  0  0  0  0
   10.5544  -11.1264    0.0000 O   0  0  0  0  0  0  0  0  0  0  0  0
   11.9833  -10.3014    0.0000 O   0  0  0  0  0  0  0  0  0  0  0  0
    9.1254  -10.3014    0.0000 O   0  0  0  0  0  0  0  0  0  0  0  0
    8.4110   -9.0639    0.0000 O   0  0  0  0  0  0  0  0  0  0  0  0
  1  2  1  0  0  0  0
  2  3  1  0  0  0  0
  3  4  1  0  0  0  0
  4  5  1  0  0  0  0
  6  5  1  6  0  0  0
  6  7  1  0  0  0  0
  7  8  1  0  0  0  0
  8  9  1  0  0  0  0
  9 10  1  0  0  0  0
 10 11  1  0  0  0  0
 11 12  1  0  0  0  0
 12 13  1  0  0  0  0
 13 14  1  0  0  0  0
 14 15  1  0  0  0  0
 15 16  1  0  0  0  0
 16 17  1  0  0  0  0
 17 18  1  0  0  0  0
 18 19  2  0  0  0  0
 19 20  1  0  0  0  0
  1 20  1  0  0  0  0
  1 12  1  0  0  0  0
 13 18  1  0  0  0  0
  2  9  1  0  0  0  0
  4  8  1  0  0  0  0
 22 23  1  0  0  0  0
 23 24  1  0  0  0  0
 24 25  1  0  0  0  0
 21 25  1  0  0  0  0
  6 21  1  0  0  0  0
  6 22  1  0  0  0  0
 14 26  1  1  0  0  0
 16 27  1  1  0  0  0
 13 28  1  1  0  0  0
  9 29  1  1  0  0  0
  7 30  1  6  0  0  0
 24 31  1  6  0  0  0
  1 32  1  1  0  0  0
  2 33  1  6  0  0  0
  4 34  1  6  0  0  0
  8 35  1  6  0  0  0
 12 36  1  6  0  0  0
 37 26  1  1  0  0  0
 37 38  1  0  0  0  0
 38 39  1  0  0  0  0
 39 40  1  0  0  0  0
 40 41  1  0  0  0  0
 41 42  1  0  0  0  0
 42 37  1  0  0  0  0
 39 43  1  1  0  0  0
 40 44  1  1  0  0  0
 41 45  1  1  0  0  0
 42 46  1  6  0  0  0
 47 46  1  1  0  0  0
 47 48  1  0  0  0  0
 48 49  1  0  0  0  0
 49 50  1  0  0  0  0
 50 51  1  0  0  0  0
 51 52  1  0  0  0  0
 52 47  1  0  0  0  0
 49 53  1  1  0  0  0
 51 54  1  1  0  0  0
 52 55  1  6  0  0  0
 50 56  1  6  0  0  0
 53 57  1  0  0  0  0
M  END
>  <cdx:fragmentId>
162

$$$$
