95553.cdx
  Mrv1902 05222410272D          

 30 33  0  0  0  0            999 V2000
    7.5529   -9.0832    0.0000 C   0  0  0  0  0  0  0  0  0  0  0  0
    7.5529   -9.9082    0.0000 C   0  0  0  0  0  0  0  0  0  0  0  0
    6.8384  -10.3207    0.0000 C   0  0  0  0  0  0  0  0  0  0  0  0
    6.8384  -11.1457    0.0000 O   0  0  0  0  0  0  0  0  0  0  0  0
    6.1239   -9.9082    0.0000 C   0  0  0  0  0  0  0  0  0  0  0  0
    5.4095  -10.3207    0.0000 C   0  0  0  0  0  0  0  0  0  0  0  0
    5.4095  -11.1457    0.0000 O   0  0  0  0  0  0  0  0  0  0  0  0
    4.6950   -9.9082    0.0000 C   0  0  0  0  0  0  0  0  0  0  0  0
    4.6950   -9.0832    0.0000 C   0  0  0  0  0  0  0  0  0  0  0  0
    3.9805   -8.6707    0.0000 O   0  0  0  0  0  0  0  0  0  0  0  0
    5.4095   -8.6707    0.0000 C   0  0  0  0  0  0  0  0  0  0  0  0
    6.1239   -9.0832    0.0000 C   0  0  0  0  0  0  0  0  0  0  0  0
    6.8384   -8.6707    0.0000 O   0  0  0  0  0  0  0  0  0  0  0  0
    8.2674   -8.6707    0.0000 C   0  0  0  0  0  0  0  0  0  0  0  0
    8.9818   -9.0832    0.0000 C   0  0  0  0  0  0  0  0  0  0  0  0
    9.6963   -8.6707    0.0000 C   0  0  0  0  0  0  0  0  0  0  0  0
   10.4108   -9.0832    0.0000 O   0  0  0  0  0  0  0  0  0  0  0  0
    9.6963   -7.8457    0.0000 C   0  0  0  0  0  0  0  0  0  0  0  0
   10.4108   -7.4332    0.0000 O   0  0  0  0  0  0  0  0  0  0  0  0
    8.9818   -7.4332    0.0000 C   0  0  0  0  0  0  0  0  0  0  0  0
    8.2674   -7.8457    0.0000 C   0  0  0  0  0  0  0  0  0  0  0  0
    5.3924   -7.8499    0.0000 C   0  0  1  0  0  0  0  0  0  0  0  0
    4.7188   -7.3736    0.0000 C   0  0  2  0  0  0  0  0  0  0  0  0
    3.9375   -7.6386    0.0000 O   0  0  0  0  0  0  0  0  0  0  0  0
    4.9636   -6.5858    0.0000 C   0  0  1  0  0  0  0  0  0  0  0  0
    4.4701   -5.9246    0.0000 O   0  0  0  0  0  0  0  0  0  0  0  0
    5.7885   -6.5751    0.0000 C   0  0  1  0  0  0  0  0  0  0  0  0
    6.0535   -7.3564    0.0000 O   0  0  0  0  0  0  0  0  0  0  0  0
    6.2648   -5.9015    0.0000 C   0  0  0  0  0  0  0  0  0  0  0  0
    5.9196   -5.1522    0.0000 O   0  0  0  0  0  0  0  0  0  0  0  0
  1  2  2  0  0  0  0
  2  3  1  0  0  0  0
  3  4  2  0  0  0  0
  3  5  1  0  0  0  0
  5  6  1  0  0  0  0
  6  7  1  0  0  0  0
  6  8  2  0  0  0  0
  8  9  1  0  0  0  0
  9 10  1  0  0  0  0
  9 11  2  0  0  0  0
 11 12  1  0  0  0  0
  5 12  2  0  0  0  0
 12 13  1  0  0  0  0
  1 13  1  0  0  0  0
  1 14  1  0  0  0  0
 14 15  1  0  0  0  0
 15 16  2  0  0  0  0
 16 17  1  0  0  0  0
 16 18  1  0  0  0  0
 18 19  1  0  0  0  0
 18 20  2  0  0  0  0
 20 21  1  0  0  0  0
 14 21  2  0  0  0  0
 22 23  1  0  0  0  0
 23 24  1  6  0  0  0
 23 25  1  0  0  0  0
 25 26  1  1  0  0  0
 25 27  1  0  0  0  0
 27 28  1  0  0  0  0
 27 29  1  6  0  0  0
 29 30  1  0  0  0  0
 22 28  1  0  0  0  0
 22 11  1  1  0  0  0
M  END
>  <cdx:groupId>
98

>  <cdx:fragmentId>
5

$$$$
