95556.cdx
  Mrv1902 05222410272D          

 66 74  0  0  0  0            999 V2000
   15.8288  -10.5294    0.0000 C   0  0  1  0  0  0  0  0  0  0  0  0
   16.5402  -10.1118    0.0000 C   0  0  2  0  0  0  0  0  0  0  0  0
   17.3267  -10.3610    0.0000 C   0  0  0  0  0  0  0  0  0  0  0  0
   17.8068   -9.6901    0.0000 C   0  0  2  0  0  0  0  0  0  0  0  0
   18.5895   -9.4295    0.0000 O   0  0  0  0  0  0  0  0  0  0  0  0
   18.5836   -8.6045    0.0000 C   0  0  2  0  0  0  0  0  0  0  0  0
   17.7971   -8.3553    0.0000 C   0  0  2  0  0  0  0  0  0  0  0  0
   17.3170   -9.0262    0.0000 C   0  0  2  0  0  0  0  0  0  0  0  0
   16.5343   -9.2868    0.0000 C   0  0  1  0  0  0  0  0  0  0  0  0
   15.8169   -8.8794    0.0000 C   0  0  0  0  0  0  0  0  0  0  0  0
   15.1054   -9.2971    0.0000 C   0  0  0  0  0  0  0  0  0  0  0  0
   15.1113  -10.1221    0.0000 C   0  0  2  0  0  0  0  0  0  0  0  0
   14.3999  -10.5397    0.0000 C   0  0  1  0  0  0  0  0  0  0  0  0
   13.6824  -10.1324    0.0000 C   0  0  1  0  0  0  0  0  0  0  0  0
   12.9710  -10.5500    0.0000 C   0  0  0  0  0  0  0  0  0  0  0  0
   12.9769  -11.3750    0.0000 C   0  0  1  0  0  0  0  0  0  0  0  0
   13.6943  -11.7823    0.0000 C   0  0  0  0  0  0  0  0  0  0  0  0
   14.4058  -11.3647    0.0000 C   0  0  0  0  0  0  0  0  0  0  0  0
   15.1233  -11.7720    0.0000 C   0  0  0  0  0  0  0  0  0  0  0  0
   15.8347  -11.3544    0.0000 C   0  0  0  0  0  0  0  0  0  0  0  0
   18.4914   -7.7847    0.0000 O   0  0  0  0  0  0  0  0  0  0  0  0
   19.3397   -8.9346    0.0000 C   0  0  0  0  0  0  0  0  0  0  0  0
   20.0036   -8.4449    0.0000 C   0  0  0  0  0  0  0  0  0  0  0  0
   19.9114   -7.6251    0.0000 C   0  0  2  0  0  0  0  0  0  0  0  0
   19.1553   -7.2950    0.0000 C   0  0  0  0  0  0  0  0  0  0  0  0
   13.6765   -9.3074    0.0000 O   0  0  0  0  0  0  0  0  0  0  0  0
   12.2654  -11.7927    0.0000 O   0  0  0  0  0  0  0  0  0  0  0  0
   14.3939   -9.7147    0.0000 C   0  0  0  0  0  0  0  0  0  0  0  0
   16.5343   -8.4618    0.0000 C   0  0  0  0  0  0  0  0  0  0  0  0
   17.5365   -7.5725    0.0000 C   0  0  0  0  0  0  0  0  0  0  0  0
   20.5753   -7.1353    0.0000 C   0  0  0  0  0  0  0  0  0  0  0  0
   15.8228   -9.7044    0.0000 H   0  0  0  0  0  0  0  0  0  0  0  0
   16.5462  -10.9367    0.0000 H   0  0  0  0  0  0  0  0  0  0  0  0
   18.2965  -10.3540    0.0000 H   0  0  0  0  0  0  0  0  0  0  0  0
   16.9500   -8.2873    0.0000 H   0  0  0  0  0  0  0  0  0  0  0  0
   15.1173  -10.9470    0.0000 H   0  0  0  0  0  0  0  0  0  0  0  0
   13.2640   -8.5929    0.0000 C   0  0  2  0  0  0  0  0  0  0  0  0
   13.6765   -7.8785    0.0000 O   0  0  0  0  0  0  0  0  0  0  0  0
   13.2640   -7.1640    0.0000 C   0  0  1  0  0  0  0  0  0  0  0  0
   12.4390   -7.1640    0.0000 C   0  0  2  0  0  0  0  0  0  0  0  0
   12.0265   -7.8785    0.0000 C   0  0  1  0  0  0  0  0  0  0  0  0
   12.4390   -8.5929    0.0000 C   0  0  1  0  0  0  0  0  0  0  0  0
   13.6765   -6.4495    0.0000 C   0  0  0  0  0  0  0  0  0  0  0  0
   12.0265   -6.4495    0.0000 O   0  0  0  0  0  0  0  0  0  0  0  0
   11.2015   -7.8785    0.0000 O   0  0  0  0  0  0  0  0  0  0  0  0
   12.0265   -9.3074    0.0000 O   0  0  0  0  0  0  0  0  0  0  0  0
   11.3065   -9.7102    0.0000 C   0  0  2  0  0  0  0  0  0  0  0  0
   10.5977   -9.2880    0.0000 O   0  0  0  0  0  0  0  0  0  0  0  0
    9.8777   -9.6908    0.0000 C   0  0  2  0  0  0  0  0  0  0  0  0
    9.8665  -10.5157    0.0000 C   0  0  1  0  0  0  0  0  0  0  0  0
   10.5753  -10.9379    0.0000 C   0  0  2  0  0  0  0  0  0  0  0  0
   11.2953  -10.5351    0.0000 C   0  0  1  0  0  0  0  0  0  0  0  0
    9.1689   -9.2686    0.0000 C   0  0  0  0  0  0  0  0  0  0  0  0
   10.5641  -11.7628    0.0000 O   0  0  0  0  0  0  0  0  0  0  0  0
    9.1465  -10.9185    0.0000 O   0  0  0  0  0  0  0  0  0  0  0  0
   12.0041  -10.9573    0.0000 O   0  0  0  0  0  0  0  0  0  0  0  0
   11.3120   -6.0370    0.0000 C   0  0  2  0  0  0  0  0  0  0  0  0
   11.3120   -5.2120    0.0000 O   0  0  0  0  0  0  0  0  0  0  0  0
   10.5975   -4.7995    0.0000 C   0  0  0  0  0  0  0  0  0  0  0  0
    9.8831   -5.2120    0.0000 C   0  0  2  0  0  0  0  0  0  0  0  0
    9.8831   -6.0370    0.0000 C   0  0  1  0  0  0  0  0  0  0  0  0
   10.5975   -6.4495    0.0000 C   0  0  1  0  0  0  0  0  0  0  0  0
   10.5975   -7.2745    0.0000 O   0  0  0  0  0  0  0  0  0  0  0  0
    9.1686   -6.4495    0.0000 O   0  0  0  0  0  0  0  0  0  0  0  0
    9.1686   -4.7995    0.0000 O   0  0  0  0  0  0  0  0  0  0  0  0
   13.2640   -5.7351    0.0000 O   0  0  0  0  0  0  0  0  0  0  0  0
  1  2  1  0  0  0  0
  2  3  1  0  0  0  0
  3  4  1  0  0  0  0
  4  5  1  0  0  0  0
  6  5  1  6  0  0  0
  6  7  1  0  0  0  0
  7  8  1  0  0  0  0
  8  9  1  0  0  0  0
  9 10  1  0  0  0  0
 10 11  1  0  0  0  0
 11 12  1  0  0  0  0
 12 13  1  0  0  0  0
 13 14  1  0  0  0  0
 14 15  1  0  0  0  0
 15 16  1  0  0  0  0
 16 17  1  0  0  0  0
 17 18  1  0  0  0  0
 18 19  2  0  0  0  0
 19 20  1  0  0  0  0
  1 20  1  0  0  0  0
  1 12  1  0  0  0  0
 13 18  1  0  0  0  0
  2  9  1  0  0  0  0
  4  8  1  0  0  0  0
 22 23  1  0  0  0  0
 23 24  1  0  0  0  0
 24 25  1  0  0  0  0
 21 25  1  0  0  0  0
  6 21  1  0  0  0  0
  6 22  1  0  0  0  0
 14 26  1  1  0  0  0
 16 27  1  1  0  0  0
 13 28  1  1  0  0  0
  9 29  1  1  0  0  0
  7 30  1  6  0  0  0
 24 31  1  6  0  0  0
  1 32  1  1  0  0  0
  2 33  1  6  0  0  0
  4 34  1  6  0  0  0
  8 35  1  6  0  0  0
 12 36  1  6  0  0  0
 37 26  1  1  0  0  0
 37 38  1  0  0  0  0
 38 39  1  0  0  0  0
 39 40  1  0  0  0  0
 40 41  1  0  0  0  0
 41 42  1  0  0  0  0
 42 37  1  0  0  0  0
 39 43  1  1  0  0  0
 40 44  1  6  0  0  0
 41 45  1  1  0  0  0
 42 46  1  6  0  0  0
 47 46  1  1  0  0  0
 47 48  1  0  0  0  0
 48 49  1  0  0  0  0
 49 50  1  0  0  0  0
 50 51  1  0  0  0  0
 51 52  1  0  0  0  0
 52 47  1  0  0  0  0
 49 53  1  6  0  0  0
 51 54  1  6  0  0  0
 50 55  1  1  0  0  0
 52 56  1  6  0  0  0
 57 44  1  1  0  0  0
 57 58  1  0  0  0  0
 58 59  1  0  0  0  0
 59 60  1  0  0  0  0
 60 61  1  0  0  0  0
 61 62  1  0  0  0  0
 62 57  1  0  0  0  0
 62 63  1  6  0  0  0
 61 64  1  1  0  0  0
 60 65  1  6  0  0  0
 43 66  1  0  0  0  0
M  END
>  <cdx:fragmentId>
5

$$$$
