95551.cdx
  Mrv1902 05222410282D          

 26 29  0  0  0  0            999 V2000
    7.0796   -9.3852    0.0000 C   0  0  1  0  0  0  0  0  0  0  0  0
    7.8617   -9.1227    0.0000 C   0  0  1  0  0  0  0  0  0  0  0  0
    8.3530   -9.7855    0.0000 O   0  0  0  0  0  0  0  0  0  0  0  0
    7.8745  -10.4576    0.0000 C   0  0  0  0  0  0  0  0  0  0  0  0
    7.0875  -10.2102    0.0000 C   0  0  1  0  0  0  0  0  0  0  0  0
    6.3054  -10.4726    0.0000 C   0  0  1  0  0  0  0  0  0  0  0  0
    5.8141   -9.8099    0.0000 O   0  0  0  0  0  0  0  0  0  0  0  0
    6.2926   -9.1378    0.0000 C   0  0  0  0  0  0  0  0  0  0  0  0
    6.0580  -11.2596    0.0000 C   0  0  0  0  0  0  0  0  0  0  0  0
    5.2527  -11.4389    0.0000 C   0  0  0  0  0  0  0  0  0  0  0  0
    5.0053  -12.2259    0.0000 C   0  0  0  0  0  0  0  0  0  0  0  0
    5.5632  -12.8337    0.0000 C   0  0  0  0  0  0  0  0  0  0  0  0
    6.3684  -12.6544    0.0000 C   0  0  0  0  0  0  0  0  0  0  0  0
    6.6158  -11.8674    0.0000 C   0  0  0  0  0  0  0  0  0  0  0  0
    5.3158  -13.6207    0.0000 O   0  0  0  0  0  0  0  0  0  0  0  0
    4.2000  -12.4052    0.0000 O   0  0  0  0  0  0  0  0  0  0  0  0
    3.9014  -13.1743    0.0000 C   0  0  0  0  0  0  0  0  0  0  0  0
    8.1091   -8.3357    0.0000 C   0  0  0  0  0  0  0  0  0  0  0  0
    7.5512   -7.7279    0.0000 C   0  0  0  0  0  0  0  0  0  0  0  0
    7.7986   -6.9409    0.0000 C   0  0  0  0  0  0  0  0  0  0  0  0
    8.6039   -6.7616    0.0000 C   0  0  0  0  0  0  0  0  0  0  0  0
    9.1618   -7.3694    0.0000 C   0  0  0  0  0  0  0  0  0  0  0  0
    8.9144   -8.1565    0.0000 C   0  0  0  0  0  0  0  0  0  0  0  0
    8.8513   -5.9746    0.0000 O   0  0  0  0  0  0  0  0  0  0  0  0
    7.0717   -8.5602    0.0000 H   0  0  0  0  0  0  0  0  0  0  0  0
    7.0954  -11.0351    0.0000 H   0  0  0  0  0  0  0  0  0  0  0  0
  1  2  1  0  0  0  0
  2  3  1  0  0  0  0
  3  4  1  0  0  0  0
  4  5  1  0  0  0  0
  5  6  1  0  0  0  0
  6  7  1  0  0  0  0
  7  8  1  0  0  0  0
  1  8  1  0  0  0  0
  1  5  1  0  0  0  0
  9 10  1  0  0  0  0
 10 11  2  0  0  0  0
 11 12  1  0  0  0  0
 12 13  2  0  0  0  0
 13 14  1  0  0  0  0
  9 14  2  0  0  0  0
 12 15  1  0  0  0  0
 16 17  1  0  0  0  0
 11 16  1  0  0  0  0
  6  9  1  6  0  0  0
 18 19  1  0  0  0  0
 19 20  2  0  0  0  0
 20 21  1  0  0  0  0
 21 22  2  0  0  0  0
 22 23  1  0  0  0  0
 18 23  2  0  0  0  0
 21 24  1  0  0  0  0
  2 18  1  6  0  0  0
  1 25  1  6  0  0  0
  5 26  1  6  0  0  0
M  END
>  <cdx:fragmentId>
83

$$$$
