95562.cdx
  Mrv1902 05222410192D          

 54 60  0  0  0  0            999 V2000
    4.8106   -7.7687    0.0000 C   0  0  0  0  0  0  0  0  0  0  0  0
    4.8106   -8.5938    0.0000 C   0  0  1  0  0  0  0  0  0  0  0  0
    5.5250   -9.0062    0.0000 C   0  0  1  0  0  0  0  0  0  0  0  0
    6.2395   -8.5938    0.0000 C   0  0  1  0  0  0  0  0  0  0  0  0
    6.2395   -7.7687    0.0000 C   0  0  2  0  0  0  0  0  0  0  0  0
    5.5250   -7.3563    0.0000 C   0  0  0  0  0  0  0  0  0  0  0  0
    6.9540   -9.0062    0.0000 C   0  0  0  0  0  0  0  0  0  0  0  0
    7.6684   -8.5938    0.0000 C   0  0  0  0  0  0  0  0  0  0  0  0
    7.6684   -7.7687    0.0000 C   0  0  1  0  0  0  0  0  0  0  0  0
    6.9540   -7.3563    0.0000 C   0  0  1  0  0  0  0  0  0  0  0  0
    8.3829   -7.3563    0.0000 C   0  0  1  0  0  0  0  0  0  0  0  0
    8.3829   -6.5313    0.0000 C   0  0  2  0  0  0  0  0  0  0  0  0
    7.6684   -6.1188    0.0000 C   0  0  1  0  0  0  0  0  0  0  0  0
    6.9540   -6.5313    0.0000 C   0  0  0  0  0  0  0  0  0  0  0  0
    9.1675   -7.6112    0.0000 C   0  0  2  0  0  0  0  0  0  0  0  0
    9.6525   -6.9438    0.0000 C   0  0  0  0  0  0  0  0  0  0  0  0
    9.1675   -6.2763    0.0000 C   0  0  2  0  0  0  0  0  0  0  0  0
    7.6684   -5.2938    0.0000 O   0  0  0  0  0  0  0  0  0  0  0  0
    6.9540   -4.8812    0.0000 C   0  0  0  0  0  0  0  0  0  0  0  0
    6.9540   -4.0563    0.0000 O   0  0  0  0  0  0  0  0  0  0  0  0
    6.2395   -5.2938    0.0000 C   0  0  0  0  0  0  0  0  0  0  0  0
    9.4225   -5.4917    0.0000 C   0  0  2  0  0  0  0  0  0  0  0  0
    8.8704   -4.8786    0.0000 C   0  0  0  0  0  0  0  0  0  0  0  0
   10.2294   -5.3202    0.0000 C   0  0  0  0  0  0  0  0  0  0  0  0
   10.7815   -5.9333    0.0000 C   0  0  0  0  0  0  0  0  0  0  0  0
   11.5884   -5.7617    0.0000 C   0  0  1  0  0  0  0  0  0  0  0  0
   12.1405   -6.3748    0.0000 C   0  0  1  0  0  0  0  0  0  0  0  0
   12.9474   -6.2033    0.0000 C   0  0  0  0  0  0  0  0  0  0  0  0
   11.8855   -7.1594    0.0000 C   0  0  0  0  0  0  0  0  0  0  0  0
   10.5678   -6.5941    0.0000 O   0  0  0  0  0  0  0  0  0  0  0  0
   10.3125   -6.9300    0.0000 O   0  0  0  0  0  0  0  0  0  0  0  0
    5.1125   -9.7207    0.0000 C   0  0  0  0  0  0  0  0  0  0  0  0
    6.2395   -6.9438    0.0000 C   0  0  0  0  0  0  0  0  0  0  0  0
    8.3829   -5.7062    0.0000 C   0  0  0  0  0  0  0  0  0  0  0  0
    4.0961   -9.0062    0.0000 O   0  0  0  0  0  0  0  0  0  0  0  0
    3.3799   -8.5967    0.0000 C   0  0  2  0  0  0  0  0  0  0  0  0
    3.3765   -7.7717    0.0000 O   0  0  0  0  0  0  0  0  0  0  0  0
    2.6604   -7.3621    0.0000 C   0  0  0  0  0  0  0  0  0  0  0  0
    1.9476   -7.7776    0.0000 C   0  0  1  0  0  0  0  0  0  0  0  0
    1.9510   -8.6026    0.0000 C   0  0  1  0  0  0  0  0  0  0  0  0
    2.6672   -9.0121    0.0000 C   0  0  1  0  0  0  0  0  0  0  0  0
    1.2314   -7.3680    0.0000 O   0  0  0  0  0  0  0  0  0  0  0  0
    1.2382   -9.0180    0.0000 O   0  0  0  0  0  0  0  0  0  0  0  0
    2.6705   -9.8371    0.0000 O   0  0  0  0  0  0  0  0  0  0  0  0
    1.9578  -10.2526    0.0000 C   0  0  0  0  0  0  0  0  0  0  0  0
    1.9612  -11.0776    0.0000 C   0  0  0  0  0  0  0  0  0  0  0  0
    1.2416   -9.8430    0.0000 O   0  0  0  0  0  0  0  0  0  0  0  0
    5.9375   -9.7207    0.0000 C   0  0  0  0  0  0  0  0  0  0  0  0
    8.3829   -8.1813    0.0000 C   0  0  0  0  0  0  0  0  0  0  0  0
    9.4225   -8.3958    0.0000 O   0  0  0  0  0  0  0  0  0  0  0  0
    9.9644   -6.0628    0.0000 H   0  0  0  0  0  0  0  0  0  0  0  0
   12.3853   -5.5482    0.0000 O   0  0  0  0  0  0  0  0  0  0  0  0
    6.2395   -9.4187    0.0000 H   0  0  0  0  0  0  0  0  0  0  0  0
    7.6684   -6.9438    0.0000 H   0  0  0  0  0  0  0  0  0  0  0  0
  1  2  1  0  0  0  0
  2  3  1  0  0  0  0
  3  4  1  0  0  0  0
  4  5  1  0  0  0  0
  5  6  1  0  0  0  0
  6  1  1  0  0  0  0
  4  7  1  0  0  0  0
  7  8  1  0  0  0  0
  8  9  1  0  0  0  0
  9 10  1  0  0  0  0
 10  5  1  0  0  0  0
  9 11  1  0  0  0  0
 11 12  1  0  0  0  0
 12 13  1  0  0  0  0
 13 14  1  0  0  0  0
 14 10  1  0  0  0  0
 11 15  1  0  0  0  0
 15 16  1  0  0  0  0
 16 17  1  0  0  0  0
 17 12  1  0  0  0  0
 13 18  1  1  0  0  0
 18 19  1  0  0  0  0
 19 20  2  0  0  0  0
 19 21  1  0  0  0  0
 17 22  1  0  0  0  0
 22 23  1  6  0  0  0
 22 24  1  0  0  0  0
 24 25  1  0  0  0  0
 25 26  1  0  0  0  0
 26 27  1  0  0  0  0
 27 28  1  0  0  0  0
 27 29  1  0  0  0  0
 25 30  2  0  0  0  0
 16 31  2  0  0  0  0
  3 32  1  1  0  0  0
  5 33  1  1  0  0  0
 10 33  1  1  0  0  0
 12 34  1  1  0  0  0
  2 35  1  1  0  0  0
 36 35  1  1  0  0  0
 36 37  1  0  0  0  0
 37 38  1  0  0  0  0
 38 39  1  0  0  0  0
 39 40  1  0  0  0  0
 40 41  1  0  0  0  0
 41 36  1  0  0  0  0
 39 42  1  1  0  0  0
 40 43  1  1  0  0  0
 41 44  1  6  0  0  0
 44 45  1  0  0  0  0
 45 46  1  0  0  0  0
 45 47  2  0  0  0  0
  3 48  1  6  0  0  0
 11 49  1  6  0  0  0
 15 50  1  6  0  0  0
 17 51  1  6  0  0  0
 26 52  1  6  0  0  0
 27 52  1  6  0  0  0
  4 53  1  6  0  0  0
  9 54  1  6  0  0  0
M  END
>  <cdx:fragmentId>
5

$$$$
