95568.cdx
  Mrv1902 05222410262D          

 26 28  0  0  0  0            999 V2000
    7.2342   -5.4437    0.0000 O   0  0  0  0  0  0  0  0  0  0  0  0
    5.0904   -6.6805    0.0000 C   0  0  0  0  0  0  0  0  0  0  0  0
    5.0907   -5.8555    0.0000 C   0  0  0  0  0  0  0  0  0  0  0  0
    5.8053   -5.4432    0.0000 C   0  0  0  0  0  0  0  0  0  0  0  0
    6.5196   -5.8560    0.0000 C   0  0  0  0  0  0  0  0  0  0  0  0
    6.5194   -6.6810    0.0000 C   0  0  0  0  0  0  0  0  0  0  0  0
    5.8048   -7.0932    0.0000 C   0  0  0  0  0  0  0  0  0  0  0  0
    5.8045   -7.9182    0.0000 C   0  0  0  0  0  0  0  0  0  0  0  0
    6.5188   -8.3310    0.0000 C   0  0  0  0  0  0  0  0  0  0  0  0
    7.9486   -5.8564    0.0000 O   0  0  0  0  0  0  0  0  0  0  0  0
    7.2334   -7.9187    0.0000 C   0  0  0  0  0  0  0  0  0  0  0  0
    7.2337   -7.0937    0.0000 C   0  0  0  0  0  0  0  0  0  0  0  0
    7.9483   -6.6814    0.0000 C   0  0  0  0  0  0  0  0  0  0  0  0
    8.6626   -7.0941    0.0000 C   0  0  0  0  0  0  0  0  0  0  0  0
    8.6624   -7.9191    0.0000 C   0  0  0  0  0  0  0  0  0  0  0  0
    7.9478   -8.3314    0.0000 C   0  0  0  0  0  0  0  0  0  0  0  0
    7.9475   -9.1564    0.0000 C   0  0  0  0  0  0  0  0  0  0  0  0
    5.0889  -11.6305    0.0000 C   0  0  0  0  0  0  0  0  0  0  0  0
    5.0891  -10.8055    0.0000 O   0  0  0  0  0  0  0  0  0  0  0  0
    7.9470  -10.8064    0.0000 O   0  0  0  0  0  0  0  0  0  0  0  0
    6.5181  -10.8060    0.0000 C   0  0  0  0  0  0  0  0  0  0  0  0
    5.8037  -10.3932    0.0000 C   0  0  0  0  0  0  0  0  0  0  0  0
    5.8040   -9.5682    0.0000 C   0  0  0  0  0  0  0  0  0  0  0  0
    6.5186   -9.1560    0.0000 C   0  0  0  0  0  0  0  0  0  0  0  0
    7.2329   -9.5687    0.0000 C   0  0  0  0  0  0  0  0  0  0  0  0
    7.2327  -10.3937    0.0000 C   0  0  0  0  0  0  0  0  0  0  0  0
 24  9  1  0  0  0  0
  8  7  1  0  0  0  0
  5  1  1  0  0  0  0
  7  2  2  0  0  0  0
  3  2  1  0  0  0  0
  4  3  2  0  0  0  0
  5  4  1  0  0  0  0
  6  5  2  0  0  0  0
  7  6  1  0  0  0  0
  9  8  1  0  0  0  0
 25 17  1  0  0  0  0
 17 16  1  0  0  0  0
 13 10  1  0  0  0  0
 16 11  2  0  0  0  0
 12 11  1  0  0  0  0
 13 12  2  0  0  0  0
 14 13  1  0  0  0  0
 15 14  2  0  0  0  0
 16 15  1  0  0  0  0
 22 19  1  0  0  0  0
 19 18  1  0  0  0  0
 26 20  1  0  0  0  0
 26 21  2  0  0  0  0
 22 21  1  0  0  0  0
 23 22  2  0  0  0  0
 24 23  1  0  0  0  0
 25 24  2  0  0  0  0
 26 25  1  0  0  0  0
M  END
>  <cdx:fragmentId>
5

$$$$
