95569.cdx
  Mrv1902 05222410262D          

 27 31  0  0  0  0            999 V2000
    7.1962   -9.6941    0.0000 C   0  0  0  0  0  0  0  0  0  0  0  0
    7.9106   -9.2816    0.0000 N   0  0  0  0  0  0  0  0  0  0  0  0
    7.9106   -8.4566    0.0000 C   0  0  2  0  0  0  0  0  0  0  0  0
    7.1962   -8.0441    0.0000 C   0  0  2  0  0  0  0  0  0  0  0  0
    6.4817   -8.4566    0.0000 C   0  0  0  0  0  0  0  0  0  0  0  0
    5.7672   -8.0441    0.0000 C   0  0  0  0  0  0  0  0  0  0  0  0
    5.0527   -8.4566    0.0000 C   0  0  0  0  0  0  0  0  0  0  0  0
    5.0527   -9.2816    0.0000 C   0  0  0  0  0  0  0  0  0  0  0  0
    5.7672   -9.6941    0.0000 C   0  0  0  0  0  0  0  0  0  0  0  0
    6.4817   -9.2816    0.0000 C   0  0  0  0  0  0  0  0  0  0  0  0
    8.6251   -9.6941    0.0000 C   0  0  0  0  0  0  0  0  0  0  0  0
    9.3396   -9.2816    0.0000 C   0  0  0  0  0  0  0  0  0  0  0  0
    9.3396   -8.4566    0.0000 C   0  0  0  0  0  0  0  0  0  0  0  0
   10.0540   -8.0441    0.0000 C   0  0  0  0  0  0  0  0  0  0  0  0
   10.0540   -7.2191    0.0000 C   0  0  0  0  0  0  0  0  0  0  0  0
    9.3396   -6.8066    0.0000 C   0  0  0  0  0  0  0  0  0  0  0  0
    8.6251   -7.2191    0.0000 C   0  0  0  0  0  0  0  0  0  0  0  0
    8.6251   -8.0441    0.0000 C   0  0  0  0  0  0  0  0  0  0  0  0
    7.1962   -7.2191    0.0000 C   0  0  0  0  0  0  0  0  0  0  0  0
    4.3383   -9.6941    0.0000 O   0  0  0  0  0  0  0  0  0  0  0  0
    3.6238   -9.2816    0.0000 C   0  0  0  0  0  0  0  0  0  0  0  0
    5.7672  -10.5191    0.0000 O   0  0  0  0  0  0  0  0  0  0  0  0
    5.0527  -10.9316    0.0000 C   0  0  0  0  0  0  0  0  0  0  0  0
   10.3316   -5.9134    0.0000 C   0  0  0  0  0  0  0  0  0  0  0  0
    9.5111   -5.9997    0.0000 O   0  0  0  0  0  0  0  0  0  0  0  0
   10.6671   -6.6671    0.0000 O   0  0  0  0  0  0  0  0  0  0  0  0
    7.9106   -7.6316    0.0000 H   0  0  0  0  0  0  0  0  0  0  0  0
  1  2  1  0  0  0  0
  2  3  1  0  0  0  0
  3  4  1  0  0  0  0
  4  5  1  0  0  0  0
  5  6  1  0  0  0  0
  6  7  2  0  0  0  0
  7  8  1  0  0  0  0
  8  9  2  0  0  0  0
  9 10  1  0  0  0  0
  1 10  1  0  0  0  0
  5 10  2  0  0  0  0
 11 12  1  0  0  0  0
 12 13  1  0  0  0  0
 13 14  2  0  0  0  0
 14 15  1  0  0  0  0
 15 16  2  0  0  0  0
 16 17  1  0  0  0  0
 17 18  2  0  0  0  0
 13 18  1  0  0  0  0
 11  2  1  0  0  0  0
 18  3  1  0  0  0  0
  4 19  1  6  0  0  0
 20 21  1  0  0  0  0
  8 20  1  0  0  0  0
 22 23  1  0  0  0  0
  9 22  1  0  0  0  0
 24 25  1  0  0  0  0
 24 26  1  0  0  0  0
 16 25  1  0  0  0  0
 15 26  1  0  0  0  0
  3 27  1  1  0  0  0
M  END
>  <cdx:groupId>
87

>  <cdx:fragmentId>
5

$$$$
