95560.cdx
  Mrv1902 05222410182D          

 55 62  0  0  0  0            999 V2000
   15.8013   -9.5394    0.0000 C   0  0  1  0  0  0  0  0  0  0  0  0
   16.5127   -9.1218    0.0000 C   0  0  2  0  0  0  0  0  0  0  0  0
   17.2992   -9.3710    0.0000 C   0  0  0  0  0  0  0  0  0  0  0  0
   17.7793   -8.7001    0.0000 C   0  0  2  0  0  0  0  0  0  0  0  0
   18.5620   -8.4395    0.0000 O   0  0  0  0  0  0  0  0  0  0  0  0
   18.5561   -7.6145    0.0000 C   0  0  2  0  0  0  0  0  0  0  0  0
   17.7696   -7.3653    0.0000 C   0  0  2  0  0  0  0  0  0  0  0  0
   17.2895   -8.0362    0.0000 C   0  0  2  0  0  0  0  0  0  0  0  0
   16.5068   -8.2968    0.0000 C   0  0  1  0  0  0  0  0  0  0  0  0
   15.7894   -7.8894    0.0000 C   0  0  0  0  0  0  0  0  0  0  0  0
   15.0779   -8.3071    0.0000 C   0  0  0  0  0  0  0  0  0  0  0  0
   15.0838   -9.1321    0.0000 C   0  0  2  0  0  0  0  0  0  0  0  0
   14.3724   -9.5497    0.0000 C   0  0  1  0  0  0  0  0  0  0  0  0
   13.6549   -9.1424    0.0000 C   0  0  1  0  0  0  0  0  0  0  0  0
   12.9435   -9.5600    0.0000 C   0  0  0  0  0  0  0  0  0  0  0  0
   12.9494  -10.3850    0.0000 C   0  0  1  0  0  0  0  0  0  0  0  0
   13.6668  -10.7923    0.0000 C   0  0  0  0  0  0  0  0  0  0  0  0
   14.3783  -10.3747    0.0000 C   0  0  0  0  0  0  0  0  0  0  0  0
   15.0958  -10.7820    0.0000 C   0  0  0  0  0  0  0  0  0  0  0  0
   15.8072  -10.3644    0.0000 C   0  0  0  0  0  0  0  0  0  0  0  0
   18.4639   -6.7947    0.0000 O   0  0  0  0  0  0  0  0  0  0  0  0
   19.3122   -7.9446    0.0000 C   0  0  0  0  0  0  0  0  0  0  0  0
   19.9761   -7.4549    0.0000 C   0  0  0  0  0  0  0  0  0  0  0  0
   19.8839   -6.6351    0.0000 C   0  0  2  0  0  0  0  0  0  0  0  0
   19.1278   -6.3050    0.0000 C   0  0  0  0  0  0  0  0  0  0  0  0
   13.6490   -8.3174    0.0000 O   0  0  0  0  0  0  0  0  0  0  0  0
   12.2379  -10.8027    0.0000 O   0  0  0  0  0  0  0  0  0  0  0  0
   14.3664   -8.7247    0.0000 C   0  0  0  0  0  0  0  0  0  0  0  0
   16.5068   -7.4718    0.0000 C   0  0  0  0  0  0  0  0  0  0  0  0
   17.5090   -6.5825    0.0000 C   0  0  0  0  0  0  0  0  0  0  0  0
   20.5478   -6.1453    0.0000 C   0  0  0  0  0  0  0  0  0  0  0  0
   15.7953   -8.7144    0.0000 H   0  0  0  0  0  0  0  0  0  0  0  0
   16.5187   -9.9467    0.0000 H   0  0  0  0  0  0  0  0  0  0  0  0
   18.2690   -9.3640    0.0000 H   0  0  0  0  0  0  0  0  0  0  0  0
   16.9225   -7.2973    0.0000 H   0  0  0  0  0  0  0  0  0  0  0  0
   15.0898   -9.9570    0.0000 H   0  0  0  0  0  0  0  0  0  0  0  0
   12.9315   -7.9101    0.0000 C   0  0  2  0  0  0  0  0  0  0  0  0
   12.9226   -7.0851    0.0000 O   0  0  0  0  0  0  0  0  0  0  0  0
   12.2037   -6.6804    0.0000 C   0  0  1  0  0  0  0  0  0  0  0  0
   11.4937   -7.0851    0.0000 C   0  0  1  0  0  0  0  0  0  0  0  0
   11.4937   -7.9101    0.0000 C   0  0  1  0  0  0  0  0  0  0  0  0
   12.2037   -8.3148    0.0000 C   0  0  1  0  0  0  0  0  0  0  0  0
   12.2015   -5.8554    0.0000 C   0  0  0  0  0  0  0  0  0  0  0  0
   10.7804   -6.6707    0.0000 O   0  0  0  0  0  0  0  0  0  0  0  0
   10.7804   -8.3245    0.0000 O   0  0  0  0  0  0  0  0  0  0  0  0
   12.1993   -9.1398    0.0000 O   0  0  0  0  0  0  0  0  0  0  0  0
    9.9554   -8.3218    0.0000 C   0  0  2  0  0  0  0  0  0  0  0  0
    9.5443   -7.6065    0.0000 O   0  0  0  0  0  0  0  0  0  0  0  0
    8.7193   -7.6049    0.0000 C   0  0  0  0  0  0  0  0  0  0  0  0
    8.3025   -8.3134    0.0000 C   0  0  2  0  0  0  0  0  0  0  0  0
    8.7106   -9.0304    0.0000 C   0  0  1  0  0  0  0  0  0  0  0  0
    9.5327   -9.0337    0.0000 C   0  0  1  0  0  0  0  0  0  0  0  0
    9.9394   -9.7515    0.0000 O   0  0  0  0  0  0  0  0  0  0  0  0
    8.2945   -9.7428    0.0000 O   0  0  0  0  0  0  0  0  0  0  0  0
    7.4775   -8.3075    0.0000 O   0  0  0  0  0  0  0  0  0  0  0  0
  1  2  1  0  0  0  0
  2  3  1  0  0  0  0
  3  4  1  0  0  0  0
  4  5  1  0  0  0  0
  6  5  1  6  0  0  0
  6  7  1  0  0  0  0
  7  8  1  0  0  0  0
  8  9  1  0  0  0  0
  9 10  1  0  0  0  0
 10 11  1  0  0  0  0
 11 12  1  0  0  0  0
 12 13  1  0  0  0  0
 13 14  1  0  0  0  0
 14 15  1  0  0  0  0
 15 16  1  0  0  0  0
 16 17  1  0  0  0  0
 17 18  1  0  0  0  0
 18 19  2  0  0  0  0
 19 20  1  0  0  0  0
  1 20  1  0  0  0  0
  1 12  1  0  0  0  0
 13 18  1  0  0  0  0
  2  9  1  0  0  0  0
  4  8  1  0  0  0  0
 22 23  1  0  0  0  0
 23 24  1  0  0  0  0
 24 25  1  0  0  0  0
 21 25  1  0  0  0  0
  6 21  1  0  0  0  0
  6 22  1  0  0  0  0
 14 26  1  1  0  0  0
 16 27  1  1  0  0  0
 13 28  1  1  0  0  0
  9 29  1  1  0  0  0
  7 30  1  6  0  0  0
 24 31  1  6  0  0  0
  1 32  1  1  0  0  0
  2 33  1  6  0  0  0
  4 34  1  6  0  0  0
  8 35  1  6  0  0  0
 12 36  1  6  0  0  0
 37 26  1  1  0  0  0
 37 38  1  0  0  0  0
 38 39  1  0  0  0  0
 39 40  1  0  0  0  0
 40 41  1  0  0  0  0
 41 42  1  0  0  0  0
 42 37  1  0  0  0  0
 39 43  1  1  0  0  0
 40 44  1  1  0  0  0
 41 45  1  1  0  0  0
 42 46  1  6  0  0  0
 47 45  1  1  0  0  0
 47 48  1  0  0  0  0
 48 49  1  0  0  0  0
 49 50  1  0  0  0  0
 50 51  1  0  0  0  0
 51 52  1  0  0  0  0
 52 47  1  0  0  0  0
 52 53  1  6  0  0  0
 51 54  1  1  0  0  0
 50 55  1  6  0  0  0
M  END
>  <cdx:fragmentId>
162

$$$$
