95570.cdx
  Mrv1902 05222410202D          

 24 23  0  0  0  0            999 V2000
    0.4082   -8.6229    0.0000 C   0  0  0  0  0  0  0  0  0  0  0  0
    7.5529   -9.4479    0.0000 O   0  0  0  0  0  0  0  0  0  0  0  0
    9.6963   -7.3854    0.0000 O   0  0  0  0  0  0  0  0  0  0  0  0
   10.4108   -9.4479    0.0000 O   0  0  0  0  0  0  0  0  0  0  0  0
    1.1226   -8.2104    0.0000 O   0  0  0  0  0  0  0  0  0  0  0  0
    1.8371   -9.4479    0.0000 O   0  0  0  0  0  0  0  0  0  0  0  0
   13.9831   -8.2104    0.0000 C   0  0  0  0  0  0  0  0  0  0  0  0
   13.2687   -8.6229    0.0000 C   0  0  0  0  0  0  0  0  0  0  0  0
   12.5542   -8.2104    0.0000 C   0  0  0  0  0  0  0  0  0  0  0  0
   11.8397   -8.6229    0.0000 C   0  0  0  0  0  0  0  0  0  0  0  0
   11.1252   -8.2104    0.0000 C   0  0  0  0  0  0  0  0  0  0  0  0
   10.4108   -8.6229    0.0000 C   0  0  1  0  0  0  0  0  0  0  0  0
    9.6963   -8.2104    0.0000 C   0  0  2  0  0  0  0  0  0  0  0  0
    8.9818   -8.6229    0.0000 C   0  0  0  0  0  0  0  0  0  0  0  0
    8.2674   -8.2104    0.0000 C   0  0  0  0  0  0  0  0  0  0  0  0
    7.5529   -8.6229    0.0000 C   0  0  2  0  0  0  0  0  0  0  0  0
    6.8384   -8.2104    0.0000 C   0  0  0  0  0  0  0  0  0  0  0  0
    6.1239   -8.6229    0.0000 C   0  0  0  0  0  0  0  0  0  0  0  0
    5.4095   -8.2104    0.0000 C   0  0  0  0  0  0  0  0  0  0  0  0
    4.6950   -8.6229    0.0000 C   0  0  0  0  0  0  0  0  0  0  0  0
    3.9805   -8.2104    0.0000 C   0  0  0  0  0  0  0  0  0  0  0  0
    3.2661   -8.6229    0.0000 C   0  0  0  0  0  0  0  0  0  0  0  0
    2.5516   -8.2104    0.0000 C   0  0  0  0  0  0  0  0  0  0  0  0
    1.8371   -8.6229    0.0000 C   0  0  0  0  0  0  0  0  0  0  0  0
  5  1  1  0  0  0  0
 16  2  1  1  0  0  0
 13  3  1  6  0  0  0
 12  4  1  6  0  0  0
 24  5  1  0  0  0  0
 24  6  2  0  0  0  0
  8  7  1  0  0  0  0
  9  8  1  0  0  0  0
 10  9  1  0  0  0  0
 11 10  1  0  0  0  0
 12 11  1  0  0  0  0
 13 12  1  0  0  0  0
 14 13  1  0  0  0  0
 15 14  2  0  0  0  0
 16 15  1  0  0  0  0
 17 16  1  0  0  0  0
 18 17  1  0  0  0  0
 19 18  1  0  0  0  0
 20 19  1  0  0  0  0
 21 20  1  0  0  0  0
 22 21  1  0  0  0  0
 23 22  1  0  0  0  0
 24 23  1  0  0  0  0
M  END
>  <cdx:fragmentId>
5

$$$$
