95574.cdx
  Mrv1902 05222410182D          

 32 35  0  0  0  0            999 V2000
    7.3054   -7.0279    0.0000 C   0  0  0  0  0  0  0  0  0  0  0  0
    7.3054   -7.8529    0.0000 C   0  0  0  0  0  0  0  0  0  0  0  0
    8.0199   -8.2654    0.0000 O   0  0  0  0  0  0  0  0  0  0  0  0
    6.5909   -8.2654    0.0000 C   0  0  0  0  0  0  0  0  0  0  0  0
    6.5909   -9.0904    0.0000 O   0  0  0  0  0  0  0  0  0  0  0  0
    5.8764   -7.8529    0.0000 C   0  0  0  0  0  0  0  0  0  0  0  0
    5.1620   -8.2654    0.0000 C   0  0  0  0  0  0  0  0  0  0  0  0
    5.1620   -9.0904    0.0000 O   0  0  0  0  0  0  0  0  0  0  0  0
    4.4475   -7.8529    0.0000 C   0  0  0  0  0  0  0  0  0  0  0  0
    4.4475   -7.0279    0.0000 C   0  0  0  0  0  0  0  0  0  0  0  0
    3.7330   -6.6154    0.0000 O   0  0  0  0  0  0  0  0  0  0  0  0
    5.1620   -6.6154    0.0000 C   0  0  0  0  0  0  0  0  0  0  0  0
    5.8764   -7.0279    0.0000 C   0  0  0  0  0  0  0  0  0  0  0  0
    6.5909   -6.6154    0.0000 O   0  0  0  0  0  0  0  0  0  0  0  0
    8.0199   -6.6154    0.0000 C   0  0  0  0  0  0  0  0  0  0  0  0
    8.0199   -5.7904    0.0000 C   0  0  0  0  0  0  0  0  0  0  0  0
    8.7343   -5.3779    0.0000 C   0  0  0  0  0  0  0  0  0  0  0  0
    9.4488   -5.7904    0.0000 C   0  0  0  0  0  0  0  0  0  0  0  0
   10.1633   -5.3779    0.0000 O   0  0  0  0  0  0  0  0  0  0  0  0
    9.4488   -6.6154    0.0000 C   0  0  0  0  0  0  0  0  0  0  0  0
    8.7343   -7.0279    0.0000 C   0  0  0  0  0  0  0  0  0  0  0  0
    7.3141   -9.5090    0.0000 O   0  0  0  0  0  0  0  0  0  0  0  0
    8.0238   -9.0884    0.0000 C   0  0  0  0  0  0  0  0  0  0  0  0
    8.7429   -9.4927    0.0000 C   0  0  1  0  0  0  0  0  0  0  0  0
    8.7523  -10.3177    0.0000 C   0  0  2  0  0  0  0  0  0  0  0  0
    8.0426  -10.7383    0.0000 C   0  0  2  0  0  0  0  0  0  0  0  0
    7.3234  -10.3339    0.0000 C   0  0  1  0  0  0  0  0  0  0  0  0
    9.4526   -9.0721    0.0000 O   0  0  0  0  0  0  0  0  0  0  0  0
    9.4714  -10.7220    0.0000 O   0  0  0  0  0  0  0  0  0  0  0  0
    8.0519  -11.5632    0.0000 O   0  0  0  0  0  0  0  0  0  0  0  0
    6.6137  -10.7545    0.0000 C   0  0  0  0  0  0  0  0  0  0  0  0
    6.6231  -11.5795    0.0000 O   0  0  0  0  0  0  0  0  0  0  0  0
  1  2  2  0  0  0  0
  2  3  1  0  0  0  0
  2  4  1  0  0  0  0
  4  5  2  0  0  0  0
  4  6  1  0  0  0  0
  6  7  1  0  0  0  0
  7  8  1  0  0  0  0
  7  9  2  0  0  0  0
  9 10  1  0  0  0  0
 10 11  1  0  0  0  0
 10 12  2  0  0  0  0
 12 13  1  0  0  0  0
  6 13  2  0  0  0  0
 13 14  1  0  0  0  0
  1 14  1  0  0  0  0
  1 15  1  0  0  0  0
 15 16  1  0  0  0  0
 16 17  2  0  0  0  0
 17 18  1  0  0  0  0
 18 19  1  0  0  0  0
 18 20  2  0  0  0  0
 20 21  1  0  0  0  0
 15 21  2  0  0  0  0
 22 23  1  0  0  0  0
 23 24  1  0  0  0  0
 24 25  1  0  0  0  0
 25 26  1  0  0  0  0
 26 27  1  0  0  0  0
 22 27  1  0  0  0  0
 24 28  1  6  0  0  0
 25 29  1  1  0  0  0
 26 30  1  1  0  0  0
 31 32  1  0  0  0  0
 27 31  1  1  0  0  0
 23  3  1  0  0  0  0
M  END
>  <cdx:groupId>
67

>  <cdx:fragmentId>
5

$$$$
