95577.cdx
  Mrv1902 05222410192D          

 51 56  0  0  0  0            999 V2000
    5.7043   -6.2837    0.0000 C   0  0  0  0  0  0  0  0  0  0  0  0
    5.7043   -7.1088    0.0000 C   0  0  0  0  0  0  0  0  0  0  0  0
    6.4188   -7.5213    0.0000 C   0  0  0  0  0  0  0  0  0  0  0  0
    7.1332   -7.1088    0.0000 C   0  0  0  0  0  0  0  0  0  0  0  0
    7.1332   -6.2837    0.0000 C   0  0  0  0  0  0  0  0  0  0  0  0
    6.4188   -5.8712    0.0000 C   0  0  0  0  0  0  0  0  0  0  0  0
    7.8477   -7.5213    0.0000 C   0  0  0  0  0  0  0  0  0  0  0  0
    8.5622   -7.1088    0.0000 C   0  0  0  0  0  0  0  0  0  0  0  0
    8.5622   -6.2837    0.0000 C   0  0  0  0  0  0  0  0  0  0  0  0
    7.8477   -5.8712    0.0000 O   0  0  0  0  0  0  0  0  0  0  0  0
    9.9911   -6.2837    0.0000 C   0  0  0  0  0  0  0  0  0  0  0  0
    9.2767   -5.8712    0.0000 C   0  0  0  0  0  0  0  0  0  0  0  0
   10.7056   -5.8712    0.0000 C   0  0  0  0  0  0  0  0  0  0  0  0
   10.7056   -5.0462    0.0000 C   0  0  0  0  0  0  0  0  0  0  0  0
    9.9911   -4.6338    0.0000 C   0  0  0  0  0  0  0  0  0  0  0  0
    9.2767   -5.0462    0.0000 C   0  0  0  0  0  0  0  0  0  0  0  0
   11.4201   -4.6338    0.0000 O   0  0  0  0  0  0  0  0  0  0  0  0
    9.9911   -3.8087    0.0000 O   0  0  0  0  0  0  0  0  0  0  0  0
    9.2767   -3.3963    0.0000 C   0  0  0  0  0  0  0  0  0  0  0  0
    7.8477   -8.3462    0.0000 O   0  0  0  0  0  0  0  0  0  0  0  0
    6.4188   -8.3462    0.0000 O   0  0  0  0  0  0  0  0  0  0  0  0
    4.9898   -5.8712    0.0000 O   0  0  0  0  0  0  0  0  0  0  0  0
    4.2754   -6.2837    0.0000 C   0  0  2  0  0  0  0  0  0  0  0  0
    3.5609   -5.8712    0.0000 O   0  0  0  0  0  0  0  0  0  0  0  0
    2.8464   -6.2837    0.0000 C   0  0  1  0  0  0  0  0  0  0  0  0
    2.8464   -7.1088    0.0000 C   0  0  2  0  0  0  0  0  0  0  0  0
    3.5609   -7.5213    0.0000 C   0  0  1  0  0  0  0  0  0  0  0  0
    4.2754   -7.1088    0.0000 C   0  0  1  0  0  0  0  0  0  0  0  0
    2.1319   -5.8712    0.0000 C   0  0  0  0  0  0  0  0  0  0  0  0
    3.5609   -8.3462    0.0000 O   0  0  0  0  0  0  0  0  0  0  0  0
    2.1319   -7.5213    0.0000 O   0  0  0  0  0  0  0  0  0  0  0  0
    4.9898   -7.5213    0.0000 O   0  0  0  0  0  0  0  0  0  0  0  0
    1.4175   -6.2837    0.0000 O   0  0  0  0  0  0  0  0  0  0  0  0
    4.9898   -8.3462    0.0000 C   0  0  2  0  0  0  0  0  0  0  0  0
    4.3224   -8.8312    0.0000 O   0  0  0  0  0  0  0  0  0  0  0  0
    4.5773   -9.6158    0.0000 C   0  0  0  0  0  0  0  0  0  0  0  0
    5.4023   -9.6158    0.0000 C   0  0  1  0  0  0  0  0  0  0  0  0
    5.6573   -8.8312    0.0000 C   0  0  1  0  0  0  0  0  0  0  0  0
    5.4023  -10.4408    0.0000 C   0  0  0  0  0  0  0  0  0  0  0  0
    6.4823   -8.8312    0.0000 O   0  0  0  0  0  0  0  0  0  0  0  0
    6.1992   -9.8293    0.0000 O   0  0  0  0  0  0  0  0  0  0  0  0
    6.1168  -10.8533    0.0000 O   0  0  0  0  0  0  0  0  0  0  0  0
    5.5448  -11.4456    0.0000 C   0  0  2  0  0  0  0  0  0  0  0  0
    4.7265  -11.3407    0.0000 O   0  0  0  0  0  0  0  0  0  0  0  0
    4.3739  -12.0866    0.0000 C   0  0  0  0  0  0  0  0  0  0  0  0
    4.9743  -12.6524    0.0000 C   0  0  1  0  0  0  0  0  0  0  0  0
    5.6980  -12.2563    0.0000 C   0  0  1  0  0  0  0  0  0  0  0  0
    4.4085  -13.2528    0.0000 C   0  0  0  0  0  0  0  0  0  0  0  0
    6.2983  -12.8221    0.0000 O   0  0  0  0  0  0  0  0  0  0  0  0
    5.4078  -13.3544    0.0000 O   0  0  0  0  0  0  0  0  0  0  0  0
    4.6455  -14.0430    0.0000 O   0  0  0  0  0  0  0  0  0  0  0  0
  1  2  2  0  0  0  0
  2  3  1  0  0  0  0
  3  4  2  0  0  0  0
  4  5  1  0  0  0  0
  5  6  2  0  0  0  0
  6  1  1  0  0  0  0
  4  7  1  0  0  0  0
  7  8  1  0  0  0  0
  8  9  1  0  0  0  0
  9 10  1  0  0  0  0
 10  5  1  0  0  0  0
 11 12  2  0  0  0  0
 12  9  1  0  0  0  0
 11 13  1  0  0  0  0
 13 14  2  0  0  0  0
 14 15  1  0  0  0  0
 15 16  2  0  0  0  0
 16 12  1  0  0  0  0
 14 17  1  0  0  0  0
 15 18  1  0  0  0  0
 18 19  1  0  0  0  0
  7 20  2  0  0  0  0
  3 21  1  0  0  0  0
  1 22  1  0  0  0  0
 23 22  1  1  0  0  0
 23 24  1  0  0  0  0
 24 25  1  0  0  0  0
 25 26  1  0  0  0  0
 26 27  1  0  0  0  0
 27 28  1  0  0  0  0
 28 23  1  0  0  0  0
 25 29  1  1  0  0  0
 27 30  1  1  0  0  0
 26 31  1  6  0  0  0
 28 32  1  6  0  0  0
 29 33  1  0  0  0  0
 34 32  1  1  0  0  0
 34 35  1  0  0  0  0
 35 36  1  0  0  0  0
 36 37  1  0  0  0  0
 37 38  1  0  0  0  0
 38 34  1  0  0  0  0
 37 39  1  1  0  0  0
 38 40  1  6  0  0  0
 37 41  1  6  0  0  0
 39 42  1  0  0  0  0
 43 44  1  0  0  0  0
 44 45  1  0  0  0  0
 45 46  1  0  0  0  0
 46 47  1  0  0  0  0
 47 43  1  0  0  0  0
 46 48  1  1  0  0  0
 47 49  1  6  0  0  0
 46 50  1  6  0  0  0
 48 51  1  0  0  0  0
 43 42  1  1  0  0  0
M  END
>  <cdx:fragmentId>
5

$$$$
