955724.cdx
  Mrv1902 05222410242D          

 36 40  0  0  0  0            999 V2000
    4.7814   -8.0231    0.0000 C   0  0  0  0  0  0  0  0  0  0  0  0
    4.7814   -8.8481    0.0000 C   0  0  2  0  0  0  0  0  0  0  0  0
    5.4959   -9.2606    0.0000 C   0  0  2  0  0  0  0  0  0  0  0  0
    6.2103   -8.8481    0.0000 C   0  0  1  0  0  0  0  0  0  0  0  0
    6.2103   -8.0231    0.0000 C   0  0  2  0  0  0  0  0  0  0  0  0
    5.4959   -7.6106    0.0000 C   0  0  0  0  0  0  0  0  0  0  0  0
    6.9248   -9.2606    0.0000 C   0  0  0  0  0  0  0  0  0  0  0  0
    7.6393   -8.8481    0.0000 C   0  0  0  0  0  0  0  0  0  0  0  0
    7.6393   -8.0231    0.0000 C   0  0  2  0  0  0  0  0  0  0  0  0
    6.9248   -7.6106    0.0000 C   0  0  2  0  0  0  0  0  0  0  0  0
    8.3538   -7.6106    0.0000 C   0  0  1  0  0  0  0  0  0  0  0  0
    8.3538   -6.7856    0.0000 C   0  0  0  0  0  0  0  0  0  0  0  0
    7.6393   -6.3731    0.0000 C   0  0  0  0  0  0  0  0  0  0  0  0
    6.9248   -6.7856    0.0000 C   0  0  0  0  0  0  0  0  0  0  0  0
    9.0682   -8.0231    0.0000 C   0  0  0  0  0  0  0  0  0  0  0  0
    9.7827   -7.6106    0.0000 C   0  0  0  0  0  0  0  0  0  0  0  0
    9.7827   -6.7856    0.0000 C   0  0  2  0  0  0  0  0  0  0  0  0
    9.0682   -6.3731    0.0000 C   0  0  1  0  0  0  0  0  0  0  0  0
   10.4972   -6.3731    0.0000 C   0  0  0  0  0  0  0  0  0  0  0  0
   10.4972   -5.5481    0.0000 C   0  0  0  0  0  0  0  0  0  0  0  0
    9.7827   -5.1356    0.0000 C   0  0  0  0  0  0  0  0  0  0  0  0
    9.0682   -5.5481    0.0000 C   0  0  0  0  0  0  0  0  0  0  0  0
    6.2103   -7.1981    0.0000 C   0  0  0  0  0  0  0  0  0  0  0  0
    7.6393   -7.1981    0.0000 C   0  0  0  0  0  0  0  0  0  0  0  0
    8.3538   -5.9606    0.0000 H   0  0  0  0  0  0  0  0  0  0  0  0
   10.4972   -7.1981    0.0000 C   0  0  0  0  0  0  0  0  0  0  0  0
    4.0669   -9.2606    0.0000 O   0  0  0  0  0  0  0  0  0  0  0  0
    5.9084   -9.9751    0.0000 C   0  0  0  0  0  0  0  0  0  0  0  0
    6.2103   -9.6731    0.0000 H   0  0  0  0  0  0  0  0  0  0  0  0
    6.9248   -8.4356    0.0000 H   0  0  0  0  0  0  0  0  0  0  0  0
    8.3538   -8.4356    0.0000 C   0  0  0  0  0  0  0  0  0  0  0  0
    5.0834   -9.9751    0.0000 C   0  0  0  0  0  0  0  0  0  0  0  0
    4.2584   -9.9751    0.0000 O   0  0  0  0  0  0  0  0  0  0  0  0
    5.4959  -10.6896    0.0000 O   0  0  0  0  0  0  0  0  0  0  0  0
    9.3702   -4.4212    0.0000 C   0  0  0  0  0  0  0  0  0  0  0  0
   10.1952   -4.4212    0.0000 C   0  0  0  0  0  0  0  0  0  0  0  0
  1  2  1  0  0  0  0
  2  3  1  0  0  0  0
  3  4  1  0  0  0  0
  4  5  1  0  0  0  0
  5  6  1  0  0  0  0
  6  1  1  0  0  0  0
  4  7  1  0  0  0  0
  7  8  1  0  0  0  0
  8  9  1  0  0  0  0
  9 10  1  0  0  0  0
 10  5  1  0  0  0  0
  9 11  1  0  0  0  0
 11 12  1  0  0  0  0
 12 13  2  0  0  0  0
 13 14  1  0  0  0  0
 14 10  1  0  0  0  0
 11 15  1  0  0  0  0
 15 16  1  0  0  0  0
 16 17  1  0  0  0  0
 17 18  1  0  0  0  0
 18 12  1  0  0  0  0
 17 19  1  0  0  0  0
 19 20  1  0  0  0  0
 20 21  1  0  0  0  0
 21 22  1  0  0  0  0
 22 18  1  0  0  0  0
  5 23  1  1  0  0  0
  9 24  1  1  0  0  0
 18 25  1  1  0  0  0
 17 26  1  1  0  0  0
  2 27  1  6  0  0  0
  3 28  1  6  0  0  0
  4 29  1  6  0  0  0
 10 30  1  6  0  0  0
 11 31  1  6  0  0  0
  3 32  1  1  0  0  0
 32 33  2  0  0  0  0
 32 34  1  0  0  0  0
 21 35  1  0  0  0  0
 21 36  1  0  0  0  0
M  END
>  <cdx:fragmentId>
168

$$$$
