95571.cdx
  Mrv1902 05222410202D          

 41 45  0  0  0  0            999 V2000
    6.7974   -3.0459    0.0000 C   0  0  0  0  0  0  0  0  0  0  0  0
    6.0831   -3.4587    0.0000 C   0  0  0  0  0  0  0  0  0  0  0  0
    6.0835   -4.2837    0.0000 O   0  0  0  0  0  0  0  0  0  0  0  0
    6.7981   -4.6959    0.0000 C   0  0  0  0  0  0  0  0  0  0  0  0
    7.5124   -4.2830    0.0000 C   0  0  0  0  0  0  0  0  0  0  0  0
    7.5120   -3.4580    0.0000 C   0  0  0  0  0  0  0  0  0  0  0  0
    8.2263   -3.0452    0.0000 O   0  0  0  0  0  0  0  0  0  0  0  0
    6.7970   -2.2209    0.0000 O   0  0  0  0  0  0  0  0  0  0  0  0
    5.3684   -3.0465    0.0000 O   0  0  0  0  0  0  0  0  0  0  0  0
   11.7985   -5.9189    0.0000 O   0  0  0  0  0  0  0  0  0  0  0  0
   11.7985   -4.2689    0.0000 O   0  0  0  0  0  0  0  0  0  0  0  0
    9.6550   -4.6814    0.0000 C   0  0  0  0  0  0  0  0  0  0  0  0
   10.3695   -4.2689    0.0000 C   0  0  0  0  0  0  0  0  0  0  0  0
   11.0840   -4.6814    0.0000 C   0  0  0  0  0  0  0  0  0  0  0  0
   11.0840   -5.5064    0.0000 C   0  0  0  0  0  0  0  0  0  0  0  0
   10.3695   -5.9189    0.0000 C   0  0  0  0  0  0  0  0  0  0  0  0
    9.6550   -5.5064    0.0000 C   0  0  0  0  0  0  0  0  0  0  0  0
    6.7972   -7.9814    0.0000 O   0  0  0  0  0  0  0  0  0  0  0  0
    5.3682   -5.5064    0.0000 O   0  0  0  0  0  0  0  0  0  0  0  0
    6.0827   -8.3939    0.0000 O   0  0  0  0  0  0  0  0  0  0  0  0
    4.6538   -9.2189    0.0000 O   0  0  0  0  0  0  0  0  0  0  0  0
    3.2248   -8.3939    0.0000 O   0  0  0  0  0  0  0  0  0  0  0  0
    2.5103   -7.1564    0.0000 O   0  0  0  0  0  0  0  0  0  0  0  0
    3.2248   -6.7439    0.0000 C   0  0  0  0  0  0  0  0  0  0  0  0
    3.9393   -7.1564    0.0000 C   0  0  2  0  0  0  0  0  0  0  0  0
    3.9393   -7.9814    0.0000 C   0  0  2  0  0  0  0  0  0  0  0  0
    4.6538   -8.3939    0.0000 C   0  0  1  0  0  0  0  0  0  0  0  0
    5.3682   -7.9814    0.0000 C   0  0  2  0  0  0  0  0  0  0  0  0
    5.3682   -7.1564    0.0000 C   0  0  1  0  0  0  0  0  0  0  0  0
    4.6538   -6.7439    0.0000 O   0  0  0  0  0  0  0  0  0  0  0  0
    8.2261   -7.9814    0.0000 O   0  0  0  0  0  0  0  0  0  0  0  0
    8.2261   -5.5064    0.0000 O   0  0  0  0  0  0  0  0  0  0  0  0
    7.5116   -5.9189    0.0000 C   0  0  0  0  0  0  0  0  0  0  0  0
    6.7972   -5.5064    0.0000 C   0  0  0  0  0  0  0  0  0  0  0  0
    6.0827   -5.9189    0.0000 C   0  0  0  0  0  0  0  0  0  0  0  0
    6.0827   -6.7439    0.0000 C   0  0  0  0  0  0  0  0  0  0  0  0
    6.7972   -7.1564    0.0000 C   0  0  0  0  0  0  0  0  0  0  0  0
    7.5116   -6.7439    0.0000 C   0  0  0  0  0  0  0  0  0  0  0  0
    8.2261   -7.1564    0.0000 C   0  0  0  0  0  0  0  0  0  0  0  0
    8.9406   -6.7439    0.0000 C   0  0  0  0  0  0  0  0  0  0  0  0
    8.9406   -5.9189    0.0000 C   0  0  0  0  0  0  0  0  0  0  0  0
  4 34  1  0  0  0  0
  1  2  1  0  0  0  0
  2  3  1  0  0  0  0
  3  4  1  0  0  0  0
  4  5  1  0  0  0  0
  5  6  1  0  0  0  0
  6  1  1  0  0  0  0
  6  7  1  0  0  0  0
  1  8  1  0  0  0  0
  2  9  1  0  0  0  0
 41 17  1  0  0  0  0
 15 10  1  0  0  0  0
 14 11  1  0  0  0  0
 17 12  2  0  0  0  0
 13 12  1  0  0  0  0
 14 13  2  0  0  0  0
 15 14  1  0  0  0  0
 16 15  2  0  0  0  0
 17 16  1  0  0  0  0
 37 18  1  0  0  0  0
 35 19  1  0  0  0  0
 29 36  1  1  0  0  0
 28 20  1  6  0  0  0
 27 21  1  1  0  0  0
 26 22  1  6  0  0  0
 25 24  1  1  0  0  0
 24 23  1  0  0  0  0
 30 25  1  0  0  0  0
 26 25  1  0  0  0  0
 27 26  1  0  0  0  0
 28 27  1  0  0  0  0
 29 28  1  0  0  0  0
 30 29  1  0  0  0  0
 39 31  2  0  0  0  0
 41 32  1  0  0  0  0
 33 32  1  0  0  0  0
 38 33  2  0  0  0  0
 34 33  1  0  0  0  0
 35 34  2  0  0  0  0
 36 35  1  0  0  0  0
 37 36  2  0  0  0  0
 38 37  1  0  0  0  0
 39 38  1  0  0  0  0
 40 39  1  0  0  0  0
 41 40  2  0  0  0  0
M  END
>  <cdx:groupId>
135

>  <cdx:fragmentId>
5

$$$$
