95579.cdx
  Mrv1902 05222410282D          

 41 44  0  0  0  0            999 V2000
    9.4268   -7.9284    0.0000 O   0  0  0  0  0  0  0  0  0  0  0  0
    8.7117   -8.3398    0.0000 C   0  0  1  0  0  0  0  0  0  0  0  0
    8.7104   -9.1648    0.0000 C   0  0  2  0  0  0  0  0  0  0  0  0
    9.4242   -9.5784    0.0000 O   0  0  0  0  0  0  0  0  0  0  0  0
    7.9953   -9.5762    0.0000 C   0  0  1  0  0  0  0  0  0  0  0  0
    7.9940  -10.4012    0.0000 O   0  0  0  0  0  0  0  0  0  0  0  0
    7.2815   -9.1625    0.0000 C   0  0  2  0  0  0  0  0  0  0  0  0
    6.5663   -9.5739    0.0000 O   0  0  0  0  0  0  0  0  0  0  0  0
    7.2827   -8.3375    0.0000 C   0  0  2  0  0  0  0  0  0  0  0  0
    7.9978   -7.9262    0.0000 O   0  0  0  0  0  0  0  0  0  0  0  0
    6.5689   -7.9239    0.0000 C   0  0  0  0  0  0  0  0  0  0  0  0
    5.8538   -8.3353    0.0000 O   0  0  0  0  0  0  0  0  0  0  0  0
    5.1400   -7.9217    0.0000 C   0  0  1  0  0  0  0  0  0  0  0  0
    5.1413   -7.0967    0.0000 C   0  0  2  0  0  0  0  0  0  0  0  0
    5.8564   -6.6853    0.0000 O   0  0  0  0  0  0  0  0  0  0  0  0
    4.4274   -6.6831    0.0000 C   0  0  1  0  0  0  0  0  0  0  0  0
    4.4287   -5.8581    0.0000 O   0  0  0  0  0  0  0  0  0  0  0  0
    3.7123   -7.0945    0.0000 C   0  0  2  0  0  0  0  0  0  0  0  0
    2.9985   -6.6809    0.0000 O   0  0  0  0  0  0  0  0  0  0  0  0
    3.7110   -7.9195    0.0000 C   0  0  2  0  0  0  0  0  0  0  0  0
    4.4249   -8.3331    0.0000 O   0  0  0  0  0  0  0  0  0  0  0  0
    2.9959   -8.3309    0.0000 C   0  0  0  0  0  0  0  0  0  0  0  0
    2.2821   -7.9173    0.0000 O   0  0  0  0  0  0  0  0  0  0  0  0
   10.1099   -3.3860    0.0000 C   0  0  0  0  0  0  0  0  0  0  0  0
   10.1384   -7.5109    0.0000 H   0  0  0  0  0  0  0  0  0  0  0  0
   10.1213   -5.0360    0.0000 H   0  0  0  0  0  0  0  0  0  0  0  0
   12.2675   -5.4337    0.0000 O   0  0  0  0  0  0  0  0  0  0  0  0
   10.8557   -7.9185    0.0000 C   0  0  0  0  0  0  0  0  0  0  0  0
   10.1156   -4.2110    0.0000 O   0  0  0  0  0  0  0  0  0  0  0  0
    8.6867   -4.2209    0.0000 O   0  0  0  0  0  0  0  0  0  0  0  0
    9.4040   -4.6285    0.0000 C   0  0  0  0  0  0  0  0  0  0  0  0
    8.7038   -6.6958    0.0000 O   0  0  0  0  0  0  0  0  0  0  0  0
    8.6981   -5.8709    0.0000 C   0  0  0  0  0  0  0  0  0  0  0  0
    9.4097   -5.4534    0.0000 C   0  0  0  0  0  0  0  0  0  0  0  0
    9.4211   -7.1034    0.0000 C   0  0  2  0  0  0  0  0  0  0  0  0
   11.5616   -6.6761    0.0000 O   0  0  0  0  0  0  0  0  0  0  0  0
   11.5559   -5.8511    0.0000 C   0  0  0  0  0  0  0  0  0  0  0  0
   10.8386   -5.4435    0.0000 C   0  0  0  0  0  0  0  0  0  0  0  0
   10.1270   -5.8610    0.0000 C   0  0  1  0  0  0  0  0  0  0  0  0
   10.1327   -6.6860    0.0000 C   0  0  1  0  0  0  0  0  0  0  0  0
   10.8500   -7.0935    0.0000 C   0  0  2  0  0  0  0  0  0  0  0  0
 29 24  1  0  0  0  0
 40 25  1  6  0  0  0
 39 26  1  6  0  0  0
 35  1  1  6  0  0  0
  2  3  1  0  0  0  0
 37 27  1  0  0  0  0
 41 28  1  1  0  0  0
 34 31  1  0  0  0  0
 31 29  1  0  0  0  0
 31 30  2  0  0  0  0
 34 39  1  0  0  0  0
 35 40  1  0  0  0  0
 35 32  1  0  0  0  0
 33 32  1  0  0  0  0
 34 33  2  0  0  0  0
 41 36  1  0  0  0  0
 37 36  1  0  0  0  0
 38 37  1  0  0  0  0
 39 38  1  0  0  0  0
 40 39  1  0  0  0  0
 41 40  1  0  0  0  0
  3  4  1  6  0  0  0
  3  5  1  0  0  0  0
  5  6  1  1  0  0  0
  5  7  1  0  0  0  0
  7  8  1  6  0  0  0
  7  9  1  0  0  0  0
  9 10  1  0  0  0  0
  9 11  1  1  0  0  0
 11 12  1  0  0  0  0
  2 10  1  0  0  0  0
 13 14  1  0  0  0  0
 14 15  1  1  0  0  0
 14 16  1  0  0  0  0
 16 17  1  6  0  0  0
 16 18  1  0  0  0  0
 18 19  1  1  0  0  0
 18 20  1  0  0  0  0
 20 21  1  0  0  0  0
 20 22  1  6  0  0  0
 22 23  1  0  0  0  0
 13 21  1  0  0  0  0
 13 12  1  6  0  0  0
  2  1  1  1  0  0  0
M  END
>  <cdx:fragmentId>
37

$$$$
