95572.cdx
  Mrv1902 05222410192D          

 42 46  0  0  0  0            999 V2000
    8.1328   -3.7264    0.0000 C   0  0  0  0  0  0  0  0  0  0  0  0
    6.7062   -2.8974    0.0000 O   0  0  0  0  0  0  0  0  0  0  0  0
    5.2749   -3.7183    0.0000 O   0  0  0  0  0  0  0  0  0  0  0  0
    5.9882   -4.1328    0.0000 C   0  0  2  0  0  0  0  0  0  0  0  0
    5.9858   -4.9578    0.0000 C   0  0  2  0  0  0  0  0  0  0  0  0
    6.6991   -5.3724    0.0000 C   0  0  1  0  0  0  0  0  0  0  0  0
    7.4148   -4.9619    0.0000 O   0  0  0  0  0  0  0  0  0  0  0  0
    7.4171   -4.1369    0.0000 C   0  0  1  0  0  0  0  0  0  0  0  0
    6.7038   -3.7224    0.0000 C   0  0  1  0  0  0  0  0  0  0  0  0
    5.2702   -5.3683    0.0000 O   0  0  0  0  0  0  0  0  0  0  0  0
    8.1347   -2.9014    0.0000 O   0  0  0  0  0  0  0  0  0  0  0  0
   11.6995   -6.5954    0.0000 O   0  0  0  0  0  0  0  0  0  0  0  0
   11.6995   -4.9454    0.0000 O   0  0  0  0  0  0  0  0  0  0  0  0
    9.5560   -5.3579    0.0000 C   0  0  0  0  0  0  0  0  0  0  0  0
   10.2705   -4.9454    0.0000 C   0  0  0  0  0  0  0  0  0  0  0  0
   10.9850   -5.3579    0.0000 C   0  0  0  0  0  0  0  0  0  0  0  0
   10.9850   -6.1829    0.0000 C   0  0  0  0  0  0  0  0  0  0  0  0
   10.2705   -6.5954    0.0000 C   0  0  0  0  0  0  0  0  0  0  0  0
    9.5560   -6.1829    0.0000 C   0  0  0  0  0  0  0  0  0  0  0  0
    6.6982   -8.6579    0.0000 O   0  0  0  0  0  0  0  0  0  0  0  0
    5.2692   -6.1829    0.0000 O   0  0  0  0  0  0  0  0  0  0  0  0
    4.5548   -9.8954    0.0000 O   0  0  0  0  0  0  0  0  0  0  0  0
    3.1258   -9.0704    0.0000 O   0  0  0  0  0  0  0  0  0  0  0  0
    3.1258   -7.4204    0.0000 O   0  0  0  0  0  0  0  0  0  0  0  0
    3.8403   -7.8329    0.0000 C   0  0  0  0  0  0  0  0  0  0  0  0
    3.8403   -8.6579    0.0000 C   0  0  0  0  0  0  0  0  0  0  0  0
    4.5548   -9.0704    0.0000 C   0  0  0  0  0  0  0  0  0  0  0  0
    5.2692   -8.6579    0.0000 C   0  0  0  0  0  0  0  0  0  0  0  0
    5.2692   -7.8329    0.0000 C   0  0  0  0  0  0  0  0  0  0  0  0
    4.5548   -7.4204    0.0000 O   0  0  0  0  0  0  0  0  0  0  0  0
    8.1271   -8.6579    0.0000 O   0  0  0  0  0  0  0  0  0  0  0  0
    8.1271   -6.1829    0.0000 O   0  0  0  0  0  0  0  0  0  0  0  0
    7.4126   -6.5954    0.0000 C   0  0  0  0  0  0  0  0  0  0  0  0
    6.6982   -6.1829    0.0000 C   0  0  0  0  0  0  0  0  0  0  0  0
    5.9837   -6.5954    0.0000 C   0  0  0  0  0  0  0  0  0  0  0  0
    5.9837   -7.4204    0.0000 C   0  0  0  0  0  0  0  0  0  0  0  0
    6.6982   -7.8329    0.0000 C   0  0  0  0  0  0  0  0  0  0  0  0
    7.4126   -7.4204    0.0000 C   0  0  0  0  0  0  0  0  0  0  0  0
    8.1271   -7.8329    0.0000 C   0  0  0  0  0  0  0  0  0  0  0  0
    8.8416   -7.4204    0.0000 C   0  0  0  0  0  0  0  0  0  0  0  0
    8.8416   -6.5954    0.0000 C   0  0  0  0  0  0  0  0  0  0  0  0
    7.4136   -5.7849    0.0000 H   0  0  0  0  0  0  0  0  0  0  0  0
  8  1  1  1  0  0  0
  9  2  1  6  0  0  0
  6 34  1  0  0  0  0
  4  3  1  1  0  0  0
  4  9  1  0  0  0  0
  5  4  1  0  0  0  0
  6  5  1  0  0  0  0
  7  6  1  0  0  0  0
  8  7  1  0  0  0  0
  9  8  1  0  0  0  0
  5 10  1  6  0  0  0
  1 11  1  0  0  0  0
 41 19  1  0  0  0  0
 17 12  1  0  0  0  0
 16 13  1  0  0  0  0
 19 14  2  0  0  0  0
 15 14  1  0  0  0  0
 16 15  2  0  0  0  0
 17 16  1  0  0  0  0
 18 17  2  0  0  0  0
 19 18  1  0  0  0  0
 37 20  1  0  0  0  0
 35 21  1  0  0  0  0
 36 29  1  0  0  0  0
 27 22  1  0  0  0  0
 26 23  1  0  0  0  0
 25 24  1  0  0  0  0
 30 25  1  0  0  0  0
 26 25  1  0  0  0  0
 27 26  1  0  0  0  0
 28 27  1  0  0  0  0
 29 28  1  0  0  0  0
 30 29  1  0  0  0  0
 39 31  2  0  0  0  0
 41 32  1  0  0  0  0
 33 32  1  0  0  0  0
 38 33  2  0  0  0  0
 34 33  1  0  0  0  0
 35 34  2  0  0  0  0
 36 35  1  0  0  0  0
 37 36  2  0  0  0  0
 38 37  1  0  0  0  0
 39 38  1  0  0  0  0
 40 39  1  0  0  0  0
 41 40  2  0  0  0  0
  6 42  1  6  0  0  0
M  END
>  <cdx:groupId>
135

>  <cdx:fragmentId>
5

$$$$
