955868.cdx
  Mrv1902 05222410232D          

 54 58  0  0  0  0            999 V2000
    4.9076   -6.8072    0.0000 O   0  0  0  0  0  0  0  0  0  0  0  0
    3.8597   -5.8721    0.0000 O   0  0  0  0  0  0  0  0  0  0  0  0
    3.1060   -5.5365    0.0000 O   0  0  0  0  0  0  0  0  0  0  0  0
    3.7734   -5.0516    0.0000 C   0  0  0  0  0  0  0  0  0  0  0  0
    4.9396   -4.6727    0.0000 C   0  0  0  0  0  0  0  0  0  0  0  0
    4.5271   -5.3872    0.0000 C   0  0  2  0  0  0  0  0  0  0  0  0
    5.0791   -6.0003    0.0000 C   0  0  2  0  0  0  0  0  0  0  0  0
    5.8328   -5.6647    0.0000 C   0  0  1  0  0  0  0  0  0  0  0  0
    5.7466   -4.8442    0.0000 O   0  0  0  0  0  0  0  0  0  0  0  0
    6.5473   -6.0772    0.0000 O   0  0  0  0  0  0  0  0  0  0  0  0
    6.5473   -6.9022    0.0000 C   0  0  0  0  0  0  0  0  0  0  0  0
   13.6920   -6.9022    0.0000 O   0  0  0  0  0  0  0  0  0  0  0  0
   13.6920   -8.5522    0.0000 O   0  0  0  0  0  0  0  0  0  0  0  0
   11.5486   -8.1397    0.0000 C   0  0  0  0  0  0  0  0  0  0  0  0
   12.2631   -8.5522    0.0000 C   0  0  0  0  0  0  0  0  0  0  0  0
   12.9775   -8.1397    0.0000 C   0  0  0  0  0  0  0  0  0  0  0  0
   12.9775   -7.3147    0.0000 C   0  0  0  0  0  0  0  0  0  0  0  0
   12.2631   -6.9022    0.0000 C   0  0  0  0  0  0  0  0  0  0  0  0
   11.5486   -7.3147    0.0000 C   0  0  0  0  0  0  0  0  0  0  0  0
   10.8341   -6.9022    0.0000 C   0  0  0  0  0  0  0  0  0  0  0  0
   10.1196   -7.3147    0.0000 C   0  0  0  0  0  0  0  0  0  0  0  0
    9.4052   -6.9022    0.0000 O   0  0  0  0  0  0  0  0  0  0  0  0
    9.4052   -8.5522    0.0000 O   0  0  0  0  0  0  0  0  0  0  0  0
    7.9762  -11.0272    0.0000 O   0  0  0  0  0  0  0  0  0  0  0  0
    6.5473  -11.8522    0.0000 O   0  0  0  0  0  0  0  0  0  0  0  0
    5.1184  -11.0272    0.0000 O   0  0  0  0  0  0  0  0  0  0  0  0
    5.1184   -9.3772    0.0000 C   0  0  0  0  0  0  0  0  0  0  0  0
    5.8328   -9.7897    0.0000 C   0  0  1  0  0  0  0  0  0  0  0  0
    5.8328  -10.6147    0.0000 C   0  0  1  0  0  0  0  0  0  0  0  0
    6.5473  -11.0272    0.0000 C   0  0  2  0  0  0  0  0  0  0  0  0
    7.2618  -10.6147    0.0000 C   0  0  2  0  0  0  0  0  0  0  0  0
    7.2618   -9.7897    0.0000 C   0  0  1  0  0  0  0  0  0  0  0  0
    6.5473   -9.3772    0.0000 O   0  0  0  0  0  0  0  0  0  0  0  0
    7.9762   -9.3772    0.0000 O   0  0  0  0  0  0  0  0  0  0  0  0
    8.6907   -7.3147    0.0000 C   0  0  1  0  0  0  0  0  0  0  0  0
    8.6907   -8.1397    0.0000 C   0  0  1  0  0  0  0  0  0  0  0  0
    7.9762   -8.5522    0.0000 C   0  0  2  0  0  0  0  0  0  0  0  0
    7.2618   -8.1397    0.0000 C   0  0  1  0  0  0  0  0  0  0  0  0
    7.2618   -7.3147    0.0000 C   0  0  2  0  0  0  0  0  0  0  0  0
    7.9762   -6.9022    0.0000 O   0  0  0  0  0  0  0  0  0  0  0  0
    1.5460   -9.7897    0.0000 O   0  0  0  0  0  0  0  0  0  0  0  0
    0.8315   -8.5522    0.0000 C   0  0  0  0  0  0  0  0  0  0  0  0
    1.5460   -8.1397    0.0000 O   0  0  0  0  0  0  0  0  0  0  0  0
    3.6894   -9.3772    0.0000 C   0  0  0  0  0  0  0  0  0  0  0  0
    2.9749   -9.7897    0.0000 C   0  0  0  0  0  0  0  0  0  0  0  0
    2.2605   -9.3772    0.0000 C   0  0  0  0  0  0  0  0  0  0  0  0
    2.2605   -8.5522    0.0000 C   0  0  0  0  0  0  0  0  0  0  0  0
    2.9749   -8.1397    0.0000 C   0  0  0  0  0  0  0  0  0  0  0  0
    3.6894   -8.5522    0.0000 C   0  0  0  0  0  0  0  0  0  0  0  0
    6.5473   -8.5522    0.0000 O   0  0  0  0  0  0  0  0  0  0  0  0
    5.8328   -7.3147    0.0000 O   0  0  0  0  0  0  0  0  0  0  0  0
    4.4039   -8.1397    0.0000 C   0  0  0  0  0  0  0  0  0  0  0  0
    5.1184   -8.5522    0.0000 C   0  0  0  0  0  0  0  0  0  0  0  0
    5.8328   -8.1397    0.0000 C   0  0  0  0  0  0  0  0  0  0  0  0
 38 50  1  6  0  0  0
 39 11  1  1  0  0  0
 11 10  1  0  0  0  0
  8 10  1  1  0  0  0
  7  1  1  6  0  0  0
  6  2  1  6  0  0  0
  6  4  1  1  0  0  0
  4  3  1  0  0  0  0
  9  5  1  0  0  0  0
  6  5  1  0  0  0  0
  7  6  1  0  0  0  0
  8  7  1  0  0  0  0
  9  8  1  0  0  0  0
 35 22  1  1  0  0  0
 20 19  1  0  0  0  0
 17 12  1  0  0  0  0
 16 13  1  0  0  0  0
 19 14  2  0  0  0  0
 15 14  1  0  0  0  0
 16 15  2  0  0  0  0
 17 16  1  0  0  0  0
 18 17  2  0  0  0  0
 19 18  1  0  0  0  0
 22 21  1  0  0  0  0
 21 20  1  0  0  0  0
 36 23  1  6  0  0  0
 37 34  1  1  0  0  0
 32 34  1  1  0  0  0
 31 24  1  6  0  0  0
 30 25  1  6  0  0  0
 29 26  1  1  0  0  0
 28 27  1  6  0  0  0
 33 28  1  0  0  0  0
 29 28  1  0  0  0  0
 30 29  1  0  0  0  0
 31 30  1  0  0  0  0
 32 31  1  0  0  0  0
 33 32  1  0  0  0  0
 40 35  1  0  0  0  0
 36 35  1  0  0  0  0
 37 36  1  0  0  0  0
 38 37  1  0  0  0  0
 39 38  1  0  0  0  0
 40 39  1  0  0  0  0
 52 49  1  0  0  0  0
 46 41  1  0  0  0  0
 47 43  1  0  0  0  0
 43 42  1  0  0  0  0
 49 44  2  0  0  0  0
 45 44  1  0  0  0  0
 46 45  2  0  0  0  0
 47 46  1  0  0  0  0
 48 47  2  0  0  0  0
 49 48  1  0  0  0  0
 54 50  1  0  0  0  0
 54 51  2  0  0  0  0
 53 52  2  0  0  0  0
 54 53  1  0  0  0  0
M  END
>  <cdx:fragmentId>
47

$$$$
