95593.cdx
  Mrv1902 05222410282D          

 11 11  0  0  0  0            999 V2000
    8.2723   -4.3106    0.0000 C   0  0  0  0  0  0  0  0  0  0  0  0
    7.5578   -3.8981    0.0000 C   0  0  0  0  0  0  0  0  0  0  0  0
    6.8434   -4.3106    0.0000 C   0  0  0  0  0  0  0  0  0  0  0  0
    8.9868   -3.8981    0.0000 O   0  0  0  0  0  0  0  0  0  0  0  0
    6.1289   -3.8981    0.0000 C   0  0  0  0  0  0  0  0  0  0  0  0
    5.4144   -4.3106    0.0000 C   0  0  0  0  0  0  0  0  0  0  0  0
    4.7000   -3.8981    0.0000 C   0  0  0  0  0  0  0  0  0  0  0  0
    4.7000   -3.0731    0.0000 C   0  0  0  0  0  0  0  0  0  0  0  0
    5.4144   -2.6606    0.0000 C   0  0  0  0  0  0  0  0  0  0  0  0
    6.1289   -3.0731    0.0000 C   0  0  0  0  0  0  0  0  0  0  0  0
    7.5578   -3.0731    0.0000 C   0  0  0  0  0  0  0  0  0  0  0  0
  1  2  1  0  0  0  0
  2  3  1  0  0  0  0
  1  4  2  0  0  0  0
  5  6  1  0  0  0  0
  6  7  2  0  0  0  0
  7  8  1  0  0  0  0
  8  9  2  0  0  0  0
  9 10  1  0  0  0  0
  5 10  2  0  0  0  0
  3  5  1  0  0  0  0
  2 11  1  0  0  0  0
M  END
>  <cdx:fragmentId>
13

$$$$
