95592.cdx
  Mrv1902 05222410282D          

 97106  0  0  0  0            999 V2000
   17.6371   -4.4830    0.0000 C   0  0  2  0  0  0  0  0  0  0  0  0
   20.2570   -3.5990    0.0000 O   0  0  0  0  0  0  0  0  0  0  0  0
   16.9288   -4.9060    0.0000 O   0  0  0  0  0  0  0  0  0  0  0  0
   16.9278   -5.7278    0.0000 C   0  0  0  0  0  0  0  0  0  0  0  0
   16.2317   -6.9757    0.0000 O   0  0  0  0  0  0  0  0  0  0  0  0
   16.2195   -6.1508    0.0000 C   0  0  1  0  0  0  0  0  0  0  0  0
   15.4991   -5.7489    0.0000 C   0  0  2  0  0  0  0  0  0  0  0  0
   14.7907   -6.1718    0.0000 C   0  0  1  0  0  0  0  0  0  0  0  0
   14.8029   -6.9968    0.0000 C   0  0  2  0  0  0  0  0  0  0  0  0
   15.5234   -7.3987    0.0000 C   0  0  2  0  0  0  0  0  0  0  0  0
   14.0946   -7.4197    0.0000 O   0  0  0  0  0  0  0  0  0  0  0  0
   14.0703   -5.7699    0.0000 O   0  0  0  0  0  0  0  0  0  0  0  0
   15.4869   -4.9240    0.0000 O   0  0  0  0  0  0  0  0  0  0  0  0
   15.5511   -8.2232    0.0000 O   0  0  0  0  0  0  0  0  0  0  0  0
   16.1179   -8.8072    0.0000 C   0  0  2  0  0  0  0  0  0  0  0  0
   12.2204  -10.6718    0.0000 C   0  0  0  0  0  0  0  0  0  0  0  0
   11.5060  -11.0843    0.0000 C   0  0  0  0  0  0  0  0  0  0  0  0
   11.5060  -11.9093    0.0000 C   0  0  1  0  0  0  0  0  0  0  0  0
   12.2204  -12.3218    0.0000 C   0  0  0  0  0  0  0  0  0  0  0  0
   12.9349  -11.9093    0.0000 C   0  0  2  0  0  0  0  0  0  0  0  0
   13.6494  -12.3218    0.0000 C   0  0  0  0  0  0  0  0  0  0  0  0
   14.3638  -11.9093    0.0000 C   0  0  0  0  0  0  0  0  0  0  0  0
   14.3638  -11.0843    0.0000 C   0  0  1  0  0  0  0  0  0  0  0  0
   15.0783  -10.6718    0.0000 C   0  0  2  0  0  0  0  0  0  0  0  0
   15.8629  -10.9267    0.0000 C   0  0  0  0  0  0  0  0  0  0  0  0
   16.3479  -10.2593    0.0000 C   0  0  0  0  0  0  0  0  0  0  0  0
   15.8629   -9.5919    0.0000 C   0  0  1  0  0  0  0  0  0  0  0  0
   15.0783   -9.8468    0.0000 C   0  0  1  0  0  0  0  0  0  0  0  0
   14.3638   -9.4343    0.0000 C   0  0  1  0  0  0  0  0  0  0  0  0
   13.6494   -9.8468    0.0000 C   0  0  0  0  0  0  0  0  0  0  0  0
   13.6494  -10.6718    0.0000 C   0  0  2  0  0  0  0  0  0  0  0  0
   12.9349  -11.0843    0.0000 C   0  0  1  0  0  0  0  0  0  0  0  0
   15.0783  -11.4968    0.0000 C   0  0  0  0  0  0  0  0  0  0  0  0
   12.9349  -10.2593    0.0000 C   0  0  0  0  0  0  0  0  0  0  0  0
   14.3638  -10.2593    0.0000 C   0  0  0  0  0  0  0  0  0  0  0  0
   12.6329  -13.0363    0.0000 C   0  0  0  0  0  0  0  0  0  0  0  0
   11.8079  -13.0363    0.0000 C   0  0  0  0  0  0  0  0  0  0  0  0
   14.3638   -8.6093    0.0000 O   0  0  0  0  0  0  0  0  0  0  0  0
   10.7915  -12.3218    0.0000 O   0  0  0  0  0  0  0  0  0  0  0  0
   10.0786  -11.0834    0.0000 O   0  0  0  0  0  0  0  0  0  0  0  0
   10.0775  -11.9084    0.0000 C   0  0  2  0  0  0  0  0  0  0  0  0
    9.3626  -12.3200    0.0000 C   0  0  1  0  0  0  0  0  0  0  0  0
    8.6486  -11.9066    0.0000 C   0  0  2  0  0  0  0  0  0  0  0  0
    8.6496  -11.0816    0.0000 C   0  0  1  0  0  0  0  0  0  0  0  0
    9.3646  -10.6700    0.0000 C   0  0  1  0  0  0  0  0  0  0  0  0
    9.3615  -13.1450    0.0000 O   0  0  0  0  0  0  0  0  0  0  0  0
    7.9326  -13.1432    0.0000 O   0  0  0  0  0  0  0  0  0  0  0  0
    8.6465  -13.5566    0.0000 C   0  0  2  0  0  0  0  0  0  0  0  0
    8.6455  -14.3816    0.0000 C   0  0  1  0  0  0  0  0  0  0  0  0
    7.9305  -14.7932    0.0000 C   0  0  2  0  0  0  0  0  0  0  0  0
    7.2166  -14.3798    0.0000 C   0  0  1  0  0  0  0  0  0  0  0  0
    7.2176  -13.5548    0.0000 C   0  0  1  0  0  0  0  0  0  0  0  0
    6.5036  -13.1414    0.0000 C   0  0  0  0  0  0  0  0  0  0  0  0
    6.5016  -14.7914    0.0000 O   0  0  0  0  0  0  0  0  0  0  0  0
    7.9295  -15.6182    0.0000 O   0  0  0  0  0  0  0  0  0  0  0  0
    9.3594  -14.7950    0.0000 O   0  0  0  0  0  0  0  0  0  0  0  0
    9.3657   -9.8450    0.0000 C   0  0  0  0  0  0  0  0  0  0  0  0
    8.6517   -9.4316    0.0000 O   0  0  0  0  0  0  0  0  0  0  0  0
    7.9357  -10.6682    0.0000 O   0  0  0  0  0  0  0  0  0  0  0  0
    7.9336  -12.3182    0.0000 O   0  0  0  0  0  0  0  0  0  0  0  0
   12.9349  -12.7343    0.0000 H   0  0  0  0  0  0  0  0  0  0  0  0
   13.6494  -11.4968    0.0000 H   0  0  0  0  0  0  0  0  0  0  0  0
   15.1646   -9.0263    0.0000 H   0  0  0  0  0  0  0  0  0  0  0  0
   16.6778   -9.4628    0.0000 H   0  0  0  0  0  0  0  0  0  0  0  0
    5.7886  -13.5530    0.0000 O   0  0  0  0  0  0  0  0  0  0  0  0
   16.9249   -8.6357    0.0000 C   0  0  0  0  0  0  0  0  0  0  0  0
   17.4769   -9.2488    0.0000 C   0  0  0  0  0  0  0  0  0  0  0  0
   18.2839   -9.0773    0.0000 C   0  0  0  0  0  0  0  0  0  0  0  0
   18.8359   -9.6904    0.0000 C   0  0  0  0  0  0  0  0  0  0  0  0
   19.6429   -9.5189    0.0000 C   0  0  0  0  0  0  0  0  0  0  0  0
   18.5810  -10.4750    0.0000 C   0  0  0  0  0  0  0  0  0  0  0  0
   16.3728   -8.0226    0.0000 C   0  0  0  0  0  0  0  0  0  0  0  0
    9.7774  -15.5063    0.0000 C   0  0  2  0  0  0  0  0  0  0  0  0
    9.3717  -16.2247    0.0000 O   0  0  0  0  0  0  0  0  0  0  0  0
    9.7905  -16.9355    0.0000 C   0  0  0  0  0  0  0  0  0  0  0  0
   10.6150  -16.9279    0.0000 C   0  0  2  0  0  0  0  0  0  0  0  0
   11.0212  -16.2103    0.0000 C   0  0  1  0  0  0  0  0  0  0  0  0
   10.6024  -15.4995    0.0000 C   0  0  1  0  0  0  0  0  0  0  0  0
   11.8462  -16.2031    0.0000 O   0  0  0  0  0  0  0  0  0  0  0  0
   11.0087  -14.7815    0.0000 O   0  0  0  0  0  0  0  0  0  0  0  0
   11.0339  -17.6387    0.0000 O   0  0  0  0  0  0  0  0  0  0  0  0
   21.0820   -3.6013    0.0000 C   0  0  2  0  0  0  0  0  0  0  0  0
   21.4979   -4.3138    0.0000 O   0  0  0  0  0  0  0  0  0  0  0  0
   22.3229   -4.3098    0.0000 C   0  0  0  0  0  0  0  0  0  0  0  0
   22.7320   -3.5934    0.0000 C   0  0  2  0  0  0  0  0  0  0  0  0
   22.3321   -2.8720    0.0000 C   0  0  1  0  0  0  0  0  0  0  0  0
   21.5231   -2.8671    0.0000 C   0  0  1  0  0  0  0  0  0  0  0  0
   22.7530   -2.1625    0.0000 O   0  0  0  0  0  0  0  0  0  0  0  0
   21.1191   -2.1478    0.0000 O   0  0  0  0  0  0  0  0  0  0  0  0
   23.5570   -3.5986    0.0000 O   0  0  0  0  0  0  0  0  0  0  0  0
   18.3956   -4.8074    0.0000 O   0  0  0  0  0  0  0  0  0  0  0  0
   18.9386   -4.1862    0.0000 C   0  0  2  0  0  0  0  0  0  0  0  0
   18.5156   -3.4779    0.0000 C   0  0  1  0  0  0  0  0  0  0  0  0
   17.7112   -3.6613    0.0000 C   0  0  1  0  0  0  0  0  0  0  0  0
   17.0901   -3.1184    0.0000 O   0  0  0  0  0  0  0  0  0  0  0  0
   19.7602   -4.2604    0.0000 C   0  0  0  0  0  0  0  0  0  0  0  0
   18.8400   -2.7194    0.0000 O   0  0  0  0  0  0  0  0  0  0  0  0
  5  6  1  0  0  0  0
  6  7  1  0  0  0  0
  7  8  1  0  0  0  0
  8  9  1  0  0  0  0
  9 10  1  0  0  0  0
  5 10  1  0  0  0  0
  9 11  1  6  0  0  0
  8 12  1  1  0  0  0
  7 13  1  6  0  0  0
 16 17  1  0  0  0  0
 17 18  1  0  0  0  0
 18 19  1  0  0  0  0
 19 20  1  0  0  0  0
 20 21  1  0  0  0  0
 21 22  1  0  0  0  0
 22 23  1  0  0  0  0
 23 24  1  0  0  0  0
 24 25  1  0  0  0  0
 25 26  1  0  0  0  0
 27 26  1  0  0  0  0
 27 28  1  0  0  0  0
 24 28  1  0  0  0  0
 28 29  1  0  0  0  0
 29 30  1  0  0  0  0
 30 31  1  0  0  0  0
 23 31  1  0  0  0  0
 31 32  1  0  0  0  0
 20 32  1  0  0  0  0
 16 32  1  0  0  0  0
 24 33  1  6  0  0  0
 32 34  1  1  0  0  0
 23 35  1  1  0  0  0
 19 36  1  0  0  0  0
 19 37  1  0  0  0  0
 29 38  1  1  0  0  0
 40 41  1  0  0  0  0
 41 42  1  0  0  0  0
 42 43  1  0  0  0  0
 43 44  1  0  0  0  0
 44 45  1  0  0  0  0
 40 45  1  0  0  0  0
 47 48  1  0  0  0  0
 48 49  1  0  0  0  0
 49 50  1  0  0  0  0
 50 51  1  0  0  0  0
 51 52  1  0  0  0  0
 47 52  1  0  0  0  0
 52 53  1  1  0  0  0
 51 54  1  6  0  0  0
 50 55  1  1  0  0  0
 49 56  1  6  0  0  0
 48 46  1  1  0  0  0
 42 46  1  6  0  0  0
 57 58  1  0  0  0  0
 45 57  1  1  0  0  0
 44 59  1  6  0  0  0
 43 60  1  1  0  0  0
 41 39  1  1  0  0  0
 18 39  1  1  0  0  0
 15 27  1  0  0  0  0
 10 14  1  1  0  0  0
  6  4  1  1  0  0  0
  1  3  1  1  0  0  0
 20 61  1  6  0  0  0
 31 62  1  6  0  0  0
 28 63  1  1  0  0  0
 27 64  1  6  0  0  0
  3  4  1  0  0  0  0
 53 65  1  0  0  0  0
 15 66  1  0  0  0  0
 66 67  1  0  0  0  0
 67 68  1  0  0  0  0
 68 69  2  0  0  0  0
 69 70  1  0  0  0  0
 69 71  1  0  0  0  0
 15 72  1  6  0  0  0
 15 14  1  1  0  0  0
 73 56  1  1  0  0  0
 73 74  1  0  0  0  0
 74 75  1  0  0  0  0
 75 76  1  0  0  0  0
 76 77  1  0  0  0  0
 77 78  1  0  0  0  0
 78 73  1  0  0  0  0
 77 79  1  1  0  0  0
 78 80  1  6  0  0  0
 76 81  1  6  0  0  0
 82  2  1  1  0  0  0
 82 83  1  0  0  0  0
 83 84  1  0  0  0  0
 84 85  1  0  0  0  0
 85 86  1  0  0  0  0
 86 87  1  0  0  0  0
 87 82  1  0  0  0  0
 86 88  1  1  0  0  0
 87 89  1  6  0  0  0
 85 90  1  6  0  0  0
  1 91  1  0  0  0  0
 91 92  1  0  0  0  0
 92 93  1  0  0  0  0
 93 94  1  0  0  0  0
 94  1  1  0  0  0  0
 94 95  1  6  0  0  0
 92 96  1  6  0  0  0
 93 97  1  1  0  0  0
  2 96  1  0  0  0  0
M  END
>  <cdx:fragmentId>
31943

$$$$
