95604.cdx
  Mrv1902 05222410192D          

 21 22  0  0  0  0            999 V2000
    7.0659   -5.7629    0.0000 O   0  0  0  0  0  0  0  0  0  0  0  0
    6.3514   -6.1754    0.0000 C   0  0  1  0  0  0  0  0  0  0  0  0
    6.3514   -7.0004    0.0000 C   0  0  2  0  0  0  0  0  0  0  0  0
    7.0659   -7.4129    0.0000 O   0  0  0  0  0  0  0  0  0  0  0  0
    5.6370   -7.4129    0.0000 C   0  0  1  0  0  0  0  0  0  0  0  0
    5.6370   -8.2379    0.0000 O   0  0  0  0  0  0  0  0  0  0  0  0
    4.9225   -7.0004    0.0000 C   0  0  2  0  0  0  0  0  0  0  0  0
    4.2080   -7.4129    0.0000 O   0  0  0  0  0  0  0  0  0  0  0  0
    4.9225   -6.1754    0.0000 C   0  0  2  0  0  0  0  0  0  0  0  0
    5.6370   -5.7629    0.0000 O   0  0  0  0  0  0  0  0  0  0  0  0
    4.2080   -5.7629    0.0000 C   0  0  0  0  0  0  0  0  0  0  0  0
    3.4935   -6.1754    0.0000 O   0  0  0  0  0  0  0  0  0  0  0  0
    7.7804   -6.1754    0.0000 C   0  0  0  0  0  0  0  0  0  0  0  0
    8.4948   -5.7629    0.0000 C   0  0  1  0  0  0  0  0  0  0  0  0
    9.2093   -6.1754    0.0000 C   0  0  0  0  0  0  0  0  0  0  0  0
    9.2093   -7.0004    0.0000 C   0  0  0  0  0  0  0  0  0  0  0  0
    9.9238   -7.4129    0.0000 C   0  0  0  0  0  0  0  0  0  0  0  0
   10.6383   -7.0004    0.0000 C   0  0  0  0  0  0  0  0  0  0  0  0
   10.6383   -6.1754    0.0000 C   0  0  0  0  0  0  0  0  0  0  0  0
    9.9238   -5.7629    0.0000 C   0  0  0  0  0  0  0  0  0  0  0  0
    8.4948   -4.9379    0.0000 O   0  0  0  0  0  0  0  0  0  0  0  0
  2  3  1  0  0  0  0
  3  4  1  6  0  0  0
  3  5  1  0  0  0  0
  5  6  1  1  0  0  0
  5  7  1  0  0  0  0
  7  8  1  6  0  0  0
  7  9  1  0  0  0  0
  9 10  1  0  0  0  0
  9 11  1  1  0  0  0
 11 12  1  0  0  0  0
  2 10  1  0  0  0  0
  2  1  1  1  0  0  0
  1 13  1  0  0  0  0
 13 14  1  0  0  0  0
 14 15  1  0  0  0  0
 15 16  2  0  0  0  0
 16 17  1  0  0  0  0
 17 18  2  0  0  0  0
 18 19  1  0  0  0  0
 19 20  2  0  0  0  0
 20 15  1  0  0  0  0
 14 21  1  6  0  0  0
M  END
>  <cdx:fragmentId>
21

$$$$
