95603.cdx
  Mrv1902 05222410182D          

 44 50  0  0  0  0            999 V2000
    6.5211  -10.8594    0.0000 C   0  0  0  0  0  0  0  0  0  0  0  0
    5.8068  -10.4466    0.0000 C   0  0  0  0  0  0  0  0  0  0  0  0
    5.8070   -9.6216    0.0000 C   0  0  0  0  0  0  0  0  0  0  0  0
    6.5217   -9.2094    0.0000 C   0  0  0  0  0  0  0  0  0  0  0  0
    6.5219   -8.3844    0.0000 C   0  0  0  0  0  0  0  0  0  0  0  0
    7.2366   -7.9721    0.0000 C   0  0  0  0  0  0  0  0  0  0  0  0
    7.9509   -8.3849    0.0000 C   0  0  0  0  0  0  0  0  0  0  0  0
    7.9506   -9.2099    0.0000 C   0  0  0  0  0  0  0  0  0  0  0  0
    7.2360   -9.6221    0.0000 C   0  0  0  0  0  0  0  0  0  0  0  0
    7.2357  -10.4471    0.0000 O   0  0  0  0  0  0  0  0  0  0  0  0
    7.2368   -7.1471    0.0000 C   0  0  0  0  0  0  0  0  0  0  0  0
    6.5225   -6.7344    0.0000 C   0  0  0  0  0  0  0  0  0  0  0  0
    5.8079   -7.1466    0.0000 C   0  0  0  0  0  0  0  0  0  0  0  0
    5.8076   -7.9716    0.0000 O   0  0  0  0  0  0  0  0  0  0  0  0
    8.6649   -9.6226    0.0000 C   0  0  0  0  0  0  0  0  0  0  0  0
    9.3795   -9.2103    0.0000 C   0  0  0  0  0  0  0  0  0  0  0  0
    9.3798   -8.3853    0.0000 C   0  0  0  0  0  0  0  0  0  0  0  0
    8.6655   -7.9726    0.0000 O   0  0  0  0  0  0  0  0  0  0  0  0
    6.5208  -11.6844    0.0000 O   0  0  0  0  0  0  0  0  0  0  0  0
    5.0936   -6.7339    0.0000 O   0  0  0  0  0  0  0  0  0  0  0  0
   10.0939   -9.6231    0.0000 O   0  0  0  0  0  0  0  0  0  0  0  0
   10.0944   -7.9731    0.0000 C   0  0  0  0  0  0  0  0  0  0  0  0
   10.8088   -8.3858    0.0000 C   0  0  0  0  0  0  0  0  0  0  0  0
   11.5234   -7.9736    0.0000 C   0  0  0  0  0  0  0  0  0  0  0  0
   11.5237   -7.1486    0.0000 C   0  0  0  0  0  0  0  0  0  0  0  0
   10.8093   -6.7358    0.0000 C   0  0  0  0  0  0  0  0  0  0  0  0
   10.0947   -7.1481    0.0000 C   0  0  0  0  0  0  0  0  0  0  0  0
    7.9515   -6.7349    0.0000 C   0  0  0  0  0  0  0  0  0  0  0  0
    7.9517   -5.9099    0.0000 C   0  0  0  0  0  0  0  0  0  0  0  0
    8.6664   -5.4976    0.0000 C   0  0  0  0  0  0  0  0  0  0  0  0
    9.3807   -5.9103    0.0000 C   0  0  0  0  0  0  0  0  0  0  0  0
    9.3804   -6.7353    0.0000 C   0  0  0  0  0  0  0  0  0  0  0  0
    8.6658   -7.1476    0.0000 C   0  0  0  0  0  0  0  0  0  0  0  0
    8.6666   -4.6726    0.0000 O   0  0  0  0  0  0  0  0  0  0  0  0
    5.0927   -9.2089    0.0000 C   0  0  0  0  0  0  0  0  0  0  0  0
    4.3781   -9.6211    0.0000 C   0  0  0  0  0  0  0  0  0  0  0  0
    3.6638   -9.2084    0.0000 C   0  0  0  0  0  0  0  0  0  0  0  0
    3.6641   -8.3834    0.0000 C   0  0  0  0  0  0  0  0  0  0  0  0
    4.3787   -7.9711    0.0000 C   0  0  0  0  0  0  0  0  0  0  0  0
    5.0930   -8.3839    0.0000 C   0  0  0  0  0  0  0  0  0  0  0  0
    2.9492   -9.6206    0.0000 O   0  0  0  0  0  0  0  0  0  0  0  0
    2.9497   -7.9706    0.0000 O   0  0  0  0  0  0  0  0  0  0  0  0
   10.0953   -5.4981    0.0000 O   0  0  0  0  0  0  0  0  0  0  0  0
   12.2383   -6.7363    0.0000 O   0  0  0  0  0  0  0  0  0  0  0  0
  1  2  1  0  0  0  0
  2  3  1  0  0  0  0
  3  4  1  0  0  0  0
  4  5  1  0  0  0  0
  5  6  2  0  0  0  0
  6  7  1  0  0  0  0
  7  8  2  0  0  0  0
  8  9  1  0  0  0  0
  4  9  2  0  0  0  0
  9 10  1  0  0  0  0
  1 10  1  0  0  0  0
 11 12  1  0  0  0  0
 12 13  1  0  0  0  0
 13 14  1  0  0  0  0
 14  5  1  0  0  0  0
 11  6  1  0  0  0  0
 15 16  1  0  0  0  0
 16 17  1  0  0  0  0
 17 18  1  0  0  0  0
 18  7  1  0  0  0  0
 15  8  1  0  0  0  0
  1 19  2  0  0  0  0
 13 20  2  0  0  0  0
 16 21  1  0  0  0  0
 22 23  1  0  0  0  0
 23 24  2  0  0  0  0
 24 25  1  0  0  0  0
 25 26  2  0  0  0  0
 26 27  1  0  0  0  0
 22 27  2  0  0  0  0
 17 22  1  0  0  0  0
 28 29  1  0  0  0  0
 29 30  2  0  0  0  0
 30 31  1  0  0  0  0
 31 32  2  0  0  0  0
 32 33  1  0  0  0  0
 28 33  2  0  0  0  0
 30 34  1  0  0  0  0
 11 28  1  0  0  0  0
 35 36  1  0  0  0  0
 36 37  2  0  0  0  0
 37 38  1  0  0  0  0
 38 39  2  0  0  0  0
 39 40  1  0  0  0  0
 35 40  2  0  0  0  0
 37 41  1  0  0  0  0
  3 35  1  0  0  0  0
 38 42  1  0  0  0  0
 31 43  1  0  0  0  0
 25 44  1  0  0  0  0
M  END
>  <cdx:groupId>
140

>  <cdx:fragmentId>
5

$$$$
