95609.cdx
  Mrv1902 05222410272D          

 38 45  0  0  0  0            999 V2000
    4.6731   -6.2150    0.0000 C   0  0  0  0  0  0  0  0  0  0  0  0
    4.6731   -7.0400    0.0000 C   0  0  0  0  0  0  0  0  0  0  0  0
    5.3875   -7.4525    0.0000 C   0  0  0  0  0  0  0  0  0  0  0  0
    6.1020   -7.0400    0.0000 C   0  0  0  0  0  0  0  0  0  0  0  0
    6.1020   -6.2150    0.0000 C   0  0  0  0  0  0  0  0  0  0  0  0
    5.3875   -5.8025    0.0000 C   0  0  0  0  0  0  0  0  0  0  0  0
    6.8165   -7.4525    0.0000 C   0  0  0  0  0  0  0  0  0  0  0  0
    7.5309   -7.0400    0.0000 C   0  0  0  0  0  0  0  0  0  0  0  0
    7.5309   -6.2150    0.0000 C   0  0  0  0  0  0  0  0  0  0  0  0
    6.8165   -5.8025    0.0000 C   0  0  0  0  0  0  0  0  0  0  0  0
    5.3875   -8.2775    0.0000 C   0  0  0  0  0  0  0  0  0  0  0  0
    6.1020   -8.6900    0.0000 C   0  0  0  0  0  0  0  0  0  0  0  0
    6.8165   -8.2775    0.0000 C   0  0  0  0  0  0  0  0  0  0  0  0
    6.1020   -9.5150    0.0000 C   0  0  0  0  0  0  0  0  0  0  0  0
    6.8165   -9.9275    0.0000 C   0  0  0  0  0  0  0  0  0  0  0  0
    7.5309   -9.5150    0.0000 C   0  0  0  0  0  0  0  0  0  0  0  0
    7.5309   -8.6900    0.0000 C   0  0  0  0  0  0  0  0  0  0  0  0
    8.2454   -7.4525    0.0000 C   0  0  0  0  0  0  0  0  0  0  0  0
    8.9599   -7.0400    0.0000 C   0  0  0  0  0  0  0  0  0  0  0  0
    8.9599   -6.2150    0.0000 C   0  0  0  0  0  0  0  0  0  0  0  0
    8.2454   -5.8025    0.0000 C   0  0  0  0  0  0  0  0  0  0  0  0
    4.6731   -8.6900    0.0000 C   0  0  0  0  0  0  0  0  0  0  0  0
    4.6731   -9.5150    0.0000 C   0  0  0  0  0  0  0  0  0  0  0  0
    5.3875   -9.9275    0.0000 C   0  0  0  0  0  0  0  0  0  0  0  0
    8.2454   -9.9275    0.0000 C   0  0  0  0  0  0  0  0  0  0  0  0
    8.9599   -9.5150    0.0000 C   0  0  0  0  0  0  0  0  0  0  0  0
    8.9599   -8.6900    0.0000 C   0  0  0  0  0  0  0  0  0  0  0  0
    8.2454   -8.2775    0.0000 C   0  0  0  0  0  0  0  0  0  0  0  0
    3.9586   -7.4525    0.0000 O   0  0  0  0  0  0  0  0  0  0  0  0
    5.3875   -4.9775    0.0000 O   0  0  0  0  0  0  0  0  0  0  0  0
    6.8165   -4.9775    0.0000 O   0  0  0  0  0  0  0  0  0  0  0  0
    8.2454   -4.9775    0.0000 O   0  0  0  0  0  0  0  0  0  0  0  0
    9.6744   -7.4525    0.0000 C   0  0  0  0  0  0  0  0  0  0  0  0
    3.9586   -8.2775    0.0000 O   0  0  0  0  0  0  0  0  0  0  0  0
    5.3875  -10.7525    0.0000 O   0  0  0  0  0  0  0  0  0  0  0  0
    6.8165  -10.7525    0.0000 O   0  0  0  0  0  0  0  0  0  0  0  0
    8.2454  -10.7525    0.0000 O   0  0  0  0  0  0  0  0  0  0  0  0
    9.6744   -8.2775    0.0000 C   0  0  0  0  0  0  0  0  0  0  0  0
  1  2  2  0  0  0  0
  2  3  1  0  0  0  0
  3  4  2  0  0  0  0
  4  5  1  0  0  0  0
  5  6  2  0  0  0  0
  6  1  1  0  0  0  0
  4  7  1  0  0  0  0
  7  8  1  0  0  0  0
  8  9  2  0  0  0  0
  9 10  1  0  0  0  0
 10  5  1  0  0  0  0
  3 11  1  0  0  0  0
 11 12  2  0  0  0  0
 12 13  1  0  0  0  0
 13  7  2  0  0  0  0
 12 14  1  0  0  0  0
 14 15  1  0  0  0  0
 15 16  1  0  0  0  0
 16 17  2  0  0  0  0
 17 13  1  0  0  0  0
  8 18  1  0  0  0  0
 18 19  2  0  0  0  0
 19 20  1  0  0  0  0
 20 21  2  0  0  0  0
 21  9  1  0  0  0  0
 11 22  1  0  0  0  0
 22 23  2  0  0  0  0
 23 24  1  0  0  0  0
 24 14  2  0  0  0  0
 16 25  1  0  0  0  0
 25 26  2  0  0  0  0
 26 27  1  0  0  0  0
 27 28  2  0  0  0  0
 28 17  1  0  0  0  0
  2 29  1  0  0  0  0
  6 30  1  0  0  0  0
 10 31  2  0  0  0  0
 21 32  1  0  0  0  0
 19 33  1  0  0  0  0
 18 28  1  0  0  0  0
 22 34  1  0  0  0  0
 24 35  1  0  0  0  0
 15 36  2  0  0  0  0
 25 37  1  0  0  0  0
 27 38  1  0  0  0  0
M  END
>  <cdx:fragmentId>
5

$$$$
