95616.cdx
  Mrv1902 05222410182D          

 34 35  0  0  0  0            999 V2000
   10.2117   -6.2287    0.0000 C   0  0  0  0  0  0  0  0  0  0  0  0
    9.4972   -6.6413    0.0000 C   0  0  0  0  0  0  0  0  0  0  0  0
    8.7827   -6.2287    0.0000 O   0  0  0  0  0  0  0  0  0  0  0  0
    9.4972   -4.9913    0.0000 O   0  0  0  0  0  0  0  0  0  0  0  0
    4.4959   -8.7037    0.0000 O   0  0  0  0  0  0  0  0  0  0  0  0
    5.2104   -9.1162    0.0000 C   0  0  1  0  0  0  0  0  0  0  0  0
    5.9248   -8.7037    0.0000 O   0  0  0  0  0  0  0  0  0  0  0  0
    3.7814   -9.1162    0.0000 C   0  0  1  0  0  0  0  0  0  0  0  0
    6.6393   -8.2912    0.0000 H   0  0  0  0  0  0  0  0  0  0  0  0
    6.6393   -5.8163    0.0000 H   0  0  0  0  0  0  0  0  0  0  0  0
    3.7814   -9.9412    0.0000 C   0  0  2  0  0  0  0  0  0  0  0  0
    4.4959  -10.3537    0.0000 C   0  0  1  0  0  0  0  0  0  0  0  0
    5.2104   -9.9412    0.0000 C   0  0  1  0  0  0  0  0  0  0  0  0
    8.7827   -5.4037    0.0000 C   0  0  0  0  0  0  0  0  0  0  0  0
    8.0682   -4.9913    0.0000 C   0  0  0  0  0  0  0  0  0  0  0  0
    3.0669   -8.7037    0.0000 C   0  0  0  0  0  0  0  0  0  0  0  0
    2.3525   -9.1162    0.0000 O   0  0  0  0  0  0  0  0  0  0  0  0
    4.4959  -11.1787    0.0000 O   0  0  0  0  0  0  0  0  0  0  0  0
    3.0669  -10.3537    0.0000 O   0  0  0  0  0  0  0  0  0  0  0  0
    5.9248  -10.3537    0.0000 O   0  0  0  0  0  0  0  0  0  0  0  0
    7.3538   -7.8787    0.0000 C   0  0  0  0  0  0  0  0  0  0  0  0
    7.3538   -8.7037    0.0000 C   0  0  0  0  0  0  0  0  0  0  0  0
    5.2104   -6.6413    0.0000 C   0  0  0  0  0  0  0  0  0  0  0  0
    5.2104   -7.4663    0.0000 O   0  0  0  0  0  0  0  0  0  0  0  0
    5.9248   -7.8787    0.0000 C   0  0  2  0  0  0  0  0  0  0  0  0
    6.6393   -7.4663    0.0000 C   0  0  1  0  0  0  0  0  0  0  0  0
    5.9248   -5.4037    0.0000 C   0  0  0  0  0  0  0  0  0  0  0  0
    5.9248   -6.2287    0.0000 C   0  0  0  0  0  0  0  0  0  0  0  0
    6.6393   -6.6413    0.0000 C   0  0  1  0  0  0  0  0  0  0  0  0
    7.3538   -6.2287    0.0000 C   0  0  0  0  0  0  0  0  0  0  0  0
    7.3538   -5.4037    0.0000 C   0  0  0  0  0  0  0  0  0  0  0  0
    5.2104   -4.9913    0.0000 O   0  0  0  0  0  0  0  0  0  0  0  0
    6.6393   -4.9912    0.0000 O   0  0  0  0  0  0  0  0  0  0  0  0
    6.6393   -4.1662    0.0000 C   0  0  0  0  0  0  0  0  0  0  0  0
  2  1  1  0  0  0  0
  3  2  1  0  0  0  0
 14  3  1  0  0  0  0
 14  4  2  0  0  0  0
  5  6  1  0  0  0  0
  6  7  1  1  0  0  0
 26  9  1  6  0  0  0
 29 10  1  6  0  0  0
  5  8  1  0  0  0  0
 15 14  1  0  0  0  0
 31 15  1  0  0  0  0
  8 11  1  0  0  0  0
 11 12  1  0  0  0  0
 12 13  1  0  0  0  0
 13  6  1  0  0  0  0
  8 16  1  1  0  0  0
 16 17  1  0  0  0  0
 25  7  1  6  0  0  0
 12 18  1  1  0  0  0
 11 19  1  6  0  0  0
 13 20  1  6  0  0  0
 21 26  1  0  0  0  0
 22 21  2  0  0  0  0
 23 28  2  0  0  0  0
 24 23  1  0  0  0  0
 25 24  1  0  0  0  0
 26 25  1  0  0  0  0
 29 26  1  0  0  0  0
 28 27  1  0  0  0  0
 29 28  1  0  0  0  0
 30 29  1  0  0  0  0
 31 30  2  0  0  0  0
 27 32  2  0  0  0  0
 27 33  1  0  0  0  0
 33 34  1  0  0  0  0
M  END
>  <cdx:fragmentId>
5

$$$$
