95617.cdx
  Mrv1902 05222410182D          

 36 37  0  0  0  0            999 V2000
   11.7025   -6.2012    0.0000 C   0  0  0  0  0  0  0  0  0  0  0  0
   10.9880   -6.6137    0.0000 C   0  0  0  0  0  0  0  0  0  0  0  0
   10.2735   -6.2012    0.0000 C   0  0  0  0  0  0  0  0  0  0  0  0
    9.5591   -6.6137    0.0000 C   0  0  0  0  0  0  0  0  0  0  0  0
    8.8446   -6.2012    0.0000 O   0  0  0  0  0  0  0  0  0  0  0  0
    9.5591   -4.9637    0.0000 O   0  0  0  0  0  0  0  0  0  0  0  0
    4.5578   -8.6762    0.0000 O   0  0  0  0  0  0  0  0  0  0  0  0
    5.2722   -9.0887    0.0000 C   0  0  1  0  0  0  0  0  0  0  0  0
    5.9867   -8.6762    0.0000 O   0  0  0  0  0  0  0  0  0  0  0  0
    3.8433   -9.0887    0.0000 C   0  0  1  0  0  0  0  0  0  0  0  0
    6.7012   -8.2637    0.0000 H   0  0  0  0  0  0  0  0  0  0  0  0
    6.7012   -5.7888    0.0000 H   0  0  0  0  0  0  0  0  0  0  0  0
    3.8433   -9.9137    0.0000 C   0  0  2  0  0  0  0  0  0  0  0  0
    4.5578  -10.3262    0.0000 C   0  0  1  0  0  0  0  0  0  0  0  0
    5.2722   -9.9137    0.0000 C   0  0  1  0  0  0  0  0  0  0  0  0
    8.8446   -5.3763    0.0000 C   0  0  0  0  0  0  0  0  0  0  0  0
    8.1301   -4.9637    0.0000 C   0  0  0  0  0  0  0  0  0  0  0  0
    3.1288   -8.6762    0.0000 C   0  0  0  0  0  0  0  0  0  0  0  0
    2.4143   -9.0887    0.0000 O   0  0  0  0  0  0  0  0  0  0  0  0
    4.5578  -11.1512    0.0000 O   0  0  0  0  0  0  0  0  0  0  0  0
    3.1288  -10.3262    0.0000 O   0  0  0  0  0  0  0  0  0  0  0  0
    5.9867  -10.3262    0.0000 O   0  0  0  0  0  0  0  0  0  0  0  0
    7.4156   -7.8512    0.0000 C   0  0  0  0  0  0  0  0  0  0  0  0
    8.1301   -7.4387    0.0000 C   0  0  0  0  0  0  0  0  0  0  0  0
    5.2722   -6.6137    0.0000 C   0  0  0  0  0  0  0  0  0  0  0  0
    5.2722   -7.4387    0.0000 O   0  0  0  0  0  0  0  0  0  0  0  0
    5.9867   -7.8512    0.0000 C   0  0  2  0  0  0  0  0  0  0  0  0
    6.7012   -7.4387    0.0000 C   0  0  1  0  0  0  0  0  0  0  0  0
    5.9867   -5.3763    0.0000 C   0  0  0  0  0  0  0  0  0  0  0  0
    5.9867   -6.2012    0.0000 C   0  0  0  0  0  0  0  0  0  0  0  0
    6.7012   -6.6137    0.0000 C   0  0  1  0  0  0  0  0  0  0  0  0
    7.4156   -6.2012    0.0000 C   0  0  0  0  0  0  0  0  0  0  0  0
    7.4156   -5.3763    0.0000 C   0  0  0  0  0  0  0  0  0  0  0  0
    5.2722   -4.9637    0.0000 O   0  0  0  0  0  0  0  0  0  0  0  0
    6.7012   -4.9637    0.0000 O   0  0  0  0  0  0  0  0  0  0  0  0
    5.2722   -4.1387    0.0000 C   0  0  0  0  0  0  0  0  0  0  0  0
  2  1  1  0  0  0  0
  3  2  1  0  0  0  0
  4  3  1  0  0  0  0
  5  4  1  0  0  0  0
 16  5  1  0  0  0  0
 16  6  2  0  0  0  0
  7  8  1  0  0  0  0
  8  9  1  1  0  0  0
 28 11  1  6  0  0  0
 31 12  1  6  0  0  0
  7 10  1  0  0  0  0
 17 16  1  0  0  0  0
 33 17  1  0  0  0  0
 10 13  1  0  0  0  0
 13 14  1  0  0  0  0
 14 15  1  0  0  0  0
 15  8  1  0  0  0  0
 10 18  1  1  0  0  0
 18 19  1  0  0  0  0
 27  9  1  6  0  0  0
 14 20  1  1  0  0  0
 13 21  1  6  0  0  0
 15 22  1  6  0  0  0
 23 28  1  0  0  0  0
 24 23  2  0  0  0  0
 25 30  2  0  0  0  0
 26 25  1  0  0  0  0
 27 26  1  0  0  0  0
 28 27  1  0  0  0  0
 31 28  1  0  0  0  0
 30 29  1  0  0  0  0
 31 30  1  0  0  0  0
 32 31  1  0  0  0  0
 33 32  2  0  0  0  0
 29 34  1  0  0  0  0
 29 35  2  0  0  0  0
 34 36  1  0  0  0  0
M  END
>  <cdx:fragmentId>
5

$$$$
