95619.cdx
  Mrv1902 05222410272D          

 33 36  0  0  0  0            999 V2000
    7.5468   -9.4875    0.0000 C   0  0  0  0  0  0  0  0  0  0  0  0
    7.5468  -10.3125    0.0000 C   0  0  0  0  0  0  0  0  0  0  0  0
    8.2613  -10.7250    0.0000 C   0  0  0  0  0  0  0  0  0  0  0  0
    8.9757  -10.3125    0.0000 C   0  0  0  0  0  0  0  0  0  0  0  0
    8.9757   -9.4875    0.0000 C   0  0  0  0  0  0  0  0  0  0  0  0
    8.2613   -9.0750    0.0000 C   0  0  0  0  0  0  0  0  0  0  0  0
    9.6902  -10.7250    0.0000 O   0  0  0  0  0  0  0  0  0  0  0  0
   10.4047  -10.3125    0.0000 C   0  0  0  0  0  0  0  0  0  0  0  0
   10.4047   -9.4875    0.0000 C   0  0  0  0  0  0  0  0  0  0  0  0
    9.6902   -9.0750    0.0000 C   0  0  0  0  0  0  0  0  0  0  0  0
   11.1192  -10.7250    0.0000 O   0  0  0  0  0  0  0  0  0  0  0  0
    6.8323  -10.7250    0.0000 O   0  0  0  0  0  0  0  0  0  0  0  0
    6.1179  -10.3125    0.0000 C   0  0  2  0  0  0  0  0  0  0  0  0
    6.1179   -9.4875    0.0000 O   0  0  0  0  0  0  0  0  0  0  0  0
    5.4034   -9.0750    0.0000 C   0  0  1  0  0  0  0  0  0  0  0  0
    4.6889   -9.4875    0.0000 C   0  0  2  0  0  0  0  0  0  0  0  0
    4.6889  -10.3125    0.0000 C   0  0  1  0  0  0  0  0  0  0  0  0
    5.4034  -10.7250    0.0000 C   0  0  1  0  0  0  0  0  0  0  0  0
    5.4034   -8.2500    0.0000 C   0  0  0  0  0  0  0  0  0  0  0  0
    3.9744  -10.7250    0.0000 O   0  0  0  0  0  0  0  0  0  0  0  0
    3.9744   -9.0750    0.0000 O   0  0  0  0  0  0  0  0  0  0  0  0
    5.4034  -11.5500    0.0000 O   0  0  0  0  0  0  0  0  0  0  0  0
    6.0839   -5.3495    0.0000 C   0  0  0  0  0  0  0  0  0  0  0  0
    3.2262   -5.3831    0.0000 O   0  0  0  0  0  0  0  0  0  0  0  0
    3.2456   -7.0330    0.0000 O   0  0  0  0  0  0  0  0  0  0  0  0
    4.6454   -4.5414    0.0000 O   0  0  0  0  0  0  0  0  0  0  0  0
    5.3840   -6.5953    0.0000 O   0  0  0  0  0  0  0  0  0  0  0  0
    5.3743   -5.7704    0.0000 C   0  0  2  0  0  0  0  0  0  0  0  0
    4.6550   -5.3663    0.0000 C   0  0  1  0  0  0  0  0  0  0  0  0
    3.9455   -5.7872    0.0000 C   0  0  2  0  0  0  0  0  0  0  0  0
    3.9552   -6.6121    0.0000 C   0  0  2  0  0  0  0  0  0  0  0  0
    4.6744   -7.0162    0.0000 C   0  0  2  0  0  0  0  0  0  0  0  0
    4.6889   -7.8375    0.0000 O   0  0  0  0  0  0  0  0  0  0  0  0
  1  2  2  0  0  0  0
  2  3  1  0  0  0  0
  3  4  2  0  0  0  0
  4  5  1  0  0  0  0
  5  6  2  0  0  0  0
  6  1  1  0  0  0  0
  4  7  1  0  0  0  0
  7  8  1  0  0  0  0
  8  9  1  0  0  0  0
  9 10  2  0  0  0  0
 10  5  1  0  0  0  0
  8 11  2  0  0  0  0
  2 12  1  0  0  0  0
 13 12  1  1  0  0  0
 13 14  1  0  0  0  0
 14 15  1  0  0  0  0
 15 16  1  0  0  0  0
 16 17  1  0  0  0  0
 17 18  1  0  0  0  0
 18 13  1  0  0  0  0
 15 19  1  1  0  0  0
 17 20  1  1  0  0  0
 16 21  1  6  0  0  0
 18 22  1  6  0  0  0
 32 33  1  1  0  0  0
 19 33  1  0  0  0  0
 28 23  1  6  0  0  0
 30 24  1  6  0  0  0
 31 25  1  6  0  0  0
 29 26  1  1  0  0  0
 27 32  1  0  0  0  0
 28 27  1  0  0  0  0
 29 28  1  0  0  0  0
 30 29  1  0  0  0  0
 31 30  1  0  0  0  0
 32 31  1  0  0  0  0
M  END
>  <cdx:fragmentId>
5

$$$$
