95613.cdx
  Mrv1902 05222410202D          

 41 45  0  0  0  0            999 V2000
    8.8267   -9.5813    0.0000 O   0  0  0  0  0  0  0  0  0  0  0  0
    7.3881  -10.3894    0.0000 O   0  0  0  0  0  0  0  0  0  0  0  0
    5.9690   -9.5476    0.0000 C   0  0  0  0  0  0  0  0  0  0  0  0
   10.2848   -7.1234    0.0000 O   0  0  0  0  0  0  0  0  0  0  0  0
   11.7039   -7.9652    0.0000 O   0  0  0  0  0  0  0  0  0  0  0  0
   11.6844   -9.6151    0.0000 O   0  0  0  0  0  0  0  0  0  0  0  0
   10.2555   -9.5982    0.0000 C   0  0  0  0  0  0  0  0  0  0  0  0
   10.9748   -9.1942    0.0000 C   0  0  1  0  0  0  0  0  0  0  0  0
   10.9846   -8.3693    0.0000 C   0  0  1  0  0  0  0  0  0  0  0  0
   10.2750   -7.9483    0.0000 C   0  0  2  0  0  0  0  0  0  0  0  0
    9.5557   -8.3524    0.0000 C   0  0  1  0  0  0  0  0  0  0  0  0
    9.5460   -9.1773    0.0000 O   0  0  0  0  0  0  0  0  0  0  0  0
    8.8462   -7.9315    0.0000 O   0  0  0  0  0  0  0  0  0  0  0  0
    6.6883   -9.1435    0.0000 C   0  0  1  0  0  0  0  0  0  0  0  0
    7.3979   -9.5645    0.0000 C   0  0  1  0  0  0  0  0  0  0  0  0
    8.1172   -9.1604    0.0000 C   0  0  2  0  0  0  0  0  0  0  0  0
    8.1269   -8.3355    0.0000 C   0  0  2  0  0  0  0  0  0  0  0  0
    7.4174   -7.9146    0.0000 C   0  0  1  0  0  0  0  0  0  0  0  0
    6.6981   -8.3186    0.0000 O   0  0  0  0  0  0  0  0  0  0  0  0
    7.4271   -7.0896    0.0000 O   0  0  0  0  0  0  0  0  0  0  0  0
    9.5850   -5.8775    0.0000 O   0  0  0  0  0  0  0  0  0  0  0  0
    9.6045   -4.2277    0.0000 O   0  0  0  0  0  0  0  0  0  0  0  0
    7.4563   -4.6148    0.0000 C   0  0  0  0  0  0  0  0  0  0  0  0
    8.1756   -4.2108    0.0000 C   0  0  0  0  0  0  0  0  0  0  0  0
    8.8852   -4.6317    0.0000 C   0  0  0  0  0  0  0  0  0  0  0  0
    8.8754   -5.4566    0.0000 C   0  0  0  0  0  0  0  0  0  0  0  0
    8.1561   -5.8607    0.0000 C   0  0  0  0  0  0  0  0  0  0  0  0
    7.4466   -5.4398    0.0000 C   0  0  0  0  0  0  0  0  0  0  0  0
    4.5597   -7.8808    0.0000 O   0  0  0  0  0  0  0  0  0  0  0  0
    3.1601   -5.3891    0.0000 O   0  0  0  0  0  0  0  0  0  0  0  0
    5.9885   -7.8977    0.0000 O   0  0  0  0  0  0  0  0  0  0  0  0
    6.0178   -5.4229    0.0000 O   0  0  0  0  0  0  0  0  0  0  0  0
    5.2985   -5.8269    0.0000 C   0  0  0  0  0  0  0  0  0  0  0  0
    4.5889   -5.4060    0.0000 C   0  0  0  0  0  0  0  0  0  0  0  0
    3.8696   -5.8100    0.0000 C   0  0  0  0  0  0  0  0  0  0  0  0
    3.8599   -6.6350    0.0000 C   0  0  0  0  0  0  0  0  0  0  0  0
    4.5694   -7.0559    0.0000 C   0  0  0  0  0  0  0  0  0  0  0  0
    5.2887   -6.6518    0.0000 C   0  0  0  0  0  0  0  0  0  0  0  0
    5.9983   -7.0728    0.0000 C   0  0  0  0  0  0  0  0  0  0  0  0
    6.7176   -6.6687    0.0000 C   0  0  0  0  0  0  0  0  0  0  0  0
    6.7273   -5.8438    0.0000 C   0  0  0  0  0  0  0  0  0  0  0  0
 40 20  1  0  0  0  0
 18 20  1  1  0  0  0
 16  1  1  6  0  0  0
 15  2  1  1  0  0  0
 14  3  1  6  0  0  0
 17 13  1  6  0  0  0
 11 13  1  1  0  0  0
 10  4  1  6  0  0  0
  9  5  1  1  0  0  0
  8  6  1  1  0  0  0
 12  7  1  0  0  0  0
  8  7  1  0  0  0  0
  9  8  1  0  0  0  0
 10  9  1  0  0  0  0
 11 10  1  0  0  0  0
 12 11  1  0  0  0  0
 19 14  1  0  0  0  0
 15 14  1  0  0  0  0
 16 15  1  0  0  0  0
 17 16  1  0  0  0  0
 18 17  1  0  0  0  0
 19 18  1  0  0  0  0
 41 28  1  0  0  0  0
 26 21  1  0  0  0  0
 25 22  1  0  0  0  0
 28 23  2  0  0  0  0
 24 23  1  0  0  0  0
 25 24  2  0  0  0  0
 26 25  1  0  0  0  0
 27 26  2  0  0  0  0
 28 27  1  0  0  0  0
 37 29  1  0  0  0  0
 35 30  1  0  0  0  0
 39 31  2  0  0  0  0
 41 32  1  0  0  0  0
 33 32  1  0  0  0  0
 38 33  2  0  0  0  0
 34 33  1  0  0  0  0
 35 34  2  0  0  0  0
 36 35  1  0  0  0  0
 37 36  2  0  0  0  0
 38 37  1  0  0  0  0
 39 38  1  0  0  0  0
 40 39  1  0  0  0  0
 41 40  2  0  0  0  0
M  END
>  <cdx:fragmentId>
173

$$$$
