95615.cdx
  Mrv1902 05222410182D          

 30 32  0  0  0  0            999 V2000
    9.4200   -3.3963    0.0000 C   0  0  0  0  0  0  0  0  0  0  0  0
   10.1344   -3.8087    0.0000 C   0  0  0  0  0  0  0  0  0  0  0  0
    6.5621   -8.3462    0.0000 O   0  0  0  0  0  0  0  0  0  0  0  0
    7.2766   -8.7587    0.0000 C   0  0  1  0  0  0  0  0  0  0  0  0
    7.9910   -8.3462    0.0000 O   0  0  0  0  0  0  0  0  0  0  0  0
    5.8476   -8.7587    0.0000 C   0  0  1  0  0  0  0  0  0  0  0  0
    8.7055   -7.9337    0.0000 H   0  0  0  0  0  0  0  0  0  0  0  0
    8.7055   -5.4588    0.0000 H   0  0  0  0  0  0  0  0  0  0  0  0
    5.8476   -9.5837    0.0000 C   0  0  2  0  0  0  0  0  0  0  0  0
    6.5621   -9.9962    0.0000 C   0  0  1  0  0  0  0  0  0  0  0  0
    7.2766   -9.5837    0.0000 C   0  0  1  0  0  0  0  0  0  0  0  0
   10.1344   -4.6338    0.0000 O   0  0  0  0  0  0  0  0  0  0  0  0
    7.2766   -4.6338    0.0000 O   0  0  0  0  0  0  0  0  0  0  0  0
    5.1331   -8.3462    0.0000 C   0  0  0  0  0  0  0  0  0  0  0  0
    4.4187   -8.7587    0.0000 O   0  0  0  0  0  0  0  0  0  0  0  0
    6.5621  -10.8212    0.0000 O   0  0  0  0  0  0  0  0  0  0  0  0
    5.1331   -9.9962    0.0000 O   0  0  0  0  0  0  0  0  0  0  0  0
    7.9910   -9.9962    0.0000 O   0  0  0  0  0  0  0  0  0  0  0  0
    9.4200   -7.5212    0.0000 C   0  0  0  0  0  0  0  0  0  0  0  0
    9.4200   -8.3462    0.0000 C   0  0  0  0  0  0  0  0  0  0  0  0
    7.2766   -6.2837    0.0000 C   0  0  0  0  0  0  0  0  0  0  0  0
    7.2766   -7.1088    0.0000 O   0  0  0  0  0  0  0  0  0  0  0  0
    7.9910   -7.5212    0.0000 C   0  0  2  0  0  0  0  0  0  0  0  0
    8.7055   -7.1088    0.0000 C   0  0  1  0  0  0  0  0  0  0  0  0
    8.7055   -4.6338    0.0000 O   0  0  0  0  0  0  0  0  0  0  0  0
    7.9910   -5.0462    0.0000 C   0  0  0  0  0  0  0  0  0  0  0  0
    7.9910   -5.8712    0.0000 C   0  0  0  0  0  0  0  0  0  0  0  0
    8.7055   -6.2837    0.0000 C   0  0  1  0  0  0  0  0  0  0  0  0
    9.4200   -5.8712    0.0000 C   0  0  0  0  0  0  0  0  0  0  0  0
    9.4200   -5.0462    0.0000 C   0  0  1  0  0  0  0  0  0  0  0  0
 25 26  1  0  0  0  0
  2  1  1  0  0  0  0
 12  2  1  0  0  0  0
  3  4  1  0  0  0  0
  4  5  1  1  0  0  0
 24  7  1  6  0  0  0
 28  8  1  6  0  0  0
  3  6  1  0  0  0  0
 30 12  1  6  0  0  0
 26 13  2  0  0  0  0
  6  9  1  0  0  0  0
  9 10  1  0  0  0  0
 10 11  1  0  0  0  0
 11  4  1  0  0  0  0
  6 14  1  1  0  0  0
 14 15  1  0  0  0  0
 23  5  1  6  0  0  0
 10 16  1  1  0  0  0
  9 17  1  6  0  0  0
 11 18  1  6  0  0  0
 19 24  1  0  0  0  0
 20 19  2  0  0  0  0
 21 27  2  0  0  0  0
 22 21  1  0  0  0  0
 23 22  1  0  0  0  0
 24 23  1  0  0  0  0
 28 24  1  0  0  0  0
 25 30  1  0  0  0  0
 27 26  1  0  0  0  0
 28 27  1  0  0  0  0
 29 28  1  0  0  0  0
 30 29  1  0  0  0  0
M  END
>  <cdx:fragmentId>
5

$$$$
