95618.cdx
  Mrv1902 05222410272D          

 32 35  0  0  0  0            999 V2000
    7.7393   -8.3600    0.0000 C   0  0  0  0  0  0  0  0  0  0  0  0
    7.7393   -9.1850    0.0000 C   0  0  0  0  0  0  0  0  0  0  0  0
    8.4538   -9.5975    0.0000 C   0  0  0  0  0  0  0  0  0  0  0  0
    9.1682   -9.1850    0.0000 C   0  0  0  0  0  0  0  0  0  0  0  0
    9.1682   -8.3600    0.0000 C   0  0  0  0  0  0  0  0  0  0  0  0
    8.4538   -7.9475    0.0000 C   0  0  0  0  0  0  0  0  0  0  0  0
    9.8827   -9.5975    0.0000 O   0  0  0  0  0  0  0  0  0  0  0  0
   10.5972   -9.1850    0.0000 C   0  0  0  0  0  0  0  0  0  0  0  0
   10.5972   -8.3600    0.0000 C   0  0  0  0  0  0  0  0  0  0  0  0
    9.8827   -7.9475    0.0000 C   0  0  0  0  0  0  0  0  0  0  0  0
   11.3117   -9.5975    0.0000 O   0  0  0  0  0  0  0  0  0  0  0  0
    7.0248   -9.5975    0.0000 O   0  0  0  0  0  0  0  0  0  0  0  0
    6.3104   -9.1850    0.0000 C   0  0  2  0  0  0  0  0  0  0  0  0
    6.3104   -8.3600    0.0000 O   0  0  0  0  0  0  0  0  0  0  0  0
    5.5959   -7.9475    0.0000 C   0  0  1  0  0  0  0  0  0  0  0  0
    4.8814   -8.3600    0.0000 C   0  0  2  0  0  0  0  0  0  0  0  0
    4.8814   -9.1850    0.0000 C   0  0  1  0  0  0  0  0  0  0  0  0
    5.5959   -9.5975    0.0000 C   0  0  1  0  0  0  0  0  0  0  0  0
    5.5959   -7.1225    0.0000 C   0  0  0  0  0  0  0  0  0  0  0  0
    4.1669   -9.5975    0.0000 O   0  0  0  0  0  0  0  0  0  0  0  0
    4.1669   -7.9475    0.0000 O   0  0  0  0  0  0  0  0  0  0  0  0
    5.5959  -10.4225    0.0000 O   0  0  0  0  0  0  0  0  0  0  0  0
    4.8814   -6.7100    0.0000 O   0  0  0  0  0  0  0  0  0  0  0  0
    4.8814   -5.8850    0.0000 C   0  0  2  0  0  0  0  0  0  0  0  0
    5.5489   -5.4001    0.0000 O   0  0  0  0  0  0  0  0  0  0  0  0
    5.2939   -4.6155    0.0000 C   0  0  0  0  0  0  0  0  0  0  0  0
    4.4689   -4.6155    0.0000 C   0  0  2  0  0  0  0  0  0  0  0  0
    4.2140   -5.4001    0.0000 C   0  0  1  0  0  0  0  0  0  0  0  0
    3.4294   -5.6550    0.0000 O   0  0  0  0  0  0  0  0  0  0  0  0
    3.6720   -4.4019    0.0000 O   0  0  0  0  0  0  0  0  0  0  0  0
    4.2554   -3.8186    0.0000 C   0  0  0  0  0  0  0  0  0  0  0  0
    4.8388   -3.2352    0.0000 O   0  0  0  0  0  0  0  0  0  0  0  0
  1  2  2  0  0  0  0
  2  3  1  0  0  0  0
  3  4  2  0  0  0  0
  4  5  1  0  0  0  0
  5  6  2  0  0  0  0
  6  1  1  0  0  0  0
  4  7  1  0  0  0  0
  7  8  1  0  0  0  0
  8  9  1  0  0  0  0
  9 10  2  0  0  0  0
 10  5  1  0  0  0  0
  8 11  2  0  0  0  0
  2 12  1  0  0  0  0
 13 12  1  1  0  0  0
 13 14  1  0  0  0  0
 14 15  1  0  0  0  0
 15 16  1  0  0  0  0
 16 17  1  0  0  0  0
 17 18  1  0  0  0  0
 18 13  1  0  0  0  0
 15 19  1  1  0  0  0
 17 20  1  1  0  0  0
 16 21  1  6  0  0  0
 18 22  1  6  0  0  0
 19 23  1  0  0  0  0
 24 23  1  1  0  0  0
 24 25  1  0  0  0  0
 25 26  1  0  0  0  0
 26 27  1  0  0  0  0
 27 28  1  0  0  0  0
 28 24  1  0  0  0  0
 28 29  1  6  0  0  0
 27 30  1  6  0  0  0
 27 31  1  0  0  0  0
 31 32  1  0  0  0  0
M  END
>  <cdx:fragmentId>
5

$$$$
