95614.cdx
  Mrv1902 05222410192D          

 35 36  0  0  0  0            999 V2000
    4.8872   -8.7312    0.0000 O   0  0  0  0  0  0  0  0  0  0  0  0
    5.6017   -9.1437    0.0000 C   0  0  1  0  0  0  0  0  0  0  0  0
    6.3162   -8.7312    0.0000 O   0  0  0  0  0  0  0  0  0  0  0  0
    4.1728   -9.1437    0.0000 C   0  0  1  0  0  0  0  0  0  0  0  0
    7.0306   -8.3187    0.0000 H   0  0  0  0  0  0  0  0  0  0  0  0
    7.0306   -5.8438    0.0000 H   0  0  0  0  0  0  0  0  0  0  0  0
    4.1728   -9.9687    0.0000 C   0  0  2  0  0  0  0  0  0  0  0  0
    4.8872  -10.3812    0.0000 C   0  0  1  0  0  0  0  0  0  0  0  0
    5.6017   -9.9687    0.0000 C   0  0  1  0  0  0  0  0  0  0  0  0
    8.4596   -6.6687    0.0000 C   0  0  2  0  0  0  0  0  0  0  0  0
    7.7451   -6.2563    0.0000 C   0  0  0  0  0  0  0  0  0  0  0  0
    8.4596   -7.4937    0.0000 O   0  0  0  0  0  0  0  0  0  0  0  0
    9.1741   -7.9062    0.0000 C   0  0  0  0  0  0  0  0  0  0  0  0
    9.1741   -6.2562    0.0000 O   0  0  0  0  0  0  0  0  0  0  0  0
    9.1741   -5.4313    0.0000 C   0  0  0  0  0  0  0  0  0  0  0  0
    9.8885   -5.0187    0.0000 C   0  0  0  0  0  0  0  0  0  0  0  0
    3.4583   -8.7312    0.0000 C   0  0  0  0  0  0  0  0  0  0  0  0
    2.7438   -9.1437    0.0000 O   0  0  0  0  0  0  0  0  0  0  0  0
    4.8872  -11.2062    0.0000 O   0  0  0  0  0  0  0  0  0  0  0  0
    3.4583  -10.3812    0.0000 O   0  0  0  0  0  0  0  0  0  0  0  0
    6.3162  -10.3812    0.0000 O   0  0  0  0  0  0  0  0  0  0  0  0
    7.7451   -7.9062    0.0000 C   0  0  0  0  0  0  0  0  0  0  0  0
    7.7451   -8.7312    0.0000 C   0  0  0  0  0  0  0  0  0  0  0  0
    5.6017   -6.6688    0.0000 C   0  0  0  0  0  0  0  0  0  0  0  0
    5.6017   -7.4937    0.0000 O   0  0  0  0  0  0  0  0  0  0  0  0
    6.3162   -7.9062    0.0000 C   0  0  2  0  0  0  0  0  0  0  0  0
    7.0306   -7.4937    0.0000 C   0  0  1  0  0  0  0  0  0  0  0  0
    9.8885   -4.1937    0.0000 C   0  0  0  0  0  0  0  0  0  0  0  0
    6.3162   -5.4313    0.0000 C   0  0  0  0  0  0  0  0  0  0  0  0
    6.3162   -6.2563    0.0000 C   0  0  0  0  0  0  0  0  0  0  0  0
    7.0306   -6.6688    0.0000 C   0  0  1  0  0  0  0  0  0  0  0  0
   10.6030   -3.7812    0.0000 C   0  0  0  0  0  0  0  0  0  0  0  0
    5.6017   -5.0187    0.0000 O   0  0  0  0  0  0  0  0  0  0  0  0
    7.0306   -5.0187    0.0000 O   0  0  0  0  0  0  0  0  0  0  0  0
    7.0306   -4.1937    0.0000 C   0  0  0  0  0  0  0  0  0  0  0  0
  1  2  1  0  0  0  0
  2  3  1  1  0  0  0
 27  5  1  6  0  0  0
 31  6  1  6  0  0  0
  1  4  1  0  0  0  0
 10 11  1  0  0  0  0
 12 10  1  0  0  0  0
 12 13  1  0  0  0  0
 10 14  1  1  0  0  0
 14 15  1  0  0  0  0
  4  7  1  0  0  0  0
  7  8  1  0  0  0  0
  8  9  1  0  0  0  0
  9  2  1  0  0  0  0
  4 17  1  1  0  0  0
 17 18  1  0  0  0  0
 26  3  1  6  0  0  0
  8 19  1  1  0  0  0
  7 20  1  6  0  0  0
  9 21  1  6  0  0  0
 22 27  1  0  0  0  0
 23 22  2  0  0  0  0
 24 30  2  0  0  0  0
 25 24  1  0  0  0  0
 26 25  1  0  0  0  0
 27 26  1  0  0  0  0
 31 27  1  0  0  0  0
 15 16  1  0  0  0  0
 30 29  1  0  0  0  0
 31 30  1  0  0  0  0
 11 31  1  0  0  0  0
 16 28  1  0  0  0  0
 28 32  1  0  0  0  0
 29 33  2  0  0  0  0
 29 34  1  0  0  0  0
 34 35  1  0  0  0  0
M  END
>  <cdx:fragmentId>
5

$$$$
