95610.cdx
  Mrv1902 05222410192D          

 33 36  0  0  0  0            999 V2000
    6.4259  -10.2547    0.0000 C   0  0  0  0  0  0  0  0  0  0  0  0
    5.7114   -9.8422    0.0000 O   0  0  0  0  0  0  0  0  0  0  0  0
    4.9970   -8.6047    0.0000 O   0  0  0  0  0  0  0  0  0  0  0  0
    3.5680   -6.1297    0.0000 O   0  0  0  0  0  0  0  0  0  0  0  0
    9.9983   -4.8922    0.0000 O   0  0  0  0  0  0  0  0  0  0  0  0
    7.8549   -5.3047    0.0000 C   0  0  0  0  0  0  0  0  0  0  0  0
    8.5693   -4.8922    0.0000 C   0  0  0  0  0  0  0  0  0  0  0  0
    9.2838   -5.3047    0.0000 C   0  0  0  0  0  0  0  0  0  0  0  0
    9.2838   -6.1297    0.0000 C   0  0  0  0  0  0  0  0  0  0  0  0
    8.5693   -6.5422    0.0000 C   0  0  0  0  0  0  0  0  0  0  0  0
    7.8549   -6.1297    0.0000 C   0  0  0  0  0  0  0  0  0  0  0  0
    6.4259   -8.6047    0.0000 O   0  0  0  0  0  0  0  0  0  0  0  0
    6.4259   -6.1297    0.0000 O   0  0  0  0  0  0  0  0  0  0  0  0
    5.7114   -6.5422    0.0000 C   0  0  0  0  0  0  0  0  0  0  0  0
    4.9970   -6.1297    0.0000 C   0  0  0  0  0  0  0  0  0  0  0  0
    4.2825   -6.5422    0.0000 C   0  0  0  0  0  0  0  0  0  0  0  0
    4.2825   -7.3672    0.0000 C   0  0  0  0  0  0  0  0  0  0  0  0
    4.9970   -7.7797    0.0000 C   0  0  0  0  0  0  0  0  0  0  0  0
    5.7114   -7.3672    0.0000 C   0  0  0  0  0  0  0  0  0  0  0  0
    6.4259   -7.7797    0.0000 C   0  0  0  0  0  0  0  0  0  0  0  0
    7.1404   -7.3672    0.0000 C   0  0  0  0  0  0  0  0  0  0  0  0
    7.1404   -6.5422    0.0000 C   0  0  0  0  0  0  0  0  0  0  0  0
    7.8549   -7.7797    0.0000 O   0  0  0  0  0  0  0  0  0  0  0  0
    7.8549  -11.0797    0.0000 O   0  0  0  0  0  0  0  0  0  0  0  0
    9.2838  -10.2547    0.0000 O   0  0  0  0  0  0  0  0  0  0  0  0
    9.2838   -8.6047    0.0000 O   0  0  0  0  0  0  0  0  0  0  0  0
    6.4259  -11.0797    0.0000 O   0  0  0  0  0  0  0  0  0  0  0  0
    7.8549   -8.6047    0.0000 C   0  0  1  0  0  0  0  0  0  0  0  0
    8.5693   -9.0172    0.0000 C   0  0  1  0  0  0  0  0  0  0  0  0
    8.5693   -9.8422    0.0000 C   0  0  2  0  0  0  0  0  0  0  0  0
    7.8549  -10.2547    0.0000 C   0  0  1  0  0  0  0  0  0  0  0  0
    7.1404   -9.8422    0.0000 C   0  0  2  0  0  0  0  0  0  0  0  0
    7.1404   -9.0172    0.0000 O   0  0  0  0  0  0  0  0  0  0  0  0
 28 23  1  1  0  0  0
 23 21  1  0  0  0  0
 18  3  1  0  0  0  0
 16  4  1  0  0  0  0
 22 11  1  0  0  0  0
  8  5  1  0  0  0  0
 11  6  2  0  0  0  0
  7  6  1  0  0  0  0
  8  7  2  0  0  0  0
  9  8  1  0  0  0  0
 10  9  2  0  0  0  0
 11 10  1  0  0  0  0
 20 12  2  0  0  0  0
 22 13  1  0  0  0  0
 14 13  1  0  0  0  0
 19 14  2  0  0  0  0
 15 14  1  0  0  0  0
 16 15  2  0  0  0  0
 17 16  1  0  0  0  0
 18 17  2  0  0  0  0
 19 18  1  0  0  0  0
 20 19  1  0  0  0  0
 21 20  1  0  0  0  0
 22 21  2  0  0  0  0
 31 24  1  6  0  0  0
 30 25  1  1  0  0  0
 29 26  1  6  0  0  0
 32  1  1  1  0  0  0
 33 28  1  0  0  0  0
 29 28  1  0  0  0  0
 30 29  1  0  0  0  0
 31 30  1  0  0  0  0
 32 31  1  0  0  0  0
 33 32  1  0  0  0  0
  1  2  2  0  0  0  0
  1 27  1  0  0  0  0
M  END
>  <cdx:fragmentId>
31

$$$$
