95611.cdx
  Mrv1902 05222410202D          

 31 34  0  0  0  0            999 V2000
    9.6963  -10.3235    0.0000 O   0  0  0  0  0  0  0  0  0  0  0  0
    6.8384  -11.1485    0.0000 O   0  0  0  0  0  0  0  0  0  0  0  0
   11.8397   -7.4360    0.0000 O   0  0  0  0  0  0  0  0  0  0  0  0
    9.6963   -7.8485    0.0000 C   0  0  0  0  0  0  0  0  0  0  0  0
   10.4108   -7.4360    0.0000 C   0  0  0  0  0  0  0  0  0  0  0  0
   11.1252   -7.8485    0.0000 C   0  0  0  0  0  0  0  0  0  0  0  0
   11.1252   -8.6735    0.0000 C   0  0  0  0  0  0  0  0  0  0  0  0
   10.4108   -9.0860    0.0000 C   0  0  0  0  0  0  0  0  0  0  0  0
    9.6963   -8.6735    0.0000 C   0  0  0  0  0  0  0  0  0  0  0  0
    5.4095  -10.3235    0.0000 O   0  0  0  0  0  0  0  0  0  0  0  0
    3.9805  -11.1485    0.0000 O   0  0  0  0  0  0  0  0  0  0  0  0
    2.5516  -10.3235    0.0000 O   0  0  0  0  0  0  0  0  0  0  0  0
    2.5516   -8.6735    0.0000 C   0  0  0  0  0  0  0  0  0  0  0  0
    3.2661   -9.0860    0.0000 C   0  0  1  0  0  0  0  0  0  0  0  0
    3.2661   -9.9110    0.0000 C   0  0  1  0  0  0  0  0  0  0  0  0
    3.9805  -10.3235    0.0000 C   0  0  2  0  0  0  0  0  0  0  0  0
    4.6950   -9.9110    0.0000 C   0  0  2  0  0  0  0  0  0  0  0  0
    4.6950   -9.0860    0.0000 C   0  0  1  0  0  0  0  0  0  0  0  0
    3.9805   -8.6735    0.0000 O   0  0  0  0  0  0  0  0  0  0  0  0
    5.4095   -8.6735    0.0000 O   0  0  0  0  0  0  0  0  0  0  0  0
    8.2674  -11.1485    0.0000 O   0  0  0  0  0  0  0  0  0  0  0  0
    8.2674   -8.6735    0.0000 O   0  0  0  0  0  0  0  0  0  0  0  0
    7.5529   -9.0860    0.0000 C   0  0  0  0  0  0  0  0  0  0  0  0
    6.8384   -8.6735    0.0000 C   0  0  0  0  0  0  0  0  0  0  0  0
    6.1239   -9.0860    0.0000 C   0  0  0  0  0  0  0  0  0  0  0  0
    6.1239   -9.9110    0.0000 C   0  0  0  0  0  0  0  0  0  0  0  0
    6.8384  -10.3235    0.0000 C   0  0  0  0  0  0  0  0  0  0  0  0
    7.5529   -9.9110    0.0000 C   0  0  0  0  0  0  0  0  0  0  0  0
    8.2674  -10.3235    0.0000 C   0  0  0  0  0  0  0  0  0  0  0  0
    8.9818   -9.9110    0.0000 C   0  0  0  0  0  0  0  0  0  0  0  0
    8.9818   -9.0860    0.0000 C   0  0  0  0  0  0  0  0  0  0  0  0
 30  1  1  0  0  0  0
 27  2  1  0  0  0  0
 31  9  1  0  0  0  0
  6  3  1  0  0  0  0
  9  4  2  0  0  0  0
  5  4  1  0  0  0  0
  6  5  2  0  0  0  0
  7  6  1  0  0  0  0
  8  7  2  0  0  0  0
  9  8  1  0  0  0  0
 25 20  1  0  0  0  0
 18 20  1  1  0  0  0
 17 10  1  6  0  0  0
 16 11  1  6  0  0  0
 15 12  1  1  0  0  0
 14 13  1  6  0  0  0
 19 14  1  0  0  0  0
 15 14  1  0  0  0  0
 16 15  1  0  0  0  0
 17 16  1  0  0  0  0
 18 17  1  0  0  0  0
 19 18  1  0  0  0  0
 29 21  2  0  0  0  0
 31 22  1  0  0  0  0
 23 22  1  0  0  0  0
 28 23  2  0  0  0  0
 24 23  1  0  0  0  0
 25 24  2  0  0  0  0
 26 25  1  0  0  0  0
 27 26  2  0  0  0  0
 28 27  1  0  0  0  0
 29 28  1  0  0  0  0
 30 29  1  0  0  0  0
 31 30  2  0  0  0  0
M  END
>  <cdx:groupId>
98

>  <cdx:fragmentId>
5

$$$$
