95624.cdx
  Mrv1902 05222410272D          

 34 38  0  0  0  0            999 V2000
    3.5593   -8.6762    0.0000 C   0  0  1  0  0  0  0  0  0  0  0  0
    3.5593   -9.5013    0.0000 C   0  0  1  0  0  0  0  0  0  0  0  0
    4.2738   -9.9138    0.0000 C   0  0  2  0  0  0  0  0  0  0  0  0
    4.9882   -9.5013    0.0000 C   0  0  0  0  0  0  0  0  0  0  0  0
    4.9882   -8.6762    0.0000 C   0  0  2  0  0  0  0  0  0  0  0  0
    4.2738   -8.2637    0.0000 C   0  0  0  0  0  0  0  0  0  0  0  0
    5.7027   -9.9138    0.0000 C   0  0  0  0  0  0  0  0  0  0  0  0
    6.4172   -9.5013    0.0000 C   0  0  0  0  0  0  0  0  0  0  0  0
    6.4172   -8.6762    0.0000 C   0  0  2  0  0  0  0  0  0  0  0  0
    5.7027   -8.2637    0.0000 C   0  0  0  0  0  0  0  0  0  0  0  0
    7.1317   -8.2637    0.0000 C   0  0  1  0  0  0  0  0  0  0  0  0
    7.1317   -7.4387    0.0000 C   0  0  0  0  0  0  0  0  0  0  0  0
    6.4172   -7.0263    0.0000 C   0  0  0  0  0  0  0  0  0  0  0  0
    5.7027   -7.4387    0.0000 C   0  0  0  0  0  0  0  0  0  0  0  0
    7.8461   -8.6762    0.0000 C   0  0  0  0  0  0  0  0  0  0  0  0
    8.5606   -8.2637    0.0000 C   0  0  0  0  0  0  0  0  0  0  0  0
    8.5606   -7.4387    0.0000 C   0  0  2  0  0  0  0  0  0  0  0  0
    7.8461   -7.0263    0.0000 C   0  0  0  0  0  0  0  0  0  0  0  0
    9.2751   -7.0263    0.0000 C   0  0  0  0  0  0  0  0  0  0  0  0
    9.2751   -6.2012    0.0000 C   0  0  0  0  0  0  0  0  0  0  0  0
    8.5606   -5.7888    0.0000 C   0  0  0  0  0  0  0  0  0  0  0  0
    7.8461   -6.2012    0.0000 C   0  0  0  0  0  0  0  0  0  0  0  0
    8.5606   -4.9637    0.0000 C   0  0  0  0  0  0  0  0  0  0  0  0
    9.2751   -7.8513    0.0000 C   0  0  0  0  0  0  0  0  0  0  0  0
    9.9895   -7.4387    0.0000 O   0  0  0  0  0  0  0  0  0  0  0  0
    9.2751   -8.6762    0.0000 O   0  0  0  0  0  0  0  0  0  0  0  0
    4.6863  -10.6282    0.0000 C   0  0  0  0  0  0  0  0  0  0  0  0
    4.2738  -11.3427    0.0000 O   0  0  0  0  0  0  0  0  0  0  0  0
    2.8448   -9.9138    0.0000 O   0  0  0  0  0  0  0  0  0  0  0  0
    3.8613  -10.6282    0.0000 C   0  0  0  0  0  0  0  0  0  0  0  0
    4.9882   -7.8513    0.0000 C   0  0  0  0  0  0  0  0  0  0  0  0
    6.4172   -7.8513    0.0000 C   0  0  0  0  0  0  0  0  0  0  0  0
    2.8448   -8.2637    0.0000 O   0  0  0  0  0  0  0  0  0  0  0  0
    7.1317   -9.0887    0.0000 C   0  0  0  0  0  0  0  0  0  0  0  0
  1  2  1  0  0  0  0
  2  3  1  0  0  0  0
  3  4  1  0  0  0  0
  4  5  1  0  0  0  0
  5  6  1  0  0  0  0
  6  1  1  0  0  0  0
  4  7  1  0  0  0  0
  7  8  1  0  0  0  0
  8  9  1  0  0  0  0
  9 10  1  0  0  0  0
 10  5  1  0  0  0  0
  9 11  1  0  0  0  0
 11 12  1  0  0  0  0
 12 13  2  0  0  0  0
 13 14  1  0  0  0  0
 14 10  1  0  0  0  0
 11 15  1  0  0  0  0
 15 16  1  0  0  0  0
 16 17  1  0  0  0  0
 17 18  1  0  0  0  0
 18 12  1  0  0  0  0
 17 19  1  0  0  0  0
 19 20  1  0  0  0  0
 20 21  1  0  0  0  0
 21 22  1  0  0  0  0
 22 18  1  0  0  0  0
 21 23  2  0  0  0  0
 17 24  1  1  0  0  0
 24 25  1  0  0  0  0
 24 26  2  0  0  0  0
  3 27  1  6  0  0  0
 27 28  1  0  0  0  0
  2 29  1  1  0  0  0
  3 30  1  1  0  0  0
  5 31  1  1  0  0  0
  9 32  1  1  0  0  0
  1 33  1  6  0  0  0
 11 34  1  6  0  0  0
M  END
>  <cdx:fragmentId>
5

$$$$
