95628.cdx
  Mrv1902 05222410192D          

 24 25  0  0  0  0            999 V2000
   11.4825   -7.5916    0.0000 O   0  0  0  0  0  0  0  0  0  0  0  0
   10.7680   -8.0041    0.0000 C   0  0  1  0  0  0  0  0  0  0  0  0
   10.7680   -8.8291    0.0000 C   0  0  2  0  0  0  0  0  0  0  0  0
   11.4825   -9.2416    0.0000 O   0  0  0  0  0  0  0  0  0  0  0  0
   10.0535   -9.2416    0.0000 C   0  0  1  0  0  0  0  0  0  0  0  0
   10.0535  -10.0666    0.0000 O   0  0  0  0  0  0  0  0  0  0  0  0
    9.3391   -8.8291    0.0000 C   0  0  2  0  0  0  0  0  0  0  0  0
    8.6246   -9.2416    0.0000 O   0  0  0  0  0  0  0  0  0  0  0  0
    9.3391   -8.0041    0.0000 C   0  0  2  0  0  0  0  0  0  0  0  0
   10.0535   -7.5916    0.0000 O   0  0  0  0  0  0  0  0  0  0  0  0
    8.6246   -7.5916    0.0000 C   0  0  0  0  0  0  0  0  0  0  0  0
    7.9101   -8.0041    0.0000 O   0  0  0  0  0  0  0  0  0  0  0  0
    7.1956   -7.5916    0.0000 C   0  0  0  0  0  0  0  0  0  0  0  0
    6.4812   -8.0041    0.0000 C   0  0  0  0  0  0  0  0  0  0  0  0
    5.7667   -7.5916    0.0000 C   0  0  0  0  0  0  0  0  0  0  0  0
    5.0522   -8.0041    0.0000 C   0  0  0  0  0  0  0  0  0  0  0  0
    4.3378   -7.5916    0.0000 C   0  0  0  0  0  0  0  0  0  0  0  0
    3.6233   -8.0041    0.0000 C   0  0  0  0  0  0  0  0  0  0  0  0
    2.9088   -7.5916    0.0000 O   0  0  0  0  0  0  0  0  0  0  0  0
    3.6233   -8.8291    0.0000 C   0  0  0  0  0  0  0  0  0  0  0  0
    2.9088   -9.2416    0.0000 O   0  0  0  0  0  0  0  0  0  0  0  0
    4.3378   -9.2416    0.0000 C   0  0  0  0  0  0  0  0  0  0  0  0
    5.0522   -8.8291    0.0000 C   0  0  0  0  0  0  0  0  0  0  0  0
    7.1956   -6.7666    0.0000 O   0  0  0  0  0  0  0  0  0  0  0  0
  2  1  1  1  0  0  0
  2  3  1  0  0  0  0
  3  4  1  6  0  0  0
  3  5  1  0  0  0  0
  5  6  1  1  0  0  0
  5  7  1  0  0  0  0
  7  8  1  6  0  0  0
  7  9  1  0  0  0  0
  9 10  1  0  0  0  0
  9 11  1  1  0  0  0
 11 12  1  0  0  0  0
  2 10  1  0  0  0  0
 13 14  1  0  0  0  0
 14 15  2  0  0  0  0
 15 16  1  0  0  0  0
 16 17  1  0  0  0  0
 17 18  2  0  0  0  0
 18 19  1  0  0  0  0
 18 20  1  0  0  0  0
 20 21  1  0  0  0  0
 20 22  2  0  0  0  0
 22 23  1  0  0  0  0
 16 23  2  0  0  0  0
 13 24  2  0  0  0  0
 12 13  1  0  0  0  0
M  END
>  <cdx:groupId>
75

>  <cdx:fragmentId>
29

$$$$
