95622.cdx
  Mrv1902 05222410262D          

 20 22  0  0  0  0            999 V2000
    4.3431   -5.3625    0.0000 C   0  0  0  0  0  0  0  0  0  0  0  0
    4.3431   -6.1875    0.0000 C   0  0  0  0  0  0  0  0  0  0  0  0
    5.0575   -6.6000    0.0000 C   0  0  0  0  0  0  0  0  0  0  0  0
    5.7720   -6.1875    0.0000 C   0  0  0  0  0  0  0  0  0  0  0  0
    5.7720   -5.3625    0.0000 C   0  0  0  0  0  0  0  0  0  0  0  0
    5.0575   -4.9500    0.0000 C   0  0  0  0  0  0  0  0  0  0  0  0
    3.6286   -6.6000    0.0000 O   0  0  0  0  0  0  0  0  0  0  0  0
    2.9141   -6.1875    0.0000 C   0  0  0  0  0  0  0  0  0  0  0  0
    6.5566   -6.4424    0.0000 O   0  0  0  0  0  0  0  0  0  0  0  0
    7.0415   -5.7750    0.0000 C   0  0  0  0  0  0  0  0  0  0  0  0
    6.5566   -5.1076    0.0000 C   0  0  0  0  0  0  0  0  0  0  0  0
    7.8665   -5.7750    0.0000 C   0  0  0  0  0  0  0  0  0  0  0  0
    8.2790   -6.4895    0.0000 C   0  0  0  0  0  0  0  0  0  0  0  0
    9.1040   -6.4895    0.0000 C   0  0  0  0  0  0  0  0  0  0  0  0
    9.5165   -5.7750    0.0000 C   0  0  0  0  0  0  0  0  0  0  0  0
    9.1040   -5.0605    0.0000 C   0  0  0  0  0  0  0  0  0  0  0  0
    8.2790   -5.0605    0.0000 C   0  0  0  0  0  0  0  0  0  0  0  0
    9.5165   -4.3461    0.0000 O   0  0  0  0  0  0  0  0  0  0  0  0
    9.5165   -7.2039    0.0000 O   0  0  0  0  0  0  0  0  0  0  0  0
   10.3415   -7.2039    0.0000 C   0  0  0  0  0  0  0  0  0  0  0  0
  1  2  2  0  0  0  0
  2  3  1  0  0  0  0
  3  4  2  0  0  0  0
  4  5  1  0  0  0  0
  5  6  2  0  0  0  0
  6  1  1  0  0  0  0
  2  7  1  0  0  0  0
  7  8  1  0  0  0  0
  4  9  1  0  0  0  0
  9 10  1  0  0  0  0
 10 11  2  0  0  0  0
 11  5  1  0  0  0  0
 10 12  1  0  0  0  0
 12 13  2  0  0  0  0
 13 14  1  0  0  0  0
 14 15  2  0  0  0  0
 15 16  1  0  0  0  0
 16 17  2  0  0  0  0
 17 12  1  0  0  0  0
 16 18  1  0  0  0  0
 14 19  1  0  0  0  0
 19 20  1  0  0  0  0
M  END
>  <cdx:fragmentId>
67

$$$$
