95621.cdx
  Mrv1902 05222410272D          

 22 25  0  0  0  0            999 V2000
    5.6975   -7.1387    0.0000 C   0  0  0  0  0  0  0  0  0  0  0  0
    5.3354   -7.8800    0.0000 C   0  0  2  0  0  0  0  0  0  0  0  0
    5.6892   -8.6252    0.0000 O   0  0  0  0  0  0  0  0  0  0  0  0
    6.4925   -8.8133    0.0000 C   0  0  2  0  0  0  0  0  0  0  0  0
    7.1404   -8.3025    0.0000 C   0  0  1  0  0  0  0  0  0  0  0  0
    7.1450   -7.4775    0.0000 C   0  0  1  0  0  0  0  0  0  0  0  0
    6.5028   -6.9596    0.0000 C   0  0  0  0  0  0  0  0  0  0  0  0
    7.8526   -8.7190    0.0000 C   0  0  1  0  0  0  0  0  0  0  0  0
    8.5693   -8.3025    0.0000 C   0  0  0  0  0  0  0  0  0  0  0  0
    8.5693   -7.4775    0.0000 C   0  0  0  0  0  0  0  0  0  0  0  0
    7.8526   -7.0611    0.0000 C   0  0  1  0  0  0  0  0  0  0  0  0
    7.8526   -9.5440    0.0000 C   0  0  2  0  0  0  0  0  0  0  0  0
    7.1381   -9.9565    0.0000 C   0  0  0  0  0  0  0  0  0  0  0  0
    6.4236   -9.5440    0.0000 O   0  0  0  0  0  0  0  0  0  0  0  0
    7.1381  -10.7815    0.0000 O   0  0  0  0  0  0  0  0  0  0  0  0
    4.5104   -7.8754    0.0000 C   0  0  0  0  0  0  0  0  0  0  0  0
    5.9092   -9.3967    0.0000 H   0  0  0  0  0  0  0  0  0  0  0  0
    8.5670   -9.9565    0.0000 C   0  0  0  0  0  0  0  0  0  0  0  0
    6.3572   -7.7388    0.0000 O   0  0  0  0  0  0  0  0  0  0  0  0
    7.1450   -6.6525    0.0000 H   0  0  0  0  0  0  0  0  0  0  0  0
    7.8502   -6.2361    0.0000 C   0  0  0  0  0  0  0  0  0  0  0  0
    8.5670   -9.1315    0.0000 H   0  0  0  0  0  0  0  0  0  0  0  0
  1  2  1  0  0  0  0
  2  3  1  0  0  0  0
  3  4  1  0  0  0  0
  4  5  1  0  0  0  0
  5  6  1  0  0  0  0
  6  7  1  0  0  0  0
  7  1  1  0  0  0  0
  5  8  1  0  0  0  0
  8  9  1  0  0  0  0
  9 10  1  0  0  0  0
 10 11  1  0  0  0  0
 11  6  1  0  0  0  0
  8 12  1  0  0  0  0
 12 13  1  0  0  0  0
 13 14  1  0  0  0  0
  4 14  1  6  0  0  0
 13 15  2  0  0  0  0
  2 16  1  1  0  0  0
  4 17  1  1  0  0  0
 12 18  1  1  0  0  0
  5 19  1  6  0  0  0
  2 19  1  6  0  0  0
  6 20  1  6  0  0  0
 11 21  1  6  0  0  0
  8 22  1  6  0  0  0
M  END
>  <cdx:fragmentId>
5

$$$$
