95630.cdx
  Mrv1902 05222410272D          

 11 10  0  0  0  0            999 V2000
    5.0522   -8.6229    0.0000 C   0  0  0  0  0  0  0  0  0  0  0  0
    4.3378   -9.0354    0.0000 C   0  0  0  0  0  0  0  0  0  0  0  0
    5.0522   -7.7979    0.0000 O   0  0  0  0  0  0  0  0  0  0  0  0
    5.7667   -9.0354    0.0000 O   0  0  0  0  0  0  0  0  0  0  0  0
    6.4812   -8.6229    0.0000 C   0  0  0  0  0  0  0  0  0  0  0  0
    7.1956   -9.0354    0.0000 C   0  0  0  0  0  0  0  0  0  0  0  0
    7.9101   -8.6229    0.0000 C   0  0  0  0  0  0  0  0  0  0  0  0
    8.6246   -9.0354    0.0000 C   0  0  0  0  0  0  0  0  0  0  0  0
    9.3391   -8.6229    0.0000 C   0  0  0  0  0  0  0  0  0  0  0  0
   10.0535   -9.0354    0.0000 C   0  0  0  0  0  0  0  0  0  0  0  0
    7.9101   -7.7979    0.0000 S   0  0  0  0  0  0  0  0  0  0  0  0
  1  2  1  0  0  0  0
  1  3  2  0  0  0  0
  1  4  1  0  0  0  0
  5  6  1  0  0  0  0
  6  7  1  0  0  0  0
  7  8  1  0  0  0  0
  8  9  1  0  0  0  0
  9 10  1  0  0  0  0
  7 11  1  0  0  0  0
  4  5  1  0  0  0  0
M  END
>  <cdx:groupId>
34

>  <cdx:fragmentId>
13

$$$$
