95638.cdx
  Mrv1902 05222410192D          

 54 59  0  0  0  0            999 V2000
    7.1956   -8.4166    0.0000 O   0  0  0  0  0  0  0  0  0  0  0  0
   12.1969   -4.7041    0.0000 O   0  0  0  0  0  0  0  0  0  0  0  0
   10.0535   -5.1166    0.0000 C   0  0  0  0  0  0  0  0  0  0  0  0
   10.7680   -4.7041    0.0000 C   0  0  0  0  0  0  0  0  0  0  0  0
   11.4825   -5.1166    0.0000 C   0  0  0  0  0  0  0  0  0  0  0  0
   11.4825   -5.9416    0.0000 C   0  0  0  0  0  0  0  0  0  0  0  0
   10.7680   -6.3541    0.0000 C   0  0  0  0  0  0  0  0  0  0  0  0
   10.0535   -5.9416    0.0000 C   0  0  0  0  0  0  0  0  0  0  0  0
    5.7667   -7.5916    0.0000 O   0  0  0  0  0  0  0  0  0  0  0  0
    4.3378   -8.4166    0.0000 O   0  0  0  0  0  0  0  0  0  0  0  0
    2.9088   -7.5916    0.0000 O   0  0  0  0  0  0  0  0  0  0  0  0
    2.1944   -6.3541    0.0000 O   0  0  0  0  0  0  0  0  0  0  0  0
    2.9088   -5.9416    0.0000 C   0  0  0  0  0  0  0  0  0  0  0  0
    3.6233   -6.3541    0.0000 C   0  0  2  0  0  0  0  0  0  0  0  0
    3.6233   -7.1791    0.0000 C   0  0  2  0  0  0  0  0  0  0  0  0
    4.3378   -7.5916    0.0000 C   0  0  1  0  0  0  0  0  0  0  0  0
    5.0522   -7.1791    0.0000 C   0  0  2  0  0  0  0  0  0  0  0  0
    5.0522   -6.3541    0.0000 C   0  0  1  0  0  0  0  0  0  0  0  0
    4.3378   -5.9416    0.0000 O   0  0  0  0  0  0  0  0  0  0  0  0
    5.7667   -5.9416    0.0000 O   0  0  0  0  0  0  0  0  0  0  0  0
   11.4825   -8.4166    0.0000 O   0  0  0  0  0  0  0  0  0  0  0  0
   11.4825  -10.0666    0.0000 O   0  0  0  0  0  0  0  0  0  0  0  0
   10.0535  -10.8916    0.0000 O   0  0  0  0  0  0  0  0  0  0  0  0
    7.9101  -11.3041    0.0000 O   0  0  0  0  0  0  0  0  0  0  0  0
    6.4812  -12.1291    0.0000 O   0  0  0  0  0  0  0  0  0  0  0  0
    5.0522  -11.3041    0.0000 O   0  0  0  0  0  0  0  0  0  0  0  0
    5.0522   -9.6541    0.0000 C   0  0  0  0  0  0  0  0  0  0  0  0
    5.7667  -10.0666    0.0000 C   0  0  1  0  0  0  0  0  0  0  0  0
    5.7667  -10.8916    0.0000 C   0  0  1  0  0  0  0  0  0  0  0  0
    6.4812  -11.3041    0.0000 C   0  0  2  0  0  0  0  0  0  0  0  0
    7.1956  -10.8916    0.0000 C   0  0  2  0  0  0  0  0  0  0  0  0
    7.1956  -10.0666    0.0000 C   0  0  1  0  0  0  0  0  0  0  0  0
    6.4812   -9.6541    0.0000 O   0  0  0  0  0  0  0  0  0  0  0  0
    7.9101   -9.6541    0.0000 O   0  0  0  0  0  0  0  0  0  0  0  0
    8.6246  -10.0666    0.0000 C   0  0  0  0  0  0  0  0  0  0  0  0
    9.3391   -9.6541    0.0000 C   0  0  2  0  0  0  0  0  0  0  0  0
   10.0535  -10.0666    0.0000 C   0  0  2  0  0  0  0  0  0  0  0  0
   10.7680   -9.6541    0.0000 C   0  0  1  0  0  0  0  0  0  0  0  0
   10.7680   -8.8291    0.0000 C   0  0  2  0  0  0  0  0  0  0  0  0
   10.0535   -8.4166    0.0000 C   0  0  1  0  0  0  0  0  0  0  0  0
    9.3391   -8.8291    0.0000 O   0  0  0  0  0  0  0  0  0  0  0  0
   10.0535   -7.5916    0.0000 O   0  0  0  0  0  0  0  0  0  0  0  0
    8.6246   -8.4166    0.0000 O   0  0  0  0  0  0  0  0  0  0  0  0
    8.6246   -5.9416    0.0000 O   0  0  0  0  0  0  0  0  0  0  0  0
    7.9101   -6.3541    0.0000 C   0  0  0  0  0  0  0  0  0  0  0  0
    7.1956   -5.9416    0.0000 C   0  0  0  0  0  0  0  0  0  0  0  0
    6.4812   -6.3541    0.0000 C   0  0  0  0  0  0  0  0  0  0  0  0
    6.4812   -7.1791    0.0000 C   0  0  0  0  0  0  0  0  0  0  0  0
    7.1956   -7.5916    0.0000 C   0  0  0  0  0  0  0  0  0  0  0  0
    7.9101   -7.1791    0.0000 C   0  0  0  0  0  0  0  0  0  0  0  0
    8.6246   -7.5916    0.0000 C   0  0  0  0  0  0  0  0  0  0  0  0
    9.3391   -7.1791    0.0000 C   0  0  0  0  0  0  0  0  0  0  0  0
    9.3391   -6.3541    0.0000 C   0  0  0  0  0  0  0  0  0  0  0  0
    2.9088   -5.1166    0.0000 O   0  0  0  0  0  0  0  0  0  0  0  0
 49  1  1  0  0  0  0
 53  8  1  0  0  0  0
  5  2  1  0  0  0  0
  8  3  2  0  0  0  0
  4  3  1  0  0  0  0
  5  4  2  0  0  0  0
  6  5  1  0  0  0  0
  7  6  2  0  0  0  0
  8  7  1  0  0  0  0
 47 20  1  0  0  0  0
 18 20  1  1  0  0  0
 17  9  1  6  0  0  0
 16 10  1  1  0  0  0
 15 11  1  6  0  0  0
 14 13  1  1  0  0  0
 13 12  1  0  0  0  0
 19 14  1  0  0  0  0
 15 14  1  0  0  0  0
 16 15  1  0  0  0  0
 17 16  1  0  0  0  0
 18 17  1  0  0  0  0
 19 18  1  0  0  0  0
 52 42  1  0  0  0  0
 40 42  1  1  0  0  0
 39 21  1  6  0  0  0
 38 22  1  1  0  0  0
 37 23  1  6  0  0  0
 36 35  1  1  0  0  0
 35 34  1  0  0  0  0
 32 34  1  1  0  0  0
 31 24  1  6  0  0  0
 30 25  1  6  0  0  0
 29 26  1  1  0  0  0
 28 27  1  6  0  0  0
 33 28  1  0  0  0  0
 29 28  1  0  0  0  0
 30 29  1  0  0  0  0
 31 30  1  0  0  0  0
 32 31  1  0  0  0  0
 33 32  1  0  0  0  0
 41 36  1  0  0  0  0
 37 36  1  0  0  0  0
 38 37  1  0  0  0  0
 39 38  1  0  0  0  0
 40 39  1  0  0  0  0
 41 40  1  0  0  0  0
 51 43  2  0  0  0  0
 53 44  1  0  0  0  0
 45 44  1  0  0  0  0
 50 45  2  0  0  0  0
 46 45  1  0  0  0  0
 47 46  2  0  0  0  0
 48 47  1  0  0  0  0
 49 48  2  0  0  0  0
 50 49  1  0  0  0  0
 51 50  1  0  0  0  0
 52 51  1  0  0  0  0
 53 52  2  0  0  0  0
 13 54  2  0  0  0  0
M  END
>  <cdx:groupId>
166

>  <cdx:fragmentId>
45

$$$$
