95632.cdx
  Mrv1902 05222410282D          

 30 32  0  0  0  0            999 V2000
    6.1306   -7.5625    0.0000 C   0  0  0  0  0  0  0  0  0  0  0  0
    6.1306   -8.3875    0.0000 C   0  0  0  0  0  0  0  0  0  0  0  0
    6.8450   -8.8000    0.0000 C   0  0  2  0  0  0  0  0  0  0  0  0
    7.5595   -8.3875    0.0000 C   0  0  0  0  0  0  0  0  0  0  0  0
    7.5595   -7.5625    0.0000 C   0  0  1  0  0  0  0  0  0  0  0  0
    6.8450   -7.1500    0.0000 C   0  0  1  0  0  0  0  0  0  0  0  0
    6.6735   -6.3430    0.0000 C   0  0  1  0  0  0  0  0  0  0  0  0
    5.8530   -6.2568    0.0000 O   0  0  0  0  0  0  0  0  0  0  0  0
    5.5175   -7.0105    0.0000 C   0  0  0  0  0  0  0  0  0  0  0  0
    4.7105   -7.1820    0.0000 O   0  0  0  0  0  0  0  0  0  0  0  0
    7.2255   -5.7299    0.0000 C   0  0  0  0  0  0  0  0  0  0  0  0
    6.9706   -4.9453    0.0000 C   0  0  0  0  0  0  0  0  0  0  0  0
    7.5226   -4.3322    0.0000 C   0  0  0  0  0  0  0  0  0  0  0  0
    6.1636   -4.7738    0.0000 C   0  0  0  0  0  0  0  0  0  0  0  0
    7.2677   -3.5476    0.0000 C   0  0  0  0  0  0  0  0  0  0  0  0
    6.8450   -9.6250    0.0000 O   0  0  0  0  0  0  0  0  0  0  0  0
    6.1306  -10.0375    0.0000 C   0  0  2  0  0  0  0  0  0  0  0  0
    5.4161   -9.6250    0.0000 O   0  0  0  0  0  0  0  0  0  0  0  0
    4.7016  -10.0375    0.0000 C   0  0  1  0  0  0  0  0  0  0  0  0
    4.7016  -10.8625    0.0000 C   0  0  2  0  0  0  0  0  0  0  0  0
    5.4161  -11.2750    0.0000 C   0  0  1  0  0  0  0  0  0  0  0  0
    6.1306  -10.8625    0.0000 C   0  0  1  0  0  0  0  0  0  0  0  0
    3.9871   -9.6250    0.0000 C   0  0  0  0  0  0  0  0  0  0  0  0
    3.2727  -10.0375    0.0000 O   0  0  0  0  0  0  0  0  0  0  0  0
    7.5125   -6.6651    0.0000 H   0  0  0  0  0  0  0  0  0  0  0  0
    8.3564   -7.7760    0.0000 C   0  0  0  0  0  0  0  0  0  0  0  0
    5.4161  -12.1000    0.0000 O   0  0  0  0  0  0  0  0  0  0  0  0
    3.9871  -11.2750    0.0000 O   0  0  0  0  0  0  0  0  0  0  0  0
    6.8450  -11.2750    0.0000 O   0  0  0  0  0  0  0  0  0  0  0  0
    8.1429   -6.9791    0.0000 C   0  0  0  0  0  0  0  0  0  0  0  0
  1  2  2  0  0  0  0
  2  3  1  0  0  0  0
  3  4  1  0  0  0  0
  4  5  1  0  0  0  0
  5  6  1  0  0  0  0
  6  1  1  0  0  0  0
  6  7  1  0  0  0  0
  7  8  1  0  0  0  0
  8  9  1  0  0  0  0
  9  1  1  0  0  0  0
  9 10  2  0  0  0  0
  7 11  1  1  0  0  0
 11 12  2  0  0  0  0
 12 13  1  0  0  0  0
 12 14  1  0  0  0  0
 13 15  2  0  0  0  0
  3 16  1  6  0  0  0
 17 16  1  1  0  0  0
 17 18  1  0  0  0  0
 18 19  1  0  0  0  0
 19 20  1  0  0  0  0
 20 21  1  0  0  0  0
 21 22  1  0  0  0  0
 22 17  1  0  0  0  0
 19 23  1  1  0  0  0
 23 24  1  0  0  0  0
  6 25  1  1  0  0  0
  5 26  1  1  0  0  0
 21 27  1  1  0  0  0
 20 28  1  6  0  0  0
 22 29  1  6  0  0  0
  5 30  1  6  0  0  0
M  END
>  <cdx:fragmentId>
5

$$$$
