95631.cdx
  Mrv1902 05222410272D          

 17 19  0  0  0  0            999 V2000
    4.2602   -8.2155    0.0000 C   0  0  0  0  0  0  0  0  0  0  0  0
    4.5124   -9.0010    0.0000 C   0  0  0  0  0  0  0  0  0  0  0  0
    5.3188   -9.1754    0.0000 C   0  0  0  0  0  0  0  0  0  0  0  0
    5.8729   -8.5642    0.0000 C   0  0  0  0  0  0  0  0  0  0  0  0
    5.6207   -7.7787    0.0000 C   0  0  0  0  0  0  0  0  0  0  0  0
    4.8143   -7.6044    0.0000 C   0  0  0  0  0  0  0  0  0  0  0  0
    6.6979   -8.5671    0.0000 C   0  0  0  0  0  0  0  0  0  0  0  0
    6.9556   -7.7833    0.0000 C   0  0  0  0  0  0  0  0  0  0  0  0
    6.2898   -7.2961    0.0000 N   0  0  0  0  0  0  0  0  0  0  0  0
    7.2478   -9.1821    0.0000 C   0  0  0  0  0  0  0  0  0  0  0  0
    8.0554   -9.0134    0.0000 C   0  0  0  0  0  0  0  0  0  0  0  0
    8.3130   -8.2296    0.0000 N   0  0  0  0  0  0  0  0  0  0  0  0
    7.7631   -7.6146    0.0000 C   0  0  0  0  0  0  0  0  0  0  0  0
    8.0208   -6.8309    0.0000 C   0  0  0  0  0  0  0  0  0  0  0  0
    7.4709   -6.2159    0.0000 O   0  0  0  0  0  0  0  0  0  0  0  0
    8.8284   -6.6622    0.0000 O   0  0  0  0  0  0  0  0  0  0  0  0
    9.0419   -5.8653    0.0000 C   0  0  0  0  0  0  0  0  0  0  0  0
  1  2  2  0  0  0  0
  2  3  1  0  0  0  0
  3  4  2  0  0  0  0
  4  5  1  0  0  0  0
  5  6  2  0  0  0  0
  6  1  1  0  0  0  0
  4  7  1  0  0  0  0
  7  8  2  0  0  0  0
  8  9  1  0  0  0  0
  9  5  1  0  0  0  0
  7 10  1  0  0  0  0
 10 11  2  0  0  0  0
 11 12  1  0  0  0  0
 12 13  2  0  0  0  0
 13  8  1  0  0  0  0
 13 14  1  0  0  0  0
 14 15  2  0  0  0  0
 14 16  1  0  0  0  0
 16 17  1  0  0  0  0
M  END
>  <cdx:fragmentId>
5

$$$$
