95633.cdx
  Mrv1902 05222410282D          

 38 41  0  0  0  0            999 V2000
    7.6568   -6.4763    0.0000 C   0  0  0  0  0  0  0  0  0  0  0  0
    7.6568   -7.3012    0.0000 C   0  0  0  0  0  0  0  0  0  0  0  0
    8.3713   -7.7138    0.0000 C   0  0  0  0  0  0  0  0  0  0  0  0
    9.0857   -7.3012    0.0000 C   0  0  0  0  0  0  0  0  0  0  0  0
    9.0857   -6.4763    0.0000 C   0  0  0  0  0  0  0  0  0  0  0  0
    8.3713   -6.0638    0.0000 C   0  0  0  0  0  0  0  0  0  0  0  0
    9.8002   -7.7138    0.0000 C   0  0  0  0  0  0  0  0  0  0  0  0
   10.5147   -7.3012    0.0000 O   0  0  0  0  0  0  0  0  0  0  0  0
   10.5147   -6.4763    0.0000 C   0  0  0  0  0  0  0  0  0  0  0  0
    9.8002   -6.0638    0.0000 O   0  0  0  0  0  0  0  0  0  0  0  0
   11.9436   -6.4763    0.0000 C   0  0  0  0  0  0  0  0  0  0  0  0
   11.2292   -6.0638    0.0000 C   0  0  0  0  0  0  0  0  0  0  0  0
   12.6581   -6.0638    0.0000 C   0  0  0  0  0  0  0  0  0  0  0  0
   12.6581   -5.2387    0.0000 C   0  0  0  0  0  0  0  0  0  0  0  0
   11.9436   -4.8263    0.0000 C   0  0  0  0  0  0  0  0  0  0  0  0
   11.2292   -5.2387    0.0000 C   0  0  0  0  0  0  0  0  0  0  0  0
    9.8002   -8.5388    0.0000 O   0  0  0  0  0  0  0  0  0  0  0  0
    8.3713   -8.5388    0.0000 O   0  0  0  0  0  0  0  0  0  0  0  0
    7.6568   -8.9513    0.0000 C   0  0  2  0  0  0  0  0  0  0  0  0
    6.9423   -8.5388    0.0000 O   0  0  0  0  0  0  0  0  0  0  0  0
    6.2279   -8.9513    0.0000 C   0  0  1  0  0  0  0  0  0  0  0  0
    6.2279   -9.7763    0.0000 C   0  0  2  0  0  0  0  0  0  0  0  0
    6.9423  -10.1888    0.0000 C   0  0  1  0  0  0  0  0  0  0  0  0
    7.6568   -9.7763    0.0000 C   0  0  1  0  0  0  0  0  0  0  0  0
    5.5134   -8.5388    0.0000 C   0  0  0  0  0  0  0  0  0  0  0  0
    4.7989   -8.9513    0.0000 O   0  0  0  0  0  0  0  0  0  0  0  0
    6.9423  -11.0137    0.0000 O   0  0  0  0  0  0  0  0  0  0  0  0
    5.5134  -10.1888    0.0000 O   0  0  0  0  0  0  0  0  0  0  0  0
    8.3713  -10.1888    0.0000 O   0  0  0  0  0  0  0  0  0  0  0  0
    4.0844   -8.5387    0.0000 C   0  0  2  0  0  0  0  0  0  0  0  0
    3.9982   -7.7183    0.0000 O   0  0  0  0  0  0  0  0  0  0  0  0
    3.1912   -7.5467    0.0000 C   0  0  0  0  0  0  0  0  0  0  0  0
    2.7787   -8.2612    0.0000 C   0  0  2  0  0  0  0  0  0  0  0  0
    3.3308   -8.8743    0.0000 C   0  0  1  0  0  0  0  0  0  0  0  0
    3.1592   -9.6813    0.0000 O   0  0  0  0  0  0  0  0  0  0  0  0
    2.1954   -8.8446    0.0000 O   0  0  0  0  0  0  0  0  0  0  0  0
    1.9819   -8.0477    0.0000 C   0  0  0  0  0  0  0  0  0  0  0  0
    1.2674   -8.4602    0.0000 O   0  0  0  0  0  0  0  0  0  0  0  0
  1  2  2  0  0  0  0
  2  3  1  0  0  0  0
  3  4  2  0  0  0  0
  4  5  1  0  0  0  0
  5  6  2  0  0  0  0
  6  1  1  0  0  0  0
  4  7  1  0  0  0  0
  7  8  1  0  0  0  0
  8  9  1  0  0  0  0
 10  5  1  0  0  0  0
 11 12  2  0  0  0  0
 12  9  1  0  0  0  0
 11 13  1  0  0  0  0
 13 14  2  0  0  0  0
 14 15  1  0  0  0  0
 15 16  2  0  0  0  0
 16 12  1  0  0  0  0
  7 17  2  0  0  0  0
  3 18  1  0  0  0  0
 19 18  1  1  0  0  0
 19 20  1  0  0  0  0
 20 21  1  0  0  0  0
 21 22  1  0  0  0  0
 22 23  1  0  0  0  0
 23 24  1  0  0  0  0
 24 19  1  0  0  0  0
 21 25  1  1  0  0  0
 25 26  1  0  0  0  0
 23 27  1  1  0  0  0
 22 28  1  6  0  0  0
 24 29  1  6  0  0  0
 30 26  1  1  0  0  0
 30 31  1  0  0  0  0
 31 32  1  0  0  0  0
 32 33  1  0  0  0  0
 33 34  1  0  0  0  0
 34 30  1  0  0  0  0
 34 35  1  6  0  0  0
 33 36  1  6  0  0  0
 33 37  1  1  0  0  0
 37 38  1  0  0  0  0
M  END
>  <cdx:fragmentId>
5

$$$$
