95639.cdx
  Mrv1902 05222410202D          

 45 49  0  0  0  0            999 V2000
    8.5816   -2.6966    0.0000 O   0  0  0  0  0  0  0  0  0  0  0  0
   10.0105   -5.1716    0.0000 O   0  0  0  0  0  0  0  0  0  0  0  0
   10.7250   -3.9341    0.0000 C   0  0  0  0  0  0  0  0  0  0  0  0
   10.0105   -3.5216    0.0000 O   0  0  0  0  0  0  0  0  0  0  0  0
    8.5816   -5.1716    0.0000 C   0  0  0  0  0  0  0  0  0  0  0  0
    9.2960   -4.7591    0.0000 C   0  0  0  0  0  0  0  0  0  0  0  0
    9.2960   -3.9341    0.0000 C   0  0  0  0  0  0  0  0  0  0  0  0
    8.5816   -3.5216    0.0000 C   0  0  0  0  0  0  0  0  0  0  0  0
    7.8671   -3.9341    0.0000 C   0  0  0  0  0  0  0  0  0  0  0  0
    7.8671   -4.7591    0.0000 C   0  0  0  0  0  0  0  0  0  0  0  0
    7.8671   -6.4091    0.0000 O   0  0  0  0  0  0  0  0  0  0  0  0
    5.0092   -7.2341    0.0000 O   0  0  0  0  0  0  0  0  0  0  0  0
    3.5803   -4.7591    0.0000 O   0  0  0  0  0  0  0  0  0  0  0  0
    6.4382   -7.2341    0.0000 O   0  0  0  0  0  0  0  0  0  0  0  0
    6.4382   -4.7591    0.0000 O   0  0  0  0  0  0  0  0  0  0  0  0
    5.7237   -5.1716    0.0000 C   0  0  0  0  0  0  0  0  0  0  0  0
    5.0092   -4.7591    0.0000 C   0  0  0  0  0  0  0  0  0  0  0  0
    4.2948   -5.1716    0.0000 C   0  0  0  0  0  0  0  0  0  0  0  0
    4.2948   -5.9966    0.0000 C   0  0  0  0  0  0  0  0  0  0  0  0
    5.0092   -6.4091    0.0000 C   0  0  0  0  0  0  0  0  0  0  0  0
    5.7237   -5.9966    0.0000 C   0  0  0  0  0  0  0  0  0  0  0  0
    6.4382   -6.4091    0.0000 C   0  0  0  0  0  0  0  0  0  0  0  0
    7.1526   -5.9966    0.0000 C   0  0  0  0  0  0  0  0  0  0  0  0
    7.1526   -5.1716    0.0000 C   0  0  0  0  0  0  0  0  0  0  0  0
    7.8671   -7.2341    0.0000 C   0  0  2  0  0  0  0  0  0  0  0  0
    7.1526   -7.6466    0.0000 O   0  0  0  0  0  0  0  0  0  0  0  0
    7.1526   -8.4716    0.0000 C   0  0  1  0  0  0  0  0  0  0  0  0
    7.8671   -8.8841    0.0000 C   0  0  2  0  0  0  0  0  0  0  0  0
    8.5816   -8.4716    0.0000 C   0  0  1  0  0  0  0  0  0  0  0  0
    8.5816   -7.6466    0.0000 C   0  0  1  0  0  0  0  0  0  0  0  0
    6.4382   -8.8841    0.0000 C   0  0  0  0  0  0  0  0  0  0  0  0
    9.2960   -8.8841    0.0000 O   0  0  0  0  0  0  0  0  0  0  0  0
    7.8671   -9.7091    0.0000 O   0  0  0  0  0  0  0  0  0  0  0  0
    9.2960   -7.2341    0.0000 O   0  0  0  0  0  0  0  0  0  0  0  0
    6.4382   -9.7091    0.0000 O   0  0  0  0  0  0  0  0  0  0  0  0
    5.7237  -10.1216    0.0000 C   0  0  2  0  0  0  0  0  0  0  0  0
    5.0092   -9.7091    0.0000 O   0  0  0  0  0  0  0  0  0  0  0  0
    4.2948  -10.1216    0.0000 C   0  0  2  0  0  0  0  0  0  0  0  0
    4.2948  -10.9466    0.0000 C   0  0  1  0  0  0  0  0  0  0  0  0
    5.0092  -11.3591    0.0000 C   0  0  2  0  0  0  0  0  0  0  0  0
    5.7237  -10.9466    0.0000 C   0  0  1  0  0  0  0  0  0  0  0  0
    3.5803  -11.3591    0.0000 O   0  0  0  0  0  0  0  0  0  0  0  0
    3.5803   -9.7091    0.0000 C   0  0  0  0  0  0  0  0  0  0  0  0
    5.0092  -12.1841    0.0000 O   0  0  0  0  0  0  0  0  0  0  0  0
    6.4382  -11.3591    0.0000 O   0  0  0  0  0  0  0  0  0  0  0  0
 24 10  1  0  0  0  0
  8  1  1  0  0  0  0
  6  2  1  0  0  0  0
  7  4  1  0  0  0  0
  4  3  1  0  0  0  0
 10  5  2  0  0  0  0
  6  5  1  0  0  0  0
  7  6  2  0  0  0  0
  8  7  1  0  0  0  0
  9  8  2  0  0  0  0
 10  9  1  0  0  0  0
 23 11  1  0  0  0  0
 20 12  1  0  0  0  0
 18 13  1  0  0  0  0
 22 14  2  0  0  0  0
 24 15  1  0  0  0  0
 16 15  1  0  0  0  0
 21 16  2  0  0  0  0
 17 16  1  0  0  0  0
 18 17  2  0  0  0  0
 19 18  1  0  0  0  0
 20 19  2  0  0  0  0
 21 20  1  0  0  0  0
 22 21  1  0  0  0  0
 23 22  1  0  0  0  0
 24 23  2  0  0  0  0
 25 11  1  1  0  0  0
 25 26  1  0  0  0  0
 26 27  1  0  0  0  0
 27 28  1  0  0  0  0
 28 29  1  0  0  0  0
 29 30  1  0  0  0  0
 30 25  1  0  0  0  0
 27 31  1  1  0  0  0
 29 32  1  1  0  0  0
 28 33  1  6  0  0  0
 30 34  1  6  0  0  0
 31 35  1  0  0  0  0
 36 35  1  1  0  0  0
 36 37  1  0  0  0  0
 37 38  1  0  0  0  0
 38 39  1  0  0  0  0
 39 40  1  0  0  0  0
 40 41  1  0  0  0  0
 41 36  1  0  0  0  0
 39 42  1  1  0  0  0
 38 43  1  6  0  0  0
 40 44  1  6  0  0  0
 41 45  1  6  0  0  0
M  END
>  <cdx:groupId>
76

>  <cdx:fragmentId>
5

$$$$
