956380.cdx
  Mrv1902 05222410212D          

 21 22  0  0  0  0            999 V2000
    5.8103   -7.8204    0.0000 C   0  0  0  0  0  0  0  0  0  0  0  0
    6.5247   -7.4079    0.0000 C   0  0  0  0  0  0  0  0  0  0  0  0
    7.2392   -7.8204    0.0000 C   0  0  0  0  0  0  0  0  0  0  0  0
    7.2392   -8.6454    0.0000 C   0  0  0  0  0  0  0  0  0  0  0  0
    6.5247   -9.0579    0.0000 C   0  0  0  0  0  0  0  0  0  0  0  0
    5.8103   -8.6454    0.0000 C   0  0  0  0  0  0  0  0  0  0  0  0
    5.0958   -7.4079    0.0000 O   0  0  0  0  0  0  0  0  0  0  0  0
    7.9537   -9.0579    0.0000 C   0  0  2  0  0  0  0  0  0  0  0  0
    7.9537   -9.8829    0.0000 C   0  0  2  0  0  0  0  0  0  0  0  0
    8.6682  -10.2954    0.0000 C   0  0  0  0  0  0  0  0  0  0  0  0
    9.3826   -9.8829    0.0000 C   0  0  0  0  0  0  0  0  0  0  0  0
    9.3826   -9.0579    0.0000 C   0  0  1  0  0  0  0  0  0  0  0  0
    8.6682   -8.6454    0.0000 C   0  0  0  0  0  0  0  0  0  0  0  0
    9.7951   -8.3435    0.0000 C   0  0  0  0  0  0  0  0  0  0  0  0
    7.6517  -11.0099    0.0000 C   0  0  0  0  0  0  0  0  0  0  0  0
    7.2392  -10.2954    0.0000 C   0  0  0  0  0  0  0  0  0  0  0  0
    6.8267   -9.5810    0.0000 C   0  0  0  0  0  0  0  0  0  0  0  0
    6.5247  -10.7079    0.0000 O   0  0  0  0  0  0  0  0  0  0  0  0
   10.2076   -9.0579    0.0000 C   0  0  0  0  0  0  0  0  0  0  0  0
   10.6201   -8.3435    0.0000 C   0  0  0  0  0  0  0  0  0  0  0  0
    7.9537  -10.7079    0.0000 H   0  0  0  0  0  0  0  0  0  0  0  0
  1  2  1  0  0  0  0
  2  3  2  0  0  0  0
  3  4  1  0  0  0  0
  4  5  2  0  0  0  0
  5  6  1  0  0  0  0
  1  6  2  0  0  0  0
  1  7  1  0  0  0  0
  8  9  1  0  0  0  0
  9 10  1  0  0  0  0
 10 11  1  0  0  0  0
 11 12  1  0  0  0  0
 12 13  1  0  0  0  0
  8 13  1  0  0  0  0
 12 14  1  1  0  0  0
 15 16  1  0  0  0  0
 16 17  1  0  0  0  0
 16 18  1  0  0  0  0
  9 16  1  0  0  0  0
 19 20  2  0  0  0  0
 12 19  1  6  0  0  0
  8  4  1  1  0  0  0
  9 21  1  1  0  0  0
M  END
>  <cdx:groupId>
9990

>  <cdx:fragmentId>
9946

$$$$
