95648.cdx
  Mrv1902 05222410212D          

 29 33  0  0  0  0            999 V2000
   10.6131   -6.9740    0.0000 C   0  0  0  0  0  0  0  0  0  0  0  0
    9.9006   -7.3899    0.0000 O   0  0  0  0  0  0  0  0  0  0  0  0
    9.8889   -4.9149    0.0000 C   0  0  0  0  0  0  0  0  0  0  0  0
    9.8928   -5.7399    0.0000 O   0  0  0  0  0  0  0  0  0  0  0  0
    7.7669   -9.4624    0.0000 C   0  0  0  0  0  0  0  0  0  0  0  0
    6.3380   -9.4692    0.0000 C   0  0  0  0  0  0  0  0  0  0  0  0
    4.9052   -8.6509    0.0000 C   0  0  0  0  0  0  0  0  0  0  0  0
    5.6255   -9.8850    0.0000 C   0  0  0  0  0  0  0  0  0  0  0  0
    4.9090   -9.4759    0.0000 C   0  0  0  0  0  0  0  0  0  0  0  0
    4.2986  -10.0308    0.0000 O   0  0  0  0  0  0  0  0  0  0  0  0
    4.6377  -10.7829    0.0000 C   0  0  0  0  0  0  0  0  0  0  0  0
    5.4577  -10.6928    0.0000 O   0  0  0  0  0  0  0  0  0  0  0  0
    7.0427   -7.4033    0.0000 C   0  0  1  0  0  0  0  0  0  0  0  0
    7.7552   -6.9875    0.0000 C   0  0  0  0  0  0  0  0  0  0  0  0
    7.7513   -6.1625    0.0000 C   0  0  0  0  0  0  0  0  0  0  0  0
    8.4639   -5.7466    0.0000 C   0  0  0  0  0  0  0  0  0  0  0  0
    9.1803   -6.1557    0.0000 C   0  0  0  0  0  0  0  0  0  0  0  0
    9.1842   -6.9807    0.0000 C   0  0  0  0  0  0  0  0  0  0  0  0
    8.4716   -7.3966    0.0000 C   0  0  0  0  0  0  0  0  0  0  0  0
    8.4755   -8.2216    0.0000 C   0  0  0  0  0  0  0  0  0  0  0  0
    7.7630   -8.6375    0.0000 N   0  0  0  0  0  0  0  0  0  0  0  0
    7.0466   -8.2283    0.0000 C   0  0  1  0  0  0  0  0  0  0  0  0
    6.3341   -8.6442    0.0000 C   0  0  0  0  0  0  0  0  0  0  0  0
    5.6177   -8.2351    0.0000 C   0  0  0  0  0  0  0  0  0  0  0  0
    5.6138   -7.4101    0.0000 C   0  0  0  0  0  0  0  0  0  0  0  0
    6.3263   -6.9942    0.0000 C   0  0  1  0  0  0  0  0  0  0  0  0
    6.3224   -6.1692    0.0000 O   0  0  0  0  0  0  0  0  0  0  0  0
    7.0505   -9.0533    0.0000 H   0  0  0  0  0  0  0  0  0  0  0  0
    7.0388   -6.5783    0.0000 H   0  0  0  0  0  0  0  0  0  0  0  0
 18  2  1  0  0  0  0
  2  1  1  0  0  0  0
 17  4  1  0  0  0  0
  4  3  1  0  0  0  0
 21  5  1  0  0  0  0
  6 23  2  0  0  0  0
  7 24  2  0  0  0  0
  7  9  1  0  0  0  0
  6  8  1  0  0  0  0
 12  8  1  0  0  0  0
  9  8  2  0  0  0  0
 10  9  1  0  0  0  0
 11 10  1  0  0  0  0
 12 11  1  0  0  0  0
 26 13  1  0  0  0  0
 22 13  1  0  0  0  0
 14 13  1  0  0  0  0
 19 14  1  0  0  0  0
 15 14  2  0  0  0  0
 16 15  1  0  0  0  0
 17 16  2  0  0  0  0
 18 17  1  0  0  0  0
 19 18  2  0  0  0  0
 20 19  1  0  0  0  0
 21 20  1  0  0  0  0
 22 21  1  0  0  0  0
 23 22  1  0  0  0  0
 24 23  1  0  0  0  0
 25 24  1  0  0  0  0
 26 25  1  0  0  0  0
 26 27  1  1  0  0  0
 22 28  1  6  0  0  0
 13 29  1  6  0  0  0
M  END
>  <cdx:fragmentId>
5

$$$$
