95647.cdx
  Mrv1902 05222410252D          

 28 32  0  0  0  0            999 V2000
    4.7696   -6.3476    0.0000 C   0  0  0  0  0  0  0  0  0  0  0  0
    5.4841   -6.7601    0.0000 O   0  0  0  0  0  0  0  0  0  0  0  0
    6.9131   -6.7601    0.0000 C   0  0  0  0  0  0  0  0  0  0  0  0
    7.6275   -6.3476    0.0000 C   0  0  0  0  0  0  0  0  0  0  0  0
    8.3420   -6.7601    0.0000 C   0  0  0  0  0  0  0  0  0  0  0  0
    8.3420   -7.5851    0.0000 C   0  0  0  0  0  0  0  0  0  0  0  0
    7.6275   -7.9976    0.0000 C   0  0  0  0  0  0  0  0  0  0  0  0
    7.6275   -8.8226    0.0000 N   0  3  0  0  0  0  0  0  0  0  0  0
    6.9131   -9.2351    0.0000 C   0  0  0  0  0  0  0  0  0  0  0  0
    6.1986   -8.8226    0.0000 C   0  0  0  0  0  0  0  0  0  0  0  0
    5.4841   -9.2351    0.0000 C   0  0  0  0  0  0  0  0  0  0  0  0
    4.7696   -8.8226    0.0000 C   0  0  0  0  0  0  0  0  0  0  0  0
    4.7696   -7.9976    0.0000 C   0  0  0  0  0  0  0  0  0  0  0  0
    5.4841   -7.5851    0.0000 C   0  0  0  0  0  0  0  0  0  0  0  0
    6.1986   -7.9976    0.0000 C   0  0  0  0  0  0  0  0  0  0  0  0
    6.9131   -7.5851    0.0000 C   0  0  0  0  0  0  0  0  0  0  0  0
   10.5556   -7.8400    0.0000 O   0  0  0  0  0  0  0  0  0  0  0  0
   11.0405   -7.1726    0.0000 C   0  0  0  0  0  0  0  0  0  0  0  0
   10.5556   -6.5052    0.0000 O   0  0  0  0  0  0  0  0  0  0  0  0
    9.7709   -6.7601    0.0000 C   0  0  0  0  0  0  0  0  0  0  0  0
    9.7709   -7.5851    0.0000 C   0  0  0  0  0  0  0  0  0  0  0  0
    9.0565   -6.3476    0.0000 C   0  0  0  0  0  0  0  0  0  0  0  0
    9.0565   -7.9976    0.0000 C   0  0  0  0  0  0  0  0  0  0  0  0
    8.3420   -9.2351    0.0000 C   0  0  0  0  0  0  0  0  0  0  0  0
    4.0552   -9.2351    0.0000 O   0  0  0  0  0  0  0  0  0  0  0  0
    3.3407   -8.8226    0.0000 C   0  0  0  0  0  0  0  0  0  0  0  0
    5.4841  -10.0601    0.0000 O   0  0  0  0  0  0  0  0  0  0  0  0
    4.7696  -10.4726    0.0000 C   0  0  0  0  0  0  0  0  0  0  0  0
  2  1  1  0  0  0  0
 14  2  1  0  0  0  0
  3  4  2  0  0  0  0
  4  5  1  0  0  0  0
  5  6  1  0  0  0  0
  6  7  1  0  0  0  0
  7  8  1  0  0  0  0
  8  9  2  0  0  0  0
  9 10  1  0  0  0  0
 10 11  2  0  0  0  0
 11 12  1  0  0  0  0
 12 13  2  0  0  0  0
 13 14  1  0  0  0  0
 14 15  2  0  0  0  0
 10 15  1  0  0  0  0
 15 16  1  0  0  0  0
  7 16  2  0  0  0  0
  3 16  1  0  0  0  0
 17 18  1  0  0  0  0
 18 19  1  0  0  0  0
 19 20  1  0  0  0  0
 20 21  2  0  0  0  0
 17 21  1  0  0  0  0
 23 21  1  0  0  0  0
 22 20  1  0  0  0  0
 22  5  2  0  0  0  0
 23  6  2  0  0  0  0
  8 24  1  0  0  0  0
 25 26  1  0  0  0  0
 12 25  1  0  0  0  0
 27 28  1  0  0  0  0
 11 27  1  0  0  0  0
M  CHG  1   8   1
M  END
>  <cdx:fragmentId>
5

$$$$
