95649.cdx
  Mrv1902 05222410202D          

 45 50  0  0  0  0            999 V2000
    3.1905   -9.0750    0.0000 C   0  0  1  0  0  0  0  0  0  0  0  0
    3.1905   -9.9000    0.0000 C   0  0  2  0  0  0  0  0  0  0  0  0
    3.9050  -10.3125    0.0000 C   0  0  1  0  0  0  0  0  0  0  0  0
    4.6195   -9.9000    0.0000 C   0  0  0  0  0  0  0  0  0  0  0  0
    4.6195   -9.0750    0.0000 C   0  0  2  0  0  0  0  0  0  0  0  0
    3.9050   -8.6625    0.0000 C   0  0  0  0  0  0  0  0  0  0  0  0
    5.3339  -10.3125    0.0000 C   0  0  0  0  0  0  0  0  0  0  0  0
    6.0484   -9.9000    0.0000 C   0  0  0  0  0  0  0  0  0  0  0  0
    6.0484   -9.0750    0.0000 C   0  0  2  0  0  0  0  0  0  0  0  0
    5.3339   -8.6625    0.0000 C   0  0  0  0  0  0  0  0  0  0  0  0
    6.7629   -8.6625    0.0000 C   0  0  1  0  0  0  0  0  0  0  0  0
    6.7629   -7.8375    0.0000 C   0  0  0  0  0  0  0  0  0  0  0  0
    6.0484   -7.4250    0.0000 C   0  0  0  0  0  0  0  0  0  0  0  0
    5.3339   -7.8375    0.0000 C   0  0  0  0  0  0  0  0  0  0  0  0
    7.4774   -9.0750    0.0000 C   0  0  0  0  0  0  0  0  0  0  0  0
    8.1918   -8.6625    0.0000 C   0  0  0  0  0  0  0  0  0  0  0  0
    8.1918   -7.8375    0.0000 C   0  0  2  0  0  0  0  0  0  0  0  0
    7.4774   -7.4250    0.0000 C   0  0  0  0  0  0  0  0  0  0  0  0
    8.9063   -7.4250    0.0000 C   0  0  0  0  0  0  0  0  0  0  0  0
    8.9063   -6.6000    0.0000 C   0  0  0  0  0  0  0  0  0  0  0  0
    8.1918   -6.1875    0.0000 C   0  0  2  0  0  0  0  0  0  0  0  0
    7.4774   -6.6000    0.0000 C   0  0  0  0  0  0  0  0  0  0  0  0
    8.9063   -8.2500    0.0000 C   0  0  0  0  0  0  0  0  0  0  0  0
    2.4761   -8.6625    0.0000 O   0  0  0  0  0  0  0  0  0  0  0  0
    2.4761  -10.3125    0.0000 O   0  0  0  0  0  0  0  0  0  0  0  0
    3.4925  -11.0270    0.0000 C   0  0  0  0  0  0  0  0  0  0  0  0
    4.3175  -11.0270    0.0000 C   0  0  0  0  0  0  0  0  0  0  0  0
    4.6195   -8.2500    0.0000 C   0  0  0  0  0  0  0  0  0  0  0  0
    6.0484   -8.2500    0.0000 C   0  0  0  0  0  0  0  0  0  0  0  0
    6.7629   -9.4875    0.0000 C   0  0  0  0  0  0  0  0  0  0  0  0
    6.7629   -6.1875    0.0000 C   0  0  0  0  0  0  0  0  0  0  0  0
    8.1918   -5.3625    0.0000 C   0  0  0  0  0  0  0  0  0  0  0  0
    9.6208   -7.8375    0.0000 O   0  0  0  0  0  0  0  0  0  0  0  0
    8.9063   -9.0750    0.0000 O   0  0  0  0  0  0  0  0  0  0  0  0
    9.6208   -9.4875    0.0000 C   0  0  2  0  0  0  0  0  0  0  0  0
    9.6208  -10.3125    0.0000 O   0  0  0  0  0  0  0  0  0  0  0  0
   10.3352  -10.7250    0.0000 C   0  0  1  0  0  0  0  0  0  0  0  0
   11.0497  -10.3125    0.0000 C   0  0  2  0  0  0  0  0  0  0  0  0
   11.0497   -9.4875    0.0000 C   0  0  1  0  0  0  0  0  0  0  0  0
   10.3352   -9.0750    0.0000 C   0  0  1  0  0  0  0  0  0  0  0  0
   10.3352  -11.5500    0.0000 C   0  0  0  0  0  0  0  0  0  0  0  0
   11.7642   -9.0750    0.0000 O   0  0  0  0  0  0  0  0  0  0  0  0
   10.3352   -8.2500    0.0000 O   0  0  0  0  0  0  0  0  0  0  0  0
   11.7642  -10.7250    0.0000 O   0  0  0  0  0  0  0  0  0  0  0  0
   11.0497  -11.9625    0.0000 O   0  0  0  0  0  0  0  0  0  0  0  0
  1  2  1  0  0  0  0
  2  3  1  0  0  0  0
  3  4  1  0  0  0  0
  4  5  1  0  0  0  0
  5  6  1  0  0  0  0
  6  1  1  0  0  0  0
  4  7  1  0  0  0  0
  7  8  1  0  0  0  0
  8  9  1  0  0  0  0
  9 10  1  0  0  0  0
 10  5  1  0  0  0  0
  9 11  1  0  0  0  0
 11 12  1  0  0  0  0
 12 13  2  0  0  0  0
 13 14  1  0  0  0  0
 14 10  1  0  0  0  0
 11 15  1  0  0  0  0
 15 16  1  0  0  0  0
 16 17  1  0  0  0  0
 17 18  1  0  0  0  0
 18 12  1  0  0  0  0
 17 19  1  0  0  0  0
 19 20  1  0  0  0  0
 20 21  1  0  0  0  0
 21 22  1  0  0  0  0
 22 18  1  0  0  0  0
 17 23  1  1  0  0  0
  1 24  1  6  0  0  0
  2 25  1  6  0  0  0
  3 26  1  1  0  0  0
  3 27  1  6  0  0  0
  5 28  1  1  0  0  0
  9 29  1  1  0  0  0
 11 30  1  6  0  0  0
 22 31  2  0  0  0  0
 21 32  1  6  0  0  0
 23 33  2  0  0  0  0
 23 34  1  0  0  0  0
 35 34  1  1  0  0  0
 35 36  1  0  0  0  0
 36 37  1  0  0  0  0
 37 38  1  0  0  0  0
 38 39  1  0  0  0  0
 39 40  1  0  0  0  0
 40 35  1  0  0  0  0
 37 41  1  1  0  0  0
 39 42  1  1  0  0  0
 40 43  1  6  0  0  0
 38 44  1  6  0  0  0
 41 45  1  0  0  0  0
M  END
>  <cdx:fragmentId>
110

$$$$
