95650.cdx
  Mrv1902 05222410262D          

  9  8  0  0  0  0            999 V2000
    6.1239   -9.6516    0.0000 C   0  0  0  0  0  0  0  0  0  0  0  0
    6.1239   -8.8266    0.0000 C   0  0  0  0  0  0  0  0  0  0  0  0
    6.8384   -8.4141    0.0000 C   0  0  0  0  0  0  0  0  0  0  0  0
    7.5529   -8.8266    0.0000 C   0  0  0  0  0  0  0  0  0  0  0  0
    8.2674   -8.4141    0.0000 C   0  0  0  0  0  0  0  0  0  0  0  0
    8.9818   -8.8266    0.0000 C   0  0  0  0  0  0  0  0  0  0  0  0
    5.4095   -8.4141    0.0000 C   0  0  0  0  0  0  0  0  0  0  0  0
    6.8384   -7.5891    0.0000 C   0  0  0  0  0  0  0  0  0  0  0  0
    6.1239   -7.1766    0.0000 C   0  0  0  0  0  0  0  0  0  0  0  0
  1  2  2  0  0  0  0
  2  3  1  0  0  0  0
  3  4  2  0  0  0  0
  4  5  1  0  0  0  0
  5  6  1  0  0  0  0
  2  7  1  0  0  0  0
  8  9  1  0  0  0  0
  3  8  1  0  0  0  0
M  END
>  <cdx:fragmentId>
5

$$$$
