95651.cdx
  Mrv1902 05222410252D          

 37 40  0  0  0  0            999 V2000
    8.4744   -9.7916    0.0000 O   0  0  0  0  0  0  0  0  0  0  0  0
   13.4757  -10.2041    0.0000 O   0  0  0  0  0  0  0  0  0  0  0  0
   12.0468   -8.5541    0.0000 C   0  0  0  0  0  0  0  0  0  0  0  0
   12.7612   -8.9666    0.0000 C   0  0  0  0  0  0  0  0  0  0  0  0
   12.7612   -9.7916    0.0000 C   0  0  0  0  0  0  0  0  0  0  0  0
   12.0468  -10.2041    0.0000 C   0  0  0  0  0  0  0  0  0  0  0  0
   11.3323   -9.7916    0.0000 C   0  0  0  0  0  0  0  0  0  0  0  0
   11.3323   -8.9666    0.0000 C   0  0  0  0  0  0  0  0  0  0  0  0
    7.0455   -8.9666    0.0000 O   0  0  0  0  0  0  0  0  0  0  0  0
    5.6165   -9.7916    0.0000 O   0  0  0  0  0  0  0  0  0  0  0  0
    4.1876   -8.9666    0.0000 O   0  0  0  0  0  0  0  0  0  0  0  0
    3.4731   -7.7291    0.0000 O   0  0  0  0  0  0  0  0  0  0  0  0
    4.1876   -7.3166    0.0000 C   0  0  0  0  0  0  0  0  0  0  0  0
    4.9020   -7.7291    0.0000 C   0  0  2  0  0  0  0  0  0  0  0  0
    4.9020   -8.5541    0.0000 C   0  0  2  0  0  0  0  0  0  0  0  0
    5.6165   -8.9666    0.0000 C   0  0  1  0  0  0  0  0  0  0  0  0
    6.3310   -8.5541    0.0000 C   0  0  2  0  0  0  0  0  0  0  0  0
    6.3310   -7.7291    0.0000 C   0  0  1  0  0  0  0  0  0  0  0  0
    5.6165   -7.3166    0.0000 O   0  0  0  0  0  0  0  0  0  0  0  0
    7.0455   -7.3166    0.0000 O   0  0  0  0  0  0  0  0  0  0  0  0
    9.9033   -9.7916    0.0000 O   0  0  0  0  0  0  0  0  0  0  0  0
    9.9033   -7.3166    0.0000 O   0  0  0  0  0  0  0  0  0  0  0  0
    9.1889   -7.7291    0.0000 C   0  0  0  0  0  0  0  0  0  0  0  0
    8.4744   -7.3166    0.0000 C   0  0  0  0  0  0  0  0  0  0  0  0
    7.7599   -7.7291    0.0000 C   0  0  0  0  0  0  0  0  0  0  0  0
    7.7599   -8.5541    0.0000 C   0  0  0  0  0  0  0  0  0  0  0  0
    8.4744   -8.9666    0.0000 C   0  0  0  0  0  0  0  0  0  0  0  0
    9.1889   -8.5541    0.0000 C   0  0  0  0  0  0  0  0  0  0  0  0
    9.9033   -8.9666    0.0000 C   0  0  0  0  0  0  0  0  0  0  0  0
   10.6178   -8.5541    0.0000 C   0  0  0  0  0  0  0  0  0  0  0  0
   10.6178   -7.7291    0.0000 C   0  0  0  0  0  0  0  0  0  0  0  0
    2.7586   -7.3166    0.0000 C   0  0  0  0  0  0  0  0  0  0  0  0
    2.0442   -7.7291    0.0000 C   0  0  0  0  0  0  0  0  0  0  0  0
    1.3297   -7.3166    0.0000 C   0  0  0  0  0  0  0  0  0  0  0  0
    0.6152   -7.7291    0.0000 O   0  0  0  0  0  0  0  0  0  0  0  0
    1.3297   -6.4916    0.0000 O   0  0  0  0  0  0  0  0  0  0  0  0
    2.7586   -6.4916    0.0000 O   0  0  0  0  0  0  0  0  0  0  0  0
 27  1  1  0  0  0  0
 30  8  1  0  0  0  0
  5  2  1  0  0  0  0
  8  3  2  0  0  0  0
  4  3  1  0  0  0  0
  5  4  2  0  0  0  0
  6  5  1  0  0  0  0
  7  6  2  0  0  0  0
  8  7  1  0  0  0  0
 25 20  1  0  0  0  0
 18 20  1  1  0  0  0
 17  9  1  6  0  0  0
 16 10  1  1  0  0  0
 15 11  1  6  0  0  0
 14 13  1  1  0  0  0
 13 12  1  0  0  0  0
 19 14  1  0  0  0  0
 15 14  1  0  0  0  0
 16 15  1  0  0  0  0
 17 16  1  0  0  0  0
 18 17  1  0  0  0  0
 19 18  1  0  0  0  0
 29 21  2  0  0  0  0
 31 22  1  0  0  0  0
 23 22  1  0  0  0  0
 28 23  2  0  0  0  0
 24 23  1  0  0  0  0
 25 24  2  0  0  0  0
 26 25  1  0  0  0  0
 27 26  2  0  0  0  0
 28 27  1  0  0  0  0
 29 28  1  0  0  0  0
 30 29  1  0  0  0  0
 31 30  2  0  0  0  0
 12 32  1  0  0  0  0
 32 33  1  0  0  0  0
 33 34  1  0  0  0  0
 34 35  1  0  0  0  0
 34 36  2  0  0  0  0
 32 37  2  0  0  0  0
M  END
>  <cdx:groupId>
98

>  <cdx:fragmentId>
29

$$$$
