95652.cdx
  Mrv1902 05222410242D          

  7  7  0  0  0  0            999 V2000
    6.9916   -3.8951    0.0000 O   0  0  0  0  0  0  0  0  0  0  0  0
    6.7366   -3.1105    0.0000 C   0  0  0  0  0  0  0  0  0  0  0  0
    7.4041   -2.6256    0.0000 C   0  0  0  0  0  0  0  0  0  0  0  0
    8.0715   -3.1105    0.0000 C   0  0  0  0  0  0  0  0  0  0  0  0
    7.8166   -3.8951    0.0000 C   0  0  0  0  0  0  0  0  0  0  0  0
    5.9520   -2.8556    0.0000 O   0  0  0  0  0  0  0  0  0  0  0  0
    8.8561   -2.8556    0.0000 O   0  0  0  0  0  0  0  0  0  0  0  0
  1  2  1  0  0  0  0
  2  3  1  0  0  0  0
  3  4  1  0  0  0  0
  4  5  1  0  0  0  0
  1  5  1  0  0  0  0
  2  6  2  0  0  0  0
  4  7  1  0  0  0  0
M  END
>  <cdx:fragmentId>
5

$$$$
