95667.cdx
  Mrv1902 05222410222D          

 40 44  0  0  0  0            999 V2000
    4.6670   -5.1991    0.0000 O   0  0  0  0  0  0  0  0  0  0  0  0
    6.0959   -4.3741    0.0000 O   0  0  0  0  0  0  0  0  0  0  0  0
    7.5249   -5.1991    0.0000 O   0  0  0  0  0  0  0  0  0  0  0  0
    6.8104   -6.4366    0.0000 O   0  0  0  0  0  0  0  0  0  0  0  0
    6.8104   -5.6116    0.0000 C   0  0  0  0  0  0  0  0  0  0  0  0
    6.0959   -5.1991    0.0000 C   0  0  0  0  0  0  0  0  0  0  0  0
    5.3814   -5.6116    0.0000 C   0  0  0  0  0  0  0  0  0  0  0  0
    5.3814   -6.4366    0.0000 C   0  0  0  0  0  0  0  0  0  0  0  0
    6.0959   -6.8491    0.0000 C   0  0  0  0  0  0  0  0  0  0  0  0
    6.0959  -10.1491    0.0000 O   0  0  0  0  0  0  0  0  0  0  0  0
    4.6670   -7.6741    0.0000 O   0  0  0  0  0  0  0  0  0  0  0  0
   11.0972   -6.4366    0.0000 O   0  0  0  0  0  0  0  0  0  0  0  0
    8.9538   -6.8491    0.0000 C   0  0  0  0  0  0  0  0  0  0  0  0
    9.6683   -6.4366    0.0000 C   0  0  0  0  0  0  0  0  0  0  0  0
   10.3827   -6.8491    0.0000 C   0  0  0  0  0  0  0  0  0  0  0  0
   10.3827   -7.6741    0.0000 C   0  0  0  0  0  0  0  0  0  0  0  0
    9.6683   -8.0866    0.0000 C   0  0  0  0  0  0  0  0  0  0  0  0
    8.9538   -7.6741    0.0000 C   0  0  0  0  0  0  0  0  0  0  0  0
    5.3814  -10.5616    0.0000 O   0  0  0  0  0  0  0  0  0  0  0  0
    3.9525  -11.3866    0.0000 O   0  0  0  0  0  0  0  0  0  0  0  0
    2.5236  -10.5616    0.0000 O   0  0  0  0  0  0  0  0  0  0  0  0
    1.8091   -9.3241    0.0000 O   0  0  0  0  0  0  0  0  0  0  0  0
    2.5236   -8.9116    0.0000 C   0  0  0  0  0  0  0  0  0  0  0  0
    3.2380   -9.3241    0.0000 C   0  0  2  0  0  0  0  0  0  0  0  0
    3.2380  -10.1491    0.0000 C   0  0  2  0  0  0  0  0  0  0  0  0
    3.9525  -10.5616    0.0000 C   0  0  1  0  0  0  0  0  0  0  0  0
    4.6670  -10.1491    0.0000 C   0  0  2  0  0  0  0  0  0  0  0  0
    4.6670   -9.3241    0.0000 C   0  0  1  0  0  0  0  0  0  0  0  0
    3.9525   -8.9116    0.0000 O   0  0  0  0  0  0  0  0  0  0  0  0
    7.5249  -10.1491    0.0000 O   0  0  0  0  0  0  0  0  0  0  0  0
    7.5249   -7.6741    0.0000 O   0  0  0  0  0  0  0  0  0  0  0  0
    6.8104   -8.0866    0.0000 C   0  0  0  0  0  0  0  0  0  0  0  0
    6.0959   -7.6741    0.0000 C   0  0  0  0  0  0  0  0  0  0  0  0
    5.3814   -8.0866    0.0000 C   0  0  0  0  0  0  0  0  0  0  0  0
    5.3814   -8.9116    0.0000 C   0  0  0  0  0  0  0  0  0  0  0  0
    6.0959   -9.3241    0.0000 C   0  0  0  0  0  0  0  0  0  0  0  0
    6.8104   -8.9116    0.0000 C   0  0  0  0  0  0  0  0  0  0  0  0
    7.5249   -9.3241    0.0000 C   0  0  0  0  0  0  0  0  0  0  0  0
    8.2393   -8.9116    0.0000 C   0  0  0  0  0  0  0  0  0  0  0  0
    8.2393   -8.0866    0.0000 C   0  0  0  0  0  0  0  0  0  0  0  0
  7  1  1  0  0  0  0
  6  2  1  0  0  0  0
  5  3  1  0  0  0  0
  4  9  1  0  0  0  0
  5  4  1  0  0  0  0
  6  5  1  0  0  0  0
  7  6  1  0  0  0  0
  8  7  1  0  0  0  0
  9  8  1  0  0  0  0
 33  9  1  0  0  0  0
 36 10  1  0  0  0  0
 34 11  1  0  0  0  0
 40 18  1  0  0  0  0
 15 12  1  0  0  0  0
 18 13  2  0  0  0  0
 14 13  1  0  0  0  0
 15 14  2  0  0  0  0
 16 15  1  0  0  0  0
 17 16  2  0  0  0  0
 18 17  1  0  0  0  0
 28 35  1  1  0  0  0
 27 19  1  6  0  0  0
 26 20  1  1  0  0  0
 25 21  1  6  0  0  0
 24 23  1  1  0  0  0
 23 22  1  0  0  0  0
 29 24  1  0  0  0  0
 25 24  1  0  0  0  0
 26 25  1  0  0  0  0
 27 26  1  0  0  0  0
 28 27  1  0  0  0  0
 29 28  1  0  0  0  0
 38 30  2  0  0  0  0
 40 31  1  0  0  0  0
 32 31  1  0  0  0  0
 37 32  2  0  0  0  0
 33 32  1  0  0  0  0
 34 33  2  0  0  0  0
 35 34  1  0  0  0  0
 36 35  2  0  0  0  0
 37 36  1  0  0  0  0
 38 37  1  0  0  0  0
 39 38  1  0  0  0  0
 40 39  2  0  0  0  0
M  END
>  <cdx:fragmentId>
5

$$$$
