95664.cdx
  Mrv1902 05222410222D          

 33 37  0  0  0  0            999 V2000
   11.5206   -9.9825    0.0000 C   0  0  0  0  0  0  0  0  0  0  0  0
   11.5206  -10.8075    0.0000 C   0  0  0  0  0  0  0  0  0  0  0  0
   12.2350  -11.2200    0.0000 C   0  0  0  0  0  0  0  0  0  0  0  0
   12.9495  -10.8075    0.0000 C   0  0  0  0  0  0  0  0  0  0  0  0
   12.9495   -9.9825    0.0000 C   0  0  2  0  0  0  0  0  0  0  0  0
   12.2350   -9.5700    0.0000 C   0  0  0  0  0  0  0  0  0  0  0  0
   13.6640  -11.2200    0.0000 C   0  0  0  0  0  0  0  0  0  0  0  0
   14.3784  -10.8075    0.0000 C   0  0  0  0  0  0  0  0  0  0  0  0
   14.3784   -9.9825    0.0000 C   0  0  2  0  0  0  0  0  0  0  0  0
   13.6640   -9.5700    0.0000 C   0  0  2  0  0  0  0  0  0  0  0  0
   15.0929   -9.5700    0.0000 C   0  0  1  0  0  0  0  0  0  0  0  0
   15.0929   -8.7450    0.0000 C   0  0  0  0  0  0  0  0  0  0  0  0
   14.3784   -8.3325    0.0000 C   0  0  0  0  0  0  0  0  0  0  0  0
   13.6640   -8.7450    0.0000 C   0  0  0  0  0  0  0  0  0  0  0  0
   15.8074   -9.9825    0.0000 C   0  0  0  0  0  0  0  0  0  0  0  0
   16.5219   -9.5700    0.0000 C   0  0  0  0  0  0  0  0  0  0  0  0
   16.5219   -8.7450    0.0000 C   0  0  2  0  0  0  0  0  0  0  0  0
   15.8074   -8.3325    0.0000 C   0  0  2  0  0  0  0  0  0  0  0  0
   17.2363   -8.3325    0.0000 C   0  0  0  0  0  0  0  0  0  0  0  0
   17.2363   -7.5075    0.0000 C   0  0  0  0  0  0  0  0  0  0  0  0
   16.5219   -7.0950    0.0000 C   0  0  0  0  0  0  0  0  0  0  0  0
   15.8074   -7.5075    0.0000 C   0  0  0  0  0  0  0  0  0  0  0  0
   10.8061  -11.2200    0.0000 O   0  0  0  0  0  0  0  0  0  0  0  0
   17.2363   -9.1575    0.0000 C   0  0  0  0  0  0  0  0  0  0  0  0
   17.9508   -8.7450    0.0000 O   0  0  0  0  0  0  0  0  0  0  0  0
   17.2363   -9.9825    0.0000 O   0  0  0  0  0  0  0  0  0  0  0  0
   16.1094   -6.3805    0.0000 C   0  0  0  0  0  0  0  0  0  0  0  0
   16.9344   -6.3805    0.0000 C   0  0  0  0  0  0  0  0  0  0  0  0
   12.9495   -9.1575    0.0000 C   0  0  0  0  0  0  0  0  0  0  0  0
   14.3784   -9.1575    0.0000 C   0  0  0  0  0  0  0  0  0  0  0  0
   13.6640  -10.3950    0.0000 H   0  0  0  0  0  0  0  0  0  0  0  0
   15.0929  -10.3950    0.0000 C   0  0  0  0  0  0  0  0  0  0  0  0
   15.8074   -9.1575    0.0000 H   0  0  0  0  0  0  0  0  0  0  0  0
  1  2  1  0  0  0  0
  2  3  1  0  0  0  0
  3  4  2  0  0  0  0
  4  5  1  0  0  0  0
  5  6  1  0  0  0  0
  6  1  1  0  0  0  0
  4  7  1  0  0  0  0
  7  8  1  0  0  0  0
  8  9  1  0  0  0  0
  9 10  1  0  0  0  0
 10  5  1  0  0  0  0
  9 11  1  0  0  0  0
 11 12  1  0  0  0  0
 12 13  2  0  0  0  0
 13 14  1  0  0  0  0
 14 10  1  0  0  0  0
 11 15  1  0  0  0  0
 15 16  1  0  0  0  0
 16 17  1  0  0  0  0
 17 18  1  0  0  0  0
 18 12  1  0  0  0  0
 17 19  1  0  0  0  0
 19 20  1  0  0  0  0
 20 21  1  0  0  0  0
 21 22  1  0  0  0  0
 22 18  1  0  0  0  0
  2 23  2  0  0  0  0
 17 24  1  1  0  0  0
 24 25  1  0  0  0  0
 24 26  2  0  0  0  0
 21 27  1  0  0  0  0
 21 28  1  0  0  0  0
  5 29  1  1  0  0  0
  9 30  1  1  0  0  0
 10 31  1  6  0  0  0
 11 32  1  6  0  0  0
 18 33  1  6  0  0  0
M  END
>  <cdx:fragmentId>
5

$$$$
