95661.cdx
  Mrv1902 05222410202D          

 36 36  0  0  0  0            999 V2000
    5.9518   -6.8888    0.0000 C   0  0  2  0  0  0  0  0  0  0  0  0
    5.9518   -7.7138    0.0000 C   0  0  2  0  0  0  0  0  0  0  0  0
    6.6663   -8.1263    0.0000 C   0  0  1  0  0  0  0  0  0  0  0  0
    7.3807   -7.7138    0.0000 C   0  0  1  0  0  0  0  0  0  0  0  0
    7.3807   -6.8888    0.0000 C   0  0  1  0  0  0  0  0  0  0  0  0
    6.6663   -6.4763    0.0000 C   0  0  1  0  0  0  0  0  0  0  0  0
    6.6663   -5.6512    0.0000 O   0  0  0  0  0  0  0  0  0  0  0  0
    5.2373   -8.1263    0.0000 O   0  0  0  0  0  0  0  0  0  0  0  0
    5.2373   -6.4763    0.0000 O   0  0  0  0  0  0  0  0  0  0  0  0
    6.6663   -8.9513    0.0000 O   0  0  0  0  0  0  0  0  0  0  0  0
    8.0952   -8.1263    0.0000 O   0  0  0  0  0  0  0  0  0  0  0  0
    8.0952   -6.4763    0.0000 O   0  0  0  0  0  0  0  0  0  0  0  0
    8.8097   -6.0638    0.0000 Si  0  0  0  0  0  0  0  0  0  0  0  0
    8.3972   -5.3493    0.0000 C   0  0  0  0  0  0  0  0  0  0  0  0
    9.2222   -6.7782    0.0000 C   0  0  0  0  0  0  0  0  0  0  0  0
    9.5242   -5.6512    0.0000 C   0  0  0  0  0  0  0  0  0  0  0  0
    8.8097   -8.5388    0.0000 Si  0  0  0  0  0  0  0  0  0  0  0  0
    8.3972   -9.2532    0.0000 C   0  0  0  0  0  0  0  0  0  0  0  0
    9.2222   -7.8243    0.0000 C   0  0  0  0  0  0  0  0  0  0  0  0
    9.5242   -8.9513    0.0000 C   0  0  0  0  0  0  0  0  0  0  0  0
    6.6663   -9.7763    0.0000 Si  0  0  0  0  0  0  0  0  0  0  0  0
    5.8413   -9.7763    0.0000 C   0  0  0  0  0  0  0  0  0  0  0  0
    7.4913   -9.7763    0.0000 C   0  0  0  0  0  0  0  0  0  0  0  0
    6.6663  -10.6013    0.0000 C   0  0  0  0  0  0  0  0  0  0  0  0
    4.5229   -8.5388    0.0000 Si  0  0  0  0  0  0  0  0  0  0  0  0
    3.8084   -8.9513    0.0000 C   0  0  0  0  0  0  0  0  0  0  0  0
    4.1104   -7.8243    0.0000 C   0  0  0  0  0  0  0  0  0  0  0  0
    4.9354   -9.2532    0.0000 C   0  0  0  0  0  0  0  0  0  0  0  0
    4.5229   -6.0638    0.0000 Si  0  0  0  0  0  0  0  0  0  0  0  0
    3.8084   -5.6512    0.0000 C   0  0  0  0  0  0  0  0  0  0  0  0
    4.9354   -5.3493    0.0000 C   0  0  0  0  0  0  0  0  0  0  0  0
    4.1104   -6.7782    0.0000 C   0  0  0  0  0  0  0  0  0  0  0  0
    6.6663   -4.8263    0.0000 Si  0  0  0  0  0  0  0  0  0  0  0  0
    6.6663   -4.0012    0.0000 C   0  0  0  0  0  0  0  0  0  0  0  0
    7.4913   -4.8263    0.0000 C   0  0  0  0  0  0  0  0  0  0  0  0
    5.8413   -4.8263    0.0000 C   0  0  0  0  0  0  0  0  0  0  0  0
  1  2  1  0  0  0  0
  2  3  1  0  0  0  0
  3  4  1  0  0  0  0
  4  5  1  0  0  0  0
  5  6  1  0  0  0  0
  6  1  1  0  0  0  0
  6  7  1  6  0  0  0
  2  8  1  6  0  0  0
  1  9  1  1  0  0  0
  3 10  1  1  0  0  0
  4 11  1  1  0  0  0
  5 12  1  1  0  0  0
 12 13  1  0  0  0  0
 13 14  1  0  0  0  0
 13 15  1  0  0  0  0
 13 16  1  0  0  0  0
 11 17  1  0  0  0  0
 17 18  1  0  0  0  0
 17 19  1  0  0  0  0
 17 20  1  0  0  0  0
 10 21  1  0  0  0  0
 21 22  1  0  0  0  0
 21 23  1  0  0  0  0
 21 24  1  0  0  0  0
  8 25  1  0  0  0  0
 25 26  1  0  0  0  0
 25 27  1  0  0  0  0
 25 28  1  0  0  0  0
  9 29  1  0  0  0  0
 29 30  1  0  0  0  0
 29 31  1  0  0  0  0
 29 32  1  0  0  0  0
  7 33  1  0  0  0  0
 33 34  1  0  0  0  0
 33 35  1  0  0  0  0
 33 36  1  0  0  0  0
M  END
>  <cdx:fragmentId>
5

$$$$
