95669.cdx
  Mrv1902 05222410242D          

 34 37  0  0  0  0            999 V2000
    3.7656   -6.8888    0.0000 C   0  0  0  0  0  0  0  0  0  0  0  0
    3.7656   -7.7138    0.0000 C   0  0  0  0  0  0  0  0  0  0  0  0
    4.4800   -8.1263    0.0000 C   0  0  0  0  0  0  0  0  0  0  0  0
    5.1945   -7.7138    0.0000 C   0  0  0  0  0  0  0  0  0  0  0  0
    5.1945   -6.8888    0.0000 C   0  0  0  0  0  0  0  0  0  0  0  0
    4.4800   -6.4763    0.0000 C   0  0  0  0  0  0  0  0  0  0  0  0
    5.9090   -8.1263    0.0000 C   0  0  0  0  0  0  0  0  0  0  0  0
    6.6234   -7.7138    0.0000 C   0  0  0  0  0  0  0  0  0  0  0  0
    6.6234   -6.8888    0.0000 C   0  0  0  0  0  0  0  0  0  0  0  0
    5.9090   -6.4763    0.0000 O   0  0  0  0  0  0  0  0  0  0  0  0
    7.3379   -8.1263    0.0000 O   0  0  0  0  0  0  0  0  0  0  0  0
    8.0524   -6.8888    0.0000 C   0  0  0  0  0  0  0  0  0  0  0  0
    7.3379   -6.4763    0.0000 C   0  0  0  0  0  0  0  0  0  0  0  0
    8.7669   -6.4763    0.0000 C   0  0  0  0  0  0  0  0  0  0  0  0
    8.7669   -5.6512    0.0000 C   0  0  0  0  0  0  0  0  0  0  0  0
    8.0524   -5.2387    0.0000 C   0  0  0  0  0  0  0  0  0  0  0  0
    7.3379   -5.6512    0.0000 C   0  0  0  0  0  0  0  0  0  0  0  0
    3.0511   -6.4763    0.0000 O   0  0  0  0  0  0  0  0  0  0  0  0
    4.4800   -8.9513    0.0000 O   0  0  0  0  0  0  0  0  0  0  0  0
    5.9090   -8.9513    0.0000 O   0  0  0  0  0  0  0  0  0  0  0  0
    8.0524   -4.4138    0.0000 O   0  0  0  0  0  0  0  0  0  0  0  0
    9.4813   -5.2387    0.0000 O   0  0  0  0  0  0  0  0  0  0  0  0
    8.7669   -4.0012    0.0000 C   0  0  0  0  0  0  0  0  0  0  0  0
    7.3379   -8.9513    0.0000 C   0  0  2  0  0  0  0  0  0  0  0  0
    6.6234   -9.3637    0.0000 O   0  0  0  0  0  0  0  0  0  0  0  0
    6.6234  -10.1888    0.0000 C   0  0  1  0  0  0  0  0  0  0  0  0
    7.3379  -10.6013    0.0000 C   0  0  2  0  0  0  0  0  0  0  0  0
    8.0524  -10.1888    0.0000 C   0  0  1  0  0  0  0  0  0  0  0  0
    8.0524   -9.3637    0.0000 C   0  0  1  0  0  0  0  0  0  0  0  0
    5.9090  -10.6013    0.0000 C   0  0  0  0  0  0  0  0  0  0  0  0
    8.7669  -10.6013    0.0000 O   0  0  0  0  0  0  0  0  0  0  0  0
    8.7669   -8.9513    0.0000 O   0  0  0  0  0  0  0  0  0  0  0  0
    7.3379  -11.4262    0.0000 O   0  0  0  0  0  0  0  0  0  0  0  0
    5.9090  -11.4262    0.0000 O   0  0  0  0  0  0  0  0  0  0  0  0
  1  2  2  0  0  0  0
  2  3  1  0  0  0  0
  3  4  2  0  0  0  0
  4  5  1  0  0  0  0
  5  6  2  0  0  0  0
  6  1  1  0  0  0  0
  4  7  1  0  0  0  0
  7  8  1  0  0  0  0
  8  9  2  0  0  0  0
  9 10  1  0  0  0  0
 10  5  1  0  0  0  0
  8 11  1  0  0  0  0
 12 13  2  0  0  0  0
 13  9  1  0  0  0  0
 12 14  1  0  0  0  0
 14 15  2  0  0  0  0
 15 16  1  0  0  0  0
 16 17  2  0  0  0  0
 17 13  1  0  0  0  0
  1 18  1  0  0  0  0
  3 19  1  0  0  0  0
  7 20  2  0  0  0  0
 16 21  1  0  0  0  0
 15 22  1  0  0  0  0
 21 23  1  0  0  0  0
 24 11  1  1  0  0  0
 24 25  1  0  0  0  0
 25 26  1  0  0  0  0
 26 27  1  0  0  0  0
 27 28  1  0  0  0  0
 28 29  1  0  0  0  0
 29 24  1  0  0  0  0
 26 30  1  1  0  0  0
 28 31  1  1  0  0  0
 29 32  1  6  0  0  0
 27 33  1  6  0  0  0
 30 34  1  0  0  0  0
M  END
>  <cdx:fragmentId>
5

$$$$
