95665.cdx
  Mrv1902 05222410232D          

 27 30  0  0  0  0            999 V2000
    5.6101   -8.8304    0.0000 C   0  0  0  0  0  0  0  0  0  0  0  0
    4.8956   -9.2429    0.0000 C   0  0  0  0  0  0  0  0  0  0  0  0
    4.8956  -10.0679    0.0000 C   0  0  0  0  0  0  0  0  0  0  0  0
    5.6101  -10.4804    0.0000 C   0  0  0  0  0  0  0  0  0  0  0  0
    6.3246  -10.0679    0.0000 C   0  0  0  0  0  0  0  0  0  0  0  0
    7.0390  -10.4804    0.0000 C   0  0  0  0  0  0  0  0  0  0  0  0
    7.7535  -10.0679    0.0000 C   0  0  0  0  0  0  0  0  0  0  0  0
    7.7535   -9.2429    0.0000 C   0  0  1  0  0  0  0  0  0  0  0  0
    8.4680   -8.8304    0.0000 C   0  0  2  0  0  0  0  0  0  0  0  0
    9.2526   -9.0854    0.0000 C   0  0  0  0  0  0  0  0  0  0  0  0
    9.7375   -8.4179    0.0000 C   0  0  0  0  0  0  0  0  0  0  0  0
    9.2526   -7.7505    0.0000 C   0  0  1  0  0  0  0  0  0  0  0  0
    8.4680   -8.0054    0.0000 C   0  0  1  0  0  0  0  0  0  0  0  0
    7.7535   -7.5929    0.0000 C   0  0  0  0  0  0  0  0  0  0  0  0
    7.0390   -8.0054    0.0000 C   0  0  0  0  0  0  0  0  0  0  0  0
    7.0390   -8.8304    0.0000 C   0  0  2  0  0  0  0  0  0  0  0  0
    6.3246   -9.2429    0.0000 C   0  0  1  0  0  0  0  0  0  0  0  0
    4.1812  -10.4804    0.0000 O   0  0  0  0  0  0  0  0  0  0  0  0
    8.5542   -7.1850    0.0000 C   0  0  0  0  0  0  0  0  0  0  0  0
    6.3246   -8.4179    0.0000 C   0  0  0  0  0  0  0  0  0  0  0  0
    9.5076   -6.9659    0.0000 C   0  0  2  0  0  0  0  0  0  0  0  0
   10.3145   -6.7943    0.0000 C   0  0  0  0  0  0  0  0  0  0  0  0
    8.9555   -6.3528    0.0000 O   0  0  0  0  0  0  0  0  0  0  0  0
    7.7535   -8.4179    0.0000 H   0  0  0  0  0  0  0  0  0  0  0  0
    7.0390   -9.6554    0.0000 H   0  0  0  0  0  0  0  0  0  0  0  0
    8.4680   -9.6554    0.0000 H   0  0  0  0  0  0  0  0  0  0  0  0
   10.0675   -7.6214    0.0000 H   0  0  0  0  0  0  0  0  0  0  0  0
  1  2  1  0  0  0  0
  2  3  1  0  0  0  0
  3  4  1  0  0  0  0
  4  5  2  0  0  0  0
  5  6  1  0  0  0  0
  6  7  1  0  0  0  0
  7  8  1  0  0  0  0
  8  9  1  0  0  0  0
  9 10  1  0  0  0  0
 10 11  1  0  0  0  0
 12 11  1  0  0  0  0
 12 13  1  0  0  0  0
  9 13  1  0  0  0  0
 13 14  1  0  0  0  0
 14 15  1  0  0  0  0
 15 16  1  0  0  0  0
  8 16  1  0  0  0  0
 16 17  1  0  0  0  0
  5 17  1  0  0  0  0
  1 17  1  0  0  0  0
  3 18  2  0  0  0  0
 13 19  1  1  0  0  0
 17 20  1  1  0  0  0
 21 22  1  0  0  0  0
 21 23  1  1  0  0  0
 12 21  1  0  0  0  0
  8 24  1  1  0  0  0
 16 25  1  6  0  0  0
  9 26  1  6  0  0  0
 12 27  1  6  0  0  0
M  END
>  <cdx:groupId>
83

>  <cdx:fragmentId>
5

$$$$
