95668.cdx
  Mrv1902 05222410232D          

 40 44  0  0  0  0            999 V2000
    7.8411   -4.6079    0.0000 O   0  0  0  0  0  0  0  0  0  0  0  0
    4.9832   -7.0829    0.0000 O   0  0  0  0  0  0  0  0  0  0  0  0
    4.9832   -5.4329    0.0000 O   0  0  0  0  0  0  0  0  0  0  0  0
    6.4122   -4.6079    0.0000 O   0  0  0  0  0  0  0  0  0  0  0  0
    7.8411   -5.4329    0.0000 C   0  0  0  0  0  0  0  0  0  0  0  0
    7.1266   -6.6704    0.0000 O   0  0  0  0  0  0  0  0  0  0  0  0
    7.1266   -5.8454    0.0000 C   0  0  1  0  0  0  0  0  0  0  0  0
    6.4122   -5.4329    0.0000 C   0  0  2  0  0  0  0  0  0  0  0  0
    5.6977   -5.8454    0.0000 C   0  0  1  0  0  0  0  0  0  0  0  0
    5.6977   -6.6704    0.0000 C   0  0  2  0  0  0  0  0  0  0  0  0
    6.4122   -7.0829    0.0000 C   0  0  2  0  0  0  0  0  0  0  0  0
    6.4122  -10.3829    0.0000 O   0  0  0  0  0  0  0  0  0  0  0  0
    4.9832   -7.9079    0.0000 O   0  0  0  0  0  0  0  0  0  0  0  0
   11.4135   -6.6704    0.0000 O   0  0  0  0  0  0  0  0  0  0  0  0
    9.2700   -7.0829    0.0000 C   0  0  0  0  0  0  0  0  0  0  0  0
    9.9845   -6.6704    0.0000 C   0  0  0  0  0  0  0  0  0  0  0  0
   10.6990   -7.0829    0.0000 C   0  0  0  0  0  0  0  0  0  0  0  0
   10.6990   -7.9079    0.0000 C   0  0  0  0  0  0  0  0  0  0  0  0
    9.9845   -8.3204    0.0000 C   0  0  0  0  0  0  0  0  0  0  0  0
    9.2700   -7.9079    0.0000 C   0  0  0  0  0  0  0  0  0  0  0  0
    4.2688  -11.6204    0.0000 O   0  0  0  0  0  0  0  0  0  0  0  0
    2.8398  -10.7954    0.0000 O   0  0  0  0  0  0  0  0  0  0  0  0
    2.8398   -9.1454    0.0000 O   0  0  0  0  0  0  0  0  0  0  0  0
    3.5543   -9.5579    0.0000 C   0  0  0  0  0  0  0  0  0  0  0  0
    3.5543  -10.3829    0.0000 C   0  0  0  0  0  0  0  0  0  0  0  0
    4.2688  -10.7954    0.0000 C   0  0  0  0  0  0  0  0  0  0  0  0
    4.9832  -10.3829    0.0000 C   0  0  0  0  0  0  0  0  0  0  0  0
    4.9832   -9.5579    0.0000 C   0  0  0  0  0  0  0  0  0  0  0  0
    4.2688   -9.1454    0.0000 O   0  0  0  0  0  0  0  0  0  0  0  0
    7.8411  -10.3829    0.0000 O   0  0  0  0  0  0  0  0  0  0  0  0
    7.8411   -7.9079    0.0000 O   0  0  0  0  0  0  0  0  0  0  0  0
    7.1266   -8.3204    0.0000 C   0  0  0  0  0  0  0  0  0  0  0  0
    6.4122   -7.9079    0.0000 C   0  0  0  0  0  0  0  0  0  0  0  0
    5.6977   -8.3204    0.0000 C   0  0  0  0  0  0  0  0  0  0  0  0
    5.6977   -9.1454    0.0000 C   0  0  0  0  0  0  0  0  0  0  0  0
    6.4122   -9.5579    0.0000 C   0  0  0  0  0  0  0  0  0  0  0  0
    7.1266   -9.1454    0.0000 C   0  0  0  0  0  0  0  0  0  0  0  0
    7.8411   -9.5579    0.0000 C   0  0  0  0  0  0  0  0  0  0  0  0
    8.5556   -9.1454    0.0000 C   0  0  0  0  0  0  0  0  0  0  0  0
    8.5556   -8.3204    0.0000 C   0  0  0  0  0  0  0  0  0  0  0  0
  5  1  1  0  0  0  0
 10  2  1  6  0  0  0
  9  3  1  1  0  0  0
  8  4  1  6  0  0  0
  7  5  1  1  0  0  0
  6 11  1  0  0  0  0
  7  6  1  0  0  0  0
  8  7  1  0  0  0  0
  9  8  1  0  0  0  0
 10  9  1  0  0  0  0
 11 10  1  0  0  0  0
 11 33  1  1  0  0  0
 36 12  1  0  0  0  0
 34 13  1  0  0  0  0
 40 20  1  0  0  0  0
 17 14  1  0  0  0  0
 20 15  2  0  0  0  0
 16 15  1  0  0  0  0
 17 16  2  0  0  0  0
 18 17  1  0  0  0  0
 19 18  2  0  0  0  0
 20 19  1  0  0  0  0
 28 35  1  0  0  0  0
 26 21  1  0  0  0  0
 25 22  1  0  0  0  0
 24 23  1  0  0  0  0
 29 24  1  0  0  0  0
 25 24  1  0  0  0  0
 26 25  1  0  0  0  0
 27 26  1  0  0  0  0
 28 27  1  0  0  0  0
 29 28  1  0  0  0  0
 38 30  2  0  0  0  0
 40 31  1  0  0  0  0
 32 31  1  0  0  0  0
 37 32  2  0  0  0  0
 33 32  1  0  0  0  0
 34 33  2  0  0  0  0
 35 34  1  0  0  0  0
 36 35  2  0  0  0  0
 37 36  1  0  0  0  0
 38 37  1  0  0  0  0
 39 38  1  0  0  0  0
 40 39  2  0  0  0  0
M  END
>  <cdx:fragmentId>
5

$$$$
