95663.cdx
  Mrv1902 05222410212D          

 42 46  0  0  0  0            999 V2000
    9.0069   -5.1750    0.0000 O   0  0  0  0  0  0  0  0  0  0  0  0
    9.0046   -6.0000    0.0000 C   0  0  1  0  0  0  0  0  0  0  0  0
    9.7179   -6.4145    0.0000 C   0  0  2  0  0  0  0  0  0  0  0  0
   10.4336   -6.0040    0.0000 O   0  0  0  0  0  0  0  0  0  0  0  0
    8.2890   -6.4105    0.0000 C   0  0  2  0  0  0  0  0  0  0  0  0
    8.2867   -7.2355    0.0000 C   0  0  1  0  0  0  0  0  0  0  0  0
   12.5577  -13.8809    0.0000 O   0  0  0  0  0  0  0  0  0  0  0  0
    7.5610  -13.4159    0.0000 O   0  0  0  0  0  0  0  0  0  0  0  0
    6.1321  -13.4009    0.0000 C   0  0  0  0  0  0  0  0  0  0  0  0
    6.1408  -12.5759    0.0000 O   0  0  0  0  0  0  0  0  0  0  0  0
   11.1288  -13.8659    0.0000 C   0  0  0  0  0  0  0  0  0  0  0  0
   11.8476  -13.4609    0.0000 C   0  0  0  0  0  0  0  0  0  0  0  0
   11.8562  -12.6360    0.0000 C   0  0  0  0  0  0  0  0  0  0  0  0
   11.1461  -12.2160    0.0000 C   0  0  0  0  0  0  0  0  0  0  0  0
    8.9898  -13.4309    0.0000 O   0  0  0  0  0  0  0  0  0  0  0  0
   10.4187  -13.4459    0.0000 C   0  0  0  0  0  0  0  0  0  0  0  0
   10.4274  -12.6210    0.0000 C   0  0  0  0  0  0  0  0  0  0  0  0
    8.9985  -12.6060    0.0000 C   0  0  0  0  0  0  0  0  0  0  0  0
    9.7173  -12.2010    0.0000 C   0  0  0  0  0  0  0  0  0  0  0  0
    9.7259  -11.3760    0.0000 C   0  0  0  0  0  0  0  0  0  0  0  0
    9.0158  -10.9561    0.0000 O   0  0  0  0  0  0  0  0  0  0  0  0
    6.8596  -12.1710    0.0000 C   0  0  0  0  0  0  0  0  0  0  0  0
    7.5697  -12.5910    0.0000 C   0  0  0  0  0  0  0  0  0  0  0  0
    8.2884  -12.1860    0.0000 C   0  0  0  0  0  0  0  0  0  0  0  0
    8.2971  -11.3610    0.0000 C   0  0  0  0  0  0  0  0  0  0  0  0
    9.0000   -7.6500    0.0000 O   0  0  0  0  0  0  0  0  0  0  0  0
    9.7156   -7.2395    0.0000 C   0  0  0  0  0  0  0  0  0  0  0  0
    6.8682  -11.3460    0.0000 C   0  0  0  0  0  0  0  0  0  0  0  0
    7.5870  -10.9410    0.0000 C   0  0  0  0  0  0  0  0  0  0  0  0
    6.1673   -7.6260    0.0000 O   0  0  0  0  0  0  0  0  0  0  0  0
    6.1650   -8.4510    0.0000 C   0  0  2  0  0  0  0  0  0  0  0  0
    6.8783   -8.8655    0.0000 C   0  0  2  0  0  0  0  0  0  0  0  0
    5.4494   -8.8615    0.0000 C   0  0  1  0  0  0  0  0  0  0  0  0
    5.4471   -9.6865    0.0000 C   0  0  2  0  0  0  0  0  0  0  0  0
    6.1604  -10.1010    0.0000 C   0  0  1  0  0  0  0  0  0  0  0  0
    6.8760   -9.6905    0.0000 O   0  0  0  0  0  0  0  0  0  0  0  0
    4.7315  -10.0971    0.0000 O   0  0  0  0  0  0  0  0  0  0  0  0
    6.1581  -10.9260    0.0000 O   0  0  0  0  0  0  0  0  0  0  0  0
    7.5757   -5.9960    0.0000 O   0  0  0  0  0  0  0  0  0  0  0  0
    7.5940   -8.4550    0.0000 C   0  0  0  0  0  0  0  0  0  0  0  0
    7.5963   -7.6300    0.0000 O   0  0  0  0  0  0  0  0  0  0  0  0
    4.7361   -8.4471    0.0000 O   0  0  0  0  0  0  0  0  0  0  0  0
  2  1  1  1  0  0  0
  2  3  1  0  0  0  0
  3  4  1  6  0  0  0
 12  7  1  0  0  0  0
 23  8  1  0  0  0  0
 10  9  1  0  0  0  0
 22 10  1  0  0  0  0
 11 16  2  0  0  0  0
 12 11  1  0  0  0  0
 13 12  2  0  0  0  0
 14 13  1  0  0  0  0
 17 14  2  0  0  0  0
 15 18  2  0  0  0  0
 17 16  1  0  0  0  0
 19 17  1  0  0  0  0
 18 24  1  0  0  0  0
 19 18  1  0  0  0  0
 20 19  2  0  0  0  0
 21 20  1  0  0  0  0
 25 21  1  0  0  0  0
 22 28  2  0  0  0  0
 23 22  1  0  0  0  0
 24 23  2  0  0  0  0
 25 24  1  0  0  0  0
 29 25  2  0  0  0  0
 28 38  1  0  0  0  0
 29 28  1  0  0  0  0
  2  5  1  0  0  0  0
  5  6  1  0  0  0  0
  6 26  1  0  0  0  0
 26 27  1  0  0  0  0
 27  3  1  0  0  0  0
 31 30  1  6  0  0  0
 31 32  1  0  0  0  0
 31 33  1  0  0  0  0
 33 34  1  0  0  0  0
 34 35  1  0  0  0  0
 35 36  1  0  0  0  0
 36 32  1  0  0  0  0
 34 37  1  6  0  0  0
 35 38  1  1  0  0  0
  5 39  1  6  0  0  0
 32 40  1  1  0  0  0
 40 41  1  0  0  0  0
  6 41  1  1  0  0  0
 33 42  1  1  0  0  0
M  END
>  <cdx:fragmentId>
5

$$$$
