95679.cdx
  Mrv1902 05222410252D          

 42 46  0  0  0  0            999 V2000
    8.9748   -4.5493    0.0000 O   0  0  0  0  0  0  0  0  0  0  0  0
    6.1170   -4.5590    0.0000 O   0  0  0  0  0  0  0  0  0  0  0  0
    3.2732   -8.6937    0.0000 O   0  0  0  0  0  0  0  0  0  0  0  0
    7.5431   -3.7292    0.0000 O   0  0  0  0  0  0  0  0  0  0  0  0
    3.2675   -7.0438    0.0000 O   0  0  0  0  0  0  0  0  0  0  0  0
    3.9961  -10.7514    0.0000 C   0  0  0  0  0  0  0  0  0  0  0  0
    4.7105  -11.1639    0.0000 O   0  0  0  0  0  0  0  0  0  0  0  0
    7.5712  -11.9791    0.0000 O   0  0  0  0  0  0  0  0  0  0  0  0
   11.8580  -11.9645    0.0000 C   0  0  0  0  0  0  0  0  0  0  0  0
   11.1449  -12.3794    0.0000 O   0  0  0  0  0  0  0  0  0  0  0  0
    8.2646   -5.7892    0.0000 C   0  0  0  0  0  0  0  0  0  0  0  0
    8.2618   -4.9642    0.0000 C   0  0  2  0  0  0  0  0  0  0  0  0
    7.5459   -4.5542    0.0000 C   0  0  1  0  0  0  0  0  0  0  0  0
    6.8328   -4.9691    0.0000 C   0  0  2  0  0  0  0  0  0  0  0  0
    7.5515   -6.2041    0.0000 O   0  0  0  0  0  0  0  0  0  0  0  0
    6.8356   -5.7941    0.0000 C   0  0  1  0  0  0  0  0  0  0  0  0
    6.1254   -7.0340    0.0000 C   0  0  0  0  0  0  0  0  0  0  0  0
    6.1226   -6.2090    0.0000 O   0  0  0  0  0  0  0  0  0  0  0  0
    4.6937   -6.2139    0.0000 O   0  0  0  0  0  0  0  0  0  0  0  0
    9.0001  -11.9742    0.0000 C   0  0  0  0  0  0  0  0  0  0  0  0
    9.7160  -12.3843    0.0000 C   0  0  0  0  0  0  0  0  0  0  0  0
   10.4291  -11.9694    0.0000 C   0  0  0  0  0  0  0  0  0  0  0  0
   10.4263  -11.1444    0.0000 C   0  0  0  0  0  0  0  0  0  0  0  0
    8.9973  -11.1492    0.0000 C   0  0  0  0  0  0  0  0  0  0  0  0
    9.7104  -10.7343    0.0000 C   0  0  0  0  0  0  0  0  0  0  0  0
    7.5684  -11.1541    0.0000 C   0  0  0  0  0  0  0  0  0  0  0  0
    8.2814  -10.7392    0.0000 C   0  0  0  0  0  0  0  0  0  0  0  0
    8.2786   -9.9142    0.0000 C   0  0  0  0  0  0  0  0  0  0  0  0
    7.5628   -9.5041    0.0000 O   0  0  0  0  0  0  0  0  0  0  0  0
    5.4236  -10.7489    0.0000 C   0  0  0  0  0  0  0  0  0  0  0  0
    6.1395  -11.1590    0.0000 C   0  0  0  0  0  0  0  0  0  0  0  0
    6.8525  -10.7441    0.0000 C   0  0  0  0  0  0  0  0  0  0  0  0
    6.8497   -9.9191    0.0000 C   0  0  0  0  0  0  0  0  0  0  0  0
    4.7049   -9.5139    0.0000 O   0  0  0  0  0  0  0  0  0  0  0  0
    5.4208   -9.9239    0.0000 C   0  0  0  0  0  0  0  0  0  0  0  0
    6.1338   -9.5090    0.0000 C   0  0  0  0  0  0  0  0  0  0  0  0
    4.7021   -8.6889    0.0000 C   0  0  2  0  0  0  0  0  0  0  0  0
    5.4151   -8.2739    0.0000 O   0  0  0  0  0  0  0  0  0  0  0  0
    5.4123   -7.4489    0.0000 C   0  0  1  0  0  0  0  0  0  0  0  0
    4.6965   -7.0389    0.0000 C   0  0  2  0  0  0  0  0  0  0  0  0
    3.9834   -7.4538    0.0000 C   0  0  1  0  0  0  0  0  0  0  0  0
    3.9862   -8.2788    0.0000 C   0  0  1  0  0  0  0  0  0  0  0  0
 12  1  1  6  0  0  0
 14  2  1  6  0  0  0
 42  3  1  6  0  0  0
 13  4  1  1  0  0  0
 41  5  1  1  0  0  0
  7  6  1  0  0  0  0
 30  7  1  0  0  0  0
 26  8  2  0  0  0  0
 10  9  1  0  0  0  0
 22 10  1  0  0  0  0
 11 15  1  0  0  0  0
 12 11  1  0  0  0  0
 13 12  1  0  0  0  0
 14 13  1  0  0  0  0
 16 14  1  0  0  0  0
 16 15  1  0  0  0  0
 16 18  1  1  0  0  0
 39 17  1  1  0  0  0
 18 17  1  0  0  0  0
 40 19  1  6  0  0  0
 20 24  1  0  0  0  0
 21 20  2  0  0  0  0
 22 21  1  0  0  0  0
 23 22  2  0  0  0  0
 25 23  1  0  0  0  0
 24 27  1  0  0  0  0
 25 24  2  0  0  0  0
 26 32  1  0  0  0  0
 27 26  1  0  0  0  0
 28 27  2  0  0  0  0
 29 28  1  0  0  0  0
 33 29  1  0  0  0  0
 30 35  2  0  0  0  0
 31 30  1  0  0  0  0
 32 31  2  0  0  0  0
 33 32  1  0  0  0  0
 36 33  2  0  0  0  0
 37 34  1  1  0  0  0
 35 34  1  0  0  0  0
 36 35  1  0  0  0  0
 37 42  1  0  0  0  0
 38 37  1  0  0  0  0
 39 38  1  0  0  0  0
 40 39  1  0  0  0  0
 41 40  1  0  0  0  0
 42 41  1  0  0  0  0
M  END
>  <cdx:fragmentId>
5

$$$$
