95678.cdx
  Mrv1902 05222410262D          

 49 54  0  0  0  0            999 V2000
   10.2217   -6.5058    0.0000 C   0  0  1  0  0  0  0  0  0  0  0  0
   10.9361   -6.9183    0.0000 C   0  0  1  0  0  0  0  0  0  0  0  0
   10.9361   -7.7433    0.0000 C   0  0  0  0  0  0  0  0  0  0  0  0
   10.2217   -8.1558    0.0000 C   0  0  0  0  0  0  0  0  0  0  0  0
    9.5072   -7.7433    0.0000 C   0  0  1  0  0  0  0  0  0  0  0  0
    8.7927   -8.1558    0.0000 C   0  0  2  0  0  0  0  0  0  0  0  0
    8.7927   -8.9808    0.0000 C   0  0  0  0  0  0  0  0  0  0  0  0
    8.0782   -9.3933    0.0000 C   0  0  0  0  0  0  0  0  0  0  0  0
    7.3638   -8.9808    0.0000 C   0  0  1  0  0  0  0  0  0  0  0  0
    6.6493   -9.3933    0.0000 C   0  0  0  0  0  0  0  0  0  0  0  0
    5.9348   -8.9808    0.0000 C   0  0  2  0  0  0  0  0  0  0  0  0
    5.9348   -8.1558    0.0000 C   0  0  1  0  0  0  0  0  0  0  0  0
    6.6493   -7.7433    0.0000 C   0  0  0  0  0  0  0  0  0  0  0  0
    7.3638   -8.1558    0.0000 C   0  0  2  0  0  0  0  0  0  0  0  0
    8.0782   -7.7433    0.0000 C   0  0  1  0  0  0  0  0  0  0  0  0
    8.0782   -6.9183    0.0000 C   0  0  0  0  0  0  0  0  0  0  0  0
    8.7927   -6.5058    0.0000 C   0  0  0  0  0  0  0  0  0  0  0  0
    9.5072   -6.9183    0.0000 C   0  0  2  0  0  0  0  0  0  0  0  0
   11.5492   -6.3663    0.0000 C   0  0  0  0  0  0  0  0  0  0  0  0
   11.2137   -5.6126    0.0000 C   0  0  0  0  0  0  0  0  0  0  0  0
   10.3932   -5.6988    0.0000 C   0  0  1  0  0  0  0  0  0  0  0  0
   11.6898   -7.2539    0.0000 C   0  0  0  0  0  0  0  0  0  0  0  0
   11.6898   -8.0789    0.0000 O   0  0  0  0  0  0  0  0  0  0  0  0
   12.2732   -6.6705    0.0000 O   0  0  0  0  0  0  0  0  0  0  0  0
   10.0961   -4.3011    0.0000 C   0  0  0  0  0  0  0  0  0  0  0  0
    9.8411   -5.0858    0.0000 C   0  0  0  0  0  0  0  0  0  0  0  0
    9.0342   -5.2573    0.0000 C   0  0  0  0  0  0  0  0  0  0  0  0
    7.3638   -7.3308    0.0000 C   0  0  0  0  0  0  0  0  0  0  0  0
    7.0618  -10.1078    0.0000 C   0  0  0  0  0  0  0  0  0  0  0  0
    6.2368  -10.1078    0.0000 C   0  0  0  0  0  0  0  0  0  0  0  0
    8.7927   -7.3308    0.0000 C   0  0  0  0  0  0  0  0  0  0  0  0
    9.5072   -8.5683    0.0000 C   0  0  0  0  0  0  0  0  0  0  0  0
    5.2204   -7.7433    0.0000 O   0  0  0  0  0  0  0  0  0  0  0  0
    4.5059   -8.1558    0.0000 C   0  0  0  0  0  0  0  0  0  0  0  0
    3.7914   -7.7433    0.0000 C   0  0  0  0  0  0  0  0  0  0  0  0
    3.0769   -8.1558    0.0000 C   0  0  0  0  0  0  0  0  0  0  0  0
    4.5059   -8.9808    0.0000 O   0  0  0  0  0  0  0  0  0  0  0  0
    3.0684   -8.9808    0.0000 C   0  0  0  0  0  0  0  0  0  0  0  0
    3.7786   -9.4006    0.0000 C   0  0  0  0  0  0  0  0  0  0  0  0
    3.7700  -10.2256    0.0000 C   0  0  0  0  0  0  0  0  0  0  0  0
    3.0513  -10.6307    0.0000 C   0  0  0  0  0  0  0  0  0  0  0  0
    2.3412  -10.2108    0.0000 C   0  0  0  0  0  0  0  0  0  0  0  0
    2.3497   -9.3859    0.0000 C   0  0  0  0  0  0  0  0  0  0  0  0
    3.0428  -11.4556    0.0000 O   0  0  0  0  0  0  0  0  0  0  0  0
    5.2204   -9.3933    0.0000 O   0  0  0  0  0  0  0  0  0  0  0  0
    7.3638   -9.8058    0.0000 H   0  0  0  0  0  0  0  0  0  0  0  0
    8.0782   -8.5683    0.0000 H   0  0  0  0  0  0  0  0  0  0  0  0
    9.5072   -6.0933    0.0000 H   0  0  0  0  0  0  0  0  0  0  0  0
   10.2217   -7.3308    0.0000 H   0  0  0  0  0  0  0  0  0  0  0  0
  1  2  1  0  0  0  0
  2  3  1  0  0  0  0
  3  4  1  0  0  0  0
  4  5  1  0  0  0  0
  5  6  1  0  0  0  0
  6  7  1  0  0  0  0
  7  8  1  0  0  0  0
  8  9  1  0  0  0  0
  9 10  1  0  0  0  0
 10 11  1  0  0  0  0
 11 12  1  0  0  0  0
 12 13  1  0  0  0  0
 13 14  1  0  0  0  0
  9 14  1  0  0  0  0
 14 15  1  0  0  0  0
  6 15  1  0  0  0  0
 15 16  1  0  0  0  0
 16 17  1  0  0  0  0
 17 18  1  0  0  0  0
  5 18  1  0  0  0  0
  1 18  1  0  0  0  0
 19 20  1  0  0  0  0
 20 21  1  0  0  0  0
 21  1  1  0  0  0  0
 19  2  1  0  0  0  0
 22 23  2  0  0  0  0
 22 24  1  0  0  0  0
  2 22  1  1  0  0  0
 25 26  2  0  0  0  0
 26 27  1  0  0  0  0
 21 26  1  6  0  0  0
 14 28  1  1  0  0  0
 10 29  1  0  0  0  0
 10 30  1  0  0  0  0
  6 31  1  1  0  0  0
  5 32  1  6  0  0  0
 34 35  1  0  0  0  0
 35 36  2  0  0  0  0
 34 37  2  0  0  0  0
 38 39  1  0  0  0  0
 39 40  2  0  0  0  0
 40 41  1  0  0  0  0
 41 42  2  0  0  0  0
 42 43  1  0  0  0  0
 38 43  2  0  0  0  0
 41 44  1  0  0  0  0
 36 38  1  0  0  0  0
 33 34  1  0  0  0  0
 12 33  1  6  0  0  0
 11 45  1  1  0  0  0
  9 46  1  6  0  0  0
 15 47  1  6  0  0  0
 18 48  1  1  0  0  0
  1 49  1  6  0  0  0
M  END
>  <cdx:fragmentId>
5

$$$$
