95672.cdx
  Mrv1902 05222410222D          

 39 47  0  0  0  0            999 V2000
    4.5768   -6.4213    0.0000 C   0  0  0  0  0  0  0  0  0  0  0  0
    4.5768   -7.2462    0.0000 C   0  0  0  0  0  0  0  0  0  0  0  0
    5.2913   -7.6587    0.0000 C   0  0  0  0  0  0  0  0  0  0  0  0
    6.0057   -7.2462    0.0000 C   0  0  0  0  0  0  0  0  0  0  0  0
    6.0057   -6.4213    0.0000 C   0  0  0  0  0  0  0  0  0  0  0  0
    5.2913   -6.0088    0.0000 C   0  0  0  0  0  0  0  0  0  0  0  0
    6.7202   -7.6587    0.0000 C   0  0  0  0  0  0  0  0  0  0  0  0
    7.4347   -7.2462    0.0000 C   0  0  0  0  0  0  0  0  0  0  0  0
    7.4347   -6.4213    0.0000 C   0  0  0  0  0  0  0  0  0  0  0  0
    6.7202   -6.0088    0.0000 C   0  0  0  0  0  0  0  0  0  0  0  0
    8.1492   -7.6587    0.0000 C   0  0  0  0  0  0  0  0  0  0  0  0
    8.8636   -7.2462    0.0000 C   0  0  0  0  0  0  0  0  0  0  0  0
    8.8636   -6.4213    0.0000 C   0  0  0  0  0  0  0  0  0  0  0  0
    8.1492   -6.0088    0.0000 C   0  0  0  0  0  0  0  0  0  0  0  0
    3.8623   -7.6587    0.0000 O   0  0  0  0  0  0  0  0  0  0  0  0
    3.8623   -8.4838    0.0000 O   0  0  0  0  0  0  0  0  0  0  0  0
    4.5768   -8.8963    0.0000 C   0  0  0  0  0  0  0  0  0  0  0  0
    5.2913   -8.4838    0.0000 C   0  0  0  0  0  0  0  0  0  0  0  0
    6.0057   -8.8963    0.0000 C   0  0  0  0  0  0  0  0  0  0  0  0
    6.7202   -8.4838    0.0000 C   0  0  0  0  0  0  0  0  0  0  0  0
    7.4347   -8.8962    0.0000 C   0  0  0  0  0  0  0  0  0  0  0  0
    8.1492   -8.4838    0.0000 C   0  0  0  0  0  0  0  0  0  0  0  0
    8.8636   -8.8962    0.0000 C   0  0  0  0  0  0  0  0  0  0  0  0
    9.5781   -8.4838    0.0000 C   0  0  0  0  0  0  0  0  0  0  0  0
    9.5781   -7.6587    0.0000 O   0  0  0  0  0  0  0  0  0  0  0  0
    4.5768   -9.7212    0.0000 C   0  0  0  0  0  0  0  0  0  0  0  0
    5.2913  -10.1338    0.0000 C   0  0  0  0  0  0  0  0  0  0  0  0
    6.0057   -9.7212    0.0000 C   0  0  0  0  0  0  0  0  0  0  0  0
    6.7202  -10.1337    0.0000 C   0  0  0  0  0  0  0  0  0  0  0  0
    7.4347   -9.7212    0.0000 C   0  0  0  0  0  0  0  0  0  0  0  0
    8.1492  -10.1337    0.0000 C   0  0  0  0  0  0  0  0  0  0  0  0
    8.8636   -9.7212    0.0000 C   0  0  0  0  0  0  0  0  0  0  0  0
    5.2913   -5.1837    0.0000 O   0  0  0  0  0  0  0  0  0  0  0  0
    6.7202   -5.1837    0.0000 O   0  0  0  0  0  0  0  0  0  0  0  0
    8.1492   -5.1837    0.0000 O   0  0  0  0  0  0  0  0  0  0  0  0
    9.5781   -6.8338    0.0000 C   0  0  0  0  0  0  0  0  0  0  0  0
    5.2913  -10.9588    0.0000 O   0  0  0  0  0  0  0  0  0  0  0  0
    6.7202  -10.9587    0.0000 O   0  0  0  0  0  0  0  0  0  0  0  0
    8.1492  -10.9587    0.0000 O   0  0  0  0  0  0  0  0  0  0  0  0
  1  2  1  0  0  0  0
  2  3  2  0  0  0  0
  3  4  1  0  0  0  0
  4  5  2  0  0  0  0
  5  6  1  0  0  0  0
  6  1  2  0  0  0  0
  4  7  1  0  0  0  0
  7  8  1  0  0  0  0
  8  9  1  0  0  0  0
  9 10  1  0  0  0  0
 10  5  1  0  0  0  0
  8 11  2  0  0  0  0
 11 12  1  0  0  0  0
 12 13  1  0  0  0  0
 13 14  1  0  0  0  0
 14  9  2  0  0  0  0
  2 15  1  0  0  0  0
 16 17  1  0  0  0  0
 17 18  2  0  0  0  0
 18  3  1  0  0  0  0
 18 19  1  0  0  0  0
 19 20  1  0  0  0  0
 20  7  2  0  0  0  0
 20 21  1  0  0  0  0
 21 22  2  0  0  0  0
 22 11  1  0  0  0  0
 22 23  1  0  0  0  0
 23 24  1  0  0  0  0
 24 25  1  0  0  0  0
 25 12  1  0  0  0  0
 17 26  1  0  0  0  0
 26 27  2  0  0  0  0
 27 28  1  0  0  0  0
 28 19  2  0  0  0  0
 28 29  1  0  0  0  0
 29 30  1  0  0  0  0
 30 21  1  0  0  0  0
 30 31  2  0  0  0  0
 31 32  1  0  0  0  0
 32 23  2  0  0  0  0
  6 33  1  0  0  0  0
 10 34  2  0  0  0  0
 14 35  1  0  0  0  0
 12 36  1  0  0  0  0
 27 37  1  0  0  0  0
 29 38  2  0  0  0  0
 31 39  1  0  0  0  0
M  END
>  <cdx:fragmentId>
5

$$$$
