95674.cdx
  Mrv1902 05222410212D          

 76 84  0  0  0  0            999 V2000
   15.1079   -7.2062    0.0000 C   0  0  0  0  0  0  0  0  0  0  0  0
   15.8208   -6.7946    0.0000 C   0  0  0  0  0  0  0  0  0  0  0  0
   16.5337   -7.2062    0.0000 C   0  0  0  0  0  0  0  0  0  0  0  0
   16.5337   -8.0294    0.0000 C   0  0  0  0  0  0  0  0  0  0  0  0
   15.8208   -8.4410    0.0000 C   0  0  2  0  0  0  0  0  0  0  0  0
   15.8208   -9.2642    0.0000 C   0  0  0  0  0  0  0  0  0  0  0  0
   15.1079   -9.6758    0.0000 C   0  0  0  0  0  0  0  0  0  0  0  0
   14.3950   -9.2642    0.0000 C   0  0  1  0  0  0  0  0  0  0  0  0
   13.6821   -9.6758    0.0000 C   0  0  2  0  0  0  0  0  0  0  0  0
   13.6821  -10.4989    0.0000 C   0  0  0  0  0  0  0  0  0  0  0  0
   12.9692  -10.9105    0.0000 C   0  0  0  0  0  0  0  0  0  0  0  0
   12.2563  -10.4989    0.0000 C   0  0  1  0  0  0  0  0  0  0  0  0
   11.5434  -10.9105    0.0000 C   0  0  2  0  0  0  0  0  0  0  0  0
   10.8305  -10.4989    0.0000 C   0  0  2  0  0  0  0  0  0  0  0  0
   10.8305   -9.6758    0.0000 C   0  0  0  0  0  0  0  0  0  0  0  0
   11.5434   -9.2642    0.0000 C   0  0  0  0  0  0  0  0  0  0  0  0
   12.2563   -9.6758    0.0000 C   0  0  2  0  0  0  0  0  0  0  0  0
   12.9692   -9.2642    0.0000 C   0  0  1  0  0  0  0  0  0  0  0  0
   12.9692   -8.4410    0.0000 C   0  0  0  0  0  0  0  0  0  0  0  0
   13.6821   -8.0294    0.0000 C   0  0  0  0  0  0  0  0  0  0  0  0
   14.3950   -8.4410    0.0000 C   0  0  0  0  0  0  0  0  0  0  0  0
   15.1079   -8.0294    0.0000 C   0  0  2  0  0  0  0  0  0  0  0  0
   16.5337   -8.8526    0.0000 C   0  0  0  0  0  0  0  0  0  0  0  0
   16.5337   -9.6758    0.0000 O   0  0  0  0  0  0  0  0  0  0  0  0
   17.2466   -8.4410    0.0000 O   0  0  0  0  0  0  0  0  0  0  0  0
   12.2563   -8.8526    0.0000 C   0  0  0  0  0  0  0  0  0  0  0  0
   11.1318  -11.6234    0.0000 C   0  0  0  0  0  0  0  0  0  0  0  0
   15.4092   -6.0817    0.0000 C   0  0  0  0  0  0  0  0  0  0  0  0
   16.2324   -6.0817    0.0000 C   0  0  0  0  0  0  0  0  0  0  0  0
   11.9550  -11.6234    0.0000 C   0  0  0  0  0  0  0  0  0  0  0  0
   11.5434  -12.3363    0.0000 O   0  0  0  0  0  0  0  0  0  0  0  0
   10.1176  -10.9105    0.0000 O   0  0  0  0  0  0  0  0  0  0  0  0
   12.2563  -11.3221    0.0000 H   0  0  0  0  0  0  0  0  0  0  0  0
   14.3934   -7.6169    0.0000 H   0  0  0  0  0  0  0  0  0  0  0  0
   13.6821   -8.8508    0.0000 C   0  0  0  0  0  0  0  0  0  0  0  0
   14.3950  -10.0892    0.0000 C   0  0  0  0  0  0  0  0  0  0  0  0
   12.9692  -10.0892    0.0000 H   0  0  0  0  0  0  0  0  0  0  0  0
    7.9833   -9.6721    0.0000 C   0  0  2  0  0  0  0  0  0  0  0  0
    7.9833  -10.4952    0.0000 C   0  0  1  0  0  0  0  0  0  0  0  0
    8.6962  -10.9068    0.0000 C   0  0  2  0  0  0  0  0  0  0  0  0
    9.4091  -10.4952    0.0000 C   0  0  1  0  0  0  0  0  0  0  0  0
    9.4091   -9.6721    0.0000 O   0  0  0  0  0  0  0  0  0  0  0  0
    8.6962   -9.2605    0.0000 C   0  0  0  0  0  0  0  0  0  0  0  0
    7.2704  -10.9068    0.0000 O   0  0  0  0  0  0  0  0  0  0  0  0
    7.2704  -11.7300    0.0000 O   0  0  0  0  0  0  0  0  0  0  0  0
    7.9833  -12.1416    0.0000 C   0  0  1  0  0  0  0  0  0  0  0  0
    8.6962  -11.7300    0.0000 O   0  0  0  0  0  0  0  0  0  0  0  0
    6.5575  -12.1416    0.0000 C   0  0  2  0  0  0  0  0  0  0  0  0
    6.5575  -12.9648    0.0000 C   0  0  1  0  0  0  0  0  0  0  0  0
    7.2704  -13.3764    0.0000 C   0  0  2  0  0  0  0  0  0  0  0  0
    7.9833  -12.9648    0.0000 C   0  0  1  0  0  0  0  0  0  0  0  0
    7.2704   -9.2605    0.0000 O   0  0  0  0  0  0  0  0  0  0  0  0
    5.8446  -13.3764    0.0000 O   0  0  0  0  0  0  0  0  0  0  0  0
    5.8446  -11.7300    0.0000 C   0  0  0  0  0  0  0  0  0  0  0  0
    7.2704  -14.1996    0.0000 O   0  0  0  0  0  0  0  0  0  0  0  0
    8.6962  -13.3764    0.0000 O   0  0  0  0  0  0  0  0  0  0  0  0
   18.6775  -10.0938    0.0000 C   0  0  2  0  0  0  0  0  0  0  0  0
   19.3914   -9.6839    0.0000 C   0  0  2  0  0  0  0  0  0  0  0  0
   19.3934   -8.8607    0.0000 C   0  0  1  0  0  0  0  0  0  0  0  0
   18.6815   -8.4474    0.0000 C   0  0  2  0  0  0  0  0  0  0  0  0
   17.9676   -8.8572    0.0000 C   0  0  1  0  0  0  0  0  0  0  0  0
   17.9656   -9.6804    0.0000 O   0  0  0  0  0  0  0  0  0  0  0  0
   18.6754  -10.9169    0.0000 C   0  0  0  0  0  0  0  0  0  0  0  0
   20.1073   -8.4509    0.0000 O   0  0  0  0  0  0  0  0  0  0  0  0
   20.1033  -10.0973    0.0000 O   0  0  0  0  0  0  0  0  0  0  0  0
   18.6835   -7.6242    0.0000 O   0  0  0  0  0  0  0  0  0  0  0  0
   19.3873  -11.3303    0.0000 O   0  0  0  0  0  0  0  0  0  0  0  0
   18.6575  -13.3915    0.0000 C   0  0  0  0  0  0  0  0  0  0  0  0
   19.3694  -13.8048    0.0000 C   0  0  2  0  0  0  0  0  0  0  0  0
   20.0833  -13.3949    0.0000 C   0  0  1  0  0  0  0  0  0  0  0  0
   20.0853  -12.5718    0.0000 C   0  0  2  0  0  0  0  0  0  0  0  0
   19.3734  -12.1584    0.0000 C   0  0  1  0  0  0  0  0  0  0  0  0
   18.6595  -12.5683    0.0000 O   0  0  0  0  0  0  0  0  0  0  0  0
   20.7952  -13.8083    0.0000 O   0  0  0  0  0  0  0  0  0  0  0  0
   19.3674  -14.6280    0.0000 O   0  0  0  0  0  0  0  0  0  0  0  0
   20.7992  -12.1619    0.0000 O   0  0  0  0  0  0  0  0  0  0  0  0
  1  2  1  0  0  0  0
  2  3  1  0  0  0  0
  3  4  1  0  0  0  0
  4  5  1  0  0  0  0
  5  6  1  0  0  0  0
  6  7  1  0  0  0  0
  7  8  1  0  0  0  0
  8  9  1  0  0  0  0
  9 10  1  0  0  0  0
 10 11  1  0  0  0  0
 11 12  1  0  0  0  0
 12 13  1  0  0  0  0
 13 14  1  0  0  0  0
 14 15  1  0  0  0  0
 15 16  1  0  0  0  0
 16 17  1  0  0  0  0
 12 17  1  0  0  0  0
 17 18  1  0  0  0  0
  9 18  1  0  0  0  0
 18 19  1  0  0  0  0
 19 20  1  0  0  0  0
 20 21  2  0  0  0  0
  8 21  1  0  0  0  0
 21 22  1  0  0  0  0
  5 22  1  0  0  0  0
  1 22  1  0  0  0  0
 23 24  2  0  0  0  0
 23 25  1  0  0  0  0
  5 23  1  1  0  0  0
 17 26  1  1  0  0  0
 13 27  1  1  0  0  0
  2 28  1  0  0  0  0
  2 29  1  0  0  0  0
 30 31  1  0  0  0  0
 13 30  1  0  0  0  0
 14 32  1  1  0  0  0
 12 33  1  6  0  0  0
 22 34  1  1  0  0  0
  9 35  1  1  0  0  0
  8 36  1  6  0  0  0
 18 37  1  6  0  0  0
 38 39  1  0  0  0  0
 39 40  1  0  0  0  0
 40 41  1  0  0  0  0
 41 42  1  0  0  0  0
 42 43  1  0  0  0  0
 43 38  1  0  0  0  0
 39 44  1  1  0  0  0
 45 46  1  0  0  0  0
 46 47  1  1  0  0  0
 40 47  1  6  0  0  0
 45 48  1  0  0  0  0
 48 49  1  0  0  0  0
 49 50  1  0  0  0  0
 50 51  1  0  0  0  0
 51 46  1  0  0  0  0
 38 52  1  1  0  0  0
 49 53  1  1  0  0  0
 48 54  1  6  0  0  0
 50 55  1  6  0  0  0
 51 56  1  6  0  0  0
 41 32  1  1  0  0  0
 57 58  1  0  0  0  0
 58 59  1  0  0  0  0
 59 60  1  0  0  0  0
 60 61  1  0  0  0  0
 61 62  1  0  0  0  0
 62 57  1  0  0  0  0
 57 63  1  1  0  0  0
 59 64  1  1  0  0  0
 58 65  1  6  0  0  0
 60 66  1  6  0  0  0
 63 67  1  0  0  0  0
 61 25  1  1  0  0  0
 68 69  1  0  0  0  0
 69 70  1  0  0  0  0
 70 71  1  0  0  0  0
 71 72  1  0  0  0  0
 72 73  1  0  0  0  0
 73 68  1  0  0  0  0
 70 74  1  1  0  0  0
 69 75  1  6  0  0  0
 71 76  1  6  0  0  0
 72 67  1  1  0  0  0
M  END
>  <cdx:fragmentId>
5

$$$$
