95670.cdx
  Mrv1902 05222410222D          

 14 14  0  0  0  0            999 V2000
    4.2881   -6.7788    0.0000 C   0  0  0  0  0  0  0  0  0  0  0  0
    4.2881   -7.6037    0.0000 C   0  0  0  0  0  0  0  0  0  0  0  0
    5.7170   -7.6037    0.0000 C   0  0  1  0  0  0  0  0  0  0  0  0
    5.7170   -6.7788    0.0000 C   0  0  0  0  0  0  0  0  0  0  0  0
    5.0025   -6.3662    0.0000 C   0  0  0  0  0  0  0  0  0  0  0  0
    5.0025   -5.5413    0.0000 C   0  0  0  0  0  0  0  0  0  0  0  0
    6.4315   -6.3662    0.0000 C   0  0  0  0  0  0  0  0  0  0  0  0
    6.4315   -5.5412    0.0000 O   0  0  0  0  0  0  0  0  0  0  0  0
    6.3004   -8.1871    0.0000 C   0  0  2  0  0  0  0  0  0  0  0  0
    6.0868   -8.9840    0.0000 C   0  0  0  0  0  0  0  0  0  0  0  0
    7.0972   -7.9736    0.0000 C   0  0  0  0  0  0  0  0  0  0  0  0
    6.8837   -8.7705    0.0000 H   0  0  0  0  0  0  0  0  0  0  0  0
    7.6806   -8.5570    0.0000 O   0  0  0  0  0  0  0  0  0  0  0  0
    5.5035   -8.4006    0.0000 H   0  0  0  0  0  0  0  0  0  0  0  0
  1  2  1  0  0  0  0
  3  4  1  0  0  0  0
  4  5  2  0  0  0  0
  5  1  1  0  0  0  0
  2  3  1  0  0  0  0
  5  6  1  0  0  0  0
  4  7  1  0  0  0  0
  7  8  2  0  0  0  0
  3  9  1  0  0  0  0
  9 10  1  1  0  0  0
  9 11  1  0  0  0  0
  9 12  1  6  0  0  0
 11 13  2  0  0  0  0
  3 14  1  6  0  0  0
M  END
>  <cdx:fragmentId>
5

$$$$
