95677.cdx
  Mrv1902 05222410212D          

 43 47  0  0  0  0            999 V2000
    3.5181   -6.9438    0.0000 C   0  0  0  0  0  0  0  0  0  0  0  0
    3.5181   -7.7687    0.0000 C   0  0  0  0  0  0  0  0  0  0  0  0
    4.2325   -8.1813    0.0000 C   0  0  0  0  0  0  0  0  0  0  0  0
    4.9470   -7.7687    0.0000 C   0  0  0  0  0  0  0  0  0  0  0  0
    4.9470   -6.9438    0.0000 C   0  0  0  0  0  0  0  0  0  0  0  0
    4.2325   -6.5313    0.0000 C   0  0  0  0  0  0  0  0  0  0  0  0
    5.6615   -8.1813    0.0000 C   0  0  0  0  0  0  0  0  0  0  0  0
    6.3759   -7.7687    0.0000 C   0  0  0  0  0  0  0  0  0  0  0  0
    6.3759   -6.9438    0.0000 C   0  0  0  0  0  0  0  0  0  0  0  0
    5.6615   -6.5313    0.0000 O   0  0  0  0  0  0  0  0  0  0  0  0
    7.0904   -8.1813    0.0000 O   0  0  0  0  0  0  0  0  0  0  0  0
    7.8049   -6.9438    0.0000 C   0  0  0  0  0  0  0  0  0  0  0  0
    7.0904   -6.5313    0.0000 C   0  0  0  0  0  0  0  0  0  0  0  0
    8.5194   -6.5313    0.0000 C   0  0  0  0  0  0  0  0  0  0  0  0
    8.5194   -5.7062    0.0000 C   0  0  0  0  0  0  0  0  0  0  0  0
    7.8049   -5.2938    0.0000 C   0  0  0  0  0  0  0  0  0  0  0  0
    7.0904   -5.7062    0.0000 C   0  0  0  0  0  0  0  0  0  0  0  0
    2.8036   -6.5313    0.0000 O   0  0  0  0  0  0  0  0  0  0  0  0
    4.2325   -9.0062    0.0000 O   0  0  0  0  0  0  0  0  0  0  0  0
    5.6615   -9.0062    0.0000 O   0  0  0  0  0  0  0  0  0  0  0  0
    7.8049   -4.4688    0.0000 O   0  0  0  0  0  0  0  0  0  0  0  0
    9.2338   -5.2938    0.0000 O   0  0  0  0  0  0  0  0  0  0  0  0
    8.5194   -4.0563    0.0000 C   0  0  0  0  0  0  0  0  0  0  0  0
    7.0904   -9.0062    0.0000 C   0  0  0  0  0  0  0  0  0  0  0  0
    6.3759   -9.4187    0.0000 O   0  0  0  0  0  0  0  0  0  0  0  0
    6.3759  -10.2437    0.0000 C   0  0  0  0  0  0  0  0  0  0  0  0
    7.0904  -10.6563    0.0000 C   0  0  0  0  0  0  0  0  0  0  0  0
    7.8049  -10.2437    0.0000 C   0  0  0  0  0  0  0  0  0  0  0  0
    7.8049   -9.4187    0.0000 C   0  0  0  0  0  0  0  0  0  0  0  0
    5.6615  -10.6563    0.0000 C   0  0  0  0  0  0  0  0  0  0  0  0
    8.5194  -10.6563    0.0000 O   0  0  0  0  0  0  0  0  0  0  0  0
    8.5194   -9.0062    0.0000 O   0  0  0  0  0  0  0  0  0  0  0  0
    7.0904  -11.4813    0.0000 O   0  0  0  0  0  0  0  0  0  0  0  0
    5.6615  -11.4813    0.0000 O   0  0  0  0  0  0  0  0  0  0  0  0
    9.2338   -9.4187    0.0000 C   0  0  2  0  0  0  0  0  0  0  0  0
    9.3201  -10.2392    0.0000 O   0  0  0  0  0  0  0  0  0  0  0  0
   10.1270  -10.4108    0.0000 C   0  0  0  0  0  0  0  0  0  0  0  0
   10.5395   -9.6963    0.0000 C   0  0  1  0  0  0  0  0  0  0  0  0
    9.9875   -9.0832    0.0000 C   0  0  1  0  0  0  0  0  0  0  0  0
   11.1229  -10.2796    0.0000 C   0  0  0  0  0  0  0  0  0  0  0  0
   10.1590   -8.2762    0.0000 O   0  0  0  0  0  0  0  0  0  0  0  0
   11.3364   -9.4828    0.0000 O   0  0  0  0  0  0  0  0  0  0  0  0
   11.9198  -10.0661    0.0000 O   0  0  0  0  0  0  0  0  0  0  0  0
  1  2  2  0  0  0  0
  2  3  1  0  0  0  0
  3  4  2  0  0  0  0
  4  5  1  0  0  0  0
  5  6  2  0  0  0  0
  6  1  1  0  0  0  0
  4  7  1  0  0  0  0
  7  8  1  0  0  0  0
  8  9  2  0  0  0  0
  9 10  1  0  0  0  0
 10  5  1  0  0  0  0
  8 11  1  0  0  0  0
 12 13  2  0  0  0  0
 13  9  1  0  0  0  0
 12 14  1  0  0  0  0
 14 15  2  0  0  0  0
 15 16  1  0  0  0  0
 16 17  2  0  0  0  0
 17 13  1  0  0  0  0
  1 18  1  0  0  0  0
  3 19  1  0  0  0  0
  7 20  2  0  0  0  0
 16 21  1  0  0  0  0
 15 22  1  0  0  0  0
 21 23  1  0  0  0  0
 11 24  1  0  0  0  0
 24 25  1  0  0  0  0
 25 26  1  0  0  0  0
 26 27  1  0  0  0  0
 27 28  1  0  0  0  0
 28 29  1  0  0  0  0
 29 24  1  0  0  0  0
 26 30  1  0  0  0  0
 28 31  1  0  0  0  0
 29 32  1  0  0  0  0
 27 33  1  0  0  0  0
 30 34  1  0  0  0  0
 35 32  1  1  0  0  0
 35 36  1  0  0  0  0
 36 37  1  0  0  0  0
 37 38  1  0  0  0  0
 38 39  1  0  0  0  0
 39 35  1  0  0  0  0
 38 40  1  0  0  0  0
 39 41  1  6  0  0  0
 38 42  1  6  0  0  0
 40 43  1  0  0  0  0
M  END
>  <cdx:fragmentId>
5

$$$$
