95675.cdx
  Mrv1902 05222410202D          

 28 30  0  0  0  0            999 V2000
    7.5773   -8.2104    0.0000 C   0  0  1  0  0  0  0  0  0  0  0  0
    8.2918   -7.7979    0.0000 C   0  0  1  0  0  0  0  0  0  0  0  0
    8.2918   -6.9729    0.0000 C   0  0  1  0  0  0  0  0  0  0  0  0
    7.5773   -6.5604    0.0000 C   0  0  0  0  0  0  0  0  0  0  0  0
    6.8628   -6.9729    0.0000 C   0  0  0  0  0  0  0  0  0  0  0  0
    6.8628   -7.7979    0.0000 O   0  0  0  0  0  0  0  0  0  0  0  0
    9.0764   -6.7179    0.0000 C   0  0  0  0  0  0  0  0  0  0  0  0
    9.5613   -7.3854    0.0000 C   0  0  1  0  0  0  0  0  0  0  0  0
    9.0764   -8.0528    0.0000 C   0  0  1  0  0  0  0  0  0  0  0  0
    7.5773   -5.7354    0.0000 C   0  0  0  0  0  0  0  0  0  0  0  0
    8.2918   -5.3229    0.0000 O   0  0  0  0  0  0  0  0  0  0  0  0
    6.8628   -5.3229    0.0000 O   0  0  0  0  0  0  0  0  0  0  0  0
    7.5773   -9.0354    0.0000 O   0  0  0  0  0  0  0  0  0  0  0  0
    6.1484   -9.0354    0.0000 O   0  0  0  0  0  0  0  0  0  0  0  0
    6.8628   -9.4479    0.0000 C   0  0  2  0  0  0  0  0  0  0  0  0
    6.8628  -10.2729    0.0000 C   0  0  1  0  0  0  0  0  0  0  0  0
    6.1484  -10.6854    0.0000 C   0  0  2  0  0  0  0  0  0  0  0  0
    5.4339  -10.2729    0.0000 C   0  0  1  0  0  0  0  0  0  0  0  0
    5.4339   -9.4479    0.0000 C   0  0  1  0  0  0  0  0  0  0  0  0
    4.7194   -9.0354    0.0000 C   0  0  0  0  0  0  0  0  0  0  0  0
    4.0050   -9.4479    0.0000 O   0  0  0  0  0  0  0  0  0  0  0  0
    4.7194  -10.6854    0.0000 O   0  0  0  0  0  0  0  0  0  0  0  0
    6.1484  -11.5104    0.0000 O   0  0  0  0  0  0  0  0  0  0  0  0
    7.5773  -10.6854    0.0000 O   0  0  0  0  0  0  0  0  0  0  0  0
    9.3314   -8.8374    0.0000 C   0  0  0  0  0  0  0  0  0  0  0  0
   10.3863   -7.3854    0.0000 O   0  0  0  0  0  0  0  0  0  0  0  0
    8.3780   -6.1524    0.0000 H   0  0  0  0  0  0  0  0  0  0  0  0
    8.3780   -8.6183    0.0000 H   0  0  0  0  0  0  0  0  0  0  0  0
  1  2  1  0  0  0  0
  2  3  1  0  0  0  0
  3  4  1  0  0  0  0
  4  5  2  0  0  0  0
  5  6  1  0  0  0  0
  1  6  1  0  0  0  0
  7  8  1  0  0  0  0
  8  9  1  0  0  0  0
  9  2  1  0  0  0  0
  7  3  1  0  0  0  0
 10 11  2  0  0  0  0
 10 12  1  0  0  0  0
  4 10  1  0  0  0  0
 14 15  1  0  0  0  0
 15 16  1  0  0  0  0
 16 17  1  0  0  0  0
 17 18  1  0  0  0  0
 18 19  1  0  0  0  0
 14 19  1  0  0  0  0
 20 21  1  0  0  0  0
 19 20  1  1  0  0  0
 18 22  1  6  0  0  0
 17 23  1  1  0  0  0
 16 24  1  6  0  0  0
 15 13  1  1  0  0  0
  1 13  1  6  0  0  0
  9 25  1  1  0  0  0
  8 26  1  6  0  0  0
  3 27  1  6  0  0  0
  2 28  1  6  0  0  0
M  END
>  <cdx:groupId>
88

>  <cdx:fragmentId>
5

$$$$
