95676.cdx
  Mrv1902 05222410212D          

 55 60  0  0  0  0            999 V2000
    6.5156   -6.8062    0.0000 C   0  0  0  0  0  0  0  0  0  0  0  0
    6.5156   -7.6313    0.0000 C   0  0  0  0  0  0  0  0  0  0  0  0
    7.2300   -8.0437    0.0000 C   0  0  0  0  0  0  0  0  0  0  0  0
    7.9445   -7.6313    0.0000 C   0  0  0  0  0  0  0  0  0  0  0  0
    7.9445   -6.8062    0.0000 C   0  0  0  0  0  0  0  0  0  0  0  0
    7.2300   -6.3937    0.0000 C   0  0  0  0  0  0  0  0  0  0  0  0
    8.6590   -8.0437    0.0000 C   0  0  0  0  0  0  0  0  0  0  0  0
    9.3734   -7.6313    0.0000 C   0  0  0  0  0  0  0  0  0  0  0  0
    9.3734   -6.8062    0.0000 C   0  0  0  0  0  0  0  0  0  0  0  0
    8.6590   -6.3937    0.0000 O   0  0  0  0  0  0  0  0  0  0  0  0
   10.0879   -8.0437    0.0000 O   0  0  0  0  0  0  0  0  0  0  0  0
   10.8024   -6.8062    0.0000 C   0  0  0  0  0  0  0  0  0  0  0  0
   10.0879   -6.3937    0.0000 C   0  0  0  0  0  0  0  0  0  0  0  0
   11.5169   -6.3937    0.0000 C   0  0  0  0  0  0  0  0  0  0  0  0
   11.5169   -5.5687    0.0000 C   0  0  0  0  0  0  0  0  0  0  0  0
   10.8024   -5.1563    0.0000 C   0  0  0  0  0  0  0  0  0  0  0  0
   10.0879   -5.5687    0.0000 C   0  0  0  0  0  0  0  0  0  0  0  0
    5.8011   -6.3937    0.0000 O   0  0  0  0  0  0  0  0  0  0  0  0
    7.2300   -8.8688    0.0000 O   0  0  0  0  0  0  0  0  0  0  0  0
    8.6590   -8.8688    0.0000 O   0  0  0  0  0  0  0  0  0  0  0  0
   10.8024   -4.3313    0.0000 O   0  0  0  0  0  0  0  0  0  0  0  0
   12.2313   -5.1563    0.0000 O   0  0  0  0  0  0  0  0  0  0  0  0
   11.5169   -3.9188    0.0000 C   0  0  0  0  0  0  0  0  0  0  0  0
   10.0879   -8.8688    0.0000 C   0  0  0  0  0  0  0  0  0  0  0  0
    9.3734   -9.2813    0.0000 O   0  0  0  0  0  0  0  0  0  0  0  0
    9.3734  -10.1063    0.0000 C   0  0  0  0  0  0  0  0  0  0  0  0
   10.0879  -10.5188    0.0000 C   0  0  0  0  0  0  0  0  0  0  0  0
   10.8024  -10.1063    0.0000 C   0  0  0  0  0  0  0  0  0  0  0  0
   10.8024   -9.2813    0.0000 C   0  0  0  0  0  0  0  0  0  0  0  0
    8.6590  -10.5188    0.0000 C   0  0  0  0  0  0  0  0  0  0  0  0
   11.5169  -10.5188    0.0000 O   0  0  0  0  0  0  0  0  0  0  0  0
   11.5169   -8.8688    0.0000 O   0  0  0  0  0  0  0  0  0  0  0  0
   10.0879  -11.3438    0.0000 O   0  0  0  0  0  0  0  0  0  0  0  0
    8.6590  -11.3438    0.0000 O   0  0  0  0  0  0  0  0  0  0  0  0
    7.9445  -11.7562    0.0000 C   0  0  2  0  0  0  0  0  0  0  0  0
    7.2300  -11.3438    0.0000 O   0  0  0  0  0  0  0  0  0  0  0  0
    6.5156  -11.7562    0.0000 C   0  0  2  0  0  0  0  0  0  0  0  0
    6.5156  -12.5812    0.0000 C   0  0  1  0  0  0  0  0  0  0  0  0
    7.2300  -12.9937    0.0000 C   0  0  2  0  0  0  0  0  0  0  0  0
    7.9445  -12.5812    0.0000 C   0  0  1  0  0  0  0  0  0  0  0  0
    5.8011  -12.9937    0.0000 O   0  0  0  0  0  0  0  0  0  0  0  0
    5.8011  -11.3438    0.0000 C   0  0  0  0  0  0  0  0  0  0  0  0
    7.2300  -13.8187    0.0000 O   0  0  0  0  0  0  0  0  0  0  0  0
    8.6590  -12.9937    0.0000 O   0  0  0  0  0  0  0  0  0  0  0  0
    5.0866   -6.8062    0.0000 C   0  0  2  0  0  0  0  0  0  0  0  0
    4.3721   -6.3937    0.0000 O   0  0  0  0  0  0  0  0  0  0  0  0
    3.6577   -6.8062    0.0000 C   0  0  1  0  0  0  0  0  0  0  0  0
    3.6577   -7.6312    0.0000 C   0  0  2  0  0  0  0  0  0  0  0  0
    4.3721   -8.0437    0.0000 C   0  0  1  0  0  0  0  0  0  0  0  0
    5.0866   -7.6312    0.0000 C   0  0  1  0  0  0  0  0  0  0  0  0
    2.9432   -6.3937    0.0000 C   0  0  0  0  0  0  0  0  0  0  0  0
    4.3721   -8.8688    0.0000 O   0  0  0  0  0  0  0  0  0  0  0  0
    5.8011   -8.0437    0.0000 O   0  0  0  0  0  0  0  0  0  0  0  0
    2.9432   -8.0437    0.0000 O   0  0  0  0  0  0  0  0  0  0  0  0
    2.2287   -6.8062    0.0000 O   0  0  0  0  0  0  0  0  0  0  0  0
  1  2  2  0  0  0  0
  2  3  1  0  0  0  0
  3  4  2  0  0  0  0
  4  5  1  0  0  0  0
  5  6  2  0  0  0  0
  6  1  1  0  0  0  0
  4  7  1  0  0  0  0
  7  8  1  0  0  0  0
  8  9  2  0  0  0  0
  9 10  1  0  0  0  0
 10  5  1  0  0  0  0
  8 11  1  0  0  0  0
 12 13  2  0  0  0  0
 13  9  1  0  0  0  0
 12 14  1  0  0  0  0
 14 15  2  0  0  0  0
 15 16  1  0  0  0  0
 16 17  2  0  0  0  0
 17 13  1  0  0  0  0
  1 18  1  0  0  0  0
  3 19  1  0  0  0  0
  7 20  2  0  0  0  0
 16 21  1  0  0  0  0
 15 22  1  0  0  0  0
 21 23  1  0  0  0  0
 11 24  1  0  0  0  0
 24 25  1  0  0  0  0
 25 26  1  0  0  0  0
 26 27  1  0  0  0  0
 27 28  1  0  0  0  0
 28 29  1  0  0  0  0
 29 24  1  0  0  0  0
 26 30  1  0  0  0  0
 28 31  1  0  0  0  0
 29 32  1  0  0  0  0
 27 33  1  0  0  0  0
 30 34  1  0  0  0  0
 35 34  1  1  0  0  0
 35 36  1  0  0  0  0
 36 37  1  0  0  0  0
 37 38  1  0  0  0  0
 38 39  1  0  0  0  0
 39 40  1  0  0  0  0
 40 35  1  0  0  0  0
 38 41  1  1  0  0  0
 37 42  1  6  0  0  0
 39 43  1  6  0  0  0
 40 44  1  6  0  0  0
 45 18  1  1  0  0  0
 45 46  1  0  0  0  0
 46 47  1  0  0  0  0
 47 48  1  0  0  0  0
 48 49  1  0  0  0  0
 49 50  1  0  0  0  0
 50 45  1  0  0  0  0
 47 51  1  1  0  0  0
 49 52  1  1  0  0  0
 50 53  1  6  0  0  0
 48 54  1  6  0  0  0
 51 55  1  0  0  0  0
M  END
>  <cdx:fragmentId>
5

$$$$
