95673.cdx
  Mrv1902 05222410222D          

 67 74  0  0  0  0            999 V2000
   15.0961   -7.3162    0.0000 C   0  0  0  0  0  0  0  0  0  0  0  0
   15.8090   -6.9046    0.0000 C   0  0  0  0  0  0  0  0  0  0  0  0
   16.5219   -7.3162    0.0000 C   0  0  0  0  0  0  0  0  0  0  0  0
   16.5219   -8.1394    0.0000 C   0  0  0  0  0  0  0  0  0  0  0  0
   15.8090   -8.5510    0.0000 C   0  0  2  0  0  0  0  0  0  0  0  0
   15.8090   -9.3742    0.0000 C   0  0  0  0  0  0  0  0  0  0  0  0
   15.0961   -9.7858    0.0000 C   0  0  0  0  0  0  0  0  0  0  0  0
   14.3832   -9.3742    0.0000 C   0  0  1  0  0  0  0  0  0  0  0  0
   13.6703   -9.7858    0.0000 C   0  0  2  0  0  0  0  0  0  0  0  0
   13.6703  -10.6089    0.0000 C   0  0  0  0  0  0  0  0  0  0  0  0
   12.9574  -11.0205    0.0000 C   0  0  0  0  0  0  0  0  0  0  0  0
   12.2445  -10.6089    0.0000 C   0  0  1  0  0  0  0  0  0  0  0  0
   11.5316  -11.0205    0.0000 C   0  0  2  0  0  0  0  0  0  0  0  0
   10.8187  -10.6089    0.0000 C   0  0  2  0  0  0  0  0  0  0  0  0
   10.8187   -9.7858    0.0000 C   0  0  0  0  0  0  0  0  0  0  0  0
   11.5316   -9.3742    0.0000 C   0  0  0  0  0  0  0  0  0  0  0  0
   12.2445   -9.7858    0.0000 C   0  0  2  0  0  0  0  0  0  0  0  0
   12.9574   -9.3742    0.0000 C   0  0  1  0  0  0  0  0  0  0  0  0
   12.9574   -8.5510    0.0000 C   0  0  0  0  0  0  0  0  0  0  0  0
   13.6703   -8.1394    0.0000 C   0  0  0  0  0  0  0  0  0  0  0  0
   14.3832   -8.5510    0.0000 C   0  0  0  0  0  0  0  0  0  0  0  0
   15.0961   -8.1394    0.0000 C   0  0  2  0  0  0  0  0  0  0  0  0
   16.5219   -8.9626    0.0000 C   0  0  0  0  0  0  0  0  0  0  0  0
   16.5219   -9.7858    0.0000 O   0  0  0  0  0  0  0  0  0  0  0  0
   17.2348   -8.5510    0.0000 O   0  0  0  0  0  0  0  0  0  0  0  0
   12.2445   -8.9626    0.0000 C   0  0  0  0  0  0  0  0  0  0  0  0
   11.1200  -11.7334    0.0000 C   0  0  0  0  0  0  0  0  0  0  0  0
   15.3974   -6.1917    0.0000 C   0  0  0  0  0  0  0  0  0  0  0  0
   16.2206   -6.1917    0.0000 C   0  0  0  0  0  0  0  0  0  0  0  0
   11.9432  -11.7334    0.0000 C   0  0  0  0  0  0  0  0  0  0  0  0
   11.5316  -12.4463    0.0000 O   0  0  0  0  0  0  0  0  0  0  0  0
   10.1058  -11.0205    0.0000 O   0  0  0  0  0  0  0  0  0  0  0  0
   12.2445  -11.4321    0.0000 H   0  0  0  0  0  0  0  0  0  0  0  0
   14.3816   -7.7269    0.0000 H   0  0  0  0  0  0  0  0  0  0  0  0
   13.6703   -8.9608    0.0000 C   0  0  0  0  0  0  0  0  0  0  0  0
   14.3832  -10.1992    0.0000 C   0  0  0  0  0  0  0  0  0  0  0  0
   12.9574  -10.1992    0.0000 H   0  0  0  0  0  0  0  0  0  0  0  0
    7.9715   -9.7821    0.0000 C   0  0  2  0  0  0  0  0  0  0  0  0
    7.9715  -10.6052    0.0000 C   0  0  1  0  0  0  0  0  0  0  0  0
    8.6844  -11.0168    0.0000 C   0  0  2  0  0  0  0  0  0  0  0  0
    9.3973  -10.6052    0.0000 C   0  0  1  0  0  0  0  0  0  0  0  0
    9.3973   -9.7821    0.0000 O   0  0  0  0  0  0  0  0  0  0  0  0
    8.6844   -9.3705    0.0000 C   0  0  0  0  0  0  0  0  0  0  0  0
    7.2586  -11.0168    0.0000 O   0  0  0  0  0  0  0  0  0  0  0  0
    7.2586  -11.8400    0.0000 O   0  0  0  0  0  0  0  0  0  0  0  0
    7.9715  -12.2516    0.0000 C   0  0  1  0  0  0  0  0  0  0  0  0
    8.6844  -11.8400    0.0000 O   0  0  0  0  0  0  0  0  0  0  0  0
    6.5457  -12.2516    0.0000 C   0  0  2  0  0  0  0  0  0  0  0  0
    6.5457  -13.0748    0.0000 C   0  0  1  0  0  0  0  0  0  0  0  0
    7.2586  -13.4864    0.0000 C   0  0  2  0  0  0  0  0  0  0  0  0
    7.9715  -13.0748    0.0000 C   0  0  1  0  0  0  0  0  0  0  0  0
    7.2586   -9.3705    0.0000 O   0  0  0  0  0  0  0  0  0  0  0  0
    5.8328  -13.4864    0.0000 O   0  0  0  0  0  0  0  0  0  0  0  0
    5.8328  -11.8400    0.0000 C   0  0  0  0  0  0  0  0  0  0  0  0
    7.2586  -14.3096    0.0000 O   0  0  0  0  0  0  0  0  0  0  0  0
    8.6844  -13.4864    0.0000 O   0  0  0  0  0  0  0  0  0  0  0  0
   18.6657  -10.2038    0.0000 C   0  0  2  0  0  0  0  0  0  0  0  0
   19.3796   -9.7939    0.0000 C   0  0  2  0  0  0  0  0  0  0  0  0
   19.3816   -8.9707    0.0000 C   0  0  1  0  0  0  0  0  0  0  0  0
   18.6697   -8.5574    0.0000 C   0  0  2  0  0  0  0  0  0  0  0  0
   17.9558   -8.9672    0.0000 C   0  0  1  0  0  0  0  0  0  0  0  0
   17.9538   -9.7904    0.0000 O   0  0  0  0  0  0  0  0  0  0  0  0
   18.6636  -11.0269    0.0000 C   0  0  0  0  0  0  0  0  0  0  0  0
   20.0955   -8.5609    0.0000 O   0  0  0  0  0  0  0  0  0  0  0  0
   20.0914  -10.2073    0.0000 O   0  0  0  0  0  0  0  0  0  0  0  0
   18.6717   -7.7342    0.0000 O   0  0  0  0  0  0  0  0  0  0  0  0
   19.3755  -11.4403    0.0000 O   0  0  0  0  0  0  0  0  0  0  0  0
  1  2  1  0  0  0  0
  2  3  1  0  0  0  0
  3  4  1  0  0  0  0
  4  5  1  0  0  0  0
  5  6  1  0  0  0  0
  6  7  1  0  0  0  0
  7  8  1  0  0  0  0
  8  9  1  0  0  0  0
  9 10  1  0  0  0  0
 10 11  1  0  0  0  0
 11 12  1  0  0  0  0
 12 13  1  0  0  0  0
 13 14  1  0  0  0  0
 14 15  1  0  0  0  0
 15 16  1  0  0  0  0
 16 17  1  0  0  0  0
 12 17  1  0  0  0  0
 17 18  1  0  0  0  0
  9 18  1  0  0  0  0
 18 19  1  0  0  0  0
 19 20  1  0  0  0  0
 20 21  2  0  0  0  0
  8 21  1  0  0  0  0
 21 22  1  0  0  0  0
  5 22  1  0  0  0  0
  1 22  1  0  0  0  0
 23 24  2  0  0  0  0
 23 25  1  0  0  0  0
  5 23  1  1  0  0  0
 17 26  1  1  0  0  0
 13 27  1  1  0  0  0
  2 28  1  0  0  0  0
  2 29  1  0  0  0  0
 30 31  1  0  0  0  0
 13 30  1  0  0  0  0
 14 32  1  1  0  0  0
 12 33  1  6  0  0  0
 22 34  1  1  0  0  0
  9 35  1  1  0  0  0
  8 36  1  6  0  0  0
 18 37  1  6  0  0  0
 38 39  1  0  0  0  0
 39 40  1  0  0  0  0
 40 41  1  0  0  0  0
 41 42  1  0  0  0  0
 42 43  1  0  0  0  0
 43 38  1  0  0  0  0
 39 44  1  1  0  0  0
 45 46  1  0  0  0  0
 46 47  1  1  0  0  0
 40 47  1  6  0  0  0
 45 48  1  0  0  0  0
 48 49  1  0  0  0  0
 49 50  1  0  0  0  0
 50 51  1  0  0  0  0
 51 46  1  0  0  0  0
 38 52  1  1  0  0  0
 49 53  1  1  0  0  0
 48 54  1  6  0  0  0
 50 55  1  6  0  0  0
 51 56  1  6  0  0  0
 41 32  1  1  0  0  0
 57 58  1  0  0  0  0
 58 59  1  0  0  0  0
 59 60  1  0  0  0  0
 60 61  1  0  0  0  0
 61 62  1  0  0  0  0
 62 57  1  0  0  0  0
 57 63  1  1  0  0  0
 59 64  1  1  0  0  0
 58 65  1  6  0  0  0
 60 66  1  6  0  0  0
 63 67  1  0  0  0  0
 61 25  1  1  0  0  0
M  END
>  <cdx:fragmentId>
5

$$$$
