95681.cdx
  Mrv1902 05222410242D          

 29 34  0  0  0  0            999 V2000
    3.9443   -7.7825    0.0000 C   0  0  0  0  0  0  0  0  0  0  0  0
    3.9443   -8.6075    0.0000 C   0  0  0  0  0  0  0  0  0  0  0  0
    4.6588   -9.0200    0.0000 C   0  0  0  0  0  0  0  0  0  0  0  0
    5.3732   -8.6075    0.0000 C   0  0  0  0  0  0  0  0  0  0  0  0
    5.3732   -7.7825    0.0000 C   0  0  0  0  0  0  0  0  0  0  0  0
    4.6588   -7.3700    0.0000 C   0  0  0  0  0  0  0  0  0  0  0  0
    6.0877   -9.0200    0.0000 C   0  0  0  0  0  0  0  0  0  0  0  0
    6.8022   -8.6075    0.0000 N   0  0  0  0  0  0  0  0  0  0  0  0
    6.8022   -7.7825    0.0000 C   0  0  0  0  0  0  0  0  0  0  0  0
    6.0877   -7.3700    0.0000 C   0  0  0  0  0  0  0  0  0  0  0  0
    7.5167   -7.3700    0.0000 C   0  0  0  0  0  0  0  0  0  0  0  0
    7.5167   -6.5450    0.0000 C   0  0  0  0  0  0  0  0  0  0  0  0
    6.8022   -6.1325    0.0000 C   0  0  0  0  0  0  0  0  0  0  0  0
    6.0877   -6.5450    0.0000 C   0  0  0  0  0  0  0  0  0  0  0  0
    8.2311   -7.7825    0.0000 C   0  0  0  0  0  0  0  0  0  0  0  0
    8.9456   -7.3700    0.0000 C   0  0  0  0  0  0  0  0  0  0  0  0
    8.9456   -6.5450    0.0000 C   0  0  0  0  0  0  0  0  0  0  0  0
    8.2311   -6.1325    0.0000 C   0  0  0  0  0  0  0  0  0  0  0  0
    9.7302   -7.6249    0.0000 O   0  0  0  0  0  0  0  0  0  0  0  0
   10.2151   -6.9575    0.0000 C   0  0  0  0  0  0  0  0  0  0  0  0
    9.7302   -6.2901    0.0000 O   0  0  0  0  0  0  0  0  0  0  0  0
    7.5167   -9.0200    0.0000 C   0  0  0  0  0  0  0  0  0  0  0  0
    3.3312   -9.1595    0.0000 O   0  0  0  0  0  0  0  0  0  0  0  0
    3.6668   -9.9132    0.0000 C   0  0  0  0  0  0  0  0  0  0  0  0
    4.4872   -9.8270    0.0000 O   0  0  0  0  0  0  0  0  0  0  0  0
    6.0877   -9.8450    0.0000 C   0  0  0  0  0  0  0  0  0  0  0  0
    6.8022  -11.0825    0.0000 O   0  0  0  0  0  0  0  0  0  0  0  0
    7.5167   -9.8450    0.0000 C   0  0  0  0  0  0  0  0  0  0  0  0
    6.8022  -10.2575    0.0000 C   0  0  0  0  0  0  0  0  0  0  0  0
  1  2  2  0  0  0  0
  2  3  1  0  0  0  0
  3  4  2  0  0  0  0
  4  5  1  0  0  0  0
  5  6  2  0  0  0  0
  6  1  1  0  0  0  0
  4  7  1  0  0  0  0
  7  8  1  0  0  0  0
  8  9  1  0  0  0  0
  9 10  2  0  0  0  0
 10  5  1  0  0  0  0
  9 11  1  0  0  0  0
 11 12  2  0  0  0  0
 12 13  1  0  0  0  0
 13 14  2  0  0  0  0
 14 10  1  0  0  0  0
 11 15  1  0  0  0  0
 15 16  2  0  0  0  0
 16 17  1  0  0  0  0
 17 18  2  0  0  0  0
 18 12  1  0  0  0  0
 16 19  1  0  0  0  0
 19 20  1  0  0  0  0
 20 21  1  0  0  0  0
 21 17  1  0  0  0  0
  8 22  1  0  0  0  0
  2 23  1  0  0  0  0
 23 24  1  0  0  0  0
 24 25  1  0  0  0  0
 25  3  1  0  0  0  0
  7 26  2  0  0  0  0
 29 27  2  0  0  0  0
 26 29  1  0  0  0  0
 29 28  1  0  0  0  0
M  END
>  <cdx:fragmentId>
5

$$$$
