95682.cdx
  Mrv1902 05222410242D          

 13 14  0  0  0  0            999 V2000
    2.3401   -3.2323    0.0000 C   0  0  0  0  0  0  0  0  0  0  0  0
    1.6256   -2.8198    0.0000 C   0  0  0  0  0  0  0  0  0  0  0  0
    0.9111   -3.2323    0.0000 C   0  0  0  0  0  0  0  0  0  0  0  0
    2.3401   -4.0573    0.0000 O   0  0  0  0  0  0  0  0  0  0  0  0
    5.2681   -1.7399    0.0000 O   0  0  0  0  0  0  0  0  0  0  0  0
    5.7530   -2.4073    0.0000 C   0  0  0  0  0  0  0  0  0  0  0  0
    5.2681   -3.0748    0.0000 O   0  0  0  0  0  0  0  0  0  0  0  0
    4.4835   -2.8198    0.0000 C   0  0  0  0  0  0  0  0  0  0  0  0
    4.4835   -1.9948    0.0000 C   0  0  0  0  0  0  0  0  0  0  0  0
    3.7690   -3.2323    0.0000 C   0  0  0  0  0  0  0  0  0  0  0  0
    3.0545   -2.8198    0.0000 C   0  0  0  0  0  0  0  0  0  0  0  0
    3.0545   -1.9948    0.0000 C   0  0  0  0  0  0  0  0  0  0  0  0
    3.7690   -1.5823    0.0000 C   0  0  0  0  0  0  0  0  0  0  0  0
  1  2  1  0  0  0  0
  2  3  1  0  0  0  0
  1  4  2  0  0  0  0
  5  6  1  0  0  0  0
  6  7  1  0  0  0  0
  7  8  1  0  0  0  0
  8  9  1  0  0  0  0
  5  9  1  0  0  0  0
 10 11  1  0  0  0  0
 11 12  2  0  0  0  0
 12 13  1  0  0  0  0
 13  9  2  0  0  0  0
 10  8  2  0  0  0  0
  1 11  1  0  0  0  0
M  END
>  <cdx:groupId>
42

>  <cdx:fragmentId>
13

$$$$
