95687.cdx
  Mrv1902 05222410262D          

 55 60  0  0  0  0            999 V2000
    4.3080   -5.6804    0.0000 O   0  0  0  0  0  0  0  0  0  0  0  0
    2.8790   -3.2054    0.0000 O   0  0  0  0  0  0  0  0  0  0  0  0
    9.3093   -1.9679    0.0000 O   0  0  0  0  0  0  0  0  0  0  0  0
   10.0237   -3.2054    0.0000 C   0  0  0  0  0  0  0  0  0  0  0  0
    9.3093   -3.6179    0.0000 O   0  0  0  0  0  0  0  0  0  0  0  0
    7.1659   -2.3804    0.0000 C   0  0  0  0  0  0  0  0  0  0  0  0
    7.8803   -1.9679    0.0000 C   0  0  0  0  0  0  0  0  0  0  0  0
    8.5948   -2.3804    0.0000 C   0  0  0  0  0  0  0  0  0  0  0  0
    8.5948   -3.2054    0.0000 C   0  0  0  0  0  0  0  0  0  0  0  0
    7.8803   -3.6179    0.0000 C   0  0  0  0  0  0  0  0  0  0  0  0
    7.1659   -3.2054    0.0000 C   0  0  0  0  0  0  0  0  0  0  0  0
    7.1659   -4.8554    0.0000 O   0  0  0  0  0  0  0  0  0  0  0  0
    5.7369   -5.6804    0.0000 O   0  0  0  0  0  0  0  0  0  0  0  0
    5.7369   -3.2054    0.0000 O   0  0  0  0  0  0  0  0  0  0  0  0
    5.0224   -3.6179    0.0000 C   0  0  0  0  0  0  0  0  0  0  0  0
    4.3080   -3.2054    0.0000 C   0  0  0  0  0  0  0  0  0  0  0  0
    3.5935   -3.6179    0.0000 C   0  0  0  0  0  0  0  0  0  0  0  0
    3.5935   -4.4429    0.0000 C   0  0  0  0  0  0  0  0  0  0  0  0
    4.3080   -4.8554    0.0000 C   0  0  0  0  0  0  0  0  0  0  0  0
    5.0224   -4.4429    0.0000 C   0  0  0  0  0  0  0  0  0  0  0  0
    5.7369   -4.8554    0.0000 C   0  0  0  0  0  0  0  0  0  0  0  0
    6.4514   -4.4429    0.0000 C   0  0  0  0  0  0  0  0  0  0  0  0
    6.4514   -3.6179    0.0000 C   0  0  0  0  0  0  0  0  0  0  0  0
    6.4575   -6.9171    0.0000 C   0  0  1  0  0  0  0  0  0  0  0  0
    7.1716   -7.3304    0.0000 C   0  0  1  0  0  0  0  0  0  0  0  0
    7.8865   -6.9187    0.0000 C   0  0  2  0  0  0  0  0  0  0  0  0
    7.8874   -6.0937    0.0000 C   0  0  2  0  0  0  0  0  0  0  0  0
    7.1734   -5.6804    0.0000 C   0  0  1  0  0  0  0  0  0  0  0  0
    6.4584   -6.0921    0.0000 O   0  0  0  0  0  0  0  0  0  0  0  0
    7.1707   -8.1554    0.0000 O   0  0  0  0  0  0  0  0  0  0  0  0
    5.7426   -7.3289    0.0000 C   0  0  0  0  0  0  0  0  0  0  0  0
    8.6005   -7.3319    0.0000 O   0  0  0  0  0  0  0  0  0  0  0  0
    8.6023   -5.6819    0.0000 O   0  0  0  0  0  0  0  0  0  0  0  0
   10.0195   -4.8536    0.0000 O   0  0  0  0  0  0  0  0  0  0  0  0
   11.4547   -5.6676    0.0000 O   0  0  0  0  0  0  0  0  0  0  0  0
   11.4674   -7.3176    0.0000 O   0  0  0  0  0  0  0  0  0  0  0  0
    9.3335   -8.5715    0.0000 O   0  0  0  0  0  0  0  0  0  0  0  0
   10.0448   -8.1535    0.0000 C   0  0  0  0  0  0  0  0  0  0  0  0
   10.0385   -7.3285    0.0000 C   0  0  2  0  0  0  0  0  0  0  0  0
   10.7498   -6.9106    0.0000 C   0  0  2  0  0  0  0  0  0  0  0  0
   10.7434   -6.0856    0.0000 C   0  0  1  0  0  0  0  0  0  0  0  0
   10.0258   -5.6786    0.0000 C   0  0  2  0  0  0  0  0  0  0  0  0
    9.3145   -6.0966    0.0000 C   0  0  1  0  0  0  0  0  0  0  0  0
    9.3209   -6.9215    0.0000 O   0  0  0  0  0  0  0  0  0  0  0  0
   10.0575   -9.7989    0.0000 O   0  0  0  0  0  0  0  0  0  0  0  0
    9.3425   -9.3873    0.0000 C   0  0  0  0  0  0  0  0  0  0  0  0
    8.6285   -9.8007    0.0000 C   0  0  0  0  0  0  0  0  0  0  0  0
    8.6296  -10.6257    0.0000 C   0  0  0  0  0  0  0  0  0  0  0  0
    5.7738  -12.2793    0.0000 O   0  0  0  0  0  0  0  0  0  0  0  0
    7.9167  -11.8641    0.0000 C   0  0  0  0  0  0  0  0  0  0  0  0
    7.9156  -11.0391    0.0000 C   0  0  0  0  0  0  0  0  0  0  0  0
    7.2006  -10.6275    0.0000 C   0  0  0  0  0  0  0  0  0  0  0  0
    6.4867  -11.0409    0.0000 C   0  0  0  0  0  0  0  0  0  0  0  0
    6.4877  -11.8659    0.0000 C   0  0  0  0  0  0  0  0  0  0  0  0
    7.2027  -12.2775    0.0000 C   0  0  0  0  0  0  0  0  0  0  0  0
 19  1  1  0  0  0  0
 17  2  1  0  0  0  0
 23 11  1  0  0  0  0
  8  3  1  0  0  0  0
  9  5  1  0  0  0  0
  5  4  1  0  0  0  0
 11  6  2  0  0  0  0
  7  6  1  0  0  0  0
  8  7  2  0  0  0  0
  9  8  1  0  0  0  0
 10  9  2  0  0  0  0
 11 10  1  0  0  0  0
 22 12  1  0  0  0  0
 21 13  2  0  0  0  0
 23 14  1  0  0  0  0
 15 14  1  0  0  0  0
 20 15  2  0  0  0  0
 16 15  1  0  0  0  0
 17 16  2  0  0  0  0
 18 17  1  0  0  0  0
 19 18  2  0  0  0  0
 20 19  1  0  0  0  0
 21 20  1  0  0  0  0
 22 21  1  0  0  0  0
 23 22  2  0  0  0  0
 24 25  1  0  0  0  0
 25 26  1  0  0  0  0
 26 27  1  0  0  0  0
 27 28  1  0  0  0  0
 28 29  1  0  0  0  0
 29 24  1  0  0  0  0
 25 30  1  1  0  0  0
 24 31  1  6  0  0  0
 26 32  1  6  0  0  0
 27 33  1  6  0  0  0
 28 12  1  1  0  0  0
 42 34  1  6  0  0  0
 41 35  1  1  0  0  0
 40 36  1  6  0  0  0
 39 38  1  1  0  0  0
 38 37  1  0  0  0  0
 44 39  1  0  0  0  0
 40 39  1  0  0  0  0
 41 40  1  0  0  0  0
 42 41  1  0  0  0  0
 43 42  1  0  0  0  0
 44 43  1  0  0  0  0
 43 33  1  1  0  0  0
 46 45  2  0  0  0  0
 47 46  1  0  0  0  0
 48 47  2  0  0  0  0
 51 48  1  0  0  0  0
 54 49  1  0  0  0  0
 50 55  1  0  0  0  0
 51 50  2  0  0  0  0
 52 51  1  0  0  0  0
 53 52  2  0  0  0  0
 54 53  1  0  0  0  0
 55 54  2  0  0  0  0
 46 37  1  0  0  0  0
M  END
>  <cdx:fragmentId>
29

$$$$
