95684.cdx
  Mrv1902 05222410252D          

 16 18  0  0  0  0            999 V2000
    8.3043   -7.6014    0.0000 C   0  0  0  0  0  0  0  0  0  0  0  0
    8.8564   -8.2145    0.0000 N   0  0  0  0  0  0  0  0  0  0  0  0
    8.6014   -8.9991    0.0000 C   0  0  0  0  0  0  0  0  0  0  0  0
    7.7945   -9.1707    0.0000 C   0  0  0  0  0  0  0  0  0  0  0  0
    7.2424   -8.5576    0.0000 C   0  0  0  0  0  0  0  0  0  0  0  0
    6.4174   -8.5576    0.0000 C   0  0  0  0  0  0  0  0  0  0  0  0
    5.8654   -9.1707    0.0000 C   0  0  0  0  0  0  0  0  0  0  0  0
    5.0584   -8.9991    0.0000 C   0  0  0  0  0  0  0  0  0  0  0  0
    4.8035   -8.2145    0.0000 C   0  0  0  0  0  0  0  0  0  0  0  0
    5.3555   -7.6014    0.0000 C   0  0  0  0  0  0  0  0  0  0  0  0
    6.1625   -7.7729    0.0000 C   0  0  0  0  0  0  0  0  0  0  0  0
    6.8299   -7.2880    0.0000 N   0  0  0  0  0  0  0  0  0  0  0  0
    7.4974   -7.7729    0.0000 C   0  0  0  0  0  0  0  0  0  0  0  0
    8.5593   -6.8168    0.0000 C   0  0  0  0  0  0  0  0  0  0  0  0
    8.0072   -6.2037    0.0000 O   0  0  0  0  0  0  0  0  0  0  0  0
    9.3662   -6.6453    0.0000 O   0  0  0  0  0  0  0  0  0  0  0  0
  1  2  2  0  0  0  0
  2  3  1  0  0  0  0
  3  4  2  0  0  0  0
  4  5  1  0  0  0  0
  5  6  1  0  0  0  0
  6  7  1  0  0  0  0
  7  8  2  0  0  0  0
  8  9  1  0  0  0  0
  9 10  2  0  0  0  0
 10 11  1  0  0  0  0
  6 11  2  0  0  0  0
 11 12  1  0  0  0  0
 12 13  1  0  0  0  0
  5 13  2  0  0  0  0
  1 13  1  0  0  0  0
 14 15  2  0  0  0  0
 14 16  1  0  0  0  0
  1 14  1  0  0  0  0
M  END
>  <cdx:fragmentId>
41

$$$$
