95693.cdx
  Mrv1902 05222410262D          

 15 14  0  0  0  0            999 V2000
    2.0738   -9.3225    0.0000 C   0  0  0  0  0  0  0  0  0  0  0  0
    2.7882   -8.9100    0.0000 C   0  0  0  0  0  0  0  0  0  0  0  0
    3.5027   -8.4975    0.0000 C   0  0  0  0  0  0  0  0  0  0  0  0
    4.2172   -8.0850    0.0000 C   0  0  0  0  0  0  0  0  0  0  0  0
    4.9317   -7.6725    0.0000 C   0  0  0  0  0  0  0  0  0  0  0  0
    5.6461   -7.2600    0.0000 C   0  0  0  0  0  0  0  0  0  0  0  0
    6.3606   -6.8475    0.0000 C   0  0  0  0  0  0  0  0  0  0  0  0
    7.0751   -6.4350    0.0000 C   0  0  0  0  0  0  0  0  0  0  0  0
    7.7895   -6.8475    0.0000 C   0  0  0  0  0  0  0  0  0  0  0  0
    8.5040   -6.4350    0.0000 C   0  0  0  0  0  0  0  0  0  0  0  0
    9.2185   -6.8475    0.0000 C   0  0  0  0  0  0  0  0  0  0  0  0
    8.5040   -5.6100    0.0000 O   0  0  0  0  0  0  0  0  0  0  0  0
    9.9330   -6.4350    0.0000 C   0  0  0  0  0  0  0  0  0  0  0  0
    9.2185   -7.6725    0.0000 O   0  0  0  0  0  0  0  0  0  0  0  0
   10.6474   -6.8475    0.0000 C   0  0  0  0  0  0  0  0  0  0  0  0
  1  2  1  0  0  0  0
  2  3  3  0  0  0  0
  3  4  1  0  0  0  0
  4  5  3  0  0  0  0
  5  6  1  0  0  0  0
  6  7  3  0  0  0  0
  7  8  1  0  0  0  0
  8  9  2  0  0  0  0
  9 10  1  0  0  0  0
 10 11  1  0  0  0  0
 10 12  1  0  0  0  0
 11 13  1  0  0  0  0
 11 14  1  0  0  0  0
 13 15  2  0  0  0  0
M  END
>  <cdx:fragmentId>
3

$$$$
