95692.cdx
  Mrv1902 05222410252D          

 49 52  0  0  0  0            999 V2000
    8.8039   -8.1169    0.0000 O   0  0  0  0  0  0  0  0  0  0  0  0
    8.2334   -8.7129    0.0000 C   0  0  1  0  0  0  0  0  0  0  0  0
    7.4320   -8.5168    0.0000 C   0  0  1  0  0  0  0  0  0  0  0  0
    7.2011   -7.7248    0.0000 C   0  0  2  0  0  0  0  0  0  0  0  0
    7.7716   -7.1288    0.0000 C   0  0  1  0  0  0  0  0  0  0  0  0
    8.5729   -7.3249    0.0000 C   0  0  1  0  0  0  0  0  0  0  0  0
    6.8616   -9.1128    0.0000 O   0  0  0  0  0  0  0  0  0  0  0  0
    6.3998   -7.5288    0.0000 O   0  0  0  0  0  0  0  0  0  0  0  0
    7.5407   -6.3368    0.0000 O   0  0  0  0  0  0  0  0  0  0  0  0
    9.1434   -6.7289    0.0000 C   0  0  0  0  0  0  0  0  0  0  0  0
    8.9125   -5.9368    0.0000 O   0  0  0  0  0  0  0  0  0  0  0  0
    8.4643   -9.5049    0.0000 O   0  0  0  0  0  0  0  0  0  0  0  0
    7.2415   -9.5958    0.0000 O   0  0  0  0  0  0  0  0  0  0  0  0
    7.8939  -10.1009    0.0000 C   0  0  2  0  0  0  0  0  0  0  0  0
    7.6151  -10.8774    0.0000 C   0  0  2  0  0  0  0  0  0  0  0  0
    6.7905  -10.8522    0.0000 C   0  0  1  0  0  0  0  0  0  0  0  0
    6.5596  -10.0602    0.0000 C   0  0  1  0  0  0  0  0  0  0  0  0
    5.7831   -9.7815    0.0000 C   0  0  0  0  0  0  0  0  0  0  0  0
    5.6363   -8.9697    0.0000 O   0  0  0  0  0  0  0  0  0  0  0  0
    8.6952  -10.2969    0.0000 C   0  0  0  0  0  0  0  0  0  0  0  0
    8.9261  -11.0889    0.0000 O   0  0  0  0  0  0  0  0  0  0  0  0
    6.2855  -11.5046    0.0000 O   0  0  0  0  0  0  0  0  0  0  0  0
    8.0795  -11.5593    0.0000 O   0  0  0  0  0  0  0  0  0  0  0  0
    3.9609  -12.9891    0.0000 C   0  0  0  0  0  0  0  0  0  0  0  0
    4.3748  -13.7028    0.0000 C   0  0  0  0  0  0  0  0  0  0  0  0
    5.1997  -13.7013    0.0000 C   0  0  0  0  0  0  0  0  0  0  0  0
    5.6109  -12.9861    0.0000 C   0  0  0  0  0  0  0  0  0  0  0  0
    5.1971  -12.2724    0.0000 C   0  0  0  0  0  0  0  0  0  0  0  0
    4.3721  -12.2739    0.0000 C   0  0  0  0  0  0  0  0  0  0  0  0
    3.1359  -12.9906    0.0000 O   0  0  0  0  0  0  0  0  0  0  0  0
    3.9583  -11.5602    0.0000 O   0  0  0  0  0  0  0  0  0  0  0  0
    3.1333  -11.5617    0.0000 C   0  0  0  0  0  0  0  0  0  0  0  0
    8.0859  -12.9816    0.0000 O   0  0  0  0  0  0  0  0  0  0  0  0
    7.6721  -12.2678    0.0000 C   0  0  0  0  0  0  0  0  0  0  0  0
    6.8471  -12.2693    0.0000 C   0  0  0  0  0  0  0  0  0  0  0  0
    6.4359  -12.9846    0.0000 C   0  0  0  0  0  0  0  0  0  0  0  0
    8.2259   -3.8601    0.0000 C   0  0  0  0  0  0  0  0  0  0  0  0
    8.2188   -4.6850    0.0000 C   0  0  0  0  0  0  0  0  0  0  0  0
    8.9297   -5.1037    0.0000 C   0  0  0  0  0  0  0  0  0  0  0  0
    9.6477   -4.6973    0.0000 O   0  0  0  0  0  0  0  0  0  0  0  0
    4.6572   -3.4168    0.0000 C   0  0  0  0  0  0  0  0  0  0  0  0
    5.3681   -3.8355    0.0000 O   0  0  0  0  0  0  0  0  0  0  0  0
    5.3823   -2.1855    0.0000 O   0  0  0  0  0  0  0  0  0  0  0  0
    6.0861   -3.4291    0.0000 C   0  0  0  0  0  0  0  0  0  0  0  0
    6.7970   -3.8478    0.0000 C   0  0  0  0  0  0  0  0  0  0  0  0
    7.5150   -3.4414    0.0000 C   0  0  0  0  0  0  0  0  0  0  0  0
    7.5221   -2.6165    0.0000 C   0  0  0  0  0  0  0  0  0  0  0  0
    6.8112   -2.1978    0.0000 C   0  0  0  0  0  0  0  0  0  0  0  0
    6.0932   -2.6042    0.0000 C   0  0  0  0  0  0  0  0  0  0  0  0
  1  2  1  0  0  0  0
  2  3  1  0  0  0  0
  3  4  1  0  0  0  0
  4  5  1  0  0  0  0
  5  6  1  0  0  0  0
  1  6  1  0  0  0  0
  3  7  1  6  0  0  0
  4  8  1  1  0  0  0
  5  9  1  6  0  0  0
 10 11  1  0  0  0  0
  6 10  1  1  0  0  0
 13 14  1  0  0  0  0
 14 15  1  0  0  0  0
 15 16  1  0  0  0  0
 16 17  1  0  0  0  0
 13 17  1  0  0  0  0
 18 19  1  0  0  0  0
 17 18  1  1  0  0  0
 20 21  1  0  0  0  0
 14 20  1  0  0  0  0
 16 22  1  6  0  0  0
 15 23  1  1  0  0  0
 14 12  1  1  0  0  0
  2 12  1  6  0  0  0
 24 25  2  0  0  0  0
 25 26  1  0  0  0  0
 26 27  2  0  0  0  0
 27 28  1  0  0  0  0
 28 29  2  0  0  0  0
 29 24  1  0  0  0  0
 24 30  1  0  0  0  0
 29 31  1  0  0  0  0
 31 32  1  0  0  0  0
 34 33  2  0  0  0  0
 27 36  1  0  0  0  0
 35 34  1  0  0  0  0
 36 35  2  0  0  0  0
 37 38  2  0  0  0  0
 38 39  1  0  0  0  0
 46 37  1  0  0  0  0
 39 40  2  0  0  0  0
 42 41  1  0  0  0  0
 44 42  1  0  0  0  0
 49 43  1  0  0  0  0
 44 49  1  0  0  0  0
 45 44  2  0  0  0  0
 46 45  1  0  0  0  0
 47 46  2  0  0  0  0
 48 47  1  0  0  0  0
 49 48  2  0  0  0  0
 34 23  1  0  0  0  0
 39 11  1  0  0  0  0
M  END
>  <cdx:groupId>
72

>  <cdx:fragmentId>
29

$$$$
