95695.cdx
  Mrv1902 05222410242D          

 78 86  0  0  0  0            999 V2000
    3.3668   -6.4213    0.0000 C   0  0  1  0  0  0  0  0  0  0  0  0
    3.3668   -7.2462    0.0000 C   0  0  1  0  0  0  0  0  0  0  0  0
    4.0813   -7.6587    0.0000 C   0  0  2  0  0  0  0  0  0  0  0  0
    4.7957   -7.2462    0.0000 C   0  0  1  0  0  0  0  0  0  0  0  0
    4.7957   -6.4213    0.0000 C   0  0  2  0  0  0  0  0  0  0  0  0
    4.0813   -6.0088    0.0000 C   0  0  0  0  0  0  0  0  0  0  0  0
    5.5102   -7.6587    0.0000 C   0  0  0  0  0  0  0  0  0  0  0  0
    6.2247   -7.2462    0.0000 C   0  0  0  0  0  0  0  0  0  0  0  0
    6.2247   -6.4213    0.0000 C   0  0  2  0  0  0  0  0  0  0  0  0
    5.5102   -6.0088    0.0000 C   0  0  2  0  0  0  0  0  0  0  0  0
    6.9392   -6.0088    0.0000 C   0  0  1  0  0  0  0  0  0  0  0  0
    6.9392   -5.1837    0.0000 C   0  0  0  0  0  0  0  0  0  0  0  0
    6.2247   -4.7713    0.0000 C   0  0  0  0  0  0  0  0  0  0  0  0
    5.5102   -5.1837    0.0000 C   0  0  0  0  0  0  0  0  0  0  0  0
    7.6536   -6.4213    0.0000 C   0  0  0  0  0  0  0  0  0  0  0  0
    8.3681   -6.0088    0.0000 C   0  0  0  0  0  0  0  0  0  0  0  0
    8.3681   -5.1837    0.0000 C   0  0  2  0  0  0  0  0  0  0  0  0
    7.6536   -4.7713    0.0000 C   0  0  1  0  0  0  0  0  0  0  0  0
    9.0826   -4.7713    0.0000 C   0  0  0  0  0  0  0  0  0  0  0  0
    9.0826   -3.9463    0.0000 C   0  0  0  0  0  0  0  0  0  0  0  0
    8.3681   -3.5337    0.0000 C   0  0  2  0  0  0  0  0  0  0  0  0
    7.6536   -3.9463    0.0000 C   0  0  0  0  0  0  0  0  0  0  0  0
    2.6523   -6.0088    0.0000 O   0  0  0  0  0  0  0  0  0  0  0  0
    4.4938   -8.3732    0.0000 C   0  0  0  0  0  0  0  0  0  0  0  0
    4.7957   -8.0713    0.0000 H   0  0  0  0  0  0  0  0  0  0  0  0
    5.5102   -6.8338    0.0000 H   0  0  0  0  0  0  0  0  0  0  0  0
    6.9392   -6.8338    0.0000 C   0  0  0  0  0  0  0  0  0  0  0  0
    8.7806   -2.8193    0.0000 C   0  0  0  0  0  0  0  0  0  0  0  0
    2.6523   -7.6587    0.0000 O   0  0  0  0  0  0  0  0  0  0  0  0
    3.6688   -8.3732    0.0000 C   0  0  0  0  0  0  0  0  0  0  0  0
    4.7957   -5.5962    0.0000 C   0  0  0  0  0  0  0  0  0  0  0  0
    6.2247   -5.5962    0.0000 C   0  0  0  0  0  0  0  0  0  0  0  0
    7.6536   -5.5962    0.0000 H   0  0  0  0  0  0  0  0  0  0  0  0
    7.9556   -2.8193    0.0000 C   0  0  0  0  0  0  0  0  0  0  0  0
    9.0826   -5.5962    0.0000 C   0  0  0  0  0  0  0  0  0  0  0  0
    9.7970   -5.1837    0.0000 O   0  0  0  0  0  0  0  0  0  0  0  0
    9.7991   -6.0053    0.0000 O   0  0  0  0  0  0  0  0  0  0  0  0
    9.7988   -6.8303    0.0000 C   0  0  2  0  0  0  0  0  0  0  0  0
    9.0842   -7.2426    0.0000 O   0  0  0  0  0  0  0  0  0  0  0  0
    9.0839   -8.0676    0.0000 C   0  0  1  0  0  0  0  0  0  0  0  0
    9.7982   -8.4803    0.0000 C   0  0  2  0  0  0  0  0  0  0  0  0
   10.5128   -8.0681    0.0000 C   0  0  1  0  0  0  0  0  0  0  0  0
   10.5131   -7.2431    0.0000 C   0  0  1  0  0  0  0  0  0  0  0  0
    8.3692   -8.4798    0.0000 C   0  0  0  0  0  0  0  0  0  0  0  0
   11.2271   -8.4809    0.0000 O   0  0  0  0  0  0  0  0  0  0  0  0
    9.7979   -9.3053    0.0000 O   0  0  0  0  0  0  0  0  0  0  0  0
   11.2277   -6.8309    0.0000 O   0  0  0  0  0  0  0  0  0  0  0  0
    8.3689   -9.3048    0.0000 O   0  0  0  0  0  0  0  0  0  0  0  0
    7.6543   -9.7170    0.0000 C   0  0  2  0  0  0  0  0  0  0  0  0
    6.9400   -9.3042    0.0000 O   0  0  0  0  0  0  0  0  0  0  0  0
    6.2254   -9.7165    0.0000 C   0  0  1  0  0  0  0  0  0  0  0  0
    6.2250  -10.5415    0.0000 C   0  0  2  0  0  0  0  0  0  0  0  0
    6.9394  -10.9542    0.0000 C   0  0  1  0  0  0  0  0  0  0  0  0
    7.6540  -10.5420    0.0000 C   0  0  1  0  0  0  0  0  0  0  0  0
    5.5110   -9.3037    0.0000 C   0  0  0  0  0  0  0  0  0  0  0  0
    6.9391  -11.7792    0.0000 O   0  0  0  0  0  0  0  0  0  0  0  0
    5.5104  -10.9537    0.0000 O   0  0  0  0  0  0  0  0  0  0  0  0
    8.3683  -10.9548    0.0000 O   0  0  0  0  0  0  0  0  0  0  0  0
    4.7964   -9.7159    0.0000 O   0  0  0  0  0  0  0  0  0  0  0  0
    5.5101  -11.7787    0.0000 C   0  0  2  0  0  0  0  0  0  0  0  0
    4.7955  -12.1909    0.0000 O   0  0  0  0  0  0  0  0  0  0  0  0
    4.7952  -13.0159    0.0000 C   0  0  2  0  0  0  0  0  0  0  0  0
    5.5095  -13.4287    0.0000 C   0  0  1  0  0  0  0  0  0  0  0  0
    6.2241  -13.0165    0.0000 C   0  0  2  0  0  0  0  0  0  0  0  0
    6.2244  -12.1915    0.0000 C   0  0  1  0  0  0  0  0  0  0  0  0
    4.0805  -13.4282    0.0000 C   0  0  0  0  0  0  0  0  0  0  0  0
    6.9384  -13.4292    0.0000 O   0  0  0  0  0  0  0  0  0  0  0  0
    6.9387  -12.6042    0.0000 O   0  0  0  0  0  0  0  0  0  0  0  0
    5.5092  -14.2537    0.0000 O   0  0  0  0  0  0  0  0  0  0  0  0
    6.9381  -14.2542    0.0000 C   0  0  2  0  0  0  0  0  0  0  0  0
    6.2235  -14.6665    0.0000 O   0  0  0  0  0  0  0  0  0  0  0  0
    6.2232  -15.4915    0.0000 C   0  0  0  0  0  0  0  0  0  0  0  0
    6.9375  -15.9042    0.0000 C   0  0  2  0  0  0  0  0  0  0  0  0
    7.6521  -15.4920    0.0000 C   0  0  1  0  0  0  0  0  0  0  0  0
    7.6524  -14.6670    0.0000 C   0  0  1  0  0  0  0  0  0  0  0  0
    8.3664  -15.9048    0.0000 O   0  0  0  0  0  0  0  0  0  0  0  0
    6.9372  -16.7292    0.0000 O   0  0  0  0  0  0  0  0  0  0  0  0
    8.3671  -14.2548    0.0000 O   0  0  0  0  0  0  0  0  0  0  0  0
  1  2  1  0  0  0  0
  2  3  1  0  0  0  0
  3  4  1  0  0  0  0
  4  5  1  0  0  0  0
  5  6  1  0  0  0  0
  6  1  1  0  0  0  0
  4  7  1  0  0  0  0
  7  8  1  0  0  0  0
  8  9  1  0  0  0  0
  9 10  1  0  0  0  0
 10  5  1  0  0  0  0
  9 11  1  0  0  0  0
 11 12  1  0  0  0  0
 12 13  2  0  0  0  0
 13 14  1  0  0  0  0
 14 10  1  0  0  0  0
 11 15  1  0  0  0  0
 15 16  1  0  0  0  0
 16 17  1  0  0  0  0
 17 18  1  0  0  0  0
 18 12  1  0  0  0  0
 17 19  1  0  0  0  0
 19 20  1  0  0  0  0
 20 21  1  0  0  0  0
 21 22  1  0  0  0  0
 22 18  1  0  0  0  0
  1 23  1  6  0  0  0
  3 24  1  6  0  0  0
  4 25  1  6  0  0  0
 10 26  1  6  0  0  0
 11 27  1  6  0  0  0
 21 28  1  6  0  0  0
  2 29  1  1  0  0  0
  3 30  1  1  0  0  0
  5 31  1  1  0  0  0
  9 32  1  1  0  0  0
 18 33  1  1  0  0  0
 21 34  1  1  0  0  0
 17 35  1  1  0  0  0
 35 36  2  0  0  0  0
 38 37  1  1  0  0  0
 38 39  1  0  0  0  0
 39 40  1  0  0  0  0
 40 41  1  0  0  0  0
 41 42  1  0  0  0  0
 42 43  1  0  0  0  0
 43 38  1  0  0  0  0
 40 44  1  1  0  0  0
 42 45  1  1  0  0  0
 41 46  1  6  0  0  0
 43 47  1  6  0  0  0
 44 48  1  0  0  0  0
 49 48  1  1  0  0  0
 49 50  1  0  0  0  0
 50 51  1  0  0  0  0
 51 52  1  0  0  0  0
 52 53  1  0  0  0  0
 53 54  1  0  0  0  0
 54 49  1  0  0  0  0
 51 55  1  1  0  0  0
 53 56  1  1  0  0  0
 52 57  1  6  0  0  0
 54 58  1  6  0  0  0
 55 59  1  0  0  0  0
 60 57  1  1  0  0  0
 60 61  1  0  0  0  0
 61 62  1  0  0  0  0
 62 63  1  0  0  0  0
 63 64  1  0  0  0  0
 64 65  1  0  0  0  0
 65 60  1  0  0  0  0
 62 66  1  6  0  0  0
 64 67  1  6  0  0  0
 65 68  1  6  0  0  0
 63 69  1  1  0  0  0
 70 67  1  1  0  0  0
 70 71  1  0  0  0  0
 71 72  1  0  0  0  0
 72 73  1  0  0  0  0
 73 74  1  0  0  0  0
 74 75  1  0  0  0  0
 75 70  1  0  0  0  0
 74 76  1  1  0  0  0
 73 77  1  6  0  0  0
 75 78  1  6  0  0  0
 35 37  1  0  0  0  0
M  END
>  <cdx:fragmentId>
109

$$$$
