957.cdx
  Mrv1902 05222410222D          

  9  8  0  0  0  0            999 V2000
    2.0857   -2.2423    0.0000 C   0  0  0  0  0  0  0  0  0  0  0  0
    2.8002   -2.6548    0.0000 C   0  0  0  0  0  0  0  0  0  0  0  0
    3.5146   -2.2423    0.0000 C   0  0  0  0  0  0  0  0  0  0  0  0
    4.2291   -2.6548    0.0000 C   0  0  0  0  0  0  0  0  0  0  0  0
    4.9436   -2.2423    0.0000 C   0  0  0  0  0  0  0  0  0  0  0  0
    5.6581   -2.6548    0.0000 C   0  0  0  0  0  0  0  0  0  0  0  0
    6.3725   -2.2423    0.0000 C   0  0  0  0  0  0  0  0  0  0  0  0
    7.0870   -2.6548    0.0000 C   0  0  0  0  0  0  0  0  0  0  0  0
    1.3712   -2.6548    0.0000 O   0  0  0  0  0  0  0  0  0  0  0  0
  1  2  1  0  0  0  0
  2  3  1  0  0  0  0
  3  4  1  0  0  0  0
  4  5  1  0  0  0  0
  5  6  1  0  0  0  0
  6  7  1  0  0  0  0
  7  8  1  0  0  0  0
  1  9  1  0  0  0  0
M  END
>  <cdx:groupId>
28

>  <cdx:fragmentId>
5

$$$$
