95704.cdx
  Mrv1902 05222410232D          

 31 35  0  0  0  0            999 V2000
    4.2606   -7.1638    0.0000 C   0  0  0  0  0  0  0  0  0  0  0  0
    4.2606   -7.9888    0.0000 C   0  0  0  0  0  0  0  0  0  0  0  0
    4.9750   -8.4013    0.0000 C   0  0  0  0  0  0  0  0  0  0  0  0
    5.6895   -7.9888    0.0000 C   0  0  0  0  0  0  0  0  0  0  0  0
    5.6895   -7.1638    0.0000 C   0  0  0  0  0  0  0  0  0  0  0  0
    4.9750   -6.7512    0.0000 C   0  0  0  0  0  0  0  0  0  0  0  0
    6.4040   -8.4013    0.0000 C   0  0  2  0  0  0  0  0  0  0  0  0
    7.1184   -7.9888    0.0000 N   0  0  0  0  0  0  0  0  0  0  0  0
    7.1184   -7.1638    0.0000 C   0  0  0  0  0  0  0  0  0  0  0  0
    6.4040   -6.7512    0.0000 C   0  0  0  0  0  0  0  0  0  0  0  0
    7.8329   -6.7512    0.0000 C   0  0  0  0  0  0  0  0  0  0  0  0
    7.8329   -5.9262    0.0000 C   0  0  0  0  0  0  0  0  0  0  0  0
    7.1184   -5.5137    0.0000 C   0  0  0  0  0  0  0  0  0  0  0  0
    6.4040   -5.9262    0.0000 C   0  0  0  0  0  0  0  0  0  0  0  0
    8.5474   -7.1638    0.0000 C   0  0  0  0  0  0  0  0  0  0  0  0
    9.2619   -6.7512    0.0000 C   0  0  0  0  0  0  0  0  0  0  0  0
    9.2619   -5.9262    0.0000 C   0  0  0  0  0  0  0  0  0  0  0  0
    8.5474   -5.5137    0.0000 C   0  0  0  0  0  0  0  0  0  0  0  0
   10.0465   -7.0062    0.0000 O   0  0  0  0  0  0  0  0  0  0  0  0
   10.5314   -6.3388    0.0000 C   0  0  0  0  0  0  0  0  0  0  0  0
   10.0465   -5.6713    0.0000 O   0  0  0  0  0  0  0  0  0  0  0  0
    7.8329   -8.4013    0.0000 C   0  0  0  0  0  0  0  0  0  0  0  0
    6.4040   -9.2263    0.0000 C   0  0  2  0  0  0  0  0  0  0  0  0
    7.1184   -8.8138    0.0000 H   0  0  0  0  0  0  0  0  0  0  0  0
    7.1184   -9.6387    0.0000 H   0  0  0  0  0  0  0  0  0  0  0  0
    5.6895   -9.6387    0.0000 O   0  0  0  0  0  0  0  0  0  0  0  0
    6.4040  -10.0512    0.0000 C   0  0  0  0  0  0  0  0  0  0  0  0
    4.9750   -9.2263    0.0000 O   0  0  0  0  0  0  0  0  0  0  0  0
    3.5461   -8.4012    0.0000 O   0  0  0  0  0  0  0  0  0  0  0  0
    2.8316   -7.9887    0.0000 C   0  0  0  0  0  0  0  0  0  0  0  0
    4.2606   -9.6387    0.0000 C   0  0  0  0  0  0  0  0  0  0  0  0
  1  2  2  0  0  0  0
  2  3  1  0  0  0  0
  3  4  2  0  0  0  0
  4  5  1  0  0  0  0
  5  6  2  0  0  0  0
  6  1  1  0  0  0  0
  4  7  1  0  0  0  0
  7  8  1  0  0  0  0
  8  9  1  0  0  0  0
  9 10  2  0  0  0  0
 10  5  1  0  0  0  0
  9 11  1  0  0  0  0
 11 12  2  0  0  0  0
 12 13  1  0  0  0  0
 13 14  2  0  0  0  0
 14 10  1  0  0  0  0
 11 15  1  0  0  0  0
 15 16  2  0  0  0  0
 16 17  1  0  0  0  0
 17 18  2  0  0  0  0
 18 12  1  0  0  0  0
 16 19  1  0  0  0  0
 19 20  1  0  0  0  0
 20 21  1  0  0  0  0
 21 17  1  0  0  0  0
  8 22  1  0  0  0  0
  7 23  1  0  0  0  0
  7 24  1  1  0  0  0
 23 25  1  6  0  0  0
 23 26  1  0  0  0  0
 23 27  1  1  0  0  0
  3 28  1  0  0  0  0
  2 29  1  0  0  0  0
 29 30  1  0  0  0  0
 28 31  1  0  0  0  0
M  END
>  <cdx:fragmentId>
5

$$$$
