95708.cdx
  Mrv1902 05222410232D          

 39 43  0  0  0  0            999 V2000
    4.8273   -9.2434    0.0000 C   0  0  1  0  0  0  0  0  0  0  0  0
    4.8273   -8.4184    0.0000 C   0  0  1  0  0  0  0  0  0  0  0  0
    5.5418   -8.0059    0.0000 C   0  0  0  0  0  0  0  0  0  0  0  0
    5.5418   -9.6559    0.0000 C   0  0  2  0  0  0  0  0  0  0  0  0
    6.0780  -10.5847    0.0000 C   0  0  0  0  0  0  0  0  0  0  0  0
    5.1293  -10.3703    0.0000 C   0  0  0  0  0  0  0  0  0  0  0  0
    6.2562   -9.2434    0.0000 C   0  0  2  0  0  0  0  0  0  0  0  0
    6.2562  -10.0684    0.0000 H   0  0  0  0  0  0  0  0  0  0  0  0
    6.9707   -9.6559    0.0000 C   0  0  0  0  0  0  0  0  0  0  0  0
    7.6852   -9.2434    0.0000 C   0  0  0  0  0  0  0  0  0  0  0  0
    7.6852   -8.4184    0.0000 C   0  0  1  0  0  0  0  0  0  0  0  0
    7.6852   -7.5934    0.0000 C   0  0  0  0  0  0  0  0  0  0  0  0
    8.3997   -8.0059    0.0000 C   0  0  2  0  0  0  0  0  0  0  0  0
    8.3997   -8.8309    0.0000 C   0  0  0  0  0  0  0  0  0  0  0  0
    9.1141   -8.4184    0.0000 C   0  0  0  0  0  0  0  0  0  0  0  0
    9.8286   -8.0059    0.0000 C   0  0  0  0  0  0  0  0  0  0  0  0
    9.8286   -7.1809    0.0000 C   0  0  1  0  0  0  0  0  0  0  0  0
   10.5431   -7.5934    0.0000 C   0  0  0  0  0  0  0  0  0  0  0  0
   10.5431   -6.7684    0.0000 C   0  0  0  0  0  0  0  0  0  0  0  0
   10.5431   -5.9434    0.0000 C   0  0  0  0  0  0  0  0  0  0  0  0
    9.8286   -5.5309    0.0000 C   0  0  1  0  0  0  0  0  0  0  0  0
    9.8286   -4.7059    0.0000 C   0  0  0  0  0  0  0  0  0  0  0  0
    9.1141   -5.9434    0.0000 C   0  0  2  0  0  0  0  0  0  0  0  0
    8.7016   -5.2289    0.0000 C   0  0  0  0  0  0  0  0  0  0  0  0
    9.1141   -6.7684    0.0000 C   0  0  1  0  0  0  0  0  0  0  0  0
    9.1141   -7.5934    0.0000 H   0  0  0  0  0  0  0  0  0  0  0  0
    8.3997   -7.1809    0.0000 C   0  0  0  0  0  0  0  0  0  0  0  0
    7.6852   -6.7684    0.0000 C   0  0  0  0  0  0  0  0  0  0  0  0
    6.9707   -7.1809    0.0000 C   0  0  0  0  0  0  0  0  0  0  0  0
    6.9707   -8.0059    0.0000 C   0  0  2  0  0  0  0  0  0  0  0  0
    6.2562   -8.4184    0.0000 C   0  0  1  0  0  0  0  0  0  0  0  0
    6.2562   -7.5934    0.0000 C   0  0  0  0  0  0  0  0  0  0  0  0
    5.6655  -11.2991    0.0000 O   0  0  0  0  0  0  0  0  0  0  0  0
    6.9030  -10.5847    0.0000 O   0  0  0  0  0  0  0  0  0  0  0  0
    4.3043  -10.3703    0.0000 O   0  0  0  0  0  0  0  0  0  0  0  0
    8.2891   -5.9434    0.0000 O   0  0  0  0  0  0  0  0  0  0  0  0
    4.1128   -9.6559    0.0000 O   0  0  0  0  0  0  0  0  0  0  0  0
    4.1128   -8.0059    0.0000 O   0  0  0  0  0  0  0  0  0  0  0  0
    6.9707   -8.8309    0.0000 H   0  0  0  0  0  0  0  0  0  0  0  0
  1  2  1  0  0  0  0
  2  3  1  0  0  0  0
  1  4  1  0  0  0  0
  4  5  1  6  0  0  0
  4  6  1  1  0  0  0
  4  7  1  0  0  0  0
  7  8  1  6  0  0  0
  7  9  1  0  0  0  0
  9 10  1  0  0  0  0
 10 11  1  0  0  0  0
 11 12  1  1  0  0  0
 11 13  1  0  0  0  0
 13 14  1  6  0  0  0
 13 15  1  0  0  0  0
 15 16  1  0  0  0  0
 16 17  1  0  0  0  0
 17 18  1  1  0  0  0
 17 19  1  0  0  0  0
 19 20  1  0  0  0  0
 20 21  1  0  0  0  0
 21 22  1  6  0  0  0
 21 23  1  0  0  0  0
 23 24  1  1  0  0  0
 23 25  1  0  0  0  0
 25 26  1  1  0  0  0
 17 25  1  0  0  0  0
 25 27  1  0  0  0  0
 13 27  1  0  0  0  0
 27 28  2  0  0  0  0
 28 29  1  0  0  0  0
 29 30  1  0  0  0  0
 11 30  1  0  0  0  0
 30 31  1  0  0  0  0
  3 31  1  0  0  0  0
  7 31  1  0  0  0  0
 31 32  1  1  0  0  0
  5 33  2  0  0  0  0
  5 34  1  0  0  0  0
  6 35  2  0  0  0  0
 23 36  1  6  0  0  0
  1 37  1  1  0  0  0
  2 38  1  6  0  0  0
 30 39  1  6  0  0  0
M  END
>  <cdx:groupId>
123

>  <cdx:fragmentId>
5

$$$$
