95706.cdx
  Mrv1902 05222410222D          

 76 83  0  0  0  0            999 V2000
    6.0816   -5.3022    0.0000 C   0  0  0  0  0  0  0  0  0  0  0  0
    6.0816   -6.1272    0.0000 C   0  0  0  0  0  0  0  0  0  0  0  0
    5.3672   -6.5397    0.0000 C   0  0  0  0  0  0  0  0  0  0  0  0
    5.3672   -7.3647    0.0000 O   0  0  0  0  0  0  0  0  0  0  0  0
    4.6527   -6.1272    0.0000 C   0  0  0  0  0  0  0  0  0  0  0  0
    3.9382   -6.5397    0.0000 C   0  0  0  0  0  0  0  0  0  0  0  0
    3.9382   -7.3647    0.0000 O   0  0  0  0  0  0  0  0  0  0  0  0
    3.2238   -6.1272    0.0000 C   0  0  0  0  0  0  0  0  0  0  0  0
    3.2238   -5.3022    0.0000 C   0  0  0  0  0  0  0  0  0  0  0  0
    2.5093   -4.8897    0.0000 O   0  0  0  0  0  0  0  0  0  0  0  0
    3.9382   -4.8897    0.0000 C   0  0  0  0  0  0  0  0  0  0  0  0
    4.6527   -5.3022    0.0000 C   0  0  0  0  0  0  0  0  0  0  0  0
    5.3672   -4.8897    0.0000 O   0  0  0  0  0  0  0  0  0  0  0  0
    6.7961   -4.8897    0.0000 C   0  0  0  0  0  0  0  0  0  0  0  0
    7.5106   -5.3022    0.0000 C   0  0  0  0  0  0  0  0  0  0  0  0
    8.2250   -4.8897    0.0000 C   0  0  0  0  0  0  0  0  0  0  0  0
    8.2250   -4.0647    0.0000 C   0  0  0  0  0  0  0  0  0  0  0  0
    8.9395   -3.6522    0.0000 O   0  0  0  0  0  0  0  0  0  0  0  0
    7.5106   -3.6522    0.0000 C   0  0  0  0  0  0  0  0  0  0  0  0
    6.7961   -4.0647    0.0000 C   0  0  0  0  0  0  0  0  0  0  0  0
    6.7961   -6.5397    0.0000 O   0  0  0  0  0  0  0  0  0  0  0  0
    6.7961   -7.3647    0.0000 C   0  0  1  0  0  0  0  0  0  0  0  0
    7.5106   -7.7772    0.0000 C   0  0  2  0  0  0  0  0  0  0  0  0
    8.2250   -7.3647    0.0000 O   0  0  0  0  0  0  0  0  0  0  0  0
    7.5106   -8.6022    0.0000 C   0  0  1  0  0  0  0  0  0  0  0  0
    8.2250   -9.0147    0.0000 O   0  0  0  0  0  0  0  0  0  0  0  0
    6.7961   -9.0147    0.0000 C   0  0  2  0  0  0  0  0  0  0  0  0
    6.7961   -9.8397    0.0000 O   0  0  0  0  0  0  0  0  0  0  0  0
    6.0816   -8.6022    0.0000 C   0  0  2  0  0  0  0  0  0  0  0  0
    6.0816   -7.7772    0.0000 O   0  0  0  0  0  0  0  0  0  0  0  0
    5.3672   -9.0147    0.0000 C   0  0  0  0  0  0  0  0  0  0  0  0
    4.6527   -8.6022    0.0000 O   0  0  0  0  0  0  0  0  0  0  0  0
    1.7998  -10.2575    0.0000 O   0  0  0  0  0  0  0  0  0  0  0  0
    4.6577  -10.2575    0.0000 O   0  0  0  0  0  0  0  0  0  0  0  0
    3.2288  -11.0825    0.0000 O   0  0  0  0  0  0  0  0  0  0  0  0
    1.7998   -8.6075    0.0000 C   0  0  0  0  0  0  0  0  0  0  0  0
    3.2288  -10.2575    0.0000 C   0  0  1  0  0  0  0  0  0  0  0  0
    3.9432   -9.8450    0.0000 C   0  0  2  0  0  0  0  0  0  0  0  0
    3.9432   -9.0200    0.0000 C   0  0  1  0  0  0  0  0  0  0  0  0
    3.2288   -8.6075    0.0000 O   0  0  0  0  0  0  0  0  0  0  0  0
    2.5143   -9.0200    0.0000 C   0  0  2  0  0  0  0  0  0  0  0  0
    2.5143   -9.8450    0.0000 C   0  0  2  0  0  0  0  0  0  0  0  0
   11.0817   -9.0209    0.0000 O   0  0  0  0  0  0  0  0  0  0  0  0
    9.6645   -6.5391    0.0000 O   0  0  0  0  0  0  0  0  0  0  0  0
   11.0895   -7.3709    0.0000 O   0  0  0  0  0  0  0  0  0  0  0  0
    9.6489   -9.8391    0.0000 C   0  0  0  0  0  0  0  0  0  0  0  0
   10.3731   -7.7800    0.0000 C   0  0  2  0  0  0  0  0  0  0  0  0
    9.6606   -7.3641    0.0000 C   0  0  2  0  0  0  0  0  0  0  0  0
    8.9442   -7.7732    0.0000 C   0  0  1  0  0  0  0  0  0  0  0  0
    8.9403   -8.5982    0.0000 O   0  0  0  0  0  0  0  0  0  0  0  0
    9.6528   -9.0141    0.0000 C   0  0  1  0  0  0  0  0  0  0  0  0
   10.3692   -8.6050    0.0000 C   0  0  1  0  0  0  0  0  0  0  0  0
   10.3614  -10.2550    0.0000 O   0  0  0  0  0  0  0  0  0  0  0  0
   10.3433  -11.0700    0.0000 C   0  0  0  0  0  0  0  0  0  0  0  0
   11.0535  -11.4898    0.0000 C   0  0  0  0  0  0  0  0  0  0  0  0
    9.6247  -11.4752    0.0000 O   0  0  0  0  0  0  0  0  0  0  0  0
   11.0451  -12.3148    0.0000 C   0  0  0  0  0  0  0  0  0  0  0  0
   11.7553  -12.7346    0.0000 C   0  0  0  0  0  0  0  0  0  0  0  0
   11.7469  -13.5595    0.0000 C   0  0  0  0  0  0  0  0  0  0  0  0
   12.4571  -13.9793    0.0000 C   0  0  0  0  0  0  0  0  0  0  0  0
   13.1757  -13.5741    0.0000 C   0  0  0  0  0  0  0  0  0  0  0  0
   13.1842  -12.7492    0.0000 C   0  0  0  0  0  0  0  0  0  0  0  0
   12.4740  -12.3294    0.0000 C   0  0  0  0  0  0  0  0  0  0  0  0
   13.8860  -13.9939    0.0000 O   0  0  0  0  0  0  0  0  0  0  0  0
    2.5084   -1.5888    0.0000 O   0  0  0  0  0  0  0  0  0  0  0  0
    1.0685   -4.0574    0.0000 O   0  0  0  0  0  0  0  0  0  0  0  0
    1.0758   -2.4074    0.0000 O   0  0  0  0  0  0  0  0  0  0  0  0
    3.9336   -2.4201    0.0000 C   0  0  0  0  0  0  0  0  0  0  0  0
    1.7884   -2.8231    0.0000 C   0  0  2  0  0  0  0  0  0  0  0  0
    1.7847   -3.6481    0.0000 C   0  0  2  0  0  0  0  0  0  0  0  0
    2.4974   -4.0638    0.0000 C   0  0  1  0  0  0  0  0  0  0  0  0
    3.2137   -3.6545    0.0000 O   0  0  0  0  0  0  0  0  0  0  0  0
    3.2173   -2.8295    0.0000 C   0  0  1  0  0  0  0  0  0  0  0  0
    2.5047   -2.4138    0.0000 C   0  0  1  0  0  0  0  0  0  0  0  0
    3.9373   -1.5951    0.0000 O   0  0  0  0  0  0  0  0  0  0  0  0
    7.5106   -2.8272    0.0000 O   0  0  0  0  0  0  0  0  0  0  0  0
  1  2  2  0  0  0  0
  2  3  1  0  0  0  0
  3  4  2  0  0  0  0
  3  5  1  0  0  0  0
  5  6  1  0  0  0  0
  6  7  1  0  0  0  0
  6  8  2  0  0  0  0
  8  9  1  0  0  0  0
  9 10  1  0  0  0  0
  9 11  2  0  0  0  0
 11 12  1  0  0  0  0
  5 12  2  0  0  0  0
 12 13  1  0  0  0  0
  1 13  1  0  0  0  0
  1 14  1  0  0  0  0
 14 15  1  0  0  0  0
 15 16  2  0  0  0  0
 16 17  1  0  0  0  0
 17 18  1  0  0  0  0
 17 19  2  0  0  0  0
 19 20  1  0  0  0  0
 14 20  2  0  0  0  0
 22 21  1  1  0  0  0
 22 23  1  0  0  0  0
 23 24  1  6  0  0  0
 23 25  1  0  0  0  0
 25 26  1  1  0  0  0
 25 27  1  0  0  0  0
 27 28  1  6  0  0  0
 27 29  1  0  0  0  0
 29 30  1  0  0  0  0
 29 31  1  1  0  0  0
 31 32  1  0  0  0  0
 22 30  1  0  0  0  0
  2 21  1  0  0  0  0
 42 33  1  1  0  0  0
 38 34  1  6  0  0  0
 37 35  1  6  0  0  0
 41 36  1  6  0  0  0
 37 42  1  0  0  0  0
 38 37  1  0  0  0  0
 39 38  1  0  0  0  0
 40 39  1  0  0  0  0
 41 40  1  0  0  0  0
 42 41  1  0  0  0  0
 52 43  1  6  0  0  0
 48 44  1  6  0  0  0
 47 45  1  1  0  0  0
 51 46  1  1  0  0  0
 47 52  1  0  0  0  0
 48 47  1  0  0  0  0
 49 48  1  0  0  0  0
 50 49  1  0  0  0  0
 51 50  1  0  0  0  0
 52 51  1  0  0  0  0
 39 32  1  1  0  0  0
 49 24  1  1  0  0  0
 46 53  1  0  0  0  0
 54 55  1  0  0  0  0
 54 56  2  0  0  0  0
 55 57  2  0  0  0  0
 57 58  1  0  0  0  0
 58 59  2  0  0  0  0
 59 60  1  0  0  0  0
 60 61  2  0  0  0  0
 61 62  1  0  0  0  0
 62 63  2  0  0  0  0
 63 58  1  0  0  0  0
 61 64  1  0  0  0  0
 54 53  1  0  0  0  0
 74 65  1  6  0  0  0
 70 66  1  6  0  0  0
 69 67  1  1  0  0  0
 73 68  1  1  0  0  0
 69 74  1  0  0  0  0
 70 69  1  0  0  0  0
 71 70  1  0  0  0  0
 72 71  1  0  0  0  0
 73 72  1  0  0  0  0
 74 73  1  0  0  0  0
 68 75  1  0  0  0  0
 71 10  1  1  0  0  0
 19 76  1  0  0  0  0
M  END
>  <cdx:fragmentId>
5

$$$$
