95701.cdx
  Mrv1902 05222410212D          

 52 56  0  0  0  0            999 V2000
    9.6689   -7.1532    0.0000 C   0  0  0  0  0  0  0  0  0  0  0  0
    9.6689   -7.9782    0.0000 C   0  0  0  0  0  0  0  0  0  0  0  0
    8.9544   -8.3907    0.0000 C   0  0  0  0  0  0  0  0  0  0  0  0
    8.2399   -7.9782    0.0000 C   0  0  0  0  0  0  0  0  0  0  0  0
    7.5255   -8.3907    0.0000 C   0  0  0  0  0  0  0  0  0  0  0  0
    6.8110   -7.9782    0.0000 C   0  0  0  0  0  0  0  0  0  0  0  0
    6.8110   -7.1532    0.0000 C   0  0  0  0  0  0  0  0  0  0  0  0
    7.5255   -6.7407    0.0000 C   0  0  0  0  0  0  0  0  0  0  0  0
    8.2399   -7.1532    0.0000 C   0  0  0  0  0  0  0  0  0  0  0  0
    8.9544   -6.7407    0.0000 O   0  3  0  0  0  0  0  0  0  0  0  0
   10.3834   -8.3907    0.0000 O   0  0  0  0  0  0  0  0  0  0  0  0
    7.5255   -9.2157    0.0000 O   0  0  0  0  0  0  0  0  0  0  0  0
    6.0965   -6.7407    0.0000 O   0  0  0  0  0  0  0  0  0  0  0  0
   10.3834   -6.7407    0.0000 C   0  0  0  0  0  0  0  0  0  0  0  0
   11.0978   -7.1532    0.0000 C   0  0  0  0  0  0  0  0  0  0  0  0
   11.8123   -6.7407    0.0000 C   0  0  0  0  0  0  0  0  0  0  0  0
   11.8123   -5.9157    0.0000 C   0  0  0  0  0  0  0  0  0  0  0  0
   11.0978   -5.5032    0.0000 C   0  0  0  0  0  0  0  0  0  0  0  0
   10.3834   -5.9157    0.0000 C   0  0  0  0  0  0  0  0  0  0  0  0
   11.0978   -4.6782    0.0000 O   0  0  0  0  0  0  0  0  0  0  0  0
   11.8123   -4.2657    0.0000 C   0  0  0  0  0  0  0  0  0  0  0  0
   12.5268   -7.1532    0.0000 O   0  0  0  0  0  0  0  0  0  0  0  0
   13.2412   -6.7407    0.0000 C   0  0  0  0  0  0  0  0  0  0  0  0
   12.5268   -5.5032    0.0000 O   0  0  0  0  0  0  0  0  0  0  0  0
    9.6571  -10.4768    0.0000 C   0  0  2  0  0  0  0  0  0  0  0  0
   10.3700  -10.8919    0.0000 C   0  0  2  0  0  0  0  0  0  0  0  0
   11.0860  -10.4821    0.0000 C   0  0  1  0  0  0  0  0  0  0  0  0
   11.0891   -9.6571    0.0000 C   0  0  2  0  0  0  0  0  0  0  0  0
   10.3762   -9.2420    0.0000 C   0  0  1  0  0  0  0  0  0  0  0  0
    9.6602   -9.6518    0.0000 O   0  0  0  0  0  0  0  0  0  0  0  0
    8.9411  -10.8866    0.0000 C   0  0  0  0  0  0  0  0  0  0  0  0
   11.7989  -10.8973    0.0000 O   0  0  0  0  0  0  0  0  0  0  0  0
   10.3669  -11.7169    0.0000 O   0  0  0  0  0  0  0  0  0  0  0  0
   11.8051   -9.2473    0.0000 O   0  0  0  0  0  0  0  0  0  0  0  0
    8.9380  -11.7116    0.0000 O   0  0  0  0  0  0  0  0  0  0  0  0
    5.3771   -9.6285    0.0000 C   0  0  2  0  0  0  0  0  0  0  0  0
    5.3739  -10.4535    0.0000 C   0  0  2  0  0  0  0  0  0  0  0  0
    6.0867  -10.8688    0.0000 C   0  0  1  0  0  0  0  0  0  0  0  0
    6.8028  -10.4592    0.0000 C   0  0  2  0  0  0  0  0  0  0  0  0
    6.8061   -9.6342    0.0000 C   0  0  1  0  0  0  0  0  0  0  0  0
    6.0932   -9.2188    0.0000 O   0  0  0  0  0  0  0  0  0  0  0  0
    4.6643   -9.2132    0.0000 C   0  0  0  0  0  0  0  0  0  0  0  0
    6.0834  -11.6938    0.0000 O   0  0  0  0  0  0  0  0  0  0  0  0
    4.6578  -10.8631    0.0000 O   0  0  0  0  0  0  0  0  0  0  0  0
    7.5156  -10.8745    0.0000 O   0  0  0  0  0  0  0  0  0  0  0  0
    3.9482   -9.6228    0.0000 O   0  0  0  0  0  0  0  0  0  0  0  0
    3.2354   -9.2075    0.0000 C   0  0  0  0  0  0  0  0  0  0  0  0
    2.5193   -9.6171    0.0000 C   0  0  0  0  0  0  0  0  0  0  0  0
    1.8065   -9.2018    0.0000 C   0  0  0  0  0  0  0  0  0  0  0  0
    1.0903   -9.6115    0.0000 O   0  0  0  0  0  0  0  0  0  0  0  0
    1.8097   -8.3768    0.0000 O   0  0  0  0  0  0  0  0  0  0  0  0
    3.2387   -8.3825    0.0000 O   0  0  0  0  0  0  0  0  0  0  0  0
  1  2  2  0  0  0  0
  2  3  1  0  0  0  0
  3  4  2  0  0  0  0
  4  5  1  0  0  0  0
  5  6  2  0  0  0  0
  6  7  1  0  0  0  0
  7  8  2  0  0  0  0
  8  9  1  0  0  0  0
  4  9  1  0  0  0  0
  9 10  2  0  0  0  0
  1 10  1  0  0  0  0
  2 11  1  0  0  0  0
  5 12  1  0  0  0  0
  7 13  1  0  0  0  0
 14 15  1  0  0  0  0
 15 16  2  0  0  0  0
 16 17  1  0  0  0  0
 17 18  2  0  0  0  0
 18 19  1  0  0  0  0
 14 19  2  0  0  0  0
 20 21  1  0  0  0  0
 18 20  1  0  0  0  0
 22 23  1  0  0  0  0
 16 22  1  0  0  0  0
 17 24  1  0  0  0  0
  1 14  1  0  0  0  0
 25 26  1  0  0  0  0
 26 27  1  0  0  0  0
 27 28  1  0  0  0  0
 28 29  1  0  0  0  0
 29 30  1  0  0  0  0
 30 25  1  0  0  0  0
 25 31  1  1  0  0  0
 27 32  1  1  0  0  0
 26 33  1  6  0  0  0
 28 34  1  6  0  0  0
 31 35  1  0  0  0  0
 36 37  1  0  0  0  0
 37 38  1  0  0  0  0
 38 39  1  0  0  0  0
 39 40  1  0  0  0  0
 40 41  1  0  0  0  0
 41 36  1  0  0  0  0
 36 42  1  1  0  0  0
 38 43  1  1  0  0  0
 37 44  1  6  0  0  0
 39 45  1  6  0  0  0
 42 46  1  0  0  0  0
 40 12  1  1  0  0  0
 29 11  1  1  0  0  0
 46 47  1  0  0  0  0
 47 48  1  0  0  0  0
 48 49  1  0  0  0  0
 49 50  1  0  0  0  0
 49 51  2  0  0  0  0
 47 52  2  0  0  0  0
M  CHG  1  10   1
M  END
>  <cdx:groupId>
76

>  <cdx:fragmentId>
5

$$$$
