95702.cdx
  Mrv1902 05222410212D          

 51 54  0  0  0  0            999 V2000
    4.4137   -9.3244    0.0000 C   0  0  1  0  0  0  0  0  0  0  0  0
    4.8270  -10.0384    0.0000 C   0  0  2  0  0  0  0  0  0  0  0  0
    5.6520  -10.0375    0.0000 O   0  0  0  0  0  0  0  0  0  0  0  0
    4.4153  -10.7534    0.0000 C   0  0  1  0  0  0  0  0  0  0  0  0
    4.8286  -11.4674    0.0000 O   0  0  0  0  0  0  0  0  0  0  0  0
    3.5903  -10.7543    0.0000 C   0  0  2  0  0  0  0  0  0  0  0  0
    3.1786  -11.4692    0.0000 O   0  0  0  0  0  0  0  0  0  0  0  0
    3.1770  -10.0402    0.0000 C   0  0  2  0  0  0  0  0  0  0  0  0
    3.5887   -9.3253    0.0000 O   0  0  0  0  0  0  0  0  0  0  0  0
    2.3520  -10.0411    0.0000 C   0  0  0  0  0  0  0  0  0  0  0  0
    1.9403  -10.7561    0.0000 O   0  0  0  0  0  0  0  0  0  0  0  0
    4.8093   -7.1781    0.0000 C   0  0  1  0  0  0  0  0  0  0  0  0
    4.4000   -7.8944    0.0000 C   0  0  2  0  0  0  0  0  0  0  0  0
    4.8157   -8.6070    0.0000 O   0  0  0  0  0  0  0  0  0  0  0  0
    3.5750   -7.8981    0.0000 C   0  0  1  0  0  0  0  0  0  0  0  0
    3.1657   -8.6144    0.0000 O   0  0  0  0  0  0  0  0  0  0  0  0
    3.1593   -7.1855    0.0000 C   0  0  2  0  0  0  0  0  0  0  0  0
    2.3343   -7.1892    0.0000 O   0  0  0  0  0  0  0  0  0  0  0  0
    3.5686   -6.4692    0.0000 C   0  0  2  0  0  0  0  0  0  0  0  0
    4.3936   -6.4655    0.0000 O   0  0  0  0  0  0  0  0  0  0  0  0
    3.1529   -5.7565    0.0000 C   0  0  0  0  0  0  0  0  0  0  0  0
    2.3279   -5.7602    0.0000 O   0  0  0  0  0  0  0  0  0  0  0  0
    8.4984   -5.5291    0.0000 O   0  0  0  0  0  0  0  0  0  0  0  0
    7.7840   -5.9416    0.0000 C   0  0  1  0  0  0  0  0  0  0  0  0
    7.7840   -6.7666    0.0000 C   0  0  2  0  0  0  0  0  0  0  0  0
    8.4984   -7.1791    0.0000 O   0  0  0  0  0  0  0  0  0  0  0  0
    7.0695   -7.1791    0.0000 C   0  0  1  0  0  0  0  0  0  0  0  0
    7.0695   -8.0041    0.0000 O   0  0  0  0  0  0  0  0  0  0  0  0
    6.3550   -6.7666    0.0000 C   0  0  2  0  0  0  0  0  0  0  0  0
    5.6405   -7.1791    0.0000 O   0  0  0  0  0  0  0  0  0  0  0  0
    6.3550   -5.9416    0.0000 C   0  0  2  0  0  0  0  0  0  0  0  0
    7.0695   -5.5291    0.0000 O   0  0  0  0  0  0  0  0  0  0  0  0
    5.6405   -5.5291    0.0000 C   0  0  0  0  0  0  0  0  0  0  0  0
    4.9261   -5.9416    0.0000 O   0  0  0  0  0  0  0  0  0  0  0  0
    9.2129   -5.9416    0.0000 C   0  0  0  0  0  0  0  0  0  0  0  0
    9.9274   -5.5291    0.0000 C   0  0  0  0  0  0  0  0  0  0  0  0
   10.6418   -5.9416    0.0000 C   0  0  0  0  0  0  0  0  0  0  0  0
   11.3563   -5.5291    0.0000 C   0  0  0  0  0  0  0  0  0  0  0  0
   12.0708   -5.9416    0.0000 C   0  0  0  0  0  0  0  0  0  0  0  0
   12.7853   -5.5291    0.0000 C   0  0  0  0  0  0  0  0  0  0  0  0
    6.0653  -10.7516    0.0000 C   0  0  2  0  0  0  0  0  0  0  0  0
    5.6543  -11.4669    0.0000 O   0  0  0  0  0  0  0  0  0  0  0  0
    6.0653  -12.1805    0.0000 C   0  0  1  0  0  0  0  0  0  0  0  0
    6.8903  -12.1805    0.0000 C   0  0  2  0  0  0  0  0  0  0  0  0
    7.3012  -11.4669    0.0000 C   0  0  1  0  0  0  0  0  0  0  0  0
    6.8903  -10.7516    0.0000 C   0  0  1  0  0  0  0  0  0  0  0  0
    5.6524  -12.8947    0.0000 C   0  0  0  0  0  0  0  0  0  0  0  0
    8.1262  -11.4674    0.0000 O   0  0  0  0  0  0  0  0  0  0  0  0
    7.3036  -10.0375    0.0000 O   0  0  0  0  0  0  0  0  0  0  0  0
    7.3032  -12.8947    0.0000 O   0  0  0  0  0  0  0  0  0  0  0  0
    6.0645  -13.6094    0.0000 O   0  0  0  0  0  0  0  0  0  0  0  0
  1 14  1  1  0  0  0
 12 30  1  1  0  0  0
  1  2  1  0  0  0  0
  2  3  1  6  0  0  0
  2  4  1  0  0  0  0
  4  5  1  1  0  0  0
  4  6  1  0  0  0  0
  6  7  1  6  0  0  0
  6  8  1  0  0  0  0
  8  9  1  0  0  0  0
  8 10  1  1  0  0  0
 10 11  1  0  0  0  0
  1  9  1  0  0  0  0
 12 13  1  0  0  0  0
 13 14  1  6  0  0  0
 13 15  1  0  0  0  0
 15 16  1  1  0  0  0
 15 17  1  0  0  0  0
 17 18  1  6  0  0  0
 17 19  1  0  0  0  0
 19 20  1  0  0  0  0
 19 21  1  1  0  0  0
 21 22  1  0  0  0  0
 12 20  1  0  0  0  0
 24 23  1  1  0  0  0
 24 25  1  0  0  0  0
 25 26  1  6  0  0  0
 25 27  1  0  0  0  0
 27 28  1  1  0  0  0
 27 29  1  0  0  0  0
 29 30  1  6  0  0  0
 29 31  1  0  0  0  0
 31 32  1  0  0  0  0
 31 33  1  1  0  0  0
 33 34  1  0  0  0  0
 24 32  1  0  0  0  0
 35 36  1  0  0  0  0
 36 37  1  0  0  0  0
 37 38  1  0  0  0  0
 38 39  1  0  0  0  0
 39 40  1  0  0  0  0
 23 35  1  0  0  0  0
 41  3  1  1  0  0  0
 41 42  1  0  0  0  0
 42 43  1  0  0  0  0
 43 44  1  0  0  0  0
 44 45  1  0  0  0  0
 45 46  1  0  0  0  0
 46 41  1  0  0  0  0
 43 47  1  1  0  0  0
 45 48  1  1  0  0  0
 46 49  1  6  0  0  0
 44 50  1  6  0  0  0
 47 51  1  0  0  0  0
M  END
>  <cdx:fragmentId>
5

$$$$
