95711.cdx
  Mrv1902 05222410232D          

 78 86  0  0  0  0            999 V2000
    1.0706   -6.5450    0.0000 C   0  0  2  0  0  0  0  0  0  0  0  0
    1.0706   -7.3700    0.0000 C   0  0  2  0  0  0  0  0  0  0  0  0
    1.7850   -7.7825    0.0000 C   0  0  1  0  0  0  0  0  0  0  0  0
    2.4995   -7.3700    0.0000 O   0  0  0  0  0  0  0  0  0  0  0  0
    2.4995   -6.5450    0.0000 C   0  0  0  0  0  0  0  0  0  0  0  0
    1.7850   -6.1325    0.0000 C   0  0  1  0  0  0  0  0  0  0  0  0
    1.7850   -8.6075    0.0000 O   0  0  0  0  0  0  0  0  0  0  0  0
    2.4995   -9.0200    0.0000 C   0  0  1  0  0  0  0  0  0  0  0  0
    3.2140   -8.6075    0.0000 C   0  0  2  0  0  0  0  0  0  0  0  0
    3.2140   -7.7825    0.0000 O   0  0  0  0  0  0  0  0  0  0  0  0
    2.4995   -9.8450    0.0000 C   0  0  2  0  0  0  0  0  0  0  0  0
    3.2140  -10.2575    0.0000 C   0  0  2  0  0  0  0  0  0  0  0  0
    3.9284   -9.8450    0.0000 C   0  0  0  0  0  0  0  0  0  0  0  0
    3.9284   -9.0200    0.0000 O   0  0  0  0  0  0  0  0  0  0  0  0
    4.6429   -7.7825    0.0000 C   0  0  2  0  0  0  0  0  0  0  0  0
    3.9284   -7.3700    0.0000 C   0  0  2  0  0  0  0  0  0  0  0  0
    5.3574   -7.3700    0.0000 C   0  0  0  0  0  0  0  0  0  0  0  0
    5.3574   -6.5450    0.0000 C   0  0  2  0  0  0  0  0  0  0  0  0
    4.6429   -6.1325    0.0000 C   0  0  0  0  0  0  0  0  0  0  0  0
    3.9284   -6.5450    0.0000 C   0  0  0  0  0  0  0  0  0  0  0  0
    6.0719   -7.7825    0.0000 C   0  0  0  0  0  0  0  0  0  0  0  0
    6.7863   -7.3700    0.0000 C   0  0  0  0  0  0  0  0  0  0  0  0
    6.7863   -6.5450    0.0000 C   0  0  2  0  0  0  0  0  0  0  0  0
    6.0719   -6.1325    0.0000 C   0  0  0  0  0  0  0  0  0  0  0  0
    7.5008   -6.1325    0.0000 C   0  0  1  0  0  0  0  0  0  0  0  0
    7.5008   -5.3075    0.0000 C   0  0  0  0  0  0  0  0  0  0  0  0
    6.7863   -4.8950    0.0000 C   0  0  0  0  0  0  0  0  0  0  0  0
    6.0719   -5.3075    0.0000 C   0  0  0  0  0  0  0  0  0  0  0  0
    8.2153   -6.5450    0.0000 C   0  0  0  0  0  0  0  0  0  0  0  0
    8.9297   -6.1325    0.0000 C   0  0  0  0  0  0  0  0  0  0  0  0
    8.9297   -5.3075    0.0000 C   0  0  0  0  0  0  0  0  0  0  0  0
    8.2153   -4.8950    0.0000 C   0  0  0  0  0  0  0  0  0  0  0  0
    9.6442   -4.8950    0.0000 C   0  0  0  0  0  0  0  0  0  0  0  0
    9.6442   -4.0700    0.0000 C   0  0  0  0  0  0  0  0  0  0  0  0
    8.9297   -3.6575    0.0000 C   0  0  2  0  0  0  0  0  0  0  0  0
    8.2153   -4.0700    0.0000 C   0  0  0  0  0  0  0  0  0  0  0  0
   10.3587   -5.3075    0.0000 C   0  0  0  0  0  0  0  0  0  0  0  0
   11.0731   -4.8950    0.0000 O   0  0  0  0  0  0  0  0  0  0  0  0
   10.3587   -6.1325    0.0000 O   0  0  0  0  0  0  0  0  0  0  0  0
   11.0731   -6.5450    0.0000 C   0  0  1  0  0  0  0  0  0  0  0  0
   11.7876   -6.1325    0.0000 C   0  0  2  0  0  0  0  0  0  0  0  0
   11.7876   -5.3075    0.0000 O   0  0  0  0  0  0  0  0  0  0  0  0
   11.0731   -7.3700    0.0000 O   0  0  0  0  0  0  0  0  0  0  0  0
   11.7876   -7.7825    0.0000 C   0  0  1  0  0  0  0  0  0  0  0  0
   12.5021   -7.3700    0.0000 C   0  0  2  0  0  0  0  0  0  0  0  0
   12.5021   -6.5450    0.0000 C   0  0  2  0  0  0  0  0  0  0  0  0
   11.7876   -8.6075    0.0000 C   0  0  0  0  0  0  0  0  0  0  0  0
   12.5021   -9.0200    0.0000 O   0  0  0  0  0  0  0  0  0  0  0  0
   13.2166   -7.7825    0.0000 O   0  0  0  0  0  0  0  0  0  0  0  0
   11.7876  -10.2575    0.0000 O   0  0  0  0  0  0  0  0  0  0  0  0
   12.5021   -9.8450    0.0000 C   0  0  2  0  0  0  0  0  0  0  0  0
   11.7876  -11.0825    0.0000 C   0  0  1  0  0  0  0  0  0  0  0  0
   12.5021  -11.4950    0.0000 C   0  0  2  0  0  0  0  0  0  0  0  0
   13.2166  -11.0825    0.0000 C   0  0  1  0  0  0  0  0  0  0  0  0
   13.2166  -10.2575    0.0000 C   0  0  1  0  0  0  0  0  0  0  0  0
   10.3587  -11.0825    0.0000 O   0  0  0  0  0  0  0  0  0  0  0  0
   11.0731  -11.4950    0.0000 C   0  0  0  0  0  0  0  0  0  0  0  0
    1.7850   -5.3075    0.0000 O   0  0  0  0  0  0  0  0  0  0  0  0
    0.3561   -7.7825    0.0000 O   0  0  0  0  0  0  0  0  0  0  0  0
    1.0706   -8.1950    0.0000 H   0  0  0  0  0  0  0  0  0  0  0  0
    1.7850  -10.2575    0.0000 O   0  0  0  0  0  0  0  0  0  0  0  0
    3.2140  -11.0825    0.0000 O   0  0  0  0  0  0  0  0  0  0  0  0
    5.0554   -8.4970    0.0000 C   0  0  0  0  0  0  0  0  0  0  0  0
    7.5008   -6.9575    0.0000 C   0  0  0  0  0  0  0  0  0  0  0  0
    9.3422   -2.9430    0.0000 C   0  0  0  0  0  0  0  0  0  0  0  0
   11.0731   -5.7200    0.0000 H   0  0  0  0  0  0  0  0  0  0  0  0
   13.2166   -9.4325    0.0000 H   0  0  0  0  0  0  0  0  0  0  0  0
   13.9310   -9.8450    0.0000 O   0  0  0  0  0  0  0  0  0  0  0  0
   12.5021  -12.3200    0.0000 O   0  0  0  0  0  0  0  0  0  0  0  0
    0.3561   -6.1325    0.0000 O   0  0  0  0  0  0  0  0  0  0  0  0
    2.4995   -8.1950    0.0000 H   0  0  0  0  0  0  0  0  0  0  0  0
    4.2304   -8.4970    0.0000 C   0  0  0  0  0  0  0  0  0  0  0  0
    5.3574   -5.7200    0.0000 C   0  0  0  0  0  0  0  0  0  0  0  0
    6.7863   -5.7200    0.0000 C   0  0  0  0  0  0  0  0  0  0  0  0
    8.5172   -2.9430    0.0000 C   0  0  0  0  0  0  0  0  0  0  0  0
   13.2166   -6.1325    0.0000 O   0  0  0  0  0  0  0  0  0  0  0  0
   13.9310  -11.4950    0.0000 O   0  0  0  0  0  0  0  0  0  0  0  0
    5.0554   -9.3220    0.0000 O   0  0  0  0  0  0  0  0  0  0  0  0
  1  2  1  0  0  0  0
  2  3  1  0  0  0  0
  3  4  1  0  0  0  0
  4  5  1  0  0  0  0
  5  6  1  0  0  0  0
  6  1  1  0  0  0  0
  3  7  1  0  0  0  0
  8  7  1  1  0  0  0
  8  9  1  0  0  0  0
  9 10  1  0  0  0  0
  8 11  1  0  0  0  0
 11 12  1  0  0  0  0
 12 13  1  0  0  0  0
 13 14  1  0  0  0  0
 14  9  1  0  0  0  0
 15 16  1  0  0  0  0
 16 10  1  1  0  0  0
 15 17  1  0  0  0  0
 17 18  1  0  0  0  0
 18 19  1  0  0  0  0
 19 20  1  0  0  0  0
 20 16  1  0  0  0  0
 17 21  1  0  0  0  0
 21 22  1  0  0  0  0
 22 23  1  0  0  0  0
 23 24  1  0  0  0  0
 24 18  1  0  0  0  0
 23 25  1  0  0  0  0
 25 26  1  0  0  0  0
 26 27  2  0  0  0  0
 27 28  1  0  0  0  0
 28 24  1  0  0  0  0
 25 29  1  0  0  0  0
 29 30  1  0  0  0  0
 30 31  1  0  0  0  0
 31 32  1  0  0  0  0
 32 26  1  0  0  0  0
 31 33  1  0  0  0  0
 33 34  1  0  0  0  0
 34 35  1  0  0  0  0
 35 36  1  0  0  0  0
 36 32  1  0  0  0  0
 33 37  1  0  0  0  0
 37 38  2  0  0  0  0
 37 39  1  0  0  0  0
 39 40  1  0  0  0  0
 40 41  1  0  0  0  0
 41 42  1  6  0  0  0
 40 43  1  0  0  0  0
 43 44  1  0  0  0  0
 44 45  1  0  0  0  0
 45 46  1  0  0  0  0
 46 41  1  0  0  0  0
 44 47  1  1  0  0  0
 47 48  1  0  0  0  0
 45 49  1  6  0  0  0
 50 51  1  0  0  0  0
 51 48  1  0  0  0  0
 50 52  1  0  0  0  0
 52 53  1  0  0  0  0
 53 54  1  0  0  0  0
 54 55  1  0  0  0  0
 55 51  1  0  0  0  0
 56 57  1  0  0  0  0
 52 57  1  1  0  0  0
  6 58  1  6  0  0  0
  2 59  1  6  0  0  0
  3 60  1  6  0  0  0
 11 61  1  6  0  0  0
 12 62  1  6  0  0  0
 15 63  1  6  0  0  0
 25 64  1  6  0  0  0
 35 65  1  6  0  0  0
 40 66  1  6  0  0  0
 51 67  1  6  0  0  0
 55 68  1  6  0  0  0
 53 69  1  6  0  0  0
  1 70  1  1  0  0  0
  9 71  1  1  0  0  0
 15 72  1  1  0  0  0
 18 73  1  1  0  0  0
 23 74  1  1  0  0  0
 35 75  1  1  0  0  0
 46 76  1  1  0  0  0
 54 77  1  1  0  0  0
 63 78  1  0  0  0  0
M  END
>  <cdx:fragmentId>
5

$$$$
