95721.cdx
  Mrv1902 05222410232D          

 77 85  0  0  0  0            999 V2000
    8.9646   -4.9538    0.0000 C   0  0  0  0  0  0  0  0  0  0  0  0
    9.5362   -4.6238    0.0000 C   0  0  0  0  0  0  0  0  0  0  0  0
   10.1078   -4.9538    0.0000 C   0  0  0  0  0  0  0  0  0  0  0  0
   10.1078   -5.6138    0.0000 C   0  0  0  0  0  0  0  0  0  0  0  0
    9.5362   -5.9438    0.0000 C   0  0  2  0  0  0  0  0  0  0  0  0
    9.5362   -6.6038    0.0000 C   0  0  0  0  0  0  0  0  0  0  0  0
    8.9646   -6.9338    0.0000 C   0  0  0  0  0  0  0  0  0  0  0  0
    8.3930   -6.6038    0.0000 C   0  0  2  0  0  0  0  0  0  0  0  0
    7.8215   -6.9338    0.0000 C   0  0  1  0  0  0  0  0  0  0  0  0
    7.8215   -7.5938    0.0000 C   0  0  0  0  0  0  0  0  0  0  0  0
    7.2499   -7.9238    0.0000 C   0  0  0  0  0  0  0  0  0  0  0  0
    6.6783   -7.5938    0.0000 C   0  0  1  0  0  0  0  0  0  0  0  0
    6.1067   -7.9238    0.0000 C   0  0  2  0  0  0  0  0  0  0  0  0
    5.5351   -7.5938    0.0000 C   0  0  2  0  0  0  0  0  0  0  0  0
    5.5351   -6.9338    0.0000 C   0  0  0  0  0  0  0  0  0  0  0  0
    6.1067   -6.6038    0.0000 C   0  0  0  0  0  0  0  0  0  0  0  0
    6.6783   -6.9338    0.0000 C   0  0  2  0  0  0  0  0  0  0  0  0
    7.2499   -6.6038    0.0000 C   0  0  1  0  0  0  0  0  0  0  0  0
    7.2499   -5.9438    0.0000 C   0  0  0  0  0  0  0  0  0  0  0  0
    7.8215   -5.6138    0.0000 C   0  0  0  0  0  0  0  0  0  0  0  0
    8.3930   -5.9438    0.0000 C   0  0  0  0  0  0  0  0  0  0  0  0
    8.9646   -5.6138    0.0000 C   0  0  2  0  0  0  0  0  0  0  0  0
   10.1078   -6.2738    0.0000 C   0  0  0  0  0  0  0  0  0  0  0  0
   10.1078   -6.9338    0.0000 O   0  0  0  0  0  0  0  0  0  0  0  0
   10.6793   -5.9438    0.0000 O   0  0  0  0  0  0  0  0  0  0  0  0
    6.6783   -6.2738    0.0000 C   0  0  0  0  0  0  0  0  0  0  0  0
    5.7767   -8.4954    0.0000 C   0  0  0  0  0  0  0  0  0  0  0  0
    9.2062   -4.0522    0.0000 C   0  0  0  0  0  0  0  0  0  0  0  0
    9.8662   -4.0522    0.0000 C   0  0  0  0  0  0  0  0  0  0  0  0
    4.9636   -7.9238    0.0000 O   0  0  0  0  0  0  0  0  0  0  0  0
    6.4367   -8.4954    0.0000 C   0  0  0  0  0  0  0  0  0  0  0  0
    6.1067   -9.0670    0.0000 O   0  0  0  0  0  0  0  0  0  0  0  0
    6.6783   -8.2538    0.0000 H   0  0  0  0  0  0  0  0  0  0  0  0
    8.9646   -6.2738    0.0000 H   0  0  0  0  0  0  0  0  0  0  0  0
    7.8215   -6.2738    0.0000 H   0  0  0  0  0  0  0  0  0  0  0  0
    8.7230   -7.1754    0.0000 C   0  0  0  0  0  0  0  0  0  0  0  0
    8.1515   -7.5054    0.0000 C   0  0  0  0  0  0  0  0  0  0  0  0
    3.8208   -6.6015    0.0000 C   0  0  0  0  0  0  0  0  0  0  0  0
    3.2482   -6.9298    0.0000 C   0  0  1  0  0  0  0  0  0  0  0  0
    3.2463   -7.5898    0.0000 C   0  0  1  0  0  0  0  0  0  0  0  0
    3.8168   -7.9215    0.0000 C   0  0  2  0  0  0  0  0  0  0  0  0
    4.3894   -7.5932    0.0000 C   0  0  1  0  0  0  0  0  0  0  0  0
    4.3914   -6.9332    0.0000 O   0  0  0  0  0  0  0  0  0  0  0  0
    2.6737   -7.9181    0.0000 O   0  0  0  0  0  0  0  0  0  0  0  0
    2.6776   -6.5981    0.0000 O   0  0  0  0  0  0  0  0  0  0  0  0
    3.8149   -8.5815    0.0000 O   0  0  0  0  0  0  0  0  0  0  0  0
    3.2423   -8.9098    0.0000 C   0  0  2  0  0  0  0  0  0  0  0  0
    2.6717   -8.5781    0.0000 O   0  0  0  0  0  0  0  0  0  0  0  0
    2.0992   -8.9064    0.0000 C   0  0  0  0  0  0  0  0  0  0  0  0
    2.0972   -9.5664    0.0000 C   0  0  2  0  0  0  0  0  0  0  0  0
    2.6678   -9.8981    0.0000 C   0  0  1  0  0  0  0  0  0  0  0  0
    3.2404   -9.5698    0.0000 C   0  0  1  0  0  0  0  0  0  0  0  0
    1.5247   -9.8947    0.0000 O   0  0  0  0  0  0  0  0  0  0  0  0
    3.8110   -9.9015    0.0000 O   0  0  0  0  0  0  0  0  0  0  0  0
    2.6659  -10.5581    0.0000 O   0  0  0  0  0  0  0  0  0  0  0  0
   11.2432   -8.2637    0.0000 C   0  0  2  0  0  0  0  0  0  0  0  0
   11.8149   -7.9338    0.0000 C   0  0  2  0  0  0  0  0  0  0  0  0
   11.8150   -7.2738    0.0000 C   0  0  1  0  0  0  0  0  0  0  0  0
   11.2435   -6.9437    0.0000 C   0  0  2  0  0  0  0  0  0  0  0  0
   10.6719   -7.2736    0.0000 C   0  0  1  0  0  0  0  0  0  0  0  0
   10.6717   -7.9336    0.0000 O   0  0  0  0  0  0  0  0  0  0  0  0
   11.2431   -8.9237    0.0000 C   0  0  0  0  0  0  0  0  0  0  0  0
   12.3867   -6.9439    0.0000 O   0  0  0  0  0  0  0  0  0  0  0  0
   12.3864   -8.2639    0.0000 O   0  0  0  0  0  0  0  0  0  0  0  0
   11.2437   -6.2837    0.0000 O   0  0  0  0  0  0  0  0  0  0  0  0
   11.8146   -9.2538    0.0000 O   0  0  0  0  0  0  0  0  0  0  0  0
   11.2381  -10.9180    0.0000 C   0  0  2  0  0  0  0  0  0  0  0  0
   11.8087  -11.2497    0.0000 C   0  0  2  0  0  0  0  0  0  0  0  0
   12.3812  -10.9214    0.0000 C   0  0  1  0  0  0  0  0  0  0  0  0
   12.3832  -10.2614    0.0000 C   0  0  2  0  0  0  0  0  0  0  0  0
   11.8126   -9.9297    0.0000 C   0  0  1  0  0  0  0  0  0  0  0  0
   11.2400  -10.2580    0.0000 O   0  0  0  0  0  0  0  0  0  0  0  0
   10.6655  -11.2463    0.0000 C   0  0  0  0  0  0  0  0  0  0  0  0
   12.9518  -11.2530    0.0000 O   0  0  0  0  0  0  0  0  0  0  0  0
   11.8068  -11.9097    0.0000 O   0  0  0  0  0  0  0  0  0  0  0  0
   12.9557   -9.9330    0.0000 O   0  0  0  0  0  0  0  0  0  0  0  0
   10.6636  -11.9063    0.0000 O   0  0  0  0  0  0  0  0  0  0  0  0
  1  2  1  0  0  0  0
  2  3  1  0  0  0  0
  3  4  1  0  0  0  0
  4  5  1  0  0  0  0
  5  6  1  0  0  0  0
  6  7  1  0  0  0  0
  7  8  1  0  0  0  0
  8  9  1  0  0  0  0
  9 10  1  0  0  0  0
 10 11  1  0  0  0  0
 11 12  1  0  0  0  0
 12 13  1  0  0  0  0
 13 14  1  0  0  0  0
 14 15  1  0  0  0  0
 15 16  1  0  0  0  0
 16 17  1  0  0  0  0
 12 17  1  0  0  0  0
 17 18  1  0  0  0  0
  9 18  1  0  0  0  0
 18 19  1  0  0  0  0
 19 20  1  0  0  0  0
 20 21  2  0  0  0  0
  8 21  1  0  0  0  0
 21 22  1  0  0  0  0
  5 22  1  0  0  0  0
  1 22  1  0  0  0  0
 23 24  1  0  0  0  0
 23 25  2  0  0  0  0
  5 23  1  1  0  0  0
 17 26  1  1  0  0  0
 13 27  1  1  0  0  0
  2 28  1  0  0  0  0
  2 29  1  0  0  0  0
 14 30  1  1  0  0  0
 31 32  2  0  0  0  0
 13 31  1  0  0  0  0
 12 33  1  6  0  0  0
 22 34  1  1  0  0  0
 18 35  1  6  0  0  0
  8 36  1  1  0  0  0
  9 37  1  6  0  0  0
 38 39  1  0  0  0  0
 39 40  1  0  0  0  0
 40 41  1  0  0  0  0
 41 42  1  0  0  0  0
 42 43  1  0  0  0  0
 43 38  1  0  0  0  0
 40 44  1  1  0  0  0
 39 45  1  1  0  0  0
 41 46  1  6  0  0  0
 47 46  1  1  0  0  0
 47 48  1  0  0  0  0
 48 49  1  0  0  0  0
 49 50  1  0  0  0  0
 50 51  1  0  0  0  0
 51 52  1  0  0  0  0
 52 47  1  0  0  0  0
 50 53  1  6  0  0  0
 52 54  1  6  0  0  0
 51 55  1  1  0  0  0
 42 30  1  1  0  0  0
 56 57  1  0  0  0  0
 57 58  1  0  0  0  0
 58 59  1  0  0  0  0
 59 60  1  0  0  0  0
 60 61  1  0  0  0  0
 61 56  1  0  0  0  0
 56 62  1  1  0  0  0
 58 63  1  1  0  0  0
 57 64  1  6  0  0  0
 59 65  1  6  0  0  0
 62 66  1  0  0  0  0
 67 68  1  0  0  0  0
 68 69  1  0  0  0  0
 69 70  1  0  0  0  0
 70 71  1  0  0  0  0
 71 72  1  0  0  0  0
 72 67  1  0  0  0  0
 67 73  1  1  0  0  0
 69 74  1  1  0  0  0
 68 75  1  6  0  0  0
 70 76  1  6  0  0  0
 73 77  1  0  0  0  0
 60 24  1  1  0  0  0
 71 66  1  1  0  0  0
M  END
>  <cdx:groupId>
114

>  <cdx:fragmentId>
5

$$$$
