95725.cdx
  Mrv1902 05222410252D          

 53 59  0  0  0  0            999 V2000
    7.5009  -10.1074    0.0000 O   0  0  0  0  0  0  0  0  0  0  0  0
    7.0873   -9.3935    0.0000 C   0  0  0  0  0  0  0  0  0  0  0  0
   12.4980   -7.4330    0.0000 O   0  0  0  0  0  0  0  0  0  0  0  0
   13.2105   -6.1944    0.0000 O   0  0  0  0  0  0  0  0  0  0  0  0
    7.4974   -7.8534    0.0000 H   0  0  0  0  0  0  0  0  0  0  0  0
    8.2099   -6.6148    0.0000 H   0  0  0  0  0  0  0  0  0  0  0  0
    9.6388   -6.6125    0.0000 C   0  0  0  0  0  0  0  0  0  0  0  0
    7.9123   -9.3922    0.0000 C   0  0  0  0  0  0  0  0  0  0  0  0
    6.0697   -8.6807    0.0000 O   0  0  0  0  0  0  0  0  0  0  0  0
    8.9263   -7.8512    0.0000 C   0  0  0  0  0  0  0  0  0  0  0  0
   10.3553   -7.8489    0.0000 C   0  0  0  0  0  0  0  0  0  0  0  0
   12.4967   -6.6080    0.0000 C   0  0  0  0  0  0  0  0  0  0  0  0
   10.3513   -5.3739    0.0000 H   0  0  0  0  0  0  0  0  0  0  0  0
    7.4961   -7.0284    0.0000 C   0  0  0  0  0  0  0  0  0  0  0  0
    6.7823   -7.4421    0.0000 C   0  0  0  0  0  0  0  0  0  0  0  0
    6.7836   -8.2671    0.0000 C   0  0  1  0  0  0  0  0  0  0  0  0
    7.4987   -8.6784    0.0000 C   0  0  2  0  0  0  0  0  0  0  0  0
    8.2112   -7.4398    0.0000 C   0  0  2  0  0  0  0  0  0  0  0  0
    8.2125   -8.2648    0.0000 C   0  0  1  0  0  0  0  0  0  0  0  0
    8.9276   -8.6762    0.0000 C   0  0  0  0  0  0  0  0  0  0  0  0
    9.6414   -8.2625    0.0000 C   0  0  0  0  0  0  0  0  0  0  0  0
    9.6375   -5.7875    0.0000 C   0  0  0  0  0  0  0  0  0  0  0  0
    8.9237   -6.2012    0.0000 C   0  0  0  0  0  0  0  0  0  0  0  0
    8.9250   -7.0262    0.0000 C   0  0  1  0  0  0  0  0  0  0  0  0
    9.6401   -7.4375    0.0000 C   0  0  1  0  0  0  0  0  0  0  0  0
   10.3527   -6.1989    0.0000 C   0  0  0  0  0  0  0  0  0  0  0  0
   10.3540   -7.0239    0.0000 C   0  0  2  0  0  0  0  0  0  0  0  0
   11.0691   -7.4353    0.0000 C   0  0  0  0  0  0  0  0  0  0  0  0
   11.7829   -7.0217    0.0000 C   0  0  0  0  0  0  0  0  0  0  0  0
   11.0652   -4.9603    0.0000 C   0  0  0  0  0  0  0  0  0  0  0  0
   11.0665   -5.7853    0.0000 C   0  0  2  0  0  0  0  0  0  0  0  0
   11.7816   -6.1967    0.0000 C   0  0  1  0  0  0  0  0  0  0  0  0
   12.4954   -5.7830    0.0000 C   0  0  0  0  0  0  0  0  0  0  0  0
   12.4941   -4.9580    0.0000 C   0  0  0  0  0  0  0  0  0  0  0  0
   11.7790   -4.5467    0.0000 C   0  0  0  0  0  0  0  0  0  0  0  0
    5.3652   -7.4409    0.0000 O   0  0  0  0  0  0  0  0  0  0  0  0
    5.3652   -8.2659    0.0000 C   0  0  2  0  0  0  0  0  0  0  0  0
    4.6508   -7.0284    0.0000 C   0  0  0  0  0  0  0  0  0  0  0  0
    3.9363   -7.4409    0.0000 C   0  0  1  0  0  0  0  0  0  0  0  0
    3.9363   -8.2659    0.0000 C   0  0  1  0  0  0  0  0  0  0  0  0
    4.6508   -8.6784    0.0000 C   0  0  1  0  0  0  0  0  0  0  0  0
    3.2218   -8.6784    0.0000 O   0  0  0  0  0  0  0  0  0  0  0  0
    3.2218   -7.0284    0.0000 O   0  0  0  0  0  0  0  0  0  0  0  0
    4.6508   -9.5034    0.0000 O   0  0  0  0  0  0  0  0  0  0  0  0
    3.9402  -10.7478    0.0000 C   0  0  1  0  0  0  0  0  0  0  0  0
    3.9335   -9.9228    0.0000 C   0  0  1  0  0  0  0  0  0  0  0  0
    3.2157   -9.5161    0.0000 O   0  0  0  0  0  0  0  0  0  0  0  0
    2.5046   -9.9344    0.0000 C   0  0  0  0  0  0  0  0  0  0  0  0
    2.5113  -10.7593    0.0000 C   0  0  2  0  0  0  0  0  0  0  0  0
    3.2291  -11.1660    0.0000 C   0  0  2  0  0  0  0  0  0  0  0  0
    3.2358  -11.9910    0.0000 O   0  0  0  0  0  0  0  0  0  0  0  0
    4.6580  -11.1544    0.0000 O   0  0  0  0  0  0  0  0  0  0  0  0
    1.8002  -11.1776    0.0000 O   0  0  0  0  0  0  0  0  0  0  0  0
  2  1  1  0  0  0  0
 17  2  1  0  0  0  0
 12  3  2  0  0  0  0
 12  4  1  0  0  0  0
 19  5  1  6  0  0  0
 24  6  1  6  0  0  0
 27  7  1  6  0  0  0
 17  8  1  1  0  0  0
 16  9  1  1  0  0  0
 18 10  1  1  0  0  0
 25 11  1  1  0  0  0
 32 12  1  1  0  0  0
 31 13  1  1  0  0  0
 14 18  1  0  0  0  0
 15 14  1  0  0  0  0
 16 15  1  0  0  0  0
 17 16  1  0  0  0  0
 19 17  1  0  0  0  0
 18 24  1  0  0  0  0
 19 18  1  0  0  0  0
 20 19  1  0  0  0  0
 21 20  1  0  0  0  0
 25 21  1  0  0  0  0
 22 26  2  0  0  0  0
 23 22  1  0  0  0  0
 24 23  1  0  0  0  0
 25 24  1  0  0  0  0
 27 25  1  0  0  0  0
 26 31  1  0  0  0  0
 27 26  1  0  0  0  0
 28 27  1  0  0  0  0
 29 28  1  0  0  0  0
 32 29  1  0  0  0  0
 30 35  1  0  0  0  0
 31 30  1  0  0  0  0
 32 31  1  0  0  0  0
 33 32  1  0  0  0  0
 34 33  1  0  0  0  0
 35 34  1  0  0  0  0
 36 37  1  0  0  0  0
 36 38  1  0  0  0  0
 38 39  1  0  0  0  0
 39 40  1  0  0  0  0
 40 41  1  0  0  0  0
 41 37  1  0  0  0  0
 40 42  1  1  0  0  0
 39 43  1  1  0  0  0
 41 44  1  6  0  0  0
 45 46  1  0  0  0  0
 46 47  1  0  0  0  0
 47 48  1  0  0  0  0
 48 49  1  0  0  0  0
 49 50  1  0  0  0  0
 50 45  1  0  0  0  0
 50 51  1  1  0  0  0
 45 52  1  6  0  0  0
 49 53  1  6  0  0  0
 46 44  1  1  0  0  0
 37  9  1  1  0  0  0
M  END
>  <cdx:fragmentId>
5

$$$$
