95723.cdx
  Mrv1902 05222410242D          

 66 73  0  0  0  0            999 V2000
    9.0609   -5.5451    0.0000 C   0  0  0  0  0  0  0  0  0  0  0  0
    9.6324   -5.2151    0.0000 C   0  0  0  0  0  0  0  0  0  0  0  0
   10.2040   -5.5451    0.0000 C   0  0  0  0  0  0  0  0  0  0  0  0
   10.2040   -6.2051    0.0000 C   0  0  0  0  0  0  0  0  0  0  0  0
    9.6324   -6.5351    0.0000 C   0  0  2  0  0  0  0  0  0  0  0  0
    9.6324   -7.1951    0.0000 C   0  0  0  0  0  0  0  0  0  0  0  0
    9.0609   -7.5251    0.0000 C   0  0  0  0  0  0  0  0  0  0  0  0
    8.4893   -7.1951    0.0000 C   0  0  1  0  0  0  0  0  0  0  0  0
    7.9177   -7.5251    0.0000 C   0  0  2  0  0  0  0  0  0  0  0  0
    7.9177   -8.1851    0.0000 C   0  0  0  0  0  0  0  0  0  0  0  0
    7.3461   -8.5151    0.0000 C   0  0  0  0  0  0  0  0  0  0  0  0
    6.7746   -8.1851    0.0000 C   0  0  1  0  0  0  0  0  0  0  0  0
    6.2030   -8.5151    0.0000 C   0  0  2  0  0  0  0  0  0  0  0  0
    5.6314   -8.1851    0.0000 C   0  0  2  0  0  0  0  0  0  0  0  0
    5.6314   -7.5251    0.0000 C   0  0  0  0  0  0  0  0  0  0  0  0
    6.2030   -7.1951    0.0000 C   0  0  0  0  0  0  0  0  0  0  0  0
    6.7746   -7.5251    0.0000 C   0  0  2  0  0  0  0  0  0  0  0  0
    7.3461   -7.1951    0.0000 C   0  0  1  0  0  0  0  0  0  0  0  0
    7.3461   -6.5351    0.0000 C   0  0  0  0  0  0  0  0  0  0  0  0
    7.9177   -6.2051    0.0000 C   0  0  0  0  0  0  0  0  0  0  0  0
    8.4893   -6.5351    0.0000 C   0  0  0  0  0  0  0  0  0  0  0  0
    9.0609   -6.2051    0.0000 C   0  0  2  0  0  0  0  0  0  0  0  0
   10.2040   -6.8651    0.0000 C   0  0  0  0  0  0  0  0  0  0  0  0
   10.2040   -7.5251    0.0000 O   0  0  0  0  0  0  0  0  0  0  0  0
   10.7756   -6.5351    0.0000 O   0  0  0  0  0  0  0  0  0  0  0  0
    6.7746   -6.8651    0.0000 C   0  0  0  0  0  0  0  0  0  0  0  0
    5.8730   -9.0866    0.0000 C   0  0  0  0  0  0  0  0  0  0  0  0
    9.3024   -4.6435    0.0000 C   0  0  0  0  0  0  0  0  0  0  0  0
    9.9624   -4.6435    0.0000 C   0  0  0  0  0  0  0  0  0  0  0  0
    5.0598   -8.5151    0.0000 O   0  0  0  0  0  0  0  0  0  0  0  0
    6.5330   -9.0866    0.0000 C   0  0  0  0  0  0  0  0  0  0  0  0
    6.2030   -9.6582    0.0000 O   0  0  0  0  0  0  0  0  0  0  0  0
    6.7746   -8.8451    0.0000 H   0  0  0  0  0  0  0  0  0  0  0  0
    9.0609   -6.8651    0.0000 H   0  0  0  0  0  0  0  0  0  0  0  0
    7.9177   -6.8651    0.0000 H   0  0  0  0  0  0  0  0  0  0  0  0
    8.8193   -7.7666    0.0000 C   0  0  0  0  0  0  0  0  0  0  0  0
    8.2477   -8.0966    0.0000 C   0  0  0  0  0  0  0  0  0  0  0  0
   11.3395   -8.8549    0.0000 C   0  0  2  0  0  0  0  0  0  0  0  0
   11.9111   -8.5251    0.0000 C   0  0  2  0  0  0  0  0  0  0  0  0
   11.9113   -7.8651    0.0000 C   0  0  1  0  0  0  0  0  0  0  0  0
   11.3398   -7.5349    0.0000 C   0  0  2  0  0  0  0  0  0  0  0  0
   10.7681   -7.8648    0.0000 C   0  0  1  0  0  0  0  0  0  0  0  0
   10.7680   -8.5248    0.0000 O   0  0  0  0  0  0  0  0  0  0  0  0
   11.3393   -9.5149    0.0000 C   0  0  0  0  0  0  0  0  0  0  0  0
   12.4829   -7.5352    0.0000 O   0  0  0  0  0  0  0  0  0  0  0  0
   12.4826   -8.8552    0.0000 O   0  0  0  0  0  0  0  0  0  0  0  0
   11.3399   -6.8749    0.0000 O   0  0  0  0  0  0  0  0  0  0  0  0
   11.9109   -9.8451    0.0000 O   0  0  0  0  0  0  0  0  0  0  0  0
    3.9185   -7.1894    0.0000 C   0  0  0  0  0  0  0  0  0  0  0  0
    3.3459   -7.5177    0.0000 C   0  0  1  0  0  0  0  0  0  0  0  0
    3.3440   -8.1777    0.0000 C   0  0  1  0  0  0  0  0  0  0  0  0
    3.9145   -8.5094    0.0000 C   0  0  2  0  0  0  0  0  0  0  0  0
    4.4871   -8.1811    0.0000 C   0  0  1  0  0  0  0  0  0  0  0  0
    4.4891   -7.5211    0.0000 O   0  0  0  0  0  0  0  0  0  0  0  0
    2.7714   -8.5060    0.0000 O   0  0  0  0  0  0  0  0  0  0  0  0
    2.7753   -7.1860    0.0000 O   0  0  0  0  0  0  0  0  0  0  0  0
    3.9126   -9.1694    0.0000 O   0  0  0  0  0  0  0  0  0  0  0  0
    3.3400   -9.4977    0.0000 C   0  0  2  0  0  0  0  0  0  0  0  0
    2.7694   -9.1660    0.0000 O   0  0  0  0  0  0  0  0  0  0  0  0
    2.1969   -9.4943    0.0000 C   0  0  0  0  0  0  0  0  0  0  0  0
    2.1949  -10.1543    0.0000 C   0  0  2  0  0  0  0  0  0  0  0  0
    2.7655  -10.4860    0.0000 C   0  0  1  0  0  0  0  0  0  0  0  0
    3.3381  -10.1577    0.0000 C   0  0  1  0  0  0  0  0  0  0  0  0
    1.6224  -10.4826    0.0000 O   0  0  0  0  0  0  0  0  0  0  0  0
    3.9087  -10.4894    0.0000 O   0  0  0  0  0  0  0  0  0  0  0  0
    2.7636  -11.1460    0.0000 O   0  0  0  0  0  0  0  0  0  0  0  0
  1  2  1  0  0  0  0
  2  3  1  0  0  0  0
  3  4  1  0  0  0  0
  4  5  1  0  0  0  0
  5  6  1  0  0  0  0
  6  7  1  0  0  0  0
  7  8  1  0  0  0  0
  8  9  1  0  0  0  0
  9 10  1  0  0  0  0
 10 11  1  0  0  0  0
 11 12  1  0  0  0  0
 12 13  1  0  0  0  0
 13 14  1  0  0  0  0
 14 15  1  0  0  0  0
 15 16  1  0  0  0  0
 16 17  1  0  0  0  0
 12 17  1  0  0  0  0
 17 18  1  0  0  0  0
  9 18  1  0  0  0  0
 18 19  1  0  0  0  0
 19 20  1  0  0  0  0
 20 21  2  0  0  0  0
  8 21  1  0  0  0  0
 21 22  1  0  0  0  0
  5 22  1  0  0  0  0
  1 22  1  0  0  0  0
 23 24  1  0  0  0  0
 23 25  2  0  0  0  0
  5 23  1  1  0  0  0
 17 26  1  1  0  0  0
 13 27  1  1  0  0  0
  2 28  1  0  0  0  0
  2 29  1  0  0  0  0
 14 30  1  1  0  0  0
 31 32  1  0  0  0  0
 13 31  1  0  0  0  0
 12 33  1  6  0  0  0
 22 34  1  1  0  0  0
 18 35  1  6  0  0  0
  8 36  1  6  0  0  0
  9 37  1  1  0  0  0
 38 39  1  0  0  0  0
 39 40  1  0  0  0  0
 40 41  1  0  0  0  0
 41 42  1  0  0  0  0
 42 43  1  0  0  0  0
 43 38  1  0  0  0  0
 38 44  1  1  0  0  0
 40 45  1  1  0  0  0
 39 46  1  6  0  0  0
 41 47  1  6  0  0  0
 44 48  1  0  0  0  0
 42 24  1  1  0  0  0
 49 50  1  0  0  0  0
 50 51  1  0  0  0  0
 51 52  1  0  0  0  0
 52 53  1  0  0  0  0
 53 54  1  0  0  0  0
 54 49  1  0  0  0  0
 51 55  1  1  0  0  0
 50 56  1  1  0  0  0
 52 57  1  6  0  0  0
 58 57  1  1  0  0  0
 58 59  1  0  0  0  0
 59 60  1  0  0  0  0
 60 61  1  0  0  0  0
 61 62  1  0  0  0  0
 62 63  1  0  0  0  0
 63 58  1  0  0  0  0
 61 64  1  6  0  0  0
 63 65  1  6  0  0  0
 62 66  1  1  0  0  0
 53 30  1  1  0  0  0
M  END
>  <cdx:groupId>
114

>  <cdx:fragmentId>
5

$$$$
