95724 .cdx
  Mrv1902 05222410252D          

 45 50  0  0  0  0            999 V2000
    7.6431   -6.3388    0.0000 C   0  0  0  0  0  0  0  0  0  0  0  0
    7.6431   -7.1638    0.0000 C   0  0  1  0  0  0  0  0  0  0  0  0
    8.3575   -7.5762    0.0000 C   0  0  2  0  0  0  0  0  0  0  0  0
    9.0720   -7.1638    0.0000 C   0  0  1  0  0  0  0  0  0  0  0  0
    9.0720   -6.3388    0.0000 C   0  0  0  0  0  0  0  0  0  0  0  0
    8.3575   -5.9262    0.0000 C   0  0  0  0  0  0  0  0  0  0  0  0
    9.7865   -7.5762    0.0000 C   0  0  0  0  0  0  0  0  0  0  0  0
   10.5009   -7.1638    0.0000 C   0  0  0  0  0  0  0  0  0  0  0  0
   10.5009   -6.3388    0.0000 C   0  0  2  0  0  0  0  0  0  0  0  0
    9.7865   -5.9262    0.0000 C   0  0  1  0  0  0  0  0  0  0  0  0
    6.9286   -7.5762    0.0000 C   0  0  2  0  0  0  0  0  0  0  0  0
    6.9286   -8.4013    0.0000 C   0  0  1  0  0  0  0  0  0  0  0  0
    7.6431   -8.8138    0.0000 C   0  0  0  0  0  0  0  0  0  0  0  0
    8.3575   -8.4013    0.0000 C   0  0  0  0  0  0  0  0  0  0  0  0
   11.2154   -5.9262    0.0000 C   0  0  0  0  0  0  0  0  0  0  0  0
   11.2154   -5.1013    0.0000 C   0  0  0  0  0  0  0  0  0  0  0  0
   10.5009   -4.6888    0.0000 C   0  0  0  0  0  0  0  0  0  0  0  0
    9.7865   -5.1013    0.0000 C   0  0  0  0  0  0  0  0  0  0  0  0
    6.2141   -7.1638    0.0000 C   0  0  0  0  0  0  0  0  0  0  0  0
    5.4996   -7.5762    0.0000 C   0  0  0  0  0  0  0  0  0  0  0  0
    5.4996   -8.4013    0.0000 C   0  0  1  0  0  0  0  0  0  0  0  0
    6.2141   -8.8138    0.0000 C   0  0  2  0  0  0  0  0  0  0  0  0
    5.8016   -9.5282    0.0000 C   0  0  0  0  0  0  0  0  0  0  0  0
    4.7852   -8.8138    0.0000 O   0  0  0  0  0  0  0  0  0  0  0  0
    6.9286   -6.7512    0.0000 C   0  0  0  0  0  0  0  0  0  0  0  0
    8.3575   -6.7512    0.0000 C   0  0  0  0  0  0  0  0  0  0  0  0
   11.2154   -6.7512    0.0000 C   0  0  0  0  0  0  0  0  0  0  0  0
    6.6266   -9.5282    0.0000 C   0  0  0  0  0  0  0  0  0  0  0  0
    9.0720   -7.9888    0.0000 C   0  0  0  0  0  0  0  0  0  0  0  0
   10.5009   -3.8638    0.0000 C   0  0  0  0  0  0  0  0  0  0  0  0
    6.2141  -10.2427    0.0000 O   0  0  0  0  0  0  0  0  0  0  0  0
    6.9286   -9.2263    0.0000 H   0  0  0  0  0  0  0  0  0  0  0  0
    7.6431   -7.9888    0.0000 H   0  0  0  0  0  0  0  0  0  0  0  0
    9.0720   -5.5137    0.0000 H   0  0  0  0  0  0  0  0  0  0  0  0
   11.9299   -6.3388    0.0000 O   0  0  0  0  0  0  0  0  0  0  0  0
   11.2154   -7.5762    0.0000 O   0  0  0  0  0  0  0  0  0  0  0  0
    4.0707   -8.4013    0.0000 C   0  0  2  0  0  0  0  0  0  0  0  0
    4.0707   -7.5762    0.0000 O   0  0  0  0  0  0  0  0  0  0  0  0
    3.3562   -7.1638    0.0000 C   0  0  0  0  0  0  0  0  0  0  0  0
    2.6418   -7.5762    0.0000 C   0  0  1  0  0  0  0  0  0  0  0  0
    2.6418   -8.4013    0.0000 C   0  0  1  0  0  0  0  0  0  0  0  0
    3.3562   -8.8137    0.0000 C   0  0  1  0  0  0  0  0  0  0  0  0
    3.3562   -9.6387    0.0000 O   0  0  0  0  0  0  0  0  0  0  0  0
    1.9273   -8.8138    0.0000 O   0  0  0  0  0  0  0  0  0  0  0  0
    1.9273   -7.1638    0.0000 O   0  0  0  0  0  0  0  0  0  0  0  0
  1  2  1  0  0  0  0
  2  3  1  0  0  0  0
  3  4  1  0  0  0  0
  4  5  1  0  0  0  0
  5  6  2  0  0  0  0
  6  1  1  0  0  0  0
  4  7  1  0  0  0  0
  7  8  1  0  0  0  0
  8  9  1  0  0  0  0
  9 10  1  0  0  0  0
 10  5  1  0  0  0  0
  2 11  1  0  0  0  0
 11 12  1  0  0  0  0
 12 13  1  0  0  0  0
 13 14  1  0  0  0  0
 14  3  1  0  0  0  0
  9 15  1  0  0  0  0
 15 16  1  0  0  0  0
 16 17  1  0  0  0  0
 17 18  1  0  0  0  0
 18 10  1  0  0  0  0
 11 19  1  0  0  0  0
 19 20  1  0  0  0  0
 20 21  1  0  0  0  0
 21 22  1  0  0  0  0
 22 12  1  0  0  0  0
 22 23  1  1  0  0  0
 21 24  1  1  0  0  0
 11 25  1  1  0  0  0
  3 26  1  1  0  0  0
  9 27  1  1  0  0  0
 22 28  1  6  0  0  0
  4 29  1  6  0  0  0
 17 30  2  0  0  0  0
 28 31  1  0  0  0  0
 12 32  1  6  0  0  0
  2 33  1  6  0  0  0
 10 34  1  1  0  0  0
 27 35  1  0  0  0  0
 27 36  2  0  0  0  0
 37 24  1  1  0  0  0
 37 38  1  0  0  0  0
 38 39  1  0  0  0  0
 39 40  1  0  0  0  0
 40 41  1  0  0  0  0
 41 42  1  0  0  0  0
 42 37  1  0  0  0  0
 42 43  1  6  0  0  0
 41 44  1  1  0  0  0
 40 45  1  1  0  0  0
M  END
>  <cdx:fragmentId>
3554

$$$$
