95720.cdx
  Mrv1902 05222410232D          

 55 61  0  0  0  0            999 V2000
   11.2371   -5.5367    0.0000 C   0  0  0  0  0  0  0  0  0  0  0  0
   11.9516   -5.1242    0.0000 C   0  0  0  0  0  0  0  0  0  0  0  0
   12.6660   -5.5367    0.0000 C   0  0  0  0  0  0  0  0  0  0  0  0
   12.6660   -6.3617    0.0000 C   0  0  0  0  0  0  0  0  0  0  0  0
   11.9516   -6.7742    0.0000 C   0  0  2  0  0  0  0  0  0  0  0  0
   11.9516   -7.5992    0.0000 C   0  0  0  0  0  0  0  0  0  0  0  0
   11.2371   -8.0117    0.0000 C   0  0  0  0  0  0  0  0  0  0  0  0
   10.5226   -7.5992    0.0000 C   0  0  2  0  0  0  0  0  0  0  0  0
    9.8081   -8.0117    0.0000 C   0  0  1  0  0  0  0  0  0  0  0  0
    9.8081   -8.8367    0.0000 C   0  0  0  0  0  0  0  0  0  0  0  0
    9.0937   -9.2492    0.0000 C   0  0  0  0  0  0  0  0  0  0  0  0
    8.3792   -8.8367    0.0000 C   0  0  1  0  0  0  0  0  0  0  0  0
    7.6647   -9.2492    0.0000 C   0  0  2  0  0  0  0  0  0  0  0  0
    6.9503   -8.8367    0.0000 C   0  0  2  0  0  0  0  0  0  0  0  0
    6.9503   -8.0117    0.0000 C   0  0  0  0  0  0  0  0  0  0  0  0
    7.6647   -7.5992    0.0000 C   0  0  0  0  0  0  0  0  0  0  0  0
    8.3792   -8.0117    0.0000 C   0  0  2  0  0  0  0  0  0  0  0  0
    9.0937   -7.5992    0.0000 C   0  0  1  0  0  0  0  0  0  0  0  0
    9.0937   -6.7742    0.0000 C   0  0  0  0  0  0  0  0  0  0  0  0
    9.8081   -6.3617    0.0000 C   0  0  0  0  0  0  0  0  0  0  0  0
   10.5226   -6.7742    0.0000 C   0  0  0  0  0  0  0  0  0  0  0  0
   11.2371   -6.3617    0.0000 C   0  0  2  0  0  0  0  0  0  0  0  0
   12.6660   -7.1867    0.0000 C   0  0  0  0  0  0  0  0  0  0  0  0
   12.6660   -8.0117    0.0000 O   0  0  0  0  0  0  0  0  0  0  0  0
   13.3805   -6.7742    0.0000 O   0  0  0  0  0  0  0  0  0  0  0  0
    8.3792   -7.1867    0.0000 C   0  0  0  0  0  0  0  0  0  0  0  0
    7.2522   -9.9637    0.0000 C   0  0  0  0  0  0  0  0  0  0  0  0
   11.5391   -4.4097    0.0000 C   0  0  0  0  0  0  0  0  0  0  0  0
   12.3641   -4.4097    0.0000 C   0  0  0  0  0  0  0  0  0  0  0  0
    6.2358   -9.2492    0.0000 O   0  0  0  0  0  0  0  0  0  0  0  0
    8.0772   -9.9637    0.0000 C   0  0  0  0  0  0  0  0  0  0  0  0
    7.6647  -10.6781    0.0000 O   0  0  0  0  0  0  0  0  0  0  0  0
    8.3792   -9.6617    0.0000 H   0  0  0  0  0  0  0  0  0  0  0  0
   11.2371   -7.1867    0.0000 H   0  0  0  0  0  0  0  0  0  0  0  0
    9.8081   -7.1867    0.0000 H   0  0  0  0  0  0  0  0  0  0  0  0
   10.9351   -8.3137    0.0000 C   0  0  0  0  0  0  0  0  0  0  0  0
   10.2206   -8.7262    0.0000 C   0  0  0  0  0  0  0  0  0  0  0  0
    4.8073   -7.5963    0.0000 C   0  0  0  0  0  0  0  0  0  0  0  0
    4.0916   -8.0067    0.0000 C   0  0  1  0  0  0  0  0  0  0  0  0
    4.0891   -8.8317    0.0000 C   0  0  1  0  0  0  0  0  0  0  0  0
    4.8024   -9.2463    0.0000 C   0  0  2  0  0  0  0  0  0  0  0  0
    5.5181   -8.8360    0.0000 C   0  0  1  0  0  0  0  0  0  0  0  0
    5.5205   -8.0110    0.0000 O   0  0  0  0  0  0  0  0  0  0  0  0
    3.3735   -9.2421    0.0000 O   0  0  0  0  0  0  0  0  0  0  0  0
    3.3784   -7.5921    0.0000 O   0  0  0  0  0  0  0  0  0  0  0  0
    4.7999  -10.0713    0.0000 O   0  0  0  0  0  0  0  0  0  0  0  0
    4.0842  -10.4817    0.0000 C   0  0  2  0  0  0  0  0  0  0  0  0
    3.3710  -10.0671    0.0000 O   0  0  0  0  0  0  0  0  0  0  0  0
    2.6553  -10.4775    0.0000 C   0  0  0  0  0  0  0  0  0  0  0  0
    2.6529  -11.3025    0.0000 C   0  0  2  0  0  0  0  0  0  0  0  0
    3.3661  -11.7171    0.0000 C   0  0  1  0  0  0  0  0  0  0  0  0
    4.0818  -11.3067    0.0000 C   0  0  1  0  0  0  0  0  0  0  0  0
    1.9372  -11.7128    0.0000 O   0  0  0  0  0  0  0  0  0  0  0  0
    4.7950  -11.7213    0.0000 O   0  0  0  0  0  0  0  0  0  0  0  0
    3.3637  -12.5421    0.0000 O   0  0  0  0  0  0  0  0  0  0  0  0
  1  2  1  0  0  0  0
  2  3  1  0  0  0  0
  3  4  1  0  0  0  0
  4  5  1  0  0  0  0
  5  6  1  0  0  0  0
  6  7  1  0  0  0  0
  7  8  1  0  0  0  0
  8  9  1  0  0  0  0
  9 10  1  0  0  0  0
 10 11  1  0  0  0  0
 11 12  1  0  0  0  0
 12 13  1  0  0  0  0
 13 14  1  0  0  0  0
 14 15  1  0  0  0  0
 15 16  1  0  0  0  0
 16 17  1  0  0  0  0
 12 17  1  0  0  0  0
 17 18  1  0  0  0  0
  9 18  1  0  0  0  0
 18 19  1  0  0  0  0
 19 20  1  0  0  0  0
 20 21  2  0  0  0  0
  8 21  1  0  0  0  0
 21 22  1  0  0  0  0
  5 22  1  0  0  0  0
  1 22  1  0  0  0  0
 23 24  2  0  0  0  0
 23 25  1  0  0  0  0
  5 23  1  1  0  0  0
 17 26  1  1  0  0  0
 13 27  1  1  0  0  0
  2 28  1  0  0  0  0
  2 29  1  0  0  0  0
 14 30  1  1  0  0  0
 31 32  2  0  0  0  0
 13 31  1  0  0  0  0
 12 33  1  6  0  0  0
 22 34  1  1  0  0  0
 18 35  1  6  0  0  0
  8 36  1  1  0  0  0
  9 37  1  6  0  0  0
 38 39  1  0  0  0  0
 39 40  1  0  0  0  0
 40 41  1  0  0  0  0
 41 42  1  0  0  0  0
 42 43  1  0  0  0  0
 43 38  1  0  0  0  0
 40 44  1  1  0  0  0
 39 45  1  1  0  0  0
 41 46  1  6  0  0  0
 47 46  1  1  0  0  0
 47 48  1  0  0  0  0
 48 49  1  0  0  0  0
 49 50  1  0  0  0  0
 50 51  1  0  0  0  0
 51 52  1  0  0  0  0
 52 47  1  0  0  0  0
 50 53  1  6  0  0  0
 52 54  1  6  0  0  0
 51 55  1  1  0  0  0
 42 30  1  1  0  0  0
M  END
>  <cdx:groupId>
114

>  <cdx:fragmentId>
5

$$$$
