95735.cdx
  Mrv1902 05222410232D          

 26 28  0  0  0  0            999 V2000
    8.7334   -6.8491    0.0000 C   0  0  0  0  0  0  0  0  0  0  0  0
    8.7334   -6.0241    0.0000 C   0  0  0  0  0  0  0  0  0  0  0  0
    9.4478   -5.6116    0.0000 C   0  0  0  0  0  0  0  0  0  0  0  0
   10.1623   -6.0241    0.0000 C   0  0  0  0  0  0  0  0  0  0  0  0
   10.1623   -6.8491    0.0000 C   0  0  0  0  0  0  0  0  0  0  0  0
    9.4478   -7.2616    0.0000 C   0  0  0  0  0  0  0  0  0  0  0  0
    9.4478   -4.7866    0.0000 O   0  0  0  0  0  0  0  0  0  0  0  0
   10.1623   -4.3741    0.0000 C   0  0  0  0  0  0  0  0  0  0  0  0
   10.8768   -5.6116    0.0000 O   0  0  0  0  0  0  0  0  0  0  0  0
    5.8755   -9.3241    0.0000 O   0  0  0  0  0  0  0  0  0  0  0  0
    4.4465   -6.8491    0.0000 O   0  0  0  0  0  0  0  0  0  0  0  0
    7.3044   -9.3241    0.0000 O   0  0  0  0  0  0  0  0  0  0  0  0
    7.3044   -6.8491    0.0000 O   0  0  0  0  0  0  0  0  0  0  0  0
    6.5899   -7.2616    0.0000 C   0  0  0  0  0  0  0  0  0  0  0  0
    5.8755   -6.8491    0.0000 C   0  0  0  0  0  0  0  0  0  0  0  0
    5.1610   -7.2616    0.0000 C   0  0  0  0  0  0  0  0  0  0  0  0
    5.1610   -8.0866    0.0000 C   0  0  0  0  0  0  0  0  0  0  0  0
    5.8755   -8.4991    0.0000 C   0  0  0  0  0  0  0  0  0  0  0  0
    6.5899   -8.0866    0.0000 C   0  0  0  0  0  0  0  0  0  0  0  0
    7.3044   -8.4991    0.0000 C   0  0  0  0  0  0  0  0  0  0  0  0
    8.0189   -8.0866    0.0000 C   0  0  0  0  0  0  0  0  0  0  0  0
    8.0189   -7.2616    0.0000 C   0  0  0  0  0  0  0  0  0  0  0  0
    3.7321   -7.2616    0.0000 S   0  0  0  0  0  0  0  0  0  0  0  0
    3.0176   -7.6741    0.0000 O   0  0  0  0  0  0  0  0  0  0  0  0
    3.3196   -6.5471    0.0000 O   0  0  0  0  0  0  0  0  0  0  0  0
    4.1446   -7.9761    0.0000 O   0  0  0  0  0  0  0  0  0  0  0  0
 18 10  1  0  0  0  0
 16 11  1  0  0  0  0
 22  1  1  0  0  0  0
 20 12  2  0  0  0  0
 22 13  1  0  0  0  0
 14 13  1  0  0  0  0
 19 14  2  0  0  0  0
 15 14  1  0  0  0  0
 16 15  2  0  0  0  0
 17 16  1  0  0  0  0
 18 17  2  0  0  0  0
 19 18  1  0  0  0  0
 20 19  1  0  0  0  0
 21 20  1  0  0  0  0
 22 21  2  0  0  0  0
  1  2  1  0  0  0  0
  2  3  2  0  0  0  0
  3  4  1  0  0  0  0
  4  5  2  0  0  0  0
  5  6  1  0  0  0  0
  1  6  2  0  0  0  0
  7  8  1  0  0  0  0
  3  7  1  0  0  0  0
  4  9  1  0  0  0  0
 11 23  1  0  0  0  0
 23 24  1  0  0  0  0
 23 25  2  0  0  0  0
 23 26  2  0  0  0  0
M  END
>  <cdx:groupId>
70

>  <cdx:fragmentId>
5

$$$$
