95736.cdx
  Mrv1902 05222410242D          

 26 28  0  0  0  0            999 V2000
    5.8755   -9.3241    0.0000 O   0  0  0  0  0  0  0  0  0  0  0  0
    4.4465   -6.8491    0.0000 O   0  0  0  0  0  0  0  0  0  0  0  0
   10.8768   -5.6116    0.0000 O   0  0  0  0  0  0  0  0  0  0  0  0
    8.7334   -6.0241    0.0000 C   0  0  0  0  0  0  0  0  0  0  0  0
    9.4478   -5.6116    0.0000 C   0  0  0  0  0  0  0  0  0  0  0  0
   10.1623   -6.0241    0.0000 C   0  0  0  0  0  0  0  0  0  0  0  0
   10.1623   -6.8491    0.0000 C   0  0  0  0  0  0  0  0  0  0  0  0
    9.4478   -7.2616    0.0000 C   0  0  0  0  0  0  0  0  0  0  0  0
    8.7334   -6.8491    0.0000 C   0  0  0  0  0  0  0  0  0  0  0  0
    7.3044   -9.3241    0.0000 O   0  0  0  0  0  0  0  0  0  0  0  0
    7.3044   -6.8491    0.0000 O   0  0  0  0  0  0  0  0  0  0  0  0
    6.5899   -7.2616    0.0000 C   0  0  0  0  0  0  0  0  0  0  0  0
    5.8755   -6.8491    0.0000 C   0  0  0  0  0  0  0  0  0  0  0  0
    5.1610   -7.2616    0.0000 C   0  0  0  0  0  0  0  0  0  0  0  0
    5.1610   -8.0866    0.0000 C   0  0  0  0  0  0  0  0  0  0  0  0
    5.8755   -8.4991    0.0000 C   0  0  0  0  0  0  0  0  0  0  0  0
    6.5899   -8.0866    0.0000 C   0  0  0  0  0  0  0  0  0  0  0  0
    7.3044   -8.4991    0.0000 C   0  0  0  0  0  0  0  0  0  0  0  0
    8.0189   -8.0866    0.0000 C   0  0  0  0  0  0  0  0  0  0  0  0
    8.0189   -7.2616    0.0000 C   0  0  0  0  0  0  0  0  0  0  0  0
    3.7321   -7.2616    0.0000 S   0  0  0  0  0  0  0  0  0  0  0  0
    3.0176   -7.6741    0.0000 O   0  0  0  0  0  0  0  0  0  0  0  0
    3.3196   -6.5471    0.0000 O   0  0  0  0  0  0  0  0  0  0  0  0
    4.1446   -7.9761    0.0000 O   0  0  0  0  0  0  0  0  0  0  0  0
   11.5912   -6.0241    0.0000 C   0  0  0  0  0  0  0  0  0  0  0  0
    9.4478   -4.7866    0.0000 O   0  0  0  0  0  0  0  0  0  0  0  0
 16  1  1  0  0  0  0
 14  2  1  0  0  0  0
 20  9  1  0  0  0  0
  6  3  1  0  0  0  0
  9  4  2  0  0  0  0
  5  4  1  0  0  0  0
  6  5  2  0  0  0  0
  7  6  1  0  0  0  0
  8  7  2  0  0  0  0
  9  8  1  0  0  0  0
 18 10  2  0  0  0  0
 20 11  1  0  0  0  0
 12 11  1  0  0  0  0
 17 12  2  0  0  0  0
 13 12  1  0  0  0  0
 14 13  2  0  0  0  0
 15 14  1  0  0  0  0
 16 15  2  0  0  0  0
 17 16  1  0  0  0  0
 18 17  1  0  0  0  0
 19 18  1  0  0  0  0
 20 19  2  0  0  0  0
  2 21  1  0  0  0  0
 21 22  1  0  0  0  0
 21 23  2  0  0  0  0
 21 24  2  0  0  0  0
  3 25  1  0  0  0  0
  5 26  1  0  0  0  0
M  END
>  <cdx:groupId>
70

>  <cdx:fragmentId>
5

$$$$
