95730.cdx
  Mrv1902 05222410252D          

 67 74  0  0  0  0            999 V2000
    7.8385   -8.2539    0.0000 C   0  0  1  0  0  0  0  0  0  0  0  0
    7.8385   -7.5939    0.0000 C   0  0  0  0  0  0  0  0  0  0  0  0
    8.4101   -7.2639    0.0000 C   0  0  0  0  0  0  0  0  0  0  0  0
    8.4101   -8.5839    0.0000 C   0  0  2  0  0  0  0  0  0  0  0  0
    8.7401   -9.1555    0.0000 C   0  0  0  0  0  0  0  0  0  0  0  0
    8.0801   -9.1555    0.0000 C   0  0  0  0  0  0  0  0  0  0  0  0
    8.9817   -8.2539    0.0000 C   0  0  2  0  0  0  0  0  0  0  0  0
    8.9817   -8.9139    0.0000 H   0  0  0  0  0  0  0  0  0  0  0  0
    9.5533   -8.5839    0.0000 C   0  0  0  0  0  0  0  0  0  0  0  0
   10.1248   -8.2539    0.0000 C   0  0  0  0  0  0  0  0  0  0  0  0
   10.1248   -7.5939    0.0000 C   0  0  1  0  0  0  0  0  0  0  0  0
   10.1248   -6.9339    0.0000 C   0  0  0  0  0  0  0  0  0  0  0  0
   10.6964   -7.2639    0.0000 C   0  0  2  0  0  0  0  0  0  0  0  0
   10.6964   -7.9239    0.0000 C   0  0  0  0  0  0  0  0  0  0  0  0
   11.2680   -7.5939    0.0000 C   0  0  0  0  0  0  0  0  0  0  0  0
   11.8396   -7.2639    0.0000 C   0  0  0  0  0  0  0  0  0  0  0  0
   11.8396   -6.6039    0.0000 C   0  0  1  0  0  0  0  0  0  0  0  0
   12.4111   -6.9339    0.0000 C   0  0  0  0  0  0  0  0  0  0  0  0
   12.4111   -6.2739    0.0000 C   0  0  0  0  0  0  0  0  0  0  0  0
   12.4111   -5.6139    0.0000 C   0  0  0  0  0  0  0  0  0  0  0  0
   11.8396   -5.2839    0.0000 C   0  0  1  0  0  0  0  0  0  0  0  0
   11.5096   -4.7123    0.0000 C   0  0  0  0  0  0  0  0  0  0  0  0
   12.1696   -4.7123    0.0000 C   0  0  0  0  0  0  0  0  0  0  0  0
   11.2680   -5.6139    0.0000 C   0  0  0  0  0  0  0  0  0  0  0  0
   11.2680   -6.2739    0.0000 C   0  0  1  0  0  0  0  0  0  0  0  0
   11.2680   -6.9339    0.0000 H   0  0  0  0  0  0  0  0  0  0  0  0
   10.6964   -6.6039    0.0000 C   0  0  0  0  0  0  0  0  0  0  0  0
   10.1248   -6.2739    0.0000 C   0  0  0  0  0  0  0  0  0  0  0  0
    9.5533   -6.6039    0.0000 C   0  0  0  0  0  0  0  0  0  0  0  0
    9.5533   -7.2639    0.0000 C   0  0  2  0  0  0  0  0  0  0  0  0
    8.9817   -7.5939    0.0000 C   0  0  1  0  0  0  0  0  0  0  0  0
    8.9817   -6.9339    0.0000 C   0  0  0  0  0  0  0  0  0  0  0  0
   12.4111   -7.5939    0.0000 O   0  0  0  0  0  0  0  0  0  0  0  0
   12.9827   -6.6039    0.0000 O   0  0  0  0  0  0  0  0  0  0  0  0
    8.4101   -9.7271    0.0000 O   0  0  0  0  0  0  0  0  0  0  0  0
    7.2670   -8.5839    0.0000 O   0  0  0  0  0  0  0  0  0  0  0  0
    6.6954   -8.2539    0.0000 C   0  0  1  0  0  0  0  0  0  0  0  0
    6.1238   -8.5839    0.0000 C   0  0  2  0  0  0  0  0  0  0  0  0
    6.1238   -9.2439    0.0000 O   0  0  0  0  0  0  0  0  0  0  0  0
    5.5522   -8.2539    0.0000 C   0  0  1  0  0  0  0  0  0  0  0  0
    4.8092   -8.6829    0.0000 O   0  0  0  0  0  0  0  0  0  0  0  0
    5.5522   -7.5939    0.0000 C   0  0  1  0  0  0  0  0  0  0  0  0
    4.9807   -7.2639    0.0000 O   0  0  0  0  0  0  0  0  0  0  0  0
    6.1238   -7.2639    0.0000 C   0  0  0  0  0  0  0  0  0  0  0  0
    6.6954   -7.5939    0.0000 O   0  0  0  0  0  0  0  0  0  0  0  0
    5.5522   -9.5739    0.0000 C   0  0  1  0  0  0  0  0  0  0  0  0
    5.5522  -10.2339    0.0000 C   0  0  2  0  0  0  0  0  0  0  0  0
    6.1238  -10.5639    0.0000 O   0  0  0  0  0  0  0  0  0  0  0  0
    4.9807  -10.5639    0.0000 C   0  0  2  0  0  0  0  0  0  0  0  0
    4.9807  -11.2239    0.0000 O   0  0  0  0  0  0  0  0  0  0  0  0
    4.4091  -10.2339    0.0000 C   0  0  1  0  0  0  0  0  0  0  0  0
    3.8375  -10.5639    0.0000 O   0  0  0  0  0  0  0  0  0  0  0  0
    4.4091   -9.5739    0.0000 C   0  0  1  0  0  0  0  0  0  0  0  0
    4.9807   -9.2439    0.0000 O   0  0  0  0  0  0  0  0  0  0  0  0
    3.8375   -9.2439    0.0000 C   0  0  0  0  0  0  0  0  0  0  0  0
    4.0661   -8.2539    0.0000 C   0  0  1  0  0  0  0  0  0  0  0  0
    4.0661   -7.5939    0.0000 C   0  0  2  0  0  0  0  0  0  0  0  0
    4.6377   -7.2639    0.0000 O   0  0  0  0  0  0  0  0  0  0  0  0
    3.4946   -7.2639    0.0000 C   0  0  1  0  0  0  0  0  0  0  0  0
    3.4946   -6.6039    0.0000 O   0  0  0  0  0  0  0  0  0  0  0  0
    2.9230   -7.5939    0.0000 C   0  0  2  0  0  0  0  0  0  0  0  0
    2.3514   -7.2639    0.0000 O   0  0  0  0  0  0  0  0  0  0  0  0
    2.9230   -8.2539    0.0000 C   0  0  2  0  0  0  0  0  0  0  0  0
    3.4946   -8.5839    0.0000 O   0  0  0  0  0  0  0  0  0  0  0  0
    2.3514   -8.5839    0.0000 C   0  0  0  0  0  0  0  0  0  0  0  0
    1.7798   -8.2539    0.0000 O   0  0  0  0  0  0  0  0  0  0  0  0
    9.5533   -7.9239    0.0000 H   0  0  0  0  0  0  0  0  0  0  0  0
  1  2  1  0  0  0  0
  2  3  1  0  0  0  0
  1  4  1  0  0  0  0
  4  5  1  6  0  0  0
  4  6  1  1  0  0  0
  4  7  1  0  0  0  0
  7  8  1  6  0  0  0
  7  9  1  0  0  0  0
  9 10  1  0  0  0  0
 10 11  1  0  0  0  0
 11 12  1  1  0  0  0
 11 13  1  0  0  0  0
 13 14  1  6  0  0  0
 13 15  1  0  0  0  0
 15 16  1  0  0  0  0
 16 17  1  0  0  0  0
 17 18  1  1  0  0  0
 17 19  1  0  0  0  0
 19 20  1  0  0  0  0
 20 21  1  0  0  0  0
 21 22  1  1  0  0  0
 21 23  1  6  0  0  0
 21 24  1  0  0  0  0
 24 25  1  0  0  0  0
 25 26  1  1  0  0  0
 17 25  1  0  0  0  0
 25 27  1  0  0  0  0
 13 27  1  0  0  0  0
 27 28  2  0  0  0  0
 28 29  1  0  0  0  0
 29 30  1  0  0  0  0
 11 30  1  0  0  0  0
 30 31  1  0  0  0  0
  3 31  1  0  0  0  0
  7 31  1  0  0  0  0
 31 32  1  1  0  0  0
 18 33  2  0  0  0  0
 18 34  1  0  0  0  0
  5 35  1  0  0  0  0
 37 38  1  0  0  0  0
 38 39  1  6  0  0  0
 38 40  1  0  0  0  0
 40 41  1  1  0  0  0
 40 42  1  0  0  0  0
 42 43  1  1  0  0  0
 42 44  1  0  0  0  0
 44 45  1  0  0  0  0
 37 45  1  0  0  0  0
 46 47  1  0  0  0  0
 47 48  1  6  0  0  0
 47 49  1  0  0  0  0
 49 50  1  6  0  0  0
 49 51  1  0  0  0  0
 51 52  1  1  0  0  0
 51 53  1  0  0  0  0
 53 54  1  0  0  0  0
 53 55  1  6  0  0  0
 46 54  1  0  0  0  0
 46 39  1  1  0  0  0
 56 57  1  0  0  0  0
 57 58  1  1  0  0  0
 57 59  1  0  0  0  0
 59 60  1  6  0  0  0
 59 61  1  0  0  0  0
 61 62  1  1  0  0  0
 61 63  1  0  0  0  0
 63 64  1  0  0  0  0
 63 65  1  6  0  0  0
 65 66  1  0  0  0  0
 56 64  1  0  0  0  0
 56 41  1  6  0  0  0
 37 36  1  1  0  0  0
  1 36  1  1  0  0  0
 30 67  1  6  0  0  0
M  END
>  <cdx:groupId>
210

>  <cdx:fragmentId>
5

$$$$
