95731.cdx
  Mrv1902 05222410252D          

 27 28  0  0  0  0            999 V2000
    3.7106   -7.8650    0.0000 C   0  0  0  0  0  0  0  0  0  0  0  0
    3.7106   -8.6900    0.0000 C   0  0  0  0  0  0  0  0  0  0  0  0
    4.4250   -9.1025    0.0000 C   0  0  0  0  0  0  0  0  0  0  0  0
    5.1395   -8.6900    0.0000 C   0  0  0  0  0  0  0  0  0  0  0  0
    5.1395   -7.8650    0.0000 C   0  0  0  0  0  0  0  0  0  0  0  0
    4.4250   -7.4525    0.0000 C   0  0  0  0  0  0  0  0  0  0  0  0
    5.8540   -9.1025    0.0000 C   0  0  0  0  0  0  0  0  0  0  0  0
    6.5684   -8.6900    0.0000 C   0  0  0  0  0  0  0  0  0  0  0  0
    6.5684   -7.8650    0.0000 C   0  0  0  0  0  0  0  0  0  0  0  0
    5.8540   -7.4525    0.0000 C   0  0  0  0  0  0  0  0  0  0  0  0
    7.9974   -7.8650    0.0000 C   0  0  0  0  0  0  0  0  0  0  0  0
    7.2829   -7.4525    0.0000 C   0  0  0  0  0  0  0  0  0  0  0  0
    9.4263   -7.8650    0.0000 C   0  0  0  0  0  0  0  0  0  0  0  0
    8.7119   -7.4525    0.0000 C   0  0  0  0  0  0  0  0  0  0  0  0
    4.4250   -6.6275    0.0000 O   0  0  0  0  0  0  0  0  0  0  0  0
    4.4250   -9.9275    0.0000 O   0  0  0  0  0  0  0  0  0  0  0  0
    5.8540   -9.9275    0.0000 O   0  0  0  0  0  0  0  0  0  0  0  0
    5.8540   -6.6275    0.0000 O   0  0  0  0  0  0  0  0  0  0  0  0
    6.5684   -6.2150    0.0000 C   0  0  0  0  0  0  0  0  0  0  0  0
   10.1408   -7.4525    0.0000 C   0  0  0  0  0  0  0  0  0  0  0  0
    9.4263   -8.6900    0.0000 C   0  0  0  0  0  0  0  0  0  0  0  0
    7.2829   -6.6275    0.0000 O   0  0  0  0  0  0  0  0  0  0  0  0
    7.9842   -6.1929    0.0000 C   0  0  0  0  0  0  0  0  0  0  0  0
    8.7112   -6.5829    0.0000 O   0  0  0  0  0  0  0  0  0  0  0  0
    7.9584   -5.3683    0.0000 C   0  0  0  0  0  0  0  0  0  0  0  0
    8.6597   -4.9337    0.0000 C   0  0  0  0  0  0  0  0  0  0  0  0
    7.2440   -4.9558    0.0000 C   0  0  0  0  0  0  0  0  0  0  0  0
  1  2  2  0  0  0  0
  2  3  1  0  0  0  0
  3  4  1  0  0  0  0
  4  5  2  0  0  0  0
  5  6  1  0  0  0  0
  6  1  1  0  0  0  0
  4  7  1  0  0  0  0
  7  8  2  0  0  0  0
  8  9  1  0  0  0  0
  9 10  2  0  0  0  0
 10  5  1  0  0  0  0
 11 12  1  0  0  0  0
 12  9  1  0  0  0  0
 13 14  2  0  0  0  0
 14 11  1  0  0  0  0
  6 15  2  0  0  0  0
  3 16  2  0  0  0  0
  7 17  1  0  0  0  0
 10 18  1  0  0  0  0
 18 19  1  0  0  0  0
 13 20  1  0  0  0  0
 13 21  1  0  0  0  0
 12 22  1  0  0  0  0
 22 23  1  0  0  0  0
 23 24  2  0  0  0  0
 23 25  1  0  0  0  0
 25 26  1  0  0  0  0
 25 27  1  0  0  0  0
M  END
>  <cdx:fragmentId>
5

$$$$
