95733.cdx
  Mrv1902 05222410252D          

 20 19  0  0  0  0            999 V2000
    0.9517   -9.0065    0.0000 N   0  0  0  0  0  0  0  0  0  0  0  0
    1.6661   -7.7690    0.0000 O   0  0  0  0  0  0  0  0  0  0  0  0
   13.8122   -9.0065    0.0000 C   0  0  0  0  0  0  0  0  0  0  0  0
   13.0977   -8.5940    0.0000 C   0  0  0  0  0  0  0  0  0  0  0  0
   12.3832   -9.0065    0.0000 C   0  0  0  0  0  0  0  0  0  0  0  0
   11.6687   -8.5940    0.0000 C   0  0  0  0  0  0  0  0  0  0  0  0
   10.9543   -9.0065    0.0000 C   0  0  0  0  0  0  0  0  0  0  0  0
   10.2398   -8.5940    0.0000 C   0  0  0  0  0  0  0  0  0  0  0  0
    9.5253   -9.0065    0.0000 C   0  0  0  0  0  0  0  0  0  0  0  0
    8.8109   -8.5940    0.0000 C   0  0  0  0  0  0  0  0  0  0  0  0
    8.0964   -9.0065    0.0000 C   0  0  0  0  0  0  0  0  0  0  0  0
    7.3819   -8.5940    0.0000 C   0  0  0  0  0  0  0  0  0  0  0  0
    6.6674   -9.0065    0.0000 C   0  0  0  0  0  0  0  0  0  0  0  0
    5.9530   -8.5940    0.0000 C   0  0  0  0  0  0  0  0  0  0  0  0
    5.2385   -9.0065    0.0000 C   0  0  0  0  0  0  0  0  0  0  0  0
    4.5240   -8.5940    0.0000 C   0  0  0  0  0  0  0  0  0  0  0  0
    3.8096   -9.0065    0.0000 C   0  0  0  0  0  0  0  0  0  0  0  0
    3.0951   -8.5940    0.0000 C   0  0  0  0  0  0  0  0  0  0  0  0
    2.3806   -9.0065    0.0000 C   0  0  0  0  0  0  0  0  0  0  0  0
    1.6661   -8.5940    0.0000 C   0  0  0  0  0  0  0  0  0  0  0  0
 20  1  1  0  0  0  0
 20  2  2  0  0  0  0
  4  3  1  0  0  0  0
  5  4  1  0  0  0  0
  6  5  1  0  0  0  0
  7  6  1  0  0  0  0
  8  7  1  0  0  0  0
  9  8  1  0  0  0  0
 10  9  1  0  0  0  0
 11 10  1  0  0  0  0
 12 11  2  0  0  0  0
 13 12  1  0  0  0  0
 14 13  1  0  0  0  0
 15 14  1  0  0  0  0
 16 15  1  0  0  0  0
 17 16  1  0  0  0  0
 18 17  1  0  0  0  0
 19 18  1  0  0  0  0
 20 19  1  0  0  0  0
M  END
>  <cdx:fragmentId>
5

$$$$
