95737.cdx
  Mrv1902 05222410242D          

 10  9  0  0  0  0            999 V2000
    5.7863   -4.8538    0.0000 O   0  0  0  0  0  0  0  0  0  0  0  0
    6.5007   -4.4412    0.0000 C   0  0  0  0  0  0  0  0  0  0  0  0
    7.2152   -4.8538    0.0000 C   0  0  0  0  0  0  0  0  0  0  0  0
    7.9297   -4.4412    0.0000 C   0  0  0  0  0  0  0  0  0  0  0  0
    8.6442   -4.8538    0.0000 C   0  0  0  0  0  0  0  0  0  0  0  0
    9.3586   -4.4412    0.0000 C   0  0  0  0  0  0  0  0  0  0  0  0
   10.0731   -4.8538    0.0000 C   0  0  0  0  0  0  0  0  0  0  0  0
    6.5007   -3.6163    0.0000 O   0  0  0  0  0  0  0  0  0  0  0  0
    5.0718   -4.4412    0.0000 C   0  0  0  0  0  0  0  0  0  0  0  0
    4.3573   -4.8538    0.0000 C   0  0  0  0  0  0  0  0  0  0  0  0
  1  2  1  0  0  0  0
  2  3  1  0  0  0  0
  3  4  1  0  0  0  0
  4  5  1  0  0  0  0
  5  6  1  0  0  0  0
  6  7  1  0  0  0  0
  2  8  2  0  0  0  0
  1  9  1  0  0  0  0
  9 10  1  0  0  0  0
M  END
>  <cdx:fragmentId>
3

$$$$
