95747.cdx
  Mrv1902 05222410282D          

 33 34  0  0  0  0            999 V2000
    7.3740   -8.5869    0.0000 C   0  0  0  0  0  0  0  0  0  0  0  0
    6.6596   -8.1744    0.0000 C   0  0  0  0  0  0  0  0  0  0  0  0
    5.9451   -8.5869    0.0000 C   0  0  0  0  0  0  0  0  0  0  0  0
    5.2306   -8.1744    0.0000 C   0  0  0  0  0  0  0  0  0  0  0  0
    4.5162   -7.7619    0.0000 C   0  0  0  0  0  0  0  0  0  0  0  0
    3.8017   -7.3494    0.0000 C   0  0  0  0  0  0  0  0  0  0  0  0
    3.0872   -6.9369    0.0000 C   0  0  0  0  0  0  0  0  0  0  0  0
    2.3728   -6.5244    0.0000 C   0  0  0  0  0  0  0  0  0  0  0  0
    1.6583   -6.9369    0.0000 C   0  0  0  0  0  0  0  0  0  0  0  0
    0.9438   -6.5244    0.0000 C   0  0  0  0  0  0  0  0  0  0  0  0
    8.0885   -8.1744    0.0000 O   0  0  0  0  0  0  0  0  0  0  0  0
    9.5204   -9.8253    0.0000 C   0  0  2  0  0  0  0  0  0  0  0  0
   10.2349   -9.4129    0.0000 C   0  0  2  0  0  0  0  0  0  0  0  0
   10.2351   -8.5879    0.0000 C   0  0  1  0  0  0  0  0  0  0  0  0
    9.5207   -8.1753    0.0000 C   0  0  2  0  0  0  0  0  0  0  0  0
    8.8062   -8.5877    0.0000 C   0  0  1  0  0  0  0  0  0  0  0  0
    8.8060   -9.4127    0.0000 O   0  0  0  0  0  0  0  0  0  0  0  0
    9.5202  -10.6503    0.0000 C   0  0  0  0  0  0  0  0  0  0  0  0
   10.9496   -8.1756    0.0000 O   0  0  0  0  0  0  0  0  0  0  0  0
   10.9493   -9.8256    0.0000 O   0  0  0  0  0  0  0  0  0  0  0  0
    9.5209   -7.3503    0.0000 O   0  0  0  0  0  0  0  0  0  0  0  0
   10.2346  -11.0629    0.0000 O   0  0  0  0  0  0  0  0  0  0  0  0
   11.1577   -5.9106    0.0000 C   0  0  2  0  0  0  0  0  0  0  0  0
   10.7413   -5.1985    0.0000 C   0  0  2  0  0  0  0  0  0  0  0  0
    9.9163   -5.2030    0.0000 C   0  0  1  0  0  0  0  0  0  0  0  0
    9.5078   -5.9198    0.0000 C   0  0  2  0  0  0  0  0  0  0  0  0
    9.9242   -6.6320    0.0000 C   0  0  1  0  0  0  0  0  0  0  0  0
   10.7492   -6.6274    0.0000 O   0  0  0  0  0  0  0  0  0  0  0  0
   11.9827   -5.9061    0.0000 C   0  0  0  0  0  0  0  0  0  0  0  0
    9.4998   -4.4909    0.0000 O   0  0  0  0  0  0  0  0  0  0  0  0
   11.1498   -4.4817    0.0000 O   0  0  0  0  0  0  0  0  0  0  0  0
    8.6828   -5.9244    0.0000 O   0  0  0  0  0  0  0  0  0  0  0  0
   12.3913   -5.1893    0.0000 O   0  0  0  0  0  0  0  0  0  0  0  0
  1  2  1  0  0  0  0
  2  3  1  0  0  0  0
  3  4  1  0  0  0  0
  4  5  3  0  0  0  0
  5  6  1  0  0  0  0
  6  7  3  0  0  0  0
  7  8  1  0  0  0  0
  8  9  2  0  0  0  0
  9 10  1  0  0  0  0
  1 11  1  0  0  0  0
 12 13  1  0  0  0  0
 13 14  1  0  0  0  0
 14 15  1  0  0  0  0
 15 16  1  0  0  0  0
 16 17  1  0  0  0  0
 17 12  1  0  0  0  0
 12 18  1  1  0  0  0
 14 19  1  1  0  0  0
 13 20  1  6  0  0  0
 15 21  1  6  0  0  0
 18 22  1  0  0  0  0
 16 11  1  1  0  0  0
 23 24  1  0  0  0  0
 24 25  1  0  0  0  0
 25 26  1  0  0  0  0
 26 27  1  0  0  0  0
 27 28  1  0  0  0  0
 28 23  1  0  0  0  0
 23 29  1  1  0  0  0
 25 30  1  1  0  0  0
 24 31  1  6  0  0  0
 26 32  1  6  0  0  0
 29 33  1  0  0  0  0
 27 21  1  1  0  0  0
M  END
>  <cdx:fragmentId>
39

$$$$
