95746.cdx
  Mrv1902 05222410282D          

 22 22  0  0  0  0            999 V2000
   10.1414   -6.6744    0.0000 O   0  0  0  0  0  0  0  0  0  0  0  0
    9.4269   -6.2619    0.0000 C   0  0  2  0  0  0  0  0  0  0  0  0
    9.4269   -5.4369    0.0000 C   0  0  1  0  0  0  0  0  0  0  0  0
   10.1414   -5.0244    0.0000 C   0  0  2  0  0  0  0  0  0  0  0  0
   10.8559   -5.4369    0.0000 C   0  0  1  0  0  0  0  0  0  0  0  0
   10.8559   -6.2619    0.0000 C   0  0  1  0  0  0  0  0  0  0  0  0
    8.7124   -5.0244    0.0000 O   0  0  0  0  0  0  0  0  0  0  0  0
   10.1414   -4.1994    0.0000 O   0  0  0  0  0  0  0  0  0  0  0  0
   11.5703   -5.0244    0.0000 O   0  0  0  0  0  0  0  0  0  0  0  0
   11.5703   -6.6744    0.0000 C   0  0  0  0  0  0  0  0  0  0  0  0
   12.2848   -6.2619    0.0000 O   0  0  0  0  0  0  0  0  0  0  0  0
    8.7124   -6.6744    0.0000 O   0  0  0  0  0  0  0  0  0  0  0  0
    7.9980   -6.2619    0.0000 C   0  0  0  0  0  0  0  0  0  0  0  0
    7.2835   -6.6744    0.0000 C   0  0  0  0  0  0  0  0  0  0  0  0
    6.5690   -6.2619    0.0000 C   0  0  0  0  0  0  0  0  0  0  0  0
    5.8546   -6.6744    0.0000 C   0  0  0  0  0  0  0  0  0  0  0  0
    5.1401   -7.0869    0.0000 C   0  0  0  0  0  0  0  0  0  0  0  0
    4.4256   -7.4994    0.0000 C   0  0  0  0  0  0  0  0  0  0  0  0
    3.7111   -7.9119    0.0000 C   0  0  0  0  0  0  0  0  0  0  0  0
    2.9967   -8.3244    0.0000 C   0  0  0  0  0  0  0  0  0  0  0  0
    2.2822   -7.9119    0.0000 C   0  0  0  0  0  0  0  0  0  0  0  0
    1.5677   -8.3244    0.0000 C   0  0  0  0  0  0  0  0  0  0  0  0
  1  2  1  0  0  0  0
  2  3  1  0  0  0  0
  3  4  1  0  0  0  0
  4  5  1  0  0  0  0
  5  6  1  0  0  0  0
  1  6  1  0  0  0  0
  3  7  1  6  0  0  0
  4  8  1  1  0  0  0
  5  9  1  6  0  0  0
 10 11  1  0  0  0  0
  6 10  1  1  0  0  0
 13 14  1  0  0  0  0
 14 15  1  0  0  0  0
 15 16  1  0  0  0  0
 16 17  3  0  0  0  0
 17 18  1  0  0  0  0
 18 19  3  0  0  0  0
 19 20  1  0  0  0  0
 20 21  2  0  0  0  0
 21 22  1  0  0  0  0
 12 13  1  0  0  0  0
  2 12  1  1  0  0  0
M  END
>  <cdx:fragmentId>
195563

$$$$
