95748.cdx
  Mrv1902 05222410192D          

 49 54  0  0  0  0            999 V2000
   12.2479   -7.6193    0.0000 C   0  0  0  0  0  0  0  0  0  0  0  0
   11.5335   -8.0318    0.0000 C   0  0  2  0  0  0  0  0  0  0  0  0
   11.5335   -8.8568    0.0000 C   0  0  2  0  0  0  0  0  0  0  0  0
   12.2479   -9.2693    0.0000 C   0  0  2  0  0  0  0  0  0  0  0  0
   12.9624   -8.8568    0.0000 C   0  0  2  0  0  0  0  0  0  0  0  0
   13.6769   -9.2693    0.0000 C   0  0  0  0  0  0  0  0  0  0  0  0
   14.3913   -8.8568    0.0000 C   0  0  0  0  0  0  0  0  0  0  0  0
   14.3913   -8.0318    0.0000 C   0  0  1  0  0  0  0  0  0  0  0  0
   15.1058   -7.6193    0.0000 C   0  0  2  0  0  0  0  0  0  0  0  0
   15.1058   -6.7943    0.0000 C   0  0  0  0  0  0  0  0  0  0  0  0
   14.3913   -6.3818    0.0000 C   0  0  0  0  0  0  0  0  0  0  0  0
   13.6769   -6.7943    0.0000 C   0  0  0  0  0  0  0  0  0  0  0  0
   13.6769   -7.6193    0.0000 C   0  0  2  0  0  0  0  0  0  0  0  0
   12.9624   -8.0318    0.0000 C   0  0  1  0  0  0  0  0  0  0  0  0
   15.1058   -8.4443    0.0000 C   0  0  0  0  0  0  0  0  0  0  0  0
   12.9624   -7.2068    0.0000 C   0  0  0  0  0  0  0  0  0  0  0  0
   14.3913   -7.2068    0.0000 C   0  0  0  0  0  0  0  0  0  0  0  0
   12.6604   -9.9838    0.0000 C   0  0  0  0  0  0  0  0  0  0  0  0
   11.8354   -9.9838    0.0000 C   0  0  0  0  0  0  0  0  0  0  0  0
   10.8190   -9.2693    0.0000 O   0  0  0  0  0  0  0  0  0  0  0  0
   15.8203   -8.0318    0.0000 C   0  0  0  0  0  0  0  0  0  0  0  0
   16.5348   -7.6193    0.0000 C   0  0  0  0  0  0  0  0  0  0  0  0
   16.5348   -6.7943    0.0000 C   0  0  2  0  0  0  0  0  0  0  0  0
   15.8203   -6.3818    0.0000 C   0  0  1  0  0  0  0  0  0  0  0  0
   17.2492   -6.3818    0.0000 C   0  0  0  0  0  0  0  0  0  0  0  0
   17.2492   -5.5568    0.0000 C   0  0  0  0  0  0  0  0  0  0  0  0
   16.5348   -5.1443    0.0000 C   0  0  2  0  0  0  0  0  0  0  0  0
   15.8203   -5.5568    0.0000 C   0  0  2  0  0  0  0  0  0  0  0  0
   17.2492   -7.2068    0.0000 C   0  0  0  0  0  0  0  0  0  0  0  0
   17.2492   -8.0318    0.0000 O   0  0  0  0  0  0  0  0  0  0  0  0
   17.9637   -6.7943    0.0000 O   0  0  0  0  0  0  0  0  0  0  0  0
   12.9624   -9.6818    0.0000 H   0  0  0  0  0  0  0  0  0  0  0  0
   13.6769   -8.4443    0.0000 H   0  0  0  0  0  0  0  0  0  0  0  0
   15.1058   -5.9693    0.0000 H   0  0  0  0  0  0  0  0  0  0  0  0
   18.6782   -7.2068    0.0000 C   0  0  2  0  0  0  0  0  0  0  0  0
   18.6782   -8.0318    0.0000 O   0  0  0  0  0  0  0  0  0  0  0  0
   19.3926   -8.4443    0.0000 C   0  0  1  0  0  0  0  0  0  0  0  0
   20.1071   -8.0318    0.0000 C   0  0  2  0  0  0  0  0  0  0  0  0
   20.1071   -7.2068    0.0000 C   0  0  1  0  0  0  0  0  0  0  0  0
   19.3926   -6.7943    0.0000 C   0  0  1  0  0  0  0  0  0  0  0  0
   19.3926   -9.2693    0.0000 C   0  0  0  0  0  0  0  0  0  0  0  0
   20.8216   -6.7943    0.0000 O   0  0  0  0  0  0  0  0  0  0  0  0
   19.3926   -5.9693    0.0000 O   0  0  0  0  0  0  0  0  0  0  0  0
   20.8216   -8.4443    0.0000 O   0  0  0  0  0  0  0  0  0  0  0  0
   20.1071   -9.6818    0.0000 O   0  0  0  0  0  0  0  0  0  0  0  0
   12.2479  -10.6983    0.0000 O   0  0  0  0  0  0  0  0  0  0  0  0
   10.8190   -7.6193    0.0000 O   0  0  0  0  0  0  0  0  0  0  0  0
   16.5348   -4.3193    0.0000 C   0  0  0  0  0  0  0  0  0  0  0  0
   15.1058   -5.1443    0.0000 C   0  0  0  0  0  0  0  0  0  0  0  0
  1  2  1  0  0  0  0
  2  3  1  0  0  0  0
  3  4  1  0  0  0  0
  4  5  1  0  0  0  0
  5  6  1  0  0  0  0
  6  7  1  0  0  0  0
  7  8  1  0  0  0  0
  8  9  1  0  0  0  0
  9 10  1  0  0  0  0
 10 11  2  0  0  0  0
 11 12  1  0  0  0  0
 12 13  1  0  0  0  0
  8 13  1  0  0  0  0
 13 14  1  0  0  0  0
  5 14  1  0  0  0  0
  1 14  1  0  0  0  0
  9 15  1  6  0  0  0
 14 16  1  1  0  0  0
  8 17  1  1  0  0  0
  4 18  1  6  0  0  0
  4 19  1  1  0  0  0
  3 20  1  6  0  0  0
  9 21  1  0  0  0  0
 21 22  1  0  0  0  0
 22 23  1  0  0  0  0
 23 24  1  0  0  0  0
 24 10  1  0  0  0  0
 23 25  1  0  0  0  0
 25 26  1  0  0  0  0
 26 27  1  0  0  0  0
 27 28  1  0  0  0  0
 28 24  1  0  0  0  0
 23 29  1  1  0  0  0
 29 30  2  0  0  0  0
 29 31  1  0  0  0  0
  5 32  1  6  0  0  0
 13 33  1  6  0  0  0
 24 34  1  1  0  0  0
 35 31  1  1  0  0  0
 35 36  1  0  0  0  0
 36 37  1  0  0  0  0
 37 38  1  0  0  0  0
 38 39  1  0  0  0  0
 39 40  1  0  0  0  0
 40 35  1  0  0  0  0
 37 41  1  1  0  0  0
 39 42  1  1  0  0  0
 40 43  1  6  0  0  0
 38 44  1  6  0  0  0
 41 45  1  0  0  0  0
 18 46  1  0  0  0  0
  2 47  1  6  0  0  0
 27 48  1  6  0  0  0
 28 49  1  1  0  0  0
M  END
>  <cdx:fragmentId>
31943

$$$$
