95741.cdx
  Mrv1902 05222410272D          

 52 57  0  0  0  0            999 V2000
   10.2333  -10.5066    0.0000 O   0  0  0  0  0  0  0  0  0  0  0  0
    8.8044  -11.3316    0.0000 O   0  0  0  0  0  0  0  0  0  0  0  0
    7.3755  -11.3316    0.0000 O   0  0  0  0  0  0  0  0  0  0  0  0
    7.3755  -10.5066    0.0000 C   0  0  0  0  0  0  0  0  0  0  0  0
   11.6623   -8.0316    0.0000 O   0  0  0  0  0  0  0  0  0  0  0  0
   13.0912   -8.8566    0.0000 O   0  0  0  0  0  0  0  0  0  0  0  0
   13.0912  -10.5066    0.0000 O   0  0  0  0  0  0  0  0  0  0  0  0
   11.6623  -11.3316    0.0000 C   0  0  0  0  0  0  0  0  0  0  0  0
   11.6623  -10.5066    0.0000 C   0  0  1  0  0  0  0  0  0  0  0  0
   12.3768  -10.0941    0.0000 C   0  0  1  0  0  0  0  0  0  0  0  0
   12.3768   -9.2691    0.0000 C   0  0  2  0  0  0  0  0  0  0  0  0
   11.6623   -8.8566    0.0000 C   0  0  2  0  0  0  0  0  0  0  0  0
   10.9478   -9.2691    0.0000 C   0  0  1  0  0  0  0  0  0  0  0  0
   10.9478  -10.0941    0.0000 O   0  0  0  0  0  0  0  0  0  0  0  0
   10.2333   -8.8566    0.0000 O   0  0  0  0  0  0  0  0  0  0  0  0
    8.0899  -10.0941    0.0000 C   0  0  2  0  0  0  0  0  0  0  0  0
    8.8044  -10.5066    0.0000 C   0  0  2  0  0  0  0  0  0  0  0  0
    9.5189  -10.0941    0.0000 C   0  0  1  0  0  0  0  0  0  0  0  0
    9.5189   -9.2691    0.0000 C   0  0  2  0  0  0  0  0  0  0  0  0
    8.8044   -8.8566    0.0000 C   0  0  1  0  0  0  0  0  0  0  0  0
    8.0899   -9.2691    0.0000 O   0  0  0  0  0  0  0  0  0  0  0  0
    8.8044   -8.0316    0.0000 O   0  0  0  0  0  0  0  0  0  0  0  0
    5.9465   -8.8566    0.0000 O   0  0  0  0  0  0  0  0  0  0  0  0
    4.5176   -6.3816    0.0000 O   0  0  0  0  0  0  0  0  0  0  0  0
   10.9478   -5.1441    0.0000 O   0  0  0  0  0  0  0  0  0  0  0  0
    8.8044   -5.5566    0.0000 C   0  0  0  0  0  0  0  0  0  0  0  0
    9.5189   -5.1441    0.0000 C   0  0  0  0  0  0  0  0  0  0  0  0
   10.2333   -5.5566    0.0000 C   0  0  0  0  0  0  0  0  0  0  0  0
   10.2333   -6.3816    0.0000 C   0  0  0  0  0  0  0  0  0  0  0  0
    9.5189   -6.7941    0.0000 C   0  0  0  0  0  0  0  0  0  0  0  0
    8.8044   -6.3816    0.0000 C   0  0  0  0  0  0  0  0  0  0  0  0
    7.3755   -8.8566    0.0000 O   0  0  0  0  0  0  0  0  0  0  0  0
    7.3755   -6.3816    0.0000 O   0  0  0  0  0  0  0  0  0  0  0  0
    6.6610   -6.7941    0.0000 C   0  0  0  0  0  0  0  0  0  0  0  0
    5.9465   -6.3816    0.0000 C   0  0  0  0  0  0  0  0  0  0  0  0
    5.2320   -6.7941    0.0000 C   0  0  0  0  0  0  0  0  0  0  0  0
    5.2320   -7.6191    0.0000 C   0  0  0  0  0  0  0  0  0  0  0  0
    5.9465   -8.0316    0.0000 C   0  0  0  0  0  0  0  0  0  0  0  0
    6.6610   -7.6191    0.0000 C   0  0  0  0  0  0  0  0  0  0  0  0
    7.3755   -8.0316    0.0000 C   0  0  0  0  0  0  0  0  0  0  0  0
    8.0899   -7.6191    0.0000 C   0  0  0  0  0  0  0  0  0  0  0  0
    8.0899   -6.7941    0.0000 C   0  0  0  0  0  0  0  0  0  0  0  0
    3.8031   -6.7941    0.0000 C   0  0  2  0  0  0  0  0  0  0  0  0
    3.0886   -6.3816    0.0000 O   0  0  0  0  0  0  0  0  0  0  0  0
    2.3742   -6.7941    0.0000 C   0  0  2  0  0  0  0  0  0  0  0  0
    2.3742   -7.6191    0.0000 C   0  0  1  0  0  0  0  0  0  0  0  0
    3.0886   -8.0316    0.0000 C   0  0  2  0  0  0  0  0  0  0  0  0
    3.8031   -7.6191    0.0000 C   0  0  1  0  0  0  0  0  0  0  0  0
    1.6597   -8.0316    0.0000 O   0  0  0  0  0  0  0  0  0  0  0  0
    1.6597   -6.3816    0.0000 C   0  0  0  0  0  0  0  0  0  0  0  0
    3.0886   -8.8566    0.0000 O   0  0  0  0  0  0  0  0  0  0  0  0
    4.5176   -8.0316    0.0000 O   0  0  0  0  0  0  0  0  0  0  0  0
 41 22  1  0  0  0  0
 20 22  1  1  0  0  0
 18  1  1  1  0  0  0
 17  2  1  6  0  0  0
 16  4  1  1  0  0  0
  4  3  1  0  0  0  0
 19 15  1  6  0  0  0
 13 15  1  1  0  0  0
 12  5  1  6  0  0  0
 11  6  1  6  0  0  0
 10  7  1  1  0  0  0
  9  8  1  6  0  0  0
 14  9  1  0  0  0  0
 10  9  1  0  0  0  0
 11 10  1  0  0  0  0
 12 11  1  0  0  0  0
 13 12  1  0  0  0  0
 14 13  1  0  0  0  0
 21 16  1  0  0  0  0
 17 16  1  0  0  0  0
 18 17  1  0  0  0  0
 19 18  1  0  0  0  0
 20 19  1  0  0  0  0
 21 20  1  0  0  0  0
 38 23  1  0  0  0  0
 36 24  1  0  0  0  0
 42 31  1  0  0  0  0
 28 25  1  0  0  0  0
 31 26  2  0  0  0  0
 27 26  1  0  0  0  0
 28 27  2  0  0  0  0
 29 28  1  0  0  0  0
 30 29  2  0  0  0  0
 31 30  1  0  0  0  0
 40 32  2  0  0  0  0
 42 33  1  0  0  0  0
 34 33  1  0  0  0  0
 39 34  2  0  0  0  0
 35 34  1  0  0  0  0
 36 35  2  0  0  0  0
 37 36  1  0  0  0  0
 38 37  2  0  0  0  0
 39 38  1  0  0  0  0
 40 39  1  0  0  0  0
 41 40  1  0  0  0  0
 42 41  2  0  0  0  0
 43 24  1  1  0  0  0
 43 44  1  0  0  0  0
 44 45  1  0  0  0  0
 45 46  1  0  0  0  0
 46 47  1  0  0  0  0
 47 48  1  0  0  0  0
 48 43  1  0  0  0  0
 46 49  1  1  0  0  0
 45 50  1  6  0  0  0
 47 51  1  6  0  0  0
 48 52  1  6  0  0  0
M  END
>  <cdx:fragmentId>
61

$$$$
