95750.cdx
  Mrv1902 05222410272D          

 49 54  0  0  0  0            999 V2000
    3.8166   -8.9240    0.0000 C   0  0  1  0  0  0  0  0  0  0  0  0
    3.8166   -8.0990    0.0000 C   0  0  1  0  0  0  0  0  0  0  0  0
    4.5311   -7.6865    0.0000 C   0  0  0  0  0  0  0  0  0  0  0  0
    4.5311   -9.3365    0.0000 C   0  0  2  0  0  0  0  0  0  0  0  0
    4.9436  -10.0510    0.0000 C   0  0  0  0  0  0  0  0  0  0  0  0
    4.1186  -10.0510    0.0000 C   0  0  0  0  0  0  0  0  0  0  0  0
    5.2455   -8.9240    0.0000 C   0  0  2  0  0  0  0  0  0  0  0  0
    5.2455   -9.7490    0.0000 H   0  0  0  0  0  0  0  0  0  0  0  0
    5.9600   -9.3365    0.0000 C   0  0  0  0  0  0  0  0  0  0  0  0
    6.6745   -8.9240    0.0000 C   0  0  0  0  0  0  0  0  0  0  0  0
    6.6745   -8.0990    0.0000 C   0  0  1  0  0  0  0  0  0  0  0  0
    6.6745   -7.2740    0.0000 C   0  0  0  0  0  0  0  0  0  0  0  0
    7.3889   -7.6865    0.0000 C   0  0  2  0  0  0  0  0  0  0  0  0
    7.3889   -8.5115    0.0000 C   0  0  0  0  0  0  0  0  0  0  0  0
    8.1034   -8.0990    0.0000 C   0  0  0  0  0  0  0  0  0  0  0  0
    8.8179   -7.6865    0.0000 C   0  0  0  0  0  0  0  0  0  0  0  0
    8.8179   -6.8615    0.0000 C   0  0  1  0  0  0  0  0  0  0  0  0
    9.5324   -6.4490    0.0000 C   0  0  0  0  0  0  0  0  0  0  0  0
    9.5324   -5.6240    0.0000 C   0  0  0  0  0  0  0  0  0  0  0  0
    8.8179   -5.2115    0.0000 C   0  0  0  0  0  0  0  0  0  0  0  0
    8.4054   -4.4970    0.0000 C   0  0  0  0  0  0  0  0  0  0  0  0
    9.2304   -4.4970    0.0000 C   0  0  0  0  0  0  0  0  0  0  0  0
    8.1034   -5.6240    0.0000 C   0  0  0  0  0  0  0  0  0  0  0  0
    8.1034   -6.4490    0.0000 C   0  0  1  0  0  0  0  0  0  0  0  0
    8.1034   -7.2740    0.0000 H   0  0  0  0  0  0  0  0  0  0  0  0
    7.3889   -6.8615    0.0000 C   0  0  0  0  0  0  0  0  0  0  0  0
    6.6745   -6.4490    0.0000 C   0  0  0  0  0  0  0  0  0  0  0  0
    5.9600   -6.8615    0.0000 C   0  0  0  0  0  0  0  0  0  0  0  0
    5.9600   -7.6865    0.0000 C   0  0  2  0  0  0  0  0  0  0  0  0
    5.2455   -8.0990    0.0000 C   0  0  1  0  0  0  0  0  0  0  0  0
    5.2455   -7.2740    0.0000 C   0  0  0  0  0  0  0  0  0  0  0  0
    4.5311  -10.7655    0.0000 O   0  0  0  0  0  0  0  0  0  0  0  0
    3.1021   -9.3365    0.0000 O   0  0  0  0  0  0  0  0  0  0  0  0
    3.1021   -7.6865    0.0000 O   0  0  0  0  0  0  0  0  0  0  0  0
    5.9600   -8.5115    0.0000 H   0  0  0  0  0  0  0  0  0  0  0  0
    6.6891  -10.3008    0.0000 O   0  0  0  0  0  0  0  0  0  0  0  0
    7.0870   -9.5781    0.0000 C   0  0  0  0  0  0  0  0  0  0  0  0
    8.3097   -8.8386    0.0000 O   0  0  0  0  0  0  0  0  0  0  0  0
    7.9118   -9.5613    0.0000 C   0  0  1  0  0  0  0  0  0  0  0  0
    7.9409  -10.9899    0.0000 O   0  0  0  0  0  0  0  0  0  0  0  0
    8.3388  -10.2672    0.0000 C   0  0  1  0  0  0  0  0  0  0  0  0
    9.5906  -10.9563    0.0000 O   0  0  0  0  0  0  0  0  0  0  0  0
    9.1636  -10.2504    0.0000 C   0  0  2  0  0  0  0  0  0  0  0  0
   10.3863   -9.5108    0.0000 O   0  0  0  0  0  0  0  0  0  0  0  0
    9.5615   -9.5277    0.0000 C   0  0  1  0  0  0  0  0  0  0  0  0
    9.1345   -8.8217    0.0000 C   0  0  2  0  0  0  0  0  0  0  0  0
    9.5324   -8.0990    0.0000 O   0  0  0  0  0  0  0  0  0  0  0  0
   10.2468   -6.8615    0.0000 O   0  0  0  0  0  0  0  0  0  0  0  0
    9.5324   -7.2740    0.0000 C   0  0  0  0  0  0  0  0  0  0  0  0
 46 47  1  1  0  0  0
 46 38  1  0  0  0  0
 37 36  1  0  0  0  0
 39 37  1  1  0  0  0
 39 38  1  0  0  0  0
 41 39  1  0  0  0  0
 41 40  1  6  0  0  0
 43 41  1  0  0  0  0
 43 42  1  1  0  0  0
 45 43  1  0  0  0  0
 45 44  1  6  0  0  0
 46 45  1  0  0  0  0
 49 47  1  0  0  0  0
 49 48  2  0  0  0  0
  1  2  1  0  0  0  0
  2  3  1  0  0  0  0
  1  4  1  0  0  0  0
  4  5  1  6  0  0  0
  4  6  1  1  0  0  0
  4  7  1  0  0  0  0
  7  8  1  6  0  0  0
  7  9  1  0  0  0  0
  9 10  1  0  0  0  0
 10 11  1  0  0  0  0
 11 12  1  1  0  0  0
 11 13  1  0  0  0  0
 13 14  1  6  0  0  0
 13 15  1  0  0  0  0
 15 16  1  0  0  0  0
 16 17  1  0  0  0  0
 17 49  1  1  0  0  0
 17 18  1  0  0  0  0
 18 19  1  0  0  0  0
 19 20  1  0  0  0  0
 20 21  1  0  0  0  0
 20 22  1  0  0  0  0
 20 23  1  0  0  0  0
 23 24  1  0  0  0  0
 24 25  1  1  0  0  0
 17 24  1  0  0  0  0
 24 26  1  0  0  0  0
 13 26  1  0  0  0  0
 26 27  2  0  0  0  0
 27 28  1  0  0  0  0
 28 29  1  0  0  0  0
 11 29  1  0  0  0  0
 29 30  1  0  0  0  0
  3 30  1  0  0  0  0
  7 30  1  0  0  0  0
 30 31  1  1  0  0  0
  5 32  1  0  0  0  0
  1 33  1  1  0  0  0
  2 34  1  6  0  0  0
 29 35  1  6  0  0  0
M  END
>  <cdx:fragmentId>
5

$$$$
