95758.cdx
  Mrv1902 05222410192D          

 29 30  0  0  0  0            999 V2000
    5.4322   -8.0343    0.0000 C   0  0  0  0  0  0  0  0  0  0  0  0
    4.7234   -7.6122    0.0000 C   0  0  0  0  0  0  0  0  0  0  0  0
    4.0034   -8.0151    0.0000 C   0  0  0  0  0  0  0  0  0  0  0  0
    3.9923   -8.8400    0.0000 C   0  0  0  0  0  0  0  0  0  0  0  0
    4.7012   -9.2621    0.0000 C   0  0  0  0  0  0  0  0  0  0  0  0
    5.4212   -8.8592    0.0000 C   0  0  0  0  0  0  0  0  0  0  0  0
    7.5452  -10.1296    0.0000 O   0  0  0  0  0  0  0  0  0  0  0  0
   11.1366   -8.9359    0.0000 C   0  0  0  0  0  0  0  0  0  0  0  0
   10.4163   -9.3518    0.0000 O   0  0  0  0  0  0  0  0  0  0  0  0
   10.4434   -7.7020    0.0000 O   0  0  0  0  0  0  0  0  0  0  0  0
    8.9875   -9.3283    0.0000 C   0  0  0  0  0  0  0  0  0  0  0  0
    9.7087   -8.9276    0.0000 C   0  0  0  0  0  0  0  0  0  0  0  0
    9.7223   -8.1027    0.0000 C   0  0  0  0  0  0  0  0  0  0  0  0
    9.0147   -7.6785    0.0000 C   0  0  0  0  0  0  0  0  0  0  0  0
    7.5588   -9.3048    0.0000 C   0  0  2  0  0  0  0  0  0  0  0  0
    3.2945   -7.5930    0.0000 C   0  0  0  0  0  0  0  0  0  0  0  0
    2.5746   -7.9959    0.0000 C   0  0  0  0  0  0  0  0  0  0  0  0
    1.8657   -7.5739    0.0000 C   0  0  0  0  0  0  0  0  0  0  0  0
    8.2799   -8.9041    0.0000 C   0  0  0  0  0  0  0  0  0  0  0  0
    8.2935   -8.0792    0.0000 C   0  0  0  0  0  0  0  0  0  0  0  0
    7.5859   -7.6550    0.0000 O   0  0  0  0  0  0  0  0  0  0  0  0
    6.1300   -9.2812    0.0000 O   0  0  0  0  0  0  0  0  0  0  0  0
    6.8512   -8.8806    0.0000 C   0  0  1  0  0  0  0  0  0  0  0  0
    6.8648   -8.0557    0.0000 C   0  0  0  0  0  0  0  0  0  0  0  0
    4.6901  -10.0870    0.0000 O   0  0  0  0  0  0  0  0  0  0  0  0
    6.1522   -7.6314    0.0000 O   0  0  0  0  0  0  0  0  0  0  0  0
    6.1522   -6.8064    0.0000 C   0  0  0  0  0  0  0  0  0  0  0  0
    1.1458   -7.9767    0.0000 O   0  0  0  0  0  0  0  0  0  0  0  0
    3.9235  -10.5296    0.0000 C   0  0  0  0  0  0  0  0  0  0  0  0
  1  2  2  0  0  0  0
  2  3  1  0  0  0  0
  3  4  2  0  0  0  0
  4  5  1  0  0  0  0
  5  6  2  0  0  0  0
  6  1  1  0  0  0  0
 15  7  1  1  0  0  0
  9  8  1  0  0  0  0
 12  9  1  0  0  0  0
 22  6  1  0  0  0  0
 13 10  1  0  0  0  0
 11 19  1  0  0  0  0
 12 11  2  0  0  0  0
 13 12  1  0  0  0  0
 14 13  2  0  0  0  0
 20 14  1  0  0  0  0
 15 23  1  0  0  0  0
 19 15  1  0  0  0  0
 20 19  2  0  0  0  0
 24 21  1  0  0  0  0
  3 16  1  0  0  0  0
 16 17  2  0  0  0  0
 17 18  1  0  0  0  0
 23 22  1  1  0  0  0
 24 23  1  0  0  0  0
  5 25  1  0  0  0  0
  1 26  1  0  0  0  0
 26 27  1  0  0  0  0
 18 28  1  0  0  0  0
 25 29  1  0  0  0  0
M  END
>  <cdx:fragmentId>
110

$$$$
