95756.cdx
  Mrv1902 05222410262D          

 26 27  0  0  0  0            999 V2000
    7.1097   -8.1443    0.0000 C   0  0  0  0  0  0  0  0  0  0  0  0
    6.4009   -7.7222    0.0000 C   0  0  0  0  0  0  0  0  0  0  0  0
    5.6809   -8.1251    0.0000 C   0  0  0  0  0  0  0  0  0  0  0  0
    5.6698   -8.9500    0.0000 C   0  0  0  0  0  0  0  0  0  0  0  0
    6.3787   -9.3721    0.0000 C   0  0  0  0  0  0  0  0  0  0  0  0
    7.0987   -8.9692    0.0000 C   0  0  0  0  0  0  0  0  0  0  0  0
    9.2365   -9.3913    0.0000 C   0  0  0  0  0  0  0  0  0  0  0  0
    8.5220   -8.9788    0.0000 C   0  0  2  0  0  0  0  0  0  0  0  0
    7.8075   -9.3913    0.0000 O   0  0  0  0  0  0  0  0  0  0  0  0
    9.9509   -8.9788    0.0000 O   0  0  0  0  0  0  0  0  0  0  0  0
    9.9509   -8.1538    0.0000 C   0  0  0  0  0  0  0  0  0  0  0  0
    9.2365   -7.7413    0.0000 C   0  0  0  0  0  0  0  0  0  0  0  0
    8.5220   -8.1538    0.0000 C   0  0  2  0  0  0  0  0  0  0  0  0
   10.6654   -7.7413    0.0000 C   0  0  0  0  0  0  0  0  0  0  0  0
   10.6654   -6.9162    0.0000 C   0  0  0  0  0  0  0  0  0  0  0  0
    9.9509   -6.5038    0.0000 C   0  0  0  0  0  0  0  0  0  0  0  0
    9.2365   -6.9162    0.0000 C   0  0  0  0  0  0  0  0  0  0  0  0
    4.9720   -7.7030    0.0000 C   0  0  0  0  0  0  0  0  0  0  0  0
    4.2521   -8.1059    0.0000 C   0  0  0  0  0  0  0  0  0  0  0  0
    3.5432   -7.6839    0.0000 C   0  0  0  0  0  0  0  0  0  0  0  0
    2.8233   -8.0867    0.0000 O   0  0  0  0  0  0  0  0  0  0  0  0
    9.9509   -5.6788    0.0000 O   0  0  0  0  0  0  0  0  0  0  0  0
    9.2365   -5.2663    0.0000 C   0  0  0  0  0  0  0  0  0  0  0  0
    7.8075   -7.7413    0.0000 O   0  0  0  0  0  0  0  0  0  0  0  0
    6.3676  -10.1970    0.0000 O   0  0  0  0  0  0  0  0  0  0  0  0
    7.0765  -10.6190    0.0000 C   0  0  0  0  0  0  0  0  0  0  0  0
  1  2  2  0  0  0  0
  2  3  1  0  0  0  0
  3  4  2  0  0  0  0
  4  5  1  0  0  0  0
  5  6  2  0  0  0  0
  6  1  1  0  0  0  0
  7  8  1  0  0  0  0
  8  9  1  6  0  0  0
  9  6  1  0  0  0  0
  7 10  1  0  0  0  0
 11 12  2  0  0  0  0
 12 13  1  0  0  0  0
 13  8  1  0  0  0  0
 11 14  1  0  0  0  0
 14 15  2  0  0  0  0
 15 16  1  0  0  0  0
 16 17  2  0  0  0  0
 17 12  1  0  0  0  0
  3 18  1  0  0  0  0
 18 19  1  0  0  0  0
 19 20  1  0  0  0  0
 20 21  1  0  0  0  0
 16 22  1  0  0  0  0
 22 23  1  0  0  0  0
 13 24  1  1  0  0  0
  5 25  1  0  0  0  0
 25 26  1  0  0  0  0
M  END
>  <cdx:fragmentId>
191

$$$$
