95755.cdx
  Mrv1902 05222410272D          

 27 28  0  0  0  0            999 V2000
    8.2981   -7.6686    0.0000 C   0  0  0  0  0  0  0  0  0  0  0  0
    9.0070   -8.0907    0.0000 O   0  0  0  0  0  0  0  0  0  0  0  0
    6.8377  -10.1252    0.0000 C   0  0  0  0  0  0  0  0  0  0  0  0
    6.8477   -9.3003    0.0000 C   0  0  2  0  0  0  0  0  0  0  0  0
    7.5671   -8.8964    0.0000 O   0  0  0  0  0  0  0  0  0  0  0  0
    6.1183  -10.5290    0.0000 O   0  0  0  0  0  0  0  0  0  0  0  0
    5.4089  -10.1079    0.0000 C   0  0  0  0  0  0  0  0  0  0  0  0
    5.4189   -9.2830    0.0000 C   0  0  0  0  0  0  0  0  0  0  0  0
   12.5514  -10.2010    0.0000 O   0  0  0  0  0  0  0  0  0  0  0  0
   11.8314  -10.6038    0.0000 C   0  0  0  0  0  0  0  0  0  0  0  0
   11.1225  -10.1818    0.0000 C   0  0  0  0  0  0  0  0  0  0  0  0
   10.4026  -10.5846    0.0000 C   0  0  0  0  0  0  0  0  0  0  0  0
    6.1383   -8.8791    0.0000 C   0  0  2  0  0  0  0  0  0  0  0  0
    4.6895  -10.5117    0.0000 C   0  0  0  0  0  0  0  0  0  0  0  0
    3.9800  -10.0906    0.0000 C   0  0  0  0  0  0  0  0  0  0  0  0
    3.9900   -9.2657    0.0000 C   0  0  0  0  0  0  0  0  0  0  0  0
    4.7095   -8.8618    0.0000 C   0  0  0  0  0  0  0  0  0  0  0  0
    3.2606  -10.4944    0.0000 O   0  0  0  0  0  0  0  0  0  0  0  0
    3.2806   -8.8445    0.0000 O   0  0  0  0  0  0  0  0  0  0  0  0
    2.5467   -9.2683    0.0000 C   0  0  0  0  0  0  0  0  0  0  0  0
    6.1483   -8.0542    0.0000 O   0  0  0  0  0  0  0  0  0  0  0  0
    8.2760   -9.3185    0.0000 C   0  0  0  0  0  0  0  0  0  0  0  0
    8.9959   -8.9156    0.0000 C   0  0  0  0  0  0  0  0  0  0  0  0
    9.7048   -9.3377    0.0000 C   0  0  0  0  0  0  0  0  0  0  0  0
    9.6937  -10.1626    0.0000 C   0  0  0  0  0  0  0  0  0  0  0  0
    8.9738  -10.5655    0.0000 C   0  0  0  0  0  0  0  0  0  0  0  0
    8.2649  -10.1434    0.0000 C   0  0  0  0  0  0  0  0  0  0  0  0
  2  1  1  0  0  0  0
 23  2  1  0  0  0  0
  3  4  1  0  0  0  0
  4  5  1  1  0  0  0
 10  9  1  0  0  0  0
 11 10  1  0  0  0  0
 12 11  1  0  0  0  0
 25 12  1  0  0  0  0
  3  6  1  0  0  0  0
  7  8  2  0  0  0  0
  8 13  1  0  0  0  0
 13  4  1  0  0  0  0
  7 14  1  0  0  0  0
 14 15  2  0  0  0  0
 15 16  1  0  0  0  0
 16 17  2  0  0  0  0
 17  8  1  0  0  0  0
 15 18  1  0  0  0  0
  5 22  1  0  0  0  0
 16 19  1  0  0  0  0
 19 20  1  0  0  0  0
 13 21  1  6  0  0  0
 22 27  1  0  0  0  0
 23 22  2  0  0  0  0
 24 23  1  0  0  0  0
 25 24  2  0  0  0  0
 26 25  1  0  0  0  0
 27 26  2  0  0  0  0
M  END
>  <cdx:fragmentId>
191

$$$$
