95757.cdx
  Mrv1902 05222410262D          

 27 28  0  0  0  0            999 V2000
    7.5772   -8.1993    0.0000 C   0  0  0  0  0  0  0  0  0  0  0  0
    6.8684   -7.7772    0.0000 C   0  0  0  0  0  0  0  0  0  0  0  0
    6.1484   -8.1801    0.0000 C   0  0  0  0  0  0  0  0  0  0  0  0
    6.1373   -9.0050    0.0000 C   0  0  0  0  0  0  0  0  0  0  0  0
    6.8462   -9.4271    0.0000 C   0  0  0  0  0  0  0  0  0  0  0  0
    7.5662   -9.0242    0.0000 C   0  0  0  0  0  0  0  0  0  0  0  0
    9.7040   -9.4462    0.0000 C   0  0  0  0  0  0  0  0  0  0  0  0
    8.9895   -9.0337    0.0000 C   0  0  2  0  0  0  0  0  0  0  0  0
    8.2750   -9.4462    0.0000 O   0  0  0  0  0  0  0  0  0  0  0  0
   10.4184   -9.0337    0.0000 O   0  0  0  0  0  0  0  0  0  0  0  0
   10.4184   -8.2088    0.0000 C   0  0  0  0  0  0  0  0  0  0  0  0
    9.7040   -7.7963    0.0000 C   0  0  0  0  0  0  0  0  0  0  0  0
    8.9895   -8.2088    0.0000 C   0  0  1  0  0  0  0  0  0  0  0  0
   11.1329   -7.7963    0.0000 C   0  0  0  0  0  0  0  0  0  0  0  0
   11.1329   -6.9712    0.0000 C   0  0  0  0  0  0  0  0  0  0  0  0
   10.4184   -6.5587    0.0000 C   0  0  0  0  0  0  0  0  0  0  0  0
    9.7040   -6.9712    0.0000 C   0  0  0  0  0  0  0  0  0  0  0  0
    5.4395   -7.7580    0.0000 C   0  0  0  0  0  0  0  0  0  0  0  0
    4.7196   -8.1609    0.0000 C   0  0  0  0  0  0  0  0  0  0  0  0
    4.0107   -7.7389    0.0000 C   0  0  0  0  0  0  0  0  0  0  0  0
    3.2908   -8.1417    0.0000 O   0  0  0  0  0  0  0  0  0  0  0  0
   11.8474   -6.5587    0.0000 O   0  0  0  0  0  0  0  0  0  0  0  0
   10.4184   -5.7338    0.0000 O   0  0  0  0  0  0  0  0  0  0  0  0
    9.7040   -5.3213    0.0000 C   0  0  0  0  0  0  0  0  0  0  0  0
    8.2750   -7.7963    0.0000 O   0  0  0  0  0  0  0  0  0  0  0  0
    6.8351  -10.2520    0.0000 O   0  0  0  0  0  0  0  0  0  0  0  0
    7.5440  -10.6740    0.0000 C   0  0  0  0  0  0  0  0  0  0  0  0
  1  2  2  0  0  0  0
  2  3  1  0  0  0  0
  3  4  2  0  0  0  0
  4  5  1  0  0  0  0
  5  6  2  0  0  0  0
  6  1  1  0  0  0  0
  7  8  1  0  0  0  0
  8  9  1  6  0  0  0
  9  6  1  0  0  0  0
  7 10  1  0  0  0  0
 11 12  2  0  0  0  0
 12 13  1  0  0  0  0
 13  8  1  0  0  0  0
 11 14  1  0  0  0  0
 14 15  2  0  0  0  0
 15 16  1  0  0  0  0
 16 17  2  0  0  0  0
 17 12  1  0  0  0  0
  3 18  1  0  0  0  0
 18 19  1  0  0  0  0
 19 20  1  0  0  0  0
 20 21  1  0  0  0  0
 15 22  1  0  0  0  0
 16 23  1  0  0  0  0
 23 24  1  0  0  0  0
 13 25  1  6  0  0  0
  5 26  1  0  0  0  0
 26 27  1  0  0  0  0
M  END
>  <cdx:fragmentId>
110

$$$$
