95763.cdx
  Mrv1902 05222410182D          

 30 33  0  0  0  0            999 V2000
    7.5421   -8.6784    0.0000 O   0  0  0  0  0  0  0  0  0  0  0  0
    8.2599   -8.2717    0.0000 C   0  0  2  0  0  0  0  0  0  0  0  0
    8.9710   -8.6900    0.0000 C   0  0  1  0  0  0  0  0  0  0  0  0
    8.9643   -9.5150    0.0000 C   0  0  2  0  0  0  0  0  0  0  0  0
    8.2465   -9.9217    0.0000 C   0  0  1  0  0  0  0  0  0  0  0  0
    7.5354   -9.5033    0.0000 C   0  0  0  0  0  0  0  0  0  0  0  0
    9.6888   -8.2834    0.0000 O   0  0  0  0  0  0  0  0  0  0  0  0
    9.6754   -9.9333    0.0000 O   0  0  0  0  0  0  0  0  0  0  0  0
    8.2397  -10.7466    0.0000 O   0  0  0  0  0  0  0  0  0  0  0  0
    8.2666   -7.4467    0.0000 O   0  0  0  0  0  0  0  0  0  0  0  0
    8.9916   -3.7363    0.0000 O   0  0  0  0  0  0  0  0  0  0  0  0
   10.4182   -4.5653    0.0000 O   0  0  0  0  0  0  0  0  0  0  0  0
    8.9846   -6.2113    0.0000 C   0  0  0  0  0  0  0  0  0  0  0  0
    9.7002   -5.8008    0.0000 C   0  0  0  0  0  0  0  0  0  0  0  0
    9.7026   -4.9758    0.0000 C   0  0  0  0  0  0  0  0  0  0  0  0
    8.9893   -4.5613    0.0000 C   0  0  0  0  0  0  0  0  0  0  0  0
    8.2736   -4.9717    0.0000 C   0  0  0  0  0  0  0  0  0  0  0  0
    8.2713   -5.7967    0.0000 C   0  0  0  0  0  0  0  0  0  0  0  0
    5.4064   -8.2637    0.0000 O   0  0  0  0  0  0  0  0  0  0  0  0
    3.9845   -5.7846    0.0000 O   0  0  0  0  0  0  0  0  0  0  0  0
    6.8424   -5.7927    0.0000 O   0  3  0  0  0  0  0  0  0  0  0  0
    6.1267   -6.2032    0.0000 C   0  0  0  0  0  0  0  0  0  0  0  0
    5.4134   -5.7887    0.0000 C   0  0  0  0  0  0  0  0  0  0  0  0
    4.6978   -6.1992    0.0000 C   0  0  0  0  0  0  0  0  0  0  0  0
    4.6955   -7.0241    0.0000 C   0  0  0  0  0  0  0  0  0  0  0  0
    5.4088   -7.4387    0.0000 C   0  0  0  0  0  0  0  0  0  0  0  0
    6.1244   -7.0282    0.0000 C   0  0  0  0  0  0  0  0  0  0  0  0
    6.8377   -7.4427    0.0000 C   0  0  0  0  0  0  0  0  0  0  0  0
    7.5533   -7.0322    0.0000 C   0  0  0  0  0  0  0  0  0  0  0  0
    7.5557   -6.2072    0.0000 C   0  0  0  0  0  0  0  0  0  0  0  0
 10 29  1  0  0  0  0
 30 18  1  0  0  0  0
 16 11  1  0  0  0  0
 15 12  1  0  0  0  0
 18 13  2  0  0  0  0
 14 13  1  0  0  0  0
 15 14  2  0  0  0  0
 16 15  1  0  0  0  0
 17 16  2  0  0  0  0
 18 17  1  0  0  0  0
 26 19  1  0  0  0  0
 24 20  1  0  0  0  0
 30 21  2  0  0  0  0
 22 21  1  0  0  0  0
 27 22  2  0  0  0  0
 23 22  1  0  0  0  0
 24 23  2  0  0  0  0
 25 24  1  0  0  0  0
 26 25  2  0  0  0  0
 27 26  1  0  0  0  0
 28 27  1  0  0  0  0
 29 28  2  0  0  0  0
 30 29  1  0  0  0  0
  1  2  1  0  0  0  0
  2  3  1  0  0  0  0
  3  4  1  0  0  0  0
  4  5  1  0  0  0  0
  5  6  1  0  0  0  0
  1  6  1  0  0  0  0
  3  7  1  6  0  0  0
  4  8  1  1  0  0  0
  5  9  1  6  0  0  0
  2 10  1  1  0  0  0
M  CHG  1  21   1
M  END
>  <cdx:groupId>
97

>  <cdx:fragmentId>
25

$$$$
