95765.cdx
  Mrv1902 05222410192D          

 34 36  0  0  0  0            999 V2000
    8.9822   -7.3856    0.0000 O   0  0  0  0  0  0  0  0  0  0  0  0
    8.2676   -7.7979    0.0000 C   0  0  2  0  0  0  0  0  0  0  0  0
    7.5532   -7.3852    0.0000 C   0  0  1  0  0  0  0  0  0  0  0  0
    7.5535   -6.5602    0.0000 C   0  0  2  0  0  0  0  0  0  0  0  0
    8.2681   -6.1479    0.0000 C   0  0  2  0  0  0  0  0  0  0  0  0
    8.9824   -6.5606    0.0000 C   0  0  0  0  0  0  0  0  0  0  0  0
    6.8386   -7.7975    0.0000 O   0  0  0  0  0  0  0  0  0  0  0  0
    6.8391   -6.1475    0.0000 O   0  0  0  0  0  0  0  0  0  0  0  0
    8.2683   -5.3229    0.0000 O   0  0  0  0  0  0  0  0  0  0  0  0
    8.2674   -8.6229    0.0000 O   0  0  0  0  0  0  0  0  0  0  0  0
    7.5529   -9.8604    0.0000 C   0  0  0  0  0  0  0  0  0  0  0  0
    7.5529   -9.0354    0.0000 C   0  0  0  0  0  0  0  0  0  0  0  0
    6.8384   -8.6229    0.0000 C   0  0  0  0  0  0  0  0  0  0  0  0
    6.1239   -9.0354    0.0000 C   0  0  0  0  0  0  0  0  0  0  0  0
    5.4095   -8.6229    0.0000 C   0  0  0  0  0  0  0  0  0  0  0  0
    4.6950   -9.0354    0.0000 C   0  0  0  0  0  0  0  0  0  0  0  0
    4.6950   -9.8604    0.0000 C   0  0  0  0  0  0  0  0  0  0  0  0
    5.4095  -10.2729    0.0000 C   0  0  0  0  0  0  0  0  0  0  0  0
    6.1239   -9.8604    0.0000 C   0  0  0  0  0  0  0  0  0  0  0  0
    6.8384  -10.2729    0.0000 O   0  3  0  0  0  0  0  0  0  0  0  0
    3.9805  -10.2729    0.0000 O   0  0  0  0  0  0  0  0  0  0  0  0
    5.4095   -7.7979    0.0000 O   0  0  0  0  0  0  0  0  0  0  0  0
    8.2674  -10.2729    0.0000 C   0  0  0  0  0  0  0  0  0  0  0  0
    8.2674  -11.0979    0.0000 C   0  0  0  0  0  0  0  0  0  0  0  0
    8.9818  -11.5104    0.0000 C   0  0  0  0  0  0  0  0  0  0  0  0
    9.6963  -11.0979    0.0000 C   0  0  0  0  0  0  0  0  0  0  0  0
    9.6963  -10.2729    0.0000 C   0  0  0  0  0  0  0  0  0  0  0  0
    8.9818   -9.8604    0.0000 C   0  0  0  0  0  0  0  0  0  0  0  0
   10.4108  -11.5104    0.0000 O   0  0  0  0  0  0  0  0  0  0  0  0
    8.9818  -12.3354    0.0000 O   0  0  0  0  0  0  0  0  0  0  0  0
   10.4108   -9.8604    0.0000 O   0  0  0  0  0  0  0  0  0  0  0  0
   11.1252  -10.2729    0.0000 C   0  0  0  0  0  0  0  0  0  0  0  0
    8.2674  -12.7479    0.0000 C   0  0  0  0  0  0  0  0  0  0  0  0
    6.8104  -10.7129    0.0000 Cl  0  5  0  0  0  0  0  0  0  0  0  0
  1  2  1  0  0  0  0
  2  3  1  0  0  0  0
  3  4  1  0  0  0  0
  4  5  1  0  0  0  0
  5  6  1  0  0  0  0
  1  6  1  0  0  0  0
  3  7  1  6  0  0  0
  4  8  1  1  0  0  0
  5  9  1  1  0  0  0
 11 12  1  0  0  0  0
 12 13  2  0  0  0  0
 13 14  1  0  0  0  0
 14 15  1  0  0  0  0
 15 16  2  0  0  0  0
 16 17  1  0  0  0  0
 17 18  2  0  0  0  0
 18 19  1  0  0  0  0
 14 19  2  0  0  0  0
 19 20  1  0  0  0  0
 11 20  2  0  0  0  0
 17 21  1  0  0  0  0
 15 22  1  0  0  0  0
 23 24  1  0  0  0  0
 24 25  2  0  0  0  0
 25 26  1  0  0  0  0
 26 27  2  0  0  0  0
 27 28  1  0  0  0  0
 23 28  2  0  0  0  0
 26 29  1  0  0  0  0
 25 30  1  0  0  0  0
 11 23  1  0  0  0  0
 10 12  1  0  0  0  0
  2 10  1  1  0  0  0
 27 31  1  0  0  0  0
 31 32  1  0  0  0  0
 30 33  1  0  0  0  0
M  CHG  2  20   1  34  -1
M  END
>  <cdx:groupId>
97

>  <cdx:fragmentId>
63

$$$$
