95769.cdx
  Mrv1902 05222410272D          

 35 39  0  0  0  0            999 V2000
    9.1313   -8.4141    0.0000 C   0  0  0  0  0  0  0  0  0  0  0  0
    9.8458   -8.8266    0.0000 C   0  0  0  0  0  0  0  0  0  0  0  0
    9.8458   -9.6516    0.0000 C   0  0  0  0  0  0  0  0  0  0  0  0
    9.1313  -10.0641    0.0000 C   0  0  0  0  0  0  0  0  0  0  0  0
    8.4168   -9.6516    0.0000 N   0  0  0  0  0  0  0  0  0  0  0  0
    7.7024  -10.0641    0.0000 C   0  0  0  0  0  0  0  0  0  0  0  0
    6.9879   -9.6516    0.0000 C   0  0  1  0  0  0  0  0  0  0  0  0
    6.9879   -8.8266    0.0000 C   0  0  2  0  0  0  0  0  0  0  0  0
    7.7024   -8.4141    0.0000 C   0  0  0  0  0  0  0  0  0  0  0  0
    8.4168   -8.8266    0.0000 C   0  0  1  0  0  0  0  0  0  0  0  0
   10.5603   -8.4141    0.0000 C   0  0  0  0  0  0  0  0  0  0  0  0
   10.5603   -7.5891    0.0000 C   0  0  0  0  0  0  0  0  0  0  0  0
    9.8458   -7.1766    0.0000 C   0  0  0  0  0  0  0  0  0  0  0  0
    9.1313   -7.5891    0.0000 C   0  0  0  0  0  0  0  0  0  0  0  0
    9.8458   -6.3516    0.0000 O   0  0  0  0  0  0  0  0  0  0  0  0
   10.5603   -5.9391    0.0000 C   0  0  0  0  0  0  0  0  0  0  0  0
   11.2747   -7.1766    0.0000 O   0  0  0  0  0  0  0  0  0  0  0  0
   11.9892   -7.5891    0.0000 C   0  0  0  0  0  0  0  0  0  0  0  0
    6.2734  -10.0641    0.0000 C   0  0  0  0  0  0  0  0  0  0  0  0
    6.2734  -10.8891    0.0000 C   0  0  0  0  0  0  0  0  0  0  0  0
    8.4168   -8.0016    0.0000 H   0  0  0  0  0  0  0  0  0  0  0  0
    6.2734   -8.4141    0.0000 C   0  0  0  0  0  0  0  0  0  0  0  0
    3.4155   -8.4141    0.0000 C   0  0  0  0  0  0  0  0  0  0  0  0
    3.4155   -7.5891    0.0000 O   0  0  0  0  0  0  0  0  0  0  0  0
    3.4155   -5.9391    0.0000 O   0  0  0  0  0  0  0  0  0  0  0  0
    5.5590   -7.1766    0.0000 C   0  0  0  0  0  0  0  0  0  0  0  0
    4.8445   -7.5891    0.0000 C   0  0  0  0  0  0  0  0  0  0  0  0
    4.1300   -7.1766    0.0000 C   0  0  0  0  0  0  0  0  0  0  0  0
    4.1300   -6.3516    0.0000 C   0  0  0  0  0  0  0  0  0  0  0  0
    4.8445   -5.9391    0.0000 C   0  0  0  0  0  0  0  0  0  0  0  0
    5.5590   -6.3516    0.0000 C   0  0  0  0  0  0  0  0  0  0  0  0
    6.2734   -5.9391    0.0000 C   0  0  0  0  0  0  0  0  0  0  0  0
    6.9879   -6.3516    0.0000 C   0  0  0  0  0  0  0  0  0  0  0  0
    6.9879   -7.1766    0.0000 N   0  0  0  0  0  0  0  0  0  0  0  0
    6.2734   -7.5891    0.0000 C   0  0  2  0  0  0  0  0  0  0  0  0
 35 22  1  6  0  0  0
 28 24  1  0  0  0  0
 24 23  1  0  0  0  0
 29 25  1  0  0  0  0
 31 26  2  0  0  0  0
 35 26  1  0  0  0  0
 27 26  1  0  0  0  0
 28 27  2  0  0  0  0
 29 28  1  0  0  0  0
 30 29  2  0  0  0  0
 31 30  1  0  0  0  0
 32 31  1  0  0  0  0
 33 32  1  0  0  0  0
 34 33  1  0  0  0  0
 35 34  1  0  0  0  0
  1  2  1  0  0  0  0
  2  3  1  0  0  0  0
  3  4  1  0  0  0  0
  4  5  1  0  0  0  0
  5  6  1  0  0  0  0
  6  7  1  0  0  0  0
  7  8  1  0  0  0  0
  8  9  1  0  0  0  0
  9 10  1  0  0  0  0
  5 10  1  0  0  0  0
  1 10  1  0  0  0  0
 11 12  1  0  0  0  0
 12 13  2  0  0  0  0
 13 14  1  0  0  0  0
 14  1  2  0  0  0  0
 11  2  2  0  0  0  0
 15 16  1  0  0  0  0
 13 15  1  0  0  0  0
 17 18  1  0  0  0  0
 12 17  1  0  0  0  0
 19 20  1  0  0  0  0
  7 19  1  6  0  0  0
  8 22  1  1  0  0  0
 10 21  1  6  0  0  0
M  END
>  <cdx:groupId>
111

>  <cdx:fragmentId>
33

$$$$
