95767.cdx
  Mrv1902 05222410202D          

 14 14  0  0  0  0            999 V2000
    8.3752   -6.6092    0.0000 C   0  0  0  0  0  0  0  0  0  0  0  0
    8.3624   -7.4341    0.0000 C   0  0  0  0  0  0  0  0  0  0  0  0
    7.6416   -7.8354    0.0000 C   0  0  0  0  0  0  0  0  0  0  0  0
    7.6672   -6.1856    0.0000 O   0  0  0  0  0  0  0  0  0  0  0  0
    5.4588   -9.2802    0.0000 O   0  0  0  0  0  0  0  0  0  0  0  0
    6.1733   -8.8677    0.0000 C   0  0  0  0  0  0  0  0  0  0  0  0
    6.7013  -10.5831    0.0000 O   0  0  0  0  0  0  0  0  0  0  0  0
    8.4959  -10.6110    0.0000 O   0  0  0  0  0  0  0  0  0  0  0  0
    9.0960   -6.2078    0.0000 N   0  0  0  0  0  0  0  0  0  0  0  0
    8.2886   -9.1556    0.0000 C   0  0  0  0  0  0  0  0  0  0  0  0
    8.0215   -9.9361    0.0000 C   0  0  2  0  0  0  0  0  0  0  0  0
    7.1966   -9.9233    0.0000 C   0  0  1  0  0  0  0  0  0  0  0  0
    6.9538   -9.1348    0.0000 C   0  0  2  0  0  0  0  0  0  0  0  0
    7.6287   -8.6603    0.0000 N   0  0  0  0  0  0  0  0  0  0  0  0
 13  6  1  1  0  0  0
  6  5  1  0  0  0  0
 12  7  1  6  0  0  0
 11  8  1  1  0  0  0
 14  3  1  0  0  0  0
 14 10  1  0  0  0  0
 11 10  1  0  0  0  0
 12 11  1  0  0  0  0
 13 12  1  0  0  0  0
 14 13  1  0  0  0  0
  1  2  1  0  0  0  0
  2  3  1  0  0  0  0
  1  4  2  0  0  0  0
  1  9  1  0  0  0  0
M  END
>  <cdx:fragmentId>
5

$$$$
