95766.cdx
  Mrv1902 05222410202D          

 34 37  0  0  0  0            999 V2000
    7.3451   -9.8604    0.0000 O   0  0  0  0  0  0  0  0  0  0  0  0
    8.0596   -9.4479    0.0000 C   0  0  2  0  0  0  0  0  0  0  0  0
    8.7741   -9.8604    0.0000 C   0  0  1  0  0  0  0  0  0  0  0  0
    8.7741  -10.6854    0.0000 C   0  0  2  0  0  0  0  0  0  0  0  0
    8.0596  -11.0979    0.0000 C   0  0  1  0  0  0  0  0  0  0  0  0
    7.3451  -10.6854    0.0000 C   0  0  1  0  0  0  0  0  0  0  0  0
    9.4885   -9.4479    0.0000 O   0  0  0  0  0  0  0  0  0  0  0  0
    9.4885  -11.0979    0.0000 O   0  0  0  0  0  0  0  0  0  0  0  0
    8.0596  -11.9229    0.0000 O   0  0  0  0  0  0  0  0  0  0  0  0
    6.6307  -11.0979    0.0000 C   0  0  0  0  0  0  0  0  0  0  0  0
    6.6307  -11.9229    0.0000 O   0  0  0  0  0  0  0  0  0  0  0  0
    8.0596   -8.6229    0.0000 O   0  0  0  0  0  0  0  0  0  0  0  0
    7.3451   -7.3854    0.0000 C   0  0  0  0  0  0  0  0  0  0  0  0
    7.3451   -8.2104    0.0000 C   0  0  0  0  0  0  0  0  0  0  0  0
    6.6307   -8.6229    0.0000 C   0  0  0  0  0  0  0  0  0  0  0  0
    5.9162   -8.2104    0.0000 C   0  0  0  0  0  0  0  0  0  0  0  0
    5.2017   -8.6229    0.0000 C   0  0  0  0  0  0  0  0  0  0  0  0
    4.4873   -8.2104    0.0000 C   0  0  0  0  0  0  0  0  0  0  0  0
    4.4873   -7.3854    0.0000 C   0  0  0  0  0  0  0  0  0  0  0  0
    5.2017   -6.9729    0.0000 C   0  0  0  0  0  0  0  0  0  0  0  0
    5.9162   -7.3854    0.0000 C   0  0  0  0  0  0  0  0  0  0  0  0
    6.6307   -6.9729    0.0000 O   0  3  0  0  0  0  0  0  0  0  0  0
    3.7728   -6.9729    0.0000 O   0  0  0  0  0  0  0  0  0  0  0  0
    5.2017   -9.4479    0.0000 O   0  0  0  0  0  0  0  0  0  0  0  0
    8.0596   -6.9729    0.0000 C   0  0  0  0  0  0  0  0  0  0  0  0
    8.0596   -6.1479    0.0000 C   0  0  0  0  0  0  0  0  0  0  0  0
    8.7741   -5.7354    0.0000 C   0  0  0  0  0  0  0  0  0  0  0  0
    9.4885   -6.1479    0.0000 C   0  0  0  0  0  0  0  0  0  0  0  0
    9.4885   -6.9729    0.0000 C   0  0  0  0  0  0  0  0  0  0  0  0
    8.7741   -7.3854    0.0000 C   0  0  0  0  0  0  0  0  0  0  0  0
   10.2030   -7.3854    0.0000 O   0  0  0  0  0  0  0  0  0  0  0  0
   10.9175   -6.9729    0.0000 C   0  0  0  0  0  0  0  0  0  0  0  0
   10.2030   -5.7354    0.0000 O   0  0  0  0  0  0  0  0  0  0  0  0
    8.7741   -4.9104    0.0000 O   0  0  0  0  0  0  0  0  0  0  0  0
  1  2  1  0  0  0  0
  2  3  1  0  0  0  0
  3  4  1  0  0  0  0
  4  5  1  0  0  0  0
  5  6  1  0  0  0  0
  1  6  1  0  0  0  0
  3  7  1  6  0  0  0
  4  8  1  1  0  0  0
  5  9  1  6  0  0  0
 10 11  1  0  0  0  0
  6 10  1  1  0  0  0
 13 14  1  0  0  0  0
 14 15  2  0  0  0  0
 15 16  1  0  0  0  0
 16 17  1  0  0  0  0
 17 18  2  0  0  0  0
 18 19  1  0  0  0  0
 19 20  2  0  0  0  0
 20 21  1  0  0  0  0
 16 21  2  0  0  0  0
 21 22  1  0  0  0  0
 13 22  2  0  0  0  0
 19 23  1  0  0  0  0
 17 24  1  0  0  0  0
 25 26  1  0  0  0  0
 26 27  2  0  0  0  0
 27 28  1  0  0  0  0
 28 29  2  0  0  0  0
 29 30  1  0  0  0  0
 25 30  2  0  0  0  0
 31 32  1  0  0  0  0
 29 31  1  0  0  0  0
 28 33  1  0  0  0  0
 27 34  1  0  0  0  0
 13 25  1  0  0  0  0
 12 14  1  0  0  0  0
  2 12  1  1  0  0  0
M  CHG  1  22   1
M  END
>  <cdx:groupId>
107

>  <cdx:fragmentId>
29

$$$$
