95775.cdx
  Mrv1902 05222410192D          

 11 10  0  0  0  0            999 V2000
    5.6570   -6.5122    0.0000 C   0  0  0  0  0  0  0  0  0  0  0  0
    5.6570   -5.6872    0.0000 C   0  0  0  0  0  0  0  0  0  0  0  0
    6.3714   -5.2747    0.0000 C   0  0  0  0  0  0  0  0  0  0  0  0
    7.0859   -5.6872    0.0000 C   0  0  0  0  0  0  0  0  0  0  0  0
    7.8004   -5.2747    0.0000 C   0  0  0  0  0  0  0  0  0  0  0  0
    8.5149   -5.6872    0.0000 C   0  0  0  0  0  0  0  0  0  0  0  0
    9.2293   -5.2747    0.0000 C   0  0  0  0  0  0  0  0  0  0  0  0
    9.9438   -5.6872    0.0000 C   0  0  0  0  0  0  0  0  0  0  0  0
    6.3714   -4.4497    0.0000 O   0  0  0  0  0  0  0  0  0  0  0  0
    8.5149   -6.5122    0.0000 C   0  0  0  0  0  0  0  0  0  0  0  0
    4.9425   -5.2747    0.0000 C   0  0  0  0  0  0  0  0  0  0  0  0
  1  2  2  0  0  0  0
  2  3  1  0  0  0  0
  3  4  1  0  0  0  0
  4  5  1  0  0  0  0
  5  6  1  0  0  0  0
  6  7  1  0  0  0  0
  7  8  2  0  0  0  0
  3  9  2  0  0  0  0
  6 10  2  0  0  0  0
  2 11  1  0  0  0  0
M  END
>  <cdx:fragmentId>
5

$$$$
