95778.cdx
  Mrv1902 05222410272D          

 17 19  0  0  0  0            999 V2000
    8.0745   -8.4002    0.0000 C   0  0  0  0  0  0  0  0  0  0  0  0
    8.7890   -7.9877    0.0000 C   0  0  0  0  0  0  0  0  0  0  0  0
    9.5034   -8.4002    0.0000 C   0  0  0  0  0  0  0  0  0  0  0  0
    9.5034   -9.2252    0.0000 C   0  0  0  0  0  0  0  0  0  0  0  0
    8.7890   -9.6377    0.0000 C   0  0  0  0  0  0  0  0  0  0  0  0
    8.0745   -9.2252    0.0000 O   0  0  0  0  0  0  0  0  0  0  0  0
    7.3600   -7.9877    0.0000 O   0  0  0  0  0  0  0  0  0  0  0  0
    6.6455   -8.4002    0.0000 C   0  0  0  0  0  0  0  0  0  0  0  0
    6.6455   -9.2252    0.0000 C   0  0  0  0  0  0  0  0  0  0  0  0
    5.9311   -9.6377    0.0000 C   0  0  0  0  0  0  0  0  0  0  0  0
    5.2166   -9.2252    0.0000 C   0  0  0  0  0  0  0  0  0  0  0  0
    5.2166   -8.4002    0.0000 C   0  0  0  0  0  0  0  0  0  0  0  0
    5.9311   -7.9877    0.0000 C   0  0  0  0  0  0  0  0  0  0  0  0
    5.5955   -8.8131    0.0000 C   0  0  0  0  0  0  0  0  0  0  0  0
    4.8810   -9.2256    0.0000 C   0  0  0  0  0  0  0  0  0  0  0  0
    4.8810   -8.4006    0.0000 C   0  0  0  0  0  0  0  0  0  0  0  0
    5.9311   -7.1627    0.0000 C   0  0  0  0  0  0  0  0  0  0  0  0
  1  2  1  0  0  0  0
  2  3  1  0  0  0  0
  3  4  1  0  0  0  0
  4  5  1  0  0  0  0
  5  6  1  0  0  0  0
  1  6  1  0  0  0  0
  8  9  1  0  0  0  0
  9 10  1  0  0  0  0
 10 11  1  0  0  0  0
 11 12  1  0  0  0  0
 12 13  1  0  0  0  0
  8 13  1  0  0  0  0
 13 14  1  0  0  0  0
 10 14  1  0  0  0  0
 14 15  1  0  0  0  0
 14 16  1  0  0  0  0
 13 17  1  0  0  0  0
  7  8  1  0  0  0  0
  1  7  1  0  0  0  0
M  END
>  <cdx:groupId>
55

>  <cdx:fragmentId>
19

$$$$
