95774.cdx
  Mrv1902 05222410192D          

 12 12  0  0  0  0            999 V2000
    6.0618   -5.9400    0.0000 C   0  0  0  0  0  0  0  0  0  0  0  0
    6.0618   -6.7650    0.0000 C   0  0  0  0  0  0  0  0  0  0  0  0
    6.7763   -7.1775    0.0000 C   0  0  0  0  0  0  0  0  0  0  0  0
    7.4907   -6.7650    0.0000 C   0  0  0  0  0  0  0  0  0  0  0  0
    7.4907   -5.9400    0.0000 C   0  0  0  0  0  0  0  0  0  0  0  0
    6.7763   -5.5275    0.0000 C   0  0  0  0  0  0  0  0  0  0  0  0
    6.7763   -8.0025    0.0000 C   0  0  0  0  0  0  0  0  0  0  0  0
    7.4907   -8.4150    0.0000 C   0  0  0  0  0  0  0  0  0  0  0  0
    6.0618   -8.4150    0.0000 C   0  0  0  0  0  0  0  0  0  0  0  0
    6.3638   -4.8130    0.0000 C   0  0  0  0  0  0  0  0  0  0  0  0
    7.1888   -4.8130    0.0000 O   0  0  0  0  0  0  0  0  0  0  0  0
    8.0138   -4.8130    0.0000 O   0  0  0  0  0  0  0  0  0  0  0  0
  1  2  2  0  0  0  0
  2  3  1  0  0  0  0
  3  4  1  0  0  0  0
  4  5  1  0  0  0  0
  5  6  1  0  0  0  0
  6  1  1  0  0  0  0
  3  7  1  0  0  0  0
  7  8  2  0  0  0  0
  7  9  1  0  0  0  0
  6 10  1  0  0  0  0
  6 11  1  0  0  0  0
 11 12  1  0  0  0  0
M  END
>  <cdx:fragmentId>
5

$$$$
