95772.cdx
  Mrv1902 05222410202D          

 24 26  0  0  0  0            999 V2000
    9.7760   -5.1613    0.0000 O   0  0  0  0  0  0  0  0  0  0  0  0
    6.9270   -7.1918    0.0000 C   0  0  0  0  0  0  0  0  0  0  0  0
    6.2125  -10.6832    0.0000 O   0  0  0  0  0  0  0  0  0  0  0  0
    6.6250   -9.9687    0.0000 C   0  0  0  0  0  0  0  0  0  0  0  0
    5.8000   -9.9687    0.0000 C   0  0  0  0  0  0  0  0  0  0  0  0
    4.7836   -9.2543    0.0000 O   0  0  0  0  0  0  0  0  0  0  0  0
    8.9690   -4.9897    0.0000 C   0  0  0  0  0  0  0  0  0  0  0  0
    8.6335   -4.2361    0.0000 O   0  0  0  0  0  0  0  0  0  0  0  0
    7.8130   -4.3223    0.0000 C   0  0  0  0  0  0  0  0  0  0  0  0
    8.3559   -5.5418    0.0000 C   0  0  0  0  0  0  0  0  0  0  0  0
    7.6415   -5.1293    0.0000 C   0  0  0  0  0  0  0  0  0  0  0  0
    9.0704   -7.6043    0.0000 C   0  0  0  0  0  0  0  0  0  0  0  0
    8.3559   -6.3668    0.0000 C   0  0  0  0  0  0  0  0  0  0  0  0
    7.6415   -6.7793    0.0000 C   0  0  0  0  0  0  0  0  0  0  0  0
    7.6415   -9.2543    0.0000 C   0  0  0  0  0  0  0  0  0  0  0  0
    8.3559   -8.8418    0.0000 C   0  0  0  0  0  0  0  0  0  0  0  0
    8.3559   -8.0168    0.0000 C   0  0  0  0  0  0  0  0  0  0  0  0
    7.6415   -7.6043    0.0000 C   0  0  2  0  0  0  0  0  0  0  0  0
    6.2125   -9.2543    0.0000 C   0  0  1  0  0  0  0  0  0  0  0  0
    6.9270   -8.8418    0.0000 C   0  0  0  0  0  0  0  0  0  0  0  0
    6.9270   -8.0168    0.0000 C   0  0  2  0  0  0  0  0  0  0  0  0
    6.2125   -7.6043    0.0000 C   0  0  0  0  0  0  0  0  0  0  0  0
    5.4981   -8.0168    0.0000 C   0  0  0  0  0  0  0  0  0  0  0  0
    5.4981   -8.8418    0.0000 C   0  0  0  0  0  0  0  0  0  0  0  0
  7  1  2  0  0  0  0
 21  2  1  6  0  0  0
  4  3  1  0  0  0  0
 19  4  1  6  0  0  0
 19  5  1  1  0  0  0
 24  6  2  0  0  0  0
  7 10  1  0  0  0  0
  8  7  1  0  0  0  0
  9  8  1  0  0  0  0
 11  9  1  0  0  0  0
 10 13  1  0  0  0  0
 11 10  2  0  0  0  0
 12 17  2  0  0  0  0
 14 13  1  0  0  0  0
 18 14  1  6  0  0  0
 15 20  1  0  0  0  0
 16 15  1  0  0  0  0
 17 16  1  0  0  0  0
 18 17  1  0  0  0  0
 21 18  1  0  0  0  0
 19 24  1  0  0  0  0
 20 19  1  0  0  0  0
 21 20  1  0  0  0  0
 22 21  1  0  0  0  0
 23 22  1  0  0  0  0
 24 23  1  0  0  0  0
M  END
>  <cdx:fragmentId>
5

$$$$
