95773.cdx
  Mrv1902 05222410202D          

 55 61  0  0  0  0            999 V2000
    6.2994  -11.1625    0.0000 H   0  0  0  0  0  0  0  0  0  0  0  0
    8.4152   -9.9015    0.0000 H   0  0  0  0  0  0  0  0  0  0  0  0
   10.0740   -7.6486    0.0000 H   0  0  0  0  0  0  0  0  0  0  0  0
   10.1997   -6.2252    0.0000 H   0  0  0  0  0  0  0  0  0  0  0  0
    7.6335   -7.2899    0.0000 H   0  0  0  0  0  0  0  0  0  0  0  0
    7.3732   -7.5955    0.0000 H   0  0  0  0  0  0  0  0  0  0  0  0
   10.4013   -7.3744    0.0000 O   0  0  0  0  0  0  0  0  0  0  0  0
   10.4220   -8.3966    0.0000 O   0  0  0  0  0  0  0  0  0  0  0  0
    8.7171   -9.6413    0.0000 O   0  0  0  0  0  0  0  0  0  0  0  0
    8.4357  -10.7144    0.0000 O   0  0  0  0  0  0  0  0  0  0  0  0
    5.5919  -11.5868    0.0000 O   0  0  0  0  0  0  0  0  0  0  0  0
    8.3338   -3.9086    0.0000 C   0  0  0  0  0  0  0  0  0  0  0  0
   10.4739   -6.5526    0.0000 C   0  0  0  0  0  0  0  0  0  0  0  0
    6.9932   -9.9133    0.0000 C   0  0  0  0  0  0  0  0  0  0  0  0
   10.1705  -11.2434    0.0000 C   0  0  0  0  0  0  0  0  0  0  0  0
   10.7700   -9.1446    0.0000 O   0  0  0  0  0  0  0  0  0  0  0  0
   11.8141  -11.3886    0.0000 C   0  0  0  0  0  0  0  0  0  0  0  0
   11.4661  -10.6406    0.0000 C   0  0  0  0  0  0  0  0  0  0  0  0
   10.6443  -10.5680    0.0000 C   0  0  2  0  0  0  0  0  0  0  0  0
   10.2962   -9.8200    0.0000 C   0  0  0  0  0  0  0  0  0  0  0  0
    9.4744   -9.7474    0.0000 O   0  0  0  0  0  0  0  0  0  0  0  0
    7.1376   -8.2787    0.0000 C   0  0  0  0  0  0  0  0  0  0  0  0
    6.9795   -9.0884    0.0000 C   0  0  2  0  0  0  0  0  0  0  0  0
    5.7624   -9.4921    0.0000 O   0  0  0  0  0  0  0  0  0  0  0  0
    5.5782  -10.7619    0.0000 C   0  0  2  0  0  0  0  0  0  0  0  0
    4.8570  -10.3613    0.0000 C   0  0  2  0  0  0  0  0  0  0  0  0
    4.8433   -9.5364    0.0000 C   0  0  0  0  0  0  0  0  0  0  0  0
    5.5508   -9.1121    0.0000 C   0  0  0  0  0  0  0  0  0  0  0  0
    6.2720   -9.5127    0.0000 C   0  0  2  0  0  0  0  0  0  0  0  0
    6.2857  -10.3376    0.0000 C   0  0  2  0  0  0  0  0  0  0  0  0
    7.0069  -10.7382    0.0000 C   0  0  0  0  0  0  0  0  0  0  0  0
    7.7145  -10.3138    0.0000 C   0  0  2  0  0  0  0  0  0  0  0  0
    7.7008   -9.4890    0.0000 C   0  0  1  0  0  0  0  0  0  0  0  0
    8.3046   -8.9268    0.0000 C   0  0  1  0  0  0  0  0  0  0  0  0
    9.1264   -8.9994    0.0000 C   0  0  2  0  0  0  0  0  0  0  0  0
    9.6002   -8.3240    0.0000 C   0  0  1  0  0  0  0  0  0  0  0  0
    9.2522   -7.5760    0.0000 C   0  0  2  0  0  0  0  0  0  0  0  0
    9.7259   -6.9006    0.0000 C   0  0  1  0  0  0  0  0  0  0  0  0
    9.3779   -6.1526    0.0000 C   0  0  2  0  0  0  0  0  0  0  0  0
    9.8517   -5.4772    0.0000 C   0  0  0  0  0  0  0  0  0  0  0  0
    9.5036   -4.7292    0.0000 C   0  0  0  0  0  0  0  0  0  0  0  0
    8.6818   -4.6566    0.0000 C   0  0  1  0  0  0  0  0  0  0  0  0
    8.2081   -5.3320    0.0000 C   0  0  0  0  0  0  0  0  0  0  0  0
    8.5561   -6.0800    0.0000 N   0  0  0  0  0  0  0  0  0  0  0  0
    8.0823   -6.7554    0.0000 C   0  0  0  0  0  0  0  0  0  0  0  0
    8.4304   -7.5034    0.0000 C   0  0  1  0  0  0  0  0  0  0  0  0
    7.9566   -8.1788    0.0000 C   0  0  2  0  0  0  0  0  0  0  0  0
    3.0313  -11.3273    0.0000 O   0  0  0  0  0  0  0  0  0  0  0  0
    2.6307  -12.0485    0.0000 C   0  0  0  0  0  0  0  0  0  0  0  0
    4.1495  -10.7856    0.0000 O   0  0  0  0  0  0  0  0  0  0  0  0
    4.8844  -12.0111    0.0000 O   0  0  0  0  0  0  0  0  0  0  0  0
    2.7618  -13.2840    0.0000 C   0  0  0  0  0  0  0  0  0  0  0  0
    3.4693  -12.8597    0.0000 C   0  0  0  0  0  0  0  0  0  0  0  0
    3.4556  -12.0348    0.0000 C   0  0  1  0  0  0  0  0  0  0  0  0
    4.1632  -11.6105    0.0000 C   0  0  0  0  0  0  0  0  0  0  0  0
 30  1  1  1  0  0  0
 33  2  1  1  0  0  0
 37  3  1  6  0  0  0
 39  4  1  6  0  0  0
 46  5  1  1  0  0  0
 47  6  1  6  0  0  0
 26 50  1  1  0  0  0
 38  7  1  1  0  0  0
 36  8  1  1  0  0  0
 34  9  1  6  0  0  0
 32 10  1  6  0  0  0
 25 11  1  1  0  0  0
 42 12  1  1  0  0  0
 38 13  1  6  0  0  0
 29 14  1  1  0  0  0
 35 21  1  6  0  0  0
 21 20  1  0  0  0  0
 19 15  1  1  0  0  0
 20 16  2  0  0  0  0
 18 17  1  0  0  0  0
 19 18  1  0  0  0  0
 20 19  1  0  0  0  0
 44 39  1  0  0  0  0
 46 37  1  0  0  0  0
 30 25  1  0  0  0  0
 33 23  1  0  0  0  0
 29 23  1  0  0  0  0
 47 34  1  0  0  0  0
 47 22  1  0  0  0  0
 23 22  1  1  0  0  0
 23 24  1  0  0  0  0
 25 24  1  0  0  0  0
 26 25  1  0  0  0  0
 27 26  1  0  0  0  0
 28 27  1  0  0  0  0
 29 28  1  0  0  0  0
 30 29  1  0  0  0  0
 31 30  1  0  0  0  0
 32 31  1  0  0  0  0
 33 32  1  0  0  0  0
 34 33  1  0  0  0  0
 35 34  1  0  0  0  0
 36 35  1  0  0  0  0
 37 36  1  0  0  0  0
 38 37  1  0  0  0  0
 39 38  1  0  0  0  0
 40 39  1  0  0  0  0
 41 40  1  0  0  0  0
 42 41  1  0  0  0  0
 43 42  1  0  0  0  0
 44 43  1  0  0  0  0
 45 44  1  0  0  0  0
 46 45  1  0  0  0  0
 47 46  1  0  0  0  0
 54 48  1  6  0  0  0
 54 49  1  1  0  0  0
 55 50  1  0  0  0  0
 55 51  2  0  0  0  0
 53 52  1  0  0  0  0
 54 53  1  0  0  0  0
 55 54  1  0  0  0  0
M  END
>  <cdx:groupId>
173

>  <cdx:fragmentId>
21

$$$$
