95777.cdx
  Mrv1902 05222410182D          

 17 17  0  0  0  0            999 V2000
   10.4321   -8.7736    0.0000 C   0  0  0  0  0  0  0  0  0  0  0  0
   10.4321   -7.9486    0.0000 C   0  0  0  0  0  0  0  0  0  0  0  0
   11.1466   -7.5361    0.0000 C   0  0  0  0  0  0  0  0  0  0  0  0
   11.8610   -7.9486    0.0000 C   0  0  0  0  0  0  0  0  0  0  0  0
   11.8610   -8.7736    0.0000 C   0  0  0  0  0  0  0  0  0  0  0  0
   11.1466   -9.1861    0.0000 O   0  0  0  0  0  0  0  0  0  0  0  0
    9.7176   -9.1861    0.0000 O   0  0  0  0  0  0  0  0  0  0  0  0
    9.0031   -8.7736    0.0000 C   0  0  0  0  0  0  0  0  0  0  0  0
    8.2887   -9.1861    0.0000 C   0  0  0  0  0  0  0  0  0  0  0  0
    7.5742   -8.7736    0.0000 C   0  0  0  0  0  0  0  0  0  0  0  0
    6.8597   -9.1861    0.0000 C   0  0  0  0  0  0  0  0  0  0  0  0
    6.1453   -8.7736    0.0000 C   0  0  0  0  0  0  0  0  0  0  0  0
    5.4308   -9.1861    0.0000 C   0  0  0  0  0  0  0  0  0  0  0  0
    4.7163   -8.7736    0.0000 C   0  0  0  0  0  0  0  0  0  0  0  0
    4.0018   -9.1861    0.0000 C   0  0  0  0  0  0  0  0  0  0  0  0
    3.2874   -8.7736    0.0000 C   0  0  0  0  0  0  0  0  0  0  0  0
    2.5729   -8.3611    0.0000 C   0  0  0  0  0  0  0  0  0  0  0  0
  1  2  1  0  0  0  0
  2  3  1  0  0  0  0
  3  4  1  0  0  0  0
  4  5  1  0  0  0  0
  5  6  1  0  0  0  0
  1  6  1  0  0  0  0
  8  9  1  0  0  0  0
  9 10  1  0  0  0  0
 10 11  1  0  0  0  0
 11 12  1  0  0  0  0
 12 13  1  0  0  0  0
 13 14  1  0  0  0  0
 14 15  1  0  0  0  0
 15 16  1  0  0  0  0
 16 17  3  0  0  0  0
  7  8  1  0  0  0  0
  1  7  1  0  0  0  0
M  END
>  <cdx:groupId>
53

>  <cdx:fragmentId>
19

$$$$
