95771.cdx
  Mrv1902 05222410192D          

 67 75  0  0  0  0            999 V2000
    6.7812   -8.6670    0.0000 C   0  0  1  0  0  0  0  0  0  0  0  0
    6.7812   -8.0070    0.0000 C   0  0  0  0  0  0  0  0  0  0  0  0
    7.3528   -7.6770    0.0000 C   0  0  0  0  0  0  0  0  0  0  0  0
    7.3528   -8.9970    0.0000 C   0  0  0  0  0  0  0  0  0  0  0  0
    7.9243   -8.6670    0.0000 C   0  0  2  0  0  0  0  0  0  0  0  0
    8.4959   -8.9970    0.0000 C   0  0  0  0  0  0  0  0  0  0  0  0
    9.0675   -8.6670    0.0000 C   0  0  0  0  0  0  0  0  0  0  0  0
    9.0675   -8.0070    0.0000 C   0  0  1  0  0  0  0  0  0  0  0  0
    9.6391   -7.6770    0.0000 C   0  0  2  0  0  0  0  0  0  0  0  0
   10.2668   -7.8810    0.0000 C   0  0  0  0  0  0  0  0  0  0  0  0
   10.6547   -7.3470    0.0000 C   0  0  2  0  0  0  0  0  0  0  0  0
   11.0426   -7.8810    0.0000 H   0  0  0  0  0  0  0  0  0  0  0  0
   11.2824   -7.1431    0.0000 O   0  0  0  0  0  0  0  0  0  0  0  0
   10.2668   -6.8131    0.0000 C   0  0  2  0  0  0  0  0  0  0  0  0
    9.9774   -6.2199    0.0000 H   0  0  0  0  0  0  0  0  0  0  0  0
   10.6547   -6.2791    0.0000 C   0  0  1  0  0  0  0  0  0  0  0  0
   11.2824   -6.4831    0.0000 C   0  0  2  0  0  0  0  0  0  0  0  0
   11.2134   -5.8267    0.0000 O   0  0  0  0  0  0  0  0  0  0  0  0
   11.8853   -6.7515    0.0000 C   0  0  0  0  0  0  0  0  0  0  0  0
   12.4193   -6.3636    0.0000 C   0  0  0  0  0  0  0  0  0  0  0  0
   12.3503   -5.7072    0.0000 C   0  0  1  0  0  0  0  0  0  0  0  0
   11.7474   -5.4388    0.0000 C   0  0  0  0  0  0  0  0  0  0  0  0
   12.8843   -5.3193    0.0000 C   0  0  0  0  0  0  0  0  0  0  0  0
   10.4507   -5.6514    0.0000 C   0  0  0  0  0  0  0  0  0  0  0  0
    9.6391   -7.0170    0.0000 C   0  0  2  0  0  0  0  0  0  0  0  0
    9.6391   -6.3570    0.0000 C   0  0  0  0  0  0  0  0  0  0  0  0
    9.0675   -6.6870    0.0000 C   0  0  0  0  0  0  0  0  0  0  0  0
    8.4959   -7.0170    0.0000 C   0  0  0  0  0  0  0  0  0  0  0  0
    8.4959   -7.6770    0.0000 C   0  0  2  0  0  0  0  0  0  0  0  0
    7.9243   -8.0070    0.0000 C   0  0  1  0  0  0  0  0  0  0  0  0
    7.9243   -7.3470    0.0000 C   0  0  0  0  0  0  0  0  0  0  0  0
    6.2096   -8.9970    0.0000 O   0  0  0  0  0  0  0  0  0  0  0  0
    7.9243   -9.3270    0.0000 H   0  0  0  0  0  0  0  0  0  0  0  0
    8.4959   -8.3370    0.0000 H   0  0  0  0  0  0  0  0  0  0  0  0
    9.0675   -7.3470    0.0000 H   0  0  0  0  0  0  0  0  0  0  0  0
    9.6391   -8.3370    0.0000 H   0  0  0  0  0  0  0  0  0  0  0  0
    5.6380   -8.6670    0.0000 C   0  0  2  0  0  0  0  0  0  0  0  0
    5.6380   -8.0070    0.0000 O   0  0  0  0  0  0  0  0  0  0  0  0
    5.0665   -7.6770    0.0000 C   0  0  1  0  0  0  0  0  0  0  0  0
    4.4949   -8.0070    0.0000 C   0  0  2  0  0  0  0  0  0  0  0  0
    4.4949   -8.6670    0.0000 C   0  0  1  0  0  0  0  0  0  0  0  0
    5.0665   -8.9970    0.0000 C   0  0  1  0  0  0  0  0  0  0  0  0
    3.9233   -8.9970    0.0000 O   0  0  0  0  0  0  0  0  0  0  0  0
    5.0665   -7.0170    0.0000 C   0  0  0  0  0  0  0  0  0  0  0  0
    3.9233   -7.6770    0.0000 O   0  0  0  0  0  0  0  0  0  0  0  0
    5.0665   -9.6570    0.0000 O   0  0  0  0  0  0  0  0  0  0  0  0
    4.4949   -6.6870    0.0000 O   0  0  0  0  0  0  0  0  0  0  0  0
    3.5639   -5.9549    0.0000 C   0  0  1  0  0  0  0  0  0  0  0  0
    2.9040   -5.9647    0.0000 C   0  0  1  0  0  0  0  0  0  0  0  0
    2.5825   -6.5412    0.0000 C   0  0  2  0  0  0  0  0  0  0  0  0
    2.9210   -7.1078    0.0000 C   0  0  2  0  0  0  0  0  0  0  0  0
    3.5810   -7.0979    0.0000 C   0  0  1  0  0  0  0  0  0  0  0  0
    3.9024   -6.5215    0.0000 O   0  0  0  0  0  0  0  0  0  0  0  0
    2.5655   -5.3982    0.0000 O   0  0  0  0  0  0  0  0  0  0  0  0
    3.8853   -5.3784    0.0000 C   0  0  0  0  0  0  0  0  0  0  0  0
    1.9226   -6.5510    0.0000 O   0  0  0  0  0  0  0  0  0  0  0  0
    2.5996   -7.6842    0.0000 O   0  0  0  0  0  0  0  0  0  0  0  0
    3.3614   -9.9999    0.0000 C   0  0  1  0  0  0  0  0  0  0  0  0
    3.3614  -10.6599    0.0000 C   0  0  1  0  0  0  0  0  0  0  0  0
    3.9330  -10.9899    0.0000 C   0  0  2  0  0  0  0  0  0  0  0  0
    4.5046  -10.6599    0.0000 C   0  0  2  0  0  0  0  0  0  0  0  0
    4.5046   -9.9999    0.0000 C   0  0  1  0  0  0  0  0  0  0  0  0
    3.9330   -9.6699    0.0000 O   0  0  0  0  0  0  0  0  0  0  0  0
    2.7898  -10.9899    0.0000 O   0  0  0  0  0  0  0  0  0  0  0  0
    2.7898   -9.6699    0.0000 C   0  0  0  0  0  0  0  0  0  0  0  0
    3.9330  -11.6499    0.0000 O   0  0  0  0  0  0  0  0  0  0  0  0
    5.0761  -10.9899    0.0000 O   0  0  0  0  0  0  0  0  0  0  0  0
  1  2  1  0  0  0  0
  2  3  1  0  0  0  0
  1  4  1  0  0  0  0
  4  5  1  0  0  0  0
  5  6  1  0  0  0  0
  6  7  1  0  0  0  0
  7  8  1  0  0  0  0
  8  9  1  0  0  0  0
  9 10  1  0  0  0  0
 10 11  1  0  0  0  0
 11 12  1  6  0  0  0
 11 13  1  0  0  0  0
 11 14  1  0  0  0  0
 14 15  1  6  0  0  0
 14 16  1  0  0  0  0
 16 17  1  0  0  0  0
 13 17  1  0  0  0  0
 17 18  1  6  0  0  0
 17 19  1  1  0  0  0
 19 20  1  0  0  0  0
 20 21  1  0  0  0  0
 21 22  1  0  0  0  0
 18 22  1  0  0  0  0
 21 23  1  1  0  0  0
 16 24  1  6  0  0  0
 14 25  1  0  0  0  0
  9 25  1  0  0  0  0
 25 26  1  1  0  0  0
 25 27  1  0  0  0  0
 27 28  1  0  0  0  0
 28 29  1  0  0  0  0
  8 29  1  0  0  0  0
 29 30  1  0  0  0  0
  3 30  1  0  0  0  0
  5 30  1  0  0  0  0
 30 31  1  1  0  0  0
  1 32  1  1  0  0  0
  5 33  1  6  0  0  0
 29 34  1  6  0  0  0
  8 35  1  1  0  0  0
  9 36  1  6  0  0  0
 37 32  1  1  0  0  0
 37 38  1  0  0  0  0
 38 39  1  0  0  0  0
 39 40  1  0  0  0  0
 40 41  1  0  0  0  0
 41 42  1  0  0  0  0
 42 37  1  0  0  0  0
 41 43  1  1  0  0  0
 39 44  1  1  0  0  0
 40 45  1  6  0  0  0
 42 46  1  6  0  0  0
 44 47  1  0  0  0  0
 48 49  1  0  0  0  0
 49 50  1  0  0  0  0
 50 51  1  0  0  0  0
 51 52  1  0  0  0  0
 52 53  1  0  0  0  0
 53 48  1  0  0  0  0
 49 54  1  1  0  0  0
 48 55  1  6  0  0  0
 50 56  1  6  0  0  0
 51 57  1  6  0  0  0
 58 59  1  0  0  0  0
 59 60  1  0  0  0  0
 60 61  1  0  0  0  0
 61 62  1  0  0  0  0
 62 63  1  0  0  0  0
 63 58  1  0  0  0  0
 59 64  1  1  0  0  0
 58 65  1  6  0  0  0
 60 66  1  6  0  0  0
 61 67  1  6  0  0  0
 62 46  1  1  0  0  0
 52 45  1  1  0  0  0
M  END
>  <cdx:groupId>
115

>  <cdx:fragmentId>
5

$$$$
