95776.cdx
  Mrv1902 05222410182D          

 13 12  0  0  0  0            999 V2000
    6.1239   -8.6229    0.0000 C   0  0  0  0  0  0  0  0  0  0  0  0
    5.4095   -9.0354    0.0000 C   0  0  0  0  0  0  0  0  0  0  0  0
    4.6950   -8.6229    0.0000 C   0  0  0  0  0  0  0  0  0  0  0  0
    3.9805   -9.0354    0.0000 C   0  0  0  0  0  0  0  0  0  0  0  0
    3.2661   -8.6229    0.0000 C   0  0  0  0  0  0  0  0  0  0  0  0
    6.1239   -7.7979    0.0000 O   0  0  0  0  0  0  0  0  0  0  0  0
    6.8384   -9.0354    0.0000 O   0  0  0  0  0  0  0  0  0  0  0  0
    7.5529   -8.6229    0.0000 C   0  0  0  0  0  0  0  0  0  0  0  0
    8.2674   -9.0354    0.0000 C   0  0  0  0  0  0  0  0  0  0  0  0
    8.9818   -8.6229    0.0000 C   0  0  0  0  0  0  0  0  0  0  0  0
    9.6963   -9.0354    0.0000 C   0  0  0  0  0  0  0  0  0  0  0  0
   10.4108   -8.6229    0.0000 C   0  0  0  0  0  0  0  0  0  0  0  0
   11.1252   -9.0354    0.0000 C   0  0  0  0  0  0  0  0  0  0  0  0
  1  2  1  0  0  0  0
  2  3  1  0  0  0  0
  3  4  1  0  0  0  0
  4  5  1  0  0  0  0
  1  6  2  0  0  0  0
  1  7  1  0  0  0  0
  8  9  1  0  0  0  0
  9 10  1  0  0  0  0
 10 11  2  0  0  0  0
 11 12  1  0  0  0  0
 12 13  1  0  0  0  0
  7  8  1  0  0  0  0
M  END
>  <cdx:groupId>
40

>  <cdx:fragmentId>
5

$$$$
