95770.cdx
  Mrv1902 05222410192D          

 57 63  0  0  0  0            999 V2000
   11.5258   -6.0156    0.0000 C   0  0  0  0  0  0  0  0  0  0  0  0
   12.2403   -5.6031    0.0000 C   0  0  0  0  0  0  0  0  0  0  0  0
   12.9548   -6.0156    0.0000 C   0  0  0  0  0  0  0  0  0  0  0  0
   12.9548   -6.8406    0.0000 C   0  0  0  0  0  0  0  0  0  0  0  0
   12.2403   -7.2531    0.0000 C   0  0  2  0  0  0  0  0  0  0  0  0
   12.2403   -8.0781    0.0000 C   0  0  0  0  0  0  0  0  0  0  0  0
   11.5258   -8.4906    0.0000 C   0  0  0  0  0  0  0  0  0  0  0  0
   10.8114   -8.0781    0.0000 C   0  0  1  0  0  0  0  0  0  0  0  0
   10.0969   -8.4906    0.0000 C   0  0  2  0  0  0  0  0  0  0  0  0
   10.0969   -9.3156    0.0000 C   0  0  0  0  0  0  0  0  0  0  0  0
    9.3824   -9.7281    0.0000 C   0  0  0  0  0  0  0  0  0  0  0  0
    8.6680   -9.3156    0.0000 C   0  0  1  0  0  0  0  0  0  0  0  0
    7.9535   -9.7281    0.0000 C   0  0  0  0  0  0  0  0  0  0  0  0
    7.2390   -9.3156    0.0000 C   0  0  2  0  0  0  0  0  0  0  0  0
    7.2390   -8.4906    0.0000 C   0  0  0  0  0  0  0  0  0  0  0  0
    7.9535   -8.0781    0.0000 C   0  0  0  0  0  0  0  0  0  0  0  0
    8.6680   -8.4906    0.0000 C   0  0  2  0  0  0  0  0  0  0  0  0
    9.3824   -8.0781    0.0000 C   0  0  1  0  0  0  0  0  0  0  0  0
    9.3824   -7.2531    0.0000 C   0  0  0  0  0  0  0  0  0  0  0  0
   10.0969   -6.8406    0.0000 C   0  0  0  0  0  0  0  0  0  0  0  0
   10.8114   -7.2531    0.0000 C   0  0  0  0  0  0  0  0  0  0  0  0
   11.5258   -6.8406    0.0000 C   0  0  2  0  0  0  0  0  0  0  0  0
   12.9548   -7.6656    0.0000 C   0  0  0  0  0  0  0  0  0  0  0  0
   12.9548   -8.4906    0.0000 O   0  0  0  0  0  0  0  0  0  0  0  0
   13.6693   -7.2531    0.0000 O   0  0  0  0  0  0  0  0  0  0  0  0
    8.6680   -7.6656    0.0000 C   0  0  0  0  0  0  0  0  0  0  0  0
    8.3660  -10.4426    0.0000 C   0  0  0  0  0  0  0  0  0  0  0  0
    7.5410  -10.4426    0.0000 C   0  0  0  0  0  0  0  0  0  0  0  0
   11.8278   -4.8887    0.0000 C   0  0  0  0  0  0  0  0  0  0  0  0
   12.6528   -4.8887    0.0000 C   0  0  0  0  0  0  0  0  0  0  0  0
    6.5245   -9.7281    0.0000 O   0  0  0  0  0  0  0  0  0  0  0  0
    8.6680  -10.1406    0.0000 H   0  0  0  0  0  0  0  0  0  0  0  0
   11.5258   -7.6656    0.0000 H   0  0  0  0  0  0  0  0  0  0  0  0
    9.3824   -8.9031    0.0000 H   0  0  0  0  0  0  0  0  0  0  0  0
   10.8114   -8.9031    0.0000 C   0  0  0  0  0  0  0  0  0  0  0  0
   10.0969   -7.6656    0.0000 C   0  0  0  0  0  0  0  0  0  0  0  0
    3.6684   -9.7539    0.0000 O   0  0  0  0  0  0  0  0  0  0  0  0
    3.6495   -8.1040    0.0000 O   0  0  0  0  0  0  0  0  0  0  0  0
    4.3497   -6.8584    0.0000 O   0  0  0  0  0  0  0  0  0  0  0  0
    5.0688   -7.2626    0.0000 C   0  0  0  0  0  0  0  0  0  0  0  0
    5.0783   -8.0876    0.0000 C   0  0  2  0  0  0  0  0  0  0  0  0
    4.3686   -8.5083    0.0000 C   0  0  2  0  0  0  0  0  0  0  0  0
    4.3781   -9.3332    0.0000 C   0  0  1  0  0  0  0  0  0  0  0  0
    5.0973   -9.7375    0.0000 C   0  0  2  0  0  0  0  0  0  0  0  0
    5.8069   -9.3168    0.0000 C   0  0  1  0  0  0  0  0  0  0  0  0
    5.7975   -8.4919    0.0000 O   0  0  0  0  0  0  0  0  0  0  0  0
    5.1067  -10.5624    0.0000 O   0  0  0  0  0  0  0  0  0  0  0  0
    5.7785   -6.8420    0.0000 O   0  0  0  0  0  0  0  0  0  0  0  0
    2.2604   -8.0862    0.0000 C   0  0  0  0  0  0  0  0  0  0  0  0
    1.5398   -8.4878    0.0000 C   0  0  2  0  0  0  0  0  0  0  0  0
    1.5273   -9.3127    0.0000 C   0  0  1  0  0  0  0  0  0  0  0  0
    2.2354   -9.7360    0.0000 C   0  0  2  0  0  0  0  0  0  0  0  0
    2.9561   -9.3344    0.0000 C   0  0  1  0  0  0  0  0  0  0  0  0
    2.9686   -8.5095    0.0000 O   0  0  0  0  0  0  0  0  0  0  0  0
    0.8067   -9.7143    0.0000 O   0  0  0  0  0  0  0  0  0  0  0  0
    0.8317   -8.0645    0.0000 O   0  0  0  0  0  0  0  0  0  0  0  0
    2.2229  -10.5609    0.0000 O   0  0  0  0  0  0  0  0  0  0  0  0
  1  2  1  0  0  0  0
  2  3  1  0  0  0  0
  3  4  1  0  0  0  0
  4  5  1  0  0  0  0
  5  6  1  0  0  0  0
  6  7  1  0  0  0  0
  7  8  1  0  0  0  0
  8  9  1  0  0  0  0
  9 10  1  0  0  0  0
 10 11  1  0  0  0  0
 11 12  1  0  0  0  0
 12 13  1  0  0  0  0
 13 14  1  0  0  0  0
 14 15  1  0  0  0  0
 15 16  1  0  0  0  0
 16 17  1  0  0  0  0
 12 17  1  0  0  0  0
 17 18  1  0  0  0  0
  9 18  1  0  0  0  0
 18 19  1  0  0  0  0
 19 20  1  0  0  0  0
 20 21  2  0  0  0  0
  8 21  1  0  0  0  0
 21 22  1  0  0  0  0
  5 22  1  0  0  0  0
  1 22  1  0  0  0  0
 23 24  2  0  0  0  0
 23 25  1  0  0  0  0
  5 23  1  1  0  0  0
 17 26  1  1  0  0  0
 13 27  1  0  0  0  0
 13 28  1  0  0  0  0
  2 29  1  0  0  0  0
  2 30  1  0  0  0  0
 14 31  1  1  0  0  0
 12 32  1  6  0  0  0
 22 33  1  1  0  0  0
 18 34  1  6  0  0  0
  8 35  1  6  0  0  0
  9 36  1  1  0  0  0
 44 47  1  6  0  0  0
 43 37  1  1  0  0  0
 42 38  1  6  0  0  0
 41 40  1  1  0  0  0
 40 39  1  0  0  0  0
 46 41  1  0  0  0  0
 42 41  1  0  0  0  0
 43 42  1  0  0  0  0
 44 43  1  0  0  0  0
 45 44  1  0  0  0  0
 46 45  1  0  0  0  0
 45 31  1  1  0  0  0
 40 48  2  0  0  0  0
 49 50  1  0  0  0  0
 50 51  1  0  0  0  0
 51 52  1  0  0  0  0
 52 53  1  0  0  0  0
 53 54  1  0  0  0  0
 54 49  1  0  0  0  0
 51 55  1  1  0  0  0
 50 56  1  6  0  0  0
 52 57  1  6  0  0  0
 53 37  1  1  0  0  0
M  END
>  <cdx:fragmentId>
5

$$$$
