95780.cdx
  Mrv1902 05222410262D          

 21 23  0  0  0  0            999 V2000
    4.3018   -5.3900    0.0000 C   0  0  0  0  0  0  0  0  0  0  0  0
    4.3018   -6.2150    0.0000 C   0  0  0  0  0  0  0  0  0  0  0  0
    5.0163   -6.6275    0.0000 C   0  0  1  0  0  0  0  0  0  0  0  0
    5.7307   -6.2150    0.0000 C   0  0  1  0  0  0  0  0  0  0  0  0
    5.7307   -5.3900    0.0000 C   0  0  2  0  0  0  0  0  0  0  0  0
    5.0163   -4.9775    0.0000 C   0  0  2  0  0  0  0  0  0  0  0  0
    6.4452   -6.6275    0.0000 C   0  0  2  0  0  0  0  0  0  0  0  0
    7.1597   -6.2150    0.0000 C   0  0  1  0  0  0  0  0  0  0  0  0
    7.1597   -5.3900    0.0000 C   0  0  0  0  0  0  0  0  0  0  0  0
    6.4452   -4.9775    0.0000 C   0  0  0  0  0  0  0  0  0  0  0  0
    6.6167   -7.4345    0.0000 O   0  0  0  0  0  0  0  0  0  0  0  0
    7.4372   -7.5207    0.0000 C   0  0  0  0  0  0  0  0  0  0  0  0
    7.7728   -6.7670    0.0000 C   0  0  1  0  0  0  0  0  0  0  0  0
    5.0163   -7.4525    0.0000 C   0  0  0  0  0  0  0  0  0  0  0  0
    5.0163   -4.1525    0.0000 O   0  0  0  0  0  0  0  0  0  0  0  0
    5.7307   -4.5650    0.0000 C   0  0  0  0  0  0  0  0  0  0  0  0
    4.3018   -7.0400    0.0000 O   0  0  0  0  0  0  0  0  0  0  0  0
    5.7307   -7.0400    0.0000 H   0  0  0  0  0  0  0  0  0  0  0  0
    7.9134   -5.8794    0.0000 H   0  0  0  0  0  0  0  0  0  0  0  0
    8.5798   -6.5955    0.0000 C   0  0  0  0  0  0  0  0  0  0  0  0
    7.8497   -8.2352    0.0000 O   0  0  0  0  0  0  0  0  0  0  0  0
  1  2  1  0  0  0  0
  2  3  1  0  0  0  0
  3  4  1  0  0  0  0
  4  5  1  0  0  0  0
  5  6  1  0  0  0  0
  6  1  1  0  0  0  0
  4  7  1  0  0  0  0
  7  8  1  0  0  0  0
  8  9  1  0  0  0  0
  9 10  1  0  0  0  0
 10  5  1  0  0  0  0
  7 11  1  6  0  0  0
 11 12  1  0  0  0  0
 12 13  1  0  0  0  0
 13  8  1  0  0  0  0
  3 14  1  1  0  0  0
  6 15  1  1  0  0  0
  5 16  1  1  0  0  0
  3 17  1  6  0  0  0
  4 18  1  6  0  0  0
  8 19  1  6  0  0  0
 13 20  1  6  0  0  0
 12 21  2  0  0  0  0
M  END
>  <cdx:fragmentId>
5

$$$$
