95793.cdx
  Mrv1902 05222410272D          

 28 29  0  0  0  0            999 V2000
    5.7181   -8.7725    0.0000 C   0  0  2  0  0  0  0  0  0  0  0  0
    5.7181   -9.5975    0.0000 C   0  0  0  0  0  0  0  0  0  0  0  0
    6.4325  -10.0100    0.0000 C   0  0  2  0  0  0  0  0  0  0  0  0
    7.1470   -9.5975    0.0000 C   0  0  1  0  0  0  0  0  0  0  0  0
    7.1470   -8.7725    0.0000 C   0  0  2  0  0  0  0  0  0  0  0  0
    6.4325   -8.3600    0.0000 C   0  0  0  0  0  0  0  0  0  0  0  0
    7.9316   -9.8524    0.0000 C   0  0  2  0  0  0  0  0  0  0  0  0
    8.4165   -9.1850    0.0000 C   0  0  0  0  0  0  0  0  0  0  0  0
    7.9316   -8.5176    0.0000 C   0  0  0  0  0  0  0  0  0  0  0  0
    5.0036   -8.3600    0.0000 O   0  0  0  0  0  0  0  0  0  0  0  0
    7.1470   -7.9475    0.0000 H   0  0  0  0  0  0  0  0  0  0  0  0
    6.4325  -10.8350    0.0000 C   0  0  0  0  0  0  0  0  0  0  0  0
    7.1470  -10.4225    0.0000 H   0  0  0  0  0  0  0  0  0  0  0  0
    6.4325   -7.5350    0.0000 C   0  0  0  0  0  0  0  0  0  0  0  0
    7.1470  -11.2475    0.0000 C   0  0  0  0  0  0  0  0  0  0  0  0
    5.7181  -11.2475    0.0000 C   0  0  0  0  0  0  0  0  0  0  0  0
    9.2415   -9.1850    0.0000 O   0  0  0  0  0  0  0  0  0  0  0  0
    4.2881   -8.7908    0.0000 C   0  0  0  0  0  0  0  0  0  0  0  0
    3.5713   -8.3822    0.0000 C   0  0  0  0  0  0  0  0  0  0  0  0
    2.8591   -8.7987    0.0000 C   0  0  0  0  0  0  0  0  0  0  0  0
    2.1424   -8.3901    0.0000 C   0  0  0  0  0  0  0  0  0  0  0  0
    2.8637   -9.6236    0.0000 C   0  0  0  0  0  0  0  0  0  0  0  0
    1.4302   -8.8065    0.0000 C   0  0  0  0  0  0  0  0  0  0  0  0
    4.2926   -9.6158    0.0000 O   0  0  0  0  0  0  0  0  0  0  0  0
    8.1866  -10.6371    0.0000 C   0  0  1  0  0  0  0  0  0  0  0  0
    8.7162  -10.1074    0.0000 H   0  0  0  0  0  0  0  0  0  0  0  0
    7.6345  -11.2502    0.0000 C   0  0  0  0  0  0  0  0  0  0  0  0
    8.9935  -10.8086    0.0000 O   0  0  0  0  0  0  0  0  0  0  0  0
  1  2  1  0  0  0  0
  2  3  1  0  0  0  0
  3  4  1  0  0  0  0
  4  5  1  0  0  0  0
  5  6  1  0  0  0  0
  6  1  1  0  0  0  0
  4  7  1  0  0  0  0
  7  8  1  0  0  0  0
  8  9  1  0  0  0  0
  9  5  1  0  0  0  0
  1 10  1  1  0  0  0
  5 11  1  1  0  0  0
  3 12  1  6  0  0  0
  4 13  1  6  0  0  0
  6 14  2  0  0  0  0
 12 15  1  0  0  0  0
 12 16  1  0  0  0  0
  8 17  2  0  0  0  0
 18 19  1  0  0  0  0
 19 20  2  0  0  0  0
 20 21  1  0  0  0  0
 20 22  1  0  0  0  0
 21 23  1  0  0  0  0
 18 24  2  0  0  0  0
 18 10  1  0  0  0  0
  7 25  1  0  0  0  0
  7 26  1  1  0  0  0
 25 27  1  0  0  0  0
 25 28  1  6  0  0  0
M  END
>  <cdx:fragmentId>
5

$$$$
