95797.cdx
  Mrv1902 05222410272D          

 32 33  0  0  0  0            999 V2000
    5.6631   -7.1225    0.0000 C   0  0  0  0  0  0  0  0  0  0  0  0
    5.6631   -7.9475    0.0000 C   0  0  0  0  0  0  0  0  0  0  0  0
    6.3775   -8.3600    0.0000 C   0  0  0  0  0  0  0  0  0  0  0  0
    7.0920   -7.9475    0.0000 C   0  0  0  0  0  0  0  0  0  0  0  0
    7.0920   -7.1225    0.0000 C   0  0  0  0  0  0  0  0  0  0  0  0
    6.3775   -6.7100    0.0000 C   0  0  0  0  0  0  0  0  0  0  0  0
    7.8065   -8.3600    0.0000 C   0  0  1  0  0  0  0  0  0  0  0  0
    8.5209   -7.9475    0.0000 C   0  0  2  0  0  0  0  0  0  0  0  0
    8.5209   -7.1225    0.0000 C   0  0  0  0  0  0  0  0  0  0  0  0
    7.8065   -6.7100    0.0000 C   0  0  1  0  0  0  0  0  0  0  0  0
    5.6631   -9.5975    0.0000 C   0  0  0  0  0  0  0  0  0  0  0  0
    6.3775   -9.1850    0.0000 C   0  0  0  0  0  0  0  0  0  0  0  0
    4.9486   -6.7100    0.0000 O   0  0  0  0  0  0  0  0  0  0  0  0
    6.3775   -5.8850    0.0000 C   0  0  0  0  0  0  0  0  0  0  0  0
    7.0920   -9.5975    0.0000 C   0  0  0  0  0  0  0  0  0  0  0  0
    9.2354   -6.7100    0.0000 O   0  0  0  0  0  0  0  0  0  0  0  0
    7.8065   -5.8850    0.0000 O   0  0  0  0  0  0  0  0  0  0  0  0
    9.3459   -7.9475    0.0000 C   0  0  0  0  0  0  0  0  0  0  0  0
    8.5209   -8.7725    0.0000 O   0  0  0  0  0  0  0  0  0  0  0  0
    8.4945   -5.4450    0.0000 C   0  0  0  0  0  0  0  0  0  0  0  0
    9.2090   -5.8575    0.0000 C   0  0  0  0  0  0  0  0  0  0  0  0
    8.4945   -4.6200    0.0000 O   0  0  0  0  0  0  0  0  0  0  0  0
    9.9234   -5.4450    0.0000 C   0  0  0  0  0  0  0  0  0  0  0  0
   10.6379   -5.8575    0.0000 C   0  0  0  0  0  0  0  0  0  0  0  0
    9.9234   -4.6200    0.0000 C   0  0  0  0  0  0  0  0  0  0  0  0
   11.3524   -5.4450    0.0000 C   0  0  0  0  0  0  0  0  0  0  0  0
    4.2382   -7.0920    0.0000 C   0  0  0  0  0  0  0  0  0  0  0  0
    3.5241   -6.6790    0.0000 C   0  0  0  0  0  0  0  0  0  0  0  0
    4.2377   -7.9170    0.0000 O   0  0  0  0  0  0  0  0  0  0  0  0
    2.8093   -7.0910    0.0000 C   0  0  0  0  0  0  0  0  0  0  0  0
    3.5246   -5.8540    0.0000 C   0  0  0  0  0  0  0  0  0  0  0  0
    2.8087   -7.9160    0.0000 C   0  0  0  0  0  0  0  0  0  0  0  0
  1  2  1  0  0  0  0
  2  3  1  0  0  0  0
  4  5  1  0  0  0  0
  5  6  1  0  0  0  0
  6  1  1  0  0  0  0
  4  7  1  0  0  0  0
  7  8  1  0  0  0  0
  8  9  1  0  0  0  0
  9 10  1  0  0  0  0
 10  5  1  0  0  0  0
 11 12  1  0  0  0  0
 12  3  2  0  0  0  0
  1 13  1  0  0  0  0
  6 14  2  0  0  0  0
 12 15  1  0  0  0  0
  9 16  2  0  0  0  0
 10 17  1  6  0  0  0
  8 18  1  6  0  0  0
  7 19  1  1  0  0  0
  8 19  1  1  0  0  0
 20 21  1  0  0  0  0
 20 22  2  0  0  0  0
 21 23  2  0  0  0  0
 23 24  1  0  0  0  0
 23 25  1  0  0  0  0
 24 26  1  0  0  0  0
 20 17  1  0  0  0  0
 27 28  1  0  0  0  0
 27 29  2  0  0  0  0
 28 30  2  0  0  0  0
 28 31  1  0  0  0  0
 30 32  1  0  0  0  0
 27 13  1  0  0  0  0
M  END
>  <cdx:fragmentId>
5

$$$$
