95792.cdx
  Mrv1902 05222410272D          

 35 36  0  0  0  0            999 V2000
    5.7593   -6.9850    0.0000 C   0  0  2  0  0  0  0  0  0  0  0  0
    5.7593   -7.8100    0.0000 C   0  0  0  0  0  0  0  0  0  0  0  0
    6.4738   -8.2225    0.0000 C   0  0  2  0  0  0  0  0  0  0  0  0
    7.1882   -7.8100    0.0000 C   0  0  1  0  0  0  0  0  0  0  0  0
    7.1882   -6.9850    0.0000 C   0  0  2  0  0  0  0  0  0  0  0  0
    6.4738   -6.5725    0.0000 C   0  0  0  0  0  0  0  0  0  0  0  0
    7.9729   -8.0649    0.0000 C   0  0  2  0  0  0  0  0  0  0  0  0
    8.4578   -7.3975    0.0000 C   0  0  0  0  0  0  0  0  0  0  0  0
    7.9729   -6.7301    0.0000 C   0  0  1  0  0  0  0  0  0  0  0  0
    5.0448   -6.5725    0.0000 O   0  0  0  0  0  0  0  0  0  0  0  0
    7.1882   -6.1600    0.0000 H   0  0  0  0  0  0  0  0  0  0  0  0
    6.4738   -9.0475    0.0000 C   0  0  0  0  0  0  0  0  0  0  0  0
    7.1882   -8.6350    0.0000 H   0  0  0  0  0  0  0  0  0  0  0  0
    8.2278   -5.9454    0.0000 O   0  0  0  0  0  0  0  0  0  0  0  0
    6.4738   -5.7475    0.0000 C   0  0  0  0  0  0  0  0  0  0  0  0
    7.1882   -9.4600    0.0000 C   0  0  0  0  0  0  0  0  0  0  0  0
    5.7593   -9.4600    0.0000 C   0  0  0  0  0  0  0  0  0  0  0  0
    9.2828   -7.3975    0.0000 O   0  0  0  0  0  0  0  0  0  0  0  0
    4.3275   -7.0003    0.0000 C   0  0  0  0  0  0  0  0  0  0  0  0
    3.6125   -6.5888    0.0000 C   0  0  0  0  0  0  0  0  0  0  0  0
    2.8986   -7.0022    0.0000 C   0  0  0  0  0  0  0  0  0  0  0  0
    2.1836   -6.5907    0.0000 C   0  0  0  0  0  0  0  0  0  0  0  0
    2.8997   -7.8272    0.0000 C   0  0  0  0  0  0  0  0  0  0  0  0
    1.4696   -7.0041    0.0000 C   0  0  0  0  0  0  0  0  0  0  0  0
    4.3286   -7.8253    0.0000 O   0  0  0  0  0  0  0  0  0  0  0  0
    8.9494   -5.5455    0.0000 C   0  0  0  0  0  0  0  0  0  0  0  0
    8.9639   -4.7207    0.0000 O   0  0  0  0  0  0  0  0  0  0  0  0
    9.6565   -5.9705    0.0000 C   0  0  0  0  0  0  0  0  0  0  0  0
   10.3781   -5.5706    0.0000 C   0  0  0  0  0  0  0  0  0  0  0  0
    9.6421   -6.7954    0.0000 C   0  0  0  0  0  0  0  0  0  0  0  0
   11.0853   -5.9955    0.0000 C   0  0  0  0  0  0  0  0  0  0  0  0
    8.2278   -8.8496    0.0000 C   0  0  1  0  0  0  0  0  0  0  0  0
    7.6758   -9.4627    0.0000 C   0  0  0  0  0  0  0  0  0  0  0  0
    9.0348   -9.0211    0.0000 O   0  0  0  0  0  0  0  0  0  0  0  0
    8.7575   -8.3199    0.0000 H   0  0  0  0  0  0  0  0  0  0  0  0
  1  2  1  0  0  0  0
  2  3  1  0  0  0  0
  3  4  1  0  0  0  0
  4  5  1  0  0  0  0
  5  6  1  0  0  0  0
  6  1  1  0  0  0  0
  4  7  1  0  0  0  0
  7  8  1  0  0  0  0
  8  9  1  0  0  0  0
  9  5  1  0  0  0  0
  1 10  1  1  0  0  0
  5 11  1  1  0  0  0
  3 12  1  6  0  0  0
  4 13  1  6  0  0  0
  9 14  1  6  0  0  0
  6 15  2  0  0  0  0
 12 16  1  0  0  0  0
 12 17  1  0  0  0  0
  8 18  2  0  0  0  0
 19 20  1  0  0  0  0
 20 21  2  0  0  0  0
 21 22  1  0  0  0  0
 21 23  1  0  0  0  0
 22 24  1  0  0  0  0
 19 25  2  0  0  0  0
 19 10  1  0  0  0  0
 14 26  1  0  0  0  0
 26 27  2  0  0  0  0
 26 28  1  0  0  0  0
 28 29  1  0  0  0  0
 28 30  1  0  0  0  0
 29 31  1  0  0  0  0
  7 32  1  0  0  0  0
 32 33  1  0  0  0  0
 32 34  1  6  0  0  0
  7 35  1  1  0  0  0
M  END
>  <cdx:fragmentId>
5

$$$$
