9579.cdx
  Mrv1902 05222410202D          

 20 20  0  0  0  0            999 V2000
    3.3033   -6.0225    0.0000 C   0  0  0  0  0  0  0  0  0  0  0  0
    3.3033   -6.8475    0.0000 C   0  0  0  0  0  0  0  0  0  0  0  0
    4.0177   -7.2600    0.0000 C   0  0  0  0  0  0  0  0  0  0  0  0
    4.7322   -6.8475    0.0000 C   0  0  0  0  0  0  0  0  0  0  0  0
    4.7322   -6.0225    0.0000 C   0  0  0  0  0  0  0  0  0  0  0  0
    4.0177   -5.6100    0.0000 C   0  0  0  0  0  0  0  0  0  0  0  0
    2.5888   -7.2600    0.0000 O   0  0  0  0  0  0  0  0  0  0  0  0
    5.4541   -5.5894    0.0000 C   0  0  0  0  0  0  0  0  0  0  0  0
    6.1686   -6.0019    0.0000 C   0  0  0  0  0  0  0  0  0  0  0  0
    6.8830   -5.5894    0.0000 C   0  0  0  0  0  0  0  0  0  0  0  0
    7.5975   -6.0019    0.0000 C   0  0  0  0  0  0  0  0  0  0  0  0
    8.3120   -5.5894    0.0000 C   0  0  0  0  0  0  0  0  0  0  0  0
    9.0265   -6.0019    0.0000 C   0  0  0  0  0  0  0  0  0  0  0  0
    6.8830   -4.7644    0.0000 O   0  0  0  0  0  0  0  0  0  0  0  0
    9.7409   -5.5894    0.0000 C   0  0  0  0  0  0  0  0  0  0  0  0
   10.4554   -6.0019    0.0000 C   0  0  0  0  0  0  0  0  0  0  0  0
   11.1699   -5.5894    0.0000 C   0  0  0  0  0  0  0  0  0  0  0  0
   11.8843   -6.0019    0.0000 C   0  0  0  0  0  0  0  0  0  0  0  0
    2.5888   -5.6100    0.0000 O   0  0  0  0  0  0  0  0  0  0  0  0
    1.8743   -6.0225    0.0000 C   0  0  0  0  0  0  0  0  0  0  0  0
  1  2  2  0  0  0  0
  2  3  1  0  0  0  0
  3  4  2  0  0  0  0
  4  5  1  0  0  0  0
  5  6  2  0  0  0  0
  6  1  1  0  0  0  0
  2  7  1  0  0  0  0
  8  9  2  0  0  0  0
  9 10  1  0  0  0  0
 10 11  1  0  0  0  0
 11 12  2  0  0  0  0
 12 13  1  0  0  0  0
  8  5  1  0  0  0  0
 10 14  2  0  0  0  0
 13 15  1  0  0  0  0
 15 16  1  0  0  0  0
 16 17  1  0  0  0  0
 17 18  1  0  0  0  0
  1 19  1  0  0  0  0
 19 20  1  0  0  0  0
M  END
>  <cdx:fragmentId>
5

$$$$
