95799.cdx
  Mrv1902 05222410202D          

  8  7  0  0  0  0            999 V2000
    9.6691   -5.7610    0.0000 C   0  0  0  0  0  0  0  0  0  0  0  0
    8.9546   -6.1735    0.0000 C   0  0  0  0  0  0  0  0  0  0  0  0
    8.2401   -5.7610    0.0000 C   0  0  0  0  0  0  0  0  0  0  0  0
    7.5256   -6.1735    0.0000 C   0  0  0  0  0  0  0  0  0  0  0  0
    6.8112   -5.7610    0.0000 C   0  0  0  0  0  0  0  0  0  0  0  0
    6.0967   -6.1735    0.0000 C   0  0  0  0  0  0  0  0  0  0  0  0
    5.3822   -5.7610    0.0000 C   0  0  0  0  0  0  0  0  0  0  0  0
    6.8112   -4.9360    0.0000 C   0  0  0  0  0  0  0  0  0  0  0  0
  1  2  2  0  0  0  0
  2  3  1  0  0  0  0
  3  4  2  0  0  0  0
  4  5  1  0  0  0  0
  5  6  1  0  0  0  0
  6  7  2  0  0  0  0
  5  8  1  0  0  0  0
M  END
>  <cdx:fragmentId>
5

$$$$
