95795.cdx
  Mrv1902 05222410262D          

 33 34  0  0  0  0            999 V2000
    6.8731   -6.5313    0.0000 C   0  0  2  0  0  0  0  0  0  0  0  0
    6.8731   -7.3563    0.0000 C   0  0  0  0  0  0  0  0  0  0  0  0
    7.5875   -7.7687    0.0000 C   0  0  2  0  0  0  0  0  0  0  0  0
    8.3020   -7.3563    0.0000 C   0  0  1  0  0  0  0  0  0  0  0  0
    8.3020   -6.5313    0.0000 C   0  0  2  0  0  0  0  0  0  0  0  0
    7.5875   -6.1188    0.0000 C   0  0  0  0  0  0  0  0  0  0  0  0
    6.1586   -6.1188    0.0000 O   0  0  0  0  0  0  0  0  0  0  0  0
    9.0866   -7.6112    0.0000 C   0  0  0  0  0  0  0  0  0  0  0  0
    9.5715   -6.9438    0.0000 C   0  0  0  0  0  0  0  0  0  0  0  0
    9.0866   -6.2763    0.0000 C   0  0  1  0  0  0  0  0  0  0  0  0
    8.3020   -5.7062    0.0000 H   0  0  0  0  0  0  0  0  0  0  0  0
    7.5875   -5.2938    0.0000 C   0  0  0  0  0  0  0  0  0  0  0  0
    7.5875   -8.5938    0.0000 C   0  0  0  0  0  0  0  0  0  0  0  0
    8.3020   -9.0062    0.0000 C   0  0  0  0  0  0  0  0  0  0  0  0
    6.8731   -9.0062    0.0000 C   0  0  0  0  0  0  0  0  0  0  0  0
   10.3965   -6.9438    0.0000 O   0  0  0  0  0  0  0  0  0  0  0  0
    9.3416   -8.3958    0.0000 C   0  0  0  0  0  0  0  0  0  0  0  0
    9.3416   -5.4917    0.0000 O   0  0  0  0  0  0  0  0  0  0  0  0
    8.3020   -8.1813    0.0000 H   0  0  0  0  0  0  0  0  0  0  0  0
    5.4409   -6.5186    0.0000 C   0  0  0  0  0  0  0  0  0  0  0  0
    4.7273   -6.1047    0.0000 C   0  0  0  0  0  0  0  0  0  0  0  0
    5.4392   -7.3436    0.0000 O   0  0  0  0  0  0  0  0  0  0  0  0
    4.0120   -6.5157    0.0000 C   0  0  0  0  0  0  0  0  0  0  0  0
    3.2984   -6.1017    0.0000 C   0  0  0  0  0  0  0  0  0  0  0  0
    4.0103   -7.3407    0.0000 C   0  0  0  0  0  0  0  0  0  0  0  0
    2.5831   -6.5127    0.0000 C   0  0  0  0  0  0  0  0  0  0  0  0
   10.0517   -5.0719    0.0000 C   0  0  0  0  0  0  0  0  0  0  0  0
   10.0433   -4.2469    0.0000 O   0  0  0  0  0  0  0  0  0  0  0  0
   10.7704   -5.4770    0.0000 C   0  0  0  0  0  0  0  0  0  0  0  0
   11.4806   -5.0571    0.0000 C   0  0  0  0  0  0  0  0  0  0  0  0
   10.7789   -6.3019    0.0000 C   0  0  0  0  0  0  0  0  0  0  0  0
   12.1993   -5.4623    0.0000 C   0  0  0  0  0  0  0  0  0  0  0  0
   10.1384   -8.6093    0.0000 C   0  0  0  0  0  0  0  0  0  0  0  0
  1  2  1  0  0  0  0
  2  3  1  0  0  0  0
  3  4  1  0  0  0  0
  4  5  1  0  0  0  0
  5  6  1  0  0  0  0
  6  1  1  0  0  0  0
  1  7  1  1  0  0  0
  4  8  1  0  0  0  0
  8  9  1  0  0  0  0
  9 10  1  0  0  0  0
 10  5  1  0  0  0  0
  5 11  1  1  0  0  0
  6 12  2  0  0  0  0
  3 13  1  6  0  0  0
 13 14  1  0  0  0  0
 13 15  1  0  0  0  0
  9 16  2  0  0  0  0
  8 17  2  0  0  0  0
 10 18  1  6  0  0  0
  4 19  1  6  0  0  0
 20 21  1  0  0  0  0
 20 22  2  0  0  0  0
 21 23  2  0  0  0  0
 23 24  1  0  0  0  0
 23 25  1  0  0  0  0
 24 26  1  0  0  0  0
 20  7  1  0  0  0  0
 18 27  1  0  0  0  0
 27 28  2  0  0  0  0
 27 29  1  0  0  0  0
 29 30  1  0  0  0  0
 29 31  1  0  0  0  0
 30 32  1  0  0  0  0
 17 33  1  0  0  0  0
M  END
>  <cdx:fragmentId>
5

$$$$
