95791.cdx
  Mrv1902 05222410282D          

 14 15  0  0  0  0            999 V2000
    5.0856   -8.2637    0.0000 C   0  0  0  0  0  0  0  0  0  0  0  0
    5.0856   -9.0887    0.0000 C   0  0  0  0  0  0  0  0  0  0  0  0
    5.8000   -9.5013    0.0000 C   0  0  2  0  0  0  0  0  0  0  0  0
    6.5145   -9.0887    0.0000 C   0  0  1  0  0  0  0  0  0  0  0  0
    6.5145   -8.2637    0.0000 C   0  0  0  0  0  0  0  0  0  0  0  0
    5.8000   -7.8513    0.0000 C   0  0  0  0  0  0  0  0  0  0  0  0
    7.2290   -9.5013    0.0000 C   0  0  0  0  0  0  0  0  0  0  0  0
    7.9434   -9.0887    0.0000 C   0  0  0  0  0  0  0  0  0  0  0  0
    7.9434   -8.2637    0.0000 O   0  0  0  0  0  0  0  0  0  0  0  0
    7.2290   -7.8513    0.0000 C   0  0  0  0  0  0  0  0  0  0  0  0
    7.2290   -7.0263    0.0000 O   0  0  0  0  0  0  0  0  0  0  0  0
    8.6579   -9.5013    0.0000 O   0  0  0  0  0  0  0  0  0  0  0  0
    5.8000  -10.3262    0.0000 C   0  0  0  0  0  0  0  0  0  0  0  0
    6.5145   -9.9138    0.0000 C   0  0  0  0  0  0  0  0  0  0  0  0
  1  2  1  0  0  0  0
  2  3  1  0  0  0  0
  3  4  1  0  0  0  0
  4  5  1  0  0  0  0
  5  6  2  0  0  0  0
  6  1  1  0  0  0  0
  4  7  1  0  0  0  0
  7  8  1  0  0  0  0
  8  9  1  0  0  0  0
  9 10  1  0  0  0  0
 10  5  1  0  0  0  0
 10 11  2  0  0  0  0
  8 12  2  0  0  0  0
  3 13  1  6  0  0  0
  4 14  1  6  0  0  0
M  END
>  <cdx:fragmentId>
50

$$$$
