95798.cdx
  Mrv1902 05222410202D          

  9  8  0  0  0  0            999 V2000
    8.6246   -8.4081    0.0000 C   0  0  0  0  0  0  0  0  0  0  0  0
    7.9101   -8.8206    0.0000 C   0  0  0  0  0  0  0  0  0  0  0  0
    7.1956   -8.4081    0.0000 C   0  0  0  0  0  0  0  0  0  0  0  0
    6.7831   -9.1226    0.0000 C   0  0  0  0  0  0  0  0  0  0  0  0
    5.9581   -9.1226    0.0000 C   0  0  0  0  0  0  0  0  0  0  0  0
    6.4812   -7.9956    0.0000 C   0  0  0  0  0  0  0  0  0  0  0  0
    5.7667   -8.4081    0.0000 C   0  0  0  0  0  0  0  0  0  0  0  0
    7.6081   -7.6937    0.0000 C   0  0  0  0  0  0  0  0  0  0  0  0
    8.4331   -7.6937    0.0000 C   0  0  0  0  0  0  0  0  0  0  0  0
  1  2  1  0  0  0  0
  2  3  1  0  0  0  0
  3  4  1  0  0  0  0
  4  5  1  0  0  0  0
  6  7  1  0  0  0  0
  3  6  1  0  0  0  0
  8  9  1  0  0  0  0
  3  8  1  0  0  0  0
M  END
>  <cdx:groupId>
28

>  <cdx:fragmentId>
5

$$$$
