95806.cdx
  Mrv1902 05222410272D          

 70 77  0  0  0  0            999 V2000
   11.6221   -4.6155    0.0000 C   0  0  0  0  0  0  0  0  0  0  0  0
   12.3366   -4.2030    0.0000 C   0  0  0  0  0  0  0  0  0  0  0  0
   13.0510   -4.6155    0.0000 C   0  0  0  0  0  0  0  0  0  0  0  0
   13.0510   -5.4405    0.0000 C   0  0  0  0  0  0  0  0  0  0  0  0
   12.3366   -5.8530    0.0000 C   0  0  2  0  0  0  0  0  0  0  0  0
   12.3366   -6.6780    0.0000 C   0  0  0  0  0  0  0  0  0  0  0  0
   11.6221   -7.0905    0.0000 C   0  0  0  0  0  0  0  0  0  0  0  0
   10.9076   -6.6780    0.0000 C   0  0  1  0  0  0  0  0  0  0  0  0
   10.1931   -7.0905    0.0000 C   0  0  2  0  0  0  0  0  0  0  0  0
   10.1931   -7.9155    0.0000 C   0  0  0  0  0  0  0  0  0  0  0  0
    9.4787   -8.3280    0.0000 C   0  0  0  0  0  0  0  0  0  0  0  0
    8.7642   -7.9155    0.0000 C   0  0  1  0  0  0  0  0  0  0  0  0
    8.0497   -8.3280    0.0000 C   0  0  2  0  0  0  0  0  0  0  0  0
    7.3353   -7.9155    0.0000 C   0  0  2  0  0  0  0  0  0  0  0  0
    7.3353   -7.0905    0.0000 C   0  0  0  0  0  0  0  0  0  0  0  0
    8.0497   -6.6780    0.0000 C   0  0  0  0  0  0  0  0  0  0  0  0
    8.7642   -7.0905    0.0000 C   0  0  2  0  0  0  0  0  0  0  0  0
    9.4787   -6.6780    0.0000 C   0  0  1  0  0  0  0  0  0  0  0  0
    9.4787   -5.8530    0.0000 C   0  0  0  0  0  0  0  0  0  0  0  0
   10.1931   -5.4405    0.0000 C   0  0  0  0  0  0  0  0  0  0  0  0
   10.9076   -5.8530    0.0000 C   0  0  0  0  0  0  0  0  0  0  0  0
   11.6221   -5.4405    0.0000 C   0  0  2  0  0  0  0  0  0  0  0  0
   13.0510   -6.2655    0.0000 C   0  0  0  0  0  0  0  0  0  0  0  0
   13.0510   -7.0905    0.0000 O   0  0  0  0  0  0  0  0  0  0  0  0
   13.7655   -5.8530    0.0000 O   0  0  0  0  0  0  0  0  0  0  0  0
    8.7642   -6.2655    0.0000 C   0  0  0  0  0  0  0  0  0  0  0  0
    7.6372   -9.0424    0.0000 C   0  0  0  0  0  0  0  0  0  0  0  0
   11.9241   -3.4885    0.0000 C   0  0  0  0  0  0  0  0  0  0  0  0
   12.7491   -3.4885    0.0000 C   0  0  0  0  0  0  0  0  0  0  0  0
    6.6208   -8.3280    0.0000 O   0  0  0  0  0  0  0  0  0  0  0  0
    8.4622   -9.0424    0.0000 C   0  0  0  0  0  0  0  0  0  0  0  0
    8.0497   -9.7569    0.0000 O   0  0  0  0  0  0  0  0  0  0  0  0
    8.7642   -8.7405    0.0000 H   0  0  0  0  0  0  0  0  0  0  0  0
   10.9076   -5.0280    0.0000 H   0  0  0  0  0  0  0  0  0  0  0  0
   10.9076   -7.5030    0.0000 C   0  0  0  0  0  0  0  0  0  0  0  0
   10.1931   -6.2655    0.0000 C   0  0  0  0  0  0  0  0  0  0  0  0
    9.4787   -7.5030    0.0000 H   0  0  0  0  0  0  0  0  0  0  0  0
    5.2102   -6.6686    0.0000 C   0  0  2  0  0  0  0  0  0  0  0  0
    4.4935   -7.0773    0.0000 C   0  0  2  0  0  0  0  0  0  0  0  0
    4.4892   -7.9023    0.0000 C   0  0  1  0  0  0  0  0  0  0  0  0
    5.2014   -8.3186    0.0000 C   0  0  2  0  0  0  0  0  0  0  0  0
    5.9181   -7.9099    0.0000 C   0  0  1  0  0  0  0  0  0  0  0  0
    5.9225   -7.0849    0.0000 O   0  0  0  0  0  0  0  0  0  0  0  0
    5.2145   -5.8436    0.0000 C   0  0  0  0  0  0  0  0  0  0  0  0
    3.7725   -8.3110    0.0000 O   0  0  0  0  0  0  0  0  0  0  0  0
    3.7813   -6.6610    0.0000 O   0  0  0  0  0  0  0  0  0  0  0  0
    5.1971   -9.1436    0.0000 O   0  0  0  0  0  0  0  0  0  0  0  0
    4.5023   -5.4273    0.0000 O   0  0  0  0  0  0  0  0  0  0  0  0
    3.5983  -10.6233    0.0000 C   0  0  2  0  0  0  0  0  0  0  0  0
    4.0317  -11.3254    0.0000 C   0  0  1  0  0  0  0  0  0  0  0  0
    4.8563  -11.3011    0.0000 C   0  0  1  0  0  0  0  0  0  0  0  0
    5.2476  -10.5748    0.0000 C   0  0  2  0  0  0  0  0  0  0  0  0
    4.8143   -9.8728    0.0000 C   0  0  1  0  0  0  0  0  0  0  0  0
    3.9896   -9.8970    0.0000 O   0  0  0  0  0  0  0  0  0  0  0  0
    2.7737  -10.6476    0.0000 C   0  0  0  0  0  0  0  0  0  0  0  0
    5.2897  -12.0031    0.0000 O   0  0  0  0  0  0  0  0  0  0  0  0
    3.6404  -12.0517    0.0000 O   0  0  0  0  0  0  0  0  0  0  0  0
    6.0723  -10.5505    0.0000 O   0  0  0  0  0  0  0  0  0  0  0  0
    2.3824  -11.3739    0.0000 O   0  0  0  0  0  0  0  0  0  0  0  0
    5.9312   -5.4349    0.0000 O   0  0  0  0  0  0  0  0  0  0  0  0
    3.0602   -7.8947    0.0000 C   0  0  2  0  0  0  0  0  0  0  0  0
    3.0668   -7.0698    0.0000 O   0  0  0  0  0  0  0  0  0  0  0  0
    2.3556   -6.6516    0.0000 C   0  0  2  0  0  0  0  0  0  0  0  0
    1.6379   -7.0698    0.0000 C   0  0  1  0  0  0  0  0  0  0  0  0
    1.6379   -7.8947    0.0000 C   0  0  2  0  0  0  0  0  0  0  0  0
    2.3556   -8.3129    0.0000 C   0  0  1  0  0  0  0  0  0  0  0  0
    0.9226   -6.6587    0.0000 O   0  0  0  0  0  0  0  0  0  0  0  0
    0.9226   -8.3058    0.0000 O   0  0  0  0  0  0  0  0  0  0  0  0
    2.3589   -9.1379    0.0000 O   0  0  0  0  0  0  0  0  0  0  0  0
    2.3573   -5.8266    0.0000 C   0  0  0  0  0  0  0  0  0  0  0  0
  1  2  1  0  0  0  0
  2  3  1  0  0  0  0
  3  4  1  0  0  0  0
  4  5  1  0  0  0  0
  5  6  1  0  0  0  0
  6  7  1  0  0  0  0
  7  8  1  0  0  0  0
  8  9  1  0  0  0  0
  9 10  1  0  0  0  0
 10 11  1  0  0  0  0
 11 12  1  0  0  0  0
 12 13  1  0  0  0  0
 13 14  1  0  0  0  0
 14 15  1  0  0  0  0
 15 16  1  0  0  0  0
 16 17  1  0  0  0  0
 12 17  1  0  0  0  0
 17 18  1  0  0  0  0
  9 18  1  0  0  0  0
 18 19  1  0  0  0  0
 19 20  1  0  0  0  0
 20 21  2  0  0  0  0
  8 21  1  0  0  0  0
 21 22  1  0  0  0  0
  5 22  1  0  0  0  0
  1 22  1  0  0  0  0
 23 24  2  0  0  0  0
 23 25  1  0  0  0  0
  5 23  1  1  0  0  0
 17 26  1  1  0  0  0
 13 27  1  1  0  0  0
  2 28  1  0  0  0  0
  2 29  1  0  0  0  0
 14 30  1  1  0  0  0
 31 32  2  0  0  0  0
 13 31  1  0  0  0  0
 12 33  1  6  0  0  0
 22 34  1  1  0  0  0
  8 35  1  6  0  0  0
  9 36  1  1  0  0  0
 18 37  1  6  0  0  0
 38 39  1  0  0  0  0
 39 40  1  0  0  0  0
 40 41  1  0  0  0  0
 41 42  1  0  0  0  0
 42 43  1  0  0  0  0
 43 38  1  0  0  0  0
 38 44  1  1  0  0  0
 40 45  1  1  0  0  0
 39 46  1  6  0  0  0
 41 47  1  6  0  0  0
 44 48  1  0  0  0  0
 49 50  1  0  0  0  0
 50 51  1  0  0  0  0
 51 52  1  0  0  0  0
 52 53  1  0  0  0  0
 53 54  1  0  0  0  0
 54 49  1  0  0  0  0
 49 55  1  1  0  0  0
 51 56  1  1  0  0  0
 50 57  1  1  0  0  0
 52 58  1  6  0  0  0
 55 59  1  0  0  0  0
 53 47  1  1  0  0  0
 42 30  1  1  0  0  0
 44 60  2  0  0  0  0
 61 45  1  1  0  0  0
 61 62  1  0  0  0  0
 62 63  1  0  0  0  0
 63 64  1  0  0  0  0
 64 65  1  0  0  0  0
 65 66  1  0  0  0  0
 66 61  1  0  0  0  0
 64 67  1  1  0  0  0
 65 68  1  6  0  0  0
 66 69  1  6  0  0  0
 63 70  1  6  0  0  0
M  END
>  <cdx:groupId>
114

>  <cdx:fragmentId>
5

$$$$
