95805.cdx
  Mrv1902 05222410262D          

 43 47  0  0  0  0            999 V2000
    6.6316   -7.1654    0.0000 C   0  0  0  0  0  0  0  0  0  0  0  0
    6.6316   -7.9904    0.0000 C   0  0  0  0  0  0  0  0  0  0  0  0
    5.9172   -8.4029    0.0000 C   0  0  0  0  0  0  0  0  0  0  0  0
    5.9172   -9.2279    0.0000 O   0  0  0  0  0  0  0  0  0  0  0  0
    5.2027   -7.9904    0.0000 C   0  0  0  0  0  0  0  0  0  0  0  0
    4.4882   -8.4029    0.0000 C   0  0  0  0  0  0  0  0  0  0  0  0
    4.4882   -9.2279    0.0000 O   0  0  0  0  0  0  0  0  0  0  0  0
    3.7738   -7.9904    0.0000 C   0  0  0  0  0  0  0  0  0  0  0  0
    3.7738   -7.1654    0.0000 C   0  0  0  0  0  0  0  0  0  0  0  0
    3.0593   -6.7529    0.0000 O   0  0  0  0  0  0  0  0  0  0  0  0
    4.4882   -6.7529    0.0000 C   0  0  0  0  0  0  0  0  0  0  0  0
    5.2027   -7.1654    0.0000 C   0  0  0  0  0  0  0  0  0  0  0  0
    5.9172   -6.7529    0.0000 O   0  0  0  0  0  0  0  0  0  0  0  0
    7.3461   -6.7529    0.0000 C   0  0  0  0  0  0  0  0  0  0  0  0
    7.3461   -5.9279    0.0000 C   0  0  0  0  0  0  0  0  0  0  0  0
    8.0606   -5.5154    0.0000 C   0  0  0  0  0  0  0  0  0  0  0  0
    8.7750   -5.9279    0.0000 C   0  0  0  0  0  0  0  0  0  0  0  0
    9.4895   -5.5154    0.0000 O   0  0  0  0  0  0  0  0  0  0  0  0
    8.7750   -6.7529    0.0000 C   0  0  0  0  0  0  0  0  0  0  0  0
    8.0606   -7.1654    0.0000 C   0  0  0  0  0  0  0  0  0  0  0  0
    7.3461   -8.4029    0.0000 O   0  0  0  0  0  0  0  0  0  0  0  0
    7.3461   -9.2279    0.0000 C   0  0  1  0  0  0  0  0  0  0  0  0
    8.0606   -9.6404    0.0000 C   0  0  2  0  0  0  0  0  0  0  0  0
    8.7750   -9.2279    0.0000 O   0  0  0  0  0  0  0  0  0  0  0  0
    8.0606  -10.4654    0.0000 C   0  0  1  0  0  0  0  0  0  0  0  0
    8.7750  -10.8779    0.0000 O   0  0  0  0  0  0  0  0  0  0  0  0
    7.3461  -10.8779    0.0000 C   0  0  2  0  0  0  0  0  0  0  0  0
    7.3461  -11.7029    0.0000 O   0  0  0  0  0  0  0  0  0  0  0  0
    6.6316  -10.4654    0.0000 C   0  0  2  0  0  0  0  0  0  0  0  0
    6.6316   -9.6404    0.0000 O   0  0  0  0  0  0  0  0  0  0  0  0
    5.9172  -10.8779    0.0000 C   0  0  0  0  0  0  0  0  0  0  0  0
    5.2027  -10.4654    0.0000 O   0  0  0  0  0  0  0  0  0  0  0  0
    9.4879   -9.6397    0.0000 C   0  0  1  0  0  0  0  0  0  0  0  0
   10.1995   -9.2224    0.0000 C   0  0  2  0  0  0  0  0  0  0  0  0
   10.1939   -8.3974    0.0000 O   0  0  0  0  0  0  0  0  0  0  0  0
   10.9168   -9.6300    0.0000 C   0  0  1  0  0  0  0  0  0  0  0  0
   11.6284   -9.2126    0.0000 O   0  0  0  0  0  0  0  0  0  0  0  0
   10.9224  -10.4550    0.0000 C   0  0  2  0  0  0  0  0  0  0  0  0
   11.6397  -10.8626    0.0000 O   0  0  0  0  0  0  0  0  0  0  0  0
   10.2108  -10.8723    0.0000 C   0  0  2  0  0  0  0  0  0  0  0  0
    9.4935  -10.4647    0.0000 O   0  0  0  0  0  0  0  0  0  0  0  0
   10.2164  -11.6973    0.0000 C   0  0  0  0  0  0  0  0  0  0  0  0
    9.5047  -12.1147    0.0000 O   0  0  0  0  0  0  0  0  0  0  0  0
  1  2  2  0  0  0  0
  2  3  1  0  0  0  0
  3  4  2  0  0  0  0
  3  5  1  0  0  0  0
  5  6  1  0  0  0  0
  6  7  1  0  0  0  0
  6  8  2  0  0  0  0
  8  9  1  0  0  0  0
  9 10  1  0  0  0  0
  9 11  2  0  0  0  0
 11 12  1  0  0  0  0
  5 12  2  0  0  0  0
 12 13  1  0  0  0  0
  1 13  1  0  0  0  0
  1 14  1  0  0  0  0
 14 15  1  0  0  0  0
 15 16  2  0  0  0  0
 16 17  1  0  0  0  0
 17 18  1  0  0  0  0
 17 19  2  0  0  0  0
 19 20  1  0  0  0  0
 14 20  2  0  0  0  0
 22 21  1  1  0  0  0
 22 23  1  0  0  0  0
 23 24  1  6  0  0  0
 23 25  1  0  0  0  0
 25 26  1  1  0  0  0
 25 27  1  0  0  0  0
 27 28  1  6  0  0  0
 27 29  1  0  0  0  0
 29 30  1  0  0  0  0
 29 31  1  1  0  0  0
 31 32  1  0  0  0  0
 22 30  1  0  0  0  0
  2 21  1  0  0  0  0
 33 34  1  0  0  0  0
 34 35  1  6  0  0  0
 34 36  1  0  0  0  0
 36 37  1  1  0  0  0
 36 38  1  0  0  0  0
 38 39  1  6  0  0  0
 38 40  1  0  0  0  0
 40 41  1  0  0  0  0
 40 42  1  1  0  0  0
 42 43  1  0  0  0  0
 33 41  1  0  0  0  0
 33 24  1  1  0  0  0
M  END
>  <cdx:groupId>
101

>  <cdx:fragmentId>
5

$$$$
