95808.cdx
  Mrv1902 05222410202D          

 13 13  0  0  0  0            999 V2000
    8.6246   -8.8291    0.0000 O   0  0  0  0  0  0  0  0  0  0  0  0
    9.3391   -9.2416    0.0000 C   0  0  0  0  0  0  0  0  0  0  0  0
   10.0535   -8.8291    0.0000 C   0  0  0  0  0  0  0  0  0  0  0  0
    7.9101   -9.2416    0.0000 C   0  0  0  0  0  0  0  0  0  0  0  0
    7.1956   -8.8291    0.0000 C   0  0  0  0  0  0  0  0  0  0  0  0
    6.4812   -9.2416    0.0000 C   0  0  0  0  0  0  0  0  0  0  0  0
    5.7667   -8.8291    0.0000 C   0  0  0  0  0  0  0  0  0  0  0  0
    5.7667   -8.0041    0.0000 C   0  0  0  0  0  0  0  0  0  0  0  0
    6.4812   -7.5916    0.0000 C   0  0  0  0  0  0  0  0  0  0  0  0
    7.1956   -8.0041    0.0000 C   0  0  0  0  0  0  0  0  0  0  0  0
    5.0522   -9.2416    0.0000 O   0  0  0  0  0  0  0  0  0  0  0  0
    4.3378   -8.8291    0.0000 C   0  0  0  0  0  0  0  0  0  0  0  0
    5.0522   -7.5916    0.0000 O   0  0  0  0  0  0  0  0  0  0  0  0
  2  3  1  0  0  0  0
  1  2  1  0  0  0  0
  4  5  1  0  0  0  0
  5  6  1  0  0  0  0
  6  7  2  0  0  0  0
  7  8  1  0  0  0  0
  8  9  2  0  0  0  0
  9 10  1  0  0  0  0
  5 10  2  0  0  0  0
 11 12  1  0  0  0  0
  7 11  1  0  0  0  0
  8 13  1  0  0  0  0
  1  4  1  0  0  0  0
M  END
>  <cdx:groupId>
41

>  <cdx:fragmentId>
11

$$$$
