958093.cdx
  Mrv1902 05222410192D          

 79 86  0  0  0  0            999 V2000
    9.1816  -15.3930    0.0000 C   0  0  0  0  0  0  0  0  0  0  0  0
    8.7520  -14.6887    0.0000 C   0  0  1  0  0  0  0  0  0  0  0  0
    8.8012  -16.1251    0.0000 O   0  0  0  0  0  0  0  0  0  0  0  0
   12.2225  -10.0519    0.0000 C   0  0  0  0  0  0  0  0  0  0  0  0
   10.8651  -12.5750    0.0000 C   0  0  0  0  0  0  0  0  0  0  0  0
   11.5694  -13.7955    0.0000 C   0  0  0  0  0  0  0  0  0  0  0  0
   12.2341  -10.8914    0.0000 C   0  0  0  0  0  0  0  0  0  0  0  0
   12.9385  -10.4618    0.0000 C   0  0  1  0  0  0  0  0  0  0  0  0
   13.6626  -10.8570    0.0000 C   0  0  0  0  0  0  0  0  0  0  0  0
   13.6825  -11.6818    0.0000 C   0  0  0  0  0  0  0  0  0  0  0  0
   12.9781  -12.1114    0.0000 C   0  0  2  0  0  0  0  0  0  0  0  0
   12.9979  -12.9361    0.0000 C   0  0  1  0  0  0  0  0  0  0  0  0
   12.2936  -13.3657    0.0000 C   0  0  0  0  0  0  0  0  0  0  0  0
   11.5694  -12.9705    0.0000 C   0  0  2  0  0  0  0  0  0  0  0  0
   10.8651  -13.4000    0.0000 C   0  0  1  0  0  0  0  0  0  0  0  0
   10.8849  -14.2248    0.0000 C   0  0  0  0  0  0  0  0  0  0  0  0
   10.1805  -14.6543    0.0000 C   0  0  0  0  0  0  0  0  0  0  0  0
    9.4564  -14.2591    0.0000 C   0  0  2  0  0  0  0  0  0  0  0  0
    8.0278  -14.2934    0.0000 C   0  0  0  0  0  0  0  0  0  0  0  0
    8.0080  -13.4687    0.0000 C   0  0  0  0  0  0  0  0  0  0  0  0
    8.7124  -13.0391    0.0000 C   0  0  0  0  0  0  0  0  0  0  0  0
    9.4365  -13.4343    0.0000 C   0  0  2  0  0  0  0  0  0  0  0  0
   10.1409  -13.0048    0.0000 C   0  0  1  0  0  0  0  0  0  0  0  0
   10.1211  -12.1800    0.0000 C   0  0  0  0  0  0  0  0  0  0  0  0
   10.8254  -11.7505    0.0000 C   0  0  0  0  0  0  0  0  0  0  0  0
   11.5496  -12.1457    0.0000 C   0  0  0  0  0  0  0  0  0  0  0  0
   12.2539  -11.7161    0.0000 C   0  0  0  0  0  0  0  0  0  0  0  0
   12.9186   -9.6371    0.0000 C   0  0  0  0  0  0  0  0  0  0  0  0
   12.1945   -9.2419    0.0000 O   0  0  0  0  0  0  0  0  0  0  0  0
    9.4167  -12.6096    0.0000 C   0  0  0  0  0  0  0  0  0  0  0  0
    8.3743  -15.4221    0.0000 C   0  0  0  0  0  0  0  0  0  0  0  0
   13.7023  -12.5066    0.0000 C   0  0  0  0  0  0  0  0  0  0  0  0
   14.4066  -12.0770    0.0000 O   0  0  0  0  0  0  0  0  0  0  0  0
   13.7221  -13.3313    0.0000 O   0  0  0  0  0  0  0  0  0  0  0  0
    7.3235  -14.7230    0.0000 O   0  0  0  0  0  0  0  0  0  0  0  0
    6.5795  -13.5030    0.0000 O   0  0  0  0  0  0  0  0  0  0  0  0
    6.5993  -14.3278    0.0000 C   0  0  2  0  0  0  0  0  0  0  0  0
    5.8950  -14.7573    0.0000 C   0  0  1  0  0  0  0  0  0  0  0  0
    5.1708  -14.3621    0.0000 C   0  0  2  0  0  0  0  0  0  0  0  0
    5.1509  -13.5374    0.0000 C   0  0  2  0  0  0  0  0  0  0  0  0
    5.8553  -13.1078    0.0000 C   0  0  1  0  0  0  0  0  0  0  0  0
    4.4664  -14.7917    0.0000 O   0  0  0  0  0  0  0  0  0  0  0  0
    3.7224  -13.5717    0.0000 O   0  0  0  0  0  0  0  0  0  0  0  0
    3.7422  -14.3965    0.0000 C   0  0  2  0  0  0  0  0  0  0  0  0
    3.0379  -14.8260    0.0000 C   0  0  1  0  0  0  0  0  0  0  0  0
    2.3137  -14.4308    0.0000 C   0  0  2  0  0  0  0  0  0  0  0  0
    2.2939  -13.6060    0.0000 C   0  0  1  0  0  0  0  0  0  0  0  0
    2.9982  -13.1765    0.0000 C   0  0  1  0  0  0  0  0  0  0  0  0
    2.9784  -12.3517    0.0000 C   0  0  0  0  0  0  0  0  0  0  0  0
    2.2542  -11.9565    0.0000 O   0  0  0  0  0  0  0  0  0  0  0  0
    1.5697  -13.2108    0.0000 O   0  0  0  0  0  0  0  0  0  0  0  0
    1.6094  -14.8604    0.0000 O   0  0  0  0  0  0  0  0  0  0  0  0
    3.0577  -15.6508    0.0000 O   0  0  0  0  0  0  0  0  0  0  0  0
    5.8355  -12.2831    0.0000 C   0  0  0  0  0  0  0  0  0  0  0  0
    4.4268  -13.1422    0.0000 O   0  0  0  0  0  0  0  0  0  0  0  0
    5.9148  -15.5821    0.0000 O   0  0  0  0  0  0  0  0  0  0  0  0
    9.4762  -15.0839    0.0000 H   0  0  0  0  0  0  0  0  0  0  0  0
   15.7955  -10.3932    0.0000 O   0  0  0  0  0  0  0  0  0  0  0  0
   17.2042   -9.5341    0.0000 O   0  0  0  0  0  0  0  0  0  0  0  0
   17.1646   -7.8845    0.0000 O   0  0  0  0  0  0  0  0  0  0  0  0
   15.6766   -5.4446    0.0000 O   0  0  0  0  0  0  0  0  0  0  0  0
   17.8293   -5.8055    0.0000 O   0  0  0  0  0  0  0  0  0  0  0  0
   16.3611   -4.1903    0.0000 O   0  0  0  0  0  0  0  0  0  0  0  0
   17.7698   -3.3312    0.0000 O   0  0  0  0  0  0  0  0  0  0  0  0
   17.7896   -4.1559    0.0000 C   0  0  0  0  0  0  0  0  0  0  0  0
   17.0853   -4.5855    0.0000 C   0  0  0  0  0  0  0  0  0  0  0  0
   17.1051   -5.4102    0.0000 C   0  0  0  0  0  0  0  0  0  0  0  0
   16.4008   -5.8398    0.0000 C   0  0  0  0  0  0  0  0  0  0  0  0
   16.4206   -6.6646    0.0000 C   0  0  0  0  0  0  0  0  0  0  0  0
   15.7162   -7.0941    0.0000 O   0  0  0  0  0  0  0  0  0  0  0  0
   15.7361   -7.9189    0.0000 C   0  0  1  0  0  0  0  0  0  0  0  0
   16.4602   -8.3141    0.0000 C   0  0  1  0  0  0  0  0  0  0  0  0
   16.4801   -9.1388    0.0000 C   0  0  2  0  0  0  0  0  0  0  0  0
   15.7757   -9.5684    0.0000 C   0  0  1  0  0  0  0  0  0  0  0  0
   15.0515   -9.1732    0.0000 C   0  0  2  0  0  0  0  0  0  0  0  0
   15.0317   -8.3484    0.0000 O   0  0  0  0  0  0  0  0  0  0  0  0
   14.3472   -9.6027    0.0000 C   0  0  0  0  0  0  0  0  0  0  0  0
   13.6230   -9.2075    0.0000 O   0  0  0  0  0  0  0  0  0  0  0  0
   10.1438  -13.8298    0.0000 H   0  0  0  0  0  0  0  0  0  0  0  0
  2  1  1  6  0  0  0
  8  4  1  6  0  0  0
 15  5  1  1  0  0  0
 14  6  1  6  0  0  0
  1  3  1  0  0  0  0
 78 77  1  0  0  0  0
 75 77  1  1  0  0  0
 74 58  1  6  0  0  0
 73 59  1  1  0  0  0
 72 60  1  6  0  0  0
 71 70  1  1  0  0  0
 68 61  1  0  0  0  0
 67 62  1  0  0  0  0
 66 63  1  0  0  0  0
 65 64  1  0  0  0  0
 70 69  1  0  0  0  0
 66 65  1  0  0  0  0
 67 66  1  0  0  0  0
 68 67  1  0  0  0  0
 69 68  1  0  0  0  0
 76 71  1  0  0  0  0
 72 71  1  0  0  0  0
 73 72  1  0  0  0  0
 74 73  1  0  0  0  0
 75 74  1  0  0  0  0
 76 75  1  0  0  0  0
  7  8  1  0  0  0  0
  8  9  1  0  0  0  0
  9 10  1  0  0  0  0
 10 11  1  0  0  0  0
 11 12  1  0  0  0  0
 12 13  1  0  0  0  0
 13 14  1  0  0  0  0
 14 15  1  0  0  0  0
 15 16  1  0  0  0  0
 16 17  1  0  0  0  0
 17 18  1  0  0  0  0
 18  2  1  0  0  0  0
  2 19  1  0  0  0  0
 19 20  1  0  0  0  0
 20 21  1  0  0  0  0
 21 22  1  0  0  0  0
 18 22  1  0  0  0  0
 22 23  1  0  0  0  0
 15 23  1  0  0  0  0
 23 24  1  0  0  0  0
 24 25  2  0  0  0  0
 25 26  1  0  0  0  0
 14 26  1  0  0  0  0
 26 27  2  0  0  0  0
 11 27  1  0  0  0  0
  7 27  1  0  0  0  0
 28 29  2  0  0  0  0
 28 78  1  0  0  0  0
  8 28  1  1  0  0  0
 22 30  1  1  0  0  0
  2 31  1  1  0  0  0
 32 33  1  0  0  0  0
 11 32  1  1  0  0  0
 12 34  1  6  0  0  0
 36 37  1  0  0  0  0
 37 38  1  0  0  0  0
 38 39  1  0  0  0  0
 39 40  1  0  0  0  0
 40 41  1  0  0  0  0
 36 41  1  0  0  0  0
 43 44  1  0  0  0  0
 44 45  1  0  0  0  0
 45 46  1  0  0  0  0
 46 47  1  0  0  0  0
 47 48  1  0  0  0  0
 43 48  1  0  0  0  0
 49 50  1  0  0  0  0
 48 49  1  1  0  0  0
 47 51  1  6  0  0  0
 46 52  1  1  0  0  0
 45 53  1  6  0  0  0
 44 42  1  1  0  0  0
 39 42  1  1  0  0  0
 41 54  1  1  0  0  0
 40 55  1  1  0  0  0
 38 56  1  6  0  0  0
 37 35  1  1  0  0  0
 19 35  1  0  0  0  0
 18 57  1  6  0  0  0
 23 79  1  6  0  0  0
M  END
>  <cdx:fragmentId>
5

$$$$
