95807.cdx
  Mrv1902 05222410262D          

 29 32  0  0  0  0            999 V2000
    3.2156   -7.1225    0.0000 C   0  0  0  0  0  0  0  0  0  0  0  0
    3.2156   -7.9475    0.0000 C   0  0  0  0  0  0  0  0  0  0  0  0
    3.9300   -8.3600    0.0000 C   0  0  0  0  0  0  0  0  0  0  0  0
    4.6445   -7.9475    0.0000 C   0  0  0  0  0  0  0  0  0  0  0  0
    4.6445   -7.1225    0.0000 C   0  0  0  0  0  0  0  0  0  0  0  0
    3.9300   -6.7100    0.0000 C   0  0  0  0  0  0  0  0  0  0  0  0
    5.3590   -8.3600    0.0000 C   0  0  0  0  0  0  0  0  0  0  0  0
    6.0734   -7.9475    0.0000 C   0  0  0  0  0  0  0  0  0  0  0  0
    6.0734   -7.1225    0.0000 C   0  0  0  0  0  0  0  0  0  0  0  0
    5.3590   -6.7100    0.0000 O   0  0  0  0  0  0  0  0  0  0  0  0
    6.7879   -8.3600    0.0000 C   0  0  0  0  0  0  0  0  0  0  0  0
    7.5024   -7.9475    0.0000 C   0  0  0  0  0  0  0  0  0  0  0  0
    6.7879   -9.1850    0.0000 C   0  0  0  0  0  0  0  0  0  0  0  0
    7.5024   -9.5975    0.0000 C   0  0  0  0  0  0  0  0  0  0  0  0
    8.2169   -9.1850    0.0000 C   0  0  0  0  0  0  0  0  0  0  0  0
    8.2169   -8.3600    0.0000 C   0  0  0  0  0  0  0  0  0  0  0  0
    7.5024  -10.4225    0.0000 C   0  0  0  0  0  0  0  0  0  0  0  0
    8.2169  -10.8350    0.0000 C   0  0  0  0  0  0  0  0  0  0  0  0
    8.9313  -10.4225    0.0000 C   0  0  0  0  0  0  0  0  0  0  0  0
    8.9313   -9.5975    0.0000 O   0  0  0  0  0  0  0  0  0  0  0  0
    2.5011   -6.7100    0.0000 O   0  0  0  0  0  0  0  0  0  0  0  0
    5.3590   -9.1850    0.0000 O   0  0  0  0  0  0  0  0  0  0  0  0
    9.1448  -11.2194    0.0000 C   0  0  0  0  0  0  0  0  0  0  0  0
    9.7493  -10.3148    0.0000 C   0  0  0  0  0  0  0  0  0  0  0  0
   10.2515  -10.9693    0.0000 C   0  0  0  0  0  0  0  0  0  0  0  0
   11.0694  -10.8616    0.0000 C   0  0  0  0  0  0  0  0  0  0  0  0
   11.5717  -11.5162    0.0000 C   0  0  0  0  0  0  0  0  0  0  0  0
   12.3896  -11.4085    0.0000 C   0  0  0  0  0  0  0  0  0  0  0  0
   11.2559  -12.2784    0.0000 C   0  0  0  0  0  0  0  0  0  0  0  0
  1  2  2  0  0  0  0
  2  3  1  0  0  0  0
  3  4  2  0  0  0  0
  4  5  1  0  0  0  0
  5  6  2  0  0  0  0
  6  1  1  0  0  0  0
  4  7  1  0  0  0  0
  7  8  1  0  0  0  0
  8  9  2  0  0  0  0
  9 10  1  0  0  0  0
 10  5  1  0  0  0  0
  8 11  1  0  0  0  0
 11 12  2  0  0  0  0
 11 13  1  0  0  0  0
 13 14  2  0  0  0  0
 14 15  1  0  0  0  0
 15 16  2  0  0  0  0
 16 12  1  0  0  0  0
 14 17  1  0  0  0  0
 17 18  2  0  0  0  0
 18 19  1  0  0  0  0
 19 20  1  0  0  0  0
 20 15  1  0  0  0  0
  1 21  1  0  0  0  0
  7 22  2  0  0  0  0
 19 23  1  0  0  0  0
 19 24  1  0  0  0  0
 24 25  1  0  0  0  0
 25 26  1  0  0  0  0
 26 27  2  0  0  0  0
 27 28  1  0  0  0  0
 27 29  1  0  0  0  0
M  END
>  <cdx:fragmentId>
5

$$$$
