95801.cdx
  Mrv1902 05222410282D          

 13 14  0  0  0  0            999 V2000
    7.7024   -8.8281    0.0000 C   0  0  1  0  0  0  0  0  0  0  0  0
    6.9879   -9.2406    0.0000 C   0  0  0  0  0  0  0  0  0  0  0  0
    6.2734   -8.8281    0.0000 C   0  0  0  0  0  0  0  0  0  0  0  0
    6.2734   -8.0031    0.0000 C   0  0  0  0  0  0  0  0  0  0  0  0
    6.9879   -7.5906    0.0000 C   0  0  0  0  0  0  0  0  0  0  0  0
    7.7024   -8.0031    0.0000 C   0  0  2  0  0  0  0  0  0  0  0  0
    8.4168   -8.4156    0.0000 C   0  0  0  0  0  0  0  0  0  0  0  0
    9.1313   -8.0031    0.0000 C   0  0  0  0  0  0  0  0  0  0  0  0
    9.1313   -8.8281    0.0000 C   0  0  0  0  0  0  0  0  0  0  0  0
    5.5590   -9.2406    0.0000 C   0  0  0  0  0  0  0  0  0  0  0  0
    5.5590   -7.5906    0.0000 O   0  0  0  0  0  0  0  0  0  0  0  0
    8.1149   -9.5425    0.0000 H   0  0  0  0  0  0  0  0  0  0  0  0
    8.1149   -7.2886    0.0000 H   0  0  0  0  0  0  0  0  0  0  0  0
  1  2  1  0  0  0  0
  2  3  1  0  0  0  0
  3  4  1  0  0  0  0
  4  5  1  0  0  0  0
  5  6  1  0  0  0  0
  1  6  1  0  0  0  0
  6  7  1  0  0  0  0
  1  7  1  0  0  0  0
  7  8  1  0  0  0  0
  7  9  1  0  0  0  0
  3 10  2  0  0  0  0
  4 11  1  0  0  0  0
  1 12  1  6  0  0  0
  6 13  1  1  0  0  0
M  END
>  <cdx:groupId>
42

>  <cdx:fragmentId>
5

$$$$
