95800.cdx
  Mrv1902 05222410282D          

 10  9  0  0  0  0            999 V2000
    3.9805   -7.7894    0.0000 C   0  0  0  0  0  0  0  0  0  0  0  0
    4.6950   -8.2019    0.0000 C   0  0  0  0  0  0  0  0  0  0  0  0
    5.4095   -8.6144    0.0000 C   0  0  0  0  0  0  0  0  0  0  0  0
    6.1239   -8.2019    0.0000 C   0  0  0  0  0  0  0  0  0  0  0  0
    6.8384   -8.6144    0.0000 C   0  0  0  0  0  0  0  0  0  0  0  0
    7.5529   -8.2019    0.0000 C   0  0  0  0  0  0  0  0  0  0  0  0
    8.2674   -8.6144    0.0000 C   0  0  0  0  0  0  0  0  0  0  0  0
    8.9818   -8.2019    0.0000 C   0  0  0  0  0  0  0  0  0  0  0  0
    9.6963   -8.6144    0.0000 C   0  0  0  0  0  0  0  0  0  0  0  0
   10.4108   -9.0269    0.0000 C   0  0  0  0  0  0  0  0  0  0  0  0
  1  2  3  0  0  0  0
  2  3  1  0  0  0  0
  3  4  1  0  0  0  0
  4  5  1  0  0  0  0
  5  6  1  0  0  0  0
  6  7  1  0  0  0  0
  7  8  1  0  0  0  0
  8  9  1  0  0  0  0
  9 10  3  0  0  0  0
M  END
>  <cdx:groupId>
31

>  <cdx:fragmentId>
5

$$$$
