95813.cdx
  Mrv1902 05222410262D          

 23 23  0  0  0  0            999 V2000
    2.3007   -8.0953    0.0000 C   0  0  0  0  0  0  0  0  0  0  0  0
    2.3007   -8.9203    0.0000 C   0  0  0  0  0  0  0  0  0  0  0  0
    3.0853   -9.1753    0.0000 C   0  0  0  0  0  0  0  0  0  0  0  0
    3.5703   -8.5078    0.0000 C   0  0  0  0  0  0  0  0  0  0  0  0
    4.2847   -8.0953    0.0000 C   0  0  0  0  0  0  0  0  0  0  0  0
    4.9992   -8.5078    0.0000 C   0  0  0  0  0  0  0  0  0  0  0  0
    5.7137   -8.0953    0.0000 C   0  0  0  0  0  0  0  0  0  0  0  0
    6.4282   -8.5078    0.0000 C   0  0  0  0  0  0  0  0  0  0  0  0
    7.1426   -8.0953    0.0000 C   0  0  0  0  0  0  0  0  0  0  0  0
    7.8571   -8.5078    0.0000 C   0  0  0  0  0  0  0  0  0  0  0  0
    8.5716   -8.0953    0.0000 C   0  0  0  0  0  0  0  0  0  0  0  0
    9.2860   -8.5078    0.0000 C   0  0  0  0  0  0  0  0  0  0  0  0
   10.0005   -8.0953    0.0000 C   0  0  0  0  0  0  0  0  0  0  0  0
   10.7150   -8.5078    0.0000 C   0  0  0  0  0  0  0  0  0  0  0  0
   11.4294   -8.0953    0.0000 C   0  0  0  0  0  0  0  0  0  0  0  0
   12.1439   -8.5078    0.0000 C   0  0  0  0  0  0  0  0  0  0  0  0
   12.8584   -8.0953    0.0000 C   0  0  0  0  0  0  0  0  0  0  0  0
    1.6333   -7.6104    0.0000 O   0  0  0  0  0  0  0  0  0  0  0  0
    3.0853   -7.8404    0.0000 O   0  0  0  0  0  0  0  0  0  0  0  0
   12.1439   -9.3328    0.0000 C   0  0  0  0  0  0  0  0  0  0  0  0
    9.2860   -9.3328    0.0000 C   0  0  0  0  0  0  0  0  0  0  0  0
    6.4282   -9.3328    0.0000 C   0  0  0  0  0  0  0  0  0  0  0  0
    4.2847   -8.9203    0.0000 C   0  0  0  0  0  0  0  0  0  0  0  0
  1  2  1  0  0  0  0
  2  3  1  0  0  0  0
  3  4  1  0  0  0  0
  4  5  1  0  0  0  0
  5  6  1  0  0  0  0
  6  7  1  0  0  0  0
  7  8  1  0  0  0  0
  8  9  1  0  0  0  0
  9 10  1  0  0  0  0
 10 11  1  0  0  0  0
 11 12  1  0  0  0  0
 12 13  1  0  0  0  0
 13 14  1  0  0  0  0
 14 15  1  0  0  0  0
 15 16  1  0  0  0  0
 16 17  1  0  0  0  0
  1 18  2  0  0  0  0
  1 19  1  0  0  0  0
  4 19  1  0  0  0  0
 16 20  1  0  0  0  0
 12 21  1  0  0  0  0
  8 22  1  0  0  0  0
  4 23  1  0  0  0  0
M  END
>  <cdx:groupId>
71

>  <cdx:fragmentId>
5

$$$$
