95816.cdx
  Mrv1902 05222410272D          

 11 10  0  0  0  0            999 V2000
    6.1239   -8.2654    0.0000 C   0  0  0  0  0  0  0  0  0  0  0  0
    5.4095   -8.6779    0.0000 C   0  0  0  0  0  0  0  0  0  0  0  0
    5.4095   -9.5029    0.0000 C   0  0  0  0  0  0  0  0  0  0  0  0
    4.6950   -8.2654    0.0000 C   0  0  0  0  0  0  0  0  0  0  0  0
    6.1239   -7.4404    0.0000 O   0  0  0  0  0  0  0  0  0  0  0  0
    6.8384   -8.6779    0.0000 O   0  0  0  0  0  0  0  0  0  0  0  0
    7.5529   -8.2654    0.0000 C   0  0  0  0  0  0  0  0  0  0  0  0
    8.2674   -8.6779    0.0000 C   0  0  0  0  0  0  0  0  0  0  0  0
    8.9818   -8.2654    0.0000 C   0  0  0  0  0  0  0  0  0  0  0  0
    8.9818   -7.4404    0.0000 C   0  0  0  0  0  0  0  0  0  0  0  0
    9.6963   -8.6779    0.0000 C   0  0  0  0  0  0  0  0  0  0  0  0
  1  2  1  0  0  0  0
  2  3  1  0  0  0  0
  2  4  1  0  0  0  0
  1  5  2  0  0  0  0
  1  6  1  0  0  0  0
  7  8  1  0  0  0  0
  8  9  1  0  0  0  0
  9 10  1  0  0  0  0
 11  9  1  0  0  0  0
  6  7  1  0  0  0  0
M  END
>  <cdx:groupId>
34

>  <cdx:fragmentId>
5

$$$$
