95815.cdx
  Mrv1902 05222410282D          

 14 15  0  0  0  0            999 V2000
    8.7694   -8.0627    0.0000 C   0  0  0  0  0  0  0  0  0  0  0  0
    9.2543   -8.7301    0.0000 C   0  0  0  0  0  0  0  0  0  0  0  0
    8.7694   -9.3976    0.0000 C   0  0  0  0  0  0  0  0  0  0  0  0
    7.9848   -9.1426    0.0000 C   0  0  0  0  0  0  0  0  0  0  0  0
    7.2703   -9.5551    0.0000 C   0  0  0  0  0  0  0  0  0  0  0  0
    6.5558   -9.1426    0.0000 C   0  0  0  0  0  0  0  0  0  0  0  0
    6.5558   -8.3176    0.0000 C   0  0  0  0  0  0  0  0  0  0  0  0
    7.2703   -7.9051    0.0000 C   0  0  0  0  0  0  0  0  0  0  0  0
    7.9848   -8.3176    0.0000 C   0  0  0  0  0  0  0  0  0  0  0  0
    9.0243   -7.2781    0.0000 O   0  0  0  0  0  0  0  0  0  0  0  0
    5.8413   -7.9051    0.0000 O   0  0  0  0  0  0  0  0  0  0  0  0
    5.1269   -8.3176    0.0000 C   0  0  0  0  0  0  0  0  0  0  0  0
    5.8413   -9.5551    0.0000 O   0  0  0  0  0  0  0  0  0  0  0  0
    5.1269   -9.1426    0.0000 C   0  0  0  0  0  0  0  0  0  0  0  0
  1  2  1  0  0  0  0
  2  3  1  0  0  0  0
  3  4  1  0  0  0  0
  4  5  1  0  0  0  0
  5  6  2  0  0  0  0
  6  7  1  0  0  0  0
  7  8  2  0  0  0  0
  8  9  1  0  0  0  0
  1  9  1  0  0  0  0
  4  9  2  0  0  0  0
  1 10  2  0  0  0  0
 11 12  1  0  0  0  0
  7 11  1  0  0  0  0
 13 14  1  0  0  0  0
  6 13  1  0  0  0  0
M  END
>  <cdx:groupId>
45

>  <cdx:fragmentId>
5

$$$$
