95818.cdx
  Mrv1902 05222410182D          

 13 13  0  0  0  0            999 V2000
    7.9603   -8.0055    0.0000 C   0  0  0  0  0  0  0  0  0  0  0  0
    7.2458   -8.4180    0.0000 C   0  0  0  0  0  0  0  0  0  0  0  0
    7.2458   -9.2430    0.0000 C   0  0  0  0  0  0  0  0  0  0  0  0
    6.5314   -9.6555    0.0000 C   0  0  0  0  0  0  0  0  0  0  0  0
    5.8169   -9.2430    0.0000 C   0  0  0  0  0  0  0  0  0  0  0  0
    5.8169   -8.4180    0.0000 C   0  0  0  0  0  0  0  0  0  0  0  0
    6.5314   -8.0055    0.0000 C   0  0  0  0  0  0  0  0  0  0  0  0
    7.9603   -7.1805    0.0000 O   0  0  0  0  0  0  0  0  0  0  0  0
    8.6748   -8.4180    0.0000 O   0  0  0  0  0  0  0  0  0  0  0  0
    5.1024   -9.6555    0.0000 N   0  0  0  0  0  0  0  0  0  0  0  0
    4.3880   -9.2430    0.0000 O   0  0  0  0  0  0  0  0  0  0  0  0
    9.3893   -8.0055    0.0000 C   0  0  0  0  0  0  0  0  0  0  0  0
   10.1037   -8.4180    0.0000 C   0  0  0  0  0  0  0  0  0  0  0  0
  1  2  1  0  0  0  0
  2  3  1  0  0  0  0
  3  4  2  0  0  0  0
  4  5  1  0  0  0  0
  5  6  2  0  0  0  0
  6  7  1  0  0  0  0
  2  7  2  0  0  0  0
  1  8  2  0  0  0  0
  1  9  1  0  0  0  0
 10 11  2  0  0  0  0
  5 10  1  0  0  0  0
 12 13  1  0  0  0  0
  9 12  1  0  0  0  0
M  END
>  <cdx:groupId>
41

>  <cdx:fragmentId>
5

$$$$
