95819.cdx
  Mrv1902 05222410182D          

 12 13  0  0  0  0            999 V2000
    7.1956   -7.9956    0.0000 C   0  0  0  0  0  0  0  0  0  0  0  0
    8.0206   -7.9956    0.0000 C   0  0  0  0  0  0  0  0  0  0  0  0
    8.0206   -8.8206    0.0000 C   0  0  0  0  0  0  0  0  0  0  0  0
    7.1956   -8.8206    0.0000 C   0  0  0  0  0  0  0  0  0  0  0  0
    6.3706   -8.8206    0.0000 C   0  0  0  0  0  0  0  0  0  0  0  0
    6.3706   -7.9956    0.0000 C   0  0  0  0  0  0  0  0  0  0  0  0
    7.1956   -7.1706    0.0000 C   0  0  0  0  0  0  0  0  0  0  0  0
    8.6040   -7.4123    0.0000 C   0  0  0  0  0  0  0  0  0  0  0  0
    8.6040   -9.4040    0.0000 C   0  0  0  0  0  0  0  0  0  0  0  0
    7.1956   -9.6456    0.0000 C   0  0  0  0  0  0  0  0  0  0  0  0
    5.7873   -9.4040    0.0000 C   0  0  0  0  0  0  0  0  0  0  0  0
    5.7873   -7.4123    0.0000 C   0  0  0  0  0  0  0  0  0  0  0  0
  1  2  1  0  0  0  0
  2  3  2  0  0  0  0
  3  4  1  0  0  0  0
  1  4  1  0  0  0  0
  4  5  1  0  0  0  0
  5  6  2  0  0  0  0
  1  6  1  0  0  0  0
  1  7  1  0  0  0  0
  2  8  1  0  0  0  0
  3  9  1  0  0  0  0
  4 10  1  0  0  0  0
  5 11  1  0  0  0  0
  6 12  1  0  0  0  0
M  END
>  <cdx:groupId>
39

>  <cdx:fragmentId>
5

$$$$
