95823.cdx
  Mrv1902 05222410192D          

 24 24  0  0  0  0            999 V2000
    5.0557   -8.3591    0.0000 C   0  0  0  0  0  0  0  0  0  0  0  0
    4.3412   -8.7716    0.0000 C   0  0  0  0  0  0  0  0  0  0  0  0
    4.3412   -9.5966    0.0000 C   0  0  0  0  0  0  0  0  0  0  0  0
    5.0557  -10.0091    0.0000 C   0  0  0  0  0  0  0  0  0  0  0  0
    3.6267  -10.0091    0.0000 C   0  0  0  0  0  0  0  0  0  0  0  0
    2.9123   -9.5966    0.0000 C   0  0  0  0  0  0  0  0  0  0  0  0
    2.9123   -8.7716    0.0000 C   0  0  0  0  0  0  0  0  0  0  0  0
    3.6267   -8.3591    0.0000 C   0  0  0  0  0  0  0  0  0  0  0  0
    5.7701   -8.7716    0.0000 O   0  0  0  0  0  0  0  0  0  0  0  0
    5.0557   -7.5341    0.0000 O   0  0  0  0  0  0  0  0  0  0  0  0
    5.0557  -10.8341    0.0000 O   0  0  0  0  0  0  0  0  0  0  0  0
    5.7701   -9.5966    0.0000 O   0  0  0  0  0  0  0  0  0  0  0  0
    5.7701   -7.1216    0.0000 C   0  0  0  0  0  0  0  0  0  0  0  0
    5.7701   -6.2966    0.0000 C   0  0  0  0  0  0  0  0  0  0  0  0
    6.4846   -5.8841    0.0000 C   0  0  0  0  0  0  0  0  0  0  0  0
    5.0557   -5.8841    0.0000 C   0  0  0  0  0  0  0  0  0  0  0  0
    6.4846  -10.0091    0.0000 C   0  0  0  0  0  0  0  0  0  0  0  0
    7.1991   -9.5966    0.0000 C   0  0  0  0  0  0  0  0  0  0  0  0
    7.9136  -10.0091    0.0000 C   0  0  0  0  0  0  0  0  0  0  0  0
    8.6280   -9.5966    0.0000 C   0  0  0  0  0  0  0  0  0  0  0  0
    9.3425  -10.0091    0.0000 C   0  0  0  0  0  0  0  0  0  0  0  0
   10.0570   -9.5966    0.0000 C   0  0  0  0  0  0  0  0  0  0  0  0
   10.7714  -10.0091    0.0000 C   0  0  0  0  0  0  0  0  0  0  0  0
   11.4859   -9.5966    0.0000 C   0  0  0  0  0  0  0  0  0  0  0  0
  1  2  1  0  0  0  0
  2  3  1  0  0  0  0
  3  4  1  0  0  0  0
  3  5  2  0  0  0  0
  5  6  1  0  0  0  0
  6  7  2  0  0  0  0
  7  8  1  0  0  0  0
  2  8  2  0  0  0  0
  1  9  2  0  0  0  0
  1 10  1  0  0  0  0
  4 11  2  0  0  0  0
  4 12  1  0  0  0  0
 13 14  1  0  0  0  0
 14 15  1  0  0  0  0
 16 14  1  0  0  0  0
 10 13  1  0  0  0  0
 17 18  1  0  0  0  0
 18 19  1  0  0  0  0
 19 20  1  0  0  0  0
 20 21  1  0  0  0  0
 21 22  1  0  0  0  0
 22 23  1  0  0  0  0
 23 24  1  0  0  0  0
 12 17  1  0  0  0  0
M  END
>  <cdx:groupId>
74

>  <cdx:fragmentId>
5

$$$$
