95820.cdx
  Mrv1902 05222410202D          

 12 13  0  0  0  0            999 V2000
    7.5563   -9.6555    0.0000 N   0  0  0  0  0  0  0  0  0  0  0  0
    8.2708   -9.2430    0.0000 C   0  0  0  0  0  0  0  0  0  0  0  0
    8.2708   -8.4180    0.0000 C   0  0  0  0  0  0  0  0  0  0  0  0
    7.5563   -8.0055    0.0000 C   0  0  0  0  0  0  0  0  0  0  0  0
    6.8419   -8.4180    0.0000 C   0  0  0  0  0  0  0  0  0  0  0  0
    6.1274   -8.0055    0.0000 C   0  0  0  0  0  0  0  0  0  0  0  0
    5.4129   -8.4180    0.0000 C   0  0  0  0  0  0  0  0  0  0  0  0
    5.4129   -9.2430    0.0000 C   0  0  0  0  0  0  0  0  0  0  0  0
    6.1274   -9.6555    0.0000 C   0  0  0  0  0  0  0  0  0  0  0  0
    6.8419   -9.2430    0.0000 C   0  0  0  0  0  0  0  0  0  0  0  0
    8.9853   -9.6555    0.0000 C   0  0  0  0  0  0  0  0  0  0  0  0
    7.5563   -7.1805    0.0000 O   0  0  0  0  0  0  0  0  0  0  0  0
  1  2  2  0  0  0  0
  2  3  1  0  0  0  0
  3  4  2  0  0  0  0
  4  5  1  0  0  0  0
  5  6  2  0  0  0  0
  6  7  1  0  0  0  0
  7  8  2  0  0  0  0
  8  9  1  0  0  0  0
  9 10  2  0  0  0  0
  1 10  1  0  0  0  0
  5 10  1  0  0  0  0
  2 11  1  0  0  0  0
  4 12  1  0  0  0  0
M  END
>  <cdx:groupId>
39

>  <cdx:fragmentId>
5

$$$$
