9582.cdx
  Mrv1902 05222410182D          

 25 25  0  0  0  0            999 V2000
    2.6282   -9.4820    0.0000 C   0  0  0  0  0  0  0  0  0  0  0  0
    2.6282  -10.3070    0.0000 C   0  0  0  0  0  0  0  0  0  0  0  0
    3.3426  -10.7195    0.0000 C   0  0  0  0  0  0  0  0  0  0  0  0
    4.0571  -10.3070    0.0000 C   0  0  0  0  0  0  0  0  0  0  0  0
    4.0571   -9.4820    0.0000 C   0  0  0  0  0  0  0  0  0  0  0  0
    3.3426   -9.0695    0.0000 C   0  0  0  0  0  0  0  0  0  0  0  0
    1.9137  -10.7195    0.0000 O   0  0  0  0  0  0  0  0  0  0  0  0
    4.7716   -9.0695    0.0000 C   0  0  0  0  0  0  0  0  0  0  0  0
    5.4860   -9.4820    0.0000 C   0  0  0  0  0  0  0  0  0  0  0  0
    6.2005   -9.0695    0.0000 C   0  0  0  0  0  0  0  0  0  0  0  0
    6.9150   -9.4820    0.0000 C   0  0  0  0  0  0  0  0  0  0  0  0
    7.6295   -9.0695    0.0000 C   0  0  2  0  0  0  0  0  0  0  0  0
    8.3439   -9.4820    0.0000 C   0  0  0  0  0  0  0  0  0  0  0  0
    9.0584   -9.0695    0.0000 C   0  0  0  0  0  0  0  0  0  0  0  0
    6.2005   -8.2445    0.0000 O   0  0  0  0  0  0  0  0  0  0  0  0
    7.6295   -8.2445    0.0000 O   0  0  0  0  0  0  0  0  0  0  0  0
    9.7729   -9.4820    0.0000 C   0  0  0  0  0  0  0  0  0  0  0  0
   10.4873   -9.0695    0.0000 C   0  0  0  0  0  0  0  0  0  0  0  0
   11.2018   -9.4820    0.0000 C   0  0  0  0  0  0  0  0  0  0  0  0
   11.9163   -9.0695    0.0000 C   0  0  0  0  0  0  0  0  0  0  0  0
   12.6307   -9.4820    0.0000 C   0  0  0  0  0  0  0  0  0  0  0  0
   13.3452   -9.0695    0.0000 C   0  0  0  0  0  0  0  0  0  0  0  0
   14.0597   -9.4820    0.0000 C   0  0  0  0  0  0  0  0  0  0  0  0
    1.9137   -9.0695    0.0000 O   0  0  0  0  0  0  0  0  0  0  0  0
    1.1992   -9.4820    0.0000 C   0  0  0  0  0  0  0  0  0  0  0  0
  1  2  2  0  0  0  0
  2  3  1  0  0  0  0
  3  4  2  0  0  0  0
  4  5  1  0  0  0  0
  5  6  2  0  0  0  0
  6  1  1  0  0  0  0
  2  7  1  0  0  0  0
  5  8  1  0  0  0  0
  8  9  2  0  0  0  0
  9 10  1  0  0  0  0
 10 11  1  0  0  0  0
 11 12  1  0  0  0  0
 12 13  1  0  0  0  0
 13 14  1  0  0  0  0
 10 15  2  0  0  0  0
 12 16  1  1  0  0  0
 14 17  1  0  0  0  0
 17 18  1  0  0  0  0
 18 19  1  0  0  0  0
 19 20  1  0  0  0  0
 20 21  1  0  0  0  0
 21 22  1  0  0  0  0
 22 23  1  0  0  0  0
  1 24  1  0  0  0  0
 24 25  1  0  0  0  0
M  END
>  <cdx:fragmentId>
5

$$$$
