95826.cdx
  Mrv1902 05222410182D          

 13 14  0  0  0  0            999 V2000
    6.2145   -6.4433    0.0000 C   0  0  0  0  0  0  0  0  0  0  0  0
    5.4961   -6.0377    0.0000 C   0  0  0  0  0  0  0  0  0  0  0  0
    5.4880   -5.2128    0.0000 C   0  0  0  0  0  0  0  0  0  0  0  0
    6.1985   -4.7933    0.0000 C   0  0  0  0  0  0  0  0  0  0  0  0
    6.9169   -5.1989    0.0000 C   0  0  0  0  0  0  0  0  0  0  0  0
    7.6273   -4.7794    0.0000 C   0  0  0  0  0  0  0  0  0  0  0  0
    8.3458   -5.1850    0.0000 C   0  0  0  0  0  0  0  0  0  0  0  0
    8.3538   -6.0099    0.0000 C   0  0  0  0  0  0  0  0  0  0  0  0
    7.6434   -6.4294    0.0000 C   0  0  0  0  0  0  0  0  0  0  0  0
    6.9249   -6.0238    0.0000 C   0  0  0  0  0  0  0  0  0  0  0  0
    9.0562   -4.7655    0.0000 C   0  0  0  0  0  0  0  0  0  0  0  0
    6.6340   -7.1537    0.0000 C   0  0  0  0  0  0  0  0  0  0  0  0
    5.8090   -7.1617    0.0000 C   0  0  0  0  0  0  0  0  0  0  0  0
  1  2  1  0  0  0  0
  2  3  1  0  0  0  0
  3  4  1  0  0  0  0
  4  5  1  0  0  0  0
  5  6  1  0  0  0  0
  6  7  2  0  0  0  0
  7  8  1  0  0  0  0
  8  9  2  0  0  0  0
  9 10  1  0  0  0  0
  1 10  1  0  0  0  0
  5 10  2  0  0  0  0
  7 11  1  0  0  0  0
  1 12  1  0  0  0  0
  1 13  1  0  0  0  0
M  END
>  <cdx:fragmentId>
5

$$$$
