95828.cdx
  Mrv1902 05222410282D          

  8  8  0  0  0  0            999 V2000
    8.1915   -8.8206    0.0000 C   0  0  0  0  0  0  0  0  0  0  0  0
    7.6081   -9.4040    0.0000 C   0  0  0  0  0  0  0  0  0  0  0  0
    6.7831   -9.4040    0.0000 C   0  0  0  0  0  0  0  0  0  0  0  0
    6.1998   -8.8206    0.0000 C   0  0  0  0  0  0  0  0  0  0  0  0
    6.1998   -7.9956    0.0000 C   0  0  0  0  0  0  0  0  0  0  0  0
    6.7831   -7.4123    0.0000 C   0  0  0  0  0  0  0  0  0  0  0  0
    7.6081   -7.4123    0.0000 C   0  0  0  0  0  0  0  0  0  0  0  0
    8.1915   -7.9956    0.0000 C   0  0  0  0  0  0  0  0  0  0  0  0
  1  2  2  0  0  0  0
  2  3  1  0  0  0  0
  3  4  2  0  0  0  0
  4  5  1  0  0  0  0
  5  6  1  0  0  0  0
  6  7  1  0  0  0  0
  7  8  1  0  0  0  0
  1  8  1  0  0  0  0
M  END
>  <cdx:groupId>
26

>  <cdx:fragmentId>
5

$$$$
