95838.cdx
  Mrv1902 05222410262D          

 11 10  0  0  0  0            999 V2000
    5.0522   -8.7297    0.0000 C   0  0  0  0  0  0  0  0  0  0  0  0
    5.7667   -8.3172    0.0000 C   0  0  0  0  0  0  0  0  0  0  0  0
    6.4812   -8.7297    0.0000 C   0  0  0  0  0  0  0  0  0  0  0  0
    7.1956   -8.3172    0.0000 C   0  0  0  0  0  0  0  0  0  0  0  0
    7.9101   -8.7297    0.0000 C   0  0  0  0  0  0  0  0  0  0  0  0
    8.6246   -8.3172    0.0000 C   0  0  0  0  0  0  0  0  0  0  0  0
    8.6246   -7.4922    0.0000 C   0  0  0  0  0  0  0  0  0  0  0  0
    7.1956   -7.4922    0.0000 O   0  0  0  0  0  0  0  0  0  0  0  0
    9.3391   -8.7297    0.0000 C   0  0  0  0  0  0  0  0  0  0  0  0
    6.8937   -9.4442    0.0000 C   0  0  0  0  0  0  0  0  0  0  0  0
    6.0687   -9.4442    0.0000 C   0  0  0  0  0  0  0  0  0  0  0  0
  1  2  2  0  0  0  0
  2  3  1  0  0  0  0
  3  4  1  0  0  0  0
  4  5  1  0  0  0  0
  5  6  2  0  0  0  0
  6  7  1  0  0  0  0
  4  8  2  0  0  0  0
  6  9  1  0  0  0  0
  3 10  1  0  0  0  0
  3 11  1  0  0  0  0
M  END
>  <cdx:groupId>
34

>  <cdx:fragmentId>
5

$$$$
