95830.cdx
  Mrv1902 05222410182D          

 29 30  0  0  0  0            999 V2000
    1.4968   -6.7512    0.0000 C   0  0  0  0  0  0  0  0  0  0  0  0
    1.4968   -7.5762    0.0000 C   0  0  0  0  0  0  0  0  0  0  0  0
    2.2113   -7.9888    0.0000 C   0  0  0  0  0  0  0  0  0  0  0  0
    2.9257   -7.5762    0.0000 C   0  0  0  0  0  0  0  0  0  0  0  0
    2.9257   -6.7512    0.0000 C   0  0  0  0  0  0  0  0  0  0  0  0
    2.2113   -6.3388    0.0000 C   0  0  0  0  0  0  0  0  0  0  0  0
    0.7823   -6.3388    0.0000 O   0  0  0  0  0  0  0  0  0  0  0  0
    2.2113   -8.8138    0.0000 C   0  0  0  0  0  0  0  0  0  0  0  0
    3.6402   -7.9888    0.0000 O   0  0  0  0  0  0  0  0  0  0  0  0
    4.3547   -7.5762    0.0000 C   0  0  2  0  0  0  0  0  0  0  0  0
    4.3547   -6.7512    0.0000 C   0  0  0  0  0  0  0  0  0  0  0  0
    3.6402   -6.3388    0.0000 C   0  0  0  0  0  0  0  0  0  0  0  0
    5.0692   -7.9888    0.0000 C   0  0  0  0  0  0  0  0  0  0  0  0
    5.7836   -7.5762    0.0000 C   0  0  0  0  0  0  0  0  0  0  0  0
    6.4981   -7.9888    0.0000 C   0  0  0  0  0  0  0  0  0  0  0  0
    7.2126   -7.5762    0.0000 C   0  0  1  0  0  0  0  0  0  0  0  0
    7.9270   -7.9888    0.0000 C   0  0  0  0  0  0  0  0  0  0  0  0
    7.2126   -6.7512    0.0000 C   0  0  0  0  0  0  0  0  0  0  0  0
    8.6415   -7.5762    0.0000 C   0  0  0  0  0  0  0  0  0  0  0  0
    9.3560   -7.9888    0.0000 C   0  0  0  0  0  0  0  0  0  0  0  0
   10.0705   -7.5762    0.0000 C   0  0  1  0  0  0  0  0  0  0  0  0
   10.7849   -7.9888    0.0000 C   0  0  0  0  0  0  0  0  0  0  0  0
   10.0705   -6.7512    0.0000 C   0  0  0  0  0  0  0  0  0  0  0  0
   11.4994   -7.5762    0.0000 C   0  0  0  0  0  0  0  0  0  0  0  0
   12.2139   -7.9888    0.0000 C   0  0  0  0  0  0  0  0  0  0  0  0
   12.9283   -7.5762    0.0000 C   0  0  0  0  0  0  0  0  0  0  0  0
   13.6428   -7.9888    0.0000 C   0  0  0  0  0  0  0  0  0  0  0  0
   12.9283   -6.7512    0.0000 C   0  0  0  0  0  0  0  0  0  0  0  0
    4.3547   -8.4013    0.0000 C   0  0  0  0  0  0  0  0  0  0  0  0
  1  2  2  0  0  0  0
  2  3  1  0  0  0  0
  3  4  2  0  0  0  0
  4  5  1  0  0  0  0
  5  6  2  0  0  0  0
  6  1  1  0  0  0  0
  1  7  1  0  0  0  0
  3  8  1  0  0  0  0
  4  9  1  0  0  0  0
  9 10  1  0  0  0  0
 10 11  1  0  0  0  0
 11 12  2  0  0  0  0
 12  5  1  0  0  0  0
 10 13  1  0  0  0  0
 13 14  1  0  0  0  0
 14 15  1  0  0  0  0
 15 16  1  0  0  0  0
 16 17  1  0  0  0  0
 16 18  1  6  0  0  0
 17 19  1  0  0  0  0
 19 20  1  0  0  0  0
 20 21  1  0  0  0  0
 21 22  1  0  0  0  0
 21 23  1  6  0  0  0
 22 24  1  0  0  0  0
 24 25  1  0  0  0  0
 25 26  1  0  0  0  0
 26 27  1  0  0  0  0
 26 28  1  0  0  0  0
 10 29  1  1  0  0  0
M  END
>  <cdx:fragmentId>
5

$$$$
