95835.cdx
  Mrv1902 05222410202D          

 11 12  0  0  0  0            999 V2000
    6.6825   -3.5750    0.0000 C   0  0  0  0  0  0  0  0  0  0  0  0
    7.1499   -4.0481    0.0000 C   0  0  0  0  0  0  0  0  0  0  0  0
    8.0850   -4.4275    0.0000 C   0  0  0  0  0  0  0  0  0  0  0  0
    7.8409   -5.1603    0.0000 C   0  0  0  0  0  0  0  0  0  0  0  0
    7.0691   -4.8690    0.0000 C   0  0  0  0  0  0  0  0  0  0  0  0
    6.2425   -5.1700    0.0000 C   0  0  0  0  0  0  0  0  0  0  0  0
    6.8960   -2.7781    0.0000 C   0  0  0  0  0  0  0  0  0  0  0  0
    5.8856   -3.3615    0.0000 C   0  0  0  0  0  0  0  0  0  0  0  0
    6.8555   -5.6659    0.0000 C   0  0  0  0  0  0  0  0  0  0  0  0
    8.2534   -5.8748    0.0000 O   0  0  0  0  0  0  0  0  0  0  0  0
    5.9400   -4.4275    0.0000 C   0  0  0  0  0  0  0  0  0  0  0  0
  1  2  1  0  0  0  0
  2  3  1  0  0  0  0
  3  4  1  0  0  0  0
  4  5  1  0  0  0  0
  5  6  1  0  0  0  0
  5  1  1  0  0  0  0
  1  7  1  0  0  0  0
  1  8  1  0  0  0  0
  5  9  1  0  0  0  0
  4 10  2  0  0  0  0
  2 11  1  0  0  0  0
 11  6  1  0  0  0  0
M  END
>  <cdx:fragmentId>
800

$$$$
