95833.cdx
  Mrv1902 05222410192D          

  7  6  0  0  0  0            999 V2000
    6.2700   -8.5594    0.0000 C   0  0  0  0  0  0  0  0  0  0  0  0
    6.9845   -8.9719    0.0000 C   0  0  0  0  0  0  0  0  0  0  0  0
    7.6989   -8.5594    0.0000 C   0  0  0  0  0  0  0  0  0  0  0  0
    8.4134   -8.9719    0.0000 C   0  0  0  0  0  0  0  0  0  0  0  0
    9.1279   -8.5594    0.0000 C   0  0  0  0  0  0  0  0  0  0  0  0
    9.1279   -7.7344    0.0000 C   0  0  0  0  0  0  0  0  0  0  0  0
    5.5555   -8.9719    0.0000 O   0  0  0  0  0  0  0  0  0  0  0  0
  1  2  1  0  0  0  0
  2  3  1  0  0  0  0
  3  4  1  0  0  0  0
  4  5  2  0  0  0  0
  5  6  1  0  0  0  0
  1  7  1  0  0  0  0
M  END
>  <cdx:groupId>
22

>  <cdx:fragmentId>
5

$$$$
