95837.cdx
  Mrv1902 05222410192D          

 11 11  0  0  0  0            999 V2000
    7.1404   -7.4877    0.0000 O   0  0  0  0  0  0  0  0  0  0  0  0
    7.5529   -8.2022    0.0000 C   0  0  0  0  0  0  0  0  0  0  0  0
    6.7279   -8.2022    0.0000 C   0  0  0  0  0  0  0  0  0  0  0  0
    8.9818   -9.0272    0.0000 C   0  0  0  0  0  0  0  0  0  0  0  0
    8.2674   -9.4397    0.0000 C   0  0  0  0  0  0  0  0  0  0  0  0
    7.5529   -9.0272    0.0000 C   0  0  0  0  0  0  0  0  0  0  0  0
    6.8384   -9.4397    0.0000 C   0  0  0  0  0  0  0  0  0  0  0  0
    6.1239   -9.0272    0.0000 C   0  0  0  0  0  0  0  0  0  0  0  0
    5.4095   -9.4397    0.0000 C   0  0  0  0  0  0  0  0  0  0  0  0
    6.1239   -8.2022    0.0000 C   0  0  0  0  0  0  0  0  0  0  0  0
    8.2674   -7.7897    0.0000 C   0  0  0  0  0  0  0  0  0  0  0  0
  1  2  1  0  0  0  0
  2  3  1  0  0  0  0
  1  3  1  0  0  0  0
  4  5  2  0  0  0  0
  5  6  1  0  0  0  0
  6  7  1  0  0  0  0
  7  8  2  0  0  0  0
  8  9  1  0  0  0  0
  8 10  1  0  0  0  0
  2  6  1  0  0  0  0
  2 11  1  0  0  0  0
M  END
>  <cdx:groupId>
35

>  <cdx:fragmentId>
11

$$$$
