95836.cdx
  Mrv1902 05222410202D          

 10  9  0  0  0  0            999 V2000
    8.6370   -7.3769    0.0000 C   0  0  0  0  0  0  0  0  0  0  0  0
    8.6370   -8.2019    0.0000 C   0  0  0  0  0  0  0  0  0  0  0  0
    7.9225   -8.6144    0.0000 C   0  0  0  0  0  0  0  0  0  0  0  0
    7.2080   -8.2019    0.0000 C   0  0  0  0  0  0  0  0  0  0  0  0
    6.4936   -8.6144    0.0000 C   0  0  0  0  0  0  0  0  0  0  0  0
    5.7791   -8.2019    0.0000 C   0  0  0  0  0  0  0  0  0  0  0  0
    5.0646   -8.6144    0.0000 C   0  0  0  0  0  0  0  0  0  0  0  0
    5.7791   -7.3769    0.0000 C   0  0  0  0  0  0  0  0  0  0  0  0
    6.4936   -9.4394    0.0000 C   0  0  0  0  0  0  0  0  0  0  0  0
    9.3514   -8.6144    0.0000 C   0  0  0  0  0  0  0  0  0  0  0  0
  1  2  2  0  0  0  0
  2  3  1  0  0  0  0
  3  4  2  0  0  0  0
  4  5  1  0  0  0  0
  5  6  1  0  0  0  0
  6  7  2  0  0  0  0
  6  8  1  0  0  0  0
  5  9  1  0  0  0  0
  2 10  1  0  0  0  0
M  END
>  <cdx:groupId>
31

>  <cdx:fragmentId>
5

$$$$
