95832.cdx
  Mrv1902 05222410182D          

  7  7  0  0  0  0            999 V2000
    6.1741   -7.9956    0.0000 C   0  0  0  0  0  0  0  0  0  0  0  0
    6.8886   -7.5831    0.0000 C   0  0  0  0  0  0  0  0  0  0  0  0
    7.6031   -7.9956    0.0000 C   0  0  0  0  0  0  0  0  0  0  0  0
    7.6031   -8.8206    0.0000 C   0  0  0  0  0  0  0  0  0  0  0  0
    6.8886   -9.2331    0.0000 C   0  0  0  0  0  0  0  0  0  0  0  0
    6.1741   -8.8206    0.0000 O   0  0  0  0  0  0  0  0  0  0  0  0
    8.3175   -7.5831    0.0000 C   0  0  0  0  0  0  0  0  0  0  0  0
  1  2  1  0  0  0  0
  2  3  1  0  0  0  0
  3  4  1  0  0  0  0
  4  5  2  0  0  0  0
  5  6  1  0  0  0  0
  1  6  1  0  0  0  0
  3  7  1  0  0  0  0
M  END
>  <cdx:groupId>
23

>  <cdx:fragmentId>
5

$$$$
