11958336.cdx
  Mrv1902 05222410192D          

 40 45  0  0  0  0            999 V2000
    9.0297  -14.1812    0.0000 C   0  0  0  0  0  0  0  0  0  0  0  0
    9.0297  -13.3562    0.0000 C   0  0  0  0  0  0  0  0  0  0  0  0
    8.3152  -12.9437    0.0000 C   0  0  0  0  0  0  0  0  0  0  0  0
    7.6007  -13.3562    0.0000 C   0  0  0  0  0  0  0  0  0  0  0  0
    6.8863  -12.9437    0.0000 C   0  0  0  0  0  0  0  0  0  0  0  0
    6.1718  -13.3562    0.0000 C   0  0  0  0  0  0  0  0  0  0  0  0
    6.1718  -14.1812    0.0000 C   0  0  0  0  0  0  0  0  0  0  0  0
    6.8863  -14.5937    0.0000 C   0  0  0  0  0  0  0  0  0  0  0  0
    7.6007  -14.1812    0.0000 C   0  0  0  0  0  0  0  0  0  0  0  0
    8.3152  -14.5937    0.0000 O   0  0  0  0  0  0  0  0  0  0  0  0
    8.3152  -12.1187    0.0000 O   0  0  0  0  0  0  0  0  0  0  0  0
    9.7441  -14.5937    0.0000 C   0  0  0  0  0  0  0  0  0  0  0  0
   10.4586  -14.1812    0.0000 C   0  0  0  0  0  0  0  0  0  0  0  0
   11.1731  -14.5937    0.0000 C   0  0  0  0  0  0  0  0  0  0  0  0
   11.1731  -15.4187    0.0000 C   0  0  0  0  0  0  0  0  0  0  0  0
   10.4586  -15.8312    0.0000 C   0  0  0  0  0  0  0  0  0  0  0  0
    9.7441  -15.4187    0.0000 C   0  0  0  0  0  0  0  0  0  0  0  0
   11.8876  -15.8312    0.0000 O   0  0  0  0  0  0  0  0  0  0  0  0
    5.4573  -14.5937    0.0000 O   0  0  0  0  0  0  0  0  0  0  0  0
    6.8863  -12.1187    0.0000 O   0  0  0  0  0  0  0  0  0  0  0  0
    6.8863  -15.9137    0.0000 C   0  0  0  0  0  0  0  0  0  0  0  0
    6.1718  -16.3262    0.0000 C   0  0  0  0  0  0  0  0  0  0  0  0
    6.1718  -17.1512    0.0000 C   0  0  0  0  0  0  0  0  0  0  0  0
    6.8863  -17.5637    0.0000 C   0  0  0  0  0  0  0  0  0  0  0  0
    7.6007  -17.1512    0.0000 C   0  0  0  0  0  0  0  0  0  0  0  0
    7.6007  -16.3262    0.0000 C   0  0  0  0  0  0  0  0  0  0  0  0
    8.3152  -17.5637    0.0000 O   0  0  0  0  0  0  0  0  0  0  0  0
    5.4573  -15.9137    0.0000 C   0  0  0  0  0  0  0  0  0  0  0  0
    4.7429  -16.3262    0.0000 C   0  0  0  0  0  0  0  0  0  0  0  0
    4.0284  -15.9137    0.0000 C   0  0  0  0  0  0  0  0  0  0  0  0
    4.0284  -15.0887    0.0000 C   0  0  0  0  0  0  0  0  0  0  0  0
    3.3139  -14.6762    0.0000 C   0  0  0  0  0  0  0  0  0  0  0  0
    3.3139  -13.8512    0.0000 C   0  0  0  0  0  0  0  0  0  0  0  0
    4.0284  -13.4387    0.0000 C   0  0  0  0  0  0  0  0  0  0  0  0
    4.7429  -13.8512    0.0000 C   0  0  0  0  0  0  0  0  0  0  0  0
    4.7429  -14.6762    0.0000 C   0  0  0  0  0  0  0  0  0  0  0  0
    5.4573  -15.0887    0.0000 O   0  0  0  0  0  0  0  0  0  0  0  0
    3.3139  -16.3262    0.0000 O   0  0  0  0  0  0  0  0  0  0  0  0
    4.0284  -12.6137    0.0000 O   0  0  0  0  0  0  0  0  0  0  0  0
    2.5994  -15.0887    0.0000 O   0  0  0  0  0  0  0  0  0  0  0  0
  1  2  2  0  0  0  0
  2  3  1  0  0  0  0
  3  4  1  0  0  0  0
  4  5  1  0  0  0  0
  5  6  2  0  0  0  0
  6  7  1  0  0  0  0
  7  8  2  0  0  0  0
  8  9  1  0  0  0  0
  4  9  2  0  0  0  0
  9 10  1  0  0  0  0
  1 10  1  0  0  0  0
  3 11  2  0  0  0  0
 12 13  1  0  0  0  0
 13 14  2  0  0  0  0
 14 15  1  0  0  0  0
 15 16  2  0  0  0  0
 16 17  1  0  0  0  0
 12 17  2  0  0  0  0
 15 18  1  0  0  0  0
  1 12  1  0  0  0  0
  7 19  1  0  0  0  0
  5 20  1  0  0  0  0
 21 22  1  0  0  0  0
 22 23  2  0  0  0  0
 23 24  1  0  0  0  0
 24 25  2  0  0  0  0
 25 26  1  0  0  0  0
 21 26  2  0  0  0  0
 25 27  1  0  0  0  0
 28 29  2  0  0  0  0
 29 30  1  0  0  0  0
 30 31  1  0  0  0  0
 31 32  1  0  0  0  0
 32 33  2  0  0  0  0
 33 34  1  0  0  0  0
 34 35  2  0  0  0  0
 35 36  1  0  0  0  0
 31 36  2  0  0  0  0
 36 37  1  0  0  0  0
 28 37  1  0  0  0  0
 30 38  2  0  0  0  0
 34 39  1  0  0  0  0
 32 40  1  0  0  0  0
 22 28  1  0  0  0  0
  8 21  1  0  0  0  0
M  END
>  <cdx:groupId>
83612

>  <cdx:fragmentId>
83544

$$$$
