95844.cdx
  Mrv1902 05222410222D          

 17 20  0  0  0  0            999 V2000
    7.2372   -8.6472    0.0000 C   0  0  0  0  0  0  0  0  0  0  0  0
    6.4260   -8.4969    0.0000 C   0  0  1  0  0  0  0  0  0  0  0  0
    5.6014   -8.4693    0.0000 C   0  0  0  0  0  0  0  0  0  0  0  0
    6.0377   -7.7690    0.0000 C   0  0  0  0  0  0  0  0  0  0  0  0
    6.3647   -7.0116    0.0000 C   0  0  0  0  0  0  0  0  0  0  0  0
    7.1607   -6.7950    0.0000 C   0  0  0  0  0  0  0  0  0  0  0  0
    7.8264   -7.2823    0.0000 C   0  0  1  0  0  0  0  0  0  0  0  0
    7.8604   -8.1066    0.0000 C   0  0  0  0  0  0  0  0  0  0  0  0
    8.5671   -8.5323    0.0000 C   0  0  0  0  0  0  0  0  0  0  0  0
    8.3806   -9.3360    0.0000 C   0  0  0  0  0  0  0  0  0  0  0  0
    7.5587   -9.4070    0.0000 C   0  0  0  0  0  0  0  0  0  0  0  0
    6.7400   -9.3055    0.0000 O   0  0  0  0  0  0  0  0  0  0  0  0
    7.5434  -10.2318    0.0000 C   0  0  0  0  0  0  0  0  0  0  0  0
    8.5543   -6.8940    0.0000 C   0  0  0  0  0  0  0  0  0  0  0  0
    5.1652   -9.1695    0.0000 C   0  0  0  0  0  0  0  0  0  0  0  0
    4.7769   -8.4416    0.0000 C   0  0  0  0  0  0  0  0  0  0  0  0
    6.3591   -9.1121    0.0000 H   0  0  0  0  0  0  0  0  0  0  0  0
  1  2  1  0  0  0  0
  2  3  1  0  0  0  0
  3  4  1  0  0  0  0
  4  5  1  0  0  0  0
  5  6  1  0  0  0  0
  6  7  1  0  0  0  0
  7  8  1  0  0  0  0
  8  9  1  0  0  0  0
  9 10  1  0  0  0  0
 10 11  1  0  0  0  0
 11 12  1  0  0  0  0
  1 12  1  0  0  0  0
  1  8  1  0  0  0  0
  1 11  1  0  0  0  0
  2  4  1  0  0  0  0
 11 13  1  0  0  0  0
  7 14  1  6  0  0  0
  3 15  1  0  0  0  0
  3 16  1  0  0  0  0
  2 17  1  6  0  0  0
M  END
>  <cdx:groupId>
59

>  <cdx:fragmentId>
5

$$$$
