95849.cdx
  Mrv1902 05222410242D          

 16 17  0  0  0  0            999 V2000
    6.1741   -7.2341    0.0000 C   0  0  0  0  0  0  0  0  0  0  0  0
    5.4597   -7.6466    0.0000 C   0  0  0  0  0  0  0  0  0  0  0  0
    5.4597   -8.4716    0.0000 C   0  0  0  0  0  0  0  0  0  0  0  0
    6.1741   -8.8841    0.0000 C   0  0  0  0  0  0  0  0  0  0  0  0
    6.8886   -8.4716    0.0000 C   0  0  0  0  0  0  0  0  0  0  0  0
    7.6031   -8.8841    0.0000 C   0  0  0  0  0  0  0  0  0  0  0  0
    8.3175   -8.4716    0.0000 C   0  0  0  0  0  0  0  0  0  0  0  0
    8.3175   -7.6466    0.0000 C   0  0  0  0  0  0  0  0  0  0  0  0
    7.6031   -7.2341    0.0000 C   0  0  0  0  0  0  0  0  0  0  0  0
    6.8886   -7.6466    0.0000 C   0  0  0  0  0  0  0  0  0  0  0  0
    4.7452   -7.2341    0.0000 O   0  0  0  0  0  0  0  0  0  0  0  0
    9.0320   -8.8841    0.0000 C   0  0  0  0  0  0  0  0  0  0  0  0
    9.0320   -9.7091    0.0000 C   0  0  0  0  0  0  0  0  0  0  0  0
    9.7465   -8.4716    0.0000 C   0  0  0  0  0  0  0  0  0  0  0  0
    6.8886   -9.2966    0.0000 C   0  0  0  0  0  0  0  0  0  0  0  0
    6.1741   -9.7091    0.0000 C   0  0  0  0  0  0  0  0  0  0  0  0
  1  2  1  0  0  0  0
  2  3  1  0  0  0  0
  3  4  1  0  0  0  0
  4  5  1  0  0  0  0
  5  6  1  0  0  0  0
  6  7  1  0  0  0  0
  7  8  1  0  0  0  0
  8  9  1  0  0  0  0
  9 10  1  0  0  0  0
  1 10  2  0  0  0  0
  5 10  1  0  0  0  0
  2 11  2  0  0  0  0
 12 13  2  0  0  0  0
 12 14  1  0  0  0  0
  7 12  1  0  0  0  0
  5 15  1  0  0  0  0
  4 16  1  0  0  0  0
M  END
>  <cdx:groupId>
51

>  <cdx:fragmentId>
5

$$$$
