95843.cdx
  Mrv1902 05222410222D          

 15 17  0  0  0  0            999 V2000
    7.1956   -7.9956    0.0000 C   0  0  0  0  0  0  0  0  0  0  0  0
    7.9101   -7.5831    0.0000 C   0  0  0  0  0  0  0  0  0  0  0  0
    8.6246   -7.9956    0.0000 C   0  0  0  0  0  0  0  0  0  0  0  0
    8.6246   -8.8206    0.0000 C   0  0  0  0  0  0  0  0  0  0  0  0
    7.9101   -9.2331    0.0000 C   0  0  0  0  0  0  0  0  0  0  0  0
    7.1956   -8.8206    0.0000 C   0  0  0  0  0  0  0  0  0  0  0  0
    6.4812   -9.2331    0.0000 C   0  0  0  0  0  0  0  0  0  0  0  0
    5.7667   -8.8206    0.0000 C   0  0  0  0  0  0  0  0  0  0  0  0
    5.7667   -7.9956    0.0000 C   0  0  0  0  0  0  0  0  0  0  0  0
    6.4812   -7.5831    0.0000 C   0  0  0  0  0  0  0  0  0  0  0  0
    6.3130   -8.1177    0.0000 C   0  0  0  0  0  0  0  0  0  0  0  0
    6.8937   -9.9476    0.0000 C   0  0  0  0  0  0  0  0  0  0  0  0
    6.0687   -9.9476    0.0000 C   0  0  0  0  0  0  0  0  0  0  0  0
    7.4976   -6.8687    0.0000 C   0  0  0  0  0  0  0  0  0  0  0  0
    8.3226   -6.8687    0.0000 C   0  0  0  0  0  0  0  0  0  0  0  0
  1  2  1  0  0  0  0
  2  3  1  0  0  0  0
  3  4  2  0  0  0  0
  4  5  1  0  0  0  0
  5  6  2  0  0  0  0
  6  7  1  0  0  0  0
  7  8  1  0  0  0  0
  8  9  1  0  0  0  0
  9 10  2  0  0  0  0
  1 10  1  0  0  0  0
  1 11  1  0  0  0  0
 11  8  1  0  0  0  0
  1  6  1  0  0  0  0
  7 12  1  0  0  0  0
  7 13  1  0  0  0  0
  2 14  1  0  0  0  0
  2 15  1  0  0  0  0
M  END
>  <cdx:groupId>
49

>  <cdx:fragmentId>
5

$$$$
