95845.cdx
  Mrv1902 05222410212D          

 14 14  0  0  0  0            999 V2000
    6.4777   -8.0512    0.0000 C   0  0  0  0  0  0  0  0  0  0  0  0
    5.7633   -8.4637    0.0000 C   0  0  0  0  0  0  0  0  0  0  0  0
    5.0488   -8.0512    0.0000 C   0  0  0  0  0  0  0  0  0  0  0  0
    5.0488   -7.2262    0.0000 C   0  0  0  0  0  0  0  0  0  0  0  0
    6.4777   -7.2262    0.0000 O   0  0  0  0  0  0  0  0  0  0  0  0
    7.1922   -8.4637    0.0000 O   0  0  0  0  0  0  0  0  0  0  0  0
    4.3343   -8.4637    0.0000 C   0  0  0  0  0  0  0  0  0  0  0  0
    7.9067   -8.0512    0.0000 C   0  0  0  0  0  0  0  0  0  0  0  0
    8.6212   -8.4637    0.0000 C   0  0  0  0  0  0  0  0  0  0  0  0
    8.6212   -9.2887    0.0000 C   0  0  0  0  0  0  0  0  0  0  0  0
    9.3356   -9.7012    0.0000 C   0  0  0  0  0  0  0  0  0  0  0  0
   10.0501   -9.2887    0.0000 C   0  0  0  0  0  0  0  0  0  0  0  0
   10.0501   -8.4637    0.0000 C   0  0  0  0  0  0  0  0  0  0  0  0
    9.3356   -8.0512    0.0000 C   0  0  0  0  0  0  0  0  0  0  0  0
  1  2  1  0  0  0  0
  2  3  1  0  0  0  0
  3  4  1  0  0  0  0
  1  5  2  0  0  0  0
  1  6  1  0  0  0  0
  3  7  1  0  0  0  0
  8  9  1  0  0  0  0
  9 10  1  0  0  0  0
 10 11  2  0  0  0  0
 11 12  1  0  0  0  0
 12 13  2  0  0  0  0
 13 14  1  0  0  0  0
  9 14  2  0  0  0  0
  6  8  1  0  0  0  0
M  END
>  <cdx:groupId>
44

>  <cdx:fragmentId>
19

$$$$
