95842.cdx
  Mrv1902 05222410232D          

 13 12  0  0  0  0            999 V2000
    5.7667   -8.2654    0.0000 C   0  0  0  0  0  0  0  0  0  0  0  0
    5.0522   -8.6779    0.0000 C   0  0  0  0  0  0  0  0  0  0  0  0
    4.3378   -8.2654    0.0000 C   0  0  0  0  0  0  0  0  0  0  0  0
    3.6233   -8.6779    0.0000 C   0  0  0  0  0  0  0  0  0  0  0  0
    5.7667   -7.4404    0.0000 O   0  0  0  0  0  0  0  0  0  0  0  0
    6.4812   -8.6779    0.0000 O   0  0  0  0  0  0  0  0  0  0  0  0
    5.0522   -9.5029    0.0000 C   0  0  0  0  0  0  0  0  0  0  0  0
    7.1956   -8.2654    0.0000 C   0  0  0  0  0  0  0  0  0  0  0  0
    7.9101   -8.6779    0.0000 C   0  0  0  0  0  0  0  0  0  0  0  0
    8.6246   -8.2654    0.0000 C   0  0  0  0  0  0  0  0  0  0  0  0
    9.3391   -8.6779    0.0000 C   0  0  0  0  0  0  0  0  0  0  0  0
   10.0535   -8.2654    0.0000 C   0  0  0  0  0  0  0  0  0  0  0  0
   10.7680   -8.6779    0.0000 C   0  0  0  0  0  0  0  0  0  0  0  0
  1  2  1  0  0  0  0
  2  3  1  0  0  0  0
  3  4  1  0  0  0  0
  1  5  2  0  0  0  0
  1  6  1  0  0  0  0
  2  7  1  0  0  0  0
  8  9  1  0  0  0  0
  9 10  1  0  0  0  0
 10 11  1  0  0  0  0
 11 12  1  0  0  0  0
 12 13  1  0  0  0  0
  6  8  1  0  0  0  0
M  END
>  <cdx:groupId>
40

>  <cdx:fragmentId>
5

$$$$
