95846.cdx
  Mrv1902 05222410202D          

 10  9  0  0  0  0            999 V2000
    8.6246   -7.4287    0.0000 C   0  0  0  0  0  0  0  0  0  0  0  0
    8.6246   -8.2537    0.0000 C   0  0  0  0  0  0  0  0  0  0  0  0
    7.9101   -8.6662    0.0000 C   0  0  0  0  0  0  0  0  0  0  0  0
    7.1956   -8.2537    0.0000 C   0  0  0  0  0  0  0  0  0  0  0  0
    6.4812   -8.6662    0.0000 C   0  0  0  0  0  0  0  0  0  0  0  0
    5.7667   -8.2537    0.0000 C   0  0  0  0  0  0  0  0  0  0  0  0
    5.0522   -8.6662    0.0000 C   0  0  0  0  0  0  0  0  0  0  0  0
    6.8937   -9.3807    0.0000 C   0  0  0  0  0  0  0  0  0  0  0  0
    6.0687   -9.3807    0.0000 C   0  0  0  0  0  0  0  0  0  0  0  0
    9.3391   -8.6662    0.0000 C   0  0  0  0  0  0  0  0  0  0  0  0
  1  2  2  0  0  0  0
  2  3  1  0  0  0  0
  3  4  2  0  0  0  0
  4  5  1  0  0  0  0
  5  6  1  0  0  0  0
  6  7  2  0  0  0  0
  5  8  1  0  0  0  0
  5  9  1  0  0  0  0
  2 10  1  0  0  0  0
M  END
>  <cdx:groupId>
31

>  <cdx:fragmentId>
5

$$$$
