95840.cdx
  Mrv1902 05222410222D          

 11 11  0  0  0  0            999 V2000
    6.7139   -8.7619    0.0000 C   0  0  0  0  0  0  0  0  0  0  0  0
    7.1264   -8.0475    0.0000 C   0  0  0  0  0  0  0  0  0  0  0  0
    7.9514   -8.0475    0.0000 C   0  0  0  0  0  0  0  0  0  0  0  0
    8.3639   -8.7619    0.0000 C   0  0  0  0  0  0  0  0  0  0  0  0
    7.9514   -9.4764    0.0000 C   0  0  0  0  0  0  0  0  0  0  0  0
    7.1264   -9.4764    0.0000 C   0  0  0  0  0  0  0  0  0  0  0  0
    5.9994   -8.3494    0.0000 C   0  0  0  0  0  0  0  0  0  0  0  0
    5.2849   -8.7619    0.0000 O   0  0  0  0  0  0  0  0  0  0  0  0
    9.1889   -8.7619    0.0000 C   0  0  0  0  0  0  0  0  0  0  0  0
    8.3639   -7.3330    0.0000 C   0  0  0  0  0  0  0  0  0  0  0  0
    5.9994   -9.1744    0.0000 C   0  0  0  0  0  0  0  0  0  0  0  0
  1  2  1  0  0  0  0
  2  3  1  0  0  0  0
  3  4  2  0  0  0  0
  4  5  1  0  0  0  0
  5  6  1  0  0  0  0
  1  6  1  0  0  0  0
  7  8  2  0  0  0  0
  1  7  1  0  0  0  0
  4  9  1  0  0  0  0
  3 10  1  0  0  0  0
  1 11  1  0  0  0  0
M  END
>  <cdx:groupId>
35

>  <cdx:fragmentId>
5

$$$$
