958447.cdx
  Mrv1902 05222410202D          

 38 42  0  0  0  0            999 V2000
    3.9246   -7.7169    0.0000 O   0  0  0  0  0  0  0  0  0  0  0  0
    4.7215   -7.9304    0.0000 C   0  0  0  0  0  0  0  0  0  0  0  0
    3.6752   -9.3888    0.0000 O   0  0  0  0  0  0  0  0  0  0  0  0
    7.1962   -8.1301    0.0000 C   0  0  0  0  0  0  0  0  0  0  0  0
    7.9081   -9.3633    0.0000 C   0  0  0  0  0  0  0  0  0  0  0  0
    5.7673   -8.1387    0.0000 C   0  0  0  0  0  0  0  0  0  0  0  0
    5.1655  -10.8542    0.0000 C   0  0  0  0  0  0  0  0  0  0  0  0
    4.3794  -10.6040    0.0000 C   0  0  0  0  0  0  0  0  0  0  0  0
    8.4348   -5.0806    0.0000 C   0  0  0  0  0  0  0  0  0  0  0  0
    8.2261   -5.8787    0.0000 C   0  0  0  0  0  0  0  0  0  0  0  0
    7.4305   -6.0971    0.0000 C   0  0  0  0  0  0  0  0  0  0  0  0
   10.8022   -7.6232    0.0000 O   0  0  0  0  0  0  0  0  0  0  0  0
   10.0878   -8.8607    0.0000 O   0  0  0  0  0  0  0  0  0  0  0  0
   10.0878   -8.0357    0.0000 C   0  0  0  0  0  0  0  0  0  0  0  0
    7.2011   -9.7801    0.0000 C   0  0  0  0  0  0  0  0  0  0  0  0
    6.4892  -10.1969    0.0000 C   0  0  0  0  0  0  0  0  0  0  0  0
    5.7722   -9.7887    0.0000 C   0  0  1  0  0  0  0  0  0  0  0  0
    4.9892  -10.0483    0.0000 C   0  0  1  0  0  0  0  0  0  0  0  0
    4.5002   -9.3838    0.0000 C   0  0  1  0  0  0  0  0  0  0  0  0
    4.9811   -8.7135    0.0000 C   0  0  2  0  0  0  0  0  0  0  0  0
    5.7673   -8.9637    0.0000 C   0  0  1  0  0  0  0  0  0  0  0  0
    6.4792   -8.5469    0.0000 C   0  0  1  0  0  0  0  0  0  0  0  0
    6.4743   -7.7219    0.0000 C   0  0  0  0  0  0  0  0  0  0  0  0
    7.1862   -7.3051    0.0000 C   0  0  0  0  0  0  0  0  0  0  0  0
    7.9032   -7.7133    0.0000 C   0  0  2  0  0  0  0  0  0  0  0  0
    8.6152   -7.2965    0.0000 C   0  0  1  0  0  0  0  0  0  0  0  0
    8.7818   -6.4885    0.0000 C   0  0  1  0  0  0  0  0  0  0  0  0
    9.6018   -6.3973    0.0000 C   0  0  0  0  0  0  0  0  0  0  0  0
    9.9419   -7.1490    0.0000 C   0  0  0  0  0  0  0  0  0  0  0  0
    9.3321   -7.7047    0.0000 C   0  0  1  0  0  0  0  0  0  0  0  0
    9.3371   -8.5297    0.0000 C   0  0  0  0  0  0  0  0  0  0  0  0
    8.6251   -8.9465    0.0000 C   0  0  0  0  0  0  0  0  0  0  0  0
    7.9081   -8.5383    0.0000 C   0  0  2  0  0  0  0  0  0  0  0  0
    7.1962   -8.9551    0.0000 C   0  0  1  0  0  0  0  0  0  0  0  0
    5.7772  -10.6136    0.0000 H   0  0  0  0  0  0  0  0  0  0  0  0
    6.4842   -9.3719    0.0000 H   0  0  0  0  0  0  0  0  0  0  0  0
    8.6152   -8.1215    0.0000 H   0  0  0  0  0  0  0  0  0  0  0  0
    7.8982   -6.8883    0.0000 H   0  0  0  0  0  0  0  0  0  0  0  0
 20  2  1  1  0  0  0
  2  1  2  0  0  0  0
 19  3  1  6  0  0  0
 34  4  1  1  0  0  0
 33  5  1  6  0  0  0
 21  6  1  1  0  0  0
 18  7  1  6  0  0  0
 18  8  1  1  0  0  0
 27 10  1  6  0  0  0
 10  9  1  0  0  0  0
 11 10  2  0  0  0  0
 30 14  1  1  0  0  0
 14 12  1  0  0  0  0
 14 13  2  0  0  0  0
 21 17  1  0  0  0  0
 30 26  1  0  0  0  0
 33 25  1  0  0  0  0
 34 22  1  0  0  0  0
 34 15  1  0  0  0  0
 16 15  1  0  0  0  0
 17 16  1  0  0  0  0
 18 17  1  0  0  0  0
 19 18  1  0  0  0  0
 20 19  1  0  0  0  0
 21 20  1  0  0  0  0
 22 21  1  0  0  0  0
 23 22  1  0  0  0  0
 24 23  1  0  0  0  0
 25 24  1  0  0  0  0
 26 25  1  0  0  0  0
 27 26  1  0  0  0  0
 28 27  1  0  0  0  0
 29 28  1  0  0  0  0
 30 29  1  0  0  0  0
 31 30  1  0  0  0  0
 32 31  1  0  0  0  0
 33 32  1  0  0  0  0
 34 33  1  0  0  0  0
 17 35  1  6  0  0  0
 22 36  1  6  0  0  0
 26 37  1  6  0  0  0
 25 38  1  1  0  0  0
M  END
>  <cdx:fragmentId>
10934

$$$$
