95848.cdx
  Mrv1902 05222410252D          

 16 18  0  0  0  0            999 V2000
    6.1958  -10.0552    0.0000 O   0  0  0  0  0  0  0  0  0  0  0  0
    7.8604   -7.7236    0.0000 C   0  0  0  0  0  0  0  0  0  0  0  0
    7.2092   -7.2170    0.0000 C   0  0  0  0  0  0  0  0  0  0  0  0
    6.4071   -7.4103    0.0000 C   0  0  0  0  0  0  0  0  0  0  0  0
    5.2332   -8.1678    0.0000 C   0  0  0  0  0  0  0  0  0  0  0  0
    6.0582   -8.1579    0.0000 C   0  0  0  0  0  0  0  0  0  0  0  0
    6.8051   -7.8957    0.0000 C   0  0  0  0  0  0  0  0  0  0  0  0
    6.4251   -8.8968    0.0000 C   0  0  0  0  0  0  0  0  0  0  0  0
    7.7999   -9.6686    0.0000 C   0  0  0  0  0  0  0  0  0  0  0  0
    6.9979   -9.8619    0.0000 C   0  0  0  0  0  0  0  0  0  0  0  0
    7.2315   -9.0707    0.0000 C   0  0  0  0  0  0  0  0  0  0  0  0
    7.8703   -8.5486    0.0000 C   0  0  0  0  0  0  0  0  0  0  0  0
    8.6579   -8.7940    0.0000 C   0  0  0  0  0  0  0  0  0  0  0  0
    9.1348   -8.1208    0.0000 C   0  0  0  0  0  0  0  0  0  0  0  0
    8.8873   -6.6716    0.0000 C   0  0  0  0  0  0  0  0  0  0  0  0
    8.6418   -7.4592    0.0000 C   0  0  0  0  0  0  0  0  0  0  0  0
 10  1  1  0  0  0  0
  2  7  1  0  0  0  0
 12  2  1  0  0  0  0
 16  2  1  0  0  0  0
  3  2  1  0  0  0  0
  4  3  1  0  0  0  0
  6  4  2  0  0  0  0
  6  5  1  0  0  0  0
  8  6  1  0  0  0  0
  8  7  1  0  0  0  0
 11  8  1  0  0  0  0
 11  9  1  0  0  0  0
 11 10  1  0  0  0  0
 12 11  1  0  0  0  0
 13 12  1  0  0  0  0
 14 13  1  0  0  0  0
 16 14  1  0  0  0  0
 16 15  1  0  0  0  0
M  END
>  <cdx:fragmentId>
5

$$$$
