95857.cdx
  Mrv1902 05222410222D          

 12 13  0  0  0  0            999 V2000
    6.3351   -7.9047    0.0000 C   0  0  0  0  0  0  0  0  0  0  0  0
    7.0496   -8.3172    0.0000 C   0  0  0  0  0  0  0  0  0  0  0  0
    7.0496   -9.1422    0.0000 C   0  0  0  0  0  0  0  0  0  0  0  0
    6.3351   -9.5547    0.0000 C   0  0  0  0  0  0  0  0  0  0  0  0
    5.6207   -9.1422    0.0000 C   0  0  0  0  0  0  0  0  0  0  0  0
    5.6207   -8.3172    0.0000 C   0  0  0  0  0  0  0  0  0  0  0  0
    5.9995   -8.7301    0.0000 C   0  0  0  0  0  0  0  0  0  0  0  0
    7.7641   -7.9047    0.0000 C   0  0  0  0  0  0  0  0  0  0  0  0
    7.7641   -7.0797    0.0000 O   0  0  0  0  0  0  0  0  0  0  0  0
    8.4785   -8.3172    0.0000 O   0  0  0  0  0  0  0  0  0  0  0  0
    7.8746   -9.1422    0.0000 C   0  0  0  0  0  0  0  0  0  0  0  0
    7.4621   -9.8567    0.0000 C   0  0  0  0  0  0  0  0  0  0  0  0
  1  2  1  0  0  0  0
  2  3  1  0  0  0  0
  3  4  1  0  0  0  0
  4  5  1  0  0  0  0
  5  6  1  0  0  0  0
  1  6  1  0  0  0  0
  1  7  1  0  0  0  0
  7  4  1  0  0  0  0
  8  9  2  0  0  0  0
  8 10  1  0  0  0  0
  2  8  1  0  0  0  0
  3 11  1  0  0  0  0
  3 12  1  0  0  0  0
M  END
>  <cdx:groupId>
39

>  <cdx:fragmentId>
5

$$$$
