95856.cdx
  Mrv1902 05222410232D          

 11 12  0  0  0  0            999 V2000
    7.2933   -7.7296    0.0000 C   0  0  0  0  0  0  0  0  0  0  0  0
    6.5788   -8.1421    0.0000 C   0  0  0  0  0  0  0  0  0  0  0  0
    6.5788   -8.9671    0.0000 C   0  0  0  0  0  0  0  0  0  0  0  0
    7.2933   -9.3796    0.0000 C   0  0  0  0  0  0  0  0  0  0  0  0
    8.0078   -8.9671    0.0000 C   0  0  0  0  0  0  0  0  0  0  0  0
    8.0078   -8.1421    0.0000 C   0  0  0  0  0  0  0  0  0  0  0  0
    7.4759   -8.4490    0.0000 C   0  0  0  0  0  0  0  0  0  0  0  0
    5.8644   -7.7296    0.0000 O   0  0  0  0  0  0  0  0  0  0  0  0
    8.4203   -7.4276    0.0000 C   0  0  0  0  0  0  0  0  0  0  0  0
    8.8328   -8.1421    0.0000 C   0  0  0  0  0  0  0  0  0  0  0  0
    5.8644   -9.3796    0.0000 C   0  0  0  0  0  0  0  0  0  0  0  0
  1  2  1  0  0  0  0
  2  3  1  0  0  0  0
  3  4  1  0  0  0  0
  4  5  1  0  0  0  0
  5  6  1  0  0  0  0
  1  6  1  0  0  0  0
  1  7  1  0  0  0  0
  7  5  1  0  0  0  0
  2  8  1  0  0  0  0
  6  9  1  0  0  0  0
  6 10  1  0  0  0  0
  3 11  1  0  0  0  0
M  END
>  <cdx:groupId>
36

>  <cdx:fragmentId>
5

$$$$
