95855.cdx
  Mrv1902 05222410222D          

 12 11  0  0  0  0            999 V2000
    6.4688   -8.6229    0.0000 C   0  0  0  0  0  0  0  0  0  0  0  0
    5.7543   -9.0354    0.0000 C   0  0  0  0  0  0  0  0  0  0  0  0
    5.0399   -8.6229    0.0000 C   0  0  0  0  0  0  0  0  0  0  0  0
    5.0399   -7.7979    0.0000 C   0  0  0  0  0  0  0  0  0  0  0  0
    6.4688   -7.7979    0.0000 O   0  0  0  0  0  0  0  0  0  0  0  0
    7.1833   -9.0354    0.0000 O   0  0  0  0  0  0  0  0  0  0  0  0
    4.3254   -9.0354    0.0000 C   0  0  0  0  0  0  0  0  0  0  0  0
    7.8977   -8.6229    0.0000 C   0  0  0  0  0  0  0  0  0  0  0  0
    8.6122   -9.0354    0.0000 C   0  0  0  0  0  0  0  0  0  0  0  0
    9.3267   -8.6229    0.0000 C   0  0  0  0  0  0  0  0  0  0  0  0
   10.0412   -9.0354    0.0000 C   0  0  0  0  0  0  0  0  0  0  0  0
    9.3267   -7.7979    0.0000 C   0  0  0  0  0  0  0  0  0  0  0  0
  1  2  1  0  0  0  0
  2  3  1  0  0  0  0
  3  4  1  0  0  0  0
  1  5  2  0  0  0  0
  1  6  1  0  0  0  0
  3  7  1  0  0  0  0
  8  9  1  0  0  0  0
  9 10  1  0  0  0  0
 10 11  2  0  0  0  0
 10 12  1  0  0  0  0
  6  8  1  0  0  0  0
M  END
>  <cdx:groupId>
37

>  <cdx:fragmentId>
5

$$$$
