95858.cdx
  Mrv1902 05222410242D          

 12 12  0  0  0  0            999 V2000
    8.2330   -8.5625    0.0000 C   0  0  0  0  0  0  0  0  0  0  0  0
    7.5185   -8.9750    0.0000 C   0  0  0  0  0  0  0  0  0  0  0  0
    8.9475   -8.9750    0.0000 O   0  0  0  0  0  0  0  0  0  0  0  0
    6.8040   -8.5625    0.0000 C   0  0  0  0  0  0  0  0  0  0  0  0
    6.0896   -8.9750    0.0000 C   0  0  0  0  0  0  0  0  0  0  0  0
    5.3751   -8.5625    0.0000 C   0  0  0  0  0  0  0  0  0  0  0  0
    5.3751   -7.7375    0.0000 C   0  0  0  0  0  0  0  0  0  0  0  0
    6.0896   -7.3250    0.0000 C   0  0  0  0  0  0  0  0  0  0  0  0
    6.8040   -7.7375    0.0000 C   0  0  0  0  0  0  0  0  0  0  0  0
    7.2165   -7.0231    0.0000 C   0  0  0  0  0  0  0  0  0  0  0  0
    7.6290   -7.7375    0.0000 C   0  0  0  0  0  0  0  0  0  0  0  0
    6.0896   -9.8000    0.0000 C   0  0  0  0  0  0  0  0  0  0  0  0
  1  2  1  0  0  0  0
  1  3  2  0  0  0  0
  4  5  2  0  0  0  0
  5  6  1  0  0  0  0
  6  7  1  0  0  0  0
  7  8  1  0  0  0  0
  8  9  1  0  0  0  0
  4  9  1  0  0  0  0
  9 10  1  0  0  0  0
  9 11  1  0  0  0  0
  5 12  1  0  0  0  0
  2  4  1  0  0  0  0
M  END
>  <cdx:groupId>
38

>  <cdx:fragmentId>
11

$$$$
