95850.cdx
  Mrv1902 05222410222D          

 16 17  0  0  0  0            999 V2000
    8.8358   -8.6144    0.0000 C   0  0  0  0  0  0  0  0  0  0  0  0
    8.1213   -9.0269    0.0000 C   0  0  0  0  0  0  0  0  0  0  0  0
    8.1213   -9.8519    0.0000 C   0  0  0  0  0  0  0  0  0  0  0  0
    9.5502   -9.0269    0.0000 O   0  0  0  0  0  0  0  0  0  0  0  0
    6.6924   -9.0269    0.0000 C   0  0  0  0  0  0  0  0  0  0  0  0
    7.4068   -8.6144    0.0000 C   0  0  0  0  0  0  0  0  0  0  0  0
    7.4068   -7.7894    0.0000 C   0  0  0  0  0  0  0  0  0  0  0  0
    6.6924   -7.3769    0.0000 C   0  0  0  0  0  0  0  0  0  0  0  0
    5.9779   -7.7894    0.0000 C   0  0  0  0  0  0  0  0  0  0  0  0
    5.2634   -7.3769    0.0000 C   0  0  0  0  0  0  0  0  0  0  0  0
    4.5490   -7.7894    0.0000 C   0  0  0  0  0  0  0  0  0  0  0  0
    4.5490   -8.6144    0.0000 C   0  0  0  0  0  0  0  0  0  0  0  0
    5.2634   -9.0269    0.0000 C   0  0  0  0  0  0  0  0  0  0  0  0
    5.9779   -8.6144    0.0000 C   0  0  0  0  0  0  0  0  0  0  0  0
    5.2634   -9.8519    0.0000 C   0  0  0  0  0  0  0  0  0  0  0  0
    5.9779   -6.9644    0.0000 C   0  0  0  0  0  0  0  0  0  0  0  0
  1  2  1  0  0  0  0
  2  3  2  0  0  0  0
  1  4  1  0  0  0  0
  5  6  1  0  0  0  0
  6  7  1  0  0  0  0
  7  8  1  0  0  0  0
  8  9  1  0  0  0  0
  9 10  1  0  0  0  0
 10 11  1  0  0  0  0
 11 12  1  0  0  0  0
 12 13  2  0  0  0  0
 13 14  1  0  0  0  0
  5 14  2  0  0  0  0
  9 14  1  0  0  0  0
 13 15  1  0  0  0  0
  9 16  1  0  0  0  0
  2  6  1  0  0  0  0
M  END
>  <cdx:groupId>
51

>  <cdx:fragmentId>
13

$$$$
