95853.cdx
  Mrv1902 05222410212D          

 11 10  0  0  0  0            999 V2000
    6.2734   -9.6516    0.0000 C   0  0  0  0  0  0  0  0  0  0  0  0
    6.2734   -8.8266    0.0000 C   0  0  0  0  0  0  0  0  0  0  0  0
    6.9879   -8.4141    0.0000 C   0  0  0  0  0  0  0  0  0  0  0  0
    7.7024   -8.8266    0.0000 C   0  0  0  0  0  0  0  0  0  0  0  0
    8.4168   -8.4141    0.0000 C   0  0  0  0  0  0  0  0  0  0  0  0
    8.4168   -7.5891    0.0000 C   0  0  0  0  0  0  0  0  0  0  0  0
    5.5590   -9.2391    0.0000 O   0  0  0  0  0  0  0  0  0  0  0  0
    9.1313   -8.8266    0.0000 C   0  0  0  0  0  0  0  0  0  0  0  0
    5.5590   -8.4141    0.0000 C   0  0  0  0  0  0  0  0  0  0  0  0
    6.9879   -7.5891    0.0000 C   0  0  0  0  0  0  0  0  0  0  0  0
    6.2734   -7.1766    0.0000 C   0  0  0  0  0  0  0  0  0  0  0  0
  1  2  1  0  0  0  0
  2  3  1  0  0  0  0
  3  4  1  0  0  0  0
  4  5  2  0  0  0  0
  5  6  1  0  0  0  0
  2  7  1  0  0  0  0
  5  8  1  0  0  0  0
  2  9  1  0  0  0  0
 10 11  2  0  0  0  0
  3 10  1  0  0  0  0
M  END
>  <cdx:groupId>
34

>  <cdx:fragmentId>
5

$$$$
