95868.cdx
  Mrv1902 05222410222D          

  6  5  0  0  0  0            999 V2000
    8.6246   -8.6699    0.0000 C   0  0  0  0  0  0  0  0  0  0  0  0
    7.9101   -9.0824    0.0000 C   0  0  0  0  0  0  0  0  0  0  0  0
    7.1956   -8.6699    0.0000 C   0  0  0  0  0  0  0  0  0  0  0  0
    6.4812   -9.0824    0.0000 C   0  0  0  0  0  0  0  0  0  0  0  0
    5.7667   -8.6699    0.0000 C   0  0  0  0  0  0  0  0  0  0  0  0
    7.1956   -7.8449    0.0000 O   0  0  0  0  0  0  0  0  0  0  0  0
  1  2  2  0  0  0  0
  2  3  1  0  0  0  0
  3  4  1  0  0  0  0
  4  5  1  0  0  0  0
  3  6  1  0  0  0  0
M  END
>  <cdx:groupId>
19

>  <cdx:fragmentId>
5

$$$$
