95861.cdx
  Mrv1902 05222410242D          

 16 16  0  0  0  0            999 V2000
    8.4785   -9.0209    0.0000 C   0  0  0  0  0  0  0  0  0  0  0  0
    7.7641   -8.6084    0.0000 C   0  0  0  0  0  0  0  0  0  0  0  0
    7.0496   -9.0209    0.0000 C   0  0  0  0  0  0  0  0  0  0  0  0
    8.4785   -9.8459    0.0000 O   0  0  0  0  0  0  0  0  0  0  0  0
    9.1930   -8.6084    0.0000 O   0  0  0  0  0  0  0  0  0  0  0  0
    7.7641   -7.7834    0.0000 C   0  0  0  0  0  0  0  0  0  0  0  0
    6.3351   -8.6084    0.0000 C   0  0  0  0  0  0  0  0  0  0  0  0
    5.6207   -9.0209    0.0000 C   0  0  0  0  0  0  0  0  0  0  0  0
    4.9062   -8.6084    0.0000 C   0  0  0  0  0  0  0  0  0  0  0  0
    4.9062   -7.7834    0.0000 C   0  0  0  0  0  0  0  0  0  0  0  0
    5.6207   -7.3709    0.0000 C   0  0  0  0  0  0  0  0  0  0  0  0
    6.3351   -7.7834    0.0000 C   0  0  0  0  0  0  0  0  0  0  0  0
    5.6207   -6.5459    0.0000 C   0  0  0  0  0  0  0  0  0  0  0  0
    5.6207   -9.8459    0.0000 C   0  0  0  0  0  0  0  0  0  0  0  0
    4.9062  -10.2584    0.0000 C   0  0  0  0  0  0  0  0  0  0  0  0
    6.3351  -10.2584    0.0000 C   0  0  0  0  0  0  0  0  0  0  0  0
  1  2  1  0  0  0  0
  2  3  1  0  0  0  0
  1  4  2  0  0  0  0
  1  5  1  0  0  0  0
  2  6  1  0  0  0  0
  7  8  1  0  0  0  0
  8  9  2  0  0  0  0
  9 10  1  0  0  0  0
 10 11  2  0  0  0  0
 11 12  1  0  0  0  0
  7 12  2  0  0  0  0
 11 13  1  0  0  0  0
 14 15  1  0  0  0  0
 14 16  1  0  0  0  0
  8 14  1  0  0  0  0
  3  7  1  0  0  0  0
M  END
>  <cdx:groupId>
50

>  <cdx:fragmentId>
17

$$$$
