95863.cdx
  Mrv1902 05222410262D          

 11 11  0  0  0  0            999 V2000
    9.2729   -7.8143    0.0000 C   0  0  0  0  0  0  0  0  0  0  0  0
    8.6055   -7.3294    0.0000 C   0  0  0  0  0  0  0  0  0  0  0  0
    8.5193   -8.1499    0.0000 C   0  0  0  0  0  0  0  0  0  0  0  0
    5.1172   -7.9425    0.0000 C   0  0  0  0  0  0  0  0  0  0  0  0
    5.8316   -8.3550    0.0000 C   0  0  0  0  0  0  0  0  0  0  0  0
    5.8316   -9.1800    0.0000 C   0  0  0  0  0  0  0  0  0  0  0  0
    6.5461   -7.9425    0.0000 C   0  0  2  0  0  0  0  0  0  0  0  0
    6.6323   -7.1220    0.0000 C   0  0  0  0  0  0  0  0  0  0  0  0
    7.4393   -6.9505    0.0000 C   0  0  0  0  0  0  0  0  0  0  0  0
    7.8518   -7.6650    0.0000 C   0  0  2  0  0  0  0  0  0  0  0  0
    7.2998   -8.2781    0.0000 O   0  0  0  0  0  0  0  0  0  0  0  0
 10  2  1  0  0  0  0
  2  1  2  0  0  0  0
 10  3  1  6  0  0  0
  7  5  1  6  0  0  0
  5  4  1  0  0  0  0
  6  5  2  0  0  0  0
 11  7  1  0  0  0  0
  8  7  1  0  0  0  0
  9  8  1  0  0  0  0
 10  9  1  0  0  0  0
 11 10  1  0  0  0  0
M  END
>  <cdx:groupId>
35

>  <cdx:fragmentId>
5

$$$$
