95866.cdx
  Mrv1902 05222410242D          

 14 13  0  0  0  0            999 V2000
   10.1014   -8.2597    0.0000 C   0  0  0  0  0  0  0  0  0  0  0  0
    9.3855   -8.6696    0.0000 C   0  0  0  0  0  0  0  0  0  0  0  0
    8.6725   -8.2545    0.0000 C   0  0  0  0  0  0  0  0  0  0  0  0
    7.9565   -8.6644    0.0000 C   0  0  0  0  0  0  0  0  0  0  0  0
    7.2436   -8.2493    0.0000 C   0  0  0  0  0  0  0  0  0  0  0  0
    6.5276   -8.6592    0.0000 C   0  0  0  0  0  0  0  0  0  0  0  0
    5.8146   -8.2441    0.0000 C   0  0  0  0  0  0  0  0  0  0  0  0
    5.0987   -8.6540    0.0000 C   0  0  0  0  0  0  0  0  0  0  0  0
    4.3857   -8.2389    0.0000 C   0  0  0  0  0  0  0  0  0  0  0  0
    3.6697   -8.6488    0.0000 C   0  0  0  0  0  0  0  0  0  0  0  0
    2.9568   -8.2338    0.0000 C   0  0  0  0  0  0  0  0  0  0  0  0
    9.3825   -9.4946    0.0000 C   0  0  0  0  0  0  0  0  0  0  0  0
    6.5246   -9.4842    0.0000 C   0  0  0  0  0  0  0  0  0  0  0  0
    3.6667   -9.4738    0.0000 O   0  0  0  0  0  0  0  0  0  0  0  0
  1  2  1  0  0  0  0
  2  3  2  0  0  0  0
  3  4  1  0  0  0  0
  4  5  1  0  0  0  0
  5  6  1  0  0  0  0
  6  7  2  0  0  0  0
  7  8  1  0  0  0  0
  8  9  1  0  0  0  0
  9 10  1  0  0  0  0
 10 11  1  0  0  0  0
  2 12  1  0  0  0  0
  6 13  1  0  0  0  0
 10 14  2  0  0  0  0
M  END
>  <cdx:fragmentId>
3

$$$$
