9586.cdx
  Mrv1902 05222410202D          

 14 13  0  0  0  0            999 V2000
   10.1014   -8.2597    0.0000 C   0  0  0  0  0  0  0  0  0  0  0  0
    9.3855   -8.6696    0.0000 C   0  0  0  0  0  0  0  0  0  0  0  0
    8.6725   -8.2545    0.0000 C   0  0  0  0  0  0  0  0  0  0  0  0
    7.9565   -8.6644    0.0000 C   0  0  0  0  0  0  0  0  0  0  0  0
    7.2436   -8.2493    0.0000 C   0  0  0  0  0  0  0  0  0  0  0  0
    6.5276   -8.6592    0.0000 C   0  0  0  0  0  0  0  0  0  0  0  0
    5.8146   -8.2441    0.0000 C   0  0  0  0  0  0  0  0  0  0  0  0
    9.3825   -9.4946    0.0000 C   0  0  0  0  0  0  0  0  0  0  0  0
    6.5246   -9.4842    0.0000 C   0  0  0  0  0  0  0  0  0  0  0  0
    5.8176   -7.4191    0.0000 C   0  0  0  0  0  0  0  0  0  0  0  0
    5.1046   -7.0040    0.0000 C   0  0  0  0  0  0  0  0  0  0  0  0
    5.1076   -6.1790    0.0000 C   0  0  0  0  0  0  0  0  0  0  0  0
    4.3947   -5.7640    0.0000 C   0  0  0  0  0  0  0  0  0  0  0  0
    5.8236   -5.7691    0.0000 O   0  0  0  0  0  0  0  0  0  0  0  0
  1  2  1  0  0  0  0
  2  3  2  0  0  0  0
  3  4  1  0  0  0  0
  4  5  1  0  0  0  0
  5  6  1  0  0  0  0
  6  7  2  0  0  0  0
  2  8  1  0  0  0  0
  6  9  1  0  0  0  0
  7 10  1  0  0  0  0
 10 11  1  0  0  0  0
 11 12  1  0  0  0  0
 12 13  1  0  0  0  0
 12 14  2  0  0  0  0
M  END
>  <cdx:fragmentId>
97

$$$$
