95860.cdx
  Mrv1902 05222410252D          

 15 17  0  0  0  0            999 V2000
    6.0914   -9.4394    0.0000 C   0  0  0  0  0  0  0  0  0  0  0  0
    6.8058   -9.0269    0.0000 C   0  0  0  0  0  0  0  0  0  0  0  0
    7.4508   -9.5413    0.0000 C   0  0  0  0  0  0  0  0  0  0  0  0
    8.2552   -9.3577    0.0000 C   0  0  0  0  0  0  0  0  0  0  0  0
    8.6131   -8.6144    0.0000 C   0  0  0  0  0  0  0  0  0  0  0  0
    8.2552   -7.8711    0.0000 C   0  0  0  0  0  0  0  0  0  0  0  0
    7.4508   -7.6875    0.0000 C   0  0  0  0  0  0  0  0  0  0  0  0
    6.8058   -8.2019    0.0000 C   0  0  0  0  0  0  0  0  0  0  0  0
    6.0914   -7.7894    0.0000 C   0  0  0  0  0  0  0  0  0  0  0  0
    5.3769   -8.2019    0.0000 C   0  0  0  0  0  0  0  0  0  0  0  0
    5.3769   -9.0269    0.0000 C   0  0  0  0  0  0  0  0  0  0  0  0
    6.0914   -6.9644    0.0000 C   0  0  0  0  0  0  0  0  0  0  0  0
    8.3781   -7.0553    0.0000 C   0  0  0  0  0  0  0  0  0  0  0  0
    9.0231   -7.5697    0.0000 C   0  0  0  0  0  0  0  0  0  0  0  0
    6.8058   -9.8519    0.0000 C   0  0  0  0  0  0  0  0  0  0  0  0
  1  2  1  0  0  0  0
  2  3  1  0  0  0  0
  3  4  1  0  0  0  0
  4  5  1  0  0  0  0
  5  6  1  0  0  0  0
  6  7  1  0  0  0  0
  7  8  1  0  0  0  0
  8  9  1  0  0  0  0
  9 10  2  0  0  0  0
 10 11  1  0  0  0  0
  1 11  1  0  0  0  0
  1  7  1  0  0  0  0
  2  8  1  0  0  0  0
  9 12  1  0  0  0  0
  6 13  1  0  0  0  0
  6 14  1  0  0  0  0
  2 15  1  0  0  0  0
M  END
>  <cdx:groupId>
49

>  <cdx:fragmentId>
5

$$$$
