95869.cdx
  Mrv1902 05222410222D          

 15 17  0  0  0  0            999 V2000
    6.6387   -8.3426    0.0000 C   0  0  2  0  0  0  0  0  0  0  0  0
    6.9256   -7.5691    0.0000 C   0  0  0  0  0  0  0  0  0  0  0  0
    7.7499   -7.6029    0.0000 C   0  0  0  0  0  0  0  0  0  0  0  0
    7.9724   -8.3973    0.0000 C   0  0  0  0  0  0  0  0  0  0  0  0
    7.2857   -8.8545    0.0000 C   0  0  2  0  0  0  0  0  0  0  0  0
    6.9987   -9.6280    0.0000 C   0  0  0  0  0  0  0  0  0  0  0  0
    6.1744   -9.5941    0.0000 C   0  0  0  0  0  0  0  0  0  0  0  0
    5.9519   -8.7997    0.0000 C   0  0  1  0  0  0  0  0  0  0  0  0
    6.4218   -8.6935    0.0000 C   0  0  0  0  0  0  0  0  0  0  0  0
    6.5887   -9.0707    0.0000 C   0  0  0  0  0  0  0  0  0  0  0  0
    6.9942   -9.1463    0.0000 C   0  0  0  0  0  0  0  0  0  0  0  0
    5.1784   -8.5128    0.0000 C   0  0  0  0  0  0  0  0  0  0  0  0
    8.7858   -8.2591    0.0000 C   0  0  0  0  0  0  0  0  0  0  0  0
    8.4988   -9.0326    0.0000 C   0  0  0  0  0  0  0  0  0  0  0  0
    6.4685   -6.8823    0.0000 C   0  0  0  0  0  0  0  0  0  0  0  0
  1  2  1  0  0  0  0
  2  3  2  0  0  0  0
  3  4  1  0  0  0  0
  4  5  1  0  0  0  0
  5  6  1  6  0  0  0
  6  7  1  0  0  0  0
  7  8  1  0  0  0  0
  9 10  1  0  0  0  0
 10 11  1  0  0  0  0
  1  8  1  0  0  0  0
  1  9  1  1  0  0  0
  5 11  1  0  0  0  0
  1  5  1  0  0  0  0
  8 12  1  1  0  0  0
  4 13  1  0  0  0  0
  4 14  1  0  0  0  0
  2 15  1  0  0  0  0
M  END
>  <cdx:fragmentId>
5

$$$$
