95867.cdx
  Mrv1902 05222410232D          

 16 17  0  0  0  0            999 V2000
    8.1179   -9.0209    0.0000 C   0  0  0  0  0  0  0  0  0  0  0  0
    8.8323   -8.6084    0.0000 C   0  0  0  0  0  0  0  0  0  0  0  0
    8.8323   -7.7834    0.0000 C   0  0  0  0  0  0  0  0  0  0  0  0
    8.1179   -7.3709    0.0000 C   0  0  0  0  0  0  0  0  0  0  0  0
    7.4034   -7.7834    0.0000 C   0  0  0  0  0  0  0  0  0  0  0  0
    6.6889   -7.3709    0.0000 C   0  0  0  0  0  0  0  0  0  0  0  0
    5.9745   -7.7834    0.0000 C   0  0  0  0  0  0  0  0  0  0  0  0
    5.9745   -8.6084    0.0000 C   0  0  0  0  0  0  0  0  0  0  0  0
    6.6889   -9.0209    0.0000 C   0  0  0  0  0  0  0  0  0  0  0  0
    7.4034   -8.6084    0.0000 C   0  0  0  0  0  0  0  0  0  0  0  0
    8.8323   -9.4334    0.0000 O   0  0  0  0  0  0  0  0  0  0  0  0
    7.4034  -10.2584    0.0000 C   0  0  0  0  0  0  0  0  0  0  0  0
    8.1179   -9.8459    0.0000 C   0  0  0  0  0  0  0  0  0  0  0  0
    8.8323  -10.2584    0.0000 C   0  0  0  0  0  0  0  0  0  0  0  0
    5.2600   -9.0209    0.0000 C   0  0  0  0  0  0  0  0  0  0  0  0
    8.1179   -6.5459    0.0000 C   0  0  0  0  0  0  0  0  0  0  0  0
  1  2  1  0  0  0  0
  2  3  1  0  0  0  0
  3  4  1  0  0  0  0
  4  5  1  0  0  0  0
  5  6  1  0  0  0  0
  6  7  1  0  0  0  0
  7  8  1  0  0  0  0
  8  9  2  0  0  0  0
  9 10  1  0  0  0  0
  1 10  1  0  0  0  0
  5 10  1  0  0  0  0
  1 11  1  0  0  0  0
 12 13  1  0  0  0  0
 13 14  1  0  0  0  0
  1 13  1  0  0  0  0
  8 15  1  0  0  0  0
  4 16  1  0  0  0  0
M  END
>  <cdx:groupId>
51

>  <cdx:fragmentId>
5

$$$$
