95875.cdx
  Mrv1902 05222410242D          

 39 41  0  0  0  0            999 V2000
    1.5470   -7.8927    0.0000 C   0  0  0  0  0  0  0  0  0  0  0  0
    1.5470   -8.6352    0.0000 C   0  0  0  0  0  0  0  0  0  0  0  0
    2.1900   -9.0065    0.0000 C   0  0  0  0  0  0  0  0  0  0  0  0
    2.8330   -8.6352    0.0000 C   0  0  0  0  0  0  0  0  0  0  0  0
    2.8330   -7.8927    0.0000 C   0  0  0  0  0  0  0  0  0  0  0  0
    2.1900   -7.5215    0.0000 C   0  0  0  0  0  0  0  0  0  0  0  0
    0.9039   -7.5215    0.0000 O   0  0  0  0  0  0  0  0  0  0  0  0
    0.9039   -9.0065    0.0000 O   0  0  0  0  0  0  0  0  0  0  0  0
    3.4760   -7.5215    0.0000 C   0  0  0  0  0  0  0  0  0  0  0  0
    4.1190   -7.8927    0.0000 C   0  0  0  0  0  0  0  0  0  0  0  0
    4.7621   -7.5215    0.0000 C   0  0  0  0  0  0  0  0  0  0  0  0
    5.4051   -7.8927    0.0000 O   0  0  0  0  0  0  0  0  0  0  0  0
    4.7621   -6.7790    0.0000 O   0  0  0  0  0  0  0  0  0  0  0  0
    6.0481   -7.5215    0.0000 C   0  0  0  0  0  0  0  0  0  0  0  0
    6.6911   -7.8927    0.0000 C   0  0  2  0  0  0  0  0  0  0  0  0
    6.6911   -8.6352    0.0000 C   0  0  2  0  0  0  0  0  0  0  0  0
    7.3342   -9.0065    0.0000 C   0  0  1  0  0  0  0  0  0  0  0  0
    7.9772   -8.6352    0.0000 C   0  0  2  0  0  0  0  0  0  0  0  0
    7.9772   -7.8927    0.0000 C   0  0  1  0  0  0  0  0  0  0  0  0
    7.3342   -7.5215    0.0000 O   0  0  0  0  0  0  0  0  0  0  0  0
    8.6202   -7.5215    0.0000 O   0  0  0  0  0  0  0  0  0  0  0  0
    9.2632   -7.1502    0.0000 C   0  0  0  0  0  0  0  0  0  0  0  0
    9.9063   -7.5215    0.0000 C   0  0  0  0  0  0  0  0  0  0  0  0
   10.5493   -7.1502    0.0000 C   0  0  0  0  0  0  0  0  0  0  0  0
   11.2012   -7.5056    0.0000 C   0  0  0  0  0  0  0  0  0  0  0  0
   11.1553   -8.2467    0.0000 C   0  0  0  0  0  0  0  0  0  0  0  0
   11.7741   -8.6570    0.0000 C   0  0  0  0  0  0  0  0  0  0  0  0
   11.8060   -9.3988    0.0000 C   0  0  0  0  0  0  0  0  0  0  0  0
   12.5213   -9.5978    0.0000 C   0  0  0  0  0  0  0  0  0  0  0  0
   12.9316   -8.9790    0.0000 C   0  0  0  0  0  0  0  0  0  0  0  0
   12.4698   -8.3975    0.0000 C   0  0  2  0  0  0  0  0  0  0  0  0
   11.2245   -9.8606    0.0000 O   0  0  0  0  0  0  0  0  0  0  0  0
   12.6688   -7.6822    0.0000 C   0  0  0  0  0  0  0  0  0  0  0  0
   13.3336   -7.3514    0.0000 C   0  0  0  0  0  0  0  0  0  0  0  0
   13.3795   -6.6103    0.0000 O   0  0  0  0  0  0  0  0  0  0  0  0
   13.9524   -7.7617    0.0000 O   0  0  0  0  0  0  0  0  0  0  0  0
    7.3342   -9.7490    0.0000 O   0  0  0  0  0  0  0  0  0  0  0  0
    6.0481   -9.0065    0.0000 O   0  0  0  0  0  0  0  0  0  0  0  0
    8.6202   -9.0065    0.0000 O   0  0  0  0  0  0  0  0  0  0  0  0
  1  2  2  0  0  0  0
  2  3  1  0  0  0  0
  3  4  2  0  0  0  0
  4  5  1  0  0  0  0
  5  6  2  0  0  0  0
  6  1  1  0  0  0  0
  1  7  1  0  0  0  0
  2  8  1  0  0  0  0
  5  9  1  0  0  0  0
  9 10  2  0  0  0  0
 10 11  1  0  0  0  0
 11 12  1  0  0  0  0
 11 13  2  0  0  0  0
 12 14  1  0  0  0  0
 15 14  1  1  0  0  0
 15 16  1  0  0  0  0
 16 17  1  0  0  0  0
 17 18  1  0  0  0  0
 18 19  1  0  0  0  0
 19 20  1  0  0  0  0
 20 15  1  0  0  0  0
 19 21  1  1  0  0  0
 21 22  1  0  0  0  0
 22 23  1  0  0  0  0
 23 24  1  0  0  0  0
 24 25  2  0  0  0  0
 25 26  1  0  0  0  0
 26 27  1  0  0  0  0
 27 28  1  0  0  0  0
 28 29  1  0  0  0  0
 29 30  1  0  0  0  0
 30 31  1  0  0  0  0
 31 27  1  0  0  0  0
 28 32  2  0  0  0  0
 31 33  1  1  0  0  0
 33 34  1  0  0  0  0
 34 35  1  0  0  0  0
 34 36  2  0  0  0  0
 17 37  1  1  0  0  0
 16 38  1  6  0  0  0
 18 39  1  6  0  0  0
M  END
>  <cdx:fragmentId>
5

$$$$
