95873.cdx
  Mrv1902 05222410232D          

 12 12  0  0  0  0            999 V2000
    2.7472   -2.7852    0.0000 C   0  0  0  0  0  0  0  0  0  0  0  0
    3.4617   -3.1977    0.0000 C   0  0  0  0  0  0  0  0  0  0  0  0
    4.1761   -2.7852    0.0000 C   0  0  0  0  0  0  0  0  0  0  0  0
    4.8906   -3.1977    0.0000 C   0  0  0  0  0  0  0  0  0  0  0  0
    4.8906   -4.0227    0.0000 C   0  0  0  0  0  0  0  0  0  0  0  0
    4.1761   -4.4352    0.0000 C   0  0  0  0  0  0  0  0  0  0  0  0
    3.4617   -4.0227    0.0000 C   0  0  0  0  0  0  0  0  0  0  0  0
    5.6051   -4.4352    0.0000 C   0  0  0  0  0  0  0  0  0  0  0  0
    5.6051   -5.2602    0.0000 C   0  0  0  0  0  0  0  0  0  0  0  0
    6.3196   -4.0227    0.0000 C   0  0  0  0  0  0  0  0  0  0  0  0
    4.1761   -1.9602    0.0000 O   0  0  0  0  0  0  0  0  0  0  0  0
    5.6051   -2.7852    0.0000 O   0  0  0  0  0  0  0  0  0  0  0  0
  1  2  1  0  0  0  0
  2  3  1  0  0  0  0
  3  4  2  0  0  0  0
  4  5  1  0  0  0  0
  5  6  2  0  0  0  0
  6  7  1  0  0  0  0
  2  7  2  0  0  0  0
  8  9  1  0  0  0  0
  8 10  1  0  0  0  0
  5  8  1  0  0  0  0
  3 11  1  0  0  0  0
  4 12  1  0  0  0  0
M  END
>  <cdx:groupId>
38

>  <cdx:fragmentId>
5

$$$$
