95870.cdx
  Mrv1902 05222410242D          

 14 14  0  0  0  0            999 V2000
    7.0000   -5.7962    0.0000 C   0  0  0  0  0  0  0  0  0  0  0  0
    6.2855   -6.2087    0.0000 C   0  0  0  0  0  0  0  0  0  0  0  0
    5.5710   -5.7962    0.0000 C   0  0  0  0  0  0  0  0  0  0  0  0
    4.8566   -6.2087    0.0000 C   0  0  0  0  0  0  0  0  0  0  0  0
    4.1421   -5.7962    0.0000 C   0  0  0  0  0  0  0  0  0  0  0  0
    7.0000   -4.9712    0.0000 O   0  0  0  0  0  0  0  0  0  0  0  0
    7.7144   -6.2087    0.0000 O   0  0  0  0  0  0  0  0  0  0  0  0
    8.4289   -5.7962    0.0000 C   0  0  0  0  0  0  0  0  0  0  0  0
    9.1434   -6.2087    0.0000 C   0  0  0  0  0  0  0  0  0  0  0  0
    9.1434   -7.0337    0.0000 C   0  0  0  0  0  0  0  0  0  0  0  0
    9.8579   -7.4462    0.0000 C   0  0  0  0  0  0  0  0  0  0  0  0
   10.5723   -7.0337    0.0000 C   0  0  0  0  0  0  0  0  0  0  0  0
   10.5723   -6.2087    0.0000 C   0  0  0  0  0  0  0  0  0  0  0  0
    9.8579   -5.7962    0.0000 C   0  0  0  0  0  0  0  0  0  0  0  0
  1  2  1  0  0  0  0
  2  3  1  0  0  0  0
  3  4  1  0  0  0  0
  4  5  1  0  0  0  0
  1  6  2  0  0  0  0
  1  7  1  0  0  0  0
  8  9  1  0  0  0  0
  9 10  1  0  0  0  0
 10 11  2  0  0  0  0
 11 12  1  0  0  0  0
 12 13  2  0  0  0  0
 13 14  1  0  0  0  0
  9 14  2  0  0  0  0
  7  8  1  0  0  0  0
M  END
>  <cdx:fragmentId>
19

$$$$
