95874.cdx
  Mrv1902 05222410252D          

 24 25  0  0  0  0            999 V2000
    8.5956   -6.3700    0.0000 C   0  0  0  0  0  0  0  0  0  0  0  0
    7.8813   -6.7829    0.0000 C   0  0  0  0  0  0  0  0  0  0  0  0
    7.1667   -6.3707    0.0000 C   0  0  0  0  0  0  0  0  0  0  0  0
    7.1663   -5.5457    0.0000 C   0  0  0  0  0  0  0  0  0  0  0  0
    7.8806   -5.1329    0.0000 C   0  0  0  0  0  0  0  0  0  0  0  0
    8.5952   -5.5450    0.0000 C   0  0  0  0  0  0  0  0  0  0  0  0
    7.8738   -9.2579    0.0000 O   0  0  0  0  0  0  0  0  0  0  0  0
    6.4409  -10.0760    0.0000 O   0  0  0  0  0  0  0  0  0  0  0  0
    5.0160   -9.2441    0.0000 O   0  0  0  0  0  0  0  0  0  0  0  0
    4.3094   -8.0067    0.0000 O   0  0  0  0  0  0  0  0  0  0  0  0
    5.0239   -7.5942    0.0000 C   0  0  0  0  0  0  0  0  0  0  0  0
    5.7364   -8.0101    0.0000 C   0  0  2  0  0  0  0  0  0  0  0  0
    5.7324   -8.8351    0.0000 C   0  0  2  0  0  0  0  0  0  0  0  0
    6.4449   -9.2510    0.0000 C   0  0  1  0  0  0  0  0  0  0  0  0
    7.1613   -8.8419    0.0000 C   0  0  2  0  0  0  0  0  0  0  0  0
    7.1653   -8.0169    0.0000 C   0  0  1  0  0  0  0  0  0  0  0  0
    6.4528   -7.6010    0.0000 O   0  0  0  0  0  0  0  0  0  0  0  0
    7.8817   -7.6079    0.0000 O   0  0  0  0  0  0  0  0  0  0  0  0
    6.4516   -5.1336    0.0000 O   0  0  0  0  0  0  0  0  0  0  0  0
    7.8802   -4.3079    0.0000 C   0  0  0  0  0  0  0  0  0  0  0  0
    8.5944   -3.8950    0.0000 C   0  0  0  0  0  0  0  0  0  0  0  0
    7.1655   -3.8957    0.0000 O   0  0  0  0  0  0  0  0  0  0  0  0
    9.3095   -5.1322    0.0000 O   0  0  0  0  0  0  0  0  0  0  0  0
    9.3091   -4.3072    0.0000 C   0  0  0  0  0  0  0  0  0  0  0  0
 16 18  1  1  0  0  0
 15  7  1  6  0  0  0
 14  8  1  1  0  0  0
 13  9  1  6  0  0  0
 12 11  1  1  0  0  0
 11 10  1  0  0  0  0
 17 12  1  0  0  0  0
 13 12  1  0  0  0  0
 14 13  1  0  0  0  0
 15 14  1  0  0  0  0
 16 15  1  0  0  0  0
 17 16  1  0  0  0  0
  1  2  1  0  0  0  0
  2  3  2  0  0  0  0
  3  4  1  0  0  0  0
  4  5  2  0  0  0  0
  5  6  1  0  0  0  0
  1  6  2  0  0  0  0
  2 18  1  0  0  0  0
  4 19  1  0  0  0  0
  5 20  1  0  0  0  0
 20 21  1  0  0  0  0
 20 22  2  0  0  0  0
  6 23  1  0  0  0  0
 23 24  1  0  0  0  0
M  END
>  <cdx:fragmentId>
29

$$$$
