95876.cdx
  Mrv1902 05222410252D          

 17 19  0  0  0  0            999 V2000
    4.5631   -6.5175    0.0000 C   0  0  0  0  0  0  0  0  0  0  0  0
    4.5631   -7.3425    0.0000 C   0  0  0  0  0  0  0  0  0  0  0  0
    5.2775   -7.7550    0.0000 C   0  0  0  0  0  0  0  0  0  0  0  0
    5.9920   -7.3425    0.0000 C   0  0  0  0  0  0  0  0  0  0  0  0
    5.9920   -6.5175    0.0000 C   0  0  0  0  0  0  0  0  0  0  0  0
    5.2775   -6.1050    0.0000 C   0  0  0  0  0  0  0  0  0  0  0  0
    6.7065   -7.7550    0.0000 C   0  0  0  0  0  0  0  0  0  0  0  0
    7.4209   -7.3425    0.0000 C   0  0  0  0  0  0  0  0  0  0  0  0
    7.4209   -6.5175    0.0000 C   0  0  0  0  0  0  0  0  0  0  0  0
    6.7065   -6.1050    0.0000 C   0  0  0  0  0  0  0  0  0  0  0  0
    8.2056   -7.5974    0.0000 C   0  0  0  0  0  0  0  0  0  0  0  0
    8.6905   -6.9300    0.0000 C   0  0  0  0  0  0  0  0  0  0  0  0
    8.2056   -6.2626    0.0000 O   0  0  0  0  0  0  0  0  0  0  0  0
    5.2775   -8.5800    0.0000 C   0  0  0  0  0  0  0  0  0  0  0  0
    6.7065   -8.5800    0.0000 O   0  0  0  0  0  0  0  0  0  0  0  0
    8.4605   -8.3821    0.0000 C   0  0  0  0  0  0  0  0  0  0  0  0
    5.9920   -5.6925    0.0000 C   0  0  0  0  0  0  0  0  0  0  0  0
  1  2  1  0  0  0  0
  2  3  1  0  0  0  0
  3  4  2  0  0  0  0
  4  5  1  0  0  0  0
  5  6  1  0  0  0  0
  6  1  2  0  0  0  0
  4  7  1  0  0  0  0
  7  8  1  0  0  0  0
  8  9  2  0  0  0  0
  9 10  1  0  0  0  0
 10  5  1  0  0  0  0
  8 11  1  0  0  0  0
 11 12  2  0  0  0  0
 12 13  1  0  0  0  0
 13  9  1  0  0  0  0
  3 14  1  0  0  0  0
  7 15  2  0  0  0  0
 11 16  1  0  0  0  0
  5 17  1  0  0  0  0
M  END
>  <cdx:fragmentId>
5

$$$$
