95871.cdx
  Mrv1902 05222410242D          

 10 11  0  0  0  0            999 V2000
    7.1311   -7.8029    0.0000 C   0  0  0  0  0  0  0  0  0  0  0  0
    7.9157   -7.5480    0.0000 C   0  0  0  0  0  0  0  0  0  0  0  0
    8.4007   -8.2154    0.0000 C   0  0  0  0  0  0  0  0  0  0  0  0
    7.9157   -8.8829    0.0000 C   0  0  0  0  0  0  0  0  0  0  0  0
    7.1311   -8.6279    0.0000 C   0  0  0  0  0  0  0  0  0  0  0  0
    6.4166   -8.2154    0.0000 C   0  0  0  0  0  0  0  0  0  0  0  0
    7.2805  -10.0490    0.0000 C   0  0  0  0  0  0  0  0  0  0  0  0
    6.7956   -9.3816    0.0000 C   0  0  0  0  0  0  0  0  0  0  0  0
    5.9751   -9.4678    0.0000 C   0  0  0  0  0  0  0  0  0  0  0  0
    8.1707   -6.7634    0.0000 C   0  0  0  0  0  0  0  0  0  0  0  0
  1  2  2  0  0  0  0
  2  3  1  0  0  0  0
  3  4  2  0  0  0  0
  4  5  1  0  0  0  0
  5  6  1  0  0  0  0
  1  6  1  0  0  0  0
  1  5  1  0  0  0  0
  7  8  1  0  0  0  0
  8  9  1  0  0  0  0
  5  8  1  0  0  0  0
  2 10  1  0  0  0  0
M  END
>  <cdx:groupId>
33

>  <cdx:fragmentId>
5

$$$$
