95878.cdx
  Mrv1902 05222410222D          

  7  6  0  0  0  0            999 V2000
    6.0888   -7.5488    0.0000 O   0  0  0  0  0  0  0  0  0  0  0  0
    6.8032   -7.1362    0.0000 C   0  0  0  0  0  0  0  0  0  0  0  0
    7.5177   -7.5488    0.0000 C   0  0  2  0  0  0  0  0  0  0  0  0
    8.2322   -7.1362    0.0000 C   0  0  0  0  0  0  0  0  0  0  0  0
    8.9467   -7.5488    0.0000 O   0  0  0  0  0  0  0  0  0  0  0  0
    7.5177   -8.3737    0.0000 O   0  0  0  0  0  0  0  0  0  0  0  0
    8.2322   -6.3113    0.0000 O   0  0  0  0  0  0  0  0  0  0  0  0
  1  2  1  0  0  0  0
  2  3  1  0  0  0  0
  3  4  1  0  0  0  0
  4  5  1  0  0  0  0
  3  6  1  6  0  0  0
  4  7  2  0  0  0  0
M  END
>  <cdx:fragmentId>
3

$$$$
