95877.cdx
  Mrv1902 05222410262D          

 34 37  0  0  0  0            999 V2000
    8.3037   -8.3392    0.0000 O   0  0  0  0  0  0  0  0  0  0  0  0
    9.5513   -7.6425    0.0000 O   0  0  0  0  0  0  0  0  0  0  0  0
    8.7264   -7.6307    0.0000 C   0  0  2  0  0  0  0  0  0  0  0  0
    8.3241   -6.9104    0.0000 C   0  0  1  0  0  0  0  0  0  0  0  0
    8.7468   -6.2019    0.0000 C   0  0  2  0  0  0  0  0  0  0  0  0
    9.5717   -6.2137    0.0000 C   0  0  1  0  0  0  0  0  0  0  0  0
    9.9740   -6.9340    0.0000 C   0  0  1  0  0  0  0  0  0  0  0  0
   10.7989   -6.9458    0.0000 C   0  0  0  0  0  0  0  0  0  0  0  0
   11.2215   -6.2373    0.0000 O   0  0  0  0  0  0  0  0  0  0  0  0
    9.9944   -5.5052    0.0000 O   0  0  0  0  0  0  0  0  0  0  0  0
    8.3445   -5.4816    0.0000 O   0  0  0  0  0  0  0  0  0  0  0  0
    7.4992   -6.8986    0.0000 O   0  0  0  0  0  0  0  0  0  0  0  0
    5.8086   -9.7326    0.0000 O   0  0  0  0  0  0  0  0  0  0  0  0
    1.3634   -3.2382    0.0000 C   0  0  0  0  0  0  0  0  0  0  0  0
    2.1883   -3.2500    0.0000 O   0  0  0  0  0  0  0  0  0  0  0  0
    2.5701   -5.3991    0.0000 C   0  0  0  0  0  0  0  0  0  0  0  0
    2.1679   -4.6788    0.0000 C   0  0  0  0  0  0  0  0  0  0  0  0
    2.5905   -3.9703    0.0000 C   0  0  0  0  0  0  0  0  0  0  0  0
    3.4155   -3.9821    0.0000 C   0  0  0  0  0  0  0  0  0  0  0  0
    3.8177   -4.7024    0.0000 C   0  0  0  0  0  0  0  0  0  0  0  0
    3.3950   -5.4109    0.0000 C   0  0  0  0  0  0  0  0  0  0  0  0
    3.7973   -6.1312    0.0000 C   0  0  0  0  0  0  0  0  0  0  0  0
    4.6222   -6.1430    0.0000 C   0  0  0  0  0  0  0  0  0  0  0  0
    4.5814   -9.0006    0.0000 O   0  0  0  0  0  0  0  0  0  0  0  0
    5.0041   -8.2921    0.0000 C   0  0  0  0  0  0  0  0  0  0  0  0
    5.8290   -8.3038    0.0000 C   0  0  0  0  0  0  0  0  0  0  0  0
    6.2312   -9.0241    0.0000 C   0  0  0  0  0  0  0  0  0  0  0  0
    7.0561   -9.0359    0.0000 C   0  0  0  0  0  0  0  0  0  0  0  0
    7.4788   -8.3274    0.0000 C   0  0  0  0  0  0  0  0  0  0  0  0
    7.0766   -7.6071    0.0000 C   0  0  0  0  0  0  0  0  0  0  0  0
    6.2516   -7.5953    0.0000 C   0  0  0  0  0  0  0  0  0  0  0  0
    5.8494   -6.8750    0.0000 C   0  0  0  0  0  0  0  0  0  0  0  0
    5.0245   -6.8633    0.0000 C   0  0  0  0  0  0  0  0  0  0  0  0
    4.6018   -7.5718    0.0000 O   0  0  0  0  0  0  0  0  0  0  0  0
 27 13  1  0  0  0  0
 33 23  1  0  0  0  0
 22 21  1  0  0  0  0
 18 15  1  0  0  0  0
 15 14  1  0  0  0  0
 21 16  2  0  0  0  0
 17 16  1  0  0  0  0
 18 17  2  0  0  0  0
 19 18  1  0  0  0  0
 20 19  2  0  0  0  0
 21 20  1  0  0  0  0
 23 22  1  0  0  0  0
 29  1  1  0  0  0  0
 25 24  2  0  0  0  0
 34 25  1  0  0  0  0
 26 25  1  0  0  0  0
 31 26  2  0  0  0  0
 27 26  1  0  0  0  0
 28 27  2  0  0  0  0
 29 28  1  0  0  0  0
 30 29  2  0  0  0  0
 31 30  1  0  0  0  0
 32 31  1  0  0  0  0
 33 32  1  0  0  0  0
 34 33  1  0  0  0  0
  2  3  1  0  0  0  0
  3  4  1  0  0  0  0
  4  5  1  0  0  0  0
  5  6  1  0  0  0  0
  6  7  1  0  0  0  0
  2  7  1  0  0  0  0
  8  9  1  0  0  0  0
  7  8  1  1  0  0  0
  6 10  1  6  0  0  0
  5 11  1  1  0  0  0
  4 12  1  6  0  0  0
  3  1  1  1  0  0  0
M  END
>  <cdx:groupId>
107

>  <cdx:fragmentId>
29

$$$$
