95888.cdx
  Mrv1902 05222410262D          

 15 17  0  0  0  0            999 V2000
    6.6795   -8.4609    0.0000 C   0  0  0  0  0  0  0  0  0  0  0  0
    7.3685   -8.0458    0.0000 C   0  0  0  0  0  0  0  0  0  0  0  0
    7.3635   -7.2415    0.0000 C   0  0  0  0  0  0  0  0  0  0  0  0
    6.6694   -6.8349    0.0000 C   0  0  0  0  0  0  0  0  0  0  0  0
    5.9650   -7.2234    0.0000 C   0  0  0  0  0  0  0  0  0  0  0  0
    5.2506   -7.6359    0.0000 C   0  0  0  0  0  0  0  0  0  0  0  0
    5.2506   -8.4609    0.0000 C   0  0  0  0  0  0  0  0  0  0  0  0
    5.9650   -8.8734    0.0000 C   0  0  0  0  0  0  0  0  0  0  0  0
    6.1084   -7.5080    0.0000 C   0  0  0  0  0  0  0  0  0  0  0  0
    6.6795   -7.6359    0.0000 C   0  0  0  0  0  0  0  0  0  0  0  0
    7.9170   -9.1754    0.0000 C   0  0  0  0  0  0  0  0  0  0  0  0
    7.0920   -9.1754    0.0000 C   0  0  0  0  0  0  0  0  0  0  0  0
    8.3295   -8.4609    0.0000 O   0  0  0  0  0  0  0  0  0  0  0  0
    8.3295   -9.8899    0.0000 N   0  0  0  0  0  0  0  0  0  0  0  0
    9.1545   -9.8899    0.0000 C   0  0  0  0  0  0  0  0  0  0  0  0
  1  2  1  0  0  0  0
  2  3  1  0  0  0  0
  3  4  1  0  0  0  0
  4  5  1  0  0  0  0
  5  6  1  0  0  0  0
  6  7  1  0  0  0  0
  7  8  1  0  0  0  0
  1  8  1  0  0  0  0
  7  9  1  0  0  0  0
  3  9  1  0  0  0  0
  5 10  1  0  0  0  0
  1 10  1  0  0  0  0
 11 12  1  0  0  0  0
 11 13  2  0  0  0  0
 11 14  1  0  0  0  0
  1 12  1  0  0  0  0
 14 15  1  0  0  0  0
M  END
>  <cdx:groupId>
49

>  <cdx:fragmentId>
5

$$$$
