95889.cdx
  Mrv1902 05222410252D          

 25 27  0  0  0  0            999 V2000
    7.7606   -8.2104    0.0000 C   0  0  0  0  0  0  0  0  0  0  0  0
    7.7606   -9.0354    0.0000 C   0  0  0  0  0  0  0  0  0  0  0  0
    7.0462   -9.4479    0.0000 C   0  0  0  0  0  0  0  0  0  0  0  0
    7.0462  -10.2729    0.0000 O   0  0  0  0  0  0  0  0  0  0  0  0
    6.3317   -9.0354    0.0000 C   0  0  0  0  0  0  0  0  0  0  0  0
    5.6172   -9.4479    0.0000 C   0  0  0  0  0  0  0  0  0  0  0  0
    4.9028   -9.0354    0.0000 C   0  0  0  0  0  0  0  0  0  0  0  0
    4.9028   -8.2104    0.0000 C   0  0  0  0  0  0  0  0  0  0  0  0
    5.6172   -7.7979    0.0000 C   0  0  0  0  0  0  0  0  0  0  0  0
    6.3317   -8.2104    0.0000 C   0  0  0  0  0  0  0  0  0  0  0  0
    7.0462   -7.7979    0.0000 O   0  0  0  0  0  0  0  0  0  0  0  0
    8.4751   -7.7979    0.0000 C   0  0  0  0  0  0  0  0  0  0  0  0
    8.4751   -6.9729    0.0000 C   0  0  0  0  0  0  0  0  0  0  0  0
    9.1896   -6.5604    0.0000 C   0  0  0  0  0  0  0  0  0  0  0  0
    9.9040   -6.9729    0.0000 C   0  0  0  0  0  0  0  0  0  0  0  0
    9.9040   -7.7979    0.0000 C   0  0  0  0  0  0  0  0  0  0  0  0
    9.1896   -8.2104    0.0000 C   0  0  0  0  0  0  0  0  0  0  0  0
    4.1883   -7.7979    0.0000 O   0  0  0  0  0  0  0  0  0  0  0  0
    3.4738   -8.2104    0.0000 C   0  0  0  0  0  0  0  0  0  0  0  0
    4.1883   -9.4479    0.0000 O   0  0  0  0  0  0  0  0  0  0  0  0
    3.4738   -9.0354    0.0000 C   0  0  0  0  0  0  0  0  0  0  0  0
    8.4751   -9.4479    0.0000 O   0  0  0  0  0  0  0  0  0  0  0  0
    9.1896   -9.0354    0.0000 C   0  0  0  0  0  0  0  0  0  0  0  0
   10.6185   -6.5604    0.0000 O   0  0  0  0  0  0  0  0  0  0  0  0
    5.6172  -10.2729    0.0000 O   0  0  0  0  0  0  0  0  0  0  0  0
  1  2  2  0  0  0  0
  2  3  1  0  0  0  0
  3  4  2  0  0  0  0
  3  5  1  0  0  0  0
  5  6  1  0  0  0  0
  6  7  2  0  0  0  0
  7  8  1  0  0  0  0
  8  9  2  0  0  0  0
  9 10  1  0  0  0  0
  5 10  2  0  0  0  0
 10 11  1  0  0  0  0
  1 11  1  0  0  0  0
  1 12  1  0  0  0  0
 12 13  1  0  0  0  0
 13 14  2  0  0  0  0
 14 15  1  0  0  0  0
 15 16  2  0  0  0  0
 16 17  1  0  0  0  0
 12 17  2  0  0  0  0
 18 19  1  0  0  0  0
  8 18  1  0  0  0  0
 20 21  1  0  0  0  0
  7 20  1  0  0  0  0
 22 23  1  0  0  0  0
  2 22  1  0  0  0  0
 15 24  1  0  0  0  0
  6 25  1  0  0  0  0
M  END
>  <cdx:groupId>
79

>  <cdx:fragmentId>
5

$$$$
