95887.cdx
  Mrv1902 05222410222D          

 15 16  0  0  0  0            999 V2000
    6.0946   -9.2045    0.0000 C   0  0  0  0  0  0  0  0  0  0  0  0
    6.7835   -8.7894    0.0000 C   0  0  0  0  0  0  0  0  0  0  0  0
    6.7785   -7.9851    0.0000 C   0  0  0  0  0  0  0  0  0  0  0  0
    6.0844   -7.5785    0.0000 C   0  0  0  0  0  0  0  0  0  0  0  0
    5.3801   -7.9670    0.0000 C   0  0  0  0  0  0  0  0  0  0  0  0
    4.6656   -8.3795    0.0000 C   0  0  0  0  0  0  0  0  0  0  0  0
    4.6656   -9.2045    0.0000 C   0  0  0  0  0  0  0  0  0  0  0  0
    5.3801   -9.6170    0.0000 C   0  0  0  0  0  0  0  0  0  0  0  0
    6.0946   -8.3795    0.0000 B   0  0  0  0  0  0  0  0  0  0  0  0
    6.9161   -7.6901    0.0000 C   0  0  0  0  0  0  0  0  0  0  0  0
    7.6914   -7.9723    0.0000 C   0  0  0  0  0  0  0  0  0  0  0  0
    8.3234   -7.4420    0.0000 C   0  0  0  0  0  0  0  0  0  0  0  0
    9.0986   -7.7242    0.0000 N   0  0  0  0  0  0  0  0  0  0  0  0
    9.7306   -7.1939    0.0000 C   0  0  0  0  0  0  0  0  0  0  0  0
    9.2419   -8.5366    0.0000 C   0  0  0  0  0  0  0  0  0  0  0  0
  1  2  1  0  0  0  0
  2  3  1  0  0  0  0
  3  4  1  0  0  0  0
  4  5  1  0  0  0  0
  5  6  1  0  0  0  0
  6  7  1  0  0  0  0
  7  8  1  0  0  0  0
  1  8  1  0  0  0  0
  1  9  1  0  0  0  0
  9  5  1  0  0  0  0
 10 11  1  0  0  0  0
 11 12  1  0  0  0  0
 13 14  1  0  0  0  0
 13 15  1  0  0  0  0
 12 13  1  0  0  0  0
  9 10  1  0  0  0  0
M  END
>  <cdx:groupId>
48

>  <cdx:fragmentId>
5

$$$$
