95886.cdx
  Mrv1902 05222410212D          

  6  5  0  0  0  0            999 V2000
    8.0119   -7.6578    0.0000 C   0  0  0  0  0  0  0  0  0  0  0  0
    8.7220   -8.0778    0.0000 C   0  0  0  0  0  0  0  0  0  0  0  0
    9.4321   -8.4978    0.0000 N   0  0  0  0  0  0  0  0  0  0  0  0
    6.5831   -7.6427    0.0000 N   0  0  0  0  0  0  0  0  0  0  0  0
    7.2932   -8.0627    0.0000 C   0  0  0  0  0  0  0  0  0  0  0  0
    7.2844   -8.8877    0.0000 O   0  0  0  0  0  0  0  0  0  0  0  0
  1  2  1  0  0  0  0
  5  4  1  0  0  0  0
  5  1  1  0  0  0  0
  2  3  3  0  0  0  0
  6  5  2  0  0  0  0
M  END
>  <cdx:fragmentId>
3

$$$$
