95883.cdx
  Mrv1902 05222410222D          

 13 13  0  0  0  0            999 V2000
    4.0018   -8.4562    0.0000 C   0  0  0  0  0  0  0  0  0  0  0  0
    4.7163   -8.8687    0.0000 C   0  0  0  0  0  0  0  0  0  0  0  0
    5.4308   -9.2812    0.0000 C   0  0  0  0  0  0  0  0  0  0  0  0
    6.1453   -8.8687    0.0000 C   0  0  0  0  0  0  0  0  0  0  0  0
    6.8597   -9.2813    0.0000 C   0  0  0  0  0  0  0  0  0  0  0  0
    7.5742   -8.8688    0.0000 O   0  0  0  0  0  0  0  0  0  0  0  0
    8.2887   -9.2813    0.0000 C   0  0  0  0  0  0  0  0  0  0  0  0
    9.0031   -8.8688    0.0000 C   0  0  0  0  0  0  0  0  0  0  0  0
    9.0031   -8.0437    0.0000 C   0  0  0  0  0  0  0  0  0  0  0  0
    9.7176   -7.6313    0.0000 C   0  0  0  0  0  0  0  0  0  0  0  0
   10.4321   -8.0437    0.0000 C   0  0  0  0  0  0  0  0  0  0  0  0
   10.4321   -8.8688    0.0000 C   0  0  0  0  0  0  0  0  0  0  0  0
    9.7176   -9.2813    0.0000 C   0  0  0  0  0  0  0  0  0  0  0  0
  1  2  3  0  0  0  0
  2  3  1  0  0  0  0
  3  4  1  0  0  0  0
  4  5  1  0  0  0  0
  7  8  1  0  0  0  0
  8  9  1  0  0  0  0
  9 10  2  0  0  0  0
 10 11  1  0  0  0  0
 11 12  2  0  0  0  0
 12 13  1  0  0  0  0
  8 13  2  0  0  0  0
  6  7  1  0  0  0  0
  5  6  1  0  0  0  0
M  END
>  <cdx:fragmentId>
17

$$$$
