95882.cdx
  Mrv1902 05222410222D          

 34 38  0  0  0  0            999 V2000
    6.1718   -6.4350    0.0000 C   0  0  0  0  0  0  0  0  0  0  0  0
    6.1718   -7.2600    0.0000 C   0  0  0  0  0  0  0  0  0  0  0  0
    6.8863   -7.6725    0.0000 C   0  0  0  0  0  0  0  0  0  0  0  0
    7.6007   -7.2600    0.0000 C   0  0  0  0  0  0  0  0  0  0  0  0
    7.6007   -6.4350    0.0000 C   0  0  0  0  0  0  0  0  0  0  0  0
    6.8863   -6.0225    0.0000 C   0  0  0  0  0  0  0  0  0  0  0  0
    8.3152   -7.6725    0.0000 C   0  0  1  0  0  0  0  0  0  0  0  0
    9.0297   -7.2600    0.0000 C   0  0  1  0  0  0  0  0  0  0  0  0
    9.0297   -6.4350    0.0000 C   0  0  0  0  0  0  0  0  0  0  0  0
    8.3152   -6.0225    0.0000 O   0  0  0  0  0  0  0  0  0  0  0  0
    5.4573   -6.0225    0.0000 O   0  0  0  0  0  0  0  0  0  0  0  0
    4.7429   -6.4350    0.0000 C   0  0  2  0  0  0  0  0  0  0  0  0
    4.0284   -6.0225    0.0000 O   0  0  0  0  0  0  0  0  0  0  0  0
    3.3139   -6.4350    0.0000 C   0  0  1  0  0  0  0  0  0  0  0  0
    3.3139   -7.2600    0.0000 C   0  0  2  0  0  0  0  0  0  0  0  0
    4.0284   -7.6725    0.0000 C   0  0  1  0  0  0  0  0  0  0  0  0
    4.7429   -7.2600    0.0000 C   0  0  1  0  0  0  0  0  0  0  0  0
    2.5994   -6.0225    0.0000 C   0  0  0  0  0  0  0  0  0  0  0  0
    4.0284   -8.4975    0.0000 O   0  0  0  0  0  0  0  0  0  0  0  0
    2.5994   -7.6725    0.0000 O   0  0  0  0  0  0  0  0  0  0  0  0
    5.4573   -7.6725    0.0000 O   0  0  0  0  0  0  0  0  0  0  0  0
    1.8850   -6.4350    0.0000 O   0  0  0  0  0  0  0  0  0  0  0  0
    7.6007   -8.0850    0.0000 H   0  0  0  0  0  0  0  0  0  0  0  0
    9.7442   -6.8475    0.0000 H   0  0  0  0  0  0  0  0  0  0  0  0
    8.4867   -8.4795    0.0000 O   0  0  0  0  0  0  0  0  0  0  0  0
    9.3072   -8.5657    0.0000 C   0  0  0  0  0  0  0  0  0  0  0  0
    9.6428   -7.8120    0.0000 C   0  0  0  0  0  0  0  0  0  0  0  0
    9.7921   -9.2331    0.0000 C   0  0  0  0  0  0  0  0  0  0  0  0
   10.6126   -9.1469    0.0000 C   0  0  0  0  0  0  0  0  0  0  0  0
   10.9482   -8.3932    0.0000 C   0  0  0  0  0  0  0  0  0  0  0  0
   10.4633   -7.7258    0.0000 C   0  0  0  0  0  0  0  0  0  0  0  0
   11.0976   -9.8143    0.0000 O   0  0  0  0  0  0  0  0  0  0  0  0
    9.4566   -9.9868    0.0000 O   0  0  0  0  0  0  0  0  0  0  0  0
   11.9180   -9.7281    0.0000 C   0  0  0  0  0  0  0  0  0  0  0  0
  1  2  2  0  0  0  0
  2  3  1  0  0  0  0
  3  4  2  0  0  0  0
  4  5  1  0  0  0  0
  5  6  2  0  0  0  0
  6  1  1  0  0  0  0
  4  7  1  0  0  0  0
  7  8  1  0  0  0  0
  8  9  1  0  0  0  0
  9 10  1  0  0  0  0
 10  5  1  0  0  0  0
  1 11  1  0  0  0  0
 12 11  1  1  0  0  0
 12 13  1  0  0  0  0
 13 14  1  0  0  0  0
 14 15  1  0  0  0  0
 15 16  1  0  0  0  0
 16 17  1  0  0  0  0
 17 12  1  0  0  0  0
 14 18  1  1  0  0  0
 16 19  1  1  0  0  0
 15 20  1  6  0  0  0
 17 21  1  6  0  0  0
 18 22  1  0  0  0  0
  7 23  1  6  0  0  0
  8 24  1  6  0  0  0
  7 25  1  0  0  0  0
 25 26  1  0  0  0  0
 26 27  2  0  0  0  0
 27  8  1  0  0  0  0
 26 28  1  0  0  0  0
 28 29  2  0  0  0  0
 29 30  1  0  0  0  0
 30 31  2  0  0  0  0
 31 27  1  0  0  0  0
 29 32  1  0  0  0  0
 28 33  1  0  0  0  0
 32 34  1  0  0  0  0
M  END
>  <cdx:fragmentId>
5

$$$$
