95881.cdx
  Mrv1902 05222410232D          

 40 44  0  0  0  0            999 V2000
    7.6706   -7.0400    0.0000 C   0  0  0  0  0  0  0  0  0  0  0  0
    7.6706   -7.8650    0.0000 C   0  0  0  0  0  0  0  0  0  0  0  0
    8.3850   -8.2775    0.0000 C   0  0  0  0  0  0  0  0  0  0  0  0
    9.0995   -7.8650    0.0000 C   0  0  0  0  0  0  0  0  0  0  0  0
    9.0995   -7.0400    0.0000 C   0  0  0  0  0  0  0  0  0  0  0  0
    8.3850   -6.6275    0.0000 C   0  0  0  0  0  0  0  0  0  0  0  0
    9.8140   -8.2775    0.0000 C   0  0  1  0  0  0  0  0  0  0  0  0
   10.5284   -7.8650    0.0000 C   0  0  1  0  0  0  0  0  0  0  0  0
   10.5284   -7.0400    0.0000 C   0  0  0  0  0  0  0  0  0  0  0  0
    9.8140   -6.6275    0.0000 O   0  0  0  0  0  0  0  0  0  0  0  0
    6.9561   -6.6275    0.0000 O   0  0  0  0  0  0  0  0  0  0  0  0
    6.2416   -7.0400    0.0000 C   0  0  2  0  0  0  0  0  0  0  0  0
    5.5271   -6.6275    0.0000 O   0  0  0  0  0  0  0  0  0  0  0  0
    4.8127   -7.0400    0.0000 C   0  0  1  0  0  0  0  0  0  0  0  0
    4.8127   -7.8650    0.0000 C   0  0  2  0  0  0  0  0  0  0  0  0
    5.5271   -8.2775    0.0000 C   0  0  1  0  0  0  0  0  0  0  0  0
    6.2416   -7.8650    0.0000 C   0  0  1  0  0  0  0  0  0  0  0  0
    4.0982   -6.6275    0.0000 C   0  0  0  0  0  0  0  0  0  0  0  0
    5.5271   -9.1025    0.0000 O   0  0  0  0  0  0  0  0  0  0  0  0
    4.0982   -8.2775    0.0000 O   0  0  0  0  0  0  0  0  0  0  0  0
    6.9561   -8.2775    0.0000 O   0  0  0  0  0  0  0  0  0  0  0  0
    3.3837   -7.0400    0.0000 O   0  0  0  0  0  0  0  0  0  0  0  0
    9.0995   -8.6900    0.0000 H   0  0  0  0  0  0  0  0  0  0  0  0
   11.2429   -7.4525    0.0000 H   0  0  0  0  0  0  0  0  0  0  0  0
    2.6693   -6.6275    0.0000 C   0  0  0  0  0  0  0  0  0  0  0  0
    1.9548   -7.0400    0.0000 C   0  0  0  0  0  0  0  0  0  0  0  0
    1.2403   -6.6275    0.0000 C   0  0  0  0  0  0  0  0  0  0  0  0
    0.5258   -7.0400    0.0000 O   0  0  0  0  0  0  0  0  0  0  0  0
    1.2403   -5.8025    0.0000 O   0  0  0  0  0  0  0  0  0  0  0  0
    2.6693   -5.8025    0.0000 O   0  0  0  0  0  0  0  0  0  0  0  0
    9.9855   -9.0845    0.0000 O   0  0  0  0  0  0  0  0  0  0  0  0
   10.8060   -9.1707    0.0000 C   0  0  0  0  0  0  0  0  0  0  0  0
   11.1415   -8.4170    0.0000 C   0  0  0  0  0  0  0  0  0  0  0  0
   11.2909   -9.8381    0.0000 C   0  0  0  0  0  0  0  0  0  0  0  0
   12.1114   -9.7519    0.0000 C   0  0  0  0  0  0  0  0  0  0  0  0
   12.4469   -8.9982    0.0000 C   0  0  0  0  0  0  0  0  0  0  0  0
   11.9620   -8.3308    0.0000 C   0  0  0  0  0  0  0  0  0  0  0  0
   10.9553  -10.5918    0.0000 O   0  0  0  0  0  0  0  0  0  0  0  0
   12.5963  -10.4193    0.0000 O   0  0  0  0  0  0  0  0  0  0  0  0
   13.4168  -10.3331    0.0000 C   0  0  0  0  0  0  0  0  0  0  0  0
  1  2  2  0  0  0  0
  2  3  1  0  0  0  0
  3  4  2  0  0  0  0
  4  5  1  0  0  0  0
  5  6  2  0  0  0  0
  6  1  1  0  0  0  0
  4  7  1  0  0  0  0
  7  8  1  0  0  0  0
  8  9  1  0  0  0  0
  9 10  1  0  0  0  0
 10  5  1  0  0  0  0
  1 11  1  0  0  0  0
 12 11  1  1  0  0  0
 12 13  1  0  0  0  0
 13 14  1  0  0  0  0
 14 15  1  0  0  0  0
 15 16  1  0  0  0  0
 16 17  1  0  0  0  0
 17 12  1  0  0  0  0
 14 18  1  1  0  0  0
 16 19  1  1  0  0  0
 15 20  1  6  0  0  0
 17 21  1  6  0  0  0
 18 22  1  0  0  0  0
  7 23  1  6  0  0  0
  8 24  1  6  0  0  0
 22 25  1  0  0  0  0
 25 26  1  0  0  0  0
 26 27  1  0  0  0  0
 27 28  1  0  0  0  0
 27 29  2  0  0  0  0
 25 30  2  0  0  0  0
  7 31  1  0  0  0  0
 31 32  1  0  0  0  0
 32 33  2  0  0  0  0
 33  8  1  0  0  0  0
 32 34  1  0  0  0  0
 34 35  2  0  0  0  0
 35 36  1  0  0  0  0
 36 37  2  0  0  0  0
 37 33  1  0  0  0  0
 34 38  1  0  0  0  0
 35 39  1  0  0  0  0
 39 40  1  0  0  0  0
M  END
>  <cdx:fragmentId>
5

$$$$
