95885.cdx
  Mrv1902 05222410202D          

  5  4  0  0  0  0            999 V2000
    5.8550   -7.4250    0.0000 O   0  0  0  0  0  0  0  0  0  0  0  0
    6.6800   -7.4250    0.0000 C   0  0  0  0  0  0  0  0  0  0  0  0
    7.0925   -6.7105    0.0000 C   0  0  0  0  0  0  0  0  0  0  0  0
    7.0925   -8.1395    0.0000 N   0  0  0  0  0  0  0  0  0  0  0  0
    7.9175   -6.7105    0.0000 N   0  0  0  0  0  0  0  0  0  0  0  0
  1  2  2  0  0  0  0
  2  3  1  0  0  0  0
  2  4  1  0  0  0  0
  3  5  1  0  0  0  0
M  END
>  <cdx:fragmentId>
3

$$$$
