95898.cdx
  Mrv1902 05222410232D          

 42 46  0  0  0  0            999 V2000
    7.4293   -7.1346    0.0000 O   0  0  0  0  0  0  0  0  0  0  0  0
    6.7149   -7.5471    0.0000 C   0  0  2  0  0  0  0  0  0  0  0  0
    6.0004   -7.1347    0.0000 C   0  0  1  0  0  0  0  0  0  0  0  0
    6.0003   -6.3097    0.0000 C   0  0  2  0  0  0  0  0  0  0  0  0
    6.7148   -5.8971    0.0000 C   0  0  2  0  0  0  0  0  0  0  0  0
    7.4293   -6.3096    0.0000 C   0  0  1  0  0  0  0  0  0  0  0  0
    8.1437   -5.8971    0.0000 C   0  0  0  0  0  0  0  0  0  0  0  0
    8.1437   -5.0721    0.0000 O   0  0  0  0  0  0  0  0  0  0  0  0
    6.7147   -5.0721    0.0000 O   0  0  0  0  0  0  0  0  0  0  0  0
    5.2858   -5.8972    0.0000 O   0  0  0  0  0  0  0  0  0  0  0  0
    5.2859   -7.5472    0.0000 O   0  0  0  0  0  0  0  0  0  0  0  0
    5.2860  -10.0222    0.0000 C   0  0  2  0  0  0  0  0  0  0  0  0
    6.7150  -10.8471    0.0000 O   0  0  0  0  0  0  0  0  0  0  0  0
    5.2859   -8.3722    0.0000 O   0  0  0  0  0  0  0  0  0  0  0  0
   11.7161   -7.1344    0.0000 O   0  0  0  0  0  0  0  0  0  0  0  0
    9.5727   -7.5470    0.0000 C   0  0  0  0  0  0  0  0  0  0  0  0
   10.2872   -7.1345    0.0000 C   0  0  0  0  0  0  0  0  0  0  0  0
   11.0017   -7.5469    0.0000 C   0  0  0  0  0  0  0  0  0  0  0  0
   11.0017   -8.3719    0.0000 C   0  0  0  0  0  0  0  0  0  0  0  0
   10.2873   -8.7845    0.0000 C   0  0  0  0  0  0  0  0  0  0  0  0
    9.5728   -8.3720    0.0000 C   0  0  0  0  0  0  0  0  0  0  0  0
    8.1439  -10.8471    0.0000 O   0  0  0  0  0  0  0  0  0  0  0  0
    8.1438   -8.3721    0.0000 O   0  0  0  0  0  0  0  0  0  0  0  0
    7.4294   -8.7846    0.0000 C   0  0  0  0  0  0  0  0  0  0  0  0
    6.7149   -8.3721    0.0000 C   0  0  0  0  0  0  0  0  0  0  0  0
    6.0004   -8.7847    0.0000 C   0  0  0  0  0  0  0  0  0  0  0  0
    6.0005   -9.6097    0.0000 C   0  0  0  0  0  0  0  0  0  0  0  0
    6.7150  -10.0221    0.0000 C   0  0  0  0  0  0  0  0  0  0  0  0
    7.4294   -9.6096    0.0000 C   0  0  0  0  0  0  0  0  0  0  0  0
    8.1439  -10.0221    0.0000 C   0  0  0  0  0  0  0  0  0  0  0  0
    8.8584   -9.6095    0.0000 C   0  0  0  0  0  0  0  0  0  0  0  0
    8.8583   -8.7845    0.0000 C   0  0  0  0  0  0  0  0  0  0  0  0
    4.5715   -9.6098    0.0000 O   0  0  0  0  0  0  0  0  0  0  0  0
    3.8571  -10.0222    0.0000 C   0  0  0  0  0  0  0  0  0  0  0  0
    3.8571  -10.8472    0.0000 C   0  0  1  0  0  0  0  0  0  0  0  0
    4.5715  -11.2596    0.0000 C   0  0  1  0  0  0  0  0  0  0  0  0
    5.2860  -10.8472    0.0000 C   0  0  1  0  0  0  0  0  0  0  0  0
    6.0005  -11.2597    0.0000 O   0  0  0  0  0  0  0  0  0  0  0  0
    4.5715  -12.0846    0.0000 O   0  0  0  0  0  0  0  0  0  0  0  0
    3.1426  -11.2597    0.0000 O   0  0  0  0  0  0  0  0  0  0  0  0
    7.4293   -7.9596    0.0000 H   0  0  0  0  0  0  0  0  0  0  0  0
    5.2860   -9.1972    0.0000 H   0  0  0  0  0  0  0  0  0  0  0  0
 12 27  1  0  0  0  0
 28 13  1  0  0  0  0
 26 14  1  0  0  0  0
 32 21  1  0  0  0  0
 18 15  1  0  0  0  0
 21 16  2  0  0  0  0
 17 16  1  0  0  0  0
 18 17  2  0  0  0  0
 19 18  1  0  0  0  0
 20 19  2  0  0  0  0
 21 20  1  0  0  0  0
  2 25  1  0  0  0  0
 30 22  2  0  0  0  0
 32 23  1  0  0  0  0
 24 23  1  0  0  0  0
 29 24  2  0  0  0  0
 25 24  1  0  0  0  0
 26 25  2  0  0  0  0
 27 26  1  0  0  0  0
 28 27  2  0  0  0  0
 29 28  1  0  0  0  0
 30 29  1  0  0  0  0
 31 30  1  0  0  0  0
 32 31  2  0  0  0  0
  1  2  1  0  0  0  0
  2  3  1  0  0  0  0
  3  4  1  0  0  0  0
  4  5  1  0  0  0  0
  5  6  1  0  0  0  0
  1  6  1  0  0  0  0
  7  8  1  0  0  0  0
  6  7  1  1  0  0  0
  5  9  1  1  0  0  0
  4 10  1  1  0  0  0
  3 11  1  6  0  0  0
 12 33  1  0  0  0  0
 33 34  1  0  0  0  0
 34 35  1  0  0  0  0
 35 36  1  0  0  0  0
 36 37  1  0  0  0  0
 37 12  1  0  0  0  0
 37 38  1  6  0  0  0
 36 39  1  1  0  0  0
 35 40  1  1  0  0  0
  2 41  1  6  0  0  0
 12 42  1  6  0  0  0
M  END
>  <cdx:groupId>
126

>  <cdx:fragmentId>
5

$$$$
