95890.cdx
  Mrv1902 05222410212D          

 40 44  0  0  0  0            999 V2000
    6.3370   -5.2869    0.0000 C   0  0  0  0  0  0  0  0  0  0  0  0
    5.6239   -5.7016    0.0000 C   0  0  0  0  0  0  0  0  0  0  0  0
    5.6265   -6.5266    0.0000 C   0  0  0  0  0  0  0  0  0  0  0  0
    6.3422   -6.9368    0.0000 C   0  0  0  0  0  0  0  0  0  0  0  0
    6.3448   -7.7618    0.0000 C   0  0  0  0  0  0  0  0  0  0  0  0
    7.0606   -8.1721    0.0000 C   0  0  0  0  0  0  0  0  0  0  0  0
    7.7738   -7.7574    0.0000 C   0  0  0  0  0  0  0  0  0  0  0  0
    7.7712   -6.9324    0.0000 C   0  0  0  0  0  0  0  0  0  0  0  0
    7.0554   -6.5221    0.0000 C   0  0  0  0  0  0  0  0  0  0  0  0
    7.0528   -5.6971    0.0000 O   0  0  0  0  0  0  0  0  0  0  0  0
    4.9133   -6.9413    0.0000 O   0  0  0  0  0  0  0  0  0  0  0  0
    7.0966  -11.4830    0.0000 O   0  0  0  0  0  0  0  0  0  0  0  0
    5.6677  -11.4985    0.0000 O   0  0  0  0  0  0  0  0  0  0  0  0
    6.3867  -11.9032    0.0000 C   0  0  2  0  0  0  0  0  0  0  0  0
    6.3956  -12.7282    0.0000 C   0  0  1  0  0  0  0  0  0  0  0  0
    5.6857  -13.1484    0.0000 C   0  0  1  0  0  0  0  0  0  0  0  0
    4.9668  -12.7437    0.0000 C   0  0  2  0  0  0  0  0  0  0  0  0
    4.9578  -11.9188    0.0000 C   0  0  2  0  0  0  0  0  0  0  0  0
    4.2389  -11.5141    0.0000 C   0  0  0  0  0  0  0  0  0  0  0  0
    4.2568  -13.1640    0.0000 O   0  0  0  0  0  0  0  0  0  0  0  0
    5.6947  -13.9734    0.0000 O   0  0  0  0  0  0  0  0  0  0  0  0
    7.1146  -13.1329    0.0000 O   0  0  0  0  0  0  0  0  0  0  0  0
    6.3345   -4.4619    0.0000 C   0  0  0  0  0  0  0  0  0  0  0  0
    5.6187   -4.0516    0.0000 C   0  0  0  0  0  0  0  0  0  0  0  0
    5.6161   -3.2266    0.0000 C   0  0  0  0  0  0  0  0  0  0  0  0
    6.3293   -2.8119    0.0000 C   0  0  0  0  0  0  0  0  0  0  0  0
    7.0450   -3.2221    0.0000 C   0  0  0  0  0  0  0  0  0  0  0  0
    7.0476   -4.0471    0.0000 C   0  0  0  0  0  0  0  0  0  0  0  0
    5.6316   -8.1766    0.0000 O   0  0  0  0  0  0  0  0  0  0  0  0
    9.9274   -8.9770    0.0000 O   0  0  0  0  0  0  0  0  0  0  0  0
    9.9453  -10.6269    0.0000 O   0  0  0  0  0  0  0  0  0  0  0  0
    8.5254  -11.4674    0.0000 O   0  0  0  0  0  0  0  0  0  0  0  0
    7.0876  -10.6580    0.0000 C   0  0  0  0  0  0  0  0  0  0  0  0
    7.7975  -10.2378    0.0000 C   0  0  2  0  0  0  0  0  0  0  0  0
    8.5165  -10.6425    0.0000 C   0  0  2  0  0  0  0  0  0  0  0  0
    9.2264  -10.2222    0.0000 C   0  0  1  0  0  0  0  0  0  0  0  0
    9.2174   -9.3973    0.0000 C   0  0  2  0  0  0  0  0  0  0  0  0
    8.4985   -8.9926    0.0000 C   0  0  1  0  0  0  0  0  0  0  0  0
    7.7886   -9.4128    0.0000 O   0  0  0  0  0  0  0  0  0  0  0  0
    8.4895   -8.1676    0.0000 O   0  0  0  0  0  0  0  0  0  0  0  0
 38 40  1  1  0  0  0
 37 30  1  6  0  0  0
 36 31  1  1  0  0  0
 35 32  1  6  0  0  0
 34 33  1  1  0  0  0
 33 12  1  0  0  0  0
 39 34  1  0  0  0  0
 35 34  1  0  0  0  0
 36 35  1  0  0  0  0
 37 36  1  0  0  0  0
 38 37  1  0  0  0  0
  1  2  2  0  0  0  0
  2  3  1  0  0  0  0
  3  4  1  0  0  0  0
  4  5  1  0  0  0  0
  5  6  2  0  0  0  0
  6  7  1  0  0  0  0
  7  8  2  0  0  0  0
  8  9  1  0  0  0  0
  4  9  2  0  0  0  0
  9 10  1  0  0  0  0
  1 10  1  0  0  0  0
  3 11  2  0  0  0  0
 39 38  1  0  0  0  0
 13 14  1  0  0  0  0
 14 15  1  0  0  0  0
 15 16  1  0  0  0  0
 16 17  1  0  0  0  0
 17 18  1  0  0  0  0
 13 18  1  0  0  0  0
 18 19  1  6  0  0  0
 17 20  1  1  0  0  0
 16 21  1  6  0  0  0
 15 22  1  6  0  0  0
 14 12  1  1  0  0  0
  7 40  1  0  0  0  0
 23 24  1  0  0  0  0
 24 25  2  0  0  0  0
 25 26  1  0  0  0  0
 26 27  2  0  0  0  0
 27 28  1  0  0  0  0
 23 28  2  0  0  0  0
  1 23  1  0  0  0  0
  5 29  1  0  0  0  0
M  END
>  <cdx:groupId>
126

>  <cdx:fragmentId>
45

$$$$
