95896.cdx
  Mrv1902 05222410222D          

 65 72  0  0  0  0            999 V2000
   11.7585   -4.4793    0.0000 C   0  0  0  0  0  0  0  0  0  0  0  0
   12.4730   -4.0668    0.0000 C   0  0  0  0  0  0  0  0  0  0  0  0
   13.1875   -4.4793    0.0000 C   0  0  0  0  0  0  0  0  0  0  0  0
   13.1875   -5.3043    0.0000 C   0  0  0  0  0  0  0  0  0  0  0  0
   12.4730   -5.7168    0.0000 C   0  0  2  0  0  0  0  0  0  0  0  0
   12.4730   -6.5418    0.0000 C   0  0  0  0  0  0  0  0  0  0  0  0
   11.7585   -6.9543    0.0000 C   0  0  0  0  0  0  0  0  0  0  0  0
   11.0441   -6.5418    0.0000 C   0  0  1  0  0  0  0  0  0  0  0  0
   10.3296   -6.9543    0.0000 C   0  0  2  0  0  0  0  0  0  0  0  0
   10.3296   -7.7793    0.0000 C   0  0  0  0  0  0  0  0  0  0  0  0
    9.6151   -8.1918    0.0000 C   0  0  0  0  0  0  0  0  0  0  0  0
    8.9006   -7.7793    0.0000 C   0  0  1  0  0  0  0  0  0  0  0  0
    8.1862   -8.1918    0.0000 C   0  0  2  0  0  0  0  0  0  0  0  0
    7.4717   -7.7793    0.0000 C   0  0  2  0  0  0  0  0  0  0  0  0
    7.4717   -6.9543    0.0000 C   0  0  0  0  0  0  0  0  0  0  0  0
    8.1862   -6.5418    0.0000 C   0  0  0  0  0  0  0  0  0  0  0  0
    8.9006   -6.9543    0.0000 C   0  0  2  0  0  0  0  0  0  0  0  0
    9.6151   -6.5418    0.0000 C   0  0  1  0  0  0  0  0  0  0  0  0
    9.6151   -5.7168    0.0000 C   0  0  0  0  0  0  0  0  0  0  0  0
   10.3296   -5.3043    0.0000 C   0  0  0  0  0  0  0  0  0  0  0  0
   11.0441   -5.7168    0.0000 C   0  0  0  0  0  0  0  0  0  0  0  0
   11.7585   -5.3043    0.0000 C   0  0  2  0  0  0  0  0  0  0  0  0
   13.1875   -6.1293    0.0000 C   0  0  0  0  0  0  0  0  0  0  0  0
   13.1875   -6.9543    0.0000 O   0  0  0  0  0  0  0  0  0  0  0  0
   13.9019   -5.7168    0.0000 O   0  0  0  0  0  0  0  0  0  0  0  0
    6.7572   -8.1918    0.0000 O   0  0  0  0  0  0  0  0  0  0  0  0
    6.0428   -6.9543    0.0000 O   0  0  0  0  0  0  0  0  0  0  0  0
    6.0428   -7.7793    0.0000 C   0  0  2  0  0  0  0  0  0  0  0  0
    5.3283   -8.1918    0.0000 C   0  0  1  0  0  0  0  0  0  0  0  0
    4.6138   -7.7793    0.0000 C   0  0  2  0  0  0  0  0  0  0  0  0
    4.6138   -6.9543    0.0000 C   0  0  2  0  0  0  0  0  0  0  0  0
    5.3283   -6.5418    0.0000 C   0  0  0  0  0  0  0  0  0  0  0  0
    3.8994   -6.5418    0.0000 O   0  0  0  0  0  0  0  0  0  0  0  0
    3.8994   -8.1918    0.0000 O   0  0  0  0  0  0  0  0  0  0  0  0
    5.3283   -9.0168    0.0000 O   0  0  0  0  0  0  0  0  0  0  0  0
    8.9006   -6.1293    0.0000 C   0  0  0  0  0  0  0  0  0  0  0  0
    7.7737   -8.9063    0.0000 C   0  0  0  0  0  0  0  0  0  0  0  0
   12.0605   -3.3524    0.0000 C   0  0  0  0  0  0  0  0  0  0  0  0
   12.8855   -3.3524    0.0000 C   0  0  0  0  0  0  0  0  0  0  0  0
    8.5987   -8.9063    0.0000 C   0  0  0  0  0  0  0  0  0  0  0  0
    8.1862   -9.6208    0.0000 O   0  0  0  0  0  0  0  0  0  0  0  0
    8.9006   -8.6043    0.0000 H   0  0  0  0  0  0  0  0  0  0  0  0
   11.7585   -6.1293    0.0000 H   0  0  0  0  0  0  0  0  0  0  0  0
    3.1743   -9.4325    0.0000 C   0  0  1  0  0  0  0  0  0  0  0  0
    3.1743  -10.2575    0.0000 C   0  0  1  0  0  0  0  0  0  0  0  0
    3.8888  -10.6700    0.0000 C   0  0  2  0  0  0  0  0  0  0  0  0
    4.6032  -10.2575    0.0000 C   0  0  2  0  0  0  0  0  0  0  0  0
    4.6032   -9.4325    0.0000 C   0  0  1  0  0  0  0  0  0  0  0  0
    3.8888   -9.0200    0.0000 O   0  0  0  0  0  0  0  0  0  0  0  0
    2.4598  -10.6700    0.0000 O   0  0  0  0  0  0  0  0  0  0  0  0
    2.4598   -9.0200    0.0000 C   0  0  0  0  0  0  0  0  0  0  0  0
    3.8888  -11.4950    0.0000 O   0  0  0  0  0  0  0  0  0  0  0  0
    5.3177  -10.6700    0.0000 O   0  0  0  0  0  0  0  0  0  0  0  0
    2.4706  -11.4826    0.0000 O   0  0  0  0  0  0  0  0  0  0  0  0
    3.1822  -11.8999    0.0000 C   0  0  2  0  0  0  0  0  0  0  0  0
    3.1767  -12.7249    0.0000 C   0  0  1  0  0  0  0  0  0  0  0  0
    2.4594  -13.1325    0.0000 C   0  0  2  0  0  0  0  0  0  0  0  0
    1.7478  -12.7152    0.0000 C   0  0  2  0  0  0  0  0  0  0  0  0
    1.7533  -11.8903    0.0000 C   0  0  0  0  0  0  0  0  0  0  0  0
    1.0305  -13.1229    0.0000 O   0  0  0  0  0  0  0  0  0  0  0  0
    2.4539  -13.9575    0.0000 O   0  0  0  0  0  0  0  0  0  0  0  0
    3.8884  -13.1422    0.0000 O   0  0  0  0  0  0  0  0  0  0  0  0
    9.6151   -7.3668    0.0000 H   0  0  0  0  0  0  0  0  0  0  0  0
   10.3296   -6.1293    0.0000 C   0  0  0  0  0  0  0  0  0  0  0  0
   11.0441   -7.3668    0.0000 C   0  0  0  0  0  0  0  0  0  0  0  0
  1  2  1  0  0  0  0
  2  3  1  0  0  0  0
  3  4  1  0  0  0  0
  4  5  1  0  0  0  0
  5  6  1  0  0  0  0
  6  7  1  0  0  0  0
  7  8  1  0  0  0  0
  8  9  1  0  0  0  0
  9 10  1  0  0  0  0
 10 11  1  0  0  0  0
 11 12  1  0  0  0  0
 12 13  1  0  0  0  0
 13 14  1  0  0  0  0
 14 15  1  0  0  0  0
 15 16  1  0  0  0  0
 16 17  1  0  0  0  0
 12 17  1  0  0  0  0
 17 18  1  0  0  0  0
  9 18  1  0  0  0  0
 18 19  1  0  0  0  0
 19 20  1  0  0  0  0
 20 21  2  0  0  0  0
  8 21  1  0  0  0  0
 21 22  1  0  0  0  0
  5 22  1  0  0  0  0
  1 22  1  0  0  0  0
 23 24  2  0  0  0  0
 23 25  1  0  0  0  0
  5 23  1  1  0  0  0
 27 28  1  0  0  0  0
 28 29  1  0  0  0  0
 29 30  1  0  0  0  0
 30 31  1  0  0  0  0
 31 32  1  0  0  0  0
 27 32  1  0  0  0  0
 31 33  1  1  0  0  0
 30 34  1  1  0  0  0
 29 35  1  6  0  0  0
 28 26  1  1  0  0  0
 14 26  1  1  0  0  0
 17 36  1  1  0  0  0
 13 37  1  1  0  0  0
  2 38  1  0  0  0  0
  2 39  1  0  0  0  0
 40 41  1  0  0  0  0
 13 40  1  0  0  0  0
 12 42  1  6  0  0  0
 22 43  1  1  0  0  0
 44 45  1  0  0  0  0
 45 46  1  0  0  0  0
 46 47  1  0  0  0  0
 47 48  1  0  0  0  0
 48 49  1  0  0  0  0
 49 44  1  0  0  0  0
 45 50  1  1  0  0  0
 44 51  1  6  0  0  0
 46 52  1  6  0  0  0
 47 53  1  6  0  0  0
 48 35  1  1  0  0  0
 54 55  1  0  0  0  0
 55 56  1  0  0  0  0
 56 57  1  0  0  0  0
 57 58  1  0  0  0  0
 58 59  1  0  0  0  0
 54 59  1  0  0  0  0
 58 60  1  1  0  0  0
 57 61  1  1  0  0  0
 56 62  1  6  0  0  0
 55 52  1  1  0  0  0
 18 63  1  6  0  0  0
  9 64  1  1  0  0  0
  8 65  1  6  0  0  0
M  END
>  <cdx:fragmentId>
5

$$$$
