95893.cdx
  Mrv1902 05222410212D          

 58 63  0  0  0  0            999 V2000
    7.5547   -6.4028    0.0000 O   0  0  0  0  0  0  0  0  0  0  0  0
    6.1053   -5.6142    0.0000 O   0  0  0  0  0  0  0  0  0  0  0  0
    6.1681   -8.0885    0.0000 C   0  0  0  0  0  0  0  0  0  0  0  0
    6.8719   -7.6580    0.0000 C   0  0  0  0  0  0  0  0  0  0  0  0
    6.8509   -6.8332    0.0000 C   0  0  0  0  0  0  0  0  0  0  0  0
    6.1262   -6.4390    0.0000 C   0  0  0  0  0  0  0  0  0  0  0  0
    5.4225   -6.8695    0.0000 C   0  0  0  0  0  0  0  0  0  0  0  0
    5.4434   -7.6942    0.0000 C   0  0  0  0  0  0  0  0  0  0  0  0
    4.7396   -8.1247    0.0000 C   0  0  0  0  0  0  0  0  0  0  0  0
    8.7255  -11.2878    0.0000 O   0  0  0  0  0  0  0  0  0  0  0  0
    6.3785  -12.0709    0.0000 C   0  0  0  0  0  0  0  0  0  0  0  0
    7.1697  -11.8373    0.0000 O   0  0  0  0  0  0  0  0  0  0  0  0
    7.6227   -9.4041    0.0000 C   0  0  0  0  0  0  0  0  0  0  0  0
    8.2496   -9.9404    0.0000 C   0  0  0  0  0  0  0  0  0  0  0  0
    8.0986  -10.7514    0.0000 C   0  0  0  0  0  0  0  0  0  0  0  0
    7.3207  -11.0262    0.0000 C   0  0  0  0  0  0  0  0  0  0  0  0
    6.6938  -10.4899    0.0000 C   0  0  0  0  0  0  0  0  0  0  0  0
    6.8448   -9.6788    0.0000 C   0  0  0  0  0  0  0  0  0  0  0  0
    6.2179   -9.1425    0.0000 C   0  0  0  0  0  0  0  0  0  0  0  0
    3.3147   -9.2161    0.0000 O   0  0  0  0  0  0  0  0  0  0  0  0
    5.2051  -10.2081    0.0000 C   0  0  0  0  0  0  0  0  0  0  0  0
    5.4400   -9.4173    0.0000 C   0  0  2  0  0  0  0  0  0  0  0  0
    4.7605   -8.9494    0.0000 C   0  0  1  0  0  0  0  0  0  0  0  0
    4.1056   -9.4511    0.0000 C   0  0  0  0  0  0  0  0  0  0  0  0
   10.9899   -4.6794    0.0000 O   0  0  0  0  0  0  0  0  0  0  0  0
   10.4426   -4.0621    0.0000 C   0  0  0  0  0  0  0  0  0  0  0  0
    9.6864   -4.3919    0.0000 C   0  0  1  0  0  0  0  0  0  0  0  0
    9.7663   -5.2130    0.0000 C   0  0  2  0  0  0  0  0  0  0  0  0
   10.5720   -5.3907    0.0000 C   0  0  0  0  0  0  0  0  0  0  0  0
   10.6203   -3.2565    0.0000 O   0  0  0  0  0  0  0  0  0  0  0  0
    9.1490   -5.7603    0.0000 C   0  0  0  0  0  0  0  0  0  0  0  0
    9.3143   -6.5686    0.0000 C   0  0  0  0  0  0  0  0  0  0  0  0
   10.0970   -6.8295    0.0000 C   0  0  0  0  0  0  0  0  0  0  0  0
    4.3803  -10.2290    0.0000 O   0  0  0  0  0  0  0  0  0  0  0  0
   10.2623   -7.6378    0.0000 C   0  0  0  0  0  0  0  0  0  0  0  0
    9.6450   -8.1851    0.0000 C   0  0  0  0  0  0  0  0  0  0  0  0
    8.8623   -7.9242    0.0000 C   0  0  0  0  0  0  0  0  0  0  0  0
    8.6970   -7.1159    0.0000 C   0  0  0  0  0  0  0  0  0  0  0  0
   11.0449   -7.8988    0.0000 O   0  0  0  0  0  0  0  0  0  0  0  0
   11.6328   -7.3199    0.0000 C   0  0  0  0  0  0  0  0  0  0  0  0
    9.8103   -8.9934    0.0000 O   0  0  0  0  0  0  0  0  0  0  0  0
    8.9751   -3.9739    0.0000 C   0  0  0  0  0  0  0  0  0  0  0  0
    8.2575   -4.3809    0.0000 C   0  0  0  0  0  0  0  0  0  0  0  0
    7.5462   -3.9629    0.0000 C   0  0  0  0  0  0  0  0  0  0  0  0
    6.8286   -4.3699    0.0000 C   0  0  0  0  0  0  0  0  0  0  0  0
    6.8223   -5.1949    0.0000 C   0  0  0  0  0  0  0  0  0  0  0  0
    7.5335   -5.6129    0.0000 C   0  0  0  0  0  0  0  0  0  0  0  0
    8.2512   -5.2059    0.0000 C   0  0  0  0  0  0  0  0  0  0  0  0
    6.1173   -3.9520    0.0000 O   0  0  0  0  0  0  0  0  0  0  0  0
    5.3997   -4.3590    0.0000 C   0  0  0  0  0  0  0  0  0  0  0  0
   10.6072   -9.2069    0.0000 C   0  0  0  0  0  0  0  0  0  0  0  0
    7.5966   -8.0522    0.0000 O   0  0  0  0  0  0  0  0  0  0  0  0
    8.2733   -7.5804    0.0000 C   0  0  0  0  0  0  0  0  0  0  0  0
    9.5034  -11.0130    0.0000 C   0  0  0  0  0  0  0  0  0  0  0  0
    6.1195   -9.8851    0.0000 H   0  0  0  0  0  0  0  0  0  0  0  0
    4.0810   -8.4816    0.0000 H   0  0  0  0  0  0  0  0  0  0  0  0
    9.6065   -3.5708    0.0000 H   0  0  0  0  0  0  0  0  0  0  0  0
    9.8463   -6.0341    0.0000 H   0  0  0  0  0  0  0  0  0  0  0  0
 23  9  1  0  0  0  0
  9  8  1  0  0  0  0
  5  1  1  0  0  0  0
  6  2  1  0  0  0  0
  8  3  2  0  0  0  0
  4  3  1  0  0  0  0
  5  4  2  0  0  0  0
  6  5  1  0  0  0  0
  7  6  2  0  0  0  0
  8  7  1  0  0  0  0
 22 19  1  0  0  0  0
 19 18  1  0  0  0  0
 15 10  1  0  0  0  0
 16 12  1  0  0  0  0
 12 11  1  0  0  0  0
 18 13  2  0  0  0  0
 14 13  1  0  0  0  0
 15 14  2  0  0  0  0
 16 15  1  0  0  0  0
 17 16  2  0  0  0  0
 18 17  1  0  0  0  0
 24 20  2  0  0  0  0
 34 21  1  0  0  0  0
 22 21  1  0  0  0  0
 23 22  1  0  0  0  0
 24 23  1  0  0  0  0
 34 24  1  0  0  0  0
 25 26  1  0  0  0  0
 26 27  1  0  0  0  0
 27 28  1  0  0  0  0
 28 29  1  0  0  0  0
 25 29  1  0  0  0  0
 26 30  2  0  0  0  0
 32 33  1  0  0  0  0
 33 35  2  0  0  0  0
 35 36  1  0  0  0  0
 36 37  2  0  0  0  0
 37 38  1  0  0  0  0
 32 38  2  0  0  0  0
 39 40  1  0  0  0  0
 35 39  1  0  0  0  0
 36 41  1  0  0  0  0
 31 32  1  0  0  0  0
 28 31  1  0  0  0  0
 43 44  1  0  0  0  0
 44 45  2  0  0  0  0
 45 46  1  0  0  0  0
 46 47  2  0  0  0  0
 47 48  1  0  0  0  0
 43 48  2  0  0  0  0
 49 50  1  0  0  0  0
 45 49  1  0  0  0  0
 42 43  1  0  0  0  0
 27 42  1  0  0  0  0
 41 51  1  0  0  0  0
  4 52  1  0  0  0  0
 52 53  1  0  0  0  0
 10 54  1  0  0  0  0
 46  2  1  0  0  0  0
 22 55  1  1  0  0  0
 23 56  1  6  0  0  0
 27 57  1  6  0  0  0
 28 58  1  1  0  0  0
M  END
>  <cdx:fragmentId>
85

$$$$
