95892.cdx
  Mrv1902 05222410212D          

 56 61  0  0  0  0            999 V2000
    4.1872  -10.4995    0.0000 O   0  0  0  0  0  0  0  0  0  0  0  0
    4.6051  -11.2108    0.0000 C   0  0  0  0  0  0  0  0  0  0  0  0
    5.4107  -11.0332    0.0000 C   0  0  1  0  0  0  0  0  0  0  0  0
    5.4907  -10.2121    0.0000 C   0  0  2  0  0  0  0  0  0  0  0  0
    4.7345   -9.8822    0.0000 C   0  0  0  0  0  0  0  0  0  0  0  0
    4.2752  -11.9670    0.0000 O   0  0  0  0  0  0  0  0  0  0  0  0
    6.2021   -9.7942    0.0000 C   0  0  0  0  0  0  0  0  0  0  0  0
    6.1958   -8.9692    0.0000 C   0  0  0  0  0  0  0  0  0  0  0  0
    5.4782   -8.5621    0.0000 C   0  0  0  0  0  0  0  0  0  0  0  0
    5.4720   -7.7371    0.0000 C   0  0  0  0  0  0  0  0  0  0  0  0
    6.1833   -7.3192    0.0000 C   0  0  0  0  0  0  0  0  0  0  0  0
    6.9009   -7.7263    0.0000 C   0  0  0  0  0  0  0  0  0  0  0  0
    6.9071   -8.5513    0.0000 C   0  0  0  0  0  0  0  0  0  0  0  0
    4.7544   -7.3300    0.0000 O   0  0  0  0  0  0  0  0  0  0  0  0
    4.0659   -7.7846    0.0000 C   0  0  0  0  0  0  0  0  0  0  0  0
    6.1771   -6.4942    0.0000 O   0  0  0  0  0  0  0  0  0  0  0  0
    6.0280  -11.5805    0.0000 C   0  0  0  0  0  0  0  0  0  0  0  0
    9.1586  -10.5370    0.0000 O   0  0  0  0  0  0  0  0  0  0  0  0
    8.7068   -9.1814    0.0000 C   0  0  0  0  0  0  0  0  0  0  0  0
    7.9241   -9.4423    0.0000 O   0  0  0  0  0  0  0  0  0  0  0  0
    7.4279  -11.8670    0.0000 C   0  0  0  0  0  0  0  0  0  0  0  0
    8.2106  -11.6062    0.0000 C   0  0  0  0  0  0  0  0  0  0  0  0
    8.3760  -10.7979    0.0000 C   0  0  0  0  0  0  0  0  0  0  0  0
    7.7587  -10.2505    0.0000 C   0  0  0  0  0  0  0  0  0  0  0  0
    6.9761  -10.5114    0.0000 C   0  0  0  0  0  0  0  0  0  0  0  0
    6.8106  -11.3197    0.0000 C   0  0  0  0  0  0  0  0  0  0  0  0
    9.7387   -4.0469    0.0000 O   0  0  0  0  0  0  0  0  0  0  0  0
    9.1914   -3.4296    0.0000 C   0  0  0  0  0  0  0  0  0  0  0  0
    8.4351   -3.7594    0.0000 C   0  0  1  0  0  0  0  0  0  0  0  0
    8.5151   -4.5805    0.0000 C   0  0  2  0  0  0  0  0  0  0  0  0
    9.3207   -4.7582    0.0000 C   0  0  0  0  0  0  0  0  0  0  0  0
    9.3691   -2.6240    0.0000 O   0  0  0  0  0  0  0  0  0  0  0  0
    7.8978   -5.1278    0.0000 C   0  0  0  0  0  0  0  0  0  0  0  0
    8.0631   -5.9361    0.0000 C   0  0  0  0  0  0  0  0  0  0  0  0
    8.8457   -6.1970    0.0000 C   0  0  0  0  0  0  0  0  0  0  0  0
    9.0110   -7.0053    0.0000 C   0  0  0  0  0  0  0  0  0  0  0  0
    8.3937   -7.5526    0.0000 C   0  0  0  0  0  0  0  0  0  0  0  0
    7.6111   -7.2917    0.0000 C   0  0  0  0  0  0  0  0  0  0  0  0
    7.4458   -6.4834    0.0000 C   0  0  0  0  0  0  0  0  0  0  0  0
    9.7937   -7.2663    0.0000 O   0  0  0  0  0  0  0  0  0  0  0  0
   10.3815   -6.6874    0.0000 C   0  0  0  0  0  0  0  0  0  0  0  0
    8.5591   -8.3609    0.0000 O   0  0  0  0  0  0  0  0  0  0  0  0
    7.7239   -3.3414    0.0000 C   0  0  0  0  0  0  0  0  0  0  0  0
    4.8534   -4.9694    0.0000 O   0  0  0  0  0  0  0  0  0  0  0  0
    5.5583   -6.2124    0.0000 C   0  0  0  0  0  0  0  0  0  0  0  0
    6.2759   -5.8054    0.0000 O   0  0  0  0  0  0  0  0  0  0  0  0
    6.2950   -3.3304    0.0000 C   0  0  0  0  0  0  0  0  0  0  0  0
    5.5773   -3.7374    0.0000 C   0  0  0  0  0  0  0  0  0  0  0  0
    5.5710   -4.5624    0.0000 C   0  0  0  0  0  0  0  0  0  0  0  0
    6.2823   -4.9804    0.0000 C   0  0  0  0  0  0  0  0  0  0  0  0
    6.9999   -4.5734    0.0000 C   0  0  0  0  0  0  0  0  0  0  0  0
    7.0062   -3.7484    0.0000 C   0  0  0  0  0  0  0  0  0  0  0  0
    5.5708   -9.3909    0.0000 H   0  0  0  0  0  0  0  0  0  0  0  0
    5.3307  -11.8543    0.0000 H   0  0  0  0  0  0  0  0  0  0  0  0
    8.3552   -2.9383    0.0000 H   0  0  0  0  0  0  0  0  0  0  0  0
    8.5950   -5.4016    0.0000 H   0  0  0  0  0  0  0  0  0  0  0  0
 23 18  1  0  0  0  0
 24 20  1  0  0  0  0
 20 19  1  0  0  0  0
 26 21  2  0  0  0  0
 22 21  1  0  0  0  0
 23 22  2  0  0  0  0
 24 23  1  0  0  0  0
 25 24  2  0  0  0  0
 26 25  1  0  0  0  0
  1  2  1  0  0  0  0
  2  3  1  0  0  0  0
  3  4  1  0  0  0  0
  4  5  1  0  0  0  0
  1  5  1  0  0  0  0
  2  6  2  0  0  0  0
  8  9  1  0  0  0  0
  9 10  2  0  0  0  0
 10 11  1  0  0  0  0
 11 12  2  0  0  0  0
 12 13  1  0  0  0  0
  8 13  2  0  0  0  0
 14 15  1  0  0  0  0
 10 14  1  0  0  0  0
 11 16  1  0  0  0  0
  7  8  1  0  0  0  0
  4  7  1  0  0  0  0
 17 26  1  0  0  0  0
  3 17  1  0  0  0  0
 49 44  1  0  0  0  0
 50 46  1  0  0  0  0
 46 45  1  0  0  0  0
 52 47  2  0  0  0  0
 48 47  1  0  0  0  0
 49 48  2  0  0  0  0
 50 49  1  0  0  0  0
 51 50  2  0  0  0  0
 52 51  1  0  0  0  0
 27 28  1  0  0  0  0
 28 29  1  0  0  0  0
 29 30  1  0  0  0  0
 30 31  1  0  0  0  0
 27 31  1  0  0  0  0
 28 32  2  0  0  0  0
 34 35  1  0  0  0  0
 35 36  2  0  0  0  0
 36 37  1  0  0  0  0
 37 38  2  0  0  0  0
 38 39  1  0  0  0  0
 34 39  2  0  0  0  0
 40 41  1  0  0  0  0
 36 40  1  0  0  0  0
 37 42  1  0  0  0  0
 33 34  1  0  0  0  0
 30 33  1  0  0  0  0
 43 52  1  0  0  0  0
 29 43  1  0  0  0  0
 12 38  1  0  0  0  0
  4 53  1  1  0  0  0
  3 54  1  6  0  0  0
 29 55  1  6  0  0  0
 30 56  1  1  0  0  0
M  END
>  <cdx:fragmentId>
85

$$$$
