95899.cdx
  Mrv1902 05222410242D          

 43 47  0  0  0  0            999 V2000
    5.7241   -6.2579    0.0000 C   0  0  0  0  0  0  0  0  0  0  0  0
    5.7241   -7.0829    0.0000 C   0  0  0  0  0  0  0  0  0  0  0  0
    5.0097   -7.4954    0.0000 C   0  0  0  0  0  0  0  0  0  0  0  0
    5.0097   -8.3204    0.0000 O   0  0  0  0  0  0  0  0  0  0  0  0
    4.2952   -7.0829    0.0000 C   0  0  0  0  0  0  0  0  0  0  0  0
    3.5807   -7.4954    0.0000 C   0  0  0  0  0  0  0  0  0  0  0  0
    3.5807   -8.3204    0.0000 O   0  0  0  0  0  0  0  0  0  0  0  0
    2.8663   -7.0829    0.0000 C   0  0  0  0  0  0  0  0  0  0  0  0
    2.8663   -6.2579    0.0000 C   0  0  0  0  0  0  0  0  0  0  0  0
    2.1518   -5.8454    0.0000 O   0  0  0  0  0  0  0  0  0  0  0  0
    3.5807   -5.8454    0.0000 C   0  0  0  0  0  0  0  0  0  0  0  0
    4.2952   -6.2579    0.0000 C   0  0  0  0  0  0  0  0  0  0  0  0
    5.0097   -5.8454    0.0000 O   0  0  0  0  0  0  0  0  0  0  0  0
    6.4386   -5.8454    0.0000 C   0  0  0  0  0  0  0  0  0  0  0  0
    6.4386   -5.0204    0.0000 C   0  0  0  0  0  0  0  0  0  0  0  0
    7.1531   -4.6079    0.0000 C   0  0  0  0  0  0  0  0  0  0  0  0
    7.8675   -5.0204    0.0000 C   0  0  0  0  0  0  0  0  0  0  0  0
    8.5820   -4.6079    0.0000 O   0  0  0  0  0  0  0  0  0  0  0  0
    7.8675   -5.8454    0.0000 C   0  0  0  0  0  0  0  0  0  0  0  0
    7.1531   -6.2579    0.0000 C   0  0  0  0  0  0  0  0  0  0  0  0
    6.4386   -7.4954    0.0000 O   0  0  0  0  0  0  0  0  0  0  0  0
    6.4386   -8.3204    0.0000 C   0  0  1  0  0  0  0  0  0  0  0  0
    7.1531   -8.7329    0.0000 C   0  0  2  0  0  0  0  0  0  0  0  0
    7.8675   -8.3204    0.0000 O   0  0  0  0  0  0  0  0  0  0  0  0
    7.1531   -9.5579    0.0000 C   0  0  1  0  0  0  0  0  0  0  0  0
    7.8675   -9.9704    0.0000 O   0  0  0  0  0  0  0  0  0  0  0  0
    6.4386   -9.9704    0.0000 C   0  0  2  0  0  0  0  0  0  0  0  0
    6.4386  -10.7954    0.0000 O   0  0  0  0  0  0  0  0  0  0  0  0
    5.7241   -9.5579    0.0000 C   0  0  2  0  0  0  0  0  0  0  0  0
    5.7241   -8.7329    0.0000 O   0  0  0  0  0  0  0  0  0  0  0  0
    5.0097   -9.9704    0.0000 C   0  0  0  0  0  0  0  0  0  0  0  0
    5.0097  -10.7954    0.0000 O   0  0  0  0  0  0  0  0  0  0  0  0
   12.1503   -8.3694    0.0000 C   0  0  0  0  0  0  0  0  0  0  0  0
   12.1625   -7.5445    0.0000 C   0  0  0  0  0  0  0  0  0  0  0  0
   11.4542   -7.1215    0.0000 C   0  0  0  0  0  0  0  0  0  0  0  0
   10.7337   -7.5234    0.0000 C   0  0  0  0  0  0  0  0  0  0  0  0
   10.7216   -8.3483    0.0000 C   0  0  0  0  0  0  0  0  0  0  0  0
   11.4298   -8.7713    0.0000 C   0  0  0  0  0  0  0  0  0  0  0  0
   12.8830   -7.1426    0.0000 O   0  0  0  0  0  0  0  0  0  0  0  0
   10.0011   -8.7502    0.0000 C   0  0  0  0  0  0  0  0  0  0  0  0
    9.2928   -8.3272    0.0000 C   0  0  0  0  0  0  0  0  0  0  0  0
    8.5723   -8.7291    0.0000 C   0  0  0  0  0  0  0  0  0  0  0  0
    8.5601   -9.5540    0.0000 O   0  0  0  0  0  0  0  0  0  0  0  0
  1  2  2  0  0  0  0
  2  3  1  0  0  0  0
  3  4  2  0  0  0  0
  3  5  1  0  0  0  0
  5  6  1  0  0  0  0
  6  7  1  0  0  0  0
  6  8  2  0  0  0  0
  8  9  1  0  0  0  0
  9 10  1  0  0  0  0
  9 11  2  0  0  0  0
 11 12  1  0  0  0  0
  5 12  2  0  0  0  0
 12 13  1  0  0  0  0
  1 13  1  0  0  0  0
  1 14  1  0  0  0  0
 14 15  1  0  0  0  0
 15 16  2  0  0  0  0
 16 17  1  0  0  0  0
 17 18  1  0  0  0  0
 17 19  2  0  0  0  0
 19 20  1  0  0  0  0
 14 20  2  0  0  0  0
 22 21  1  1  0  0  0
 22 23  1  0  0  0  0
 23 24  1  6  0  0  0
 23 25  1  0  0  0  0
 25 26  1  1  0  0  0
 25 27  1  0  0  0  0
 27 28  1  6  0  0  0
 27 29  1  0  0  0  0
 29 30  1  0  0  0  0
 29 31  1  1  0  0  0
 31 32  1  0  0  0  0
 22 30  1  0  0  0  0
  2 21  1  0  0  0  0
 33 34  2  0  0  0  0
 34 35  1  0  0  0  0
 35 36  2  0  0  0  0
 36 37  1  0  0  0  0
 37 38  2  0  0  0  0
 38 33  1  0  0  0  0
 34 39  1  0  0  0  0
 37 40  1  0  0  0  0
 40 41  2  0  0  0  0
 41 42  1  0  0  0  0
 42 43  2  0  0  0  0
 42 24  1  0  0  0  0
M  END
>  <cdx:groupId>
101

>  <cdx:fragmentId>
5

$$$$
