95897.cdx
  Mrv1902 05222410222D          

 16 17  0  0  0  0            999 V2000
   10.0535   -7.5916    0.0000 C   0  0  0  0  0  0  0  0  0  0  0  0
    9.3391   -7.1791    0.0000 O   0  0  0  0  0  0  0  0  0  0  0  0
    4.3378   -7.5916    0.0000 C   0  0  0  0  0  0  0  0  0  0  0  0
    5.0522   -7.1791    0.0000 O   0  0  0  0  0  0  0  0  0  0  0  0
    6.4812   -9.6541    0.0000 C   0  0  0  0  0  0  0  0  0  0  0  0
    7.9101   -9.6541    0.0000 O   0  0  0  0  0  0  0  0  0  0  0  0
    7.9101   -7.1791    0.0000 O   0  0  0  0  0  0  0  0  0  0  0  0
    7.1956   -7.5916    0.0000 C   0  0  0  0  0  0  0  0  0  0  0  0
    6.4812   -7.1791    0.0000 C   0  0  0  0  0  0  0  0  0  0  0  0
    5.7667   -7.5916    0.0000 C   0  0  0  0  0  0  0  0  0  0  0  0
    5.7667   -8.4166    0.0000 C   0  0  0  0  0  0  0  0  0  0  0  0
    6.4812   -8.8291    0.0000 C   0  0  0  0  0  0  0  0  0  0  0  0
    7.1956   -8.4166    0.0000 C   0  0  0  0  0  0  0  0  0  0  0  0
    7.9101   -8.8291    0.0000 C   0  0  0  0  0  0  0  0  0  0  0  0
    8.6246   -8.4166    0.0000 C   0  0  0  0  0  0  0  0  0  0  0  0
    8.6246   -7.5916    0.0000 C   0  0  0  0  0  0  0  0  0  0  0  0
 16  2  1  0  0  0  0
  2  1  1  0  0  0  0
 10  4  1  0  0  0  0
  4  3  1  0  0  0  0
 12  5  1  0  0  0  0
 14  6  2  0  0  0  0
 16  7  1  0  0  0  0
  8  7  1  0  0  0  0
 13  8  2  0  0  0  0
  9  8  1  0  0  0  0
 10  9  2  0  0  0  0
 11 10  1  0  0  0  0
 12 11  2  0  0  0  0
 13 12  1  0  0  0  0
 14 13  1  0  0  0  0
 15 14  1  0  0  0  0
 16 15  2  0  0  0  0
M  END
>  <cdx:fragmentId>
5

$$$$
