95900.cdx
  Mrv1902 05222410252D          

 24 25  0  0  0  0            999 V2000
   10.4108   -7.0347    0.0000 C   0  0  0  0  0  0  0  0  0  0  0  0
    9.6963   -7.4472    0.0000 C   0  0  0  0  0  0  0  0  0  0  0  0
    8.9818   -7.0347    0.0000 C   0  0  0  0  0  0  0  0  0  0  0  0
   10.4108   -6.2097    0.0000 O   0  0  0  0  0  0  0  0  0  0  0  0
   11.1252   -7.4472    0.0000 O   0  0  0  0  0  0  0  0  0  0  0  0
    8.2674   -7.4472    0.0000 C   0  0  0  0  0  0  0  0  0  0  0  0
    7.5529   -7.0347    0.0000 C   0  0  0  0  0  0  0  0  0  0  0  0
    6.8384   -7.4472    0.0000 C   0  0  0  0  0  0  0  0  0  0  0  0
    6.8384   -8.2722    0.0000 C   0  0  0  0  0  0  0  0  0  0  0  0
    7.5529   -8.6847    0.0000 C   0  0  0  0  0  0  0  0  0  0  0  0
    8.2674   -8.2722    0.0000 C   0  0  0  0  0  0  0  0  0  0  0  0
    6.1239   -8.6847    0.0000 O   0  0  0  0  0  0  0  0  0  0  0  0
    4.6950   -6.2097    0.0000 O   0  0  0  0  0  0  0  0  0  0  0  0
    4.6950   -4.5597    0.0000 O   0  0  0  0  0  0  0  0  0  0  0  0
    6.1239   -3.7347    0.0000 O   0  0  0  0  0  0  0  0  0  0  0  0
    7.5529   -3.7347    0.0000 O   0  0  0  0  0  0  0  0  0  0  0  0
    7.5529   -4.5597    0.0000 C   0  0  0  0  0  0  0  0  0  0  0  0
    6.8384   -4.9722    0.0000 C   0  0  2  0  0  0  0  0  0  0  0  0
    6.1239   -4.5597    0.0000 C   0  0  2  0  0  0  0  0  0  0  0  0
    5.4095   -4.9722    0.0000 C   0  0  1  0  0  0  0  0  0  0  0  0
    5.4095   -5.7972    0.0000 C   0  0  2  0  0  0  0  0  0  0  0  0
    6.1239   -6.2097    0.0000 C   0  0  1  0  0  0  0  0  0  0  0  0
    6.8384   -5.7972    0.0000 O   0  0  0  0  0  0  0  0  0  0  0  0
    6.1239   -7.0347    0.0000 O   0  0  0  0  0  0  0  0  0  0  0  0
 22 24  1  1  0  0  0
 21 13  1  6  0  0  0
 20 14  1  1  0  0  0
 19 15  1  6  0  0  0
 18 17  1  1  0  0  0
 17 16  1  0  0  0  0
 23 18  1  0  0  0  0
 19 18  1  0  0  0  0
 20 19  1  0  0  0  0
 21 20  1  0  0  0  0
 22 21  1  0  0  0  0
 23 22  1  0  0  0  0
  1  2  1  0  0  0  0
  2  3  2  0  0  0  0
  1  4  2  0  0  0  0
  1  5  1  0  0  0  0
  6  7  1  0  0  0  0
  7  8  2  0  0  0  0
  8  9  1  0  0  0  0
  9 10  2  0  0  0  0
 10 11  1  0  0  0  0
  6 11  2  0  0  0  0
  8 24  1  0  0  0  0
  9 12  1  0  0  0  0
  3  6  1  0  0  0  0
M  END
>  <cdx:fragmentId>
29

$$$$
