95908.cdx
  Mrv1902 05222410222D          

 26 28  0  0  0  0            999 V2000
    6.3918   -6.5587    0.0000 C   0  0  0  0  0  0  0  0  0  0  0  0
    6.3918   -7.3838    0.0000 C   0  0  0  0  0  0  0  0  0  0  0  0
    7.1063   -7.7963    0.0000 C   0  0  0  0  0  0  0  0  0  0  0  0
    7.8207   -7.3838    0.0000 C   0  0  0  0  0  0  0  0  0  0  0  0
    7.8207   -6.5587    0.0000 C   0  0  0  0  0  0  0  0  0  0  0  0
    7.1063   -6.1463    0.0000 C   0  0  0  0  0  0  0  0  0  0  0  0
    8.5352   -7.7963    0.0000 O   0  0  0  0  0  0  0  0  0  0  0  0
    9.2497   -7.3838    0.0000 C   0  0  0  0  0  0  0  0  0  0  0  0
    9.2497   -6.5587    0.0000 C   0  0  0  0  0  0  0  0  0  0  0  0
    8.5352   -6.1463    0.0000 C   0  0  0  0  0  0  0  0  0  0  0  0
    9.9642   -7.7963    0.0000 O   0  0  0  0  0  0  0  0  0  0  0  0
    7.1063   -5.3213    0.0000 O   0  0  0  0  0  0  0  0  0  0  0  0
    5.6773   -7.7963    0.0000 O   0  0  0  0  0  0  0  0  0  0  0  0
    5.6773   -8.6212    0.0000 C   0  0  0  0  0  0  0  0  0  0  0  0
    5.6773   -6.1463    0.0000 O   0  0  0  0  0  0  0  0  0  0  0  0
    4.8523   -6.1463    0.0000 C   0  0  2  0  0  0  0  0  0  0  0  0
    4.4398   -5.4318    0.0000 O   0  0  0  0  0  0  0  0  0  0  0  0
    3.6148   -5.4318    0.0000 C   0  0  1  0  0  0  0  0  0  0  0  0
    3.2023   -6.1463    0.0000 C   0  0  2  0  0  0  0  0  0  0  0  0
    3.6148   -6.8607    0.0000 C   0  0  1  0  0  0  0  0  0  0  0  0
    4.4398   -6.8607    0.0000 C   0  0  1  0  0  0  0  0  0  0  0  0
    3.2023   -4.7173    0.0000 C   0  0  0  0  0  0  0  0  0  0  0  0
    3.2023   -7.5752    0.0000 O   0  0  0  0  0  0  0  0  0  0  0  0
    2.3773   -6.1463    0.0000 O   0  0  0  0  0  0  0  0  0  0  0  0
    4.8523   -7.5752    0.0000 O   0  0  0  0  0  0  0  0  0  0  0  0
    2.3773   -4.7173    0.0000 O   0  0  0  0  0  0  0  0  0  0  0  0
  1  2  2  0  0  0  0
  2  3  1  0  0  0  0
  3  4  2  0  0  0  0
  4  5  1  0  0  0  0
  5  6  2  0  0  0  0
  6  1  1  0  0  0  0
  4  7  1  0  0  0  0
  7  8  1  0  0  0  0
  8  9  1  0  0  0  0
  9 10  2  0  0  0  0
 10  5  1  0  0  0  0
  8 11  2  0  0  0  0
  6 12  1  0  0  0  0
  2 13  1  0  0  0  0
 13 14  1  0  0  0  0
  1 15  1  0  0  0  0
 16 15  1  1  0  0  0
 16 17  1  0  0  0  0
 17 18  1  0  0  0  0
 18 19  1  0  0  0  0
 19 20  1  0  0  0  0
 20 21  1  0  0  0  0
 21 16  1  0  0  0  0
 18 22  1  1  0  0  0
 20 23  1  1  0  0  0
 19 24  1  6  0  0  0
 21 25  1  6  0  0  0
 22 26  1  0  0  0  0
M  END
>  <cdx:fragmentId>
5

$$$$
