95903.cdx
  Mrv1902 05222410252D          

 10 10  0  0  0  0            999 V2000
    6.8181   -8.4975    0.0000 C   0  0  0  0  0  0  0  0  0  0  0  0
    6.8181   -9.3225    0.0000 C   0  0  0  0  0  0  0  0  0  0  0  0
    7.5325   -9.7350    0.0000 C   0  0  0  0  0  0  0  0  0  0  0  0
    8.2470   -9.3225    0.0000 C   0  0  0  0  0  0  0  0  0  0  0  0
    8.2470   -8.4975    0.0000 C   0  0  0  0  0  0  0  0  0  0  0  0
    7.5325   -8.0850    0.0000 C   0  0  0  0  0  0  0  0  0  0  0  0
    6.1036   -9.7350    0.0000 C   0  0  0  0  0  0  0  0  0  0  0  0
    7.5325   -7.2600    0.0000 C   0  0  0  0  0  0  0  0  0  0  0  0
    6.8181   -6.8475    0.0000 C   0  0  0  0  0  0  0  0  0  0  0  0
    8.2470   -6.8475    0.0000 C   0  0  0  0  0  0  0  0  0  0  0  0
  1  2  1  0  0  0  0
  2  3  1  0  0  0  0
  3  4  1  0  0  0  0
  4  5  2  0  0  0  0
  5  6  1  0  0  0  0
  6  1  1  0  0  0  0
  2  7  1  0  0  0  0
  6  8  1  0  0  0  0
  8  9  2  0  0  0  0
  8 10  1  0  0  0  0
M  END
>  <cdx:fragmentId>
5

$$$$
