95904.cdx
  Mrv1902 05222410242D          

 60 66  0  0  0  0            999 V2000
    8.7621   -6.0042    0.0000 C   0  0  0  0  0  0  0  0  0  0  0  0
    9.4766   -5.5917    0.0000 C   0  0  0  0  0  0  0  0  0  0  0  0
   10.1910   -6.0042    0.0000 C   0  0  0  0  0  0  0  0  0  0  0  0
   10.1910   -6.8292    0.0000 C   0  0  0  0  0  0  0  0  0  0  0  0
    9.4766   -7.2417    0.0000 C   0  0  2  0  0  0  0  0  0  0  0  0
    9.4766   -8.0667    0.0000 C   0  0  0  0  0  0  0  0  0  0  0  0
    8.7621   -8.4792    0.0000 C   0  0  0  0  0  0  0  0  0  0  0  0
    8.0476   -8.0667    0.0000 C   0  0  1  0  0  0  0  0  0  0  0  0
    7.3331   -8.4792    0.0000 C   0  0  2  0  0  0  0  0  0  0  0  0
    7.3331   -9.3042    0.0000 C   0  0  0  0  0  0  0  0  0  0  0  0
    6.6187   -9.7167    0.0000 C   0  0  0  0  0  0  0  0  0  0  0  0
    5.9042   -9.3042    0.0000 C   0  0  1  0  0  0  0  0  0  0  0  0
    5.1897   -9.7167    0.0000 C   0  0  2  0  0  0  0  0  0  0  0  0
    4.4753   -9.3042    0.0000 C   0  0  2  0  0  0  0  0  0  0  0  0
    4.4753   -8.4792    0.0000 C   0  0  0  0  0  0  0  0  0  0  0  0
    5.1897   -8.0667    0.0000 C   0  0  0  0  0  0  0  0  0  0  0  0
    5.9042   -8.4792    0.0000 C   0  0  2  0  0  0  0  0  0  0  0  0
    6.6187   -8.0667    0.0000 C   0  0  1  0  0  0  0  0  0  0  0  0
    6.6187   -7.2417    0.0000 C   0  0  0  0  0  0  0  0  0  0  0  0
    7.3331   -6.8292    0.0000 C   0  0  0  0  0  0  0  0  0  0  0  0
    8.0476   -7.2417    0.0000 C   0  0  0  0  0  0  0  0  0  0  0  0
    8.7621   -6.8292    0.0000 C   0  0  2  0  0  0  0  0  0  0  0  0
   10.1910   -7.6542    0.0000 C   0  0  0  0  0  0  0  0  0  0  0  0
   10.1910   -8.4792    0.0000 O   0  0  0  0  0  0  0  0  0  0  0  0
   10.9055   -7.2417    0.0000 O   0  0  0  0  0  0  0  0  0  0  0  0
    5.9042   -7.6542    0.0000 C   0  0  0  0  0  0  0  0  0  0  0  0
    4.7772  -10.4312    0.0000 C   0  0  0  0  0  0  0  0  0  0  0  0
    9.0641   -4.8772    0.0000 C   0  0  0  0  0  0  0  0  0  0  0  0
    9.8891   -4.8772    0.0000 C   0  0  0  0  0  0  0  0  0  0  0  0
    3.7608   -9.7167    0.0000 O   0  0  0  0  0  0  0  0  0  0  0  0
    5.6022  -10.4312    0.0000 C   0  0  0  0  0  0  0  0  0  0  0  0
    5.1897  -11.1456    0.0000 O   0  0  0  0  0  0  0  0  0  0  0  0
    5.9042  -10.1292    0.0000 H   0  0  0  0  0  0  0  0  0  0  0  0
    8.7621   -7.6542    0.0000 H   0  0  0  0  0  0  0  0  0  0  0  0
    7.3331   -7.6542    0.0000 C   0  0  0  0  0  0  0  0  0  0  0  0
    8.0476   -8.8917    0.0000 C   0  0  0  0  0  0  0  0  0  0  0  0
    2.3270   -8.0599    0.0000 C   0  0  2  0  0  0  0  0  0  0  0  0
    1.6132   -8.4735    0.0000 C   0  0  2  0  0  0  0  0  0  0  0  0
    1.6145   -9.2985    0.0000 C   0  0  1  0  0  0  0  0  0  0  0  0
    2.3296   -9.7099    0.0000 C   0  0  2  0  0  0  0  0  0  0  0  0
    3.0434   -9.2963    0.0000 C   0  0  1  0  0  0  0  0  0  0  0  0
    3.0421   -8.4713    0.0000 O   0  0  0  0  0  0  0  0  0  0  0  0
    2.3258   -7.2349    0.0000 C   0  0  0  0  0  0  0  0  0  0  0  0
    0.9006   -9.7121    0.0000 O   0  0  0  0  0  0  0  0  0  0  0  0
    0.8981   -8.0621    0.0000 O   0  0  0  0  0  0  0  0  0  0  0  0
    2.3308  -10.5349    0.0000 O   0  0  0  0  0  0  0  0  0  0  0  0
    1.6107   -6.8235    0.0000 O   0  0  0  0  0  0  0  0  0  0  0  0
    3.0396   -6.8213    0.0000 O   0  0  0  0  0  0  0  0  0  0  0  0
   12.3279   -8.9027    0.0000 C   0  0  2  0  0  0  0  0  0  0  0  0
   13.0436   -8.4923    0.0000 C   0  0  2  0  0  0  0  0  0  0  0  0
   13.0460   -7.6673    0.0000 C   0  0  1  0  0  0  0  0  0  0  0  0
   12.3327   -7.2527    0.0000 C   0  0  2  0  0  0  0  0  0  0  0  0
   11.6170   -7.6632    0.0000 C   0  0  1  0  0  0  0  0  0  0  0  0
   11.6147   -8.4882    0.0000 O   0  0  0  0  0  0  0  0  0  0  0  0
   12.3256   -9.7277    0.0000 C   0  0  0  0  0  0  0  0  0  0  0  0
   13.7616   -7.2568    0.0000 O   0  0  0  0  0  0  0  0  0  0  0  0
   13.7569   -8.9068    0.0000 O   0  0  0  0  0  0  0  0  0  0  0  0
   12.3351   -6.4277    0.0000 O   0  0  0  0  0  0  0  0  0  0  0  0
   13.0389  -10.1423    0.0000 O   0  0  0  0  0  0  0  0  0  0  0  0
    6.6187   -8.8917    0.0000 H   0  0  0  0  0  0  0  0  0  0  0  0
  1  2  1  0  0  0  0
  2  3  1  0  0  0  0
  3  4  1  0  0  0  0
  4  5  1  0  0  0  0
  5  6  1  0  0  0  0
  6  7  1  0  0  0  0
  7  8  1  0  0  0  0
  8  9  1  0  0  0  0
  9 10  1  0  0  0  0
 10 11  1  0  0  0  0
 11 12  1  0  0  0  0
 12 13  1  0  0  0  0
 13 14  1  0  0  0  0
 14 15  1  0  0  0  0
 15 16  1  0  0  0  0
 16 17  1  0  0  0  0
 12 17  1  0  0  0  0
 17 18  1  0  0  0  0
  9 18  1  0  0  0  0
 18 19  1  0  0  0  0
 19 20  1  0  0  0  0
 20 21  2  0  0  0  0
  8 21  1  0  0  0  0
 21 22  1  0  0  0  0
  5 22  1  0  0  0  0
  1 22  1  0  0  0  0
 23 24  2  0  0  0  0
 23 25  1  0  0  0  0
  5 23  1  1  0  0  0
 17 26  1  1  0  0  0
 13 27  1  1  0  0  0
  2 28  1  0  0  0  0
  2 29  1  0  0  0  0
 14 30  1  1  0  0  0
 31 32  2  0  0  0  0
 13 31  1  6  0  0  0
 12 33  1  6  0  0  0
 22 34  1  1  0  0  0
  9 35  1  1  0  0  0
  8 36  1  6  0  0  0
 37 38  1  0  0  0  0
 38 39  1  0  0  0  0
 39 40  1  0  0  0  0
 40 41  1  0  0  0  0
 41 42  1  0  0  0  0
 42 37  1  0  0  0  0
 37 43  1  1  0  0  0
 39 44  1  1  0  0  0
 38 45  1  6  0  0  0
 40 46  1  6  0  0  0
 43 47  1  0  0  0  0
 43 48  2  0  0  0  0
 41 30  1  1  0  0  0
 49 50  1  0  0  0  0
 50 51  1  0  0  0  0
 51 52  1  0  0  0  0
 52 53  1  0  0  0  0
 53 54  1  0  0  0  0
 54 49  1  0  0  0  0
 49 55  1  1  0  0  0
 51 56  1  1  0  0  0
 50 57  1  6  0  0  0
 52 58  1  6  0  0  0
 55 59  1  0  0  0  0
 53 25  1  1  0  0  0
 18 60  1  6  0  0  0
M  END
>  <cdx:fragmentId>
5

$$$$
