95907.cdx
  Mrv1902 05222410232D          

 68 76  0  0  0  0            999 V2000
   16.2400   -9.6422    0.0000 H   0  0  0  0  0  0  0  0  0  0  0  0
   14.7549   -7.6800    0.0000 H   0  0  0  0  0  0  0  0  0  0  0  0
   14.3898  -10.3045    0.0000 H   0  0  0  0  0  0  0  0  0  0  0  0
   13.6779   -9.0715    0.0000 H   0  0  0  0  0  0  0  0  0  0  0  0
   12.9608  -10.3136    0.0000 H   0  0  0  0  0  0  0  0  0  0  0  0
   12.2543  -11.5557    0.0000 H   0  0  0  0  0  0  0  0  0  0  0  0
   10.8201   -9.9148    0.0000 C   0  0  0  0  0  0  0  0  0  0  0  0
   10.8254  -10.7398    0.0000 C   0  0  1  0  0  0  0  0  0  0  0  0
   11.5425  -11.1477    0.0000 C   0  0  0  0  0  0  0  0  0  0  0  0
   12.2543  -10.7307    0.0000 C   0  0  1  0  0  0  0  0  0  0  0  0
   12.2490   -9.9057    0.0000 C   0  0  2  0  0  0  0  0  0  0  0  0
   11.5319   -9.4978    0.0000 C   0  0  0  0  0  0  0  0  0  0  0  0
   12.9714  -11.1386    0.0000 C   0  0  0  0  0  0  0  0  0  0  0  0
   13.6832  -10.7215    0.0000 C   0  0  0  0  0  0  0  0  0  0  0  0
   13.6779   -9.8965    0.0000 C   0  0  2  0  0  0  0  0  0  0  0  0
   12.9608   -9.4886    0.0000 C   0  0  2  0  0  0  0  0  0  0  0  0
   14.3898   -9.4795    0.0000 C   0  0  1  0  0  0  0  0  0  0  0  0
   14.3845   -8.6545    0.0000 C   0  0  2  0  0  0  0  0  0  0  0  0
   13.6674   -8.2466    0.0000 C   0  0  0  0  0  0  0  0  0  0  0  0
   12.9556   -8.6636    0.0000 C   0  0  0  0  0  0  0  0  0  0  0  0
   15.1760   -9.7294    0.0000 C   0  0  0  0  0  0  0  0  0  0  0  0
   15.6566   -9.0588    0.0000 C   0  0  1  0  0  0  0  0  0  0  0  0
   15.1674   -8.3945    0.0000 C   0  0  2  0  0  0  0  0  0  0  0  0
   16.4396   -8.7989    0.0000 O   0  0  0  0  0  0  0  0  0  0  0  0
   16.4343   -7.9739    0.0000 C   0  0  2  0  0  0  0  0  0  0  0  0
   15.6481   -7.7240    0.0000 C   0  0  1  0  0  0  0  0  0  0  0  0
   17.1901   -8.3046    0.0000 N   0  0  0  0  0  0  0  0  0  0  0  0
   17.8544   -7.8154    0.0000 C   0  0  0  0  0  0  0  0  0  0  0  0
   17.7630   -6.9955    0.0000 C   0  0  1  0  0  0  0  0  0  0  0  0
   17.0071   -6.6648    0.0000 C   0  0  0  0  0  0  0  0  0  0  0  0
   16.3428   -7.1540    0.0000 C   0  0  0  0  0  0  0  0  0  0  0  0
   18.4273   -6.5063    0.0000 C   0  0  0  0  0  0  0  0  0  0  0  0
   10.1136  -11.1569    0.0000 O   0  0  0  0  0  0  0  0  0  0  0  0
    8.6778  -11.1474    0.0000 C   0  0  1  0  0  0  0  0  0  0  0  0
    9.3915  -10.7337    0.0000 C   0  0  1  0  0  0  0  0  0  0  0  0
    9.3901   -9.9087    0.0000 O   0  0  0  0  0  0  0  0  0  0  0  0
    8.6750   -9.4974    0.0000 C   0  0  1  0  0  0  0  0  0  0  0  0
    7.9612   -9.9111    0.0000 C   0  0  1  0  0  0  0  0  0  0  0  0
    7.9626  -10.7361    0.0000 C   0  0  2  0  0  0  0  0  0  0  0  0
    7.2460   -9.4998    0.0000 O   0  0  0  0  0  0  0  0  0  0  0  0
    6.5323   -9.9135    0.0000 O   0  0  0  0  0  0  0  0  0  0  0  0
    6.5337  -10.7385    0.0000 C   0  0  1  0  0  0  0  0  0  0  0  0
    7.2488  -11.1498    0.0000 O   0  0  0  0  0  0  0  0  0  0  0  0
    5.8171   -9.5022    0.0000 C   0  0  1  0  0  0  0  0  0  0  0  0
    5.1033   -9.9159    0.0000 C   0  0  2  0  0  0  0  0  0  0  0  0
    5.1047  -10.7409    0.0000 C   0  0  1  0  0  0  0  0  0  0  0  0
    5.8199  -11.1522    0.0000 C   0  0  1  0  0  0  0  0  0  0  0  0
    8.6791  -11.9724    0.0000 O   0  0  0  0  0  0  0  0  0  0  0  0
    8.2908  -12.7003    0.0000 C   0  0  2  0  0  0  0  0  0  0  0  0
    7.4663  -12.7279    0.0000 O   0  0  0  0  0  0  0  0  0  0  0  0
    7.0780  -13.4558    0.0000 C   0  0  2  0  0  0  0  0  0  0  0  0
    7.5142  -14.1561    0.0000 C   0  0  1  0  0  0  0  0  0  0  0  0
    8.3387  -14.1284    0.0000 C   0  0  2  0  0  0  0  0  0  0  0  0
    8.7270  -13.4005    0.0000 C   0  0  1  0  0  0  0  0  0  0  0  0
    8.6736   -8.6724    0.0000 C   0  0  0  0  0  0  0  0  0  0  0  0
    7.9591   -8.2599    0.0000 O   0  0  0  0  0  0  0  0  0  0  0  0
    5.8157   -8.6772    0.0000 C   0  0  0  0  0  0  0  0  0  0  0  0
    5.1012   -8.2647    0.0000 O   0  0  0  0  0  0  0  0  0  0  0  0
    6.2530  -13.4558    0.0000 C   0  0  0  0  0  0  0  0  0  0  0  0
   14.3845   -7.8295    0.0000 C   0  0  0  0  0  0  0  0  0  0  0  0
   12.2437   -9.0807    0.0000 C   0  0  0  0  0  0  0  0  0  0  0  0
    4.3909  -11.1546    0.0000 O   0  0  0  0  0  0  0  0  0  0  0  0
    7.1259  -14.8840    0.0000 O   0  0  0  0  0  0  0  0  0  0  0  0
    4.3882   -9.5046    0.0000 O   0  0  0  0  0  0  0  0  0  0  0  0
    5.8213  -11.9772    0.0000 O   0  0  0  0  0  0  0  0  0  0  0  0
    8.7749  -14.8287    0.0000 O   0  0  0  0  0  0  0  0  0  0  0  0
    9.5516  -13.3729    0.0000 O   0  0  0  0  0  0  0  0  0  0  0  0
   15.3881   -6.9410    0.0000 C   0  0  0  0  0  0  0  0  0  0  0  0
 22  1  1  6  0  0  0
 23  2  1  6  0  0  0
 17  3  1  6  0  0  0
 15  4  1  1  0  0  0
 16  5  1  6  0  0  0
 10  6  1  6  0  0  0
  7  8  1  0  0  0  0
  8  9  1  0  0  0  0
  9 10  1  0  0  0  0
 10 11  1  0  0  0  0
 11 12  1  0  0  0  0
 12  7  1  0  0  0  0
 10 13  1  0  0  0  0
 13 14  1  0  0  0  0
 14 15  1  0  0  0  0
 15 16  1  0  0  0  0
 16 11  1  0  0  0  0
 15 17  1  0  0  0  0
 17 18  1  0  0  0  0
 18 19  1  0  0  0  0
 19 20  1  0  0  0  0
 20 16  1  0  0  0  0
 17 21  1  0  0  0  0
 21 22  1  0  0  0  0
 22 23  1  0  0  0  0
 23 18  1  0  0  0  0
 22 24  1  0  0  0  0
 25 24  1  1  0  0  0
 25 26  1  0  0  0  0
 26 23  1  0  0  0  0
 25 27  1  0  0  0  0
 27 28  1  0  0  0  0
 28 29  1  0  0  0  0
 29 30  1  0  0  0  0
 30 31  1  0  0  0  0
 31 25  1  0  0  0  0
 29 32  1  1  0  0  0
  8 33  1  1  0  0  0
 34 35  1  0  0  0  0
 35 36  1  0  0  0  0
 36 37  1  0  0  0  0
 37 38  1  0  0  0  0
 38 39  1  0  0  0  0
 39 34  1  0  0  0  0
 38 40  1  1  0  0  0
 41 42  1  0  0  0  0
 42 43  1  1  0  0  0
 39 43  1  1  0  0  0
 41 44  1  0  0  0  0
 44 45  1  0  0  0  0
 45 46  1  0  0  0  0
 46 47  1  0  0  0  0
 47 42  1  0  0  0  0
 34 48  1  6  0  0  0
 49 48  1  1  0  0  0
 49 50  1  0  0  0  0
 50 51  1  0  0  0  0
 51 52  1  0  0  0  0
 52 53  1  0  0  0  0
 53 54  1  0  0  0  0
 54 49  1  0  0  0  0
 37 55  1  1  0  0  0
 55 56  1  0  0  0  0
 44 57  1  1  0  0  0
 57 58  1  0  0  0  0
 51 59  1  6  0  0  0
 18 60  1  1  0  0  0
 11 61  1  1  0  0  0
 46 62  1  1  0  0  0
 52 63  1  1  0  0  0
 45 64  1  6  0  0  0
 47 65  1  6  0  0  0
 53 66  1  6  0  0  0
 54 67  1  6  0  0  0
 26 68  1  6  0  0  0
 35 33  1  1  0  0  0
M  END
>  <cdx:fragmentId>
130

$$$$
