95909.cdx
  Mrv1902 05222410222D          

 47 51  0  0  0  0            999 V2000
    2.0358   -6.5881    0.0000 C   0  0  2  0  0  0  0  0  0  0  0  0
    1.6190   -7.3000    0.0000 C   0  0  2  0  0  0  0  0  0  0  0  0
    2.0272   -8.0170    0.0000 C   0  0  1  0  0  0  0  0  0  0  0  0
    2.8522   -8.0220    0.0000 C   0  0  2  0  0  0  0  0  0  0  0  0
    3.2690   -7.3100    0.0000 C   0  0  1  0  0  0  0  0  0  0  0  0
    2.8608   -6.5931    0.0000 O   0  0  0  0  0  0  0  0  0  0  0  0
    1.6277   -5.8711    0.0000 C   0  0  0  0  0  0  0  0  0  0  0  0
    1.6104   -8.7289    0.0000 O   0  0  0  0  0  0  0  0  0  0  0  0
    4.0940   -7.3150    0.0000 O   0  0  0  0  0  0  0  0  0  0  0  0
    0.7940   -7.2950    0.0000 O   0  0  0  0  0  0  0  0  0  0  0  0
    3.2603   -8.7389    0.0000 O   0  0  0  0  0  0  0  0  0  0  0  0
    0.8027   -5.8661    0.0000 O   0  0  0  0  0  0  0  0  0  0  0  0
    4.8084   -7.7275    0.0000 C   0  0  0  0  0  0  0  0  0  0  0  0
    4.8084   -8.5525    0.0000 C   0  0  0  0  0  0  0  0  0  0  0  0
    5.5229   -8.9650    0.0000 C   0  0  0  0  0  0  0  0  0  0  0  0
    6.2374   -8.5525    0.0000 C   0  0  0  0  0  0  0  0  0  0  0  0
    6.2374   -7.7275    0.0000 C   0  0  0  0  0  0  0  0  0  0  0  0
    5.5229   -7.3150    0.0000 C   0  0  0  0  0  0  0  0  0  0  0  0
    4.0940   -8.9650    0.0000 O   0  0  0  0  0  0  0  0  0  0  0  0
    4.0940   -9.7900    0.0000 C   0  0  0  0  0  0  0  0  0  0  0  0
    6.9519   -8.9650    0.0000 C   0  0  0  0  0  0  0  0  0  0  0  0
    7.6663   -8.5525    0.0000 O   0  0  0  0  0  0  0  0  0  0  0  0
    6.9519   -9.7900    0.0000 O   0  0  0  0  0  0  0  0  0  0  0  0
    7.6663  -10.2025    0.0000 C   0  0  0  0  0  0  0  0  0  0  0  0
    7.6663  -11.0275    0.0000 C   0  0  2  0  0  0  0  0  0  0  0  0
    6.9519  -11.4400    0.0000 C   0  0  2  0  0  0  0  0  0  0  0  0
    6.9519  -12.2650    0.0000 C   0  0  1  0  0  0  0  0  0  0  0  0
    7.6663  -12.6775    0.0000 C   0  0  2  0  0  0  0  0  0  0  0  0
    8.3808  -12.2650    0.0000 C   0  0  1  0  0  0  0  0  0  0  0  0
    8.3808  -11.4400    0.0000 O   0  0  0  0  0  0  0  0  0  0  0  0
    6.2374  -12.6775    0.0000 O   0  0  0  0  0  0  0  0  0  0  0  0
    9.0953  -12.6775    0.0000 O   0  0  0  0  0  0  0  0  0  0  0  0
    6.2374  -11.0275    0.0000 O   0  0  0  0  0  0  0  0  0  0  0  0
    7.6663  -13.5025    0.0000 O   0  0  0  0  0  0  0  0  0  0  0  0
    9.8097  -12.2650    0.0000 C   0  0  0  0  0  0  0  0  0  0  0  0
    9.8097  -11.4400    0.0000 C   0  0  0  0  0  0  0  0  0  0  0  0
    9.0953  -11.0275    0.0000 O   0  0  0  0  0  0  0  0  0  0  0  0
    9.0953  -10.2025    0.0000 C   0  0  0  0  0  0  0  0  0  0  0  0
   10.5242  -12.6775    0.0000 C   0  0  0  0  0  0  0  0  0  0  0  0
   11.2387  -12.2650    0.0000 C   0  0  0  0  0  0  0  0  0  0  0  0
   11.2387  -11.4400    0.0000 C   0  0  0  0  0  0  0  0  0  0  0  0
   10.5242  -11.0275    0.0000 C   0  0  0  0  0  0  0  0  0  0  0  0
   11.9531  -12.6775    0.0000 O   0  0  0  0  0  0  0  0  0  0  0  0
   12.6676  -12.2650    0.0000 C   0  0  0  0  0  0  0  0  0  0  0  0
   12.6676  -11.4400    0.0000 C   0  0  0  0  0  0  0  0  0  0  0  0
   11.9531  -11.0275    0.0000 C   0  0  0  0  0  0  0  0  0  0  0  0
   13.3821  -12.6775    0.0000 O   0  0  0  0  0  0  0  0  0  0  0  0
  1  2  1  0  0  0  0
  2  3  1  0  0  0  0
  3  4  1  0  0  0  0
  4  5  1  0  0  0  0
  5  6  1  0  0  0  0
  6  1  1  0  0  0  0
  1  7  1  1  0  0  0
  3  8  1  1  0  0  0
  5  9  1  1  0  0  0
  2 10  1  6  0  0  0
  4 11  1  6  0  0  0
  7 12  1  0  0  0  0
  9 13  1  0  0  0  0
 13 14  2  0  0  0  0
 14 15  1  0  0  0  0
 15 16  2  0  0  0  0
 16 17  1  0  0  0  0
 17 18  2  0  0  0  0
 18 13  1  0  0  0  0
 14 19  1  0  0  0  0
 19 20  1  0  0  0  0
 16 21  1  0  0  0  0
 21 22  2  0  0  0  0
 21 23  1  0  0  0  0
 23 24  1  0  0  0  0
 25 24  1  1  0  0  0
 25 26  1  0  0  0  0
 26 27  1  0  0  0  0
 27 28  1  0  0  0  0
 28 29  1  0  0  0  0
 29 30  1  0  0  0  0
 30 25  1  0  0  0  0
 27 31  1  1  0  0  0
 29 32  1  1  0  0  0
 26 33  1  6  0  0  0
 28 34  1  6  0  0  0
 32 35  1  0  0  0  0
 35 36  2  0  0  0  0
 36 37  1  0  0  0  0
 37 38  1  0  0  0  0
 35 39  1  0  0  0  0
 39 40  2  0  0  0  0
 40 41  1  0  0  0  0
 41 42  2  0  0  0  0
 42 36  1  0  0  0  0
 40 43  1  0  0  0  0
 43 44  1  0  0  0  0
 44 45  1  0  0  0  0
 45 46  2  0  0  0  0
 46 41  1  0  0  0  0
 44 47  2  0  0  0  0
M  END
>  <cdx:fragmentId>
5

$$$$
