95915.cdx
  Mrv1902 05222410252D          

 26 28  0  0  0  0            999 V2000
    7.5529   -8.6229    0.0000 C   0  0  0  0  0  0  0  0  0  0  0  0
    7.5529   -7.7979    0.0000 C   0  0  0  0  0  0  0  0  0  0  0  0
    6.8384   -7.3854    0.0000 C   0  0  0  0  0  0  0  0  0  0  0  0
    6.1239   -7.7979    0.0000 C   0  0  0  0  0  0  0  0  0  0  0  0
    5.4095   -7.3854    0.0000 C   0  0  0  0  0  0  0  0  0  0  0  0
    4.6950   -7.7979    0.0000 C   0  0  0  0  0  0  0  0  0  0  0  0
    4.6950   -8.6229    0.0000 C   0  0  0  0  0  0  0  0  0  0  0  0
    5.4095   -9.0354    0.0000 C   0  0  0  0  0  0  0  0  0  0  0  0
    6.1239   -8.6229    0.0000 C   0  0  0  0  0  0  0  0  0  0  0  0
    6.8384   -9.0354    0.0000 O   0  0  0  0  0  0  0  0  0  0  0  0
    6.8384   -6.5604    0.0000 O   0  0  0  0  0  0  0  0  0  0  0  0
    5.4095   -9.8604    0.0000 O   0  0  0  0  0  0  0  0  0  0  0  0
    4.6950  -10.2729    0.0000 C   0  0  0  0  0  0  0  0  0  0  0  0
    3.9805   -7.3854    0.0000 O   0  0  0  0  0  0  0  0  0  0  0  0
    3.2661   -7.7979    0.0000 C   0  0  0  0  0  0  0  0  0  0  0  0
    8.2674   -9.0354    0.0000 C   0  0  0  0  0  0  0  0  0  0  0  0
    8.9818   -8.6229    0.0000 C   0  0  0  0  0  0  0  0  0  0  0  0
    9.6963   -9.0354    0.0000 C   0  0  0  0  0  0  0  0  0  0  0  0
    9.6963   -9.8604    0.0000 C   0  0  0  0  0  0  0  0  0  0  0  0
    8.9818  -10.2729    0.0000 C   0  0  0  0  0  0  0  0  0  0  0  0
    8.2674   -9.8604    0.0000 C   0  0  0  0  0  0  0  0  0  0  0  0
   10.4108   -8.6229    0.0000 O   0  0  0  0  0  0  0  0  0  0  0  0
   11.1252   -9.0354    0.0000 C   0  0  0  0  0  0  0  0  0  0  0  0
   10.4108  -10.2729    0.0000 O   0  0  0  0  0  0  0  0  0  0  0  0
    3.9805   -9.0354    0.0000 O   0  0  0  0  0  0  0  0  0  0  0  0
    5.4095   -6.5604    0.0000 O   0  0  0  0  0  0  0  0  0  0  0  0
  1  2  2  0  0  0  0
  2  3  1  0  0  0  0
  3  4  1  0  0  0  0
  4  5  1  0  0  0  0
  5  6  2  0  0  0  0
  6  7  1  0  0  0  0
  7  8  2  0  0  0  0
  8  9  1  0  0  0  0
  4  9  2  0  0  0  0
  9 10  1  0  0  0  0
  1 10  1  0  0  0  0
  3 11  2  0  0  0  0
 12 13  1  0  0  0  0
  8 12  1  0  0  0  0
 14 15  1  0  0  0  0
  6 14  1  0  0  0  0
 16 17  1  0  0  0  0
 17 18  2  0  0  0  0
 18 19  1  0  0  0  0
 19 20  2  0  0  0  0
 20 21  1  0  0  0  0
 16 21  2  0  0  0  0
 22 23  1  0  0  0  0
 18 22  1  0  0  0  0
 19 24  1  0  0  0  0
  1 16  1  0  0  0  0
  7 25  1  0  0  0  0
  5 26  1  0  0  0  0
M  END
>  <cdx:groupId>
82

>  <cdx:fragmentId>
5

$$$$
