95919.cdx
  Mrv1902 05222410212D          

 47 52  0  0  0  0            999 V2000
    2.6603   -9.5565    0.0000 C   0  0  0  0  0  0  0  0  0  0  0  0
    2.6603   -8.7315    0.0000 C   0  0  0  0  0  0  0  0  0  0  0  0
    3.3747   -8.3190    0.0000 C   0  0  0  0  0  0  0  0  0  0  0  0
    3.3747   -9.9690    0.0000 C   0  0  2  0  0  0  0  0  0  0  0  0
    3.7872  -10.6835    0.0000 C   0  0  0  0  0  0  0  0  0  0  0  0
    2.9622  -10.6835    0.0000 C   0  0  0  0  0  0  0  0  0  0  0  0
    4.0892   -9.5565    0.0000 C   0  0  2  0  0  0  0  0  0  0  0  0
    4.0892  -10.3815    0.0000 H   0  0  0  0  0  0  0  0  0  0  0  0
    4.8037   -9.9690    0.0000 C   0  0  0  0  0  0  0  0  0  0  0  0
    5.5181   -9.5565    0.0000 C   0  0  0  0  0  0  0  0  0  0  0  0
    5.5181   -8.7315    0.0000 C   0  0  1  0  0  0  0  0  0  0  0  0
    5.5181   -7.9065    0.0000 C   0  0  0  0  0  0  0  0  0  0  0  0
    6.2326   -8.3190    0.0000 C   0  0  2  0  0  0  0  0  0  0  0  0
    6.2326   -9.1440    0.0000 C   0  0  0  0  0  0  0  0  0  0  0  0
    6.9471   -8.7315    0.0000 C   0  0  0  0  0  0  0  0  0  0  0  0
    7.6616   -8.3190    0.0000 C   0  0  0  0  0  0  0  0  0  0  0  0
    7.6616   -7.4940    0.0000 C   0  0  1  0  0  0  0  0  0  0  0  0
    8.3760   -7.9065    0.0000 C   0  0  0  0  0  0  0  0  0  0  0  0
    8.3760   -7.0815    0.0000 C   0  0  0  0  0  0  0  0  0  0  0  0
    8.3760   -6.2565    0.0000 C   0  0  0  0  0  0  0  0  0  0  0  0
    7.6616   -5.8440    0.0000 C   0  0  1  0  0  0  0  0  0  0  0  0
    7.6616   -5.0190    0.0000 C   0  0  0  0  0  0  0  0  0  0  0  0
    6.9471   -6.2565    0.0000 C   0  0  0  0  0  0  0  0  0  0  0  0
    6.2326   -5.8440    0.0000 C   0  0  0  0  0  0  0  0  0  0  0  0
    6.9471   -7.0815    0.0000 C   0  0  0  0  0  0  0  0  0  0  0  0
    6.2326   -7.4940    0.0000 C   0  0  0  0  0  0  0  0  0  0  0  0
    5.5181   -7.0815    0.0000 C   0  0  0  0  0  0  0  0  0  0  0  0
    4.8037   -7.4940    0.0000 C   0  0  0  0  0  0  0  0  0  0  0  0
    4.8037   -8.3190    0.0000 C   0  0  2  0  0  0  0  0  0  0  0  0
    4.0892   -8.7315    0.0000 C   0  0  1  0  0  0  0  0  0  0  0  0
    4.0892   -7.9065    0.0000 C   0  0  0  0  0  0  0  0  0  0  0  0
    8.3760   -8.7315    0.0000 O   0  0  0  0  0  0  0  0  0  0  0  0
    9.0905   -7.4940    0.0000 O   0  0  0  0  0  0  0  0  0  0  0  0
    3.3747  -11.3980    0.0000 O   0  0  0  0  0  0  0  0  0  0  0  0
    1.9458   -9.9690    0.0000 O   0  0  0  0  0  0  0  0  0  0  0  0
    4.8037   -9.1440    0.0000 H   0  0  0  0  0  0  0  0  0  0  0  0
   10.4850   -9.1566    0.0000 C   0  0  2  0  0  0  0  0  0  0  0  0
   11.2062   -8.7559    0.0000 C   0  0  2  0  0  0  0  0  0  0  0  0
   11.2198   -7.9310    0.0000 C   0  0  1  0  0  0  0  0  0  0  0  0
   10.5122   -7.5068    0.0000 C   0  0  2  0  0  0  0  0  0  0  0  0
    9.7911   -7.9075    0.0000 C   0  0  1  0  0  0  0  0  0  0  0  0
    9.7774   -8.7323    0.0000 O   0  0  0  0  0  0  0  0  0  0  0  0
   10.4714   -9.9815    0.0000 C   0  0  0  0  0  0  0  0  0  0  0  0
   11.9410   -7.5304    0.0000 O   0  0  0  0  0  0  0  0  0  0  0  0
   11.9137   -9.1802    0.0000 O   0  0  0  0  0  0  0  0  0  0  0  0
   10.5259   -6.6819    0.0000 O   0  0  0  0  0  0  0  0  0  0  0  0
   11.1789  -10.4057    0.0000 O   0  0  0  0  0  0  0  0  0  0  0  0
  1  2  1  0  0  0  0
  2  3  1  0  0  0  0
  1  4  1  0  0  0  0
  4  5  1  6  0  0  0
  4  6  1  1  0  0  0
  4  7  1  0  0  0  0
  7  8  1  6  0  0  0
  7  9  1  0  0  0  0
  9 10  1  0  0  0  0
 10 11  1  0  0  0  0
 11 12  1  1  0  0  0
 11 13  1  0  0  0  0
 13 14  1  6  0  0  0
 13 15  1  0  0  0  0
 15 16  1  0  0  0  0
 16 17  1  0  0  0  0
 17 18  1  1  0  0  0
 17 19  1  0  0  0  0
 19 20  1  0  0  0  0
 20 21  1  0  0  0  0
 21 22  1  6  0  0  0
 21 23  1  0  0  0  0
 23 24  1  0  0  0  0
 23 25  2  0  0  0  0
 17 25  1  0  0  0  0
 25 26  1  0  0  0  0
 13 26  1  0  0  0  0
 26 27  2  0  0  0  0
 27 28  1  0  0  0  0
 28 29  1  0  0  0  0
 11 29  1  0  0  0  0
 29 30  1  0  0  0  0
  3 30  1  0  0  0  0
  7 30  1  0  0  0  0
 30 31  1  1  0  0  0
 18 32  2  0  0  0  0
 18 33  1  0  0  0  0
  5 34  1  0  0  0  0
  1 35  1  0  0  0  0
 29 36  1  6  0  0  0
 37 38  1  0  0  0  0
 38 39  1  0  0  0  0
 39 40  1  0  0  0  0
 40 41  1  0  0  0  0
 41 42  1  0  0  0  0
 42 37  1  0  0  0  0
 37 43  1  1  0  0  0
 39 44  1  1  0  0  0
 38 45  1  6  0  0  0
 40 46  1  6  0  0  0
 43 47  1  0  0  0  0
 41 33  1  1  0  0  0
M  END
>  <cdx:groupId>
114

>  <cdx:fragmentId>
5

$$$$
