95918.cdx
  Mrv1902 05222410212D          

 36 40  0  0  0  0            999 V2000
    4.3378   -9.5840    0.0000 C   0  0  0  0  0  0  0  0  0  0  0  0
    4.3378   -8.7590    0.0000 C   0  0  0  0  0  0  0  0  0  0  0  0
    5.0522   -8.3465    0.0000 C   0  0  0  0  0  0  0  0  0  0  0  0
    5.0522   -9.9965    0.0000 C   0  0  2  0  0  0  0  0  0  0  0  0
    5.4647  -10.7110    0.0000 C   0  0  0  0  0  0  0  0  0  0  0  0
    4.6397  -10.7110    0.0000 C   0  0  0  0  0  0  0  0  0  0  0  0
    5.7667   -9.5840    0.0000 C   0  0  2  0  0  0  0  0  0  0  0  0
    5.7667  -10.4090    0.0000 H   0  0  0  0  0  0  0  0  0  0  0  0
    6.4812   -9.9965    0.0000 C   0  0  0  0  0  0  0  0  0  0  0  0
    7.1956   -9.5840    0.0000 C   0  0  0  0  0  0  0  0  0  0  0  0
    7.1956   -8.7590    0.0000 C   0  0  1  0  0  0  0  0  0  0  0  0
    7.1956   -7.9340    0.0000 C   0  0  0  0  0  0  0  0  0  0  0  0
    7.9101   -8.3465    0.0000 C   0  0  2  0  0  0  0  0  0  0  0  0
    7.9101   -9.1715    0.0000 C   0  0  0  0  0  0  0  0  0  0  0  0
    8.6246   -8.7590    0.0000 C   0  0  0  0  0  0  0  0  0  0  0  0
    9.3391   -8.3465    0.0000 C   0  0  0  0  0  0  0  0  0  0  0  0
    9.3391   -7.5215    0.0000 C   0  0  1  0  0  0  0  0  0  0  0  0
   10.0535   -7.9340    0.0000 C   0  0  0  0  0  0  0  0  0  0  0  0
   10.0535   -7.1090    0.0000 C   0  0  0  0  0  0  0  0  0  0  0  0
   10.0535   -6.2840    0.0000 C   0  0  0  0  0  0  0  0  0  0  0  0
    9.3391   -5.8715    0.0000 C   0  0  1  0  0  0  0  0  0  0  0  0
    9.3391   -5.0465    0.0000 C   0  0  0  0  0  0  0  0  0  0  0  0
    8.6246   -6.2840    0.0000 C   0  0  0  0  0  0  0  0  0  0  0  0
    7.9101   -5.8715    0.0000 C   0  0  0  0  0  0  0  0  0  0  0  0
    8.6246   -7.1090    0.0000 C   0  0  0  0  0  0  0  0  0  0  0  0
    7.9101   -7.5215    0.0000 C   0  0  0  0  0  0  0  0  0  0  0  0
    7.1956   -7.1090    0.0000 C   0  0  0  0  0  0  0  0  0  0  0  0
    6.4812   -7.5215    0.0000 C   0  0  0  0  0  0  0  0  0  0  0  0
    6.4812   -8.3465    0.0000 C   0  0  2  0  0  0  0  0  0  0  0  0
    5.7667   -8.7590    0.0000 C   0  0  1  0  0  0  0  0  0  0  0  0
    5.7667   -7.9340    0.0000 C   0  0  0  0  0  0  0  0  0  0  0  0
   10.0535   -8.7590    0.0000 O   0  0  0  0  0  0  0  0  0  0  0  0
   10.7680   -7.5215    0.0000 O   0  0  0  0  0  0  0  0  0  0  0  0
    5.0522  -11.4255    0.0000 O   0  0  0  0  0  0  0  0  0  0  0  0
    3.6233   -9.9965    0.0000 O   0  0  0  0  0  0  0  0  0  0  0  0
    6.4812   -9.1715    0.0000 H   0  0  0  0  0  0  0  0  0  0  0  0
  1  2  1  0  0  0  0
  2  3  1  0  0  0  0
  1  4  1  0  0  0  0
  4  5  1  6  0  0  0
  4  6  1  1  0  0  0
  4  7  1  0  0  0  0
  7  8  1  6  0  0  0
  7  9  1  0  0  0  0
  9 10  1  0  0  0  0
 10 11  1  0  0  0  0
 11 12  1  1  0  0  0
 11 13  1  0  0  0  0
 13 14  1  6  0  0  0
 13 15  1  0  0  0  0
 15 16  1  0  0  0  0
 16 17  1  0  0  0  0
 17 18  1  1  0  0  0
 17 19  1  0  0  0  0
 19 20  1  0  0  0  0
 20 21  1  0  0  0  0
 21 22  1  6  0  0  0
 21 23  1  0  0  0  0
 23 24  1  0  0  0  0
 23 25  2  0  0  0  0
 17 25  1  0  0  0  0
 25 26  1  0  0  0  0
 13 26  1  0  0  0  0
 26 27  2  0  0  0  0
 27 28  1  0  0  0  0
 28 29  1  0  0  0  0
 11 29  1  0  0  0  0
 29 30  1  0  0  0  0
  3 30  1  0  0  0  0
  7 30  1  0  0  0  0
 30 31  1  1  0  0  0
 18 32  2  0  0  0  0
 18 33  1  0  0  0  0
  5 34  1  0  0  0  0
  1 35  1  0  0  0  0
 29 36  1  6  0  0  0
M  END
>  <cdx:groupId>
114

>  <cdx:fragmentId>
5

$$$$
