95916.cdx
  Mrv1902 05222410252D          

 46 51  0  0  0  0            999 V2000
   10.2058   -4.6306    0.0000 C   0  0  0  0  0  0  0  0  0  0  0  0
   10.9203   -4.2181    0.0000 C   0  0  0  0  0  0  0  0  0  0  0  0
   11.6348   -4.6306    0.0000 C   0  0  0  0  0  0  0  0  0  0  0  0
   11.6348   -5.4556    0.0000 C   0  0  0  0  0  0  0  0  0  0  0  0
   10.9203   -5.8681    0.0000 C   0  0  2  0  0  0  0  0  0  0  0  0
   10.9203   -6.6931    0.0000 C   0  0  0  0  0  0  0  0  0  0  0  0
   10.2058   -7.1056    0.0000 C   0  0  0  0  0  0  0  0  0  0  0  0
    9.4914   -6.6931    0.0000 C   0  0  1  0  0  0  0  0  0  0  0  0
    8.7769   -7.1056    0.0000 C   0  0  2  0  0  0  0  0  0  0  0  0
    8.7769   -7.9306    0.0000 C   0  0  0  0  0  0  0  0  0  0  0  0
    8.0624   -8.3431    0.0000 C   0  0  0  0  0  0  0  0  0  0  0  0
    7.3480   -7.9306    0.0000 C   0  0  1  0  0  0  0  0  0  0  0  0
    6.6335   -8.3431    0.0000 C   0  0  2  0  0  0  0  0  0  0  0  0
    5.9190   -7.9306    0.0000 C   0  0  2  0  0  0  0  0  0  0  0  0
    5.9190   -7.1056    0.0000 C   0  0  1  0  0  0  0  0  0  0  0  0
    6.6335   -6.6931    0.0000 C   0  0  0  0  0  0  0  0  0  0  0  0
    7.3480   -7.1056    0.0000 C   0  0  2  0  0  0  0  0  0  0  0  0
    8.0624   -6.6931    0.0000 C   0  0  0  0  0  0  0  0  0  0  0  0
    8.0624   -5.8681    0.0000 C   0  0  0  0  0  0  0  0  0  0  0  0
    8.7769   -5.4556    0.0000 C   0  0  0  0  0  0  0  0  0  0  0  0
    9.4914   -5.8681    0.0000 C   0  0  0  0  0  0  0  0  0  0  0  0
   10.2058   -5.4556    0.0000 C   0  0  2  0  0  0  0  0  0  0  0  0
   11.6348   -6.2806    0.0000 C   0  0  0  0  0  0  0  0  0  0  0  0
   11.6348   -7.1056    0.0000 O   0  0  0  0  0  0  0  0  0  0  0  0
   12.3493   -5.8681    0.0000 O   0  0  0  0  0  0  0  0  0  0  0  0
    7.3480   -6.2806    0.0000 C   0  0  0  0  0  0  0  0  0  0  0  0
    6.2210   -9.0575    0.0000 C   0  0  0  0  0  0  0  0  0  0  0  0
   10.5078   -3.5036    0.0000 C   0  0  0  0  0  0  0  0  0  0  0  0
   11.3328   -3.5036    0.0000 C   0  0  0  0  0  0  0  0  0  0  0  0
    7.0460   -9.0575    0.0000 C   0  0  0  0  0  0  0  0  0  0  0  0
    6.6335   -9.7720    0.0000 O   0  0  0  0  0  0  0  0  0  0  0  0
    5.2045   -6.6931    0.0000 O   0  0  0  0  0  0  0  0  0  0  0  0
    5.2045   -8.3431    0.0000 O   0  0  0  0  0  0  0  0  0  0  0  0
    7.3480   -8.7556    0.0000 H   0  0  0  0  0  0  0  0  0  0  0  0
   10.2058   -6.2806    0.0000 H   0  0  0  0  0  0  0  0  0  0  0  0
    9.1894   -7.8200    0.0000 C   0  0  0  0  0  0  0  0  0  0  0  0
    9.9039   -7.4075    0.0000 C   0  0  0  0  0  0  0  0  0  0  0  0
    3.7575   -6.7012    0.0000 C   0  0  0  0  0  0  0  0  0  0  0  0
    3.0486   -7.1231    0.0000 C   0  0  1  0  0  0  0  0  0  0  0  0
    3.0595   -7.9481    0.0000 C   0  0  1  0  0  0  0  0  0  0  0  0
    3.7794   -8.3511    0.0000 C   0  0  2  0  0  0  0  0  0  0  0  0
    4.4883   -7.9291    0.0000 C   0  0  1  0  0  0  0  0  0  0  0  0
    4.4774   -7.1042    0.0000 O   0  0  0  0  0  0  0  0  0  0  0  0
    2.3287   -6.7202    0.0000 O   0  0  0  0  0  0  0  0  0  0  0  0
    2.3506   -8.3700    0.0000 O   0  0  0  0  0  0  0  0  0  0  0  0
    3.7903   -9.1760    0.0000 O   0  0  0  0  0  0  0  0  0  0  0  0
  1  2  1  0  0  0  0
  2  3  1  0  0  0  0
  3  4  1  0  0  0  0
  4  5  1  0  0  0  0
  5  6  1  0  0  0  0
  6  7  1  0  0  0  0
  7  8  1  0  0  0  0
  8  9  1  0  0  0  0
  9 10  1  0  0  0  0
 10 11  1  0  0  0  0
 11 12  1  0  0  0  0
 12 13  1  0  0  0  0
 13 14  1  0  0  0  0
 14 15  1  0  0  0  0
 15 16  1  0  0  0  0
 16 17  1  0  0  0  0
 12 17  1  0  0  0  0
 17 18  1  0  0  0  0
  9 18  1  0  0  0  0
 18 19  1  0  0  0  0
 19 20  1  0  0  0  0
 20 21  2  0  0  0  0
  8 21  1  0  0  0  0
 21 22  1  0  0  0  0
  5 22  1  0  0  0  0
  1 22  1  0  0  0  0
 23 24  2  0  0  0  0
 23 25  1  0  0  0  0
  5 23  1  1  0  0  0
 17 26  1  1  0  0  0
 13 27  1  1  0  0  0
  2 28  1  0  0  0  0
  2 29  1  0  0  0  0
 30 31  1  0  0  0  0
 13 30  1  0  0  0  0
 15 32  1  6  0  0  0
 14 33  1  1  0  0  0
 12 34  1  6  0  0  0
 22 35  1  1  0  0  0
  9 36  1  1  0  0  0
  8 37  1  6  0  0  0
 38 39  1  0  0  0  0
 39 40  1  0  0  0  0
 40 41  1  0  0  0  0
 41 42  1  0  0  0  0
 42 43  1  0  0  0  0
 43 38  1  0  0  0  0
 39 44  1  1  0  0  0
 40 45  1  1  0  0  0
 41 46  1  6  0  0  0
 42 33  1  1  0  0  0
M  END
>  <cdx:groupId>
117

>  <cdx:fragmentId>
5

$$$$
