95917.cdx
  Mrv1902 05222410252D          

 44 48  0  0  0  0            999 V2000
    8.5693   -8.2997    0.0000 C   0  0  0  0  0  0  0  0  0  0  0  0
    8.5693   -9.1247    0.0000 C   0  0  0  0  0  0  0  0  0  0  0  0
    7.8549   -9.5372    0.0000 C   0  0  0  0  0  0  0  0  0  0  0  0
    7.8549  -10.3622    0.0000 O   0  0  0  0  0  0  0  0  0  0  0  0
    7.1404   -9.1247    0.0000 C   0  0  0  0  0  0  0  0  0  0  0  0
    6.4259   -9.5372    0.0000 C   0  0  0  0  0  0  0  0  0  0  0  0
    6.4259  -10.3622    0.0000 O   0  0  0  0  0  0  0  0  0  0  0  0
    5.7114   -9.1247    0.0000 C   0  0  0  0  0  0  0  0  0  0  0  0
    5.7114   -8.2997    0.0000 C   0  0  0  0  0  0  0  0  0  0  0  0
    4.9970   -7.8872    0.0000 O   0  0  0  0  0  0  0  0  0  0  0  0
    6.4259   -7.8872    0.0000 C   0  0  0  0  0  0  0  0  0  0  0  0
    7.1404   -8.2997    0.0000 C   0  0  0  0  0  0  0  0  0  0  0  0
    7.8549   -7.8872    0.0000 O   0  0  0  0  0  0  0  0  0  0  0  0
    9.2838   -7.8872    0.0000 C   0  0  0  0  0  0  0  0  0  0  0  0
    9.2838   -7.0622    0.0000 C   0  0  0  0  0  0  0  0  0  0  0  0
    9.9983   -6.6497    0.0000 C   0  0  0  0  0  0  0  0  0  0  0  0
   10.7127   -7.0622    0.0000 C   0  0  0  0  0  0  0  0  0  0  0  0
   11.4272   -6.6497    0.0000 O   0  0  0  0  0  0  0  0  0  0  0  0
   10.7127   -7.8872    0.0000 C   0  0  0  0  0  0  0  0  0  0  0  0
    9.9983   -8.2997    0.0000 C   0  0  0  0  0  0  0  0  0  0  0  0
    4.9845   -9.5606    0.0000 C   0  0  1  0  0  0  0  0  0  0  0  0
    4.9854  -10.3856    0.0000 C   0  0  2  0  0  0  0  0  0  0  0  0
    5.7003  -10.7974    0.0000 O   0  0  0  0  0  0  0  0  0  0  0  0
    4.2713  -10.7989    0.0000 C   0  0  1  0  0  0  0  0  0  0  0  0
    4.2722  -11.6239    0.0000 O   0  0  0  0  0  0  0  0  0  0  0  0
    3.5564  -10.3871    0.0000 C   0  0  2  0  0  0  0  0  0  0  0  0
    2.8424  -10.8004    0.0000 O   0  0  0  0  0  0  0  0  0  0  0  0
    3.5556   -9.5621    0.0000 C   0  0  2  0  0  0  0  0  0  0  0  0
    4.2696   -9.1489    0.0000 O   0  0  0  0  0  0  0  0  0  0  0  0
    2.8407   -9.1504    0.0000 C   0  0  0  0  0  0  0  0  0  0  0  0
    2.1266   -9.5636    0.0000 O   0  0  0  0  0  0  0  0  0  0  0  0
    7.8665   -4.5742    0.0000 O   0  0  0  0  0  0  0  0  0  0  0  0
    7.8659   -5.3992    0.0000 C   0  0  0  0  0  0  0  0  0  0  0  0
    7.1506   -6.6363    0.0000 O   0  0  0  0  0  0  0  0  0  0  0  0
    7.1512   -5.8113    0.0000 C   0  0  1  0  0  0  0  0  0  0  0  0
    6.4375   -4.5733    0.0000 O   0  0  0  0  0  0  0  0  0  0  0  0
    6.4370   -5.3983    0.0000 C   0  0  1  0  0  0  0  0  0  0  0  0
    5.0080   -5.3973    0.0000 O   0  0  0  0  0  0  0  0  0  0  0  0
    5.7222   -5.8103    0.0000 C   0  0  2  0  0  0  0  0  0  0  0  0
    5.0069   -7.0473    0.0000 O   0  0  0  0  0  0  0  0  0  0  0  0
    5.7217   -6.6353    0.0000 C   0  0  1  0  0  0  0  0  0  0  0  0
    6.4358   -7.0483    0.0000 C   0  0  2  0  0  0  0  0  0  0  0  0
    4.9845   -8.7356    0.0000 H   0  0  0  0  0  0  0  0  0  0  0  0
    7.1503   -7.4608    0.0000 H   0  0  0  0  0  0  0  0  0  0  0  0
 42 34  1  0  0  0  0
 33 32  1  0  0  0  0
 35 33  1  1  0  0  0
 35 34  1  0  0  0  0
 37 35  1  0  0  0  0
 37 36  1  6  0  0  0
 39 37  1  0  0  0  0
 39 38  1  1  0  0  0
  1  2  1  0  0  0  0
  2  3  1  0  0  0  0
  3  4  2  0  0  0  0
  3  5  1  0  0  0  0
  5  6  1  0  0  0  0
  6  7  1  0  0  0  0
  6  8  2  0  0  0  0
  8  9  1  0  0  0  0
  9 10  1  0  0  0  0
  9 11  2  0  0  0  0
 11 12  1  0  0  0  0
  5 12  2  0  0  0  0
 12 13  1  0  0  0  0
  1 13  1  0  0  0  0
  1 14  1  0  0  0  0
 14 15  1  0  0  0  0
 15 16  2  0  0  0  0
 16 17  1  0  0  0  0
 17 18  1  0  0  0  0
 17 19  2  0  0  0  0
 19 20  1  0  0  0  0
 14 20  2  0  0  0  0
 21 22  1  0  0  0  0
 22 23  1  6  0  0  0
 22 24  1  0  0  0  0
 24 25  1  1  0  0  0
 24 26  1  0  0  0  0
 26 27  1  6  0  0  0
 26 28  1  0  0  0  0
 28 29  1  0  0  0  0
 28 30  1  1  0  0  0
 30 31  1  0  0  0  0
 21 29  1  0  0  0  0
 41 39  1  0  0  0  0
 41 40  1  6  0  0  0
 42 41  1  0  0  0  0
 42 11  1  0  0  0  0
 21  8  1  0  0  0  0
 21 43  1  6  0  0  0
 42 44  1  6  0  0  0
M  END
>  <cdx:fragmentId>
5

$$$$
