95914.cdx
  Mrv1902 05222410252D          

 25 27  0  0  0  0            999 V2000
   11.2077   -7.6131    0.0000 C   0  0  0  0  0  0  0  0  0  0  0  0
   10.4933   -8.0256    0.0000 O   0  0  0  0  0  0  0  0  0  0  0  0
   11.2077   -6.7881    0.0000 C   0  0  0  0  0  0  0  0  0  0  0  0
   10.4933   -6.3756    0.0000 O   0  0  0  0  0  0  0  0  0  0  0  0
    8.3499   -6.7881    0.0000 C   0  0  0  0  0  0  0  0  0  0  0  0
    9.0643   -6.3756    0.0000 C   0  0  0  0  0  0  0  0  0  0  0  0
    9.7788   -6.7881    0.0000 C   0  0  0  0  0  0  0  0  0  0  0  0
    9.7788   -7.6131    0.0000 C   0  0  0  0  0  0  0  0  0  0  0  0
    9.0643   -8.0256    0.0000 C   0  0  0  0  0  0  0  0  0  0  0  0
    8.3499   -7.6131    0.0000 C   0  0  0  0  0  0  0  0  0  0  0  0
    4.7775  -10.5006    0.0000 C   0  0  0  0  0  0  0  0  0  0  0  0
    5.4920  -10.0881    0.0000 O   0  0  0  0  0  0  0  0  0  0  0  0
    3.3486   -8.0256    0.0000 C   0  0  0  0  0  0  0  0  0  0  0  0
    4.0630   -7.6131    0.0000 O   0  0  0  0  0  0  0  0  0  0  0  0
    6.9209  -10.0881    0.0000 O   0  0  0  0  0  0  0  0  0  0  0  0
    6.9209   -7.6131    0.0000 O   0  0  0  0  0  0  0  0  0  0  0  0
    6.2064   -8.0256    0.0000 C   0  0  0  0  0  0  0  0  0  0  0  0
    5.4920   -7.6131    0.0000 C   0  0  0  0  0  0  0  0  0  0  0  0
    4.7775   -8.0256    0.0000 C   0  0  0  0  0  0  0  0  0  0  0  0
    4.7775   -8.8506    0.0000 C   0  0  0  0  0  0  0  0  0  0  0  0
    5.4920   -9.2631    0.0000 C   0  0  0  0  0  0  0  0  0  0  0  0
    6.2064   -8.8506    0.0000 C   0  0  0  0  0  0  0  0  0  0  0  0
    6.9209   -9.2631    0.0000 C   0  0  0  0  0  0  0  0  0  0  0  0
    7.6354   -8.8506    0.0000 C   0  0  0  0  0  0  0  0  0  0  0  0
    7.6354   -8.0256    0.0000 C   0  0  0  0  0  0  0  0  0  0  0  0
 25 10  1  0  0  0  0
  8  2  1  0  0  0  0
  2  1  1  0  0  0  0
  7  4  1  0  0  0  0
  4  3  1  0  0  0  0
 10  5  2  0  0  0  0
  6  5  1  0  0  0  0
  7  6  2  0  0  0  0
  8  7  1  0  0  0  0
  9  8  2  0  0  0  0
 10  9  1  0  0  0  0
 21 12  1  0  0  0  0
 12 11  1  0  0  0  0
 19 14  1  0  0  0  0
 14 13  1  0  0  0  0
 23 15  2  0  0  0  0
 25 16  1  0  0  0  0
 17 16  1  0  0  0  0
 22 17  2  0  0  0  0
 18 17  1  0  0  0  0
 19 18  2  0  0  0  0
 20 19  1  0  0  0  0
 21 20  2  0  0  0  0
 22 21  1  0  0  0  0
 23 22  1  0  0  0  0
 24 23  1  0  0  0  0
 25 24  1  0  0  0  0
M  END
>  <cdx:fragmentId>
5

$$$$
