95910.cdx
  Mrv1902 05222410242D          

  9  8  0  0  0  0            999 V2000
    7.9101   -9.0354    0.0000 O   0  0  0  0  0  0  0  0  0  0  0  0
    8.6246   -7.7979    0.0000 O   0  0  0  0  0  0  0  0  0  0  0  0
    9.3391   -9.0354    0.0000 C   0  0  0  0  0  0  0  0  0  0  0  0
    8.6246   -8.6229    0.0000 C   0  0  0  0  0  0  0  0  0  0  0  0
    5.0522   -9.0354    0.0000 C   0  0  0  0  0  0  0  0  0  0  0  0
    5.7667   -8.6229    0.0000 C   0  0  0  0  0  0  0  0  0  0  0  0
    6.4812   -9.0354    0.0000 C   0  0  0  0  0  0  0  0  0  0  0  0
    7.1957   -8.6229    0.0000 C   0  0  0  0  0  0  0  0  0  0  0  0
    7.1957   -7.7979    0.0000 C   0  0  0  0  0  0  0  0  0  0  0  0
  8  1  1  0  0  0  0
  4  1  1  0  0  0  0
  4  2  2  0  0  0  0
  4  3  1  0  0  0  0
  6  5  1  0  0  0  0
  7  6  1  0  0  0  0
  8  7  1  0  0  0  0
  9  8  1  0  0  0  0
M  END
>  <cdx:fragmentId>
5

$$$$
