95927.cdx
  Mrv1902 05222410212D          

 34 39  0  0  0  0            999 V2000
    8.2639   -8.6144    0.0000 C   0  0  0  0  0  0  0  0  0  0  0  0
    8.2639   -9.4394    0.0000 C   0  0  0  0  0  0  0  0  0  0  0  0
    8.9784   -9.8519    0.0000 C   0  0  0  0  0  0  0  0  0  0  0  0
    9.6929   -9.4394    0.0000 C   0  0  0  0  0  0  0  0  0  0  0  0
    9.6929   -8.6144    0.0000 C   0  0  0  0  0  0  0  0  0  0  0  0
   10.4073   -8.2019    0.0000 C   0  0  0  0  0  0  0  0  0  0  0  0
   11.1218   -8.6144    0.0000 C   0  0  0  0  0  0  0  0  0  0  0  0
   11.8363   -8.2019    0.0000 C   0  0  0  0  0  0  0  0  0  0  0  0
   11.8363   -7.3769    0.0000 C   0  0  0  0  0  0  0  0  0  0  0  0
   11.1218   -6.9644    0.0000 C   0  0  0  0  0  0  0  0  0  0  0  0
   10.4073   -7.3769    0.0000 C   0  0  0  0  0  0  0  0  0  0  0  0
    9.6929   -6.9644    0.0000 C   0  0  0  0  0  0  0  0  0  0  0  0
    8.9784   -7.3769    0.0000 C   0  0  0  0  0  0  0  0  0  0  0  0
    8.9784   -8.2019    0.0000 C   0  0  0  0  0  0  0  0  0  0  0  0
    7.5494   -8.2019    0.0000 C   0  0  0  0  0  0  0  0  0  0  0  0
    7.5494   -7.3769    0.0000 C   0  0  0  0  0  0  0  0  0  0  0  0
    6.8350   -6.9644    0.0000 C   0  0  0  0  0  0  0  0  0  0  0  0
    6.1205   -7.3769    0.0000 C   0  0  0  0  0  0  0  0  0  0  0  0
    6.1205   -8.2019    0.0000 C   0  0  0  0  0  0  0  0  0  0  0  0
    5.4060   -8.6144    0.0000 C   0  0  0  0  0  0  0  0  0  0  0  0
    4.6916   -8.2019    0.0000 C   0  0  0  0  0  0  0  0  0  0  0  0
    3.9771   -8.6144    0.0000 C   0  0  0  0  0  0  0  0  0  0  0  0
    3.9771   -9.4394    0.0000 C   0  0  0  0  0  0  0  0  0  0  0  0
    4.6916   -9.8519    0.0000 C   0  0  0  0  0  0  0  0  0  0  0  0
    5.4060   -9.4394    0.0000 C   0  0  0  0  0  0  0  0  0  0  0  0
    6.1205   -9.8519    0.0000 C   0  0  0  0  0  0  0  0  0  0  0  0
    6.8350   -9.4394    0.0000 C   0  0  0  0  0  0  0  0  0  0  0  0
    6.8350   -8.6144    0.0000 C   0  0  0  0  0  0  0  0  0  0  0  0
    3.2626   -9.8519    0.0000 O   0  0  0  0  0  0  0  0  0  0  0  0
    2.5482   -9.4394    0.0000 C   0  0  0  0  0  0  0  0  0  0  0  0
    8.2639   -6.9644    0.0000 O   0  0  0  0  0  0  0  0  0  0  0  0
    8.2639   -6.1394    0.0000 C   0  0  0  0  0  0  0  0  0  0  0  0
    7.5494   -9.8519    0.0000 O   0  0  0  0  0  0  0  0  0  0  0  0
    7.5494  -10.6769    0.0000 C   0  0  0  0  0  0  0  0  0  0  0  0
  1  2  1  0  0  0  0
  2  3  2  0  0  0  0
  3  4  1  0  0  0  0
  4  5  1  0  0  0  0
  5  6  2  0  0  0  0
  6  7  1  0  0  0  0
  7  8  2  0  0  0  0
  8  9  1  0  0  0  0
  9 10  1  0  0  0  0
 10 11  2  0  0  0  0
  6 11  1  0  0  0  0
 11 12  1  0  0  0  0
 12 13  2  0  0  0  0
 13 14  1  0  0  0  0
  1 14  2  0  0  0  0
  5 14  1  0  0  0  0
 15 16  1  0  0  0  0
 16 17  2  0  0  0  0
 17 18  1  0  0  0  0
 18 19  1  0  0  0  0
 19 20  2  0  0  0  0
 20 21  1  0  0  0  0
 21 22  2  0  0  0  0
 22 23  1  0  0  0  0
 23 24  1  0  0  0  0
 24 25  2  0  0  0  0
 20 25  1  0  0  0  0
 25 26  1  0  0  0  0
 26 27  2  0  0  0  0
 27 28  1  0  0  0  0
 15 28  2  0  0  0  0
 19 28  1  0  0  0  0
  1 15  1  0  0  0  0
 29 30  1  0  0  0  0
 23 29  1  0  0  0  0
 31 32  1  0  0  0  0
 16 31  1  0  0  0  0
 33 34  1  0  0  0  0
  2 33  1  0  0  0  0
M  END
>  <cdx:groupId>
109

>  <cdx:fragmentId>
33

$$$$
