95920.cdx
  Mrv1902 05222410222D          

 11 12  0  0  0  0            999 V2000
    5.7043   -6.7100    0.0000 C   0  0  2  0  0  0  0  0  0  0  0  0
    5.7043   -7.5350    0.0000 C   0  0  0  0  0  0  0  0  0  0  0  0
    6.4188   -7.9475    0.0000 C   0  0  0  0  0  0  0  0  0  0  0  0
    7.1332   -7.5350    0.0000 C   0  0  2  0  0  0  0  0  0  0  0  0
    7.1332   -6.7100    0.0000 C   0  0  2  0  0  0  0  0  0  0  0  0
    6.4188   -6.2975    0.0000 C   0  0  0  0  0  0  0  0  0  0  0  0
    4.9898   -7.9475    0.0000 O   0  0  0  0  0  0  0  0  0  0  0  0
    7.8477   -7.1225    0.0000 C   0  0  0  0  0  0  0  0  0  0  0  0
    8.4311   -6.5391    0.0000 C   0  0  0  0  0  0  0  0  0  0  0  0
    8.4311   -7.7059    0.0000 C   0  0  0  0  0  0  0  0  0  0  0  0
    4.9898   -6.2975    0.0000 C   0  0  0  0  0  0  0  0  0  0  0  0
  1  2  1  0  0  0  0
  2  3  1  0  0  0  0
  4  3  1  6  0  0  0
  4  5  1  0  0  0  0
  5  6  1  0  0  0  0
  6  1  1  0  0  0  0
  2  7  2  0  0  0  0
  4  8  1  0  0  0  0
  5  8  1  6  0  0  0
  8  9  1  0  0  0  0
  8 10  1  0  0  0  0
  1 11  1  1  0  0  0
M  END
>  <cdx:fragmentId>
5

$$$$
