95922.cdx
  Mrv1902 05222410232D          

 14 16  0  0  0  0            999 V2000
    7.2737   -7.1767    0.0000 N   0  0  0  0  0  0  0  0  0  0  0  0
    7.9882   -7.5892    0.0000 C   0  0  0  0  0  0  0  0  0  0  0  0
    7.9882   -8.4142    0.0000 C   0  0  0  0  0  0  0  0  0  0  0  0
    7.2737   -8.8267    0.0000 C   0  0  0  0  0  0  0  0  0  0  0  0
    6.5593   -8.4142    0.0000 C   0  0  0  0  0  0  0  0  0  0  0  0
    5.8448   -8.8267    0.0000 C   0  0  0  0  0  0  0  0  0  0  0  0
    5.1303   -8.4142    0.0000 C   0  0  0  0  0  0  0  0  0  0  0  0
    5.1303   -7.5892    0.0000 C   0  0  0  0  0  0  0  0  0  0  0  0
    5.8448   -7.1767    0.0000 C   0  0  0  0  0  0  0  0  0  0  0  0
    6.5593   -7.5892    0.0000 C   0  0  0  0  0  0  0  0  0  0  0  0
    8.7728   -7.3343    0.0000 O   0  0  0  0  0  0  0  0  0  0  0  0
    8.7728   -8.6691    0.0000 C   0  0  0  0  0  0  0  0  0  0  0  0
    9.2577   -8.0017    0.0000 C   0  0  0  0  0  0  0  0  0  0  0  0
    7.2737   -9.6517    0.0000 O   0  0  0  0  0  0  0  0  0  0  0  0
  1  2  2  0  0  0  0
  2  3  1  0  0  0  0
  3  4  2  0  0  0  0
  4  5  1  0  0  0  0
  5  6  2  0  0  0  0
  6  7  1  0  0  0  0
  7  8  2  0  0  0  0
  8  9  1  0  0  0  0
  9 10  2  0  0  0  0
  1 10  1  0  0  0  0
  5 10  1  0  0  0  0
 12 13  2  0  0  0  0
 11 13  1  0  0  0  0
 11  2  1  0  0  0  0
 12  3  1  0  0  0  0
  4 14  1  0  0  0  0
M  END
>  <cdx:groupId>
46

>  <cdx:fragmentId>
5

$$$$
