95929.cdx
  Mrv1902 05222410252D          

 34 39  0  0  0  0            999 V2000
    6.8384   -7.9897    0.0000 C   0  0  0  0  0  0  0  0  0  0  0  0
    6.8384   -7.1647    0.0000 C   0  0  0  0  0  0  0  0  0  0  0  0
    6.1239   -6.7522    0.0000 C   0  0  0  0  0  0  0  0  0  0  0  0
    5.4095   -7.1647    0.0000 C   0  0  0  0  0  0  0  0  0  0  0  0
    5.4095   -7.9897    0.0000 C   0  0  0  0  0  0  0  0  0  0  0  0
    4.6950   -8.4022    0.0000 C   0  0  0  0  0  0  0  0  0  0  0  0
    3.9805   -7.9897    0.0000 C   0  0  0  0  0  0  0  0  0  0  0  0
    3.2661   -8.4022    0.0000 C   0  0  0  0  0  0  0  0  0  0  0  0
    3.2661   -9.2272    0.0000 C   0  0  0  0  0  0  0  0  0  0  0  0
    3.9805   -9.6397    0.0000 C   0  0  0  0  0  0  0  0  0  0  0  0
    4.6950   -9.2272    0.0000 C   0  0  0  0  0  0  0  0  0  0  0  0
    5.4095   -9.6397    0.0000 C   0  0  0  0  0  0  0  0  0  0  0  0
    6.1239   -9.2272    0.0000 C   0  0  0  0  0  0  0  0  0  0  0  0
    6.1239   -8.4022    0.0000 C   0  0  0  0  0  0  0  0  0  0  0  0
    7.5529   -8.4022    0.0000 C   0  0  0  0  0  0  0  0  0  0  0  0
    7.5529   -9.2272    0.0000 C   0  0  0  0  0  0  0  0  0  0  0  0
    8.2674   -9.6397    0.0000 C   0  0  0  0  0  0  0  0  0  0  0  0
    8.9818   -9.2272    0.0000 C   0  0  0  0  0  0  0  0  0  0  0  0
    8.9818   -8.4022    0.0000 C   0  0  0  0  0  0  0  0  0  0  0  0
    9.6963   -7.9897    0.0000 C   0  0  0  0  0  0  0  0  0  0  0  0
   10.4108   -8.4022    0.0000 C   0  0  0  0  0  0  0  0  0  0  0  0
   11.1252   -7.9897    0.0000 C   0  0  0  0  0  0  0  0  0  0  0  0
   11.1252   -7.1647    0.0000 C   0  0  0  0  0  0  0  0  0  0  0  0
   10.4108   -6.7522    0.0000 C   0  0  0  0  0  0  0  0  0  0  0  0
    9.6963   -7.1647    0.0000 C   0  0  0  0  0  0  0  0  0  0  0  0
    8.9818   -6.7522    0.0000 C   0  0  0  0  0  0  0  0  0  0  0  0
    8.2674   -7.1647    0.0000 C   0  0  0  0  0  0  0  0  0  0  0  0
    8.2674   -7.9897    0.0000 C   0  0  0  0  0  0  0  0  0  0  0  0
    3.9805  -10.4647    0.0000 O   0  0  0  0  0  0  0  0  0  0  0  0
    3.2661  -10.8772    0.0000 C   0  0  0  0  0  0  0  0  0  0  0  0
    6.8384   -9.6397    0.0000 O   0  0  0  0  0  0  0  0  0  0  0  0
    6.8384  -10.4647    0.0000 C   0  0  0  0  0  0  0  0  0  0  0  0
    7.5529   -6.7522    0.0000 O   0  0  0  0  0  0  0  0  0  0  0  0
    7.5529   -5.9272    0.0000 C   0  0  0  0  0  0  0  0  0  0  0  0
  1  2  1  0  0  0  0
  2  3  2  0  0  0  0
  3  4  1  0  0  0  0
  4  5  1  0  0  0  0
  5  6  2  0  0  0  0
  6  7  1  0  0  0  0
  7  8  2  0  0  0  0
  8  9  1  0  0  0  0
  9 10  1  0  0  0  0
 10 11  2  0  0  0  0
  6 11  1  0  0  0  0
 11 12  1  0  0  0  0
 12 13  2  0  0  0  0
 13 14  1  0  0  0  0
  1 14  2  0  0  0  0
  5 14  1  0  0  0  0
 15 16  1  0  0  0  0
 16 17  2  0  0  0  0
 17 18  1  0  0  0  0
 18 19  1  0  0  0  0
 19 20  2  0  0  0  0
 20 21  1  0  0  0  0
 21 22  2  0  0  0  0
 22 23  1  0  0  0  0
 23 24  1  0  0  0  0
 24 25  2  0  0  0  0
 20 25  1  0  0  0  0
 25 26  1  0  0  0  0
 26 27  2  0  0  0  0
 27 28  1  0  0  0  0
 15 28  2  0  0  0  0
 19 28  1  0  0  0  0
  1 15  1  0  0  0  0
 29 30  1  0  0  0  0
 10 29  1  0  0  0  0
 31 32  1  0  0  0  0
 16 31  1  0  0  0  0
 33 34  1  0  0  0  0
  2 33  1  0  0  0  0
M  END
>  <cdx:groupId>
109

>  <cdx:fragmentId>
33

$$$$
