95924.cdx
  Mrv1902 05222410212D          

 39 44  0  0  0  0            999 V2000
    7.0462   -7.2900    0.0000 C   0  0  0  0  0  0  0  0  0  0  0  0
    7.0462   -6.4650    0.0000 C   0  0  0  0  0  0  0  0  0  0  0  0
    6.3317   -6.0525    0.0000 C   0  0  0  0  0  0  0  0  0  0  0  0
    5.6172   -6.4650    0.0000 C   0  0  0  0  0  0  0  0  0  0  0  0
    5.6172   -7.2900    0.0000 C   0  0  0  0  0  0  0  0  0  0  0  0
    4.9028   -7.7025    0.0000 C   0  0  0  0  0  0  0  0  0  0  0  0
    4.1883   -7.2900    0.0000 C   0  0  0  0  0  0  0  0  0  0  0  0
    3.4738   -7.7025    0.0000 C   0  0  0  0  0  0  0  0  0  0  0  0
    3.4738   -8.5275    0.0000 C   0  0  0  0  0  0  0  0  0  0  0  0
    4.1883   -8.9400    0.0000 C   0  0  0  0  0  0  0  0  0  0  0  0
    4.9028   -8.5275    0.0000 C   0  0  0  0  0  0  0  0  0  0  0  0
    5.6172   -8.9400    0.0000 C   0  0  0  0  0  0  0  0  0  0  0  0
    6.3317   -8.5275    0.0000 C   0  0  0  0  0  0  0  0  0  0  0  0
    6.3317   -7.7025    0.0000 C   0  0  0  0  0  0  0  0  0  0  0  0
    7.7606   -7.7025    0.0000 C   0  0  0  0  0  0  0  0  0  0  0  0
    7.7606   -8.5275    0.0000 C   0  0  0  0  0  0  0  0  0  0  0  0
    8.4751   -8.9400    0.0000 C   0  0  0  0  0  0  0  0  0  0  0  0
    9.1896   -8.5275    0.0000 C   0  0  0  0  0  0  0  0  0  0  0  0
    9.1896   -7.7025    0.0000 C   0  0  0  0  0  0  0  0  0  0  0  0
    9.9040   -7.2900    0.0000 C   0  0  0  0  0  0  0  0  0  0  0  0
   10.6185   -7.7025    0.0000 C   0  0  0  0  0  0  0  0  0  0  0  0
   11.3330   -7.2900    0.0000 C   0  0  0  0  0  0  0  0  0  0  0  0
   11.3330   -6.4650    0.0000 C   0  0  0  0  0  0  0  0  0  0  0  0
   10.6185   -6.0525    0.0000 C   0  0  0  0  0  0  0  0  0  0  0  0
    9.9040   -6.4650    0.0000 C   0  0  0  0  0  0  0  0  0  0  0  0
    9.1896   -6.0525    0.0000 C   0  0  0  0  0  0  0  0  0  0  0  0
    8.4751   -6.4650    0.0000 C   0  0  0  0  0  0  0  0  0  0  0  0
    8.4751   -7.2900    0.0000 C   0  0  0  0  0  0  0  0  0  0  0  0
    7.7606   -6.0525    0.0000 O   0  0  0  0  0  0  0  0  0  0  0  0
    7.0462   -8.9400    0.0000 O   0  0  0  0  0  0  0  0  0  0  0  0
   12.0475   -6.0525    0.0000 O   0  0  0  0  0  0  0  0  0  0  0  0
   10.6185   -8.5275    0.0000 O   0  0  0  0  0  0  0  0  0  0  0  0
   11.3330   -8.9400    0.0000 C   0  0  0  0  0  0  0  0  0  0  0  0
    8.4751   -9.7650    0.0000 O   0  0  0  0  0  0  0  0  0  0  0  0
    9.1896  -10.1775    0.0000 C   0  0  0  0  0  0  0  0  0  0  0  0
    2.7593   -8.9400    0.0000 O   0  0  0  0  0  0  0  0  0  0  0  0
    2.0449   -8.5275    0.0000 C   0  0  0  0  0  0  0  0  0  0  0  0
    4.9028   -6.0525    0.0000 O   0  0  0  0  0  0  0  0  0  0  0  0
    4.1883   -6.4650    0.0000 C   0  0  0  0  0  0  0  0  0  0  0  0
  1  2  1  0  0  0  0
  2  3  2  0  0  0  0
  3  4  1  0  0  0  0
  4  5  2  0  0  0  0
  5  6  1  0  0  0  0
  6  7  2  0  0  0  0
  7  8  1  0  0  0  0
  8  9  2  0  0  0  0
  9 10  1  0  0  0  0
 10 11  2  0  0  0  0
  6 11  1  0  0  0  0
 11 12  1  0  0  0  0
 12 13  2  0  0  0  0
 13 14  1  0  0  0  0
  1 14  2  0  0  0  0
  5 14  1  0  0  0  0
 15 16  1  0  0  0  0
 16 17  2  0  0  0  0
 17 18  1  0  0  0  0
 18 19  2  0  0  0  0
 19 20  1  0  0  0  0
 20 21  1  0  0  0  0
 21 22  2  0  0  0  0
 22 23  1  0  0  0  0
 23 24  2  0  0  0  0
 24 25  1  0  0  0  0
 20 25  2  0  0  0  0
 25 26  1  0  0  0  0
 26 27  1  0  0  0  0
 27 28  1  0  0  0  0
 15 28  2  0  0  0  0
 19 28  1  0  0  0  0
  1 15  1  0  0  0  0
  2 29  1  0  0  0  0
 16 30  1  0  0  0  0
 23 31  1  0  0  0  0
 32 33  1  0  0  0  0
 21 32  1  0  0  0  0
 34 35  1  0  0  0  0
 17 34  1  0  0  0  0
 36 37  1  0  0  0  0
  9 36  1  0  0  0  0
 38 39  1  0  0  0  0
  4 38  1  0  0  0  0
M  END
>  <cdx:groupId>
124

>  <cdx:fragmentId>
33

$$$$
