95935.cdx
  Mrv1902 05222410222D          

 13 13  0  0  0  0            999 V2000
    7.2267   -9.1052    0.0000 C   0  0  0  0  0  0  0  0  0  0  0  0
    7.9343   -8.6811    0.0000 C   0  0  0  0  0  0  0  0  0  0  0  0
    7.9209   -7.8562    0.0000 C   0  0  0  0  0  0  0  0  0  0  0  0
    7.1998   -7.4554    0.0000 C   0  0  0  0  0  0  0  0  0  0  0  0
    6.4922   -7.8794    0.0000 C   0  0  0  0  0  0  0  0  0  0  0  0
    6.5056   -8.7043    0.0000 C   0  0  0  0  0  0  0  0  0  0  0  0
    6.7670   -6.7530    0.0000 O   0  0  0  0  0  0  0  0  0  0  0  0
    7.2401   -9.9300    0.0000 C   0  0  0  0  0  0  0  0  0  0  0  0
    7.9611  -10.3309    0.0000 O   0  0  0  0  0  0  0  0  0  0  0  0
    6.5324  -10.3541    0.0000 O   0  0  0  0  0  0  0  0  0  0  0  0
    7.5917   -6.7294    0.0000 C   0  0  0  0  0  0  0  0  0  0  0  0
    7.1589   -6.0270    0.0000 C   0  0  0  0  0  0  0  0  0  0  0  0
    8.4164   -6.7057    0.0000 C   0  0  0  0  0  0  0  0  0  0  0  0
  1  2  2  0  0  0  0
  2  3  1  0  0  0  0
  3  4  1  0  0  0  0
  4  5  1  0  0  0  0
  5  6  1  0  0  0  0
  1  6  1  0  0  0  0
  4  7  1  0  0  0  0
  8  9  2  0  0  0  0
  8 10  1  0  0  0  0
  1  8  1  0  0  0  0
  4 11  1  0  0  0  0
 11 12  1  0  0  0  0
 11 13  1  0  0  0  0
M  END
>  <cdx:fragmentId>
5

$$$$
