95934.cdx
  Mrv1902 05222410222D          

 34 36  0  0  0  0            999 V2000
    5.0522   -7.5916    0.0000 C   0  0  0  0  0  0  0  0  0  0  0  0
    5.7667   -7.1791    0.0000 C   0  0  0  0  0  0  0  0  0  0  0  0
    6.4812   -7.5916    0.0000 C   0  0  2  0  0  0  0  0  0  0  0  0
    7.1956   -7.1791    0.0000 C   0  0  0  0  0  0  0  0  0  0  0  0
    7.9101   -7.5916    0.0000 C   0  0  1  0  0  0  0  0  0  0  0  0
    8.6246   -7.1791    0.0000 C   0  0  0  0  0  0  0  0  0  0  0  0
    9.3391   -7.5916    0.0000 C   0  0  0  0  0  0  0  0  0  0  0  0
   10.0535   -7.1791    0.0000 C   0  0  0  0  0  0  0  0  0  0  0  0
   10.0535   -6.3541    0.0000 C   0  0  0  0  0  0  0  0  0  0  0  0
   10.7680   -5.9416    0.0000 C   0  0  0  0  0  0  0  0  0  0  0  0
   11.4825   -6.3541    0.0000 C   0  0  0  0  0  0  0  0  0  0  0  0
   11.4825   -7.1791    0.0000 C   0  0  0  0  0  0  0  0  0  0  0  0
   10.7680   -7.5916    0.0000 C   0  0  0  0  0  0  0  0  0  0  0  0
   12.1969   -5.9416    0.0000 O   0  0  0  0  0  0  0  0  0  0  0  0
    4.3378   -7.1791    0.0000 C   0  0  0  0  0  0  0  0  0  0  0  0
    3.6233   -7.5916    0.0000 C   0  0  0  0  0  0  0  0  0  0  0  0
    2.9088   -7.1791    0.0000 C   0  0  0  0  0  0  0  0  0  0  0  0
    2.9088   -6.3541    0.0000 C   0  0  0  0  0  0  0  0  0  0  0  0
    3.6233   -5.9416    0.0000 C   0  0  0  0  0  0  0  0  0  0  0  0
    4.3378   -6.3541    0.0000 C   0  0  0  0  0  0  0  0  0  0  0  0
    2.1944   -5.9416    0.0000 O   0  0  0  0  0  0  0  0  0  0  0  0
    7.9101   -8.4166    0.0000 O   0  0  0  0  0  0  0  0  0  0  0  0
    6.4812   -8.4166    0.0000 O   0  0  0  0  0  0  0  0  0  0  0  0
    5.7667   -8.8291    0.0000 C   0  0  1  0  0  0  0  0  0  0  0  0
    5.7667   -9.6541    0.0000 C   0  0  2  0  0  0  0  0  0  0  0  0
    6.4812  -10.0666    0.0000 O   0  0  0  0  0  0  0  0  0  0  0  0
    5.0522  -10.0666    0.0000 C   0  0  1  0  0  0  0  0  0  0  0  0
    5.0522  -10.8916    0.0000 O   0  0  0  0  0  0  0  0  0  0  0  0
    4.3378   -9.6541    0.0000 C   0  0  2  0  0  0  0  0  0  0  0  0
    3.6233  -10.0666    0.0000 O   0  0  0  0  0  0  0  0  0  0  0  0
    4.3378   -8.8291    0.0000 C   0  0  2  0  0  0  0  0  0  0  0  0
    5.0522   -8.4166    0.0000 O   0  0  0  0  0  0  0  0  0  0  0  0
    3.6233   -8.4166    0.0000 C   0  0  0  0  0  0  0  0  0  0  0  0
    2.9088   -8.8291    0.0000 O   0  0  0  0  0  0  0  0  0  0  0  0
  1  2  1  0  0  0  0
  2  3  1  0  0  0  0
  3  4  1  0  0  0  0
  4  5  1  0  0  0  0
  5  6  1  0  0  0  0
  6  7  1  0  0  0  0
  8  9  1  0  0  0  0
  9 10  2  0  0  0  0
 10 11  1  0  0  0  0
 11 12  2  0  0  0  0
 12 13  1  0  0  0  0
  8 13  2  0  0  0  0
 11 14  1  0  0  0  0
  7  8  1  0  0  0  0
 15 16  1  0  0  0  0
 16 17  2  0  0  0  0
 17 18  1  0  0  0  0
 18 19  2  0  0  0  0
 19 20  1  0  0  0  0
 15 20  2  0  0  0  0
 18 21  1  0  0  0  0
  1 15  1  0  0  0  0
  5 22  1  1  0  0  0
 24 23  1  1  0  0  0
 24 25  1  0  0  0  0
 25 26  1  6  0  0  0
 25 27  1  0  0  0  0
 27 28  1  1  0  0  0
 27 29  1  0  0  0  0
 29 30  1  6  0  0  0
 29 31  1  0  0  0  0
 31 32  1  0  0  0  0
 31 33  1  1  0  0  0
 33 34  1  0  0  0  0
 24 32  1  0  0  0  0
  3 23  1  6  0  0  0
M  END
>  <cdx:groupId>
106

>  <cdx:fragmentId>
19

$$$$
