95939.cdx
  Mrv1902 05222410242D          

 14 15  0  0  0  0            999 V2000
    7.6785   -9.5282    0.0000 C   0  0  0  0  0  0  0  0  0  0  0  0
    7.2660  -10.2427    0.0000 C   0  0  0  0  0  0  0  0  0  0  0  0
    6.4410  -10.2427    0.0000 C   0  0  0  0  0  0  0  0  0  0  0  0
    6.0285   -9.5282    0.0000 C   0  0  0  0  0  0  0  0  0  0  0  0
    6.4410   -8.8137    0.0000 C   0  0  0  0  0  0  0  0  0  0  0  0
    6.0285   -8.0993    0.0000 C   0  0  0  0  0  0  0  0  0  0  0  0
    6.4410   -7.3848    0.0000 C   0  0  0  0  0  0  0  0  0  0  0  0
    7.2660   -7.3848    0.0000 C   0  0  0  0  0  0  0  0  0  0  0  0
    7.6785   -8.0993    0.0000 C   0  0  0  0  0  0  0  0  0  0  0  0
    8.4467   -8.4025    0.0000 C   0  0  0  0  0  0  0  0  0  0  0  0
    8.4467   -9.2275    0.0000 C   0  0  0  0  0  0  0  0  0  0  0  0
    7.2660   -8.8138    0.0000 C   0  0  0  0  0  0  0  0  0  0  0  0
    7.2660   -6.5598    0.0000 C   0  0  0  0  0  0  0  0  0  0  0  0
    7.9804   -6.9723    0.0000 C   0  0  0  0  0  0  0  0  0  0  0  0
  1  2  2  0  0  0  0
  2  3  1  0  0  0  0
  3  4  1  0  0  0  0
  4  5  1  0  0  0  0
  5  6  2  0  0  0  0
  6  7  1  0  0  0  0
  7  8  1  0  0  0  0
  8  9  1  0  0  0  0
  9 10  1  0  0  0  0
 10 11  1  0  0  0  0
  1 11  1  0  0  0  0
  1 12  1  0  0  0  0
  9 12  1  0  0  0  0
  8 13  1  0  0  0  0
  8 14  1  0  0  0  0
M  END
>  <cdx:fragmentId>
5

$$$$
