95936.cdx
  Mrv1902 05222410232D          

 22 24  0  0  0  0            999 V2000
    7.6754   -6.2441    0.0000 C   0  0  0  0  0  0  0  0  0  0  0  0
    8.3899   -6.6566    0.0000 C   0  0  0  0  0  0  0  0  0  0  0  0
    9.1043   -6.2441    0.0000 C   0  0  0  0  0  0  0  0  0  0  0  0
    9.8188   -6.6566    0.0000 C   0  0  0  0  0  0  0  0  0  0  0  0
    9.8188   -7.4816    0.0000 C   0  0  0  0  0  0  0  0  0  0  0  0
    9.1043   -7.8941    0.0000 C   0  0  0  0  0  0  0  0  0  0  0  0
    8.3899   -7.4816    0.0000 C   0  0  0  0  0  0  0  0  0  0  0  0
    7.6754   -7.8941    0.0000 O   0  0  0  0  0  0  0  0  0  0  0  0
    6.9609   -7.4816    0.0000 C   0  0  0  0  0  0  0  0  0  0  0  0
    6.2465   -7.8941    0.0000 C   0  0  0  0  0  0  0  0  0  0  0  0
    5.5320   -7.4816    0.0000 C   0  0  0  0  0  0  0  0  0  0  0  0
    5.5320   -6.6566    0.0000 C   0  0  0  0  0  0  0  0  0  0  0  0
    6.2465   -6.2441    0.0000 C   0  0  0  0  0  0  0  0  0  0  0  0
    6.9609   -6.6566    0.0000 C   0  0  0  0  0  0  0  0  0  0  0  0
    7.6754   -5.4191    0.0000 O   0  0  0  0  0  0  0  0  0  0  0  0
   10.5333   -7.8941    0.0000 O   0  0  0  0  0  0  0  0  0  0  0  0
   11.2478   -7.4816    0.0000 C   0  0  0  0  0  0  0  0  0  0  0  0
   10.5333   -6.2441    0.0000 O   0  0  0  0  0  0  0  0  0  0  0  0
   11.2478   -6.6566    0.0000 C   0  0  0  0  0  0  0  0  0  0  0  0
    4.8175   -6.2441    0.0000 O   0  0  0  0  0  0  0  0  0  0  0  0
    4.8175   -7.8941    0.0000 O   0  0  0  0  0  0  0  0  0  0  0  0
    9.1043   -5.4191    0.0000 O   0  0  0  0  0  0  0  0  0  0  0  0
  1  2  1  0  0  0  0
  2  3  1  0  0  0  0
  3  4  2  0  0  0  0
  4  5  1  0  0  0  0
  5  6  2  0  0  0  0
  6  7  1  0  0  0  0
  2  7  2  0  0  0  0
  7  8  1  0  0  0  0
  8  9  1  0  0  0  0
  9 10  1  0  0  0  0
 10 11  2  0  0  0  0
 11 12  1  0  0  0  0
 12 13  2  0  0  0  0
 13 14  1  0  0  0  0
  9 14  2  0  0  0  0
  1 14  1  0  0  0  0
  1 15  2  0  0  0  0
 16 17  1  0  0  0  0
  5 16  1  0  0  0  0
 18 19  1  0  0  0  0
  4 18  1  0  0  0  0
 12 20  1  0  0  0  0
 11 21  1  0  0  0  0
  3 22  1  0  0  0  0
M  END
>  <cdx:fragmentId>
5

$$$$
