9594.cdx
  Mrv1902 05222410182D          

 23 23  0  0  0  0            999 V2000
    2.8702   -7.9681    0.0000 C   0  0  0  0  0  0  0  0  0  0  0  0
    2.8702   -8.7931    0.0000 C   0  0  0  0  0  0  0  0  0  0  0  0
    3.5846   -9.2056    0.0000 C   0  0  0  0  0  0  0  0  0  0  0  0
    4.2991   -8.7931    0.0000 C   0  0  0  0  0  0  0  0  0  0  0  0
    4.2991   -7.9681    0.0000 C   0  0  0  0  0  0  0  0  0  0  0  0
    3.5846   -7.5556    0.0000 C   0  0  0  0  0  0  0  0  0  0  0  0
    2.1557   -7.5556    0.0000 O   0  0  0  0  0  0  0  0  0  0  0  0
    2.1557   -9.2056    0.0000 O   0  0  0  0  0  0  0  0  0  0  0  0
    5.0136   -7.5556    0.0000 C   0  0  0  0  0  0  0  0  0  0  0  0
    5.7280   -7.9681    0.0000 C   0  0  0  0  0  0  0  0  0  0  0  0
    6.4425   -7.5556    0.0000 C   0  0  0  0  0  0  0  0  0  0  0  0
    7.1570   -7.9681    0.0000 C   0  0  0  0  0  0  0  0  0  0  0  0
    7.8715   -7.5556    0.0000 C   0  0  0  0  0  0  0  0  0  0  0  0
    8.5859   -7.9681    0.0000 C   0  0  0  0  0  0  0  0  0  0  0  0
    9.3004   -7.5556    0.0000 C   0  0  0  0  0  0  0  0  0  0  0  0
    6.4425   -6.7306    0.0000 O   0  0  0  0  0  0  0  0  0  0  0  0
    7.8715   -6.7306    0.0000 O   0  0  0  0  0  0  0  0  0  0  0  0
   10.0149   -7.9681    0.0000 C   0  0  0  0  0  0  0  0  0  0  0  0
   10.7293   -7.5556    0.0000 C   0  0  0  0  0  0  0  0  0  0  0  0
   11.4438   -7.9681    0.0000 C   0  0  0  0  0  0  0  0  0  0  0  0
   12.1583   -7.5556    0.0000 C   0  0  0  0  0  0  0  0  0  0  0  0
   12.8727   -7.9681    0.0000 C   0  0  0  0  0  0  0  0  0  0  0  0
    1.4412   -7.9681    0.0000 C   0  0  0  0  0  0  0  0  0  0  0  0
  1  2  2  0  0  0  0
  2  3  1  0  0  0  0
  3  4  2  0  0  0  0
  4  5  1  0  0  0  0
  5  6  2  0  0  0  0
  6  1  1  0  0  0  0
  1  7  1  0  0  0  0
  2  8  1  0  0  0  0
  5  9  1  0  0  0  0
  9 10  2  0  0  0  0
 10 11  1  0  0  0  0
 11 12  1  0  0  0  0
 12 13  1  0  0  0  0
 13 14  1  0  0  0  0
 14 15  1  0  0  0  0
 11 16  2  0  0  0  0
 13 17  2  0  0  0  0
 15 18  1  0  0  0  0
 18 19  1  0  0  0  0
 19 20  1  0  0  0  0
 20 21  1  0  0  0  0
 21 22  1  0  0  0  0
  7 23  1  0  0  0  0
M  END
>  <cdx:fragmentId>
5

$$$$
