95947.cdx
  Mrv1902 05222410192D          

 27 28  0  0  0  0            999 V2000
    3.4768   -5.7888    0.0000 C   0  0  0  0  0  0  0  0  0  0  0  0
    3.4768   -6.6137    0.0000 C   0  0  0  0  0  0  0  0  0  0  0  0
    4.1913   -7.0263    0.0000 C   0  0  0  0  0  0  0  0  0  0  0  0
    4.9057   -6.6137    0.0000 C   0  0  0  0  0  0  0  0  0  0  0  0
    5.6202   -7.0263    0.0000 C   0  0  0  0  0  0  0  0  0  0  0  0
    6.3347   -6.6137    0.0000 C   0  0  0  0  0  0  0  0  0  0  0  0
    6.3347   -5.7888    0.0000 C   0  0  0  0  0  0  0  0  0  0  0  0
    7.0492   -7.0263    0.0000 O   0  0  0  0  0  0  0  0  0  0  0  0
    7.7636   -6.6137    0.0000 C   0  0  0  0  0  0  0  0  0  0  0  0
    7.7636   -5.7888    0.0000 C   0  0  0  0  0  0  0  0  0  0  0  0
    7.0492   -5.3763    0.0000 C   0  0  0  0  0  0  0  0  0  0  0  0
    8.4781   -7.0263    0.0000 C   0  0  0  0  0  0  0  0  0  0  0  0
    9.1926   -6.6137    0.0000 C   0  0  0  0  0  0  0  0  0  0  0  0
    9.1926   -5.7888    0.0000 C   0  0  0  0  0  0  0  0  0  0  0  0
    8.4781   -5.3763    0.0000 C   0  0  0  0  0  0  0  0  0  0  0  0
    2.7623   -7.0263    0.0000 C   0  0  0  0  0  0  0  0  0  0  0  0
    5.6202   -6.2012    0.0000 C   0  0  0  0  0  0  0  0  0  0  0  0
    8.4781   -4.5512    0.0000 O   0  0  0  0  0  0  0  0  0  0  0  0
    8.4781   -7.8513    0.0000 O   0  0  0  0  0  0  0  0  0  0  0  0
    9.9070   -7.0263    0.0000 C   0  0  0  0  0  0  0  0  0  0  0  0
    7.7636   -8.2637    0.0000 C   0  0  0  0  0  0  0  0  0  0  0  0
    7.7636   -9.0887    0.0000 C   0  0  0  0  0  0  0  0  0  0  0  0
    7.0492   -7.8513    0.0000 O   0  0  0  0  0  0  0  0  0  0  0  0
   10.6215   -6.6137    0.0000 C   0  0  0  0  0  0  0  0  0  0  0  0
   11.3360   -7.0263    0.0000 C   0  0  0  0  0  0  0  0  0  0  0  0
   12.0505   -6.6137    0.0000 C   0  0  0  0  0  0  0  0  0  0  0  0
   12.7649   -7.0263    0.0000 C   0  0  0  0  0  0  0  0  0  0  0  0
  1  2  1  0  0  0  0
  2  3  2  0  0  0  0
  3  4  1  0  0  0  0
  4  5  1  0  0  0  0
  5  6  1  0  0  0  0
  6  7  1  0  0  0  0
  6  8  1  0  0  0  0
  8  9  1  0  0  0  0
  9 10  2  0  0  0  0
 10 11  1  0  0  0  0
 11  7  2  0  0  0  0
  9 12  1  0  0  0  0
 12 13  2  0  0  0  0
 13 14  1  0  0  0  0
 14 15  2  0  0  0  0
 15 10  1  0  0  0  0
  2 16  1  0  0  0  0
  6 17  1  0  0  0  0
 15 18  1  0  0  0  0
 12 19  1  0  0  0  0
 13 20  1  0  0  0  0
 19 21  1  0  0  0  0
 21 22  1  0  0  0  0
 21 23  2  0  0  0  0
 20 24  1  0  0  0  0
 24 25  1  0  0  0  0
 25 26  1  0  0  0  0
 26 27  1  0  0  0  0
M  END
>  <cdx:fragmentId>
5

$$$$
