95948.cdx
  Mrv1902 05222410282D          

 24 25  0  0  0  0            999 V2000
    2.9094   -7.7009    0.0000 C   0  0  0  0  0  0  0  0  0  0  0  0
    2.9038   -8.5259    0.0000 C   0  0  0  0  0  0  0  0  0  0  0  0
    3.6155   -8.9432    0.0000 C   0  0  0  0  0  0  0  0  0  0  0  0
    4.3327   -8.5355    0.0000 C   0  0  0  0  0  0  0  0  0  0  0  0
    5.0444   -8.9528    0.0000 C   0  0  0  0  0  0  0  0  0  0  0  0
    5.7617   -8.5452    0.0000 C   0  0  0  0  0  0  0  0  0  0  0  0
    5.7672   -7.7202    0.0000 C   0  0  0  0  0  0  0  0  0  0  0  0
    6.4733   -8.9625    0.0000 O   0  0  0  0  0  0  0  0  0  0  0  0
    7.1906   -8.5548    0.0000 C   0  0  0  0  0  0  0  0  0  0  0  0
    7.1961   -7.7298    0.0000 C   0  0  0  0  0  0  0  0  0  0  0  0
    6.4845   -7.3125    0.0000 C   0  0  0  0  0  0  0  0  0  0  0  0
    7.9022   -8.9721    0.0000 C   0  0  0  0  0  0  0  0  0  0  0  0
    8.6195   -8.5644    0.0000 C   0  0  0  0  0  0  0  0  0  0  0  0
    8.6250   -7.7394    0.0000 C   0  0  0  0  0  0  0  0  0  0  0  0
    7.9134   -7.3221    0.0000 C   0  0  0  0  0  0  0  0  0  0  0  0
    2.1866   -8.9336    0.0000 C   0  0  0  0  0  0  0  0  0  0  0  0
    5.0500   -8.1278    0.0000 C   0  0  0  0  0  0  0  0  0  0  0  0
    7.9189   -6.4971    0.0000 O   0  0  0  0  0  0  0  0  0  0  0  0
    9.3312   -8.9817    0.0000 C   0  0  0  0  0  0  0  0  0  0  0  0
   10.0484   -8.5741    0.0000 C   0  0  0  0  0  0  0  0  0  0  0  0
   10.7601   -8.9914    0.0000 C   0  0  0  0  0  0  0  0  0  0  0  0
   11.4773   -8.5837    0.0000 C   0  0  0  0  0  0  0  0  0  0  0  0
   12.1890   -9.0010    0.0000 C   0  0  0  0  0  0  0  0  0  0  0  0
    3.6100   -9.7682    0.0000 O   0  0  0  0  0  0  0  0  0  0  0  0
  1  2  2  0  0  0  0
  2  3  1  0  0  0  0
  3  4  1  0  0  0  0
  4  5  1  0  0  0  0
  5  6  1  0  0  0  0
  6  7  1  0  0  0  0
  6  8  1  0  0  0  0
  8  9  1  0  0  0  0
  9 10  2  0  0  0  0
 10 11  1  0  0  0  0
 11  7  2  0  0  0  0
  9 12  1  0  0  0  0
 12 13  2  0  0  0  0
 13 14  1  0  0  0  0
 14 15  2  0  0  0  0
 15 10  1  0  0  0  0
  2 16  1  0  0  0  0
  6 17  1  0  0  0  0
 15 18  1  0  0  0  0
 13 19  1  0  0  0  0
 19 20  1  0  0  0  0
 20 21  1  0  0  0  0
 21 22  1  0  0  0  0
 22 23  1  0  0  0  0
  3 24  1  0  0  0  0
M  END
>  <cdx:fragmentId>
5

$$$$
