95941.cdx
  Mrv1902 05222410202D          

 42 46  0  0  0  0            999 V2000
    8.6246   -8.0041    0.0000 C   0  0  0  0  0  0  0  0  0  0  0  0
    8.6246   -8.8291    0.0000 C   0  0  0  0  0  0  0  0  0  0  0  0
    7.9101   -9.2416    0.0000 C   0  0  0  0  0  0  0  0  0  0  0  0
    7.9101  -10.0666    0.0000 O   0  0  0  0  0  0  0  0  0  0  0  0
    7.1956   -8.8291    0.0000 C   0  0  0  0  0  0  0  0  0  0  0  0
    6.4812   -9.2416    0.0000 C   0  0  0  0  0  0  0  0  0  0  0  0
    6.4812  -10.0666    0.0000 O   0  0  0  0  0  0  0  0  0  0  0  0
    5.7667   -8.8291    0.0000 C   0  0  0  0  0  0  0  0  0  0  0  0
    5.7667   -8.0041    0.0000 C   0  0  0  0  0  0  0  0  0  0  0  0
    5.0522   -7.5916    0.0000 O   0  0  0  0  0  0  0  0  0  0  0  0
    6.4812   -7.5916    0.0000 C   0  0  0  0  0  0  0  0  0  0  0  0
    7.1956   -8.0041    0.0000 C   0  0  0  0  0  0  0  0  0  0  0  0
    7.9101   -7.5916    0.0000 O   0  0  0  0  0  0  0  0  0  0  0  0
    9.3391   -7.5916    0.0000 C   0  0  0  0  0  0  0  0  0  0  0  0
    9.3391   -6.7666    0.0000 C   0  0  0  0  0  0  0  0  0  0  0  0
   10.0535   -6.3541    0.0000 C   0  0  0  0  0  0  0  0  0  0  0  0
   10.7680   -6.7666    0.0000 C   0  0  0  0  0  0  0  0  0  0  0  0
   11.4825   -6.3541    0.0000 O   0  0  0  0  0  0  0  0  0  0  0  0
   10.7680   -7.5916    0.0000 C   0  0  0  0  0  0  0  0  0  0  0  0
   10.0535   -8.0041    0.0000 C   0  0  0  0  0  0  0  0  0  0  0  0
    2.9300   -8.8338    0.0000 C   0  0  0  0  0  0  0  0  0  0  0  0
    4.3589   -8.8340    0.0000 O   0  0  0  0  0  0  0  0  0  0  0  0
    3.6444   -9.2464    0.0000 C   0  0  2  0  0  0  0  0  0  0  0  0
    2.9297  -10.4838    0.0000 O   0  0  0  0  0  0  0  0  0  0  0  0
    3.6443  -10.0714    0.0000 C   0  0  2  0  0  0  0  0  0  0  0  0
    4.3585  -11.3090    0.0000 O   0  0  0  0  0  0  0  0  0  0  0  0
    4.3587  -10.4840    0.0000 C   0  0  1  0  0  0  0  0  0  0  0  0
    7.9470   -4.3121    0.0000 O   0  0  0  0  0  0  0  0  0  0  0  0
    7.9366   -5.1371    0.0000 C   0  0  0  0  0  0  0  0  0  0  0  0
    7.2066   -6.3655    0.0000 O   0  0  0  0  0  0  0  0  0  0  0  0
    7.2170   -5.5405    0.0000 C   0  0  0  0  0  0  0  0  0  0  0  0
    6.5181   -4.2941    0.0000 O   0  0  0  0  0  0  0  0  0  0  0  0
    6.5077   -5.1191    0.0000 C   0  0  0  0  0  0  0  0  0  0  0  0
    5.0789   -5.1011    0.0000 O   0  0  0  0  0  0  0  0  0  0  0  0
    5.7881   -5.5226    0.0000 C   0  0  0  0  0  0  0  0  0  0  0  0
    5.0582   -6.7510    0.0000 O   0  0  0  0  0  0  0  0  0  0  0  0
    5.7778   -6.3475    0.0000 C   0  0  0  0  0  0  0  0  0  0  0  0
    6.4870   -6.7690    0.0000 C   0  0  0  0  0  0  0  0  0  0  0  0
    5.7876  -10.4842    0.0000 O   0  0  0  0  0  0  0  0  0  0  0  0
    5.0732  -10.0716    0.0000 C   0  0  1  0  0  0  0  0  0  0  0  0
    5.0733   -9.2466    0.0000 C   0  0  2  0  0  0  0  0  0  0  0  0
    5.0734   -8.4216    0.0000 H   0  0  0  0  0  0  0  0  0  0  0  0
 41 22  1  0  0  0  0
 23 21  1  6  0  0  0
 23 22  1  0  0  0  0
 25 23  1  0  0  0  0
 25 24  1  1  0  0  0
 27 25  1  0  0  0  0
 27 26  1  6  0  0  0
 38 30  1  0  0  0  0
 29 31  1  0  0  0  0
 29 28  1  0  0  0  0
 31 33  1  0  0  0  0
 31 30  1  0  0  0  0
 33 35  1  0  0  0  0
 33 32  1  0  0  0  0
 35 37  1  0  0  0  0
 35 34  1  0  0  0  0
 37 38  1  0  0  0  0
 37 36  1  0  0  0  0
  1  2  2  0  0  0  0
  2  3  1  0  0  0  0
  3  4  2  0  0  0  0
  3  5  1  0  0  0  0
  5  6  1  0  0  0  0
  6  7  1  0  0  0  0
  6  8  2  0  0  0  0
  8  9  1  0  0  0  0
  9 10  1  0  0  0  0
  9 11  2  0  0  0  0
 11 12  1  0  0  0  0
  5 12  2  0  0  0  0
 12 13  1  0  0  0  0
  1 13  1  0  0  0  0
  1 14  1  0  0  0  0
 14 15  1  0  0  0  0
 15 16  2  0  0  0  0
 16 17  1  0  0  0  0
 17 18  1  0  0  0  0
 17 19  2  0  0  0  0
 19 20  1  0  0  0  0
 14 20  2  0  0  0  0
 40 27  1  0  0  0  0
 40 39  1  6  0  0  0
 41 40  1  0  0  0  0
 38 11  1  0  0  0  0
 41  8  1  0  0  0  0
 41 42  1  6  0  0  0
M  END
>  <cdx:groupId>
135

>  <cdx:fragmentId>
5

$$$$
