95949.cdx
  Mrv1902 05222410282D          

 27 27  0  0  0  0            999 V2000
    4.0956   -7.2188    0.0000 C   0  0  0  0  0  0  0  0  0  0  0  0
    4.0956   -8.0437    0.0000 C   0  0  0  0  0  0  0  0  0  0  0  0
    4.8100   -8.4563    0.0000 C   0  0  0  0  0  0  0  0  0  0  0  0
    5.5245   -7.2188    0.0000 C   0  0  0  0  0  0  0  0  0  0  0  0
    4.8100   -6.8062    0.0000 C   0  0  0  0  0  0  0  0  0  0  0  0
    6.2390   -8.4563    0.0000 O   0  0  0  0  0  0  0  0  0  0  0  0
    6.9534   -8.0437    0.0000 C   0  0  0  0  0  0  0  0  0  0  0  0
    6.9534   -7.2188    0.0000 C   0  0  0  0  0  0  0  0  0  0  0  0
    6.2390   -6.8062    0.0000 C   0  0  0  0  0  0  0  0  0  0  0  0
    7.6679   -8.4563    0.0000 C   0  0  0  0  0  0  0  0  0  0  0  0
    8.3824   -8.0437    0.0000 C   0  0  0  0  0  0  0  0  0  0  0  0
    8.3824   -7.2188    0.0000 C   0  0  0  0  0  0  0  0  0  0  0  0
    7.6679   -6.8062    0.0000 C   0  0  0  0  0  0  0  0  0  0  0  0
    9.0969   -8.4563    0.0000 C   0  0  0  0  0  0  0  0  0  0  0  0
    9.8113   -8.0437    0.0000 C   0  0  0  0  0  0  0  0  0  0  0  0
   10.5258   -8.4563    0.0000 C   0  0  0  0  0  0  0  0  0  0  0  0
   11.2403   -8.0437    0.0000 C   0  0  0  0  0  0  0  0  0  0  0  0
   11.9547   -8.4563    0.0000 C   0  0  0  0  0  0  0  0  0  0  0  0
    4.8100   -5.9813    0.0000 C   0  0  0  0  0  0  0  0  0  0  0  0
    4.8100   -9.2813    0.0000 C   0  0  0  0  0  0  0  0  0  0  0  0
    5.5245   -9.6937    0.0000 C   0  0  0  0  0  0  0  0  0  0  0  0
    4.0956   -9.6937    0.0000 C   0  0  0  0  0  0  0  0  0  0  0  0
    7.6679   -5.9813    0.0000 O   0  0  0  0  0  0  0  0  0  0  0  0
    7.6679   -9.2813    0.0000 O   0  0  0  0  0  0  0  0  0  0  0  0
    6.2390   -9.2813    0.0000 C   0  0  0  0  0  0  0  0  0  0  0  0
    6.9534   -9.6937    0.0000 C   0  0  0  0  0  0  0  0  0  0  0  0
    6.2390  -10.1063    0.0000 O   0  0  0  0  0  0  0  0  0  0  0  0
  1  2  1  0  0  0  0
  2  3  1  0  0  0  0
  4  5  2  0  0  0  0
  5  1  1  0  0  0  0
  6  7  1  0  0  0  0
  7  8  2  0  0  0  0
  8  9  1  0  0  0  0
  9  4  1  0  0  0  0
  7 10  1  0  0  0  0
 10 11  2  0  0  0  0
 11 12  1  0  0  0  0
 12 13  2  0  0  0  0
 13  8  1  0  0  0  0
 11 14  1  0  0  0  0
 14 15  1  0  0  0  0
 15 16  1  0  0  0  0
 16 17  1  0  0  0  0
 17 18  1  0  0  0  0
  5 19  1  0  0  0  0
  3 20  2  0  0  0  0
 20 21  1  0  0  0  0
 20 22  1  0  0  0  0
 13 23  1  0  0  0  0
 10 24  1  0  0  0  0
  6 25  1  0  0  0  0
 25 26  1  0  0  0  0
 25 27  2  0  0  0  0
M  END
>  <cdx:fragmentId>
5

$$$$
