95951.cdx
  Mrv1902 05222410182D          

 24 25  0  0  0  0            999 V2000
    6.1570   -8.0162    0.0000 C   0  0  0  0  0  0  0  0  0  0  0  0
    6.8715   -9.2538    0.0000 O   0  0  0  0  0  0  0  0  0  0  0  0
    7.5859   -8.8413    0.0000 C   0  0  0  0  0  0  0  0  0  0  0  0
    7.5859   -8.0162    0.0000 C   0  0  0  0  0  0  0  0  0  0  0  0
    6.8715   -7.6037    0.0000 C   0  0  0  0  0  0  0  0  0  0  0  0
    8.3004   -9.2538    0.0000 C   0  0  0  0  0  0  0  0  0  0  0  0
    9.0149   -8.8413    0.0000 C   0  0  0  0  0  0  0  0  0  0  0  0
    9.0149   -8.0162    0.0000 C   0  0  0  0  0  0  0  0  0  0  0  0
    8.3004   -7.6037    0.0000 C   0  0  0  0  0  0  0  0  0  0  0  0
    9.7294   -9.2538    0.0000 C   0  0  0  0  0  0  0  0  0  0  0  0
   10.4438   -8.8413    0.0000 C   0  0  0  0  0  0  0  0  0  0  0  0
   11.1583   -9.2538    0.0000 C   0  0  0  0  0  0  0  0  0  0  0  0
   11.8728   -8.8413    0.0000 C   0  0  0  0  0  0  0  0  0  0  0  0
   12.5872   -9.2538    0.0000 C   0  0  0  0  0  0  0  0  0  0  0  0
    8.3004   -6.7788    0.0000 O   0  0  0  0  0  0  0  0  0  0  0  0
    6.1570   -8.8413    0.0000 C   0  0  0  0  0  0  0  0  0  0  0  0
    5.4425   -9.2538    0.0000 C   0  0  0  0  0  0  0  0  0  0  0  0
    4.7281   -8.8413    0.0000 C   0  0  0  0  0  0  0  0  0  0  0  0
    4.0136   -9.2538    0.0000 C   0  0  0  0  0  0  0  0  0  0  0  0
    3.2991   -8.8413    0.0000 C   0  0  0  0  0  0  0  0  0  0  0  0
    2.5846   -9.2538    0.0000 C   0  0  0  0  0  0  0  0  0  0  0  0
    3.2991   -8.0162    0.0000 C   0  0  0  0  0  0  0  0  0  0  0  0
    5.4425   -7.6037    0.0000 O   0  0  0  0  0  0  0  0  0  0  0  0
    5.4425   -8.4288    0.0000 C   0  0  0  0  0  0  0  0  0  0  0  0
  2  3  1  0  0  0  0
  3  4  2  0  0  0  0
  4  5  1  0  0  0  0
  5  1  1  0  0  0  0
  3  6  1  0  0  0  0
  6  7  2  0  0  0  0
  7  8  1  0  0  0  0
  8  9  2  0  0  0  0
  9  4  1  0  0  0  0
  7 10  1  0  0  0  0
 10 11  1  0  0  0  0
 11 12  1  0  0  0  0
 12 13  1  0  0  0  0
 13 14  1  0  0  0  0
  9 15  1  0  0  0  0
  1 16  1  0  0  0  0
 16  2  1  0  0  0  0
 16 17  1  0  0  0  0
 17 18  1  0  0  0  0
 18 19  1  0  0  0  0
 19 20  2  0  0  0  0
 20 21  1  0  0  0  0
 20 22  1  0  0  0  0
  1 23  1  0  0  0  0
 16 24  1  0  0  0  0
M  END
>  <cdx:fragmentId>
5

$$$$
