95953.cdx
  Mrv1902 05222410192D          

 24 26  0  0  0  0            999 V2000
    5.7944  -10.6957    0.0000 C   0  0  0  0  0  0  0  0  0  0  0  0
    5.0812  -10.2811    0.0000 C   0  0  0  0  0  0  0  0  0  0  0  0
    4.3655  -10.6914    0.0000 C   0  0  0  0  0  0  0  0  0  0  0  0
    3.6523  -10.2768    0.0000 C   0  0  0  0  0  0  0  0  0  0  0  0
   10.1930  -10.2963    0.0000 C   0  0  0  0  0  0  0  0  0  0  0  0
    9.7784  -11.0096    0.0000 C   0  0  0  0  0  0  0  0  0  0  0  0
    9.3779   -6.9939    0.0000 C   0  0  0  0  0  0  0  0  0  0  0  0
    2.9366  -10.6872    0.0000 C   0  0  0  0  0  0  0  0  0  0  0  0
   10.8043   -7.8231    0.0000 O   0  0  0  0  0  0  0  0  0  0  0  0
    7.2308   -8.2250    0.0000 O   0  0  0  0  0  0  0  0  0  0  0  0
   10.0862   -9.0585    0.0000 C   0  0  0  0  0  0  0  0  0  0  0  0
   10.0886   -8.2335    0.0000 C   0  0  0  0  0  0  0  0  0  0  0  0
    9.3754   -7.8189    0.0000 C   0  0  0  0  0  0  0  0  0  0  0  0
    8.6597   -8.2292    0.0000 C   0  0  0  0  0  0  0  0  0  0  0  0
    8.6523  -10.7042    0.0000 O   0  0  0  0  0  0  0  0  0  0  0  0
    7.9391  -10.2896    0.0000 C   0  0  0  0  0  0  0  0  0  0  0  0
    7.2234  -10.7000    0.0000 C   0  0  0  0  0  0  0  0  0  0  0  0
    6.5101  -10.2853    0.0000 C   0  0  0  0  0  0  0  0  0  0  0  0
    6.5126   -9.4603    0.0000 C   0  0  0  0  0  0  0  0  0  0  0  0
    7.2283   -9.0500    0.0000 C   0  0  0  0  0  0  0  0  0  0  0  0
    7.9415   -9.4646    0.0000 C   0  0  0  0  0  0  0  0  0  0  0  0
    8.6572   -9.0542    0.0000 C   0  0  0  0  0  0  0  0  0  0  0  0
    9.3705   -9.4689    0.0000 C   0  0  0  0  0  0  0  0  0  0  0  0
    9.3680  -10.2939    0.0000 C   0  0  0  0  0  0  0  0  0  0  0  0
 24  5  1  0  0  0  0
 24  6  1  0  0  0  0
 13  7  1  0  0  0  0
 18  1  1  0  0  0  0
 12  9  1  0  0  0  0
 20 10  1  0  0  0  0
 14 22  2  0  0  0  0
 11 23  2  0  0  0  0
 12 11  1  0  0  0  0
 13 12  2  0  0  0  0
 14 13  1  0  0  0  0
 24 15  1  0  0  0  0
 16 15  1  0  0  0  0
 21 16  2  0  0  0  0
 17 16  1  0  0  0  0
 18 17  2  0  0  0  0
 19 18  1  0  0  0  0
 20 19  2  0  0  0  0
 21 20  1  0  0  0  0
 22 21  1  0  0  0  0
 23 22  1  0  0  0  0
 24 23  1  0  0  0  0
  1  2  1  0  0  0  0
  2  3  1  0  0  0  0
  3  4  1  0  0  0  0
  4  8  1  0  0  0  0
M  END
>  <cdx:fragmentId>
5

$$$$
