95952.cdx
  Mrv1902 05222410192D          

 27 27  0  0  0  0            999 V2000
    7.1756   -5.6788    0.0000 C   0  0  0  0  0  0  0  0  0  0  0  0
    7.1756   -6.5038    0.0000 C   0  0  0  0  0  0  0  0  0  0  0  0
    7.8900   -6.9162    0.0000 C   0  0  0  0  0  0  0  0  0  0  0  0
    8.6045   -6.5038    0.0000 C   0  0  0  0  0  0  0  0  0  0  0  0
    8.6045   -5.6788    0.0000 C   0  0  0  0  0  0  0  0  0  0  0  0
    7.8900   -5.2663    0.0000 C   0  0  0  0  0  0  0  0  0  0  0  0
    7.8900   -4.4412    0.0000 O   0  0  0  0  0  0  0  0  0  0  0  0
    7.8900   -7.7413    0.0000 O   0  0  0  0  0  0  0  0  0  0  0  0
    9.3190   -6.9162    0.0000 O   0  0  0  0  0  0  0  0  0  0  0  0
    8.6045   -8.1538    0.0000 C   0  0  0  0  0  0  0  0  0  0  0  0
    8.6045   -8.9788    0.0000 O   0  0  0  0  0  0  0  0  0  0  0  0
    9.3190   -7.7413    0.0000 C   0  0  0  0  0  0  0  0  0  0  0  0
    6.4611   -6.9162    0.0000 C   0  0  0  0  0  0  0  0  0  0  0  0
    6.4611   -7.7413    0.0000 C   0  0  0  0  0  0  0  0  0  0  0  0
    7.1756   -8.1538    0.0000 C   0  0  0  0  0  0  0  0  0  0  0  0
    7.1756   -8.9788    0.0000 C   0  0  0  0  0  0  0  0  0  0  0  0
    6.4611   -9.3913    0.0000 C   0  0  0  0  0  0  0  0  0  0  0  0
    6.4611   -5.2663    0.0000 C   0  0  0  0  0  0  0  0  0  0  0  0
    5.7466   -5.6788    0.0000 C   0  0  0  0  0  0  0  0  0  0  0  0
    5.0321   -5.2663    0.0000 C   0  0  0  0  0  0  0  0  0  0  0  0
    4.3177   -5.6788    0.0000 C   0  0  0  0  0  0  0  0  0  0  0  0
    5.0321   -4.4412    0.0000 C   0  0  0  0  0  0  0  0  0  0  0  0
    4.3177   -6.5038    0.0000 C   0  0  0  0  0  0  0  0  0  0  0  0
    5.0321   -6.9162    0.0000 C   0  0  0  0  0  0  0  0  0  0  0  0
    5.0321   -7.7413    0.0000 C   0  0  0  0  0  0  0  0  0  0  0  0
    5.7466   -8.1538    0.0000 C   0  0  0  0  0  0  0  0  0  0  0  0
    4.3177   -8.1538    0.0000 C   0  0  0  0  0  0  0  0  0  0  0  0
  1  2  2  0  0  0  0
  2  3  1  0  0  0  0
  3  4  2  0  0  0  0
  4  5  1  0  0  0  0
  5  6  2  0  0  0  0
  6  1  1  0  0  0  0
  6  7  1  0  0  0  0
  3  8  1  0  0  0  0
  4  9  1  0  0  0  0
  8 10  1  0  0  0  0
 10 11  2  0  0  0  0
 10 12  1  0  0  0  0
  2 13  1  0  0  0  0
 13 14  1  0  0  0  0
 14 15  1  0  0  0  0
 15 16  1  0  0  0  0
 16 17  1  0  0  0  0
  1 18  1  0  0  0  0
 18 19  1  0  0  0  0
 19 20  2  0  0  0  0
 20 21  1  0  0  0  0
 20 22  1  0  0  0  0
 21 23  1  0  0  0  0
 23 24  1  0  0  0  0
 24 25  2  0  0  0  0
 25 26  1  0  0  0  0
 25 27  1  0  0  0  0
M  END
>  <cdx:fragmentId>
5

$$$$
