95955.cdx
  Mrv1902 05222410202D          

 24 24  0  0  0  0            999 V2000
    4.0543   -6.4763    0.0000 C   0  0  0  0  0  0  0  0  0  0  0  0
    4.0543   -7.3012    0.0000 C   0  0  0  0  0  0  0  0  0  0  0  0
    4.7688   -7.7138    0.0000 C   0  0  0  0  0  0  0  0  0  0  0  0
    5.4832   -6.4763    0.0000 C   0  0  0  0  0  0  0  0  0  0  0  0
    4.7688   -6.0638    0.0000 C   0  0  0  0  0  0  0  0  0  0  0  0
    6.1977   -7.7138    0.0000 C   0  0  0  0  0  0  0  0  0  0  0  0
    6.9122   -7.3012    0.0000 C   0  0  0  0  0  0  0  0  0  0  0  0
    6.9122   -6.4763    0.0000 C   0  0  0  0  0  0  0  0  0  0  0  0
    6.1977   -6.0638    0.0000 C   0  0  0  0  0  0  0  0  0  0  0  0
    7.6267   -7.7138    0.0000 C   0  0  0  0  0  0  0  0  0  0  0  0
    8.3411   -7.3012    0.0000 C   0  0  0  0  0  0  0  0  0  0  0  0
    8.3411   -6.4763    0.0000 C   0  0  0  0  0  0  0  0  0  0  0  0
    7.6267   -6.0638    0.0000 C   0  0  0  0  0  0  0  0  0  0  0  0
    6.1977   -8.5388    0.0000 C   0  0  0  0  0  0  0  0  0  0  0  0
    6.9122   -8.9513    0.0000 C   0  0  0  0  0  0  0  0  0  0  0  0
    7.6267   -8.5388    0.0000 O   0  0  0  0  0  0  0  0  0  0  0  0
    6.1977  -10.1888    0.0000 C   0  0  0  0  0  0  0  0  0  0  0  0
    6.9122   -9.7763    0.0000 C   0  0  0  0  0  0  0  0  0  0  0  0
    4.7688   -5.2387    0.0000 C   0  0  0  0  0  0  0  0  0  0  0  0
    4.7688   -8.5388    0.0000 C   0  0  0  0  0  0  0  0  0  0  0  0
    5.4832   -8.9513    0.0000 C   0  0  0  0  0  0  0  0  0  0  0  0
    4.0543   -8.9513    0.0000 C   0  0  0  0  0  0  0  0  0  0  0  0
    7.6267   -5.2387    0.0000 O   0  0  0  0  0  0  0  0  0  0  0  0
    9.0556   -7.7138    0.0000 O   0  0  0  0  0  0  0  0  0  0  0  0
  1  2  1  0  0  0  0
  2  3  1  0  0  0  0
  4  5  2  0  0  0  0
  5  1  1  0  0  0  0
  6  7  1  0  0  0  0
  7  8  2  0  0  0  0
  8  9  1  0  0  0  0
  9  4  1  0  0  0  0
  7 10  1  0  0  0  0
 10 11  1  0  0  0  0
 11 12  2  0  0  0  0
 12 13  1  0  0  0  0
 13  8  1  0  0  0  0
  6 14  1  0  0  0  0
 14 15  1  0  0  0  0
 16 10  2  0  0  0  0
 17 18  1  0  0  0  0
 18 15  1  0  0  0  0
  5 19  1  0  0  0  0
  3 20  2  0  0  0  0
 20 21  1  0  0  0  0
 20 22  1  0  0  0  0
 13 23  2  0  0  0  0
 11 24  1  0  0  0  0
M  END
>  <cdx:fragmentId>
5

$$$$
