95954.cdx
  Mrv1902 05222410202D          

 27 29  0  0  0  0            999 V2000
    5.9887   -9.2451    0.0000 C   0  0  0  0  0  0  0  0  0  0  0  0
    5.2732   -8.8343    0.0000 C   0  0  0  0  0  0  0  0  0  0  0  0
    4.5597   -9.2485    0.0000 C   0  0  0  0  0  0  0  0  0  0  0  0
    3.8443   -8.8376    0.0000 C   0  0  0  0  0  0  0  0  0  0  0  0
    7.4118   -6.7667    0.0000 O   0  0  0  0  0  0  0  0  0  0  0  0
   10.9832   -6.3458    0.0000 O   0  0  0  0  0  0  0  0  0  0  0  0
   10.3851   -8.8222    0.0000 C   0  0  0  0  0  0  0  0  0  0  0  0
    9.9742   -9.5377    0.0000 C   0  0  0  0  0  0  0  0  0  0  0  0
    9.5523   -5.5242    0.0000 C   0  0  0  0  0  0  0  0  0  0  0  0
    3.1308   -9.2518    0.0000 C   0  0  0  0  0  0  0  0  0  0  0  0
    5.2713   -8.0093    0.0000 O   0  0  0  0  0  0  0  0  0  0  0  0
    5.9829   -6.7701    0.0000 O   0  0  0  0  0  0  0  0  0  0  0  0
    5.9848   -7.5951    0.0000 C   0  0  0  0  0  0  0  0  0  0  0  0
   10.2716   -7.5850    0.0000 C   0  0  0  0  0  0  0  0  0  0  0  0
   10.2697   -6.7600    0.0000 C   0  0  0  0  0  0  0  0  0  0  0  0
    9.5542   -6.3492    0.0000 C   0  0  0  0  0  0  0  0  0  0  0  0
    8.8407   -6.7634    0.0000 C   0  0  0  0  0  0  0  0  0  0  0  0
    8.8466   -9.2384    0.0000 O   0  0  0  0  0  0  0  0  0  0  0  0
    8.1311   -8.8276    0.0000 C   0  0  0  0  0  0  0  0  0  0  0  0
    7.4176   -9.2417    0.0000 C   0  0  0  0  0  0  0  0  0  0  0  0
    6.7022   -8.8309    0.0000 C   0  0  0  0  0  0  0  0  0  0  0  0
    6.7002   -8.0059    0.0000 C   0  0  0  0  0  0  0  0  0  0  0  0
    7.4137   -7.5917    0.0000 C   0  0  0  0  0  0  0  0  0  0  0  0
    8.1292   -8.0026    0.0000 C   0  0  0  0  0  0  0  0  0  0  0  0
    8.8427   -7.5884    0.0000 C   0  0  0  0  0  0  0  0  0  0  0  0
    9.5581   -7.9992    0.0000 C   0  0  0  0  0  0  0  0  0  0  0  0
    9.5601   -8.8242    0.0000 C   0  0  0  0  0  0  0  0  0  0  0  0
 23  5  1  0  0  0  0
 15  6  1  0  0  0  0
 27  7  1  0  0  0  0
 27  8  1  0  0  0  0
 16  9  1  0  0  0  0
 21  1  1  0  0  0  0
 22 13  1  0  0  0  0
 13 11  1  0  0  0  0
 13 12  2  0  0  0  0
 17 25  2  0  0  0  0
 14 26  2  0  0  0  0
 15 14  1  0  0  0  0
 16 15  2  0  0  0  0
 17 16  1  0  0  0  0
 27 18  1  0  0  0  0
 19 18  1  0  0  0  0
 24 19  2  0  0  0  0
 20 19  1  0  0  0  0
 21 20  2  0  0  0  0
 22 21  1  0  0  0  0
 23 22  2  0  0  0  0
 24 23  1  0  0  0  0
 25 24  1  0  0  0  0
 26 25  1  0  0  0  0
 27 26  1  0  0  0  0
  1  2  1  0  0  0  0
  2  3  1  0  0  0  0
  3  4  1  0  0  0  0
  4 10  1  0  0  0  0
M  END
>  <cdx:fragmentId>
5

$$$$
