95950.cdx
  Mrv1902 05222410182D          

 28 30  0  0  0  0            999 V2000
    5.5806   -7.6725    0.0000 C   0  0  1  0  0  0  0  0  0  0  0  0
    5.5806   -8.4975    0.0000 C   0  0  1  0  0  0  0  0  0  0  0  0
    6.2950   -8.9100    0.0000 O   0  0  0  0  0  0  0  0  0  0  0  0
    7.0095   -8.4975    0.0000 C   0  0  0  0  0  0  0  0  0  0  0  0
    7.0095   -7.6725    0.0000 C   0  0  0  0  0  0  0  0  0  0  0  0
    6.2950   -7.2600    0.0000 C   0  0  0  0  0  0  0  0  0  0  0  0
    7.7240   -8.9100    0.0000 C   0  0  0  0  0  0  0  0  0  0  0  0
    8.4384   -8.4975    0.0000 C   0  0  0  0  0  0  0  0  0  0  0  0
    8.4384   -7.6725    0.0000 C   0  0  0  0  0  0  0  0  0  0  0  0
    7.7240   -7.2600    0.0000 C   0  0  0  0  0  0  0  0  0  0  0  0
    7.7240   -6.4350    0.0000 O   0  0  0  0  0  0  0  0  0  0  0  0
    6.2950   -6.4350    0.0000 C   0  0  0  0  0  0  0  0  0  0  0  0
    4.8661   -7.2600    0.0000 C   0  0  0  0  0  0  0  0  0  0  0  0
    4.1516   -7.6725    0.0000 C   0  0  0  0  0  0  0  0  0  0  0  0
    3.4371   -7.2600    0.0000 C   0  0  0  0  0  0  0  0  0  0  0  0
    2.7227   -7.6725    0.0000 C   0  0  0  0  0  0  0  0  0  0  0  0
    9.1529   -7.2600    0.0000 C   0  0  0  0  0  0  0  0  0  0  0  0
    9.8674   -7.6725    0.0000 O   0  0  0  0  0  0  0  0  0  0  0  0
    9.1529   -6.4350    0.0000 O   0  0  0  0  0  0  0  0  0  0  0  0
    9.1529   -8.9100    0.0000 C   0  0  0  0  0  0  0  0  0  0  0  0
    3.4371   -6.4350    0.0000 O   0  0  0  0  0  0  0  0  0  0  0  0
    5.5806   -6.8475    0.0000 H   0  0  0  0  0  0  0  0  0  0  0  0
    5.3670   -9.2944    0.0000 C   0  0  0  0  0  0  0  0  0  0  0  0
    4.7556   -8.4975    0.0000 C   0  0  0  0  0  0  0  0  0  0  0  0
    9.8674   -8.4975    0.0000 C   0  0  0  0  0  0  0  0  0  0  0  0
   10.5819   -8.9100    0.0000 C   0  0  0  0  0  0  0  0  0  0  0  0
   11.2963   -8.4975    0.0000 C   0  0  0  0  0  0  0  0  0  0  0  0
   12.0108   -8.9100    0.0000 C   0  0  0  0  0  0  0  0  0  0  0  0
  1  2  1  0  0  0  0
  2  3  1  0  0  0  0
  3  4  1  0  0  0  0
  4  5  1  0  0  0  0
  5  6  1  0  0  0  0
  6  1  1  0  0  0  0
  4  7  2  0  0  0  0
  7  8  1  0  0  0  0
  8  9  2  0  0  0  0
  9 10  1  0  0  0  0
 10  5  2  0  0  0  0
 10 11  1  0  0  0  0
 12  6  2  0  0  0  0
  1 13  1  0  0  0  0
 13 14  1  0  0  0  0
 14 15  1  0  0  0  0
 15 16  1  0  0  0  0
 12 11  1  0  0  0  0
  9 17  1  0  0  0  0
 17 18  1  0  0  0  0
 17 19  2  0  0  0  0
  8 20  1  0  0  0  0
 15 21  2  0  0  0  0
  1 22  1  1  0  0  0
  2 23  1  1  0  0  0
  2 24  1  6  0  0  0
 20 25  1  0  0  0  0
 25 26  1  0  0  0  0
 26 27  1  0  0  0  0
 27 28  1  0  0  0  0
M  END
>  <cdx:fragmentId>
5

$$$$
