95966.cdx
  Mrv1902 05222410272D          

 44 48  0  0  0  0            999 V2000
    4.1540   -7.7619    0.0000 C   0  0  0  0  0  0  0  0  0  0  0  0
    3.3392   -7.8909    0.0000 O   0  0  0  0  0  0  0  0  0  0  0  0
    4.6732   -8.4030    0.0000 N   0  0  0  0  0  0  0  0  0  0  0  0
    4.3776   -9.1732    0.0000 C   0  0  0  0  0  0  0  0  0  0  0  0
    4.8968   -9.8144    0.0000 C   0  0  0  0  0  0  0  0  0  0  0  0
    4.6011  -10.5846    0.0000 C   0  0  0  0  0  0  0  0  0  0  0  0
    5.1203  -11.2257    0.0000 C   0  0  0  0  0  0  0  0  0  0  0  0
    4.8246  -11.9959    0.0000 C   0  0  0  0  0  0  0  0  0  0  0  0
    4.0098  -12.1250    0.0000 C   0  0  0  0  0  0  0  0  0  0  0  0
    3.4906  -11.4838    0.0000 C   0  0  0  0  0  0  0  0  0  0  0  0
    3.7863  -10.7136    0.0000 C   0  0  0  0  0  0  0  0  0  0  0  0
    3.7141  -12.8952    0.0000 O   0  0  0  0  0  0  0  0  0  0  0  0
    1.4491   -4.8809    0.0000 O   0  0  0  0  0  0  0  0  0  0  0  0
    0.6241   -6.3098    0.0000 O   0  0  0  0  0  0  0  0  0  0  0  0
    2.6866   -7.0243    0.0000 C   0  0  0  0  0  0  0  0  0  0  0  0
    1.8616   -7.0243    0.0000 C   0  0  0  0  0  0  0  0  0  0  0  0
    1.4491   -6.3098    0.0000 C   0  0  0  0  0  0  0  0  0  0  0  0
    1.8616   -5.5954    0.0000 C   0  0  0  0  0  0  0  0  0  0  0  0
    2.6866   -5.5954    0.0000 C   0  0  0  0  0  0  0  0  0  0  0  0
    3.0991   -6.3098    0.0000 C   0  0  0  0  0  0  0  0  0  0  0  0
    5.9081   -4.6598    0.0000 O   0  0  0  0  0  0  0  0  0  0  0  0
   13.7672   -8.3723    0.0000 O   0  0  0  0  0  0  0  0  0  0  0  0
   12.3383   -6.7223    0.0000 C   0  0  0  0  0  0  0  0  0  0  0  0
   13.0528   -7.1348    0.0000 C   0  0  0  0  0  0  0  0  0  0  0  0
   13.0528   -7.9598    0.0000 C   0  0  0  0  0  0  0  0  0  0  0  0
   12.3383   -8.3723    0.0000 C   0  0  0  0  0  0  0  0  0  0  0  0
   11.6238   -7.9598    0.0000 C   0  0  0  0  0  0  0  0  0  0  0  0
   11.6238   -7.1348    0.0000 C   0  0  0  0  0  0  0  0  0  0  0  0
   10.9094   -6.7223    0.0000 C   0  0  0  0  0  0  0  0  0  0  0  0
   10.1949   -7.1348    0.0000 C   0  0  0  0  0  0  0  0  0  0  0  0
    8.7660   -7.9598    0.0000 O   0  0  0  0  0  0  0  0  0  0  0  0
    9.4804   -6.7223    0.0000 N   0  0  0  0  0  0  0  0  0  0  0  0
    8.7660   -7.1348    0.0000 C   0  0  0  0  0  0  0  0  0  0  0  0
    8.0515   -6.7223    0.0000 C   0  0  0  0  0  0  0  0  0  0  0  0
    7.3370   -7.1348    0.0000 C   0  0  0  0  0  0  0  0  0  0  0  0
    5.1936   -5.8973    0.0000 C   0  0  0  0  0  0  0  0  0  0  0  0
    5.9081   -5.4848    0.0000 C   0  0  0  0  0  0  0  0  0  0  0  0
    6.6225   -5.8973    0.0000 C   0  0  0  0  0  0  0  0  0  0  0  0
    6.6225   -6.7223    0.0000 C   0  0  0  0  0  0  0  0  0  0  0  0
    5.9081   -7.1348    0.0000 C   0  0  0  0  0  0  0  0  0  0  0  0
    5.1936   -6.7223    0.0000 C   0  0  0  0  0  0  0  0  0  0  0  0
    4.4090   -6.9773    0.0000 C   0  0  1  0  0  0  0  0  0  0  0  0
    3.9241   -6.3098    0.0000 C   0  0  2  0  0  0  0  0  0  0  0  0
    4.4090   -5.6424    0.0000 O   0  0  0  0  0  0  0  0  0  0  0  0
 43 20  1  1  0  0  0
 18 13  1  0  0  0  0
 17 14  1  0  0  0  0
 20 15  2  0  0  0  0
 16 15  1  0  0  0  0
 17 16  2  0  0  0  0
 18 17  1  0  0  0  0
 19 18  2  0  0  0  0
 20 19  1  0  0  0  0
 37 21  1  0  0  0  0
 39 35  1  0  0  0  0
 34 33  1  0  0  0  0
 32 30  1  0  0  0  0
 29 28  1  0  0  0  0
 25 22  1  0  0  0  0
 28 23  2  0  0  0  0
 24 23  1  0  0  0  0
 25 24  2  0  0  0  0
 26 25  1  0  0  0  0
 27 26  2  0  0  0  0
 28 27  1  0  0  0  0
 30 29  1  0  0  0  0
 33 31  2  0  0  0  0
 33 32  1  0  0  0  0
 35 34  2  0  0  0  0
 42  1  1  6  0  0  0
 44 36  1  0  0  0  0
 41 36  2  0  0  0  0
 37 36  1  0  0  0  0
 38 37  2  0  0  0  0
 39 38  1  0  0  0  0
 40 39  2  0  0  0  0
 41 40  1  0  0  0  0
 42 41  1  0  0  0  0
 43 42  1  0  0  0  0
 44 43  1  0  0  0  0
  1  2  2  0  0  0  0
  1  3  1  0  0  0  0
  4  5  1  0  0  0  0
  6  7  1  0  0  0  0
  7  8  2  0  0  0  0
  8  9  1  0  0  0  0
  9 10  2  0  0  0  0
 10 11  1  0  0  0  0
  6 11  2  0  0  0  0
  9 12  1  0  0  0  0
  5  6  1  0  0  0  0
  3  4  1  0  0  0  0
M  END
>  <cdx:fragmentId>
43

$$$$
