9596.cdx
  Mrv1902 05222410182D          

 52 55  0  0  0  0            999 V2000
    2.1112   -2.5369    0.0000 C   0  0  0  0  0  0  0  0  0  0  0  0
    2.1112   -3.3619    0.0000 C   0  0  0  0  0  0  0  0  0  0  0  0
    2.8256   -3.7744    0.0000 C   0  0  0  0  0  0  0  0  0  0  0  0
    3.5401   -3.3619    0.0000 C   0  0  0  0  0  0  0  0  0  0  0  0
    3.5401   -2.5369    0.0000 C   0  0  0  0  0  0  0  0  0  0  0  0
    2.8256   -2.1244    0.0000 C   0  0  0  0  0  0  0  0  0  0  0  0
    4.2546   -2.1244    0.0000 C   0  0  0  0  0  0  0  0  0  0  0  0
    4.9690   -2.5369    0.0000 C   0  0  2  0  0  0  0  0  0  0  0  0
    2.8256   -4.5994    0.0000 O   0  0  0  0  0  0  0  0  0  0  0  0
    1.3967   -3.7744    0.0000 O   0  0  0  0  0  0  0  0  0  0  0  0
    1.3967   -2.1244    0.0000 O   0  0  0  0  0  0  0  0  0  0  0  0
    0.6822   -2.5369    0.0000 C   0  0  0  0  0  0  0  0  0  0  0  0
    5.6835   -2.1244    0.0000 C   0  0  0  0  0  0  0  0  0  0  0  0
    4.9690   -3.3619    0.0000 C   0  0  2  0  0  0  0  0  0  0  0  0
    6.3980   -2.5369    0.0000 O   0  0  0  0  0  0  0  0  0  0  0  0
    4.2546   -3.7744    0.0000 C   0  0  0  0  0  0  0  0  0  0  0  0
    5.6835   -3.7744    0.0000 C   0  0  0  0  0  0  0  0  0  0  0  0
    6.3980   -3.3619    0.0000 O   0  0  0  0  0  0  0  0  0  0  0  0
    4.2546   -4.5994    0.0000 C   0  0  0  0  0  0  0  0  0  0  0  0
    2.1112   -5.0119    0.0000 C   0  0  0  0  0  0  0  0  0  0  0  0
    3.5401   -5.0119    0.0000 C   0  0  0  0  0  0  0  0  0  0  0  0
    3.5401   -5.8369    0.0000 C   0  0  0  0  0  0  0  0  0  0  0  0
    4.2546   -6.2494    0.0000 C   0  0  0  0  0  0  0  0  0  0  0  0
    4.9690   -5.8369    0.0000 C   0  0  0  0  0  0  0  0  0  0  0  0
    4.9690   -5.0119    0.0000 C   0  0  0  0  0  0  0  0  0  0  0  0
    4.2546   -7.0744    0.0000 O   0  0  0  0  0  0  0  0  0  0  0  0
    5.6835   -6.2494    0.0000 O   0  0  0  0  0  0  0  0  0  0  0  0
    6.3980   -5.8369    0.0000 C   0  0  0  0  0  0  0  0  0  0  0  0
    2.8256   -6.2494    0.0000 O   0  0  0  0  0  0  0  0  0  0  0  0
    2.1112   -5.8369    0.0000 C   0  0  0  0  0  0  0  0  0  0  0  0
    7.1125   -3.7744    0.0000 C   0  0  1  0  0  0  0  0  0  0  0  0
    7.1125   -4.5994    0.0000 C   0  0  1  0  0  0  0  0  0  0  0  0
    7.8269   -5.0119    0.0000 C   0  0  2  0  0  0  0  0  0  0  0  0
    8.5414   -4.5994    0.0000 C   0  0  1  0  0  0  0  0  0  0  0  0
    8.5414   -3.7744    0.0000 C   0  0  2  0  0  0  0  0  0  0  0  0
    7.8269   -3.3619    0.0000 O   0  0  0  0  0  0  0  0  0  0  0  0
    9.2559   -3.3619    0.0000 C   0  0  0  0  0  0  0  0  0  0  0  0
    7.8269   -5.8369    0.0000 O   0  0  0  0  0  0  0  0  0  0  0  0
    9.2559   -5.0119    0.0000 O   0  0  0  0  0  0  0  0  0  0  0  0
    6.3980   -5.0119    0.0000 O   0  0  0  0  0  0  0  0  0  0  0  0
    9.9703   -3.7744    0.0000 O   0  0  0  0  0  0  0  0  0  0  0  0
   10.6848   -3.3619    0.0000 C   0  0  1  0  0  0  0  0  0  0  0  0
   11.3993   -3.7744    0.0000 C   0  0  1  0  0  0  0  0  0  0  0  0
   12.1137   -3.3619    0.0000 C   0  0  2  0  0  0  0  0  0  0  0  0
   12.1137   -2.5369    0.0000 C   0  0  1  0  0  0  0  0  0  0  0  0
   11.3993   -2.1244    0.0000 C   0  0  2  0  0  0  0  0  0  0  0  0
   10.6848   -2.5369    0.0000 O   0  0  0  0  0  0  0  0  0  0  0  0
   11.3993   -1.2994    0.0000 C   0  0  0  0  0  0  0  0  0  0  0  0
   11.3993   -4.5994    0.0000 O   0  0  0  0  0  0  0  0  0  0  0  0
   12.8282   -2.1244    0.0000 O   0  0  0  0  0  0  0  0  0  0  0  0
   12.8282   -3.7744    0.0000 O   0  0  0  0  0  0  0  0  0  0  0  0
   12.1137   -0.8869    0.0000 O   0  0  0  0  0  0  0  0  0  0  0  0
  1  2  2  0  0  0  0
  2  3  1  0  0  0  0
  3  4  2  0  0  0  0
  4  5  1  0  0  0  0
  5  6  2  0  0  0  0
  6  1  1  0  0  0  0
  5  7  1  0  0  0  0
  7  8  1  0  0  0  0
  3  9  1  0  0  0  0
  2 10  1  0  0  0  0
  1 11  1  0  0  0  0
 11 12  1  0  0  0  0
  8 13  1  6  0  0  0
  8 14  1  0  0  0  0
 13 15  1  0  0  0  0
 14 16  1  0  0  0  0
 14 17  1  1  0  0  0
 17 18  1  0  0  0  0
 16 19  1  0  0  0  0
  9 20  1  0  0  0  0
 19 21  2  0  0  0  0
 21 22  1  0  0  0  0
 22 23  2  0  0  0  0
 23 24  1  0  0  0  0
 24 25  2  0  0  0  0
 25 19  1  0  0  0  0
 23 26  1  0  0  0  0
 24 27  1  0  0  0  0
 27 28  1  0  0  0  0
 22 29  1  0  0  0  0
 29 30  1  0  0  0  0
 31 18  1  6  0  0  0
 31 32  1  0  0  0  0
 32 33  1  0  0  0  0
 33 34  1  0  0  0  0
 34 35  1  0  0  0  0
 35 36  1  0  0  0  0
 36 31  1  0  0  0  0
 35 37  1  6  0  0  0
 33 38  1  6  0  0  0
 34 39  1  1  0  0  0
 32 40  1  1  0  0  0
 37 41  1  0  0  0  0
 42 41  1  6  0  0  0
 42 43  1  0  0  0  0
 43 44  1  0  0  0  0
 44 45  1  0  0  0  0
 45 46  1  0  0  0  0
 46 47  1  0  0  0  0
 47 42  1  0  0  0  0
 46 48  1  6  0  0  0
 43 49  1  1  0  0  0
 45 50  1  1  0  0  0
 44 51  1  6  0  0  0
 48 52  1  0  0  0  0
M  END
>  <cdx:fragmentId>
197

$$$$
