95965.cdx
  Mrv1902 05222410262D          

 23 24  0  0  0  0            999 V2000
    2.4731   -6.2975    0.0000 C   0  0  0  0  0  0  0  0  0  0  0  0
    2.4731   -7.1225    0.0000 C   0  0  0  0  0  0  0  0  0  0  0  0
    3.1875   -7.5350    0.0000 C   0  0  0  0  0  0  0  0  0  0  0  0
    3.9020   -7.1225    0.0000 C   0  0  0  0  0  0  0  0  0  0  0  0
    3.9020   -6.2975    0.0000 C   0  0  0  0  0  0  0  0  0  0  0  0
    3.1875   -5.8850    0.0000 C   0  0  0  0  0  0  0  0  0  0  0  0
    1.7586   -5.8850    0.0000 O   0  0  0  0  0  0  0  0  0  0  0  0
    1.7586   -7.5350    0.0000 O   0  0  0  0  0  0  0  0  0  0  0  0
    4.6165   -5.8850    0.0000 C   0  0  0  0  0  0  0  0  0  0  0  0
    5.3309   -6.2975    0.0000 C   0  0  0  0  0  0  0  0  0  0  0  0
    6.0454   -5.8850    0.0000 C   0  0  0  0  0  0  0  0  0  0  0  0
    6.7599   -6.2975    0.0000 N   0  0  0  0  0  0  0  0  0  0  0  0
    6.0454   -5.0600    0.0000 O   0  0  0  0  0  0  0  0  0  0  0  0
    7.4744   -5.8850    0.0000 C   0  0  0  0  0  0  0  0  0  0  0  0
    8.1888   -6.2975    0.0000 C   0  0  0  0  0  0  0  0  0  0  0  0
    8.9033   -5.8850    0.0000 C   0  0  0  0  0  0  0  0  0  0  0  0
    8.1888   -7.1225    0.0000 O   0  0  0  0  0  0  0  0  0  0  0  0
    9.6178   -6.2975    0.0000 C   0  0  0  0  0  0  0  0  0  0  0  0
   10.3322   -5.8850    0.0000 C   0  0  0  0  0  0  0  0  0  0  0  0
   10.3322   -5.0600    0.0000 C   0  0  0  0  0  0  0  0  0  0  0  0
    9.6178   -4.6475    0.0000 C   0  0  0  0  0  0  0  0  0  0  0  0
    8.9033   -5.0600    0.0000 C   0  0  0  0  0  0  0  0  0  0  0  0
   11.0467   -4.6475    0.0000 O   0  0  0  0  0  0  0  0  0  0  0  0
  1  2  2  0  0  0  0
  2  3  1  0  0  0  0
  3  4  2  0  0  0  0
  4  5  1  0  0  0  0
  5  6  2  0  0  0  0
  6  1  1  0  0  0  0
  1  7  1  0  0  0  0
  2  8  1  0  0  0  0
  5  9  1  0  0  0  0
  9 10  2  0  0  0  0
 10 11  1  0  0  0  0
 11 12  1  0  0  0  0
 11 13  2  0  0  0  0
 12 14  1  0  0  0  0
 14 15  1  0  0  0  0
 15 16  1  0  0  0  0
 15 17  1  0  0  0  0
 16 18  2  0  0  0  0
 18 19  1  0  0  0  0
 19 20  2  0  0  0  0
 20 21  1  0  0  0  0
 21 22  2  0  0  0  0
 22 16  1  0  0  0  0
 20 23  1  0  0  0  0
M  END
>  <cdx:fragmentId>
5

$$$$
