95967.cdx
  Mrv1902 05222410272D          

 18 19  0  0  0  0            999 V2000
    7.4034   -7.7834    0.0000 C   0  0  1  0  0  0  0  0  0  0  0  0
    7.4034   -6.9584    0.0000 H   0  0  0  0  0  0  0  0  0  0  0  0
    6.6889   -7.3709    0.0000 C   0  0  0  0  0  0  0  0  0  0  0  0
    5.9745   -7.7834    0.0000 C   0  0  0  0  0  0  0  0  0  0  0  0
    5.9745   -8.6084    0.0000 C   0  0  0  0  0  0  0  0  0  0  0  0
    5.2600   -9.0209    0.0000 C   0  0  0  0  0  0  0  0  0  0  0  0
    6.6889   -9.0209    0.0000 C   0  0  0  0  0  0  0  0  0  0  0  0
    7.4034   -8.6084    0.0000 C   0  0  1  0  0  0  0  0  0  0  0  0
    7.4034   -9.4334    0.0000 H   0  0  0  0  0  0  0  0  0  0  0  0
    8.1179   -9.0209    0.0000 C   0  0  1  0  0  0  0  0  0  0  0  0
    8.1179   -9.8459    0.0000 C   0  0  0  0  0  0  0  0  0  0  0  0
    7.4034  -10.2584    0.0000 C   0  0  0  0  0  0  0  0  0  0  0  0
    8.8323  -10.2584    0.0000 C   0  0  0  0  0  0  0  0  0  0  0  0
    8.8323   -8.6084    0.0000 C   0  0  0  0  0  0  0  0  0  0  0  0
    8.8323   -7.7834    0.0000 C   0  0  0  0  0  0  0  0  0  0  0  0
    8.1179   -7.3709    0.0000 C   0  0  2  0  0  0  0  0  0  0  0  0
    8.1179   -6.5459    0.0000 C   0  0  0  0  0  0  0  0  0  0  0  0
    8.8323   -9.4334    0.0000 O   0  0  0  0  0  0  0  0  0  0  0  0
  1  2  1  1  0  0  0
  1  3  1  0  0  0  0
  3  4  1  0  0  0  0
  4  5  1  0  0  0  0
  5  6  1  0  0  0  0
  5  7  2  0  0  0  0
  7  8  1  0  0  0  0
  8  9  1  1  0  0  0
  1  8  1  0  0  0  0
  8 10  1  0  0  0  0
 10 11  1  0  0  0  0
 11 12  1  0  0  0  0
 11 13  1  0  0  0  0
 10 14  1  0  0  0  0
 14 15  1  0  0  0  0
 15 16  1  0  0  0  0
 16 17  1  1  0  0  0
  1 16  1  0  0  0  0
 10 18  1  1  0  0  0
M  END
>  <cdx:groupId>
57

>  <cdx:fragmentId>
5

$$$$
