95968.cdx
  Mrv1902 05222410202D          

 16 16  0  0  0  0            999 V2000
    6.2700   -7.7834    0.0000 C   0  0  0  0  0  0  0  0  0  0  0  0
    6.9845   -7.3709    0.0000 C   0  0  0  0  0  0  0  0  0  0  0  0
    7.6989   -7.7834    0.0000 C   0  0  0  0  0  0  0  0  0  0  0  0
    8.4134   -7.3709    0.0000 C   0  0  0  0  0  0  0  0  0  0  0  0
    8.4134   -6.5459    0.0000 C   0  0  0  0  0  0  0  0  0  0  0  0
    9.1279   -7.7834    0.0000 C   0  0  0  0  0  0  0  0  0  0  0  0
    9.1279   -8.6084    0.0000 C   0  0  0  0  0  0  0  0  0  0  0  0
    8.4134   -9.0209    0.0000 C   0  0  2  0  0  0  0  0  0  0  0  0
    8.4134   -9.8459    0.0000 C   0  0  0  0  0  0  0  0  0  0  0  0
    7.6989  -10.2584    0.0000 C   0  0  0  0  0  0  0  0  0  0  0  0
    9.1279  -10.2584    0.0000 C   0  0  0  0  0  0  0  0  0  0  0  0
    7.6989   -8.6084    0.0000 C   0  0  0  0  0  0  0  0  0  0  0  0
    6.9845   -9.0209    0.0000 C   0  0  0  0  0  0  0  0  0  0  0  0
    6.2700   -8.6084    0.0000 C   0  0  0  0  0  0  0  0  0  0  0  0
    5.5555   -9.0209    0.0000 C   0  0  0  0  0  0  0  0  0  0  0  0
    5.5555   -7.3709    0.0000 O   0  0  0  0  0  0  0  0  0  0  0  0
  1  2  1  0  0  0  0
  2  3  1  0  0  0  0
  3  4  1  0  0  0  0
  4  5  2  0  0  0  0
  4  6  1  0  0  0  0
  6  7  2  0  0  0  0
  7  8  1  0  0  0  0
  8  9  1  6  0  0  0
  9 10  1  0  0  0  0
  9 11  1  0  0  0  0
  8 12  1  0  0  0  0
 12 13  1  0  0  0  0
 13 14  1  0  0  0  0
 14 15  2  0  0  0  0
  1 14  1  0  0  0  0
  1 16  1  0  0  0  0
M  END
>  <cdx:groupId>
50

>  <cdx:fragmentId>
5

$$$$
