95978.cdx
  Mrv1902 05222410182D          

 12 11  0  0  0  0            999 V2000
    3.8329   -3.6789    0.0000 C   0  0  0  0  0  0  0  0  0  0  0  0
    3.1184   -4.0914    0.0000 C   0  0  0  0  0  0  0  0  0  0  0  0
    2.4040   -3.6789    0.0000 C   0  0  0  0  0  0  0  0  0  0  0  0
    2.4040   -2.8539    0.0000 C   0  0  0  0  0  0  0  0  0  0  0  0
    3.8329   -2.8539    0.0000 O   0  0  0  0  0  0  0  0  0  0  0  0
    4.5474   -4.0914    0.0000 O   0  0  0  0  0  0  0  0  0  0  0  0
    1.6895   -4.0914    0.0000 C   0  0  0  0  0  0  0  0  0  0  0  0
    5.2619   -3.6789    0.0000 C   0  0  0  0  0  0  0  0  0  0  0  0
    5.9763   -4.0914    0.0000 C   0  0  0  0  0  0  0  0  0  0  0  0
    6.6908   -3.6789    0.0000 C   0  0  0  0  0  0  0  0  0  0  0  0
    7.4053   -4.0914    0.0000 C   0  0  0  0  0  0  0  0  0  0  0  0
    8.1197   -3.6789    0.0000 C   0  0  0  0  0  0  0  0  0  0  0  0
  1  2  1  0  0  0  0
  2  3  1  0  0  0  0
  3  4  1  0  0  0  0
  1  5  2  0  0  0  0
  1  6  1  0  0  0  0
  3  7  1  0  0  0  0
  8  9  1  0  0  0  0
  9 10  1  0  0  0  0
 10 11  1  0  0  0  0
 11 12  1  0  0  0  0
  6  8  1  0  0  0  0
M  END
>  <cdx:groupId>
37

>  <cdx:fragmentId>
5

$$$$
