95971.cdx
  Mrv1902 05222410262D          

 21 23  0  0  0  0            999 V2000
    5.5061   -8.0032    0.0000 C   0  0  0  0  0  0  0  0  0  0  0  0
    4.7916   -8.4157    0.0000 C   0  0  0  0  0  0  0  0  0  0  0  0
    4.7916   -9.2407    0.0000 C   0  0  0  0  0  0  0  0  0  0  0  0
    5.5061   -9.6532    0.0000 C   0  0  1  0  0  0  0  0  0  0  0  0
    5.9186  -10.3677    0.0000 C   0  0  0  0  0  0  0  0  0  0  0  0
    5.0936  -10.3677    0.0000 C   0  0  0  0  0  0  0  0  0  0  0  0
    6.2206   -9.2407    0.0000 C   0  0  0  0  0  0  0  0  0  0  0  0
    6.9351   -9.6532    0.0000 C   0  0  0  0  0  0  0  0  0  0  0  0
    7.6495   -9.2407    0.0000 C   0  0  0  0  0  0  0  0  0  0  0  0
    7.6495   -8.4157    0.0000 C   0  0  0  0  0  0  0  0  0  0  0  0
    8.3640   -8.0032    0.0000 C   0  0  0  0  0  0  0  0  0  0  0  0
    8.3640   -7.1782    0.0000 C   0  0  1  0  0  0  0  0  0  0  0  0
    9.1890   -7.1782    0.0000 C   0  0  0  0  0  0  0  0  0  0  0  0
    9.6015   -6.4637    0.0000 C   0  0  0  0  0  0  0  0  0  0  0  0
    8.7765   -6.4637    0.0000 C   0  0  0  0  0  0  0  0  0  0  0  0
    7.6495   -6.7657    0.0000 C   0  0  0  0  0  0  0  0  0  0  0  0
    6.9351   -7.1782    0.0000 C   0  0  0  0  0  0  0  0  0  0  0  0
    6.9351   -8.0032    0.0000 C   0  0  2  0  0  0  0  0  0  0  0  0
    6.2206   -8.4157    0.0000 C   0  0  1  0  0  0  0  0  0  0  0  0
    6.2206   -7.5907    0.0000 C   0  0  0  0  0  0  0  0  0  0  0  0
    6.9351   -8.8282    0.0000 H   0  0  0  0  0  0  0  0  0  0  0  0
  1  2  1  0  0  0  0
  2  3  1  0  0  0  0
  3  4  1  0  0  0  0
  4  5  1  1  0  0  0
  4  6  1  6  0  0  0
  4  7  1  0  0  0  0
  7  8  1  0  0  0  0
  8  9  1  0  0  0  0
  9 10  1  0  0  0  0
 10 11  2  0  0  0  0
 11 12  1  0  0  0  0
 12 13  1  1  0  0  0
 13 14  2  0  0  0  0
 12 15  1  6  0  0  0
 12 16  1  0  0  0  0
 16 17  1  0  0  0  0
 17 18  1  0  0  0  0
 10 18  1  0  0  0  0
 18 19  1  0  0  0  0
 19 20  1  1  0  0  0
  1 19  1  0  0  0  0
  7 19  1  0  0  0  0
 18 21  1  6  0  0  0
M  END
>  <cdx:groupId>
67

>  <cdx:fragmentId>
5

$$$$
