95975.cdx
  Mrv1902 05222410282D          

 12 13  0  0  0  0            999 V2000
    8.1422   -6.4745    0.0000 N   0  0  0  0  0  0  0  0  0  0  0  0
    8.6271   -5.8070    0.0000 C   0  0  0  0  0  0  0  0  0  0  0  0
    8.1422   -5.1396    0.0000 N   0  0  0  0  0  0  0  0  0  0  0  0
    7.3576   -5.3945    0.0000 C   0  0  0  0  0  0  0  0  0  0  0  0
    6.6431   -4.9820    0.0000 N   0  0  0  0  0  0  0  0  0  0  0  0
    5.9286   -5.3945    0.0000 C   0  0  0  0  0  0  0  0  0  0  0  0
    5.9286   -6.2195    0.0000 N   0  0  0  0  0  0  0  0  0  0  0  0
    6.6431   -6.6320    0.0000 C   0  0  0  0  0  0  0  0  0  0  0  0
    7.3576   -6.2195    0.0000 C   0  0  0  0  0  0  0  0  0  0  0  0
    5.2142   -4.9820    0.0000 O   0  0  0  0  0  0  0  0  0  0  0  0
    6.6431   -7.4570    0.0000 O   0  0  0  0  0  0  0  0  0  0  0  0
    9.4521   -5.8070    0.0000 O   0  0  0  0  0  0  0  0  0  0  0  0
  1  2  1  0  0  0  0
  2  3  1  0  0  0  0
  3  4  1  0  0  0  0
  4  5  1  0  0  0  0
  5  6  1  0  0  0  0
  6  7  1  0  0  0  0
  7  8  1  0  0  0  0
  8  9  1  0  0  0  0
  1  9  1  0  0  0  0
  4  9  2  0  0  0  0
  6 10  2  0  0  0  0
  8 11  2  0  0  0  0
  2 12  2  0  0  0  0
M  END
>  <cdx:fragmentId>
5

$$$$
