95997.cdx
  Mrv1902 05222410202D          

 13 13  0  0  0  0            999 V2000
    8.5679   -5.2061    0.0000 C   0  0  0  0  0  0  0  0  0  0  0  0
    9.2824   -5.6186    0.0000 C   0  0  0  0  0  0  0  0  0  0  0  0
    8.5679   -4.3811    0.0000 O   0  0  0  0  0  0  0  0  0  0  0  0
    7.8535   -5.6186    0.0000 C   0  0  0  0  0  0  0  0  0  0  0  0
    7.8535   -6.4436    0.0000 C   0  0  0  0  0  0  0  0  0  0  0  0
    7.1390   -6.8561    0.0000 C   0  0  0  0  0  0  0  0  0  0  0  0
    6.4245   -6.4436    0.0000 C   0  0  0  0  0  0  0  0  0  0  0  0
    6.4245   -5.6186    0.0000 C   0  0  0  0  0  0  0  0  0  0  0  0
    7.1390   -5.2061    0.0000 C   0  0  0  0  0  0  0  0  0  0  0  0
    5.7101   -5.2061    0.0000 O   0  0  0  0  0  0  0  0  0  0  0  0
    4.9956   -5.6186    0.0000 C   0  0  0  0  0  0  0  0  0  0  0  0
    7.1390   -7.6811    0.0000 O   0  0  0  0  0  0  0  0  0  0  0  0
    6.4245   -8.0936    0.0000 C   0  0  0  0  0  0  0  0  0  0  0  0
  1  2  1  0  0  0  0
  4  5  1  0  0  0  0
  5  6  2  0  0  0  0
  6  7  1  0  0  0  0
  7  8  2  0  0  0  0
  8  9  1  0  0  0  0
  4  9  2  0  0  0  0
  1  3  2  0  0  0  0
  1  4  1  0  0  0  0
 10 11  1  0  0  0  0
  8 10  1  0  0  0  0
 12 13  1  0  0  0  0
  6 12  1  0  0  0  0
M  END
>  <cdx:groupId>
41

>  <cdx:fragmentId>
11

$$$$
