96.cdx
  Mrv1902 05222410252D          

 58 62  0  0  0  0            999 V2000
   14.3954   -9.5474    0.0000 C   0  0  0  0  0  0  0  0  0  0  0  0
   14.3954  -10.3724    0.0000 C   0  0  1  0  0  0  0  0  0  0  0  0
   15.1099  -10.7849    0.0000 C   0  0  0  0  0  0  0  0  0  0  0  0
   15.8243  -10.3724    0.0000 C   0  0  2  0  0  0  0  0  0  0  0  0
   15.8243   -9.5474    0.0000 C   0  0  2  0  0  0  0  0  0  0  0  0
   15.1099   -9.1349    0.0000 C   0  0  1  0  0  0  0  0  0  0  0  0
   16.5388  -10.7849    0.0000 C   0  0  0  0  0  0  0  0  0  0  0  0
   17.2533  -10.3724    0.0000 C   0  0  0  0  0  0  0  0  0  0  0  0
   17.2533   -9.5474    0.0000 C   0  0  2  0  0  0  0  0  0  0  0  0
   16.5388   -9.1349    0.0000 C   0  0  2  0  0  0  0  0  0  0  0  0
   17.9677   -9.1349    0.0000 C   0  0  2  0  0  0  0  0  0  0  0  0
   17.9677   -8.3099    0.0000 C   0  0  2  0  0  0  0  0  0  0  0  0
   17.2533   -7.8974    0.0000 C   0  0  0  0  0  0  0  0  0  0  0  0
   16.5388   -8.3099    0.0000 C   0  0  2  0  0  0  0  0  0  0  0  0
   18.7524   -9.3898    0.0000 C   0  0  0  0  0  0  0  0  0  0  0  0
   19.2373   -8.7224    0.0000 C   0  0  2  0  0  0  0  0  0  0  0  0
   18.7524   -8.0550    0.0000 C   0  0  2  0  0  0  0  0  0  0  0  0
   19.0073   -7.2703    0.0000 C   0  0  0  0  0  0  0  0  0  0  0  0
   19.8143   -7.0988    0.0000 C   0  0  0  0  0  0  0  0  0  0  0  0
   18.4553   -6.6572    0.0000 C   0  0  0  0  0  0  0  0  0  0  0  0
   20.0692   -6.3142    0.0000 C   0  0  0  0  0  0  0  0  0  0  0  0
   18.7102   -5.8726    0.0000 O   0  0  0  0  0  0  0  0  0  0  0  0
   19.5172   -5.7011    0.0000 C   0  0  0  0  0  0  0  0  0  0  0  0
   19.7721   -4.9165    0.0000 O   0  0  0  0  0  0  0  0  0  0  0  0
   13.6809  -10.7849    0.0000 O   0  0  0  0  0  0  0  0  0  0  0  0
   15.8243   -8.7224    0.0000 C   0  0  0  0  0  0  0  0  0  0  0  0
   15.8243  -11.1974    0.0000 H   0  0  0  0  0  0  0  0  0  0  0  0
   18.0540   -7.4894    0.0000 C   0  0  0  0  0  0  0  0  0  0  0  0
   20.0623   -8.7224    0.0000 H   0  0  0  0  0  0  0  0  0  0  0  0
   18.0540   -9.9554    0.0000 O   0  0  0  0  0  0  0  0  0  0  0  0
   15.8243   -7.8974    0.0000 H   0  0  0  0  0  0  0  0  0  0  0  0
   15.1099   -8.3099    0.0000 H   0  0  0  0  0  0  0  0  0  0  0  0
   12.9664  -10.3724    0.0000 C   0  0  0  0  0  0  0  0  0  0  0  0
   12.2520  -10.7849    0.0000 C   0  0  0  0  0  0  0  0  0  0  0  0
   12.9664   -9.5474    0.0000 O   0  0  0  0  0  0  0  0  0  0  0  0
   11.5375  -10.3724    0.0000 C   0  0  0  0  0  0  0  0  0  0  0  0
   10.8230  -10.7849    0.0000 C   0  0  0  0  0  0  0  0  0  0  0  0
    7.2486  -10.3724    0.0000 C   0  0  0  0  0  0  0  0  0  0  0  0
    6.5341  -10.7849    0.0000 C   0  0  0  0  0  0  0  0  0  0  0  0
    5.8196  -10.3724    0.0000 N   0  0  0  0  0  0  0  0  0  0  0  0
    6.5341  -11.6099    0.0000 O   0  0  0  0  0  0  0  0  0  0  0  0
    5.1051  -10.7849    0.0000 C   0  0  2  0  0  0  0  0  0  0  0  0
    4.3907  -10.3724    0.0000 C   0  0  0  0  0  0  0  0  0  0  0  0
    3.6762  -10.7849    0.0000 O   0  0  0  0  0  0  0  0  0  0  0  0
    4.3907   -9.5474    0.0000 O   0  0  0  0  0  0  0  0  0  0  0  0
    5.1051  -11.6099    0.0000 C   0  0  0  0  0  0  0  0  0  0  0  0
    4.3907  -12.0224    0.0000 C   0  0  0  0  0  0  0  0  0  0  0  0
    4.3907  -12.8474    0.0000 C   0  0  0  0  0  0  0  0  0  0  0  0
    3.6762  -13.2599    0.0000 N   0  0  0  0  0  0  0  0  0  0  0  0
    3.6762  -14.0849    0.0000 C   0  0  0  0  0  0  0  0  0  0  0  0
    4.3907  -14.4974    0.0000 N   0  0  0  0  0  0  0  0  0  0  0  0
    2.9617  -14.4974    0.0000 N   0  0  0  0  0  0  0  0  0  0  0  0
   10.1086  -10.3724    0.0000 C   0  0  0  0  0  0  0  0  0  0  0  0
    9.3941  -10.7849    0.0000 C   0  0  0  0  0  0  0  0  0  0  0  0
    8.6796  -10.3724    0.0000 C   0  0  0  0  0  0  0  0  0  0  0  0
    7.9651  -10.7849    0.0000 C   0  0  0  0  0  0  0  0  0  0  0  0
   16.5388   -9.9599    0.0000 H   0  0  0  0  0  0  0  0  0  0  0  0
   17.2533   -8.7224    0.0000 H   0  0  0  0  0  0  0  0  0  0  0  0
  1  2  1  0  0  0  0
  2  3  1  0  0  0  0
  3  4  1  0  0  0  0
  4  5  1  0  0  0  0
  5  6  1  0  0  0  0
  6  1  1  0  0  0  0
  4  7  1  0  0  0  0
  7  8  1  0  0  0  0
  8  9  1  0  0  0  0
  9 10  1  0  0  0  0
 10  5  1  0  0  0  0
  9 11  1  0  0  0  0
 11 12  1  0  0  0  0
 12 13  1  0  0  0  0
 13 14  1  0  0  0  0
 14 10  1  0  0  0  0
 11 15  1  0  0  0  0
 15 16  1  0  0  0  0
 16 17  1  0  0  0  0
 17 12  1  0  0  0  0
 17 18  1  1  0  0  0
 18 19  1  0  0  0  0
 18 20  2  0  0  0  0
 19 21  2  0  0  0  0
 20 22  1  0  0  0  0
 21 23  1  0  0  0  0
 22 23  1  0  0  0  0
 23 24  2  0  0  0  0
  2 25  1  1  0  0  0
  5 26  1  1  0  0  0
  4 27  1  1  0  0  0
 12 28  1  1  0  0  0
 16 29  1  1  0  0  0
 11 30  1  1  0  0  0
 14 31  1  6  0  0  0
  6 32  1  1  0  0  0
 25 33  1  0  0  0  0
 33 34  1  0  0  0  0
 33 35  2  0  0  0  0
 34 36  1  0  0  0  0
 36 37  1  0  0  0  0
 38 39  1  0  0  0  0
 39 40  1  0  0  0  0
 39 41  2  0  0  0  0
 42 40  1  1  0  0  0
 42 43  1  0  0  0  0
 43 44  1  0  0  0  0
 43 45  2  0  0  0  0
 42 46  1  0  0  0  0
 46 47  1  0  0  0  0
 47 48  1  0  0  0  0
 48 49  1  0  0  0  0
 49 50  2  0  0  0  0
 50 51  1  0  0  0  0
 50 52  1  0  0  0  0
 37 53  1  0  0  0  0
 53 54  1  0  0  0  0
 54 55  1  0  0  0  0
 55 56  1  0  0  0  0
 38 56  1  0  0  0  0
 10 57  1  6  0  0  0
  9 58  1  1  0  0  0
M  END
>  <cdx:fragmentId>
5

$$$$
