96007.cdx
  Mrv1902 05222410252D          

 21 22  0  0  0  0            999 V2000
    6.6241   -8.8137    0.0000 C   0  0  0  0  0  0  0  0  0  0  0  0
    7.3385   -9.2263    0.0000 C   0  0  0  0  0  0  0  0  0  0  0  0
    7.3385  -10.0512    0.0000 C   0  0  0  0  0  0  0  0  0  0  0  0
    6.6241  -10.4637    0.0000 C   0  0  0  0  0  0  0  0  0  0  0  0
    5.9096  -10.0512    0.0000 C   0  0  0  0  0  0  0  0  0  0  0  0
    5.9096   -9.2262    0.0000 C   0  0  0  0  0  0  0  0  0  0  0  0
    6.6241   -7.9887    0.0000 O   0  0  0  0  0  0  0  0  0  0  0  0
    8.0530  -10.4637    0.0000 O   0  0  0  0  0  0  0  0  0  0  0  0
    5.1951  -10.4637    0.0000 C   0  0  0  0  0  0  0  0  0  0  0  0
    4.4807  -10.0512    0.0000 C   0  0  0  0  0  0  0  0  0  0  0  0
    3.7662  -10.4637    0.0000 C   0  0  0  0  0  0  0  0  0  0  0  0
    8.4817   -8.5663    0.0000 C   0  0  2  0  0  0  0  0  0  0  0  0
    9.1962   -8.9788    0.0000 C   0  0  0  0  0  0  0  0  0  0  0  0
    9.9106   -8.5663    0.0000 C   0  0  0  0  0  0  0  0  0  0  0  0
    9.9106   -7.7413    0.0000 C   0  0  0  0  0  0  0  0  0  0  0  0
    9.1962   -7.3287    0.0000 C   0  0  0  0  0  0  0  0  0  0  0  0
    8.4817   -7.7413    0.0000 C   0  0  1  0  0  0  0  0  0  0  0  0
    7.7672   -6.5038    0.0000 C   0  0  0  0  0  0  0  0  0  0  0  0
    7.7672   -7.3287    0.0000 C   0  0  0  0  0  0  0  0  0  0  0  0
    7.0528   -7.7413    0.0000 C   0  0  0  0  0  0  0  0  0  0  0  0
   10.6251   -8.9788    0.0000 C   0  0  0  0  0  0  0  0  0  0  0  0
  1  2  1  0  0  0  0
  2  3  2  0  0  0  0
  3  4  1  0  0  0  0
  4  5  2  0  0  0  0
  5  6  1  0  0  0  0
  1  6  2  0  0  0  0
  1  7  1  0  0  0  0
  3  8  1  0  0  0  0
  9 10  1  0  0  0  0
 10 11  1  0  0  0  0
  5  9  1  0  0  0  0
 12 13  1  0  0  0  0
 13 14  2  0  0  0  0
 14 15  1  0  0  0  0
 15 16  1  0  0  0  0
 16 17  1  0  0  0  0
 12 17  1  0  0  0  0
 18 19  2  0  0  0  0
 19 20  1  0  0  0  0
 17 19  1  6  0  0  0
 14 21  1  0  0  0  0
 12  2  1  1  0  0  0
M  END
>  <cdx:fragmentId>
5

$$$$
