96011.cdx
  Mrv1902 05222410252D          

 26 27  0  0  0  0            999 V2000
    7.3385   -7.9888    0.0000 O   0  0  0  0  0  0  0  0  0  0  0  0
    8.7675  -10.4637    0.0000 O   0  0  0  0  0  0  0  0  0  0  0  0
   11.3396   -8.9788    0.0000 C   0  0  0  0  0  0  0  0  0  0  0  0
    7.7672   -7.7413    0.0000 C   0  0  0  0  0  0  0  0  0  0  0  0
    8.4817   -7.3287    0.0000 C   0  0  0  0  0  0  0  0  0  0  0  0
    8.4817   -6.5038    0.0000 C   0  0  0  0  0  0  0  0  0  0  0  0
    9.1962   -7.7413    0.0000 C   0  0  2  0  0  0  0  0  0  0  0  0
    9.9106   -7.3287    0.0000 C   0  0  0  0  0  0  0  0  0  0  0  0
   10.6251   -7.7413    0.0000 C   0  0  0  0  0  0  0  0  0  0  0  0
   10.6251   -8.5663    0.0000 C   0  0  0  0  0  0  0  0  0  0  0  0
    9.9106   -8.9788    0.0000 C   0  0  0  0  0  0  0  0  0  0  0  0
    9.1962   -8.5663    0.0000 C   0  0  1  0  0  0  0  0  0  0  0  0
    3.0517  -10.4637    0.0000 C   0  0  0  0  0  0  0  0  0  0  0  0
    3.7662  -10.0512    0.0000 C   0  0  0  0  0  0  0  0  0  0  0  0
    4.4807  -10.4637    0.0000 C   0  0  0  0  0  0  0  0  0  0  0  0
    5.1951  -10.0512    0.0000 C   0  0  0  0  0  0  0  0  0  0  0  0
    5.9096  -10.4637    0.0000 C   0  0  0  0  0  0  0  0  0  0  0  0
    5.1951   -9.2263    0.0000 O   0  0  0  0  0  0  0  0  0  0  0  0
    5.9096   -7.9888    0.0000 O   0  0  0  0  0  0  0  0  0  0  0  0
    6.6241  -10.0512    0.0000 C   0  0  0  0  0  0  0  0  0  0  0  0
    7.3385  -10.4637    0.0000 C   0  0  0  0  0  0  0  0  0  0  0  0
    8.0530  -10.0512    0.0000 C   0  0  0  0  0  0  0  0  0  0  0  0
    8.0530   -9.2263    0.0000 C   0  0  0  0  0  0  0  0  0  0  0  0
    7.3385   -8.8138    0.0000 C   0  0  0  0  0  0  0  0  0  0  0  0
    6.6241   -9.2263    0.0000 C   0  0  0  0  0  0  0  0  0  0  0  0
    5.9096   -8.8138    0.0000 C   0  0  0  0  0  0  0  0  0  0  0  0
 24  1  1  0  0  0  0
 22  2  1  0  0  0  0
 12 23  1  1  0  0  0
 10  3  1  0  0  0  0
  7  5  1  6  0  0  0
  5  4  1  0  0  0  0
  6  5  2  0  0  0  0
 12  7  1  0  0  0  0
  8  7  1  0  0  0  0
  9  8  1  0  0  0  0
 10  9  1  0  0  0  0
 11 10  2  0  0  0  0
 12 11  1  0  0  0  0
 20 17  1  0  0  0  0
 14 13  1  0  0  0  0
 15 14  1  0  0  0  0
 16 15  1  0  0  0  0
 17 16  1  0  0  0  0
 26 18  1  0  0  0  0
 26 19  2  0  0  0  0
 25 20  2  0  0  0  0
 21 20  1  0  0  0  0
 22 21  2  0  0  0  0
 23 22  1  0  0  0  0
 24 23  2  0  0  0  0
 25 24  1  0  0  0  0
 26 25  1  0  0  0  0
M  END
>  <cdx:fragmentId>
5

$$$$
