96038.cdx
  Mrv1902 05222410252D          

 12 12  0  0  0  0            999 V2000
    7.0634   -2.7096    0.0000 C   0  0  0  0  0  0  0  0  0  0  0  0
    6.3489   -3.1221    0.0000 C   0  0  0  0  0  0  0  0  0  0  0  0
    6.3489   -3.9471    0.0000 C   0  0  0  0  0  0  0  0  0  0  0  0
    7.0634   -4.3596    0.0000 C   0  0  0  0  0  0  0  0  0  0  0  0
    7.7778   -3.9471    0.0000 C   0  0  0  0  0  0  0  0  0  0  0  0
    7.7778   -3.1221    0.0000 C   0  0  0  0  0  0  0  0  0  0  0  0
    7.0634   -1.8846    0.0000 O   0  0  0  0  0  0  0  0  0  0  0  0
    7.0634   -5.1846    0.0000 O   0  0  0  0  0  0  0  0  0  0  0  0
    8.4923   -4.3596    0.0000 O   0  0  0  0  0  0  0  0  0  0  0  0
    9.2068   -3.9471    0.0000 C   0  0  0  0  0  0  0  0  0  0  0  0
    5.6344   -4.3596    0.0000 O   0  0  0  0  0  0  0  0  0  0  0  0
    4.9200   -3.9471    0.0000 C   0  0  0  0  0  0  0  0  0  0  0  0
  1  2  1  0  0  0  0
  2  3  2  0  0  0  0
  3  4  1  0  0  0  0
  4  5  2  0  0  0  0
  5  6  1  0  0  0  0
  1  6  2  0  0  0  0
  1  7  1  0  0  0  0
  4  8  1  0  0  0  0
  9 10  1  0  0  0  0
  5  9  1  0  0  0  0
 11 12  1  0  0  0  0
  3 11  1  0  0  0  0
M  END
>  <cdx:fragmentId>
5

$$$$
