960452.cdx
  Mrv1902 05222410182D          

 26 27  0  0  0  0            999 V2000
    4.9073   -7.8313    0.0000 C   0  0  0  0  0  0  0  0  0  0  0  0
    4.0823   -7.8313    0.0000 C   0  0  0  0  0  0  0  0  0  0  0  0
    3.6698   -7.1168    0.0000 C   0  0  0  0  0  0  0  0  0  0  0  0
    2.8448   -7.1168    0.0000 C   0  0  0  0  0  0  0  0  0  0  0  0
    5.3198   -7.1168    0.0000 O   0  0  0  0  0  0  0  0  0  0  0  0
    5.3198   -8.5457    0.0000 O   0  0  0  0  0  0  0  0  0  0  0  0
    3.6698   -8.5457    0.0000 C   0  0  0  0  0  0  0  0  0  0  0  0
    7.3070   -9.4726    0.0000 C   0  0  2  0  0  0  0  0  0  0  0  0
    6.5027   -9.2890    0.0000 C   0  0  0  0  0  0  0  0  0  0  0  0
    6.1448   -8.5457    0.0000 C   0  0  0  0  0  0  0  0  0  0  0  0
    6.5027   -7.8024    0.0000 C   0  0  0  0  0  0  0  0  0  0  0  0
    7.3070   -7.6189    0.0000 C   0  0  1  0  0  0  0  0  0  0  0  0
    7.9520   -8.1332    0.0000 C   0  0  0  0  0  0  0  0  0  0  0  0
    7.9520   -8.9582    0.0000 C   0  0  0  0  0  0  0  0  0  0  0  0
    6.7724   -8.5448    0.0000 N   0  0  0  0  0  0  0  0  0  0  0  0
    8.6665   -9.3707    0.0000 O   0  0  0  0  0  0  0  0  0  0  0  0
    9.3810   -8.9582    0.0000 C   0  0  0  0  0  0  0  0  0  0  0  0
   10.0955   -9.3707    0.0000 C   0  0  0  0  0  0  0  0  0  0  0  0
   10.8099   -8.9582    0.0000 C   0  0  0  0  0  0  0  0  0  0  0  0
   11.5244   -9.3707    0.0000 C   0  0  0  0  0  0  0  0  0  0  0  0
    9.3810   -8.1332    0.0000 O   0  0  0  0  0  0  0  0  0  0  0  0
   10.0955  -10.1957    0.0000 C   0  0  0  0  0  0  0  0  0  0  0  0
    5.9972   -8.2626    0.0000 C   0  0  0  0  0  0  0  0  0  0  0  0
    8.6665   -7.7207    0.0000 O   0  0  0  0  0  0  0  0  0  0  0  0
    7.4906   -6.8146    0.0000 H   0  0  0  0  0  0  0  0  0  0  0  0
    7.4906  -10.2769    0.0000 H   0  0  0  0  0  0  0  0  0  0  0  0
  1  2  1  0  0  0  0
  2  3  2  0  0  0  0
  3  4  1  0  0  0  0
  1  5  2  0  0  0  0
  1  6  1  0  0  0  0
  2  7  1  0  0  0  0
  8  9  1  0  0  0  0
  9 10  1  0  0  0  0
 10 11  1  0  0  0  0
 11 12  1  0  0  0  0
 12 13  1  0  0  0  0
 13 14  1  0  0  0  0
  8 14  1  0  0  0  0
  8 15  1  0  0  0  0
 15 12  1  0  0  0  0
 17 18  1  0  0  0  0
 18 19  2  0  0  0  0
 19 20  1  0  0  0  0
 17 21  2  0  0  0  0
 18 22  1  0  0  0  0
 16 17  1  0  0  0  0
 14 16  1  0  0  0  0
 15 23  1  0  0  0  0
 13 24  1  0  0  0  0
  6 10  1  0  0  0  0
 12 25  1  6  0  0  0
  8 26  1  6  0  0  0
M  END
>  <cdx:fragmentId>
93914

$$$$
