9612.cdx
  Mrv1902 05222410282D          

 23 27  0  0  0  0            999 V2000
    7.3138  -10.6189    0.0000 C   0  0  0  0  0  0  0  0  0  0  0  0
    6.5056  -10.4530    0.0000 C   0  0  0  0  0  0  0  0  0  0  0  0
    5.8416  -10.9425    0.0000 N   0  0  0  0  0  0  0  0  0  0  0  0
    5.1708  -10.4623    0.0000 C   0  0  0  0  0  0  0  0  0  0  0  0
    4.3650  -10.6394    0.0000 C   0  0  0  0  0  0  0  0  0  0  0  0
    3.8087  -10.0301    0.0000 C   0  0  0  0  0  0  0  0  0  0  0  0
    4.0582   -9.2438    0.0000 C   0  0  0  0  0  0  0  0  0  0  0  0
    4.8640   -9.0666    0.0000 C   0  0  0  0  0  0  0  0  0  0  0  0
    5.4203   -9.6759    0.0000 C   0  0  0  0  0  0  0  0  0  0  0  0
    6.2452   -9.6702    0.0000 C   0  0  0  0  0  0  0  0  0  0  0  0
    6.7930   -9.0532    0.0000 C   0  0  0  0  0  0  0  0  0  0  0  0
    7.6011   -9.2192    0.0000 C   0  0  0  0  0  0  0  0  0  0  0  0
    7.8615  -10.0020    0.0000 N   0  0  0  0  0  0  0  0  0  0  0  0
    8.6697  -10.1679    0.0000 C   0  0  0  0  0  0  0  0  0  0  0  0
    8.9301  -10.9507    0.0000 C   0  0  0  0  0  0  0  0  0  0  0  0
    9.7382  -11.1166    0.0000 C   0  0  0  0  0  0  0  0  0  0  0  0
    9.9986  -11.8995    0.0000 C   0  0  0  0  0  0  0  0  0  0  0  0
    9.4508  -12.5164    0.0000 C   0  0  0  0  0  0  0  0  0  0  0  0
    8.6427  -12.3505    0.0000 C   0  0  0  0  0  0  0  0  0  0  0  0
    8.3823  -11.5676    0.0000 C   0  0  0  0  0  0  0  0  0  0  0  0
    7.5742  -11.4017    0.0000 N   0  3  0  0  0  0  0  0  0  0  0  0
    9.2174   -9.5510    0.0000 O   0  0  0  0  0  0  0  0  0  0  0  0
    7.0264  -12.0186    0.0000 C   0  0  0  0  0  0  0  0  0  0  0  0
  1  2  1  0  0  0  0
  2  3  1  0  0  0  0
  3  4  1  0  0  0  0
  4  5  2  0  0  0  0
  5  6  1  0  0  0  0
  6  7  2  0  0  0  0
  7  8  1  0  0  0  0
  8  9  2  0  0  0  0
  9 10  1  0  0  0  0
 10 11  1  0  0  0  0
 11 12  1  0  0  0  0
 12 13  1  0  0  0  0
 13 14  1  0  0  0  0
 14 15  1  0  0  0  0
 15 16  2  0  0  0  0
 16 17  1  0  0  0  0
 17 18  2  0  0  0  0
 18 19  1  0  0  0  0
 19 20  2  0  0  0  0
 20 21  1  0  0  0  0
  1 21  2  0  0  0  0
  1 13  1  0  0  0  0
 15 20  1  0  0  0  0
  2 10  2  0  0  0  0
  4  9  1  0  0  0  0
 14 22  2  0  0  0  0
 21 23  1  0  0  0  0
M  CHG  1  21   1
M  END
>  <cdx:groupId>
40744

>  <cdx:fragmentId>
40662

$$$$
