96124.cdx
  Mrv1902 05222410202D          

 22 24  0  0  0  0            999 V2000
    9.0845   -4.6844    0.0000 C   0  0  0  0  0  0  0  0  0  0  0  0
    9.7990   -5.0969    0.0000 C   0  0  0  0  0  0  0  0  0  0  0  0
   10.5135   -4.6844    0.0000 O   0  0  0  0  0  0  0  0  0  0  0  0
    7.6556   -7.1594    0.0000 C   0  0  0  0  0  0  0  0  0  0  0  0
    8.3700   -7.5719    0.0000 N   0  0  0  0  0  0  0  0  0  0  0  0
    9.0845   -7.1594    0.0000 C   0  0  0  0  0  0  0  0  0  0  0  0
    9.0845   -6.3344    0.0000 N   0  0  0  0  0  0  0  0  0  0  0  0
    8.3700   -5.0969    0.0000 N   0  0  0  0  0  0  0  0  0  0  0  0
    8.3700   -5.9219    0.0000 C   0  0  0  0  0  0  0  0  0  0  0  0
    7.6556   -6.3344    0.0000 C   0  0  0  0  0  0  0  0  0  0  0  0
    6.8709   -6.0795    0.0000 N   0  0  0  0  0  0  0  0  0  0  0  0
    6.3860   -6.7469    0.0000 C   0  0  0  0  0  0  0  0  0  0  0  0
    6.8709   -7.4143    0.0000 N   0  0  0  0  0  0  0  0  0  0  0  0
    5.8314   -8.4539    0.0000 O   0  0  0  0  0  0  0  0  0  0  0  0
    6.6160   -8.1990    0.0000 C   0  0  2  0  0  0  0  0  0  0  0  0
    7.9259   -8.8664    0.0000 O   0  0  0  0  0  0  0  0  0  0  0  0
    7.1009   -8.8664    0.0000 C   0  0  2  0  0  0  0  0  0  0  0  0
    6.8709  -10.3185    0.0000 O   0  0  0  0  0  0  0  0  0  0  0  0
    6.6160   -9.5338    0.0000 C   0  0  2  0  0  0  0  0  0  0  0  0
    5.8314   -9.2789    0.0000 C   0  0  1  0  0  0  0  0  0  0  0  0
    5.1639   -9.7638    0.0000 C   0  0  0  0  0  0  0  0  0  0  0  0
    5.1639  -10.5888    0.0000 O   0  0  0  0  0  0  0  0  0  0  0  0
  8  1  1  0  0  0  0
 13  4  1  0  0  0  0
 10  4  1  0  0  0  0
  5  4  2  0  0  0  0
  6  5  1  0  0  0  0
  7  6  2  0  0  0  0
  9  7  1  0  0  0  0
  9  8  1  0  0  0  0
 10  9  2  0  0  0  0
 11 10  1  0  0  0  0
 12 11  2  0  0  0  0
 13 12  1  0  0  0  0
 15 13  1  1  0  0  0
 20 14  1  0  0  0  0
 15 14  1  0  0  0  0
 17 15  1  0  0  0  0
 17 16  1  6  0  0  0
 19 17  1  0  0  0  0
 19 18  1  6  0  0  0
 20 19  1  0  0  0  0
 20 21  1  1  0  0  0
 22 21  1  0  0  0  0
  1  2  1  0  0  0  0
  2  3  1  0  0  0  0
M  END
>  <cdx:fragmentId>
5

$$$$
