96140.cdx
  Mrv1902 05222410212D          

 22 21  0  0  0  0            999 V2000
    2.2373   -9.6806    0.0000 C   0  0  0  0  0  0  0  0  0  0  0  0
    2.9518   -9.2681    0.0000 C   0  0  0  0  0  0  0  0  0  0  0  0
    3.6663   -9.6806    0.0000 C   0  0  0  0  0  0  0  0  0  0  0  0
    4.3808   -9.2681    0.0000 C   0  0  0  0  0  0  0  0  0  0  0  0
    5.0952   -9.6806    0.0000 C   0  0  0  0  0  0  0  0  0  0  0  0
    5.8097   -9.2681    0.0000 C   0  0  0  0  0  0  0  0  0  0  0  0
    6.5242   -9.6806    0.0000 C   0  0  0  0  0  0  0  0  0  0  0  0
    7.2386   -9.2681    0.0000 C   0  0  0  0  0  0  0  0  0  0  0  0
    7.9531   -9.6806    0.0000 C   0  0  0  0  0  0  0  0  0  0  0  0
    8.6676   -9.2681    0.0000 C   0  0  0  0  0  0  0  0  0  0  0  0
    9.3821   -9.6806    0.0000 C   0  0  0  0  0  0  0  0  0  0  0  0
   10.0969   -9.2686    0.0000 C   0  0  0  0  0  0  0  0  0  0  0  0
   10.0979   -8.4436    0.0000 C   0  0  0  0  0  0  0  0  0  0  0  0
   10.8128   -8.0320    0.0000 C   0  0  0  0  0  0  0  0  0  0  0  0
   10.8138   -7.2070    0.0000 C   0  0  0  0  0  0  0  0  0  0  0  0
   11.5288   -6.7954    0.0000 C   0  0  0  0  0  0  0  0  0  0  0  0
   11.5298   -5.9704    0.0000 C   0  0  0  0  0  0  0  0  0  0  0  0
   12.2448   -5.5587    0.0000 C   0  0  0  0  0  0  0  0  0  0  0  0
   12.2458   -4.7337    0.0000 C   0  0  0  0  0  0  0  0  0  0  0  0
   12.9608   -4.3221    0.0000 C   0  0  0  0  0  0  0  0  0  0  0  0
    2.2373  -10.5056    0.0000 O   0  0  0  0  0  0  0  0  0  0  0  0
    1.5229   -9.2681    0.0000 O   0  0  0  0  0  0  0  0  0  0  0  0
  1  2  1  0  0  0  0
  2  3  1  0  0  0  0
  3  4  1  0  0  0  0
  4  5  1  0  0  0  0
  5  6  1  0  0  0  0
  6  7  1  0  0  0  0
  7  8  1  0  0  0  0
  8  9  1  0  0  0  0
  9 10  1  0  0  0  0
 10 11  1  0  0  0  0
 11 12  2  0  0  0  0
 12 13  1  0  0  0  0
 13 14  1  0  0  0  0
 14 15  2  0  0  0  0
 15 16  1  0  0  0  0
 16 17  1  0  0  0  0
 17 18  2  0  0  0  0
 18 19  1  0  0  0  0
 19 20  1  0  0  0  0
  1 21  2  0  0  0  0
  1 22  1  0  0  0  0
M  END
>  <cdx:fragmentId>
5

$$$$
