96172.cdx
  Mrv1902 05222410252D          

 28 30  0  0  0  0            999 V2000
    5.7393   -8.7767    0.0000 C   0  0  0  0  0  0  0  0  0  0  0  0
    5.0244   -8.3650    0.0000 C   0  0  0  0  0  0  0  0  0  0  0  0
    4.3103   -8.7782    0.0000 C   0  0  0  0  0  0  0  0  0  0  0  0
    3.5954   -8.3665    0.0000 C   0  0  0  0  0  0  0  0  0  0  0  0
    7.8805   -6.7120    0.0000 H   0  0  0  0  0  0  0  0  0  0  0  0
   10.0252   -7.9472    0.0000 H   0  0  0  0  0  0  0  0  0  0  0  0
    7.1656   -6.3002    0.0000 O   0  0  0  0  0  0  0  0  0  0  0  0
   10.1362   -8.3596    0.0000 C   0  0  0  0  0  0  0  0  0  0  0  0
    9.7244   -9.0745    0.0000 C   0  0  0  0  0  0  0  0  0  0  0  0
    9.3077   -5.0605    0.0000 C   0  0  0  0  0  0  0  0  0  0  0  0
    2.8814   -8.7797    0.0000 C   0  0  0  0  0  0  0  0  0  0  0  0
    5.0235   -7.5400    0.0000 O   0  0  0  0  0  0  0  0  0  0  0  0
    5.7367   -6.3017    0.0000 O   0  0  0  0  0  0  0  0  0  0  0  0
    5.7375   -7.1267    0.0000 C   0  0  0  0  0  0  0  0  0  0  0  0
   10.0243   -7.1222    0.0000 C   0  0  0  0  0  0  0  0  0  0  0  0
   10.0235   -6.2972    0.0000 C   0  0  0  0  0  0  0  0  0  0  0  0
    9.3086   -5.8855    0.0000 C   0  0  0  0  0  0  0  0  0  0  0  0
    8.5945   -6.2987    0.0000 C   0  0  0  0  0  0  0  0  0  0  0  0
    8.5971   -8.7737    0.0000 O   0  0  0  0  0  0  0  0  0  0  0  0
    7.8822   -8.3620    0.0000 C   0  0  0  0  0  0  0  0  0  0  0  0
    7.1682   -8.7752    0.0000 C   0  0  0  0  0  0  0  0  0  0  0  0
    6.4533   -8.3635    0.0000 C   0  0  0  0  0  0  0  0  0  0  0  0
    6.4524   -7.5385    0.0000 C   0  0  0  0  0  0  0  0  0  0  0  0
    7.1665   -7.1252    0.0000 C   0  0  0  0  0  0  0  0  0  0  0  0
    7.8814   -7.5370    0.0000 C   0  0  0  0  0  0  0  0  0  0  0  0
    8.5954   -7.1237    0.0000 C   0  0  1  0  0  0  0  0  0  0  0  0
    9.3103   -7.5355    0.0000 C   0  0  2  0  0  0  0  0  0  0  0  0
    9.3112   -8.3605    0.0000 C   0  0  0  0  0  0  0  0  0  0  0  0
 26  5  1  1  0  0  0
 27  6  1  6  0  0  0
 24  7  1  0  0  0  0
 28  8  1  0  0  0  0
 28  9  1  0  0  0  0
 17 10  1  0  0  0  0
 22  1  1  0  0  0  0
 23 14  1  0  0  0  0
 14 12  1  0  0  0  0
 14 13  2  0  0  0  0
 18 26  1  0  0  0  0
 15 27  1  0  0  0  0
 16 15  1  0  0  0  0
 17 16  1  0  0  0  0
 18 17  2  0  0  0  0
 28 19  1  0  0  0  0
 20 19  1  0  0  0  0
 25 20  2  0  0  0  0
 21 20  1  0  0  0  0
 22 21  2  0  0  0  0
 23 22  1  0  0  0  0
 24 23  2  0  0  0  0
 25 24  1  0  0  0  0
 26 25  1  0  0  0  0
 27 26  1  0  0  0  0
 28 27  1  0  0  0  0
  1  2  1  0  0  0  0
  2  3  1  0  0  0  0
  3  4  1  0  0  0  0
  4 11  1  0  0  0  0
M  END
>  <cdx:fragmentId>
5

$$$$
