961815.cdx
  Mrv1902 05222410262D          

 57 64  0  0  0  0            999 V2000
   12.6845   -7.5754    0.0000 C   0  0  2  0  0  0  0  0  0  0  0  0
   12.6845   -8.4004    0.0000 C   0  0  1  0  0  0  0  0  0  0  0  0
   11.9701   -8.8129    0.0000 C   0  0  0  0  0  0  0  0  0  0  0  0
   11.2556   -8.4004    0.0000 C   0  0  1  0  0  0  0  0  0  0  0  0
   10.5411   -8.8129    0.0000 C   0  0  2  0  0  0  0  0  0  0  0  0
   10.5411   -9.6379    0.0000 C   0  0  0  0  0  0  0  0  0  0  0  0
    9.8266  -10.0504    0.0000 C   0  0  0  0  0  0  0  0  0  0  0  0
    9.1122   -9.6379    0.0000 C   0  0  1  0  0  0  0  0  0  0  0  0
    8.3977  -10.0504    0.0000 C   0  0  0  0  0  0  0  0  0  0  0  0
    7.6832   -9.6379    0.0000 C   0  0  2  0  0  0  0  0  0  0  0  0
    7.6832   -8.8129    0.0000 C   0  0  0  0  0  0  0  0  0  0  0  0
    8.3977   -8.4004    0.0000 C   0  0  0  0  0  0  0  0  0  0  0  0
    9.1122   -8.8129    0.0000 C   0  0  2  0  0  0  0  0  0  0  0  0
    9.8266   -8.4004    0.0000 C   0  0  1  0  0  0  0  0  0  0  0  0
    9.8266   -7.5754    0.0000 C   0  0  0  0  0  0  0  0  0  0  0  0
   10.5411   -7.1629    0.0000 C   0  0  0  0  0  0  0  0  0  0  0  0
   11.2556   -7.5754    0.0000 C   0  0  2  0  0  0  0  0  0  0  0  0
   11.9701   -7.1629    0.0000 C   0  0  2  0  0  0  0  0  0  0  0  0
   11.9701   -6.3379    0.0000 C   0  0  0  0  0  0  0  0  0  0  0  0
   12.6845   -5.9254    0.0000 C   0  0  2  0  0  0  0  0  0  0  0  0
   13.3990   -6.3379    0.0000 C   0  0  0  0  0  0  0  0  0  0  0  0
   13.3990   -7.1629    0.0000 C   0  0  0  0  0  0  0  0  0  0  0  0
   12.2720   -5.2109    0.0000 C   0  0  0  0  0  0  0  0  0  0  0  0
   11.4470   -5.2109    0.0000 O   0  0  0  0  0  0  0  0  0  0  0  0
   13.0970   -5.2109    0.0000 C   0  0  0  0  0  0  0  0  0  0  0  0
    9.1122   -7.9879    0.0000 C   0  0  0  0  0  0  0  0  0  0  0  0
    8.8102  -10.7649    0.0000 C   0  0  0  0  0  0  0  0  0  0  0  0
    7.9852  -10.7649    0.0000 C   0  0  0  0  0  0  0  0  0  0  0  0
   10.5411   -7.9879    0.0000 C   0  0  0  0  0  0  0  0  0  0  0  0
   11.2556   -9.2254    0.0000 C   0  0  0  0  0  0  0  0  0  0  0  0
   13.3990   -8.8129    0.0000 O   0  0  0  0  0  0  0  0  0  0  0  0
    6.9688  -10.0504    0.0000 O   0  0  0  0  0  0  0  0  0  0  0  0
    6.2543   -8.8129    0.0000 O   0  0  0  0  0  0  0  0  0  0  0  0
    6.2543   -9.6379    0.0000 C   0  0  2  0  0  0  0  0  0  0  0  0
    5.5398  -10.0504    0.0000 C   0  0  1  0  0  0  0  0  0  0  0  0
    4.8254   -9.6379    0.0000 C   0  0  2  0  0  0  0  0  0  0  0  0
    4.8254   -8.8129    0.0000 C   0  0  2  0  0  0  0  0  0  0  0  0
    5.5398   -8.4004    0.0000 C   0  0  0  0  0  0  0  0  0  0  0  0
    4.1109   -8.4004    0.0000 O   0  0  0  0  0  0  0  0  0  0  0  0
    3.3964   -9.6379    0.0000 O   0  0  0  0  0  0  0  0  0  0  0  0
    3.3964   -8.8129    0.0000 C   0  0  2  0  0  0  0  0  0  0  0  0
    2.6819   -8.4004    0.0000 C   0  0  1  0  0  0  0  0  0  0  0  0
    1.9675   -8.8129    0.0000 C   0  0  2  0  0  0  0  0  0  0  0  0
    1.9675   -9.6379    0.0000 C   0  0  1  0  0  0  0  0  0  0  0  0
    2.6819  -10.0504    0.0000 C   0  0  1  0  0  0  0  0  0  0  0  0
    2.6819  -10.8754    0.0000 C   0  0  0  0  0  0  0  0  0  0  0  0
    1.9675  -11.2879    0.0000 O   0  0  0  0  0  0  0  0  0  0  0  0
    1.2530  -10.0504    0.0000 O   0  0  0  0  0  0  0  0  0  0  0  0
    1.2530   -8.4004    0.0000 O   0  0  0  0  0  0  0  0  0  0  0  0
    2.6819   -7.5754    0.0000 O   0  0  0  0  0  0  0  0  0  0  0  0
    4.1109  -10.0504    0.0000 O   0  0  0  0  0  0  0  0  0  0  0  0
    5.5398  -10.8754    0.0000 O   0  0  0  0  0  0  0  0  0  0  0  0
    9.1122  -10.4629    0.0000 H   0  0  0  0  0  0  0  0  0  0  0  0
    9.8266   -9.2254    0.0000 H   0  0  0  0  0  0  0  0  0  0  0  0
   11.9701   -7.9879    0.0000 H   0  0  0  0  0  0  0  0  0  0  0  0
   11.2556   -6.7504    0.0000 O   0  0  0  0  0  0  0  0  0  0  0  0
   12.6845   -6.7504    0.0000 C   0  0  0  0  0  0  0  0  0  0  0  0
  1  2  1  0  0  0  0
  2  3  1  0  0  0  0
  3  4  1  0  0  0  0
  4  5  1  0  0  0  0
  5  6  1  0  0  0  0
  6  7  1  0  0  0  0
  7  8  1  0  0  0  0
  8  9  1  0  0  0  0
  9 10  1  0  0  0  0
 10 11  1  0  0  0  0
 11 12  1  0  0  0  0
 12 13  1  0  0  0  0
 13 14  1  0  0  0  0
 14 15  1  0  0  0  0
 15 16  1  0  0  0  0
 16 17  1  0  0  0  0
 17 18  1  0  0  0  0
 18 19  1  0  0  0  0
 19 20  1  0  0  0  0
 20 21  1  0  0  0  0
 21 22  1  0  0  0  0
  1 22  1  0  0  0  0
  1 18  1  0  0  0  0
  4 17  1  0  0  0  0
  5 14  1  0  0  0  0
  8 13  1  0  0  0  0
 23 24  2  0  0  0  0
 20 23  1  1  0  0  0
 20 25  1  6  0  0  0
 13 26  1  1  0  0  0
  9 27  1  0  0  0  0
  9 28  1  0  0  0  0
  5 29  1  1  0  0  0
  4 30  1  6  0  0  0
  2 31  1  6  0  0  0
 33 34  1  0  0  0  0
 34 35  1  0  0  0  0
 35 36  1  0  0  0  0
 36 37  1  0  0  0  0
 37 38  1  0  0  0  0
 33 38  1  0  0  0  0
 40 41  1  0  0  0  0
 41 42  1  0  0  0  0
 42 43  1  0  0  0  0
 43 44  1  0  0  0  0
 44 45  1  0  0  0  0
 40 45  1  0  0  0  0
 46 47  1  0  0  0  0
 45 46  1  6  0  0  0
 44 48  1  1  0  0  0
 43 49  1  6  0  0  0
 42 50  1  1  0  0  0
 41 39  1  6  0  0  0
 37 39  1  1  0  0  0
 36 51  1  1  0  0  0
 35 52  1  6  0  0  0
 34 32  1  1  0  0  0
 10 32  1  1  0  0  0
  8 53  1  6  0  0  0
 14 54  1  6  0  0  0
 18 55  1  1  0  0  0
 17 56  1  1  0  0  0
  1 57  1  1  0  0  0
 57 56  1  0  0  0  0
M  END
>  <cdx:fragmentId>
9998

$$$$
