96191.cdx
  Mrv1902 05222410232D          

 20 22  0  0  0  0            999 V2000
    7.8584   -5.6778    0.0000 C   0  0  0  0  0  0  0  0  0  0  0  0
    8.5729   -6.0903    0.0000 C   0  0  0  0  0  0  0  0  0  0  0  0
    8.5729   -6.9153    0.0000 C   0  0  0  0  0  0  0  0  0  0  0  0
    7.8584   -7.3278    0.0000 C   0  0  0  0  0  0  0  0  0  0  0  0
    7.1439   -6.9153    0.0000 C   0  0  0  0  0  0  0  0  0  0  0  0
    6.4295   -7.3278    0.0000 C   0  0  0  0  0  0  0  0  0  0  0  0
    5.7150   -6.9153    0.0000 C   0  0  0  0  0  0  0  0  0  0  0  0
    5.0005   -7.3278    0.0000 C   0  0  0  0  0  0  0  0  0  0  0  0
    4.2861   -6.9153    0.0000 C   0  0  0  0  0  0  0  0  0  0  0  0
    4.2861   -6.0903    0.0000 C   0  0  0  0  0  0  0  0  0  0  0  0
    5.0005   -5.6778    0.0000 C   0  0  0  0  0  0  0  0  0  0  0  0
    5.7150   -6.0903    0.0000 C   0  0  0  0  0  0  0  0  0  0  0  0
    6.4295   -5.6778    0.0000 C   0  0  0  0  0  0  0  0  0  0  0  0
    7.1439   -6.0903    0.0000 C   0  0  0  0  0  0  0  0  0  0  0  0
    6.4295   -4.8528    0.0000 O   0  0  0  0  0  0  0  0  0  0  0  0
    6.4295   -8.1528    0.0000 O   0  0  0  0  0  0  0  0  0  0  0  0
    9.2873   -5.6778    0.0000 C   0  0  0  0  0  0  0  0  0  0  0  0
    7.8584   -4.8528    0.0000 O   0  0  0  0  0  0  0  0  0  0  0  0
    8.5729   -4.4403    0.0000 C   0  0  0  0  0  0  0  0  0  0  0  0
    9.2873   -7.3278    0.0000 O   0  0  0  0  0  0  0  0  0  0  0  0
  1  2  1  0  0  0  0
  2  3  2  0  0  0  0
  3  4  1  0  0  0  0
  4  5  2  0  0  0  0
  5  6  1  0  0  0  0
  6  7  1  0  0  0  0
  7  8  1  0  0  0  0
  8  9  2  0  0  0  0
  9 10  1  0  0  0  0
 10 11  2  0  0  0  0
 11 12  1  0  0  0  0
  7 12  2  0  0  0  0
 12 13  1  0  0  0  0
 13 14  1  0  0  0  0
  5 14  1  0  0  0  0
  1 14  2  0  0  0  0
 13 15  2  0  0  0  0
  6 16  2  0  0  0  0
  2 17  1  0  0  0  0
 18 19  1  0  0  0  0
  1 18  1  0  0  0  0
  3 20  1  0  0  0  0
M  END
>  <cdx:groupId>
64

>  <cdx:fragmentId>
5

$$$$
