962143.cdx
  Mrv1902 05222410222D          

 21 22  0  0  0  0            999 V2000
    5.9365   -5.9862    0.0000 O   0  0  0  0  0  0  0  0  0  0  0  0
    6.6510   -6.3987    0.0000 C   0  0  2  0  0  0  0  0  0  0  0  0
    6.6510   -7.2237    0.0000 C   0  0  1  0  0  0  0  0  0  0  0  0
    5.9365   -7.6362    0.0000 C   0  0  2  0  0  0  0  0  0  0  0  0
    5.2221   -7.2237    0.0000 C   0  0  1  0  0  0  0  0  0  0  0  0
    5.2221   -6.3987    0.0000 C   0  0  1  0  0  0  0  0  0  0  0  0
    7.3655   -7.6362    0.0000 O   0  0  0  0  0  0  0  0  0  0  0  0
    5.9365   -8.4612    0.0000 O   0  0  0  0  0  0  0  0  0  0  0  0
    4.5076   -7.6362    0.0000 O   0  0  0  0  0  0  0  0  0  0  0  0
    4.5076   -5.9862    0.0000 C   0  0  0  0  0  0  0  0  0  0  0  0
    3.7931   -6.3987    0.0000 O   0  0  0  0  0  0  0  0  0  0  0  0
    7.3655   -5.9862    0.0000 O   0  0  0  0  0  0  0  0  0  0  0  0
    8.0800   -6.3987    0.0000 C   0  0  0  0  0  0  0  0  0  0  0  0
    8.7944   -5.9862    0.0000 C   0  0  0  0  0  0  0  0  0  0  0  0
    9.5089   -6.3987    0.0000 C   0  0  0  0  0  0  0  0  0  0  0  0
    9.5089   -7.2237    0.0000 C   0  0  0  0  0  0  0  0  0  0  0  0
    8.7944   -7.6362    0.0000 C   0  0  0  0  0  0  0  0  0  0  0  0
    8.0800   -7.2237    0.0000 C   0  0  0  0  0  0  0  0  0  0  0  0
   10.2234   -5.9862    0.0000 O   0  0  0  0  0  0  0  0  0  0  0  0
   10.9378   -6.3987    0.0000 C   0  0  0  0  0  0  0  0  0  0  0  0
   10.2234   -7.6362    0.0000 O   0  0  0  0  0  0  0  0  0  0  0  0
  1  2  1  0  0  0  0
  2  3  1  0  0  0  0
  3  4  1  0  0  0  0
  4  5  1  0  0  0  0
  5  6  1  0  0  0  0
  1  6  1  0  0  0  0
  3  7  1  6  0  0  0
  4  8  1  1  0  0  0
  5  9  1  6  0  0  0
 10 11  1  0  0  0  0
  6 10  1  1  0  0  0
 13 14  1  0  0  0  0
 14 15  2  0  0  0  0
 15 16  1  0  0  0  0
 16 17  2  0  0  0  0
 17 18  1  0  0  0  0
 13 18  2  0  0  0  0
 12 13  1  0  0  0  0
 19 20  1  0  0  0  0
 15 19  1  0  0  0  0
 16 21  1  0  0  0  0
  2 12  1  1  0  0  0
M  END
>  <cdx:fragmentId>
83626

$$$$
