962153.cdx
  Mrv1902 05222410212D          

 68 75  0  0  0  0            999 V2000
    4.7568   -7.4335    0.0000 O   0  0  0  0  0  0  0  0  0  0  0  0
    4.0424   -7.8460    0.0000 C   0  0  2  0  0  0  0  0  0  0  0  0
    3.3279   -7.4335    0.0000 C   0  0  1  0  0  0  0  0  0  0  0  0
    3.3279   -6.6085    0.0000 C   0  0  1  0  0  0  0  0  0  0  0  0
    4.0424   -6.1960    0.0000 C   0  0  2  0  0  0  0  0  0  0  0  0
    4.7568   -6.6085    0.0000 C   0  0  2  0  0  0  0  0  0  0  0  0
    2.6134   -7.8460    0.0000 O   0  0  0  0  0  0  0  0  0  0  0  0
    2.6134   -6.1960    0.0000 O   0  0  0  0  0  0  0  0  0  0  0  0
    4.0424   -5.3710    0.0000 O   0  0  0  0  0  0  0  0  0  0  0  0
    5.4713   -6.1960    0.0000 C   0  0  0  0  0  0  0  0  0  0  0  0
    4.0424   -8.6710    0.0000 O   0  0  0  0  0  0  0  0  0  0  0  0
    5.4713  -10.3210    0.0000 O   0  0  0  0  0  0  0  0  0  0  0  0
    4.7568   -9.9085    0.0000 C   0  0  1  0  0  0  0  0  0  0  0  0
    4.7568   -9.0835    0.0000 C   0  0  2  0  0  0  0  0  0  0  0  0
    5.4713   -8.6710    0.0000 C   0  0  1  0  0  0  0  0  0  0  0  0
    6.1858   -9.0835    0.0000 C   0  0  2  0  0  0  0  0  0  0  0  0
    6.1858   -9.9085    0.0000 C   0  0  2  0  0  0  0  0  0  0  0  0
    4.0424  -10.3210    0.0000 C   0  0  0  0  0  0  0  0  0  0  0  0
    3.3279   -9.9085    0.0000 O   0  0  0  0  0  0  0  0  0  0  0  0
    1.8990   -9.9085    0.0000 O   0  0  0  0  0  0  0  0  0  0  0  0
    2.6134  -10.3210    0.0000 C   0  0  2  0  0  0  0  0  0  0  0  0
    2.6134  -11.1460    0.0000 C   0  0  1  0  0  0  0  0  0  0  0  0
    1.8990  -11.5585    0.0000 C   0  0  2  0  0  0  0  0  0  0  0  0
    1.1845  -11.1460    0.0000 C   0  0  1  0  0  0  0  0  0  0  0  0
    1.1845  -10.3210    0.0000 C   0  0  1  0  0  0  0  0  0  0  0  0
    0.4700   -9.9085    0.0000 C   0  0  0  0  0  0  0  0  0  0  0  0
    0.4700  -11.5585    0.0000 O   0  0  0  0  0  0  0  0  0  0  0  0
    1.8990  -12.3835    0.0000 O   0  0  0  0  0  0  0  0  0  0  0  0
    3.3279  -11.5585    0.0000 O   0  0  0  0  0  0  0  0  0  0  0  0
    6.9003   -8.6710    0.0000 O   0  0  0  0  0  0  0  0  0  0  0  0
    5.4713   -7.8460    0.0000 O   0  0  0  0  0  0  0  0  0  0  0  0
    6.9003  -10.3210    0.0000 O   0  0  0  0  0  0  0  0  0  0  0  0
    8.3292   -8.6710    0.0000 C   0  0  0  0  0  0  0  0  0  0  0  0
    7.6147   -9.0835    0.0000 C   0  0  0  0  0  0  0  0  0  0  0  0
    7.6147   -9.9085    0.0000 C   0  0  1  0  0  0  0  0  0  0  0  0
    8.3292  -10.3210    0.0000 C   0  0  1  0  0  0  0  0  0  0  0  0
    9.0437   -9.9085    0.0000 C   0  0  2  0  0  0  0  0  0  0  0  0
    9.7581  -10.3210    0.0000 C   0  0  0  0  0  0  0  0  0  0  0  0
   10.4726   -9.9085    0.0000 C   0  0  0  0  0  0  0  0  0  0  0  0
   10.4726   -9.0835    0.0000 C   0  0  1  0  0  0  0  0  0  0  0  0
   11.1871   -8.6710    0.0000 C   0  0  2  0  0  0  0  0  0  0  0  0
   11.9016   -9.0835    0.0000 C   0  0  0  0  0  0  0  0  0  0  0  0
   12.6160   -8.6710    0.0000 C   0  0  1  0  0  0  0  0  0  0  0  0
   12.6160   -7.8460    0.0000 C   0  0  1  0  0  0  0  0  0  0  0  0
   13.3305   -7.4335    0.0000 C   0  0  0  0  0  0  0  0  0  0  0  0
   13.3305   -6.6085    0.0000 C   0  0  0  0  0  0  0  0  0  0  0  0
   12.6160   -6.1960    0.0000 C   0  0  1  0  0  0  0  0  0  0  0  0
   11.9016   -6.6085    0.0000 C   0  0  0  0  0  0  0  0  0  0  0  0
   11.9016   -7.4335    0.0000 C   0  0  0  0  0  0  0  0  0  0  0  0
   11.1871   -7.8460    0.0000 C   0  0  0  0  0  0  0  0  0  0  0  0
   10.4726   -7.4335    0.0000 C   0  0  0  0  0  0  0  0  0  0  0  0
    9.7581   -7.8460    0.0000 C   0  0  0  0  0  0  0  0  0  0  0  0
    9.7581   -8.6710    0.0000 C   0  0  2  0  0  0  0  0  0  0  0  0
    9.0437   -9.0835    0.0000 C   0  0  1  0  0  0  0  0  0  0  0  0
    9.0437   -8.2585    0.0000 C   0  0  0  0  0  0  0  0  0  0  0  0
   12.2035   -5.4815    0.0000 C   0  0  0  0  0  0  0  0  0  0  0  0
   13.0285   -5.4815    0.0000 C   0  0  0  0  0  0  0  0  0  0  0  0
   11.1871   -9.4960    0.0000 C   0  0  0  0  0  0  0  0  0  0  0  0
   10.4726   -8.2585    0.0000 C   0  0  0  0  0  0  0  0  0  0  0  0
    7.9167  -11.0354    0.0000 C   0  0  0  0  0  0  0  0  0  0  0  0
   13.3305   -8.2585    0.0000 C   0  0  0  0  0  0  0  0  0  0  0  0
   14.0450   -7.8460    0.0000 O   0  0  0  0  0  0  0  0  0  0  0  0
    8.7417  -11.0354    0.0000 C   0  0  0  0  0  0  0  0  0  0  0  0
    8.3292  -11.7499    0.0000 O   0  0  0  0  0  0  0  0  0  0  0  0
   13.3305   -9.0835    0.0000 O   0  0  0  0  0  0  0  0  0  0  0  0
    9.0437  -10.7335    0.0000 H   0  0  0  0  0  0  0  0  0  0  0  0
    9.7581   -9.4960    0.0000 H   0  0  0  0  0  0  0  0  0  0  0  0
    0.4700   -9.0835    0.0000 O   0  0  0  0  0  0  0  0  0  0  0  0
  1  2  1  0  0  0  0
  2  3  1  0  0  0  0
  3  4  1  0  0  0  0
  4  5  1  0  0  0  0
  5  6  1  0  0  0  0
  1  6  1  0  0  0  0
  3  7  1  6  0  0  0
  4  8  1  6  0  0  0
  5  9  1  1  0  0  0
  6 10  1  6  0  0  0
 12 13  1  0  0  0  0
 13 14  1  0  0  0  0
 14 15  1  0  0  0  0
 15 16  1  0  0  0  0
 16 17  1  0  0  0  0
 12 17  1  0  0  0  0
 20 21  1  0  0  0  0
 21 22  1  0  0  0  0
 22 23  1  0  0  0  0
 23 24  1  0  0  0  0
 24 25  1  0  0  0  0
 20 25  1  0  0  0  0
 25 26  1  1  0  0  0
 24 27  1  6  0  0  0
 23 28  1  1  0  0  0
 22 29  1  6  0  0  0
 21 19  1  1  0  0  0
 18 19  1  0  0  0  0
 13 18  1  6  0  0  0
 16 30  1  1  0  0  0
 15 31  1  6  0  0  0
 33 34  1  0  0  0  0
 34 35  1  0  0  0  0
 35 36  1  0  0  0  0
 36 37  1  0  0  0  0
 37 38  1  0  0  0  0
 38 39  1  0  0  0  0
 39 40  1  0  0  0  0
 40 41  1  0  0  0  0
 41 42  1  0  0  0  0
 42 43  1  0  0  0  0
 43 44  1  0  0  0  0
 44 45  1  0  0  0  0
 45 46  1  0  0  0  0
 46 47  1  0  0  0  0
 47 48  1  0  0  0  0
 48 49  1  0  0  0  0
 44 49  1  0  0  0  0
 49 50  2  0  0  0  0
 41 50  1  0  0  0  0
 50 51  1  0  0  0  0
 51 52  2  0  0  0  0
 52 53  1  0  0  0  0
 40 53  1  0  0  0  0
 53 54  1  0  0  0  0
 37 54  1  0  0  0  0
 33 54  1  0  0  0  0
 54 55  1  1  0  0  0
 47 56  1  1  0  0  0
 47 57  1  6  0  0  0
 41 58  1  6  0  0  0
 40 59  1  1  0  0  0
 36 60  1  1  0  0  0
 61 62  1  0  0  0  0
 44 61  1  1  0  0  0
 63 64  1  0  0  0  0
 36 63  1  6  0  0  0
 43 65  1  1  0  0  0
 35 32  1  1  0  0  0
 17 32  1  6  0  0  0
 14 11  1  1  0  0  0
  2 11  1  1  0  0  0
 37 66  1  6  0  0  0
 53 67  1  6  0  0  0
 26 68  1  0  0  0  0
M  END
>  <cdx:fragmentId>
225882

$$$$
