96238.cdx
  Mrv1902 05222410252D          

 45 50  0  0  0  0            999 V2000
    3.3256  -10.2988    0.0000 C   0  0  2  0  0  0  0  0  0  0  0  0
    3.3256  -11.1237    0.0000 C   0  0  1  0  0  0  0  0  0  0  0  0
    4.0400  -11.5362    0.0000 C   0  0  0  0  0  0  0  0  0  0  0  0
    4.7545  -11.1237    0.0000 C   0  0  2  0  0  0  0  0  0  0  0  0
    4.7545  -10.2988    0.0000 C   0  0  2  0  0  0  0  0  0  0  0  0
    4.0400   -9.8863    0.0000 C   0  0  0  0  0  0  0  0  0  0  0  0
    5.4690  -11.5362    0.0000 C   0  0  0  0  0  0  0  0  0  0  0  0
    6.1834  -11.1237    0.0000 C   0  0  0  0  0  0  0  0  0  0  0  0
    6.1834  -10.2988    0.0000 C   0  0  0  0  0  0  0  0  0  0  0  0
    5.4690   -9.8863    0.0000 C   0  0  0  0  0  0  0  0  0  0  0  0
    6.8979   -9.8863    0.0000 C   0  0  1  0  0  0  0  0  0  0  0  0
    6.8979   -9.0613    0.0000 C   0  0  2  0  0  0  0  0  0  0  0  0
    6.1834   -8.6487    0.0000 C   0  0  0  0  0  0  0  0  0  0  0  0
    5.4690   -9.0613    0.0000 C   0  0  0  0  0  0  0  0  0  0  0  0
    7.6825  -10.1412    0.0000 C   0  0  0  0  0  0  0  0  0  0  0  0
    8.1675   -9.4738    0.0000 C   0  0  0  0  0  0  0  0  0  0  0  0
    7.6825   -8.8063    0.0000 C   0  0  2  0  0  0  0  0  0  0  0  0
    5.4690  -12.3613    0.0000 O   0  0  0  0  0  0  0  0  0  0  0  0
    7.1406   -8.2352    0.0000 C   0  0  0  0  0  0  0  0  0  0  0  0
    5.8744   -3.5955    0.0000 O   0  0  0  0  0  0  0  0  0  0  0  0
    6.5924   -4.0017    0.0000 C   0  0  0  0  0  0  0  0  0  0  0  0
    7.2713   -5.3058    0.0000 O   0  0  0  0  0  0  0  0  0  0  0  0
    6.5996   -4.8267    0.0000 C   0  0  0  0  0  0  0  0  0  0  0  0
    5.9364   -5.3174    0.0000 C   0  0  0  0  0  0  0  0  0  0  0  0
    6.1982   -6.0998    0.0000 C   0  0  0  0  0  0  0  0  0  0  0  0
    7.0232   -6.0926    0.0000 C   0  0  0  0  0  0  0  0  0  0  0  0
   10.0278   -7.2588    0.0000 C   0  0  3  0  0  0  0  0  0  0  0  0
   10.7985   -7.5532    0.0000 C   0  0  3  0  0  0  0  0  0  0  0  0
    9.3875   -7.7790    0.0000 C   0  0  0  0  0  0  0  0  0  0  0  0
    8.6007   -7.5310    0.0000 C   0  0  1  0  0  0  0  0  0  0  0  0
    8.3389   -6.7486    0.0000 O   0  0  0  0  0  0  0  0  0  0  0  0
    7.5139   -6.7558    0.0000 C   0  0  2  0  0  0  0  0  0  0  0  0
    2.6111   -9.8863    0.0000 O   0  0  0  0  0  0  0  0  0  0  0  0
    2.6111  -11.5362    0.0000 O   0  0  0  0  0  0  0  0  0  0  0  0
    4.7545   -9.4738    0.0000 C   0  0  0  0  0  0  0  0  0  0  0  0
    7.2658   -7.5426    0.0000 O   0  0  0  0  0  0  0  0  0  0  0  0
    7.9375   -8.0217    0.0000 C   0  0  2  0  0  0  0  0  0  0  0  0
    6.8979  -10.7112    0.0000 O   0  0  0  0  0  0  0  0  0  0  0  0
    4.7545  -11.9488    0.0000 H   0  0  0  0  0  0  0  0  0  0  0  0
    8.5075   -8.8063    0.0000 H   0  0  0  0  0  0  0  0  0  0  0  0
    6.8979   -8.2363    0.0000 C   0  0  0  0  0  0  0  0  0  0  0  0
   11.4388   -7.0330    0.0000 C   0  0  0  0  0  0  0  0  0  0  0  0
   12.2094   -7.3274    0.0000 O   0  0  0  0  0  0  0  0  0  0  0  0
   10.9288   -8.3679    0.0000 C   0  0  0  0  0  0  0  0  0  0  0  0
    9.8974   -6.4442    0.0000 C   0  0  0  0  0  0  0  0  0  0  0  0
  1  2  1  0  0  0  0
  2  3  1  0  0  0  0
  3  4  1  0  0  0  0
  4  5  1  0  0  0  0
  5  6  1  0  0  0  0
  6  1  1  0  0  0  0
  4  7  1  0  0  0  0
  7  8  1  0  0  0  0
  8  9  2  0  0  0  0
  9 10  1  0  0  0  0
 10  5  1  0  0  0  0
  9 11  1  0  0  0  0
 11 12  1  0  0  0  0
 12 13  1  0  0  0  0
 13 14  1  0  0  0  0
 14 10  1  0  0  0  0
 11 15  1  0  0  0  0
 15 16  1  0  0  0  0
 16 17  1  0  0  0  0
 17 12  1  0  0  0  0
  7 18  2  0  0  0  0
 37 19  1  6  0  0  0
 17 37  1  0  0  0  0
 21 20  1  0  0  0  0
 23 21  1  0  0  0  0
 22 26  1  0  0  0  0
 23 22  1  0  0  0  0
 24 23  2  0  0  0  0
 25 24  1  0  0  0  0
 26 25  2  0  0  0  0
 32 26  1  6  0  0  0
 27 28  1  0  0  0  0
 29 27  1  0  0  0  0
 30 29  1  0  0  0  0
 30 37  1  0  0  0  0
 30 31  1  6  0  0  0
 32 31  1  0  0  0  0
 36 32  1  0  0  0  0
 37 36  1  1  0  0  0
  1 33  1  1  0  0  0
  2 34  1  1  0  0  0
  5 35  1  1  0  0  0
 11 38  1  6  0  0  0
  4 39  1  1  0  0  0
 17 40  1  6  0  0  0
 12 41  1  1  0  0  0
 28 42  1  0  0  0  0
 42 43  1  0  0  0  0
 28 44  1  4  0  0  0
 27 45  1  4  0  0  0
M  END
>  <cdx:fragmentId>
5

$$$$
