96235.cdx
  Mrv1902 05222410212D          

 24 27  0  0  0  0            999 V2000
    5.0718   -8.1950    0.0000 C   0  0  0  0  0  0  0  0  0  0  0  0
    5.0718   -9.0200    0.0000 C   0  0  0  0  0  0  0  0  0  0  0  0
    5.7863   -9.4325    0.0000 C   0  0  0  0  0  0  0  0  0  0  0  0
    6.5007   -9.0200    0.0000 C   0  0  0  0  0  0  0  0  0  0  0  0
    6.5007   -8.1950    0.0000 C   0  0  2  0  0  0  0  0  0  0  0  0
    5.7863   -7.7825    0.0000 C   0  0  0  0  0  0  0  0  0  0  0  0
    7.2152   -9.4325    0.0000 C   0  0  0  0  0  0  0  0  0  0  0  0
    7.9297   -9.0200    0.0000 C   0  0  0  0  0  0  0  0  0  0  0  0
    7.9297   -8.1950    0.0000 C   0  0  0  0  0  0  0  0  0  0  0  0
    7.2152   -7.7825    0.0000 C   0  0  0  0  0  0  0  0  0  0  0  0
    8.6442   -7.7825    0.0000 C   0  0  0  0  0  0  0  0  0  0  0  0
    8.6442   -6.9575    0.0000 C   0  0  0  0  0  0  0  0  0  0  0  0
    7.9297   -6.5450    0.0000 C   0  0  0  0  0  0  0  0  0  0  0  0
    7.2152   -6.9575    0.0000 C   0  0  0  0  0  0  0  0  0  0  0  0
    9.2573   -6.4055    0.0000 C   0  0  0  0  0  0  0  0  0  0  0  0
    8.9217   -5.6518    0.0000 C   0  0  1  0  0  0  0  0  0  0  0  0
    8.1012   -5.7380    0.0000 O   0  0  0  0  0  0  0  0  0  0  0  0
    4.3573   -9.4325    0.0000 C   0  0  0  0  0  0  0  0  0  0  0  0
    5.7863  -10.2575    0.0000 C   0  0  0  0  0  0  0  0  0  0  0  0
    8.6442   -9.4325    0.0000 O   0  0  0  0  0  0  0  0  0  0  0  0
    6.5007   -6.5450    0.0000 O   0  0  0  0  0  0  0  0  0  0  0  0
    9.3586   -8.1950    0.0000 O   0  0  0  0  0  0  0  0  0  0  0  0
    9.3342   -4.9373    0.0000 C   0  0  0  0  0  0  0  0  0  0  0  0
    6.5007   -7.3700    0.0000 C   0  0  0  0  0  0  0  0  0  0  0  0
  1  2  1  0  0  0  0
  2  3  2  0  0  0  0
  3  4  1  0  0  0  0
  4  5  1  0  0  0  0
  5  6  1  0  0  0  0
  6  1  1  0  0  0  0
  4  7  2  0  0  0  0
  7  8  1  0  0  0  0
  8  9  1  0  0  0  0
  9 10  2  0  0  0  0
 10  5  1  0  0  0  0
  9 11  1  0  0  0  0
 11 12  2  0  0  0  0
 12 13  1  0  0  0  0
 13 14  2  0  0  0  0
 14 10  1  0  0  0  0
 12 15  1  0  0  0  0
 15 16  1  0  0  0  0
 16 17  1  0  0  0  0
 17 13  1  0  0  0  0
  2 18  1  0  0  0  0
  3 19  1  0  0  0  0
  8 20  2  0  0  0  0
 14 21  1  0  0  0  0
 11 22  1  0  0  0  0
 16 23  1  1  0  0  0
  5 24  1  1  0  0  0
M  END
>  <cdx:fragmentId>
5

$$$$
