96232.cdx
  Mrv1902 05222410222D          

 25 28  0  0  0  0            999 V2000
    4.7968   -8.7313    0.0000 C   0  0  0  0  0  0  0  0  0  0  0  0
    4.7968   -9.5563    0.0000 C   0  0  0  0  0  0  0  0  0  0  0  0
    5.5113   -9.9688    0.0000 C   0  0  1  0  0  0  0  0  0  0  0  0
    6.2257   -9.5563    0.0000 C   0  0  0  0  0  0  0  0  0  0  0  0
    6.2257   -8.7313    0.0000 C   0  0  2  0  0  0  0  0  0  0  0  0
    5.5113   -8.3187    0.0000 C   0  0  0  0  0  0  0  0  0  0  0  0
    6.9402   -9.9688    0.0000 C   0  0  0  0  0  0  0  0  0  0  0  0
    7.6547   -9.5563    0.0000 C   0  0  0  0  0  0  0  0  0  0  0  0
    7.6547   -8.7313    0.0000 C   0  0  0  0  0  0  0  0  0  0  0  0
    6.9402   -8.3187    0.0000 C   0  0  0  0  0  0  0  0  0  0  0  0
    8.3692   -8.3187    0.0000 C   0  0  0  0  0  0  0  0  0  0  0  0
    8.3692   -7.4937    0.0000 C   0  0  0  0  0  0  0  0  0  0  0  0
    7.6547   -7.0812    0.0000 C   0  0  0  0  0  0  0  0  0  0  0  0
    6.9402   -7.4937    0.0000 C   0  0  0  0  0  0  0  0  0  0  0  0
    8.9823   -6.9417    0.0000 C   0  0  0  0  0  0  0  0  0  0  0  0
    8.6467   -6.1880    0.0000 C   0  0  1  0  0  0  0  0  0  0  0  0
    7.8262   -6.2743    0.0000 O   0  0  0  0  0  0  0  0  0  0  0  0
    5.0988  -10.6832    0.0000 C   0  0  0  0  0  0  0  0  0  0  0  0
    6.2257   -7.9063    0.0000 C   0  0  0  0  0  0  0  0  0  0  0  0
    9.0592   -5.4736    0.0000 C   0  0  0  0  0  0  0  0  0  0  0  0
    5.9238  -10.6832    0.0000 C   0  0  0  0  0  0  0  0  0  0  0  0
    8.3692   -9.9688    0.0000 O   0  0  0  0  0  0  0  0  0  0  0  0
    6.2257   -7.0812    0.0000 O   0  0  0  0  0  0  0  0  0  0  0  0
    9.0836   -8.7313    0.0000 O   0  0  0  0  0  0  0  0  0  0  0  0
    9.8842   -5.4736    0.0000 O   0  0  0  0  0  0  0  0  0  0  0  0
  1  2  1  0  0  0  0
  2  3  1  0  0  0  0
  3  4  1  0  0  0  0
  4  5  1  0  0  0  0
  5  6  1  0  0  0  0
  6  1  1  0  0  0  0
  4  7  1  0  0  0  0
  7  8  1  0  0  0  0
  8  9  1  0  0  0  0
  9 10  2  0  0  0  0
 10  5  1  0  0  0  0
  9 11  1  0  0  0  0
 11 12  2  0  0  0  0
 12 13  1  0  0  0  0
 13 14  2  0  0  0  0
 14 10  1  0  0  0  0
 12 15  1  0  0  0  0
 15 16  1  0  0  0  0
 16 17  1  0  0  0  0
 17 13  1  0  0  0  0
  3 18  1  1  0  0  0
  5 19  1  1  0  0  0
 16 20  1  1  0  0  0
  3 21  1  6  0  0  0
  8 22  2  0  0  0  0
 14 23  1  0  0  0  0
 11 24  1  0  0  0  0
 20 25  1  0  0  0  0
M  END
>  <cdx:fragmentId>
5

$$$$
