96231-￬ﾃﾝ￫ﾦﾬ￭ﾙﾜ￬ﾄﾱ￫ﾍﾰ￬ﾝﾴ￭ﾄﾰ ￬ﾋﾜ￬ﾞﾑ.cdx
  Mrv1902 05222410232D          

 19 21  0  0  0  0            999 V2000
    5.2643   -5.7338    0.0000 C   0  0  0  0  0  0  0  0  0  0  0  0
    5.2643   -6.5587    0.0000 C   0  0  0  0  0  0  0  0  0  0  0  0
    5.9788   -6.9712    0.0000 C   0  0  0  0  0  0  0  0  0  0  0  0
    6.6932   -6.5587    0.0000 C   0  0  0  0  0  0  0  0  0  0  0  0
    6.6932   -5.7338    0.0000 C   0  0  0  0  0  0  0  0  0  0  0  0
    5.9788   -5.3213    0.0000 C   0  0  0  0  0  0  0  0  0  0  0  0
    7.4077   -6.9712    0.0000 C   0  0  0  0  0  0  0  0  0  0  0  0
    8.1222   -6.5587    0.0000 C   0  0  0  0  0  0  0  0  0  0  0  0
    8.1222   -5.7338    0.0000 C   0  0  0  0  0  0  0  0  0  0  0  0
    7.4077   -5.3213    0.0000 C   0  0  0  0  0  0  0  0  0  0  0  0
    4.8518   -7.2732    0.0000 C   0  0  0  0  0  0  0  0  0  0  0  0
    5.5663   -7.6857    0.0000 O   0  0  0  0  0  0  0  0  0  0  0  0
    4.0268   -7.2732    0.0000 C   0  0  0  0  0  0  0  0  0  0  0  0
    4.6383   -8.0701    0.0000 C   0  0  0  0  0  0  0  0  0  0  0  0
    5.9788   -4.4962    0.0000 C   0  0  0  0  0  0  0  0  0  0  0  0
    7.4077   -4.4962    0.0000 O   0  0  0  0  0  0  0  0  0  0  0  0
    7.4077   -7.7963    0.0000 O   0  0  0  0  0  0  0  0  0  0  0  0
    8.8367   -5.3212    0.0000 O   0  0  0  0  0  0  0  0  0  0  0  0
    8.8367   -6.9712    0.0000 C   0  0  0  0  0  0  0  0  0  0  0  0
  1  2  2  0  0  0  0
  2  3  1  0  0  0  0
  3  4  2  0  0  0  0
  4  5  1  0  0  0  0
  5  6  2  0  0  0  0
  6  1  1  0  0  0  0
  4  7  1  0  0  0  0
  7  8  1  0  0  0  0
  8  9  2  0  0  0  0
  9 10  1  0  0  0  0
 10  5  1  0  0  0  0
  2 11  1  0  0  0  0
 11 12  1  0  0  0  0
 12  3  1  0  0  0  0
 11 13  1  0  0  0  0
 11 14  1  0  0  0  0
  6 15  1  0  0  0  0
 10 16  2  0  0  0  0
  7 17  2  0  0  0  0
  9 18  1  0  0  0  0
  8 19  1  0  0  0  0
M  END
>  <cdx:fragmentId>
5

$$$$
