96236.cdx
  Mrv1902 05222410212D          

 29 30  0  0  0  0            999 V2000
    5.4221   -6.8758    0.0000 O   0  0  0  0  0  0  0  0  0  0  0  0
   10.3504   -2.2592    0.0000 O   0  0  0  0  0  0  0  0  0  0  0  0
   10.3636   -3.0841    0.0000 C   0  0  0  0  0  0  0  0  0  0  0  0
    9.6558   -3.5079    0.0000 C   0  0  0  0  0  0  0  0  0  0  0  0
    9.6689   -4.3328    0.0000 C   0  0  0  0  0  0  0  0  0  0  0  0
    6.7983   -3.5534    0.0000 C   0  0  0  0  0  0  0  0  0  0  0  0
    6.8114   -4.3783    0.0000 O   0  0  0  0  0  0  0  0  0  0  0  0
    7.6112  -10.5537    0.0000 C   0  0  0  0  0  0  0  0  0  0  0  0
    7.6112   -9.7287    0.0000 O   0  0  0  0  0  0  0  0  0  0  0  0
    5.4811  -10.9889    0.0000 C   0  0  0  0  0  0  0  0  0  0  0  0
    6.1956  -10.5764    0.0000 O   0  0  0  0  0  0  0  0  0  0  0  0
    3.9143   -9.3617    0.0000 C   0  0  0  0  0  0  0  0  0  0  0  0
    4.7537   -9.7743    0.0000 O   0  0  0  0  0  0  0  0  0  0  0  0
    8.9743   -5.5815    0.0000 C   0  0  0  0  0  0  0  0  0  0  0  0
    8.9611   -4.7566    0.0000 C   0  0  0  0  0  0  0  0  0  0  0  0
    8.2402   -4.3555    0.0000 C   0  0  0  0  0  0  0  0  0  0  0  0
    7.5324   -4.7794    0.0000 C   0  0  0  0  0  0  0  0  0  0  0  0
    8.2664   -6.0053    0.0000 C   0  0  0  0  0  0  0  0  0  0  0  0
    7.5455   -5.6043    0.0000 C   0  0  0  0  0  0  0  0  0  0  0  0
    6.8377   -6.0281    0.0000 O   0  0  0  0  0  0  0  0  0  0  0  0
    7.5718   -7.2541    0.0000 C   0  0  0  0  0  0  0  0  0  0  0  0
    6.8508   -6.8530    0.0000 C   0  0  2  0  0  0  0  0  0  0  0  0
    6.1430   -7.2768    0.0000 C   0  0  2  0  0  0  0  0  0  0  0  0
    6.8902   -9.3277    0.0000 C   0  0  0  0  0  0  0  0  0  0  0  0
    6.8771   -8.5028    0.0000 C   0  0  0  0  0  0  0  0  0  0  0  0
    6.1562   -8.1017    0.0000 C   0  0  0  0  0  0  0  0  0  0  0  0
    5.4483   -8.5255    0.0000 C   0  0  0  0  0  0  0  0  0  0  0  0
    5.4615   -9.3504    0.0000 C   0  0  0  0  0  0  0  0  0  0  0  0
    6.1824   -9.7515    0.0000 C   0  0  0  0  0  0  0  0  0  0  0  0
 23  1  1  6  0  0  0
  3  2  1  0  0  0  0
  4  3  1  0  0  0  0
  5  4  1  0  0  0  0
 15  5  1  0  0  0  0
  7  6  1  0  0  0  0
 17  7  1  0  0  0  0
  9  8  1  0  0  0  0
 24  9  1  0  0  0  0
 11 10  1  0  0  0  0
 29 11  1  0  0  0  0
 13 12  1  0  0  0  0
 28 13  1  0  0  0  0
 14 18  1  0  0  0  0
 15 14  2  0  0  0  0
 16 15  1  0  0  0  0
 17 16  2  0  0  0  0
 19 17  1  0  0  0  0
 19 18  2  0  0  0  0
 20 19  1  0  0  0  0
 22 20  1  6  0  0  0
 22 21  1  0  0  0  0
 23 22  1  0  0  0  0
 26 23  1  0  0  0  0
 24 29  1  0  0  0  0
 25 24  2  0  0  0  0
 26 25  1  0  0  0  0
 27 26  2  0  0  0  0
 28 27  1  0  0  0  0
 29 28  2  0  0  0  0
M  END
>  <cdx:fragmentId>
5

$$$$
