96240.cdx
  Mrv1902 05222410192D          

 30 32  0  0  0  0            999 V2000
    4.5456   -8.6670    0.0000 C   0  0  0  0  0  0  0  0  0  0  0  0
    4.7590   -9.4639    0.0000 C   0  0  0  0  0  0  0  0  0  0  0  0
    5.5559   -9.6775    0.0000 C   0  0  0  0  0  0  0  0  0  0  0  0
    6.1393   -9.0942    0.0000 C   0  0  0  0  0  0  0  0  0  0  0  0
    5.9259   -8.2973    0.0000 C   0  0  0  0  0  0  0  0  0  0  0  0
    5.1290   -8.0837    0.0000 C   0  0  0  0  0  0  0  0  0  0  0  0
    6.5093   -7.7140    0.0000 C   0  0  1  0  0  0  0  0  0  0  0  0
    7.3343   -7.7140    0.0000 C   0  0  1  0  0  0  0  0  0  0  0  0
    7.3343   -6.8890    0.0000 C   0  0  1  0  0  0  0  0  0  0  0  0
    6.5093   -6.8890    0.0000 C   0  0  1  0  0  0  0  0  0  0  0  0
    7.9176   -8.2974    0.0000 C   0  0  0  0  0  0  0  0  0  0  0  0
    7.7040   -9.0943    0.0000 C   0  0  0  0  0  0  0  0  0  0  0  0
    8.2873   -9.6777    0.0000 C   0  0  0  0  0  0  0  0  0  0  0  0
    9.0842   -9.4643    0.0000 C   0  0  0  0  0  0  0  0  0  0  0  0
    9.2978   -8.6674    0.0000 C   0  0  0  0  0  0  0  0  0  0  0  0
    8.7145   -8.0840    0.0000 C   0  0  0  0  0  0  0  0  0  0  0  0
    7.9177   -6.3057    0.0000 C   0  0  0  0  0  0  0  0  0  0  0  0
    5.9260   -6.3056    0.0000 C   0  0  0  0  0  0  0  0  0  0  0  0
    4.9155   -7.2868    0.0000 O   0  0  0  0  0  0  0  0  0  0  0  0
    4.1186   -7.0732    0.0000 C   0  0  0  0  0  0  0  0  0  0  0  0
    4.1756  -10.0472    0.0000 O   0  0  0  0  0  0  0  0  0  0  0  0
    4.3891  -10.8441    0.0000 C   0  0  0  0  0  0  0  0  0  0  0  0
    5.7694  -10.4744    0.0000 O   0  0  0  0  0  0  0  0  0  0  0  0
    6.5662  -10.6880    0.0000 C   0  0  0  0  0  0  0  0  0  0  0  0
    6.9071   -9.3078    0.0000 O   0  0  0  0  0  0  0  0  0  0  0  0
    6.6935  -10.1047    0.0000 C   0  0  0  0  0  0  0  0  0  0  0  0
    9.6675  -10.0477    0.0000 O   0  0  0  0  0  0  0  0  0  0  0  0
   10.4644   -9.8342    0.0000 C   0  0  0  0  0  0  0  0  0  0  0  0
   10.0947   -8.4539    0.0000 O   0  0  0  0  0  0  0  0  0  0  0  0
   10.3083   -7.6571    0.0000 C   0  0  0  0  0  0  0  0  0  0  0  0
  1  2  2  0  0  0  0
  2  3  1  0  0  0  0
  3  4  2  0  0  0  0
  4  5  1  0  0  0  0
  5  6  2  0  0  0  0
  6  1  1  0  0  0  0
  7  5  1  6  0  0  0
  7  8  1  0  0  0  0
  8  9  1  0  0  0  0
  9 10  1  0  0  0  0
 10  7  1  0  0  0  0
  8 11  1  1  0  0  0
 11 12  2  0  0  0  0
 12 13  1  0  0  0  0
 13 14  2  0  0  0  0
 14 15  1  0  0  0  0
 15 16  2  0  0  0  0
 16 11  1  0  0  0  0
  9 17  1  1  0  0  0
 10 18  1  6  0  0  0
  6 19  1  0  0  0  0
 19 20  1  0  0  0  0
  2 21  1  0  0  0  0
 21 22  1  0  0  0  0
  3 23  1  0  0  0  0
 23 24  1  0  0  0  0
 12 25  1  0  0  0  0
 25 26  1  0  0  0  0
 14 27  1  0  0  0  0
 27 28  1  0  0  0  0
 15 29  1  0  0  0  0
 29 30  1  0  0  0  0
M  END
>  <cdx:fragmentId>
5

$$$$
