96247.cdx
  Mrv1902 05222410202D          

 24 26  0  0  0  0            999 V2000
    4.6043   -8.4700    0.0000 C   0  0  0  0  0  0  0  0  0  0  0  0
    4.6043   -9.2950    0.0000 C   0  0  0  0  0  0  0  0  0  0  0  0
    5.3188   -9.7075    0.0000 C   0  0  1  0  0  0  0  0  0  0  0  0
    6.0332   -9.2950    0.0000 C   0  0  0  0  0  0  0  0  0  0  0  0
    6.0332   -8.4700    0.0000 C   0  0  2  0  0  0  0  0  0  0  0  0
    5.3188   -8.0575    0.0000 C   0  0  0  0  0  0  0  0  0  0  0  0
    6.7477   -9.7075    0.0000 C   0  0  0  0  0  0  0  0  0  0  0  0
    7.4622   -9.2950    0.0000 C   0  0  0  0  0  0  0  0  0  0  0  0
    7.4622   -8.4700    0.0000 C   0  0  0  0  0  0  0  0  0  0  0  0
    6.7477   -8.0575    0.0000 C   0  0  0  0  0  0  0  0  0  0  0  0
    8.1767   -8.0575    0.0000 C   0  0  0  0  0  0  0  0  0  0  0  0
    8.1767   -7.2325    0.0000 C   0  0  0  0  0  0  0  0  0  0  0  0
    7.4622   -6.8200    0.0000 C   0  0  0  0  0  0  0  0  0  0  0  0
    6.7477   -7.2325    0.0000 C   0  0  0  0  0  0  0  0  0  0  0  0
    8.1767   -9.7075    0.0000 O   0  0  0  0  0  0  0  0  0  0  0  0
    6.0332   -6.8200    0.0000 O   0  0  0  0  0  0  0  0  0  0  0  0
    7.4622   -5.9950    0.0000 O   0  0  0  0  0  0  0  0  0  0  0  0
    8.8911   -6.8200    0.0000 C   0  0  0  0  0  0  0  0  0  0  0  0
    9.6056   -7.2325    0.0000 C   0  0  0  0  0  0  0  0  0  0  0  0
    8.8911   -5.9950    0.0000 C   0  0  0  0  0  0  0  0  0  0  0  0
    9.6056   -5.5825    0.0000 O   0  0  0  0  0  0  0  0  0  0  0  0
    4.9063  -10.4220    0.0000 C   0  0  0  0  0  0  0  0  0  0  0  0
    6.0332   -7.6450    0.0000 C   0  0  0  0  0  0  0  0  0  0  0  0
    5.7313  -10.4220    0.0000 C   0  0  0  0  0  0  0  0  0  0  0  0
  1  2  1  0  0  0  0
  2  3  1  0  0  0  0
  3  4  1  0  0  0  0
  4  5  1  0  0  0  0
  5  6  1  0  0  0  0
  6  1  1  0  0  0  0
  4  7  1  0  0  0  0
  7  8  1  0  0  0  0
  8  9  1  0  0  0  0
  9 10  2  0  0  0  0
 10  5  1  0  0  0  0
  9 11  1  0  0  0  0
 11 12  2  0  0  0  0
 12 13  1  0  0  0  0
 13 14  2  0  0  0  0
 14 10  1  0  0  0  0
  8 15  2  0  0  0  0
 14 16  1  0  0  0  0
 13 17  1  0  0  0  0
 12 18  1  0  0  0  0
 18 19  1  0  0  0  0
 18 20  1  0  0  0  0
 20 21  1  0  0  0  0
  3 22  1  1  0  0  0
  5 23  1  1  0  0  0
  3 24  1  6  0  0  0
M  END
>  <cdx:fragmentId>
5

$$$$
