96258.cdx
  Mrv1902 05222410272D          

 56 62  0  0  0  0            999 V2000
   12.2479   -7.6193    0.0000 C   0  0  0  0  0  0  0  0  0  0  0  0
   11.5335   -8.0318    0.0000 C   0  0  0  0  0  0  0  0  0  0  0  0
   11.5335   -8.8568    0.0000 C   0  0  1  0  0  0  0  0  0  0  0  0
   12.2479   -9.2693    0.0000 C   0  0  0  0  0  0  0  0  0  0  0  0
   12.9624   -8.8568    0.0000 C   0  0  2  0  0  0  0  0  0  0  0  0
   13.6769   -9.2693    0.0000 C   0  0  0  0  0  0  0  0  0  0  0  0
   14.3913   -8.8568    0.0000 C   0  0  0  0  0  0  0  0  0  0  0  0
   14.3913   -8.0318    0.0000 C   0  0  1  0  0  0  0  0  0  0  0  0
   15.1058   -7.6193    0.0000 C   0  0  2  0  0  0  0  0  0  0  0  0
   15.1058   -6.7943    0.0000 C   0  0  0  0  0  0  0  0  0  0  0  0
   14.3913   -6.3818    0.0000 C   0  0  0  0  0  0  0  0  0  0  0  0
   13.6769   -6.7943    0.0000 C   0  0  0  0  0  0  0  0  0  0  0  0
   13.6769   -7.6193    0.0000 C   0  0  2  0  0  0  0  0  0  0  0  0
   12.9624   -8.0318    0.0000 C   0  0  1  0  0  0  0  0  0  0  0  0
   15.1058   -8.4443    0.0000 C   0  0  0  0  0  0  0  0  0  0  0  0
   12.9624   -7.2068    0.0000 C   0  0  0  0  0  0  0  0  0  0  0  0
   14.3913   -7.2068    0.0000 C   0  0  0  0  0  0  0  0  0  0  0  0
   12.6604   -9.9838    0.0000 C   0  0  0  0  0  0  0  0  0  0  0  0
   11.8354   -9.9838    0.0000 C   0  0  0  0  0  0  0  0  0  0  0  0
   10.8190   -9.2693    0.0000 O   0  0  0  0  0  0  0  0  0  0  0  0
   15.8203   -8.0318    0.0000 C   0  0  0  0  0  0  0  0  0  0  0  0
   16.5348   -7.6193    0.0000 C   0  0  0  0  0  0  0  0  0  0  0  0
   16.5348   -6.7943    0.0000 C   0  0  2  0  0  0  0  0  0  0  0  0
   15.8203   -6.3818    0.0000 C   0  0  1  0  0  0  0  0  0  0  0  0
   17.2492   -6.3818    0.0000 C   0  0  0  0  0  0  0  0  0  0  0  0
   17.2492   -5.5568    0.0000 C   0  0  0  0  0  0  0  0  0  0  0  0
   16.5348   -5.1443    0.0000 C   0  0  0  0  0  0  0  0  0  0  0  0
   15.8203   -5.5568    0.0000 C   0  0  0  0  0  0  0  0  0  0  0  0
   16.9473   -4.4298    0.0000 C   0  0  0  0  0  0  0  0  0  0  0  0
   16.1223   -4.4298    0.0000 C   0  0  0  0  0  0  0  0  0  0  0  0
   17.2492   -7.2068    0.0000 C   0  0  0  0  0  0  0  0  0  0  0  0
   17.2492   -8.0318    0.0000 O   0  0  0  0  0  0  0  0  0  0  0  0
   17.9637   -6.7943    0.0000 O   0  0  0  0  0  0  0  0  0  0  0  0
   12.9624   -9.6818    0.0000 H   0  0  0  0  0  0  0  0  0  0  0  0
   13.6769   -8.4443    0.0000 H   0  0  0  0  0  0  0  0  0  0  0  0
   15.1058   -5.9693    0.0000 H   0  0  0  0  0  0  0  0  0  0  0  0
   10.1045   -8.8568    0.0000 C   0  0  2  0  0  0  0  0  0  0  0  0
   10.1045   -8.0318    0.0000 O   0  0  0  0  0  0  0  0  0  0  0  0
    9.3901   -7.6193    0.0000 C   0  0  0  0  0  0  0  0  0  0  0  0
    8.6756   -8.0318    0.0000 C   0  0  1  0  0  0  0  0  0  0  0  0
    8.6756   -8.8568    0.0000 C   0  0  1  0  0  0  0  0  0  0  0  0
    9.3901   -9.2693    0.0000 C   0  0  1  0  0  0  0  0  0  0  0  0
    9.3901  -10.0943    0.0000 O   0  0  0  0  0  0  0  0  0  0  0  0
    7.9611   -9.2693    0.0000 O   0  0  0  0  0  0  0  0  0  0  0  0
    7.9611   -7.6193    0.0000 O   0  0  0  0  0  0  0  0  0  0  0  0
    7.9611   -6.7943    0.0000 C   0  0  2  0  0  0  0  0  0  0  0  0
    8.6756   -6.3818    0.0000 O   0  0  0  0  0  0  0  0  0  0  0  0
    8.6756   -5.5568    0.0000 C   0  0  1  0  0  0  0  0  0  0  0  0
    7.9611   -5.1443    0.0000 C   0  0  2  0  0  0  0  0  0  0  0  0
    7.2466   -5.5568    0.0000 C   0  0  1  0  0  0  0  0  0  0  0  0
    7.2466   -6.3818    0.0000 C   0  0  1  0  0  0  0  0  0  0  0  0
    9.3901   -5.1443    0.0000 C   0  0  0  0  0  0  0  0  0  0  0  0
    6.5322   -5.1443    0.0000 O   0  0  0  0  0  0  0  0  0  0  0  0
    7.9611   -4.3193    0.0000 O   0  0  0  0  0  0  0  0  0  0  0  0
    6.5322   -6.7943    0.0000 O   0  0  0  0  0  0  0  0  0  0  0  0
    9.3901   -4.3193    0.0000 O   0  0  0  0  0  0  0  0  0  0  0  0
  1  2  1  0  0  0  0
  2  3  1  0  0  0  0
  3  4  1  0  0  0  0
  4  5  1  0  0  0  0
  5  6  1  0  0  0  0
  6  7  1  0  0  0  0
  7  8  1  0  0  0  0
  8  9  1  0  0  0  0
  9 10  1  0  0  0  0
 10 11  2  0  0  0  0
 11 12  1  0  0  0  0
 12 13  1  0  0  0  0
  8 13  1  0  0  0  0
 13 14  1  0  0  0  0
  5 14  1  0  0  0  0
  1 14  1  0  0  0  0
  9 15  1  6  0  0  0
 14 16  1  1  0  0  0
  8 17  1  1  0  0  0
  4 18  1  0  0  0  0
  4 19  1  0  0  0  0
  3 20  1  1  0  0  0
  9 21  1  0  0  0  0
 21 22  1  0  0  0  0
 22 23  1  0  0  0  0
 23 24  1  0  0  0  0
 24 10  1  0  0  0  0
 23 25  1  0  0  0  0
 25 26  1  0  0  0  0
 26 27  1  0  0  0  0
 27 28  1  0  0  0  0
 28 24  1  0  0  0  0
 27 29  1  0  0  0  0
 27 30  1  0  0  0  0
 23 31  1  1  0  0  0
 31 32  2  0  0  0  0
 31 33  1  0  0  0  0
  5 34  1  6  0  0  0
 13 35  1  6  0  0  0
 24 36  1  1  0  0  0
 37 20  1  1  0  0  0
 37 38  1  0  0  0  0
 38 39  1  0  0  0  0
 39 40  1  0  0  0  0
 40 41  1  0  0  0  0
 41 42  1  0  0  0  0
 42 37  1  0  0  0  0
 42 43  1  6  0  0  0
 41 44  1  1  0  0  0
 40 45  1  1  0  0  0
 46 45  1  1  0  0  0
 46 47  1  0  0  0  0
 47 48  1  0  0  0  0
 48 49  1  0  0  0  0
 49 50  1  0  0  0  0
 50 51  1  0  0  0  0
 51 46  1  0  0  0  0
 48 52  1  1  0  0  0
 50 53  1  1  0  0  0
 49 54  1  6  0  0  0
 51 55  1  6  0  0  0
 52 56  1  0  0  0  0
M  END
>  <cdx:fragmentId>
31943

$$$$
