96251.cdx
  Mrv1902 05222410192D          

 29 30  0  0  0  0            999 V2000
    2.7593   -7.3709    0.0000 O   0  0  0  0  0  0  0  0  0  0  0  0
    2.0449   -8.6084    0.0000 C   0  0  0  0  0  0  0  0  0  0  0  0
    2.7593   -9.0209    0.0000 O   0  0  0  0  0  0  0  0  0  0  0  0
    4.9028   -7.7834    0.0000 C   0  0  0  0  0  0  0  0  0  0  0  0
    4.1883   -7.3709    0.0000 C   0  0  0  0  0  0  0  0  0  0  0  0
    3.4738   -7.7834    0.0000 C   0  0  0  0  0  0  0  0  0  0  0  0
    3.4738   -8.6084    0.0000 C   0  0  0  0  0  0  0  0  0  0  0  0
    4.1883   -9.0209    0.0000 C   0  0  0  0  0  0  0  0  0  0  0  0
    4.9028   -8.6084    0.0000 C   0  0  0  0  0  0  0  0  0  0  0  0
   12.0475   -7.7834    0.0000 O   0  0  0  0  0  0  0  0  0  0  0  0
   11.3330   -7.3709    0.0000 C   0  0  0  0  0  0  0  0  0  0  0  0
   10.6185   -7.7834    0.0000 C   0  0  0  0  0  0  0  0  0  0  0  0
    9.9040   -7.3709    0.0000 C   0  0  0  0  0  0  0  0  0  0  0  0
    9.1896  -10.2584    0.0000 C   0  0  0  0  0  0  0  0  0  0  0  0
    8.4751   -9.8459    0.0000 O   0  0  0  0  0  0  0  0  0  0  0  0
    7.0462   -6.5459    0.0000 C   0  0  0  0  0  0  0  0  0  0  0  0
    7.0462   -7.3709    0.0000 O   0  0  0  0  0  0  0  0  0  0  0  0
    7.7606   -7.7834    0.0000 C   0  0  0  0  0  0  0  0  0  0  0  0
    8.4751   -7.3709    0.0000 C   0  0  0  0  0  0  0  0  0  0  0  0
    9.1896   -7.7834    0.0000 C   0  0  0  0  0  0  0  0  0  0  0  0
    9.1896   -8.6084    0.0000 C   0  0  0  0  0  0  0  0  0  0  0  0
    8.4751   -9.0209    0.0000 C   0  0  0  0  0  0  0  0  0  0  0  0
    7.7606   -8.6084    0.0000 C   0  0  0  0  0  0  0  0  0  0  0  0
    7.0462   -9.0209    0.0000 O   0  0  0  0  0  0  0  0  0  0  0  0
    5.6172   -7.3709    0.0000 O   0  0  0  0  0  0  0  0  0  0  0  0
    5.6172   -9.8459    0.0000 O   0  0  0  0  0  0  0  0  0  0  0  0
    6.3317   -7.7834    0.0000 C   0  0  0  0  0  0  0  0  0  0  0  0
    6.3317   -8.6084    0.0000 C   0  0  1  0  0  0  0  0  0  0  0  0
    5.6172   -9.0209    0.0000 C   0  0  1  0  0  0  0  0  0  0  0  0
 29  9  1  0  0  0  0
  6  1  1  0  0  0  0
  7  3  1  0  0  0  0
  3  2  1  0  0  0  0
  9  4  2  0  0  0  0
  5  4  1  0  0  0  0
  6  5  2  0  0  0  0
  7  6  1  0  0  0  0
  8  7  2  0  0  0  0
  9  8  1  0  0  0  0
 28 24  1  0  0  0  0
 20 13  1  0  0  0  0
 11 10  1  0  0  0  0
 12 11  1  0  0  0  0
 13 12  1  0  0  0  0
 22 15  1  0  0  0  0
 15 14  1  0  0  0  0
 18 17  1  0  0  0  0
 17 16  1  0  0  0  0
 24 23  1  0  0  0  0
 23 18  2  0  0  0  0
 19 18  1  0  0  0  0
 20 19  2  0  0  0  0
 21 20  1  0  0  0  0
 22 21  2  0  0  0  0
 23 22  1  0  0  0  0
 27 25  1  0  0  0  0
 29 26  1  6  0  0  0
 28 27  1  6  0  0  0
 29 28  1  0  0  0  0
M  END
>  <cdx:fragmentId>
17

$$$$
