96257.cdx
  Mrv1902 05222410182D          

 57 63  0  0  0  0            999 V2000
   11.5104   -5.4123    0.0000 C   0  0  0  0  0  0  0  0  0  0  0  0
   12.2249   -4.9998    0.0000 C   0  0  0  0  0  0  0  0  0  0  0  0
   12.9394   -5.4123    0.0000 C   0  0  0  0  0  0  0  0  0  0  0  0
   12.9394   -6.2373    0.0000 C   0  0  0  0  0  0  0  0  0  0  0  0
   12.2249   -6.6498    0.0000 C   0  0  2  0  0  0  0  0  0  0  0  0
   12.2249   -7.4748    0.0000 C   0  0  0  0  0  0  0  0  0  0  0  0
   11.5104   -7.8873    0.0000 C   0  0  0  0  0  0  0  0  0  0  0  0
   10.7960   -7.4748    0.0000 C   0  0  1  0  0  0  0  0  0  0  0  0
   10.0815   -7.8873    0.0000 C   0  0  2  0  0  0  0  0  0  0  0  0
   10.0815   -8.7123    0.0000 C   0  0  0  0  0  0  0  0  0  0  0  0
    9.3670   -9.1248    0.0000 C   0  0  0  0  0  0  0  0  0  0  0  0
    8.6526   -8.7123    0.0000 C   0  0  1  0  0  0  0  0  0  0  0  0
    7.9381   -9.1248    0.0000 C   0  0  2  0  0  0  0  0  0  0  0  0
    7.2236   -8.7123    0.0000 C   0  0  2  0  0  0  0  0  0  0  0  0
    7.2236   -7.8873    0.0000 C   0  0  0  0  0  0  0  0  0  0  0  0
    7.9381   -7.4748    0.0000 C   0  0  0  0  0  0  0  0  0  0  0  0
    8.6526   -7.8873    0.0000 C   0  0  2  0  0  0  0  0  0  0  0  0
    9.3670   -7.4748    0.0000 C   0  0  1  0  0  0  0  0  0  0  0  0
    9.3670   -6.6498    0.0000 C   0  0  0  0  0  0  0  0  0  0  0  0
   10.0815   -6.2373    0.0000 C   0  0  0  0  0  0  0  0  0  0  0  0
   10.7960   -6.6498    0.0000 C   0  0  0  0  0  0  0  0  0  0  0  0
   11.5104   -6.2373    0.0000 C   0  0  2  0  0  0  0  0  0  0  0  0
   12.9394   -7.0623    0.0000 C   0  0  0  0  0  0  0  0  0  0  0  0
   12.9394   -7.8873    0.0000 O   0  0  0  0  0  0  0  0  0  0  0  0
   13.6539   -6.6498    0.0000 O   0  0  0  0  0  0  0  0  0  0  0  0
    8.6526   -7.0623    0.0000 C   0  0  0  0  0  0  0  0  0  0  0  0
    7.5256   -9.8392    0.0000 C   0  0  0  0  0  0  0  0  0  0  0  0
   10.7960   -8.2998    0.0000 C   0  0  0  0  0  0  0  0  0  0  0  0
   11.8124   -4.2853    0.0000 C   0  0  0  0  0  0  0  0  0  0  0  0
   12.6374   -4.2853    0.0000 C   0  0  0  0  0  0  0  0  0  0  0  0
    8.3506   -9.8392    0.0000 C   0  0  0  0  0  0  0  0  0  0  0  0
    7.9381  -10.5537    0.0000 O   0  0  0  0  0  0  0  0  0  0  0  0
    6.5091   -9.1248    0.0000 O   0  0  0  0  0  0  0  0  0  0  0  0
    8.6526   -9.5373    0.0000 H   0  0  0  0  0  0  0  0  0  0  0  0
   10.7960   -5.8248    0.0000 H   0  0  0  0  0  0  0  0  0  0  0  0
   10.0815   -7.0623    0.0000 C   0  0  0  0  0  0  0  0  0  0  0  0
    9.3670   -8.2998    0.0000 H   0  0  0  0  0  0  0  0  0  0  0  0
    5.7947   -8.7123    0.0000 C   0  0  2  0  0  0  0  0  0  0  0  0
    5.7947   -7.8873    0.0000 O   0  0  0  0  0  0  0  0  0  0  0  0
    5.0802   -7.4748    0.0000 C   0  0  0  0  0  0  0  0  0  0  0  0
    4.3657   -7.8873    0.0000 C   0  0  1  0  0  0  0  0  0  0  0  0
    4.3657   -8.7123    0.0000 C   0  0  1  0  0  0  0  0  0  0  0  0
    5.0802   -9.1248    0.0000 C   0  0  1  0  0  0  0  0  0  0  0  0
    5.0802   -9.9498    0.0000 O   0  0  0  0  0  0  0  0  0  0  0  0
    3.6513   -9.1248    0.0000 O   0  0  0  0  0  0  0  0  0  0  0  0
    3.6513   -7.4748    0.0000 O   0  0  0  0  0  0  0  0  0  0  0  0
    2.9368   -8.7123    0.0000 C   0  0  2  0  0  0  0  0  0  0  0  0
    2.9368   -7.8873    0.0000 O   0  0  0  0  0  0  0  0  0  0  0  0
    2.2223   -7.4748    0.0000 C   0  0  1  0  0  0  0  0  0  0  0  0
    1.5078   -7.8873    0.0000 C   0  0  2  0  0  0  0  0  0  0  0  0
    1.5078   -8.7123    0.0000 C   0  0  1  0  0  0  0  0  0  0  0  0
    2.2223   -9.1248    0.0000 C   0  0  1  0  0  0  0  0  0  0  0  0
    2.2223   -6.6498    0.0000 C   0  0  0  0  0  0  0  0  0  0  0  0
    0.7934   -9.1248    0.0000 O   0  0  0  0  0  0  0  0  0  0  0  0
    2.2223   -9.9498    0.0000 O   0  0  0  0  0  0  0  0  0  0  0  0
    0.7934   -7.4748    0.0000 O   0  0  0  0  0  0  0  0  0  0  0  0
    1.5078   -6.2373    0.0000 O   0  0  0  0  0  0  0  0  0  0  0  0
  1  2  1  0  0  0  0
  2  3  1  0  0  0  0
  3  4  1  0  0  0  0
  4  5  1  0  0  0  0
  5  6  1  0  0  0  0
  6  7  1  0  0  0  0
  7  8  1  0  0  0  0
  8  9  1  0  0  0  0
  9 10  1  0  0  0  0
 10 11  1  0  0  0  0
 11 12  1  0  0  0  0
 12 13  1  0  0  0  0
 13 14  1  0  0  0  0
 14 15  1  0  0  0  0
 15 16  1  0  0  0  0
 16 17  1  0  0  0  0
 12 17  1  0  0  0  0
 17 18  1  0  0  0  0
  9 18  1  0  0  0  0
 18 19  1  0  0  0  0
 19 20  1  0  0  0  0
 20 21  2  0  0  0  0
  8 21  1  0  0  0  0
 21 22  1  0  0  0  0
  5 22  1  0  0  0  0
  1 22  1  0  0  0  0
 23 24  2  0  0  0  0
 23 25  1  0  0  0  0
  5 23  1  1  0  0  0
 17 26  1  1  0  0  0
 13 27  1  1  0  0  0
  8 28  1  6  0  0  0
  2 29  1  0  0  0  0
  2 30  1  0  0  0  0
 31 32  1  0  0  0  0
 13 31  1  6  0  0  0
 14 33  1  1  0  0  0
 12 34  1  6  0  0  0
 22 35  1  1  0  0  0
  9 36  1  1  0  0  0
 18 37  1  6  0  0  0
 38 33  1  1  0  0  0
 38 39  1  0  0  0  0
 39 40  1  0  0  0  0
 40 41  1  0  0  0  0
 41 42  1  0  0  0  0
 42 43  1  0  0  0  0
 43 38  1  0  0  0  0
 43 44  1  6  0  0  0
 42 45  1  1  0  0  0
 41 46  1  1  0  0  0
 47 45  1  1  0  0  0
 47 48  1  0  0  0  0
 48 49  1  0  0  0  0
 49 50  1  0  0  0  0
 50 51  1  0  0  0  0
 51 52  1  0  0  0  0
 52 47  1  0  0  0  0
 49 53  1  1  0  0  0
 51 54  1  1  0  0  0
 52 55  1  6  0  0  0
 50 56  1  6  0  0  0
 53 57  1  0  0  0  0
M  END
>  <cdx:fragmentId>
5

$$$$
