96254.cdx
  Mrv1902 05222410192D          

 36 39  0  0  0  0            999 V2000
    5.5393   -8.9375    0.0000 C   0  0  0  0  0  0  0  0  0  0  0  0
    5.5393   -9.7625    0.0000 C   0  0  0  0  0  0  0  0  0  0  0  0
    6.2538  -10.1750    0.0000 C   0  0  1  0  0  0  0  0  0  0  0  0
    6.9682   -9.7625    0.0000 C   0  0  1  0  0  0  0  0  0  0  0  0
    6.9682   -8.9375    0.0000 C   0  0  2  0  0  0  0  0  0  0  0  0
    6.2538   -8.5250    0.0000 C   0  0  0  0  0  0  0  0  0  0  0  0
    7.6827  -10.1750    0.0000 C   0  0  0  0  0  0  0  0  0  0  0  0
    8.3972   -9.7625    0.0000 C   0  0  0  0  0  0  0  0  0  0  0  0
    8.3972   -8.9375    0.0000 C   0  0  0  0  0  0  0  0  0  0  0  0
    7.6827   -8.5250    0.0000 C   0  0  0  0  0  0  0  0  0  0  0  0
    9.1117   -8.5250    0.0000 C   0  0  0  0  0  0  0  0  0  0  0  0
    9.1117   -7.7000    0.0000 C   0  0  0  0  0  0  0  0  0  0  0  0
    8.3972   -7.2875    0.0000 C   0  0  0  0  0  0  0  0  0  0  0  0
    7.6827   -7.7000    0.0000 C   0  0  0  0  0  0  0  0  0  0  0  0
    9.1117  -10.1750    0.0000 O   0  0  0  0  0  0  0  0  0  0  0  0
    9.8261   -7.2875    0.0000 C   0  0  0  0  0  0  0  0  0  0  0  0
   10.5406   -7.7000    0.0000 C   0  0  0  0  0  0  0  0  0  0  0  0
    9.8261   -6.4625    0.0000 C   0  0  0  0  0  0  0  0  0  0  0  0
    8.3972   -6.4625    0.0000 O   0  0  0  0  0  0  0  0  0  0  0  0
    6.9682   -7.2875    0.0000 O   0  0  0  0  0  0  0  0  0  0  0  0
    6.9682   -6.4625    0.0000 C   0  0  2  0  0  0  0  0  0  0  0  0
    7.6827   -6.0500    0.0000 O   0  0  0  0  0  0  0  0  0  0  0  0
    7.6827   -5.2250    0.0000 C   0  0  1  0  0  0  0  0  0  0  0  0
    6.9682   -4.8125    0.0000 C   0  0  2  0  0  0  0  0  0  0  0  0
    6.2538   -5.2250    0.0000 C   0  0  1  0  0  0  0  0  0  0  0  0
    6.2538   -6.0500    0.0000 C   0  0  1  0  0  0  0  0  0  0  0  0
    5.5393   -4.8125    0.0000 O   0  0  0  0  0  0  0  0  0  0  0  0
    8.3972   -4.8125    0.0000 C   0  0  0  0  0  0  0  0  0  0  0  0
    5.5393   -6.4625    0.0000 O   0  0  0  0  0  0  0  0  0  0  0  0
    6.9682   -3.9875    0.0000 O   0  0  0  0  0  0  0  0  0  0  0  0
    8.3972   -3.9875    0.0000 O   0  0  0  0  0  0  0  0  0  0  0  0
    5.8413  -10.8895    0.0000 C   0  0  0  0  0  0  0  0  0  0  0  0
    6.9682   -8.1125    0.0000 C   0  0  0  0  0  0  0  0  0  0  0  0
    6.6663  -10.8895    0.0000 C   0  0  0  0  0  0  0  0  0  0  0  0
    6.9682  -10.5875    0.0000 H   0  0  0  0  0  0  0  0  0  0  0  0
    6.2538   -3.5750    0.0000 C   0  0  0  0  0  0  0  0  0  0  0  0
  1  2  1  0  0  0  0
  2  3  1  0  0  0  0
  3  4  1  0  0  0  0
  4  5  1  0  0  0  0
  5  6  1  0  0  0  0
  6  1  1  0  0  0  0
  4  7  1  0  0  0  0
  7  8  1  0  0  0  0
  8  9  1  0  0  0  0
  9 10  2  0  0  0  0
 10  5  1  0  0  0  0
  9 11  1  0  0  0  0
 11 12  2  0  0  0  0
 12 13  1  0  0  0  0
 13 14  2  0  0  0  0
 14 10  1  0  0  0  0
  8 15  2  0  0  0  0
 12 16  1  0  0  0  0
 16 17  1  0  0  0  0
 16 18  1  0  0  0  0
 13 19  1  0  0  0  0
 14 20  1  0  0  0  0
 21 20  1  1  0  0  0
 21 22  1  0  0  0  0
 22 23  1  0  0  0  0
 23 24  1  0  0  0  0
 24 25  1  0  0  0  0
 25 26  1  0  0  0  0
 26 21  1  0  0  0  0
 25 27  1  1  0  0  0
 23 28  1  1  0  0  0
 26 29  1  6  0  0  0
 24 30  1  6  0  0  0
 28 31  1  0  0  0  0
  3 32  1  1  0  0  0
  5 33  1  1  0  0  0
  3 34  1  6  0  0  0
  4 35  1  6  0  0  0
 30 36  1  0  0  0  0
M  END
>  <cdx:fragmentId>
5

$$$$
