96256.cdx
  Mrv1902 05222410182D          

 10  9  0  0  0  0            999 V2000
    9.6963   -8.6699    0.0000 C   0  0  0  0  0  0  0  0  0  0  0  0
    8.9818   -9.0824    0.0000 C   0  0  0  0  0  0  0  0  0  0  0  0
    8.2674   -8.6699    0.0000 C   0  0  1  0  0  0  0  0  0  0  0  0
    7.5529   -9.0824    0.0000 C   0  0  0  0  0  0  0  0  0  0  0  0
    6.8384   -8.6699    0.0000 C   0  0  0  0  0  0  0  0  0  0  0  0
    6.1239   -9.0824    0.0000 C   0  0  0  0  0  0  0  0  0  0  0  0
    5.4095   -8.6699    0.0000 C   0  0  1  0  0  0  0  0  0  0  0  0
    4.6950   -9.0824    0.0000 C   0  0  0  0  0  0  0  0  0  0  0  0
    8.2674   -7.8449    0.0000 O   0  0  0  0  0  0  0  0  0  0  0  0
    5.4095   -7.8449    0.0000 O   0  0  0  0  0  0  0  0  0  0  0  0
  1  2  2  0  0  0  0
  2  3  1  0  0  0  0
  3  4  1  0  0  0  0
  4  5  1  0  0  0  0
  5  6  1  0  0  0  0
  6  7  1  0  0  0  0
  7  8  1  0  0  0  0
  3  9  1  1  0  0  0
  7 10  1  1  0  0  0
M  END
>  <cdx:fragmentId>
5

$$$$
