96252.cdx
  Mrv1902 05222410202D          

 29 32  0  0  0  0            999 V2000
    7.2111   -7.9666    0.0000 C   0  0  0  0  0  0  0  0  0  0  0  0
    7.9957   -7.7117    0.0000 C   0  0  1  0  0  0  0  0  0  0  0  0
    8.4806   -8.3791    0.0000 O   0  0  0  0  0  0  0  0  0  0  0  0
    7.9957   -9.0466    0.0000 C   0  0  0  0  0  0  0  0  0  0  0  0
    7.2111   -8.7916    0.0000 C   0  0  0  0  0  0  0  0  0  0  0  0
    6.4264   -9.0466    0.0000 C   0  0  1  0  0  0  0  0  0  0  0  0
    5.9415   -8.3791    0.0000 O   0  0  0  0  0  0  0  0  0  0  0  0
    6.4264   -7.7117    0.0000 C   0  0  0  0  0  0  0  0  0  0  0  0
    6.1715   -9.8312    0.0000 C   0  0  0  0  0  0  0  0  0  0  0  0
    5.3645  -10.0027    0.0000 C   0  0  0  0  0  0  0  0  0  0  0  0
    5.1096  -10.7873    0.0000 C   0  0  0  0  0  0  0  0  0  0  0  0
    5.6616  -11.4004    0.0000 C   0  0  0  0  0  0  0  0  0  0  0  0
    6.4686  -11.2289    0.0000 C   0  0  0  0  0  0  0  0  0  0  0  0
    6.7235  -10.4443    0.0000 C   0  0  0  0  0  0  0  0  0  0  0  0
    7.0206  -11.8420    0.0000 O   0  0  0  0  0  0  0  0  0  0  0  0
    7.8276  -11.6705    0.0000 C   0  0  0  0  0  0  0  0  0  0  0  0
    5.4067  -12.1850    0.0000 O   0  0  0  0  0  0  0  0  0  0  0  0
    4.5997  -12.3566    0.0000 C   0  0  0  0  0  0  0  0  0  0  0  0
    4.3026  -10.9589    0.0000 O   0  0  0  0  0  0  0  0  0  0  0  0
    3.7193  -10.3755    0.0000 C   0  0  0  0  0  0  0  0  0  0  0  0
    8.2506   -6.9271    0.0000 C   0  0  0  0  0  0  0  0  0  0  0  0
    9.0576   -6.7555    0.0000 C   0  0  0  0  0  0  0  0  0  0  0  0
    9.3125   -5.9709    0.0000 C   0  0  0  0  0  0  0  0  0  0  0  0
    8.7605   -5.3578    0.0000 C   0  0  0  0  0  0  0  0  0  0  0  0
    7.9535   -5.5293    0.0000 C   0  0  0  0  0  0  0  0  0  0  0  0
    7.6986   -6.3140    0.0000 C   0  0  0  0  0  0  0  0  0  0  0  0
   10.1195   -5.7994    0.0000 O   0  0  0  0  0  0  0  0  0  0  0  0
   10.6715   -6.4125    0.0000 C   0  0  0  0  0  0  0  0  0  0  0  0
    9.0154   -4.5732    0.0000 O   0  0  0  0  0  0  0  0  0  0  0  0
  1  2  1  0  0  0  0
  2  3  1  0  0  0  0
  3  4  1  0  0  0  0
  4  5  1  0  0  0  0
  5  6  1  0  0  0  0
  6  7  1  0  0  0  0
  7  8  1  0  0  0  0
  1  8  1  0  0  0  0
  1  5  1  0  0  0  0
  9 10  1  0  0  0  0
 10 11  2  0  0  0  0
 11 12  1  0  0  0  0
 12 13  2  0  0  0  0
 13 14  1  0  0  0  0
  9 14  2  0  0  0  0
 15 16  1  0  0  0  0
 13 15  1  0  0  0  0
 17 18  1  0  0  0  0
 12 17  1  0  0  0  0
 19 20  1  0  0  0  0
 11 19  1  0  0  0  0
  6  9  1  6  0  0  0
 21 22  1  0  0  0  0
 22 23  2  0  0  0  0
 23 24  1  0  0  0  0
 24 25  2  0  0  0  0
 25 26  1  0  0  0  0
 21 26  2  0  0  0  0
 27 28  1  0  0  0  0
 23 27  1  0  0  0  0
 24 29  1  0  0  0  0
  2 21  1  6  0  0  0
M  END
>  <cdx:fragmentId>
21

$$$$
