96267.cdx
  Mrv1902 05222410282D          

 38 41  0  0  0  0            999 V2000
    8.4095   -7.4636    0.0000 C   0  0  2  0  0  0  0  0  0  0  0  0
    8.4172   -6.6386    0.0000 C   0  0  2  0  0  0  0  0  0  0  0  0
    7.7067   -6.2194    0.0000 C   0  0  0  0  0  0  0  0  0  0  0  0
    6.9884   -6.6252    0.0000 C   0  0  0  0  0  0  0  0  0  0  0  0
    6.9806   -7.4502    0.0000 C   0  0  1  0  0  0  0  0  0  0  0  0
    7.6912   -7.8694    0.0000 C   0  0  0  0  0  0  0  0  0  0  0  0
    6.2623   -7.8560    0.0000 C   0  0  2  0  0  0  0  0  0  0  0  0
    6.2546   -8.6809    0.0000 C   0  0  2  0  0  0  0  0  0  0  0  0
    6.9652   -9.1001    0.0000 C   0  0  0  0  0  0  0  0  0  0  0  0
    7.6835   -8.6943    0.0000 C   0  0  0  0  0  0  0  0  0  0  0  0
    5.5518   -7.4368    0.0000 C   0  0  0  0  0  0  0  0  0  0  0  0
    4.8335   -7.8426    0.0000 C   0  0  1  0  0  0  0  0  0  0  0  0
    4.8257   -8.6676    0.0000 C   0  0  1  0  0  0  0  0  0  0  0  0
    5.5363   -9.0867    0.0000 C   0  0  0  0  0  0  0  0  0  0  0  0
    9.1917   -7.7258    0.0000 C   0  0  0  0  0  0  0  0  0  0  0  0
    9.6829   -7.0630    0.0000 C   0  0  0  0  0  0  0  0  0  0  0  0
    9.2042   -6.3910    0.0000 C   0  0  2  0  0  0  0  0  0  0  0  0
    6.9575   -9.9251    0.0000 O   0  0  0  0  0  0  0  0  0  0  0  0
    4.1074   -9.0733    0.0000 O   0  0  0  0  0  0  0  0  0  0  0  0
    4.1229   -7.4234    0.0000 O   0  0  0  0  0  0  0  0  0  0  0  0
    6.2701   -7.0310    0.0000 C   0  0  0  0  0  0  0  0  0  0  0  0
    8.4095   -8.2886    0.0000 O   0  0  0  0  0  0  0  0  0  0  0  0
    8.4172   -5.8136    0.0000 C   0  0  0  0  0  0  0  0  0  0  0  0
    6.9729   -8.2751    0.0000 H   0  0  0  0  0  0  0  0  0  0  0  0
    9.4665   -5.6088    0.0000 C   0  0  2  0  0  0  0  0  0  0  0  0
    9.9912   -6.1434    0.0000 H   0  0  0  0  0  0  0  0  0  0  0  0
    9.2530   -4.8119    0.0000 C   0  0  0  0  0  0  0  0  0  0  0  0
   10.2750   -5.4449    0.0000 C   0  0  1  0  0  0  0  0  0  0  0  0
   10.5373   -4.6627    0.0000 C   0  0  0  0  0  0  0  0  0  0  0  0
   11.3459   -4.4987    0.0000 C   0  0  0  0  0  0  0  0  0  0  0  0
   11.6081   -3.7165    0.0000 C   0  0  1  0  0  0  0  0  0  0  0  0
    8.6696   -5.3953    0.0000 O   0  0  0  0  0  0  0  0  0  0  0  0
    8.4561   -4.5984    0.0000 O   0  0  0  0  0  0  0  0  0  0  0  0
   10.8213   -6.0631    0.0000 O   0  0  0  0  0  0  0  0  0  0  0  0
    6.2469   -9.5059    0.0000 H   0  0  0  0  0  0  0  0  0  0  0  0
   12.4167   -3.5525    0.0000 C   0  0  0  0  0  0  0  0  0  0  0  0
   11.0619   -3.0983    0.0000 C   0  0  0  0  0  0  0  0  0  0  0  0
   12.6790   -2.7703    0.0000 O   0  0  0  0  0  0  0  0  0  0  0  0
  1  2  1  0  0  0  0
  2  3  1  0  0  0  0
  3  4  1  0  0  0  0
  4  5  1  0  0  0  0
  5  6  1  0  0  0  0
  6  1  1  0  0  0  0
  5  7  1  0  0  0  0
  7  8  1  0  0  0  0
  8  9  1  0  0  0  0
  9 10  1  0  0  0  0
 10  6  2  0  0  0  0
  7 11  1  0  0  0  0
 11 12  1  0  0  0  0
 12 13  1  0  0  0  0
 13 14  1  0  0  0  0
 14  8  1  0  0  0  0
  1 15  1  0  0  0  0
 15 16  1  0  0  0  0
 16 17  1  0  0  0  0
 17  2  1  0  0  0  0
  9 18  2  0  0  0  0
 13 19  1  1  0  0  0
 12 20  1  1  0  0  0
  7 21  1  1  0  0  0
  1 22  1  6  0  0  0
  2 23  1  1  0  0  0
  5 24  1  6  0  0  0
 17 25  1  0  0  0  0
 17 26  1  6  0  0  0
 25 27  1  6  0  0  0
 25 28  1  0  0  0  0
 28 29  1  0  0  0  0
 29 30  1  0  0  0  0
 30 31  1  0  0  0  0
 25 32  1  1  0  0  0
 27 33  1  0  0  0  0
 28 34  1  1  0  0  0
  8 35  1  1  0  0  0
 31 36  1  0  0  0  0
 31 37  1  6  0  0  0
 36 38  1  0  0  0  0
M  END
>  <cdx:fragmentId>
5

$$$$
