96260.cdx
  Mrv1902 05222410272D          

 30 32  0  0  0  0            999 V2000
    6.9006   -5.0600    0.0000 C   0  0  0  0  0  0  0  0  0  0  0  0
    6.9006   -5.8850    0.0000 C   0  0  0  0  0  0  0  0  0  0  0  0
    7.6150   -6.2975    0.0000 C   0  0  1  0  0  0  0  0  0  0  0  0
    8.3295   -5.8850    0.0000 C   0  0  0  0  0  0  0  0  0  0  0  0
    8.3295   -5.0600    0.0000 C   0  0  0  0  0  0  0  0  0  0  0  0
    7.6150   -4.6475    0.0000 C   0  0  1  0  0  0  0  0  0  0  0  0
    6.1159   -4.8051    0.0000 C   0  0  0  0  0  0  0  0  0  0  0  0
    5.6310   -5.4725    0.0000 C   0  0  0  0  0  0  0  0  0  0  0  0
    6.1159   -6.1399    0.0000 C   0  0  0  0  0  0  0  0  0  0  0  0
    4.8060   -5.4725    0.0000 C   0  0  0  0  0  0  0  0  0  0  0  0
    4.3935   -6.1870    0.0000 C   0  0  0  0  0  0  0  0  0  0  0  0
    4.3935   -4.7580    0.0000 O   0  0  0  0  0  0  0  0  0  0  0  0
    5.8610   -6.9246    0.0000 C   0  0  0  0  0  0  0  0  0  0  0  0
    6.4130   -7.5377    0.0000 C   0  0  0  0  0  0  0  0  0  0  0  0
    6.1581   -8.3223    0.0000 C   0  0  0  0  0  0  0  0  0  0  0  0
    6.7101   -8.9354    0.0000 C   0  0  0  0  0  0  0  0  0  0  0  0
    6.4552   -9.7200    0.0000 C   0  0  0  0  0  0  0  0  0  0  0  0
    7.0072  -10.3331    0.0000 C   0  0  0  0  0  0  0  0  0  0  0  0
    7.8142  -10.1616    0.0000 C   0  0  0  0  0  0  0  0  0  0  0  0
    8.0691   -9.3769    0.0000 C   0  0  0  0  0  0  0  0  0  0  0  0
    7.5171   -8.7638    0.0000 C   0  0  0  0  0  0  0  0  0  0  0  0
    8.3662  -10.7747    0.0000 O   0  0  0  0  0  0  0  0  0  0  0  0
    8.8761   -9.2054    0.0000 O   0  0  0  0  0  0  0  0  0  0  0  0
    9.4281   -9.8185    0.0000 C   0  0  0  0  0  0  0  0  0  0  0  0
    7.6150   -3.8225    0.0000 C   0  0  0  0  0  0  0  0  0  0  0  0
    7.6150   -7.1225    0.0000 C   0  0  0  0  0  0  0  0  0  0  0  0
    8.3295   -7.5350    0.0000 C   0  0  0  0  0  0  0  0  0  0  0  0
    6.9006   -7.5350    0.0000 C   0  0  0  0  0  0  0  0  0  0  0  0
    9.0440   -7.1225    0.0000 O   0  0  0  0  0  0  0  0  0  0  0  0
    8.3295   -8.3600    0.0000 O   0  0  0  0  0  0  0  0  0  0  0  0
  1  2  2  0  0  0  0
  2  3  1  0  0  0  0
  3  4  1  0  0  0  0
  4  5  1  0  0  0  0
  5  6  1  0  0  0  0
  6  1  1  0  0  0  0
  1  7  1  0  0  0  0
  7  8  2  0  0  0  0
  8  9  1  0  0  0  0
  9  2  1  0  0  0  0
  8 10  1  0  0  0  0
 10 11  1  0  0  0  0
 10 12  2  0  0  0  0
  9 13  2  0  0  0  0
 13 14  1  0  0  0  0
 14 15  2  0  0  0  0
 15 16  1  0  0  0  0
 16 17  2  0  0  0  0
 17 18  1  0  0  0  0
 18 19  2  0  0  0  0
 19 20  1  0  0  0  0
 20 21  2  0  0  0  0
 21 16  1  0  0  0  0
 19 22  1  0  0  0  0
 20 23  1  0  0  0  0
 23 24  1  0  0  0  0
  6 25  1  6  0  0  0
  3 26  1  1  0  0  0
 26 27  1  0  0  0  0
 26 28  2  0  0  0  0
 27 29  1  0  0  0  0
 27 30  2  0  0  0  0
M  END
>  <cdx:fragmentId>
5

$$$$
