9626.cdx
  Mrv1902 05222410202D          

 26 28  0  0  0  0            999 V2000
    4.7883   -7.5900    0.0000 C   0  0  0  0  0  0  0  0  0  0  0  0
    4.7883   -8.4150    0.0000 C   0  0  0  0  0  0  0  0  0  0  0  0
    5.5027   -8.8275    0.0000 C   0  0  0  0  0  0  0  0  0  0  0  0
    6.2172   -8.4150    0.0000 C   0  0  0  0  0  0  0  0  0  0  0  0
    6.2172   -7.5900    0.0000 C   0  0  0  0  0  0  0  0  0  0  0  0
    5.5027   -7.1775    0.0000 C   0  0  0  0  0  0  0  0  0  0  0  0
    6.9317   -8.8275    0.0000 O   0  0  0  0  0  0  0  0  0  0  0  0
    7.6462   -8.4150    0.0000 C   0  0  0  0  0  0  0  0  0  0  0  0
    7.6462   -7.5900    0.0000 C   0  0  0  0  0  0  0  0  0  0  0  0
    6.9317   -7.1775    0.0000 C   0  0  0  0  0  0  0  0  0  0  0  0
    8.3606   -7.1775    0.0000 C   0  0  0  0  0  0  0  0  0  0  0  0
    8.3606   -6.3525    0.0000 C   0  0  0  0  0  0  0  0  0  0  0  0
    9.0751   -7.5900    0.0000 C   0  0  0  0  0  0  0  0  0  0  0  0
    9.7896   -7.1775    0.0000 C   0  0  0  0  0  0  0  0  0  0  0  0
    9.7896   -6.3525    0.0000 C   0  0  0  0  0  0  0  0  0  0  0  0
    9.0751   -5.9400    0.0000 C   0  0  0  0  0  0  0  0  0  0  0  0
    9.0751   -8.4150    0.0000 O   0  0  0  0  0  0  0  0  0  0  0  0
    4.0738   -7.1775    0.0000 C   0  0  0  0  0  0  0  0  0  0  0  0
    3.3593   -7.5900    0.0000 C   0  0  0  0  0  0  0  0  0  0  0  0
    4.0738   -8.8275    0.0000 O   0  0  0  0  0  0  0  0  0  0  0  0
    2.6449   -7.1775    0.0000 C   0  0  0  0  0  0  0  0  0  0  0  0
    1.9304   -7.5900    0.0000 C   0  0  0  0  0  0  0  0  0  0  0  0
    2.6449   -6.3525    0.0000 C   0  0  0  0  0  0  0  0  0  0  0  0
    5.5027   -6.3525    0.0000 O   0  0  0  0  0  0  0  0  0  0  0  0
    4.7883   -5.9400    0.0000 C   0  0  0  0  0  0  0  0  0  0  0  0
   10.5040   -5.9400    0.0000 O   0  0  0  0  0  0  0  0  0  0  0  0
  1  2  1  0  0  0  0
  2  3  2  0  0  0  0
  3  4  1  0  0  0  0
  4  5  2  0  0  0  0
  5  6  1  0  0  0  0
  6  1  2  0  0  0  0
  4  7  1  0  0  0  0
  7  8  1  0  0  0  0
  8  9  1  0  0  0  0
  9 10  2  0  0  0  0
 10  5  1  0  0  0  0
  9 11  1  0  0  0  0
 11 12  1  0  0  0  0
 11 13  2  0  0  0  0
 13 14  1  0  0  0  0
 14 15  2  0  0  0  0
 15 16  1  0  0  0  0
 16 12  2  0  0  0  0
 17 13  1  0  0  0  0
  1 18  1  0  0  0  0
 18 19  1  0  0  0  0
 20  2  1  0  0  0  0
 19 21  2  0  0  0  0
 21 22  1  0  0  0  0
 21 23  1  0  0  0  0
  6 24  1  0  0  0  0
 24 25  1  0  0  0  0
 15 26  1  0  0  0  0
M  END
>  <cdx:fragmentId>
5

$$$$
