96268.cdx
  Mrv1902 05222410192D          

 37 40  0  0  0  0            999 V2000
    4.6475   -9.4598    0.0000 C   0  0  0  0  0  0  0  0  0  0  0  0
    3.9330   -9.8723    0.0000 C   0  0  1  0  0  0  0  0  0  0  0  0
    3.9330  -10.6973    0.0000 C   0  0  1  0  0  0  0  0  0  0  0  0
    4.6475  -11.1098    0.0000 C   0  0  0  0  0  0  0  0  0  0  0  0
    5.3620  -10.6973    0.0000 C   0  0  1  0  0  0  0  0  0  0  0  0
    6.0764  -11.1098    0.0000 C   0  0  0  0  0  0  0  0  0  0  0  0
    6.7909  -10.6973    0.0000 C   0  0  0  0  0  0  0  0  0  0  0  0
    6.7909   -9.8723    0.0000 C   0  0  0  0  0  0  0  0  0  0  0  0
    7.5054   -9.4598    0.0000 C   0  0  2  0  0  0  0  0  0  0  0  0
    8.2900   -9.7148    0.0000 C   0  0  0  0  0  0  0  0  0  0  0  0
    8.7749   -9.0473    0.0000 C   0  0  0  0  0  0  0  0  0  0  0  0
    8.2900   -8.3799    0.0000 C   0  0  1  0  0  0  0  0  0  0  0  0
    7.5054   -8.6348    0.0000 C   0  0  1  0  0  0  0  0  0  0  0  0
    6.7909   -8.2223    0.0000 C   0  0  0  0  0  0  0  0  0  0  0  0
    6.0764   -8.6348    0.0000 C   0  0  0  0  0  0  0  0  0  0  0  0
    6.0764   -9.4598    0.0000 C   0  0  2  0  0  0  0  0  0  0  0  0
    5.3620   -9.8723    0.0000 C   0  0  1  0  0  0  0  0  0  0  0  0
    6.0764  -11.9348    0.0000 O   0  0  0  0  0  0  0  0  0  0  0  0
    8.5449   -7.5953    0.0000 C   0  0  1  0  0  0  0  0  0  0  0  0
    7.5054   -7.8098    0.0000 C   0  0  0  0  0  0  0  0  0  0  0  0
    5.3620   -9.0473    0.0000 C   0  0  0  0  0  0  0  0  0  0  0  0
    7.5054  -10.2848    0.0000 O   0  0  0  0  0  0  0  0  0  0  0  0
    3.2186  -11.1098    0.0000 O   0  0  0  0  0  0  0  0  0  0  0  0
    3.2186   -9.4598    0.0000 O   0  0  0  0  0  0  0  0  0  0  0  0
    5.3620  -11.5223    0.0000 H   0  0  0  0  0  0  0  0  0  0  0  0
    6.0764  -10.2848    0.0000 H   0  0  0  0  0  0  0  0  0  0  0  0
    7.8305   -7.1828    0.0000 C   0  0  0  0  0  0  0  0  0  0  0  0
    9.3418   -7.8088    0.0000 O   0  0  0  0  0  0  0  0  0  0  0  0
    8.8607   -6.8331    0.0000 C   0  0  2  0  0  0  0  0  0  0  0  0
    8.3584   -6.1786    0.0000 O   0  0  0  0  0  0  0  0  0  0  0  0
    9.6786   -6.7254    0.0000 C   0  0  0  0  0  0  0  0  0  0  0  0
   10.0911   -6.0109    0.0000 C   0  0  0  0  0  0  0  0  0  0  0  0
   10.9161   -6.0109    0.0000 C   0  0  0  0  0  0  0  0  0  0  0  0
   11.7411   -6.0109    0.0000 O   0  0  0  0  0  0  0  0  0  0  0  0
   10.9161   -5.1859    0.0000 C   0  0  0  0  0  0  0  0  0  0  0  0
   10.9161   -6.8359    0.0000 C   0  0  0  0  0  0  0  0  0  0  0  0
    9.0869   -8.1664    0.0000 H   0  0  0  0  0  0  0  0  0  0  0  0
  1  2  1  0  0  0  0
  2  3  1  0  0  0  0
  3  4  1  0  0  0  0
  4  5  1  0  0  0  0
  5  6  1  0  0  0  0
  6  7  1  0  0  0  0
  7  8  2  0  0  0  0
  8  9  1  0  0  0  0
  9 10  1  0  0  0  0
 10 11  1  0  0  0  0
 12 11  1  0  0  0  0
 12 13  1  0  0  0  0
  9 13  1  0  0  0  0
 13 14  1  0  0  0  0
 14 15  1  0  0  0  0
 15 16  1  0  0  0  0
  8 16  1  0  0  0  0
 16 17  1  0  0  0  0
  5 17  1  0  0  0  0
  1 17  1  0  0  0  0
  6 18  2  0  0  0  0
 12 19  1  0  0  0  0
 13 20  1  1  0  0  0
 17 21  1  1  0  0  0
  9 22  1  6  0  0  0
  3 23  1  1  0  0  0
  2 24  1  1  0  0  0
  5 25  1  1  0  0  0
 16 26  1  6  0  0  0
 19 27  1  0  0  0  0
 19 28  1  1  0  0  0
 19 29  1  0  0  0  0
 29 30  1  6  0  0  0
 29 31  1  0  0  0  0
 31 32  1  0  0  0  0
 32 33  1  0  0  0  0
 33 34  1  0  0  0  0
 33 35  1  0  0  0  0
 33 36  1  0  0  0  0
 12 37  1  6  0  0  0
M  END
>  <cdx:fragmentId>
5

$$$$
