962680.cdx
  Mrv1902 05222410192D          

 48 52  0  0  0  0            999 V2000
    5.7200   -9.3773    0.0000 C   0  0  0  0  0  0  0  0  0  0  0  0
    5.0055   -9.7898    0.0000 C   0  0  1  0  0  0  0  0  0  0  0  0
    5.0055  -10.6148    0.0000 C   0  0  1  0  0  0  0  0  0  0  0  0
    5.7200  -11.0273    0.0000 C   0  0  0  0  0  0  0  0  0  0  0  0
    6.4345  -10.6148    0.0000 C   0  0  1  0  0  0  0  0  0  0  0  0
    7.1489  -11.0273    0.0000 C   0  0  0  0  0  0  0  0  0  0  0  0
    7.8634  -10.6148    0.0000 C   0  0  0  0  0  0  0  0  0  0  0  0
    7.8634   -9.7898    0.0000 C   0  0  0  0  0  0  0  0  0  0  0  0
    8.5779   -9.3773    0.0000 C   0  0  2  0  0  0  0  0  0  0  0  0
    9.3625   -9.6323    0.0000 C   0  0  0  0  0  0  0  0  0  0  0  0
    9.8474   -8.9648    0.0000 C   0  0  0  0  0  0  0  0  0  0  0  0
    9.3625   -8.2974    0.0000 C   0  0  1  0  0  0  0  0  0  0  0  0
    8.5779   -8.5523    0.0000 C   0  0  1  0  0  0  0  0  0  0  0  0
    7.8634   -8.1398    0.0000 C   0  0  0  0  0  0  0  0  0  0  0  0
    7.1489   -8.5523    0.0000 C   0  0  0  0  0  0  0  0  0  0  0  0
    7.1489   -9.3773    0.0000 C   0  0  2  0  0  0  0  0  0  0  0  0
    6.4345   -9.7898    0.0000 C   0  0  1  0  0  0  0  0  0  0  0  0
    7.1489  -11.8523    0.0000 O   0  0  0  0  0  0  0  0  0  0  0  0
    9.6174   -7.5128    0.0000 C   0  0  1  0  0  0  0  0  0  0  0  0
    8.5779   -7.7273    0.0000 C   0  0  0  0  0  0  0  0  0  0  0  0
    6.4345   -8.9648    0.0000 C   0  0  0  0  0  0  0  0  0  0  0  0
    8.5779  -10.2023    0.0000 O   0  0  0  0  0  0  0  0  0  0  0  0
    4.2911  -11.0273    0.0000 O   0  0  0  0  0  0  0  0  0  0  0  0
    4.2911   -9.3773    0.0000 O   0  0  0  0  0  0  0  0  0  0  0  0
    6.4345  -11.4398    0.0000 H   0  0  0  0  0  0  0  0  0  0  0  0
    7.1489  -10.2023    0.0000 H   0  0  0  0  0  0  0  0  0  0  0  0
    8.9030   -7.1003    0.0000 C   0  0  0  0  0  0  0  0  0  0  0  0
   10.4143   -7.7263    0.0000 O   0  0  0  0  0  0  0  0  0  0  0  0
    9.9332   -6.7506    0.0000 C   0  0  2  0  0  0  0  0  0  0  0  0
    9.4309   -6.0961    0.0000 O   0  0  0  0  0  0  0  0  0  0  0  0
   10.7511   -6.6429    0.0000 C   0  0  0  0  0  0  0  0  0  0  0  0
   11.1636   -5.9284    0.0000 C   0  0  0  0  0  0  0  0  0  0  0  0
   11.9886   -5.9284    0.0000 C   0  0  0  0  0  0  0  0  0  0  0  0
   12.8136   -5.9284    0.0000 O   0  0  0  0  0  0  0  0  0  0  0  0
   11.9886   -5.1034    0.0000 C   0  0  0  0  0  0  0  0  0  0  0  0
   11.9886   -6.7534    0.0000 C   0  0  0  0  0  0  0  0  0  0  0  0
   10.1594   -8.0839    0.0000 H   0  0  0  0  0  0  0  0  0  0  0  0
    3.5654  -10.6348    0.0000 C   0  0  2  0  0  0  0  0  0  0  0  0
    3.5426   -9.8101    0.0000 O   0  0  0  0  0  0  0  0  0  0  0  0
    2.8169   -9.4176    0.0000 C   0  0  1  0  0  0  0  0  0  0  0  0
    2.1142   -9.8497    0.0000 C   0  0  2  0  0  0  0  0  0  0  0  0
    2.1370  -10.6744    0.0000 C   0  0  1  0  0  0  0  0  0  0  0  0
    2.8627  -11.0670    0.0000 C   0  0  1  0  0  0  0  0  0  0  0  0
    2.7941   -8.5929    0.0000 C   0  0  0  0  0  0  0  0  0  0  0  0
    1.4343  -11.1066    0.0000 O   0  0  0  0  0  0  0  0  0  0  0  0
    1.3885   -9.4572    0.0000 O   0  0  0  0  0  0  0  0  0  0  0  0
    2.8855  -11.8916    0.0000 O   0  0  0  0  0  0  0  0  0  0  0  0
    2.0684   -8.2004    0.0000 O   0  0  0  0  0  0  0  0  0  0  0  0
  1  2  1  0  0  0  0
  2  3  1  0  0  0  0
  3  4  1  0  0  0  0
  4  5  1  0  0  0  0
  5  6  1  0  0  0  0
  6  7  1  0  0  0  0
  7  8  2  0  0  0  0
  8  9  1  0  0  0  0
  9 10  1  0  0  0  0
 10 11  1  0  0  0  0
 12 11  1  0  0  0  0
 12 13  1  0  0  0  0
  9 13  1  0  0  0  0
 13 14  1  0  0  0  0
 14 15  1  0  0  0  0
 15 16  1  0  0  0  0
  8 16  1  0  0  0  0
 16 17  1  0  0  0  0
  5 17  1  0  0  0  0
  1 17  1  0  0  0  0
  6 18  2  0  0  0  0
 12 19  1  0  0  0  0
 13 20  1  1  0  0  0
 17 21  1  1  0  0  0
  9 22  1  6  0  0  0
  3 23  1  1  0  0  0
  2 24  1  1  0  0  0
  5 25  1  1  0  0  0
 16 26  1  6  0  0  0
 19 27  1  0  0  0  0
 19 28  1  1  0  0  0
 19 29  1  0  0  0  0
 29 30  1  6  0  0  0
 29 31  1  0  0  0  0
 31 32  1  0  0  0  0
 32 33  1  0  0  0  0
 33 34  1  0  0  0  0
 33 35  1  0  0  0  0
 33 36  1  0  0  0  0
 12 37  1  6  0  0  0
 38 23  1  1  0  0  0
 38 39  1  0  0  0  0
 39 40  1  0  0  0  0
 40 41  1  0  0  0  0
 41 42  1  0  0  0  0
 42 43  1  0  0  0  0
 43 38  1  0  0  0  0
 40 44  1  1  0  0  0
 42 45  1  1  0  0  0
 41 46  1  6  0  0  0
 43 47  1  6  0  0  0
 44 48  1  0  0  0  0
M  END
>  <cdx:fragmentId>
5

$$$$
