96264.cdx
  Mrv1902 05222410272D          

 35 38  0  0  0  0            999 V2000
    4.6495   -9.7873    0.0000 C   0  0  1  0  0  0  0  0  0  0  0  0
    4.6349   -8.9624    0.0000 C   0  0  2  0  0  0  0  0  0  0  0  0
    5.3419   -8.5373    0.0000 C   0  0  0  0  0  0  0  0  0  0  0  0
    5.3712  -10.1870    0.0000 C   0  0  0  0  0  0  0  0  0  0  0  0
    6.0782   -9.7619    0.0000 C   0  0  0  0  0  0  0  0  0  0  0  0
    6.7999  -10.1617    0.0000 C   0  0  0  0  0  0  0  0  0  0  0  0
    7.5069   -9.7366    0.0000 C   0  0  0  0  0  0  0  0  0  0  0  0
    7.4923   -8.9117    0.0000 C   0  0  0  0  0  0  0  0  0  0  0  0
    8.1994   -8.4866    0.0000 C   0  0  2  0  0  0  0  0  0  0  0  0
    8.9884   -8.7276    0.0000 C   0  0  0  0  0  0  0  0  0  0  0  0
    9.4614   -8.0517    0.0000 C   0  0  0  0  0  0  0  0  0  0  0  0
    8.9647   -7.3929    0.0000 C   0  0  1  0  0  0  0  0  0  0  0  0
    8.1847   -7.6617    0.0000 C   0  0  0  0  0  0  0  0  0  0  0  0
    7.4631   -7.2620    0.0000 C   0  0  0  0  0  0  0  0  0  0  0  0
    6.7560   -7.6871    0.0000 C   0  0  0  0  0  0  0  0  0  0  0  0
    6.7706   -8.5120    0.0000 C   0  0  2  0  0  0  0  0  0  0  0  0
    6.0636   -8.9371    0.0000 C   0  0  1  0  0  0  0  0  0  0  0  0
    6.0490   -8.1122    0.0000 C   0  0  0  0  0  0  0  0  0  0  0  0
    6.8145  -10.9866    0.0000 O   0  0  0  0  0  0  0  0  0  0  0  0
    3.9425  -10.2124    0.0000 O   0  0  0  0  0  0  0  0  0  0  0  0
    3.9132   -8.5626    0.0000 O   0  0  0  0  0  0  0  0  0  0  0  0
    8.1994   -9.3116    0.0000 H   0  0  0  0  0  0  0  0  0  0  0  0
    9.2057   -6.6039    0.0000 C   0  0  2  0  0  0  0  0  0  0  0  0
    8.4088   -6.3904    0.0000 C   0  0  0  0  0  0  0  0  0  0  0  0
   10.0095   -6.4181    0.0000 C   0  0  1  0  0  0  0  0  0  0  0  0
   10.2505   -5.6291    0.0000 C   0  0  0  0  0  0  0  0  0  0  0  0
   11.0543   -5.4433    0.0000 C   0  0  0  0  0  0  0  0  0  0  0  0
   11.2953   -4.6542    0.0000 C   0  0  0  0  0  0  0  0  0  0  0  0
   12.0991   -4.4684    0.0000 C   0  0  0  0  0  0  0  0  0  0  0  0
    6.7853   -9.3368    0.0000 H   0  0  0  0  0  0  0  0  0  0  0  0
    9.7616   -7.1794    0.0000 H   0  0  0  0  0  0  0  0  0  0  0  0
   10.7324   -4.0510    0.0000 C   0  0  0  0  0  0  0  0  0  0  0  0
    8.9922   -5.8070    0.0000 O   0  0  0  0  0  0  0  0  0  0  0  0
   10.5723   -7.0213    0.0000 O   0  0  0  0  0  0  0  0  0  0  0  0
   12.3400   -3.6794    0.0000 O   0  0  0  0  0  0  0  0  0  0  0  0
  1  2  1  0  0  0  0
  2  3  1  0  0  0  0
  1  4  1  0  0  0  0
  4  5  1  0  0  0  0
  5  6  1  0  0  0  0
  6  7  1  0  0  0  0
  7  8  2  0  0  0  0
  8  9  1  0  0  0  0
  9 10  1  0  0  0  0
 10 11  1  0  0  0  0
 12 11  1  0  0  0  0
 12 13  1  0  0  0  0
  9 13  1  0  0  0  0
 13 14  2  0  0  0  0
 14 15  1  0  0  0  0
 15 16  1  0  0  0  0
  8 16  1  0  0  0  0
 16 17  1  0  0  0  0
  3 17  1  0  0  0  0
  5 17  1  0  0  0  0
 17 18  1  1  0  0  0
  6 19  2  0  0  0  0
  1 20  1  1  0  0  0
  2 21  1  1  0  0  0
  9 22  1  6  0  0  0
 12 23  1  0  0  0  0
 23 24  1  6  0  0  0
 23 25  1  0  0  0  0
 25 26  1  0  0  0  0
 26 27  1  0  0  0  0
 27 28  1  0  0  0  0
 28 29  1  0  0  0  0
 16 30  1  6  0  0  0
 12 31  1  6  0  0  0
 28 32  1  0  0  0  0
 23 33  1  1  0  0  0
 25 34  1  1  0  0  0
 29 35  1  0  0  0  0
M  END
>  <cdx:fragmentId>
5

$$$$
