96279.cdx
  Mrv1902 05222410192D          

 71 78  0  0  0  0            999 V2000
    7.9397  -10.3756    0.0000 O   0  0  0  0  0  0  0  0  0  0  0  0
    7.2248   -9.9637    0.0000 C   0  0  2  0  0  0  0  0  0  0  0  0
    7.2241   -9.1387    0.0000 O   0  0  0  0  0  0  0  0  0  0  0  0
    6.5092   -8.7269    0.0000 C   0  0  1  0  0  0  0  0  0  0  0  0
    5.7951   -9.1401    0.0000 C   0  0  2  0  0  0  0  0  0  0  0  0
    5.7959   -9.9651    0.0000 C   0  0  1  0  0  0  0  0  0  0  0  0
    6.5107  -10.3769    0.0000 C   0  0  1  0  0  0  0  0  0  0  0  0
   17.9393   -9.5203    0.0000 O   0  0  0  0  0  0  0  0  0  0  0  0
   17.9393   -7.8695    0.0000 O   0  0  0  0  0  0  0  0  0  0  0  0
   16.5119   -7.0464    0.0000 O   0  0  0  0  0  0  0  0  0  0  0  0
    5.0791   -7.9026    0.0000 C   0  0  0  0  0  0  0  0  0  0  0  0
    5.0803   -8.7282    0.0000 O   0  0  0  0  0  0  0  0  0  0  0  0
    4.3662   -9.1414    0.0000 O   0  0  0  0  0  0  0  0  0  0  0  0
    4.3669   -9.9664    0.0000 C   0  0  1  0  0  0  0  0  0  0  0  0
    5.0818  -10.3782    0.0000 O   0  0  0  0  0  0  0  0  0  0  0  0
    3.6513   -8.7296    0.0000 C   0  0  1  0  0  0  0  0  0  0  0  0
    2.9372   -9.1427    0.0000 C   0  0  2  0  0  0  0  0  0  0  0  0
    2.9380   -9.9677    0.0000 C   0  0  1  0  0  0  0  0  0  0  0  0
    3.6529  -10.3796    0.0000 C   0  0  1  0  0  0  0  0  0  0  0  0
    3.6505   -7.9046    0.0000 C   0  0  0  0  0  0  0  0  0  0  0  0
    2.9357   -7.4927    0.0000 O   0  0  0  0  0  0  0  0  0  0  0  0
    2.2224   -8.7309    0.0000 O   0  0  0  0  0  0  0  0  0  0  0  0
    5.7936   -7.4901    0.0000 O   0  0  0  0  0  0  0  0  0  0  0  0
    7.2225   -7.4887    0.0000 O   0  0  0  0  0  0  0  0  0  0  0  0
    6.5084   -7.9019    0.0000 C   0  0  0  0  0  0  0  0  0  0  0  0
    6.5115  -11.2019    0.0000 O   0  0  0  0  0  0  0  0  0  0  0  0
    2.2239  -10.3809    0.0000 O   0  0  0  0  0  0  0  0  0  0  0  0
    3.6536  -11.2046    0.0000 O   0  0  0  0  0  0  0  0  0  0  0  0
   17.2264  -10.7559    0.0000 O   0  0  0  0  0  0  0  0  0  0  0  0
   16.5119  -10.3434    0.0000 C   0  0  0  0  0  0  0  0  0  0  0  0
   15.7961   -9.1074    0.0000 O   0  0  0  0  0  0  0  0  0  0  0  0
   16.5114   -9.5184    0.0000 C   0  0  1  0  0  0  0  0  0  0  0  0
   17.2251   -9.1074    0.0000 C   0  0  2  0  0  0  0  0  0  0  0  0
   17.2251   -8.2824    0.0000 C   0  0  1  0  0  0  0  0  0  0  0  0
   16.5114   -7.8714    0.0000 C   0  0  2  0  0  0  0  0  0  0  0  0
   15.7961   -8.2824    0.0000 C   0  0  2  0  0  0  0  0  0  0  0  0
   14.3686   -9.1072    0.0000 O   0  0  0  0  0  0  0  0  0  0  0  0
   15.0825   -7.8694    0.0000 O   0  0  0  0  0  0  0  0  0  0  0  0
   14.3682   -8.2822    0.0000 C   0  0  0  0  0  0  0  0  0  0  0  0
    9.7815  -11.0892    0.0000 C   0  0  0  0  0  0  0  0  0  0  0  0
    8.9565  -11.0896    0.0000 C   0  0  0  0  0  0  0  0  0  0  0  0
   13.2407   -5.5336    0.0000 C   0  0  0  0  0  0  0  0  0  0  0  0
   14.0657   -5.5332    0.0000 C   0  0  0  0  0  0  0  0  0  0  0  0
   10.0825   -9.1371    0.0000 C   0  0  2  0  0  0  0  0  0  0  0  0
   10.7968   -8.7242    0.0000 C   0  0  1  0  0  0  0  0  0  0  0  0
   10.7964   -7.8992    0.0000 C   0  0  0  0  0  0  0  0  0  0  0  0
   11.5107   -7.4864    0.0000 C   0  0  0  0  0  0  0  0  0  0  0  0
   12.2253   -7.8986    0.0000 C   0  0  0  0  0  0  0  0  0  0  0  0
   12.9396   -7.4857    0.0000 C   0  0  2  0  0  0  0  0  0  0  0  0
   12.9392   -6.6607    0.0000 C   0  0  0  0  0  0  0  0  0  0  0  0
   13.6535   -6.2479    0.0000 C   0  0  0  0  0  0  0  0  0  0  0  0
   14.3682   -6.6601    0.0000 C   0  0  0  0  0  0  0  0  0  0  0  0
   14.3686   -7.4851    0.0000 C   0  0  0  0  0  0  0  0  0  0  0  0
   13.6543   -7.8979    0.0000 C   0  0  1  0  0  0  0  0  0  0  0  0
   13.6547   -8.7229    0.0000 C   0  0  0  0  0  0  0  0  0  0  0  0
   12.9404   -9.1357    0.0000 C   0  0  0  0  0  0  0  0  0  0  0  0
   12.2257   -8.7236    0.0000 C   0  0  1  0  0  0  0  0  0  0  0  0
   11.5115   -9.1364    0.0000 C   0  0  2  0  0  0  0  0  0  0  0  0
   11.5118   -9.9614    0.0000 C   0  0  0  0  0  0  0  0  0  0  0  0
   10.7976  -10.3742    0.0000 C   0  0  0  0  0  0  0  0  0  0  0  0
   10.0829   -9.9621    0.0000 C   0  0  1  0  0  0  0  0  0  0  0  0
    9.3686  -10.3749    0.0000 C   0  0  0  0  0  0  0  0  0  0  0  0
    8.6540   -9.9627    0.0000 C   0  0  2  0  0  0  0  0  0  0  0  0
    8.6536   -9.1377    0.0000 C   0  0  0  0  0  0  0  0  0  0  0  0
    9.3678   -8.7249    0.0000 C   0  0  0  0  0  0  0  0  0  0  0  0
   10.0821   -8.3121    0.0000 C   0  0  0  0  0  0  0  0  0  0  0  0
   11.5115   -8.3114    0.0000 C   0  0  0  0  0  0  0  0  0  0  0  0
   12.2257   -9.5486    0.0000 C   0  0  0  0  0  0  0  0  0  0  0  0
   10.0833  -10.7871    0.0000 H   0  0  0  0  0  0  0  0  0  0  0  0
   10.7972   -9.5492    0.0000 H   0  0  0  0  0  0  0  0  0  0  0  0
   12.9400   -8.3107    0.0000 H   0  0  0  0  0  0  0  0  0  0  0  0
  2  1  1  1  0  0  0
  2  3  1  0  0  0  0
  3  4  1  0  0  0  0
 33  8  1  6  0  0  0
 34  9  1  1  0  0  0
 35 10  1  6  0  0  0
  4  5  1  0  0  0  0
  5  6  1  0  0  0  0
  6  7  1  0  0  0  0
  7  2  1  0  0  0  0
 23 11  1  0  0  0  0
  4 25  1  1  0  0  0
 25 23  1  0  0  0  0
  5 12  1  6  0  0  0
 13 14  1  0  0  0  0
 14 15  1  1  0  0  0
  6 15  1  1  0  0  0
 13 16  1  0  0  0  0
 16 17  1  0  0  0  0
 17 18  1  0  0  0  0
 18 19  1  0  0  0  0
 19 14  1  0  0  0  0
 16 20  1  1  0  0  0
 20 21  1  0  0  0  0
 17 22  1  6  0  0  0
 25 24  2  0  0  0  0
  7 26  1  6  0  0  0
 18 27  1  1  0  0  0
 30 29  1  0  0  0  0
 32 30  1  1  0  0  0
 31 36  1  0  0  0  0
 32 31  1  0  0  0  0
 33 32  1  0  0  0  0
 34 33  1  0  0  0  0
 35 34  1  0  0  0  0
 36 35  1  0  0  0  0
 36 38  1  1  0  0  0
 39 37  2  0  0  0  0
 39 38  1  0  0  0  0
 62 40  1  0  0  0  0
 62 41  1  0  0  0  0
 51 42  1  0  0  0  0
 51 43  1  0  0  0  0
 63  1  1  1  0  0  0
 65 44  1  0  0  0  0
 61 44  1  0  0  0  0
 45 44  1  0  0  0  0
 58 45  1  0  0  0  0
 46 45  1  0  0  0  0
 47 46  1  0  0  0  0
 48 47  2  0  0  0  0
 57 48  1  0  0  0  0
 49 48  1  0  0  0  0
 54 49  1  0  0  0  0
 50 49  1  0  0  0  0
 51 50  1  0  0  0  0
 52 51  1  0  0  0  0
 53 52  1  0  0  0  0
 54 53  1  0  0  0  0
 55 54  1  0  0  0  0
 56 55  1  0  0  0  0
 57 56  1  0  0  0  0
 58 57  1  0  0  0  0
 59 58  1  0  0  0  0
 60 59  1  0  0  0  0
 61 60  1  0  0  0  0
 62 61  1  0  0  0  0
 63 62  1  0  0  0  0
 64 63  1  0  0  0  0
 65 64  1  0  0  0  0
 19 28  1  6  0  0  0
 44 66  1  1  0  0  0
 58 67  1  1  0  0  0
 57 68  1  6  0  0  0
 61 69  1  6  0  0  0
 45 70  1  6  0  0  0
 49 71  1  1  0  0  0
 54 39  1  1  0  0  0
M  END
>  <cdx:fragmentId>
5

$$$$
