96278.cdx
  Mrv1902 05222410192D          

 32 36  0  0  0  0            999 V2000
    5.5332  -11.2278    0.0000 C   0  0  0  0  0  0  0  0  0  0  0  0
    4.7082  -11.2293    0.0000 C   0  0  0  0  0  0  0  0  0  0  0  0
    8.9848   -5.6674    0.0000 C   0  0  0  0  0  0  0  0  0  0  0  0
    9.8098   -5.6659    0.0000 C   0  0  0  0  0  0  0  0  0  0  0  0
    3.6905  -10.5167    0.0000 O   0  0  0  0  0  0  0  0  0  0  0  0
    5.8316   -9.2752    0.0000 C   0  0  2  0  0  0  0  0  0  0  0  0
    6.5453   -8.8614    0.0000 C   0  0  1  0  0  0  0  0  0  0  0  0
    6.5438   -8.0364    0.0000 C   0  0  0  0  0  0  0  0  0  0  0  0
    7.2575   -7.6226    0.0000 C   0  0  0  0  0  0  0  0  0  0  0  0
    7.9727   -8.0338    0.0000 C   0  0  0  0  0  0  0  0  0  0  0  0
    8.6864   -7.6199    0.0000 C   0  0  0  0  0  0  0  0  0  0  0  0
    8.6849   -6.7949    0.0000 C   0  0  0  0  0  0  0  0  0  0  0  0
    9.3986   -6.3811    0.0000 C   0  0  0  0  0  0  0  0  0  0  0  0
   10.1138   -6.7923    0.0000 C   0  0  0  0  0  0  0  0  0  0  0  0
   10.1153   -7.6173    0.0000 C   0  0  0  0  0  0  0  0  0  0  0  0
    9.4016   -8.0311    0.0000 C   0  0  0  0  0  0  0  0  0  0  0  0
    9.4032   -8.8561    0.0000 C   0  0  0  0  0  0  0  0  0  0  0  0
    8.6895   -9.2699    0.0000 C   0  0  0  0  0  0  0  0  0  0  0  0
    7.9742   -8.8588    0.0000 C   0  0  1  0  0  0  0  0  0  0  0  0
    7.2605   -9.2726    0.0000 C   0  0  2  0  0  0  0  0  0  0  0  0
    7.2620  -10.0976    0.0000 C   0  0  0  0  0  0  0  0  0  0  0  0
    6.5483  -10.5114    0.0000 C   0  0  0  0  0  0  0  0  0  0  0  0
    5.8331  -10.1002    0.0000 C   0  0  1  0  0  0  0  0  0  0  0  0
    5.1194  -10.5140    0.0000 C   0  0  0  0  0  0  0  0  0  0  0  0
    4.4042  -10.1029    0.0000 C   0  0  2  0  0  0  0  0  0  0  0  0
    4.4026   -9.2779    0.0000 C   0  0  0  0  0  0  0  0  0  0  0  0
    5.1163   -8.8640    0.0000 C   0  0  0  0  0  0  0  0  0  0  0  0
    5.8300   -8.4502    0.0000 C   0  0  0  0  0  0  0  0  0  0  0  0
    7.2605   -8.4476    0.0000 C   0  0  0  0  0  0  0  0  0  0  0  0
    7.9742   -9.6838    0.0000 C   0  0  0  0  0  0  0  0  0  0  0  0
    5.8346  -10.9252    0.0000 H   0  0  0  0  0  0  0  0  0  0  0  0
    6.5468   -9.6864    0.0000 H   0  0  0  0  0  0  0  0  0  0  0  0
 24  1  1  0  0  0  0
 24  2  1  0  0  0  0
 13  3  1  0  0  0  0
 13  4  1  0  0  0  0
 25  5  1  1  0  0  0
 27  6  1  0  0  0  0
 23  6  1  0  0  0  0
  7  6  1  0  0  0  0
 20  7  1  0  0  0  0
  8  7  1  0  0  0  0
  9  8  1  0  0  0  0
 10  9  1  0  0  0  0
 19 10  1  0  0  0  0
 11 10  1  0  0  0  0
 16 11  2  0  0  0  0
 12 11  1  0  0  0  0
 13 12  1  0  0  0  0
 14 13  1  0  0  0  0
 15 14  1  0  0  0  0
 16 15  1  0  0  0  0
 17 16  1  0  0  0  0
 18 17  1  0  0  0  0
 19 18  1  0  0  0  0
 20 19  1  0  0  0  0
 21 20  1  0  0  0  0
 22 21  1  0  0  0  0
 23 22  1  0  0  0  0
 24 23  1  0  0  0  0
 25 24  1  0  0  0  0
 26 25  1  0  0  0  0
 27 26  1  0  0  0  0
  6 28  1  1  0  0  0
 20 29  1  1  0  0  0
 19 30  1  6  0  0  0
 23 31  1  6  0  0  0
  7 32  1  6  0  0  0
M  END
>  <cdx:fragmentId>
5

$$$$
