96273.cdx
  Mrv1902 05222410282D          

 36 39  0  0  0  0            999 V2000
    5.8842   -7.8493    0.0000 C   0  0  0  0  0  0  0  0  0  0  0  0
    5.1697   -8.2618    0.0000 C   0  0  1  0  0  0  0  0  0  0  0  0
    5.1697   -9.0868    0.0000 C   0  0  1  0  0  0  0  0  0  0  0  0
    5.8842   -9.4993    0.0000 C   0  0  0  0  0  0  0  0  0  0  0  0
    6.5987   -9.0868    0.0000 C   0  0  1  0  0  0  0  0  0  0  0  0
    7.3131   -9.4993    0.0000 C   0  0  0  0  0  0  0  0  0  0  0  0
    8.0276   -9.0868    0.0000 C   0  0  0  0  0  0  0  0  0  0  0  0
    8.0276   -8.2618    0.0000 C   0  0  0  0  0  0  0  0  0  0  0  0
    8.7421   -7.8493    0.0000 C   0  0  2  0  0  0  0  0  0  0  0  0
    9.5267   -8.1042    0.0000 C   0  0  0  0  0  0  0  0  0  0  0  0
   10.0116   -7.4368    0.0000 C   0  0  0  0  0  0  0  0  0  0  0  0
    9.5267   -6.7693    0.0000 C   0  0  1  0  0  0  0  0  0  0  0  0
    8.7421   -7.0243    0.0000 C   0  0  0  0  0  0  0  0  0  0  0  0
    8.0276   -6.6118    0.0000 C   0  0  0  0  0  0  0  0  0  0  0  0
    7.3131   -7.0243    0.0000 C   0  0  0  0  0  0  0  0  0  0  0  0
    7.3131   -7.8493    0.0000 C   0  0  2  0  0  0  0  0  0  0  0  0
    6.5987   -8.2618    0.0000 C   0  0  1  0  0  0  0  0  0  0  0  0
    7.3131  -10.3243    0.0000 O   0  0  0  0  0  0  0  0  0  0  0  0
    6.5987   -7.4368    0.0000 C   0  0  0  0  0  0  0  0  0  0  0  0
    8.7421   -8.6743    0.0000 C   0  0  0  0  0  0  0  0  0  0  0  0
    4.4553   -9.4993    0.0000 O   0  0  0  0  0  0  0  0  0  0  0  0
    4.4553   -7.8493    0.0000 O   0  0  0  0  0  0  0  0  0  0  0  0
    9.7816   -5.9847    0.0000 C   0  0  0  0  0  0  0  0  0  0  0  0
    8.9848   -5.7767    0.0000 C   0  0  0  0  0  0  0  0  0  0  0  0
   10.5785   -6.1982    0.0000 O   0  0  0  0  0  0  0  0  0  0  0  0
    6.5987   -9.9118    0.0000 H   0  0  0  0  0  0  0  0  0  0  0  0
    7.3131   -8.6743    0.0000 H   0  0  0  0  0  0  0  0  0  0  0  0
   10.3517   -6.7693    0.0000 H   0  0  0  0  0  0  0  0  0  0  0  0
    9.9926   -5.1871    0.0000 C   0  0  2  0  0  0  0  0  0  0  0  0
    9.4074   -4.6057    0.0000 O   0  0  0  0  0  0  0  0  0  0  0  0
   10.7888   -4.9710    0.0000 C   0  0  0  0  0  0  0  0  0  0  0  0
   10.9998   -4.1735    0.0000 C   0  0  0  0  0  0  0  0  0  0  0  0
   11.7959   -3.9574    0.0000 C   0  0  0  0  0  0  0  0  0  0  0  0
   12.0095   -4.7543    0.0000 C   0  0  0  0  0  0  0  0  0  0  0  0
   11.5824   -3.1605    0.0000 C   0  0  0  0  0  0  0  0  0  0  0  0
   12.5921   -3.7413    0.0000 O   0  0  0  0  0  0  0  0  0  0  0  0
  1  2  1  0  0  0  0
  2  3  1  0  0  0  0
  3  4  1  0  0  0  0
  4  5  1  0  0  0  0
  5  6  1  0  0  0  0
  6  7  1  0  0  0  0
  7  8  2  0  0  0  0
  8  9  1  0  0  0  0
  9 10  1  0  0  0  0
 10 11  1  0  0  0  0
 12 11  1  0  0  0  0
 12 13  1  0  0  0  0
  9 13  1  0  0  0  0
 13 14  2  0  0  0  0
 14 15  1  0  0  0  0
 15 16  1  0  0  0  0
  8 16  1  0  0  0  0
 16 17  1  0  0  0  0
  5 17  1  0  0  0  0
  1 17  1  0  0  0  0
  6 18  2  0  0  0  0
 17 19  1  1  0  0  0
  9 20  1  6  0  0  0
  3 21  1  1  0  0  0
  2 22  1  1  0  0  0
 23 24  1  0  0  0  0
 23 25  1  1  0  0  0
 12 23  1  0  0  0  0
  5 26  1  1  0  0  0
 16 27  1  6  0  0  0
 12 28  1  6  0  0  0
 23 29  1  0  0  0  0
 29 30  1  6  0  0  0
 29 31  1  0  0  0  0
 31 32  1  0  0  0  0
 32 33  1  0  0  0  0
 33 34  1  0  0  0  0
 33 35  1  0  0  0  0
 33 36  1  0  0  0  0
M  END
>  <cdx:fragmentId>
5

$$$$
