96287.cdx
  Mrv1902 05222410192D          

 79 86  0  0  0  0            999 V2000
    6.9088   -8.4726    0.0000 C   0  0  0  0  0  0  0  0  0  0  0  0
    6.8972   -9.2975    0.0000 C   0  0  1  0  0  0  0  0  0  0  0  0
    7.6057   -9.7201    0.0000 C   0  0  1  0  0  0  0  0  0  0  0  0
    8.3260   -9.3178    0.0000 C   0  0  0  0  0  0  0  0  0  0  0  0
    8.3376   -8.4929    0.0000 C   0  0  2  0  0  0  0  0  0  0  0  0
    7.6291   -8.0703    0.0000 C   0  0  0  0  0  0  0  0  0  0  0  0
    9.0345   -9.7404    0.0000 C   0  0  0  0  0  0  0  0  0  0  0  0
    9.7547   -9.3380    0.0000 C   0  0  0  0  0  0  0  0  0  0  0  0
    9.7664   -8.5131    0.0000 C   0  0  2  0  0  0  0  0  0  0  0  0
    9.0579   -8.0905    0.0000 C   0  0  0  0  0  0  0  0  0  0  0  0
   10.4867   -8.1108    0.0000 C   0  0  1  0  0  0  0  0  0  0  0  0
   10.4984   -7.2859    0.0000 C   0  0  0  0  0  0  0  0  0  0  0  0
    9.7898   -6.8633    0.0000 C   0  0  0  0  0  0  0  0  0  0  0  0
    9.0696   -7.2656    0.0000 C   0  0  0  0  0  0  0  0  0  0  0  0
   11.1952   -8.5334    0.0000 C   0  0  0  0  0  0  0  0  0  0  0  0
   11.9155   -8.1310    0.0000 C   0  0  0  0  0  0  0  0  0  0  0  0
   11.9272   -7.3061    0.0000 C   0  0  2  0  0  0  0  0  0  0  0  0
   11.2186   -6.8835    0.0000 C   0  0  0  0  0  0  0  0  0  0  0  0
   12.6474   -6.9038    0.0000 C   0  0  0  0  0  0  0  0  0  0  0  0
   12.6591   -6.0789    0.0000 C   0  0  0  0  0  0  0  0  0  0  0  0
   11.9506   -5.6563    0.0000 C   0  0  1  0  0  0  0  0  0  0  0  0
   11.2303   -6.0586    0.0000 C   0  0  0  0  0  0  0  0  0  0  0  0
   11.5482   -4.9360    0.0000 C   0  0  0  0  0  0  0  0  0  0  0  0
   12.3732   -4.9477    0.0000 C   0  0  0  0  0  0  0  0  0  0  0  0
   10.4750   -8.9357    0.0000 C   0  0  0  0  0  0  0  0  0  0  0  0
    9.7781   -7.6882    0.0000 C   0  0  0  0  0  0  0  0  0  0  0  0
    8.3493   -7.6679    0.0000 C   0  0  0  0  0  0  0  0  0  0  0  0
    7.1831  -10.4287    0.0000 C   0  0  0  0  0  0  0  0  0  0  0  0
    8.0080  -10.4404    0.0000 C   0  0  0  0  0  0  0  0  0  0  0  0
    6.1769   -9.6999    0.0000 O   0  0  0  0  0  0  0  0  0  0  0  0
   12.6357   -7.7287    0.0000 C   0  0  0  0  0  0  0  0  0  0  0  0
   13.3560   -7.3264    0.0000 O   0  0  0  0  0  0  0  0  0  0  0  0
   12.1657   -9.3048    0.0000 C   0  0  2  0  0  0  0  0  0  0  0  0
   11.3409   -9.2848    0.0000 O   0  0  0  0  0  0  0  0  0  0  0  0
   10.9112   -9.9890    0.0000 C   0  0  1  0  0  0  0  0  0  0  0  0
   11.3062  -10.7133    0.0000 C   0  0  2  0  0  0  0  0  0  0  0  0
   12.1310  -10.7333    0.0000 C   0  0  1  0  0  0  0  0  0  0  0  0
   12.5607  -10.0291    0.0000 C   0  0  1  0  0  0  0  0  0  0  0  0
   10.0864   -9.9690    0.0000 C   0  0  0  0  0  0  0  0  0  0  0  0
   12.5260  -11.4576    0.0000 O   0  0  0  0  0  0  0  0  0  0  0  0
   10.8765  -11.4176    0.0000 O   0  0  0  0  0  0  0  0  0  0  0  0
   13.3854  -10.0491    0.0000 O   0  0  0  0  0  0  0  0  0  0  0  0
    9.6567  -10.6732    0.0000 O   0  0  0  0  0  0  0  0  0  0  0  0
   12.6240   -8.5536    0.0000 O   0  0  0  0  0  0  0  0  0  0  0  0
    5.4684   -9.2773    0.0000 C   0  0  2  0  0  0  0  0  0  0  0  0
    5.4801   -8.4523    0.0000 O   0  0  0  0  0  0  0  0  0  0  0  0
    4.7715   -8.0298    0.0000 C   0  0  1  0  0  0  0  0  0  0  0  0
    4.0513   -8.4321    0.0000 C   0  0  2  0  0  0  0  0  0  0  0  0
    4.0396   -9.2570    0.0000 C   0  0  1  0  0  0  0  0  0  0  0  0
    4.7481   -9.6796    0.0000 C   0  0  1  0  0  0  0  0  0  0  0  0
    4.7832   -7.2048    0.0000 C   0  0  0  0  0  0  0  0  0  0  0  0
    3.3193   -9.6593    0.0000 O   0  0  0  0  0  0  0  0  0  0  0  0
    3.3427   -8.0095    0.0000 O   0  0  0  0  0  0  0  0  0  0  0  0
    4.7364  -10.5045    0.0000 O   0  0  0  0  0  0  0  0  0  0  0  0
    4.0746   -6.7823    0.0000 O   0  0  0  0  0  0  0  0  0  0  0  0
    5.5034   -6.8025    0.0000 O   0  0  0  0  0  0  0  0  0  0  0  0
    2.6108   -9.2367    0.0000 C   0  0  1  0  0  0  0  0  0  0  0  0
    2.6225   -8.4118    0.0000 C   0  0  0  0  0  0  0  0  0  0  0  0
    1.8963   -9.6492    0.0000 C   0  0  0  0  0  0  0  0  0  0  0  0
    1.8963  -10.4742    0.0000 C   0  0  0  0  0  0  0  0  0  0  0  0
    2.6108  -10.8867    0.0000 O   0  0  0  0  0  0  0  0  0  0  0  0
    1.9080   -7.9993    0.0000 O   0  0  0  0  0  0  0  0  0  0  0  0
    1.9080   -7.1743    0.0000 C   0  0  0  0  0  0  0  0  0  0  0  0
    1.1818   -9.2367    0.0000 O   0  0  0  0  0  0  0  0  0  0  0  0
    1.1818  -10.8867    0.0000 O   0  0  0  0  0  0  0  0  0  0  0  0
    5.1387  -11.2248    0.0000 C   0  0  2  0  0  0  0  0  0  0  0  0
    4.7112  -11.9303    0.0000 O   0  0  0  0  0  0  0  0  0  0  0  0
    5.1085  -12.6534    0.0000 C   0  0  1  0  0  0  0  0  0  0  0  0
    5.9333  -12.6708    0.0000 C   0  0  2  0  0  0  0  0  0  0  0  0
    6.3457  -11.9565    0.0000 C   0  0  1  0  0  0  0  0  0  0  0  0
    5.9333  -11.2248    0.0000 C   0  0  1  0  0  0  0  0  0  0  0  0
    4.6809  -13.3590    0.0000 C   0  0  0  0  0  0  0  0  0  0  0  0
    7.1707  -11.9608    0.0000 O   0  0  0  0  0  0  0  0  0  0  0  0
    6.3495  -10.5124    0.0000 O   0  0  0  0  0  0  0  0  0  0  0  0
    6.3382  -13.3896    0.0000 O   0  0  0  0  0  0  0  0  0  0  0  0
    5.0782  -14.0820    0.0000 O   0  0  0  0  0  0  0  0  0  0  0  0
    1.1935   -6.7618    0.0000 C   0  0  0  0  0  0  0  0  0  0  0  0
    1.1935   -5.9368    0.0000 O   0  0  0  0  0  0  0  0  0  0  0  0
    0.4790   -7.1743    0.0000 O   0  0  0  0  0  0  0  0  0  0  0  0
  1  2  1  0  0  0  0
  2  3  1  0  0  0  0
  3  4  1  0  0  0  0
  4  5  1  0  0  0  0
  5  6  1  0  0  0  0
  6  1  1  0  0  0  0
  4  7  1  0  0  0  0
  7  8  1  0  0  0  0
  8  9  1  0  0  0  0
  9 10  1  0  0  0  0
 10  5  1  0  0  0  0
  9 11  1  0  0  0  0
 11 12  1  0  0  0  0
 12 13  2  0  0  0  0
 13 14  1  0  0  0  0
 14 10  1  0  0  0  0
 11 15  1  0  0  0  0
 15 16  1  0  0  0  0
 16 17  1  0  0  0  0
 17 18  1  0  0  0  0
 18 12  1  0  0  0  0
 17 19  1  0  0  0  0
 19 20  1  0  0  0  0
 20 21  1  0  0  0  0
 21 22  1  0  0  0  0
 22 18  1  0  0  0  0
 21 23  1  1  0  0  0
 21 24  1  6  0  0  0
 11 25  1  6  0  0  0
  9 26  1  1  0  0  0
  5 27  1  1  0  0  0
  3 28  1  1  0  0  0
  3 29  1  6  0  0  0
  2 30  1  1  0  0  0
 17 31  1  1  0  0  0
 31 32  2  0  0  0  0
 33 34  1  0  0  0  0
 34 35  1  0  0  0  0
 35 36  1  0  0  0  0
 36 37  1  0  0  0  0
 37 38  1  0  0  0  0
 38 33  1  0  0  0  0
 35 39  1  1  0  0  0
 37 40  1  1  0  0  0
 36 41  1  6  0  0  0
 38 42  1  6  0  0  0
 39 43  1  0  0  0  0
 31 44  1  0  0  0  0
 33 44  1  1  0  0  0
 45 30  1  1  0  0  0
 45 46  1  0  0  0  0
 46 47  1  0  0  0  0
 47 48  1  0  0  0  0
 48 49  1  0  0  0  0
 49 50  1  0  0  0  0
 50 45  1  0  0  0  0
 47 51  1  1  0  0  0
 49 52  1  1  0  0  0
 48 53  1  6  0  0  0
 50 54  1  6  0  0  0
 51 55  2  0  0  0  0
 51 56  1  0  0  0  0
 57 52  1  6  0  0  0
 58 57  1  0  0  0  0
 57 59  1  0  0  0  0
 59 60  1  0  0  0  0
 60 61  1  0  0  0  0
 58 62  1  0  0  0  0
 62 63  1  0  0  0  0
 59 64  1  0  0  0  0
 60 65  2  0  0  0  0
 66 54  1  1  0  0  0
 66 67  1  0  0  0  0
 67 68  1  0  0  0  0
 68 69  1  0  0  0  0
 69 70  1  0  0  0  0
 70 71  1  0  0  0  0
 71 66  1  0  0  0  0
 68 72  1  1  0  0  0
 70 73  1  1  0  0  0
 71 74  1  6  0  0  0
 69 75  1  6  0  0  0
 72 76  1  0  0  0  0
 63 77  1  0  0  0  0
 77 78  2  0  0  0  0
 77 79  1  0  0  0  0
M  END
>  <cdx:fragmentId>
242506

$$$$
