96288.cdx
  Mrv1902 05222410262D          

 67 73  0  0  0  0            999 V2000
    6.9088   -8.4726    0.0000 C   0  0  0  0  0  0  0  0  0  0  0  0
    6.8972   -9.2975    0.0000 C   0  0  1  0  0  0  0  0  0  0  0  0
    7.6057   -9.7201    0.0000 C   0  0  1  0  0  0  0  0  0  0  0  0
    8.3260   -9.3178    0.0000 C   0  0  0  0  0  0  0  0  0  0  0  0
    8.3376   -8.4929    0.0000 C   0  0  2  0  0  0  0  0  0  0  0  0
    7.6291   -8.0703    0.0000 C   0  0  0  0  0  0  0  0  0  0  0  0
    9.0345   -9.7404    0.0000 C   0  0  0  0  0  0  0  0  0  0  0  0
    9.7547   -9.3380    0.0000 C   0  0  0  0  0  0  0  0  0  0  0  0
    9.7664   -8.5131    0.0000 C   0  0  2  0  0  0  0  0  0  0  0  0
    9.0579   -8.0905    0.0000 C   0  0  0  0  0  0  0  0  0  0  0  0
   10.4867   -8.1108    0.0000 C   0  0  1  0  0  0  0  0  0  0  0  0
   10.4984   -7.2859    0.0000 C   0  0  0  0  0  0  0  0  0  0  0  0
    9.7898   -6.8633    0.0000 C   0  0  0  0  0  0  0  0  0  0  0  0
    9.0696   -7.2656    0.0000 C   0  0  0  0  0  0  0  0  0  0  0  0
   11.1952   -8.5334    0.0000 C   0  0  0  0  0  0  0  0  0  0  0  0
   11.9155   -8.1310    0.0000 C   0  0  0  0  0  0  0  0  0  0  0  0
   11.9272   -7.3061    0.0000 C   0  0  2  0  0  0  0  0  0  0  0  0
   11.2186   -6.8835    0.0000 C   0  0  0  0  0  0  0  0  0  0  0  0
   12.6474   -6.9038    0.0000 C   0  0  0  0  0  0  0  0  0  0  0  0
   12.6591   -6.0789    0.0000 C   0  0  0  0  0  0  0  0  0  0  0  0
   11.9506   -5.6563    0.0000 C   0  0  1  0  0  0  0  0  0  0  0  0
   11.2303   -6.0586    0.0000 C   0  0  0  0  0  0  0  0  0  0  0  0
   11.5482   -4.9360    0.0000 C   0  0  0  0  0  0  0  0  0  0  0  0
   12.3732   -4.9477    0.0000 C   0  0  0  0  0  0  0  0  0  0  0  0
   10.4750   -8.9357    0.0000 C   0  0  0  0  0  0  0  0  0  0  0  0
    9.7781   -7.6882    0.0000 C   0  0  0  0  0  0  0  0  0  0  0  0
    8.3493   -7.6679    0.0000 C   0  0  0  0  0  0  0  0  0  0  0  0
    7.1831  -10.4287    0.0000 C   0  0  0  0  0  0  0  0  0  0  0  0
    8.0080  -10.4404    0.0000 C   0  0  0  0  0  0  0  0  0  0  0  0
    6.1769   -9.6999    0.0000 O   0  0  0  0  0  0  0  0  0  0  0  0
   12.6357   -7.7287    0.0000 C   0  0  0  0  0  0  0  0  0  0  0  0
   13.3560   -7.3264    0.0000 O   0  0  0  0  0  0  0  0  0  0  0  0
   12.6240   -8.5536    0.0000 O   0  0  0  0  0  0  0  0  0  0  0  0
    5.4684   -9.2773    0.0000 C   0  0  2  0  0  0  0  0  0  0  0  0
    5.4801   -8.4523    0.0000 O   0  0  0  0  0  0  0  0  0  0  0  0
    4.7715   -8.0298    0.0000 C   0  0  1  0  0  0  0  0  0  0  0  0
    4.0513   -8.4321    0.0000 C   0  0  2  0  0  0  0  0  0  0  0  0
    4.0396   -9.2570    0.0000 C   0  0  1  0  0  0  0  0  0  0  0  0
    4.7481   -9.6796    0.0000 C   0  0  1  0  0  0  0  0  0  0  0  0
    4.7832   -7.2048    0.0000 C   0  0  0  0  0  0  0  0  0  0  0  0
    3.3193   -9.6593    0.0000 C   0  0  0  0  0  0  0  0  0  0  0  0
    3.3427   -8.0095    0.0000 O   0  0  0  0  0  0  0  0  0  0  0  0
    4.7364  -10.5045    0.0000 O   0  0  0  0  0  0  0  0  0  0  0  0
    4.0746   -6.7823    0.0000 O   0  0  0  0  0  0  0  0  0  0  0  0
    4.0863   -5.9573    0.0000 C   0  0  0  0  0  0  0  0  0  0  0  0
    4.7978   -5.5396    0.0000 O   0  0  0  0  0  0  0  0  0  0  0  0
    4.7978   -4.7146    0.0000 C   0  0  1  0  0  0  0  0  0  0  0  0
    4.0863   -4.3074    0.0000 C   0  0  2  0  0  0  0  0  0  0  0  0
    3.3749   -4.7146    0.0000 C   0  0  1  0  0  0  0  0  0  0  0  0
    3.3749   -5.5396    0.0000 C   0  0  1  0  0  0  0  0  0  0  0  0
    5.5115   -4.3008    0.0000 C   0  0  0  0  0  0  0  0  0  0  0  0
    2.6612   -4.3008    0.0000 O   0  0  0  0  0  0  0  0  0  0  0  0
    4.0863   -3.4824    0.0000 O   0  0  0  0  0  0  0  0  0  0  0  0
    2.6589   -5.9495    0.0000 O   0  0  0  0  0  0  0  0  0  0  0  0
    5.5115   -3.4758    0.0000 O   0  0  0  0  0  0  0  0  0  0  0  0
    2.6225   -8.4118    0.0000 C   0  0  1  0  0  0  0  0  0  0  0  0
    1.9139   -7.9892    0.0000 C   0  0  0  0  0  0  0  0  0  0  0  0
    2.6108   -9.2367    0.0000 C   0  0  0  0  0  0  0  0  0  0  0  0
    1.1937   -8.3916    0.0000 O   0  0  0  0  0  0  0  0  0  0  0  0
    1.9256   -7.1643    0.0000 C   0  0  0  0  0  0  0  0  0  0  0  0
    1.2170   -6.7417    0.0000 O   0  0  0  0  0  0  0  0  0  0  0  0
    2.6458   -6.7620    0.0000 O   0  0  0  0  0  0  0  0  0  0  0  0
    1.8905   -9.6391    0.0000 O   0  0  0  0  0  0  0  0  0  0  0  0
    1.8788  -10.4640    0.0000 C   0  0  0  0  0  0  0  0  0  0  0  0
    1.1469  -11.6912    0.0000 O   0  0  0  0  0  0  0  0  0  0  0  0
    0.4500  -10.4437    0.0000 O   0  0  0  0  0  0  0  0  0  0  0  0
    1.1586  -10.8663    0.0000 C   0  0  0  0  0  0  0  0  0  0  0  0
  1  2  1  0  0  0  0
  2  3  1  0  0  0  0
  3  4  1  0  0  0  0
  4  5  1  0  0  0  0
  5  6  1  0  0  0  0
  6  1  1  0  0  0  0
  4  7  1  0  0  0  0
  7  8  1  0  0  0  0
  8  9  1  0  0  0  0
  9 10  1  0  0  0  0
 10  5  1  0  0  0  0
  9 11  1  0  0  0  0
 11 12  1  0  0  0  0
 12 13  2  0  0  0  0
 13 14  1  0  0  0  0
 14 10  1  0  0  0  0
 11 15  1  0  0  0  0
 15 16  1  0  0  0  0
 16 17  1  0  0  0  0
 17 18  1  0  0  0  0
 18 12  1  0  0  0  0
 17 19  1  0  0  0  0
 19 20  1  0  0  0  0
 20 21  1  0  0  0  0
 21 22  1  0  0  0  0
 22 18  1  0  0  0  0
 21 23  1  1  0  0  0
 21 24  1  6  0  0  0
 11 25  1  6  0  0  0
  9 26  1  1  0  0  0
  5 27  1  1  0  0  0
  3 28  1  1  0  0  0
  3 29  1  6  0  0  0
  2 30  1  1  0  0  0
 17 31  1  1  0  0  0
 31 32  2  0  0  0  0
 31 33  1  0  0  0  0
 34 30  1  1  0  0  0
 34 35  1  0  0  0  0
 35 36  1  0  0  0  0
 36 37  1  0  0  0  0
 37 38  1  0  0  0  0
 38 39  1  0  0  0  0
 39 34  1  0  0  0  0
 36 40  1  1  0  0  0
 38 41  1  1  0  0  0
 37 42  1  6  0  0  0
 39 43  1  6  0  0  0
 40 44  1  0  0  0  0
 44 45  1  0  0  0  0
 45 46  1  0  0  0  0
 46 47  1  0  0  0  0
 47 48  1  0  0  0  0
 48 49  1  0  0  0  0
 49 50  1  0  0  0  0
 50 45  1  0  0  0  0
 47 51  1  1  0  0  0
 49 52  1  1  0  0  0
 48 53  1  6  0  0  0
 50 54  1  6  0  0  0
 51 55  1  0  0  0  0
 56 42  1  6  0  0  0
 56 57  1  0  0  0  0
 56 58  1  0  0  0  0
 57 59  1  0  0  0  0
 57 60  1  0  0  0  0
 60 61  2  0  0  0  0
 60 62  1  0  0  0  0
 58 63  1  0  0  0  0
 63 64  1  0  0  0  0
 67 65  1  0  0  0  0
 64 67  1  0  0  0  0
 67 66  2  0  0  0  0
M  END
>  <cdx:fragmentId>
242506

$$$$
