96289.cdx
  Mrv1902 05222410262D          

 67 74  0  0  0  0            999 V2000
    6.0013   -8.3351    0.0000 C   0  0  0  0  0  0  0  0  0  0  0  0
    5.9897   -9.1600    0.0000 C   0  0  1  0  0  0  0  0  0  0  0  0
    6.6982   -9.5826    0.0000 C   0  0  1  0  0  0  0  0  0  0  0  0
    7.4185   -9.1803    0.0000 C   0  0  0  0  0  0  0  0  0  0  0  0
    7.4301   -8.3554    0.0000 C   0  0  2  0  0  0  0  0  0  0  0  0
    6.7216   -7.9328    0.0000 C   0  0  0  0  0  0  0  0  0  0  0  0
    8.1270   -9.6029    0.0000 C   0  0  0  0  0  0  0  0  0  0  0  0
    8.8472   -9.2005    0.0000 C   0  0  0  0  0  0  0  0  0  0  0  0
    8.8589   -8.3756    0.0000 C   0  0  2  0  0  0  0  0  0  0  0  0
    8.1504   -7.9530    0.0000 C   0  0  0  0  0  0  0  0  0  0  0  0
    9.5792   -7.9733    0.0000 C   0  0  1  0  0  0  0  0  0  0  0  0
    9.5909   -7.1484    0.0000 C   0  0  0  0  0  0  0  0  0  0  0  0
    8.8823   -6.7258    0.0000 C   0  0  0  0  0  0  0  0  0  0  0  0
    8.1621   -7.1281    0.0000 C   0  0  0  0  0  0  0  0  0  0  0  0
   10.2877   -8.3959    0.0000 C   0  0  0  0  0  0  0  0  0  0  0  0
   11.0080   -7.9935    0.0000 C   0  0  0  0  0  0  0  0  0  0  0  0
   11.0197   -7.1686    0.0000 C   0  0  0  0  0  0  0  0  0  0  0  0
   10.3111   -6.7460    0.0000 C   0  0  0  0  0  0  0  0  0  0  0  0
   11.7399   -6.7663    0.0000 C   0  0  1  0  0  0  0  0  0  0  0  0
   11.7516   -5.9414    0.0000 C   0  0  0  0  0  0  0  0  0  0  0  0
   11.0431   -5.5188    0.0000 C   0  0  1  0  0  0  0  0  0  0  0  0
   10.3228   -5.9211    0.0000 C   0  0  0  0  0  0  0  0  0  0  0  0
   10.6407   -4.7985    0.0000 C   0  0  0  0  0  0  0  0  0  0  0  0
   11.4657   -4.8102    0.0000 C   0  0  0  0  0  0  0  0  0  0  0  0
    9.5675   -8.7982    0.0000 C   0  0  0  0  0  0  0  0  0  0  0  0
    8.8706   -7.5507    0.0000 C   0  0  0  0  0  0  0  0  0  0  0  0
    7.4418   -7.5304    0.0000 C   0  0  0  0  0  0  0  0  0  0  0  0
    6.2756  -10.2912    0.0000 C   0  0  0  0  0  0  0  0  0  0  0  0
    7.1005  -10.3029    0.0000 C   0  0  0  0  0  0  0  0  0  0  0  0
    5.2694   -9.5624    0.0000 O   0  0  0  0  0  0  0  0  0  0  0  0
   12.4432   -7.1787    0.0000 C   0  0  0  0  0  0  0  0  0  0  0  0
   13.1635   -6.7764    0.0000 O   0  0  0  0  0  0  0  0  0  0  0  0
   11.9732   -8.7548    0.0000 C   0  0  2  0  0  0  0  0  0  0  0  0
   11.1484   -8.7348    0.0000 O   0  0  0  0  0  0  0  0  0  0  0  0
   10.7187   -9.4390    0.0000 C   0  0  1  0  0  0  0  0  0  0  0  0
   11.1137  -10.1633    0.0000 C   0  0  2  0  0  0  0  0  0  0  0  0
   11.9385  -10.1833    0.0000 C   0  0  1  0  0  0  0  0  0  0  0  0
   12.3682   -9.4791    0.0000 C   0  0  1  0  0  0  0  0  0  0  0  0
    9.8939   -9.4190    0.0000 C   0  0  0  0  0  0  0  0  0  0  0  0
   12.3335  -10.9076    0.0000 O   0  0  0  0  0  0  0  0  0  0  0  0
   10.6840  -10.8676    0.0000 O   0  0  0  0  0  0  0  0  0  0  0  0
   13.1929   -9.4991    0.0000 O   0  0  0  0  0  0  0  0  0  0  0  0
    9.4642  -10.1232    0.0000 O   0  0  0  0  0  0  0  0  0  0  0  0
   12.4315   -8.0036    0.0000 O   0  0  0  0  0  0  0  0  0  0  0  0
    4.5609   -9.1398    0.0000 C   0  0  2  0  0  0  0  0  0  0  0  0
    4.5726   -8.3148    0.0000 O   0  0  0  0  0  0  0  0  0  0  0  0
    3.8640   -7.8923    0.0000 C   0  0  1  0  0  0  0  0  0  0  0  0
    3.1438   -8.2946    0.0000 C   0  0  2  0  0  0  0  0  0  0  0  0
    3.1321   -9.1195    0.0000 C   0  0  1  0  0  0  0  0  0  0  0  0
    3.8406   -9.5421    0.0000 C   0  0  1  0  0  0  0  0  0  0  0  0
    3.8757   -7.0673    0.0000 C   0  0  0  0  0  0  0  0  0  0  0  0
    2.4118   -9.5218    0.0000 O   0  0  0  0  0  0  0  0  0  0  0  0
    2.4352   -7.8720    0.0000 O   0  0  0  0  0  0  0  0  0  0  0  0
    3.8289  -10.3670    0.0000 O   0  0  0  0  0  0  0  0  0  0  0  0
    3.1671   -6.6448    0.0000 O   0  0  0  0  0  0  0  0  0  0  0  0
    4.5959   -6.6650    0.0000 O   0  0  0  0  0  0  0  0  0  0  0  0
    1.7033   -9.0992    0.0000 C   0  0  1  0  0  0  0  0  0  0  0  0
    1.7150   -8.2743    0.0000 C   0  0  1  0  0  0  0  0  0  0  0  0
    1.7150   -7.4493    0.0000 O   0  0  0  0  0  0  0  0  0  0  0  0
    0.9888  -10.3367    0.0000 C   0  0  0  0  0  0  0  0  0  0  0  0
    1.0005   -7.8618    0.0000 C   0  0  0  0  0  0  0  0  0  0  0  0
    1.0005   -7.0368    0.0000 O   0  0  0  0  0  0  0  0  0  0  0  0
    0.2860   -8.2743    0.0000 O   0  0  0  0  0  0  0  0  0  0  0  0
    1.7033  -10.7492    0.0000 C   0  0  0  0  0  0  0  0  0  0  0  0
    1.7033  -11.5742    0.0000 O   0  0  0  0  0  0  0  0  0  0  0  0
    2.4177  -10.3367    0.0000 O   0  0  0  0  0  0  0  0  0  0  0  0
    0.9888   -9.5117    0.0000 O   0  0  0  0  0  0  0  0  0  0  0  0
  1  2  1  0  0  0  0
  2  3  1  0  0  0  0
  3  4  1  0  0  0  0
  4  5  1  0  0  0  0
  5  6  1  0  0  0  0
  6  1  1  0  0  0  0
  4  7  1  0  0  0  0
  7  8  1  0  0  0  0
  8  9  1  0  0  0  0
  9 10  1  0  0  0  0
 10  5  1  0  0  0  0
  9 11  1  0  0  0  0
 11 12  1  0  0  0  0
 12 13  2  0  0  0  0
 13 14  1  0  0  0  0
 14 10  1  0  0  0  0
 11 15  1  0  0  0  0
 15 16  1  0  0  0  0
 16 17  1  0  0  0  0
 17 18  1  0  0  0  0
 18 12  1  0  0  0  0
 17 19  1  0  0  0  0
 19 20  1  0  0  0  0
 20 21  1  0  0  0  0
 21 22  1  0  0  0  0
 22 18  1  0  0  0  0
 21 23  1  1  0  0  0
 21 24  1  6  0  0  0
 11 25  1  6  0  0  0
  9 26  1  1  0  0  0
  5 27  1  1  0  0  0
  3 28  1  1  0  0  0
  3 29  1  6  0  0  0
  2 30  1  1  0  0  0
 31 32  2  0  0  0  0
 33 34  1  0  0  0  0
 34 35  1  0  0  0  0
 35 36  1  0  0  0  0
 36 37  1  0  0  0  0
 37 38  1  0  0  0  0
 38 33  1  0  0  0  0
 35 39  1  1  0  0  0
 37 40  1  1  0  0  0
 36 41  1  6  0  0  0
 38 42  1  6  0  0  0
 39 43  1  0  0  0  0
 31 44  1  0  0  0  0
 33 44  1  1  0  0  0
 45 30  1  1  0  0  0
 45 46  1  0  0  0  0
 46 47  1  0  0  0  0
 47 48  1  0  0  0  0
 48 49  1  0  0  0  0
 49 50  1  0  0  0  0
 50 45  1  0  0  0  0
 47 51  1  1  0  0  0
 49 52  1  1  0  0  0
 48 53  1  6  0  0  0
 50 54  1  6  0  0  0
 51 55  2  0  0  0  0
 51 56  1  0  0  0  0
 52 57  1  0  0  0  0
 53 58  1  0  0  0  0
 58 59  1  1  0  0  0
 58 57  1  0  0  0  0
 57 67  1  6  0  0  0
 58 61  1  6  0  0  0
 61 62  1  0  0  0  0
 61 63  2  0  0  0  0
 60 64  1  0  0  0  0
 64 65  1  0  0  0  0
 67 60  1  0  0  0  0
 64 66  2  0  0  0  0
 19 31  1  1  0  0  0
M  END
>  <cdx:fragmentId>
242506

$$$$
