96280.cdx
  Mrv1902 05222410182D          

 54 58  0  0  0  0            999 V2000
   10.2734  -11.4605    0.0000 C   0  0  0  0  0  0  0  0  0  0  0  0
   10.6847  -12.1757    0.0000 C   0  0  0  0  0  0  0  0  0  0  0  0
    9.4484  -11.4591    0.0000 O   0  0  0  0  0  0  0  0  0  0  0  0
   10.6871  -10.7467    0.0000 O   0  0  0  0  0  0  0  0  0  0  0  0
    9.0395   -9.3150    0.0000 O   0  0  0  0  0  0  0  0  0  0  0  0
    9.4508  -10.0302    0.0000 C   0  0  0  0  0  0  0  0  0  0  0  0
   10.2758  -10.0316    0.0000 C   0  0  1  0  0  0  0  0  0  0  0  0
   10.6895   -9.3178    0.0000 C   0  0  1  0  0  0  0  0  0  0  0  0
   10.2782   -8.6026    0.0000 C   0  0  2  0  0  0  0  0  0  0  0  0
    9.4532   -8.6013    0.0000 C   0  0  2  0  0  0  0  0  0  0  0  0
   11.5145   -9.3192    0.0000 O   0  0  0  0  0  0  0  0  0  0  0  0
    9.0419   -7.8861    0.0000 O   0  0  0  0  0  0  0  0  0  0  0  0
    4.0895   -8.2986    0.0000 C   0  0  0  0  0  0  0  0  0  0  0  0
    3.3750   -8.7111    0.0000 C   0  0  0  0  0  0  0  0  0  0  0  0
    3.3750   -9.5361    0.0000 C   0  0  0  0  0  0  0  0  0  0  0  0
    4.0895   -9.9486    0.0000 C   0  0  0  0  0  0  0  0  0  0  0  0
    4.8039   -9.5361    0.0000 C   0  0  0  0  0  0  0  0  0  0  0  0
    5.5184   -9.9486    0.0000 C   0  0  0  0  0  0  0  0  0  0  0  0
    6.2329   -9.5361    0.0000 C   0  0  0  0  0  0  0  0  0  0  0  0
    6.2329   -8.7111    0.0000 C   0  0  1  0  0  0  0  0  0  0  0  0
    6.9473   -8.2986    0.0000 C   0  0  2  0  0  0  0  0  0  0  0  0
    7.7320   -8.5535    0.0000 C   0  0  0  0  0  0  0  0  0  0  0  0
    8.2169   -7.8861    0.0000 C   0  0  2  0  0  0  0  0  0  0  0  0
    7.7320   -7.2187    0.0000 C   0  0  1  0  0  0  0  0  0  0  0  0
    6.9473   -7.4736    0.0000 C   0  0  1  0  0  0  0  0  0  0  0  0
    6.2329   -7.0611    0.0000 C   0  0  0  0  0  0  0  0  0  0  0  0
    5.5184   -7.4736    0.0000 C   0  0  0  0  0  0  0  0  0  0  0  0
    5.5184   -8.2986    0.0000 C   0  0  1  0  0  0  0  0  0  0  0  0
    4.8039   -8.7111    0.0000 C   0  0  2  0  0  0  0  0  0  0  0  0
    2.6605   -9.9486    0.0000 O   0  0  0  0  0  0  0  0  0  0  0  0
    6.9473   -9.1236    0.0000 C   0  0  0  0  0  0  0  0  0  0  0  0
    6.9473   -6.6486    0.0000 C   0  0  0  0  0  0  0  0  0  0  0  0
    5.5184   -9.1236    0.0000 C   0  0  0  0  0  0  0  0  0  0  0  0
    4.5020  -10.6631    0.0000 C   0  0  0  0  0  0  0  0  0  0  0  0
    3.6770  -10.6631    0.0000 C   0  0  0  0  0  0  0  0  0  0  0  0
    2.6605   -8.2986    0.0000 O   0  0  0  0  0  0  0  0  0  0  0  0
   10.6919   -7.8889    0.0000 O   0  0  0  0  0  0  0  0  0  0  0  0
   11.5169   -7.8902    0.0000 C   0  0  0  0  0  0  0  0  0  0  0  0
   11.9282   -8.6054    0.0000 O   0  0  0  0  0  0  0  0  0  0  0  0
   11.9306   -7.1765    0.0000 C   0  0  0  0  0  0  0  0  0  0  0  0
    6.2329   -7.8861    0.0000 H   0  0  0  0  0  0  0  0  0  0  0  0
    4.8039   -7.8861    0.0000 H   0  0  0  0  0  0  0  0  0  0  0  0
    7.9869   -6.4340    0.0000 C   0  0  0  0  0  0  0  0  0  0  0  0
    8.2004   -5.6371    0.0000 C   0  0  0  0  0  0  0  0  0  0  0  0
    8.7779   -6.6683    0.0000 O   0  0  0  0  0  0  0  0  0  0  0  0
    7.1959   -6.1997    0.0000 C   0  0  0  0  0  0  0  0  0  0  0  0
    8.9973   -5.4236    0.0000 C   0  0  0  0  0  0  0  0  0  0  0  0
    7.6171   -5.0538    0.0000 O   0  0  0  0  0  0  0  0  0  0  0  0
    9.2108   -4.6267    0.0000 C   0  0  0  0  0  0  0  0  0  0  0  0
   10.0077   -4.4132    0.0000 C   0  0  0  0  0  0  0  0  0  0  0  0
   10.8046   -4.1997    0.0000 O   0  0  0  0  0  0  0  0  0  0  0  0
    9.7942   -3.6163    0.0000 C   0  0  0  0  0  0  0  0  0  0  0  0
   10.2213   -5.2101    0.0000 C   0  0  0  0  0  0  0  0  0  0  0  0
    8.5288   -7.0051    0.0000 H   0  0  0  0  0  0  0  0  0  0  0  0
  1  2  1  0  0  0  0
  1  3  2  0  0  0  0
  1  4  1  0  0  0  0
  5  6  1  0  0  0  0
  6  7  1  0  0  0  0
  7  8  1  0  0  0  0
  8  9  1  0  0  0  0
  9 10  1  0  0  0  0
  5 10  1  0  0  0  0
  8 11  1  1  0  0  0
 13 14  2  0  0  0  0
 14 15  1  0  0  0  0
 15 16  1  0  0  0  0
 16 17  1  0  0  0  0
 17 18  2  0  0  0  0
 18 19  1  0  0  0  0
 19 20  1  0  0  0  0
 20 21  1  0  0  0  0
 21 22  1  0  0  0  0
 22 23  1  0  0  0  0
 23 24  1  0  0  0  0
 24 25  1  0  0  0  0
 21 25  1  0  0  0  0
 25 26  1  0  0  0  0
 26 27  1  0  0  0  0
 27 28  1  0  0  0  0
 20 28  1  0  0  0  0
 28 29  1  0  0  0  0
 17 29  1  0  0  0  0
 13 29  1  0  0  0  0
 15 30  2  0  0  0  0
 21 31  1  6  0  0  0
 25 32  1  1  0  0  0
 28 33  1  1  0  0  0
 16 34  1  0  0  0  0
 16 35  1  0  0  0  0
 14 36  1  0  0  0  0
 23 12  1  6  0  0  0
 10 12  1  1  0  0  0
 38 39  2  0  0  0  0
 38 40  1  0  0  0  0
 37 38  1  0  0  0  0
  9 37  1  6  0  0  0
  7  4  1  1  0  0  0
 20 41  1  1  0  0  0
 29 42  1  6  0  0  0
 24 43  1  0  0  0  0
 43 44  1  0  0  0  0
 43 45  1  1  0  0  0
 43 46  1  0  0  0  0
 44 47  1  0  0  0  0
 44 48  2  0  0  0  0
 47 49  2  0  0  0  0
 49 50  1  0  0  0  0
 50 51  1  0  0  0  0
 50 52  1  0  0  0  0
 50 53  1  0  0  0  0
 24 54  1  6  0  0  0
M  END
>  <cdx:fragmentId>
29

$$$$
