96286.cdx
  Mrv1902 05222410192D          

 60 66  0  0  0  0            999 V2000
   17.3134   -8.5090    0.0000 O   0  0  0  0  0  0  0  0  0  0  0  0
   18.0242   -8.9274    0.0000 C   0  0  2  0  0  0  0  0  0  0  0  0
   18.0173   -9.7521    0.0000 O   0  0  0  0  0  0  0  0  0  0  0  0
   18.7280  -10.1705    0.0000 C   0  0  1  0  0  0  0  0  0  0  0  0
   19.4457   -9.7641    0.0000 C   0  0  2  0  0  0  0  0  0  0  0  0
   12.2396   -8.9741    0.0000 C   0  0  0  0  0  0  0  0  0  0  0  0
    8.7235  -11.9276    0.0000 O   0  0  0  0  0  0  0  0  0  0  0  0
   19.4526   -8.9394    0.0000 C   0  0  1  0  0  0  0  0  0  0  0  0
   18.7419   -8.5210    0.0000 C   0  0  1  0  0  0  0  0  0  0  0  0
   18.7211  -10.9952    0.0000 C   0  0  0  0  0  0  0  0  0  0  0  0
   19.4319  -11.4135    0.0000 O   0  0  0  0  0  0  0  0  0  0  0  0
   18.7488   -7.6963    0.0000 O   0  0  0  0  0  0  0  0  0  0  0  0
   20.1703   -8.5330    0.0000 O   0  0  0  0  0  0  0  0  0  0  0  0
   20.1565  -10.1824    0.0000 O   0  0  0  0  0  0  0  0  0  0  0  0
   16.6227   -9.7594    0.0000 O   0  0  0  0  0  0  0  0  0  0  0  0
   16.6071   -8.9348    0.0000 C   0  0  0  0  0  0  0  0  0  0  0  0
   16.1700   -6.1233    0.0000 C   0  0  0  0  0  0  0  0  0  0  0  0
   15.3454   -6.1388    0.0000 C   0  0  0  0  0  0  0  0  0  0  0  0
   11.9901  -11.7554    0.0000 C   0  0  0  0  0  0  0  0  0  0  0  0
   11.1655  -11.7710    0.0000 C   0  0  0  0  0  0  0  0  0  0  0  0
    8.6612   -8.6292    0.0000 C   0  0  0  0  0  0  0  0  0  0  0  0
    7.9393   -8.2304    0.0000 O   0  0  0  0  0  0  0  0  0  0  0  0
    9.3675   -8.2034    0.0000 O   0  0  0  0  0  0  0  0  0  0  0  0
   16.5087   -8.0686    0.0000 C   0  0  0  0  0  0  0  0  0  0  0  0
   16.4931   -7.2440    0.0000 C   0  0  0  0  0  0  0  0  0  0  0  0
   15.7712   -6.8452    0.0000 C   0  0  0  0  0  0  0  0  0  0  0  0
   15.0649   -7.2710    0.0000 C   0  0  0  0  0  0  0  0  0  0  0  0
   15.1116   -9.7447    0.0000 C   0  0  0  0  0  0  0  0  0  0  0  0
   15.8179   -9.3190    0.0000 C   0  0  0  0  0  0  0  0  0  0  0  0
   15.8024   -8.4944    0.0000 C   0  0  1  0  0  0  0  0  0  0  0  0
   15.0805   -8.0956    0.0000 C   0  0  2  0  0  0  0  0  0  0  0  0
   14.3897   -9.3459    0.0000 C   0  0  2  0  0  0  0  0  0  0  0  0
   14.3741   -8.5213    0.0000 C   0  0  0  0  0  0  0  0  0  0  0  0
   13.6522   -8.1225    0.0000 C   0  0  0  0  0  0  0  0  0  0  0  0
   12.9459   -8.5483    0.0000 C   0  0  0  0  0  0  0  0  0  0  0  0
   12.9926  -11.0221    0.0000 C   0  0  0  0  0  0  0  0  0  0  0  0
   13.6989  -10.5963    0.0000 C   0  0  0  0  0  0  0  0  0  0  0  0
   13.6834   -9.7717    0.0000 C   0  0  2  0  0  0  0  0  0  0  0  0
   12.9615   -9.3729    0.0000 C   0  0  1  0  0  0  0  0  0  0  0  0
   11.5644  -11.0491    0.0000 C   0  0  0  0  0  0  0  0  0  0  0  0
   12.2707  -10.6233    0.0000 C   0  0  1  0  0  0  0  0  0  0  0  0
   12.2551   -9.7987    0.0000 C   0  0  1  0  0  0  0  0  0  0  0  0
   11.5332   -9.3999    0.0000 C   0  0  0  0  0  0  0  0  0  0  0  0
   10.1361  -11.0760    0.0000 O   0  0  0  0  0  0  0  0  0  0  0  0
   10.8425  -10.6502    0.0000 C   0  0  1  0  0  0  0  0  0  0  0  0
   10.8269   -9.8256    0.0000 C   0  0  0  0  0  0  0  0  0  0  0  0
    8.7079  -11.1030    0.0000 C   0  0  1  0  0  0  0  0  0  0  0  0
    9.4142  -10.6772    0.0000 C   0  0  1  0  0  0  0  0  0  0  0  0
    9.3986   -9.8526    0.0000 O   0  0  0  0  0  0  0  0  0  0  0  0
    8.6767   -9.4538    0.0000 C   0  0  1  0  0  0  0  0  0  0  0  0
    7.2796  -11.1300    0.0000 O   0  0  0  0  0  0  0  0  0  0  0  0
    7.9860  -10.7042    0.0000 C   0  0  1  0  0  0  0  0  0  0  0  0
    7.9704   -9.8796    0.0000 C   0  0  2  0  0  0  0  0  0  0  0  0
    7.2485   -9.4808    0.0000 O   0  0  0  0  0  0  0  0  0  0  0  0
   12.2863  -11.4479    0.0000 H   0  0  0  0  0  0  0  0  0  0  0  0
   12.9770  -10.1975    0.0000 H   0  0  0  0  0  0  0  0  0  0  0  0
   13.6678   -8.9471    0.0000 C   0  0  0  0  0  0  0  0  0  0  0  0
   14.4053  -10.1705    0.0000 C   0  0  0  0  0  0  0  0  0  0  0  0
   14.3660   -7.6831    0.0000 H   0  0  0  0  0  0  0  0  0  0  0  0
   18.0032  -11.4017    0.0000 O   0  0  0  0  0  0  0  0  0  0  0  0
 30 16  1  1  0  0  0
  2  1  1  1  0  0  0
 42  6  1  1  0  0  0
 47  7  1  6  0  0  0
  2  3  1  0  0  0  0
  3  4  1  0  0  0  0
  4  5  1  0  0  0  0
  5  8  1  0  0  0  0
  8  9  1  0  0  0  0
  9  2  1  0  0  0  0
  4 10  1  1  0  0  0
 10 11  1  0  0  0  0
  9 12  1  6  0  0  0
  8 13  1  1  0  0  0
 16 15  2  0  0  0  0
 16  1  1  0  0  0  0
  5 14  1  6  0  0  0
 26 17  1  0  0  0  0
 26 18  1  0  0  0  0
 40 19  1  0  0  0  0
 40 20  1  0  0  0  0
 21 22  1  0  0  0  0
 50 21  1  1  0  0  0
 21 23  2  0  0  0  0
 24 30  1  0  0  0  0
 25 24  1  0  0  0  0
 26 25  1  0  0  0  0
 27 26  1  0  0  0  0
 31 27  1  0  0  0  0
 28 32  1  0  0  0  0
 29 28  1  0  0  0  0
 30 29  1  0  0  0  0
 31 30  1  0  0  0  0
 33 31  1  0  0  0  0
 32 38  1  0  0  0  0
 33 32  1  0  0  0  0
 34 33  2  0  0  0  0
 35 34  1  0  0  0  0
 39 35  1  0  0  0  0
 36 41  1  0  0  0  0
 37 36  1  0  0  0  0
 38 37  1  0  0  0  0
 39 38  1  0  0  0  0
 42 39  1  0  0  0  0
 40 45  1  0  0  0  0
 41 40  1  0  0  0  0
 42 41  1  0  0  0  0
 43 42  1  0  0  0  0
 46 43  1  0  0  0  0
 48 44  1  1  0  0  0
 45 44  1  1  0  0  0
 46 45  1  0  0  0  0
 47 52  1  0  0  0  0
 48 47  1  0  0  0  0
 49 48  1  0  0  0  0
 50 49  1  0  0  0  0
 53 50  1  0  0  0  0
 52 51  1  1  0  0  0
 53 52  1  0  0  0  0
 53 54  1  6  0  0  0
 41 55  1  6  0  0  0
 39 56  1  6  0  0  0
 38 57  1  1  0  0  0
 32 58  1  6  0  0  0
 31 59  1  1  0  0  0
 10 60  2  0  0  0  0
M  END
>  <cdx:fragmentId>
5

$$$$
