9628.cdx
  Mrv1902 05222410272D          

 25 29  0  0  0  0            999 V2000
    9.6262   -5.7900    0.0000 C   0  0  0  0  0  0  0  0  0  0  0  0
    8.9141   -5.3735    0.0000 C   0  0  0  0  0  0  0  0  0  0  0  0
    8.1973   -5.7820    0.0000 C   0  0  0  0  0  0  0  0  0  0  0  0
    8.1927   -6.6070    0.0000 C   0  0  0  0  0  0  0  0  0  0  0  0
    8.9049   -7.0235    0.0000 C   0  0  0  0  0  0  0  0  0  0  0  0
    9.6216   -6.6150    0.0000 C   0  0  0  0  0  0  0  0  0  0  0  0
    7.4759   -7.0155    0.0000 C   0  0  0  0  0  0  0  0  0  0  0  0
    7.4713   -7.8405    0.0000 N   0  3  0  0  0  0  0  0  0  0  0  0
    8.1835   -8.2570    0.0000 C   0  0  0  0  0  0  0  0  0  0  0  0
    8.9002   -7.8485    0.0000 C   0  0  0  0  0  0  0  0  0  0  0  0
    6.7638   -6.5990    0.0000 C   0  0  0  0  0  0  0  0  0  0  0  0
    6.0470   -7.0075    0.0000 C   0  0  0  0  0  0  0  0  0  0  0  0
    6.0424   -7.8325    0.0000 C   0  0  0  0  0  0  0  0  0  0  0  0
    6.7546   -8.2490    0.0000 C   0  0  0  0  0  0  0  0  0  0  0  0
    5.3349   -6.5910    0.0000 C   0  0  0  0  0  0  0  0  0  0  0  0
    4.6181   -6.9995    0.0000 C   0  0  0  0  0  0  0  0  0  0  0  0
    4.6135   -7.8245    0.0000 C   0  0  0  0  0  0  0  0  0  0  0  0
    5.3256   -8.2410    0.0000 C   0  0  0  0  0  0  0  0  0  0  0  0
   10.3430   -5.3815    0.0000 O   0  0  0  0  0  0  0  0  0  0  0  0
    8.9187   -4.5485    0.0000 O   0  0  0  0  0  0  0  0  0  0  0  0
    6.7684   -5.7740    0.0000 C   0  0  0  0  0  0  0  0  0  0  0  0
    3.9973   -8.3731    0.0000 O   0  0  0  0  0  0  0  0  0  0  0  0
    4.3287   -9.1286    0.0000 C   0  0  0  0  0  0  0  0  0  0  0  0
    5.1496   -9.0470    0.0000 O   0  0  0  0  0  0  0  0  0  0  0  0
   11.0552   -5.7980    0.0000 C   0  0  0  0  0  0  0  0  0  0  0  0
  1  2  2  0  0  0  0
  2  3  1  0  0  0  0
  3  4  2  0  0  0  0
  4  5  1  0  0  0  0
  5  6  2  0  0  0  0
  6  1  1  0  0  0  0
  4  7  1  0  0  0  0
  7  8  2  0  0  0  0
  8  9  1  0  0  0  0
  9 10  1  0  0  0  0
 10  5  1  0  0  0  0
  7 11  1  0  0  0  0
 11 12  2  0  0  0  0
 12 13  1  0  0  0  0
 13 14  2  0  0  0  0
 14  8  1  0  0  0  0
 12 15  1  0  0  0  0
 15 16  2  0  0  0  0
 16 17  1  0  0  0  0
 17 18  2  0  0  0  0
 18 13  1  0  0  0  0
  1 19  1  0  0  0  0
  2 20  1  0  0  0  0
 11 21  1  0  0  0  0
 17 22  1  0  0  0  0
 22 23  1  0  0  0  0
 23 24  1  0  0  0  0
 24 18  1  0  0  0  0
 19 25  1  0  0  0  0
M  CHG  1   8   1
M  END
>  <cdx:fragmentId>
5

$$$$
