96291.cdx
  Mrv1902 05222410202D          

 11 10  0  0  0  0            999 V2000
    7.9716   -7.9603    0.0000 C   0  0  0  0  0  0  0  0  0  0  0  0
    7.2571   -7.5478    0.0000 C   0  0  0  0  0  0  0  0  0  0  0  0
    6.5426   -7.9603    0.0000 C   0  0  0  0  0  0  0  0  0  0  0  0
    5.8282   -7.5478    0.0000 C   0  0  0  0  0  0  0  0  0  0  0  0
    8.6861   -7.5478    0.0000 C   0  0  0  0  0  0  0  0  0  0  0  0
    9.4005   -7.9603    0.0000 C   0  0  0  0  0  0  0  0  0  0  0  0
    8.6861   -6.7228    0.0000 C   0  0  0  0  0  0  0  0  0  0  0  0
    7.9716   -8.7853    0.0000 C   0  0  0  0  0  0  0  0  0  0  0  0
    7.2571   -9.1978    0.0000 O   0  0  0  0  0  0  0  0  0  0  0  0
    5.8282   -6.7228    0.0000 C   0  0  0  0  0  0  0  0  0  0  0  0
    5.1137   -7.9603    0.0000 C   0  0  0  0  0  0  0  0  0  0  0  0
  1  2  1  0  0  0  0
  2  3  1  0  0  0  0
  3  4  1  0  0  0  0
  1  5  1  0  0  0  0
  5  6  1  0  0  0  0
  5  7  1  0  0  0  0
  1  8  1  0  0  0  0
  8  9  1  0  0  0  0
  4 10  1  0  0  0  0
  4 11  1  0  0  0  0
M  END
>  <cdx:fragmentId>
5

$$$$
