96293.cdx
  Mrv1902 05222410192D          

 71 78  0  0  0  0            999 V2000
    6.9638   -8.4726    0.0000 C   0  0  0  0  0  0  0  0  0  0  0  0
    6.9522   -9.2975    0.0000 C   0  0  1  0  0  0  0  0  0  0  0  0
    7.6607   -9.7201    0.0000 C   0  0  1  0  0  0  0  0  0  0  0  0
    8.3810   -9.3178    0.0000 C   0  0  0  0  0  0  0  0  0  0  0  0
    8.3926   -8.4929    0.0000 C   0  0  2  0  0  0  0  0  0  0  0  0
    7.6841   -8.0703    0.0000 C   0  0  0  0  0  0  0  0  0  0  0  0
    9.0895   -9.7404    0.0000 C   0  0  0  0  0  0  0  0  0  0  0  0
    9.8097   -9.3380    0.0000 C   0  0  0  0  0  0  0  0  0  0  0  0
    9.8214   -8.5131    0.0000 C   0  0  2  0  0  0  0  0  0  0  0  0
    9.1129   -8.0905    0.0000 C   0  0  0  0  0  0  0  0  0  0  0  0
   10.5417   -8.1108    0.0000 C   0  0  1  0  0  0  0  0  0  0  0  0
   10.5534   -7.2859    0.0000 C   0  0  0  0  0  0  0  0  0  0  0  0
    9.8448   -6.8633    0.0000 C   0  0  0  0  0  0  0  0  0  0  0  0
    9.1246   -7.2656    0.0000 C   0  0  0  0  0  0  0  0  0  0  0  0
   11.2502   -8.5334    0.0000 C   0  0  0  0  0  0  0  0  0  0  0  0
   11.9705   -8.1310    0.0000 C   0  0  0  0  0  0  0  0  0  0  0  0
   11.9822   -7.3061    0.0000 C   0  0  2  0  0  0  0  0  0  0  0  0
   11.2736   -6.8835    0.0000 C   0  0  0  0  0  0  0  0  0  0  0  0
   12.7024   -6.9038    0.0000 C   0  0  0  0  0  0  0  0  0  0  0  0
   12.7141   -6.0789    0.0000 C   0  0  0  0  0  0  0  0  0  0  0  0
   12.0056   -5.6563    0.0000 C   0  0  1  0  0  0  0  0  0  0  0  0
   11.2853   -6.0586    0.0000 C   0  0  0  0  0  0  0  0  0  0  0  0
   11.6032   -4.9360    0.0000 C   0  0  0  0  0  0  0  0  0  0  0  0
   12.4282   -4.9477    0.0000 C   0  0  0  0  0  0  0  0  0  0  0  0
   10.5300   -8.9357    0.0000 C   0  0  0  0  0  0  0  0  0  0  0  0
    9.8331   -7.6882    0.0000 C   0  0  0  0  0  0  0  0  0  0  0  0
    8.4043   -7.6679    0.0000 C   0  0  0  0  0  0  0  0  0  0  0  0
    7.2381  -10.4287    0.0000 C   0  0  0  0  0  0  0  0  0  0  0  0
    8.0630  -10.4404    0.0000 C   0  0  0  0  0  0  0  0  0  0  0  0
    6.2319   -9.6999    0.0000 O   0  0  0  0  0  0  0  0  0  0  0  0
   12.6907   -7.7287    0.0000 C   0  0  0  0  0  0  0  0  0  0  0  0
   13.4110   -7.3264    0.0000 O   0  0  0  0  0  0  0  0  0  0  0  0
   12.2207   -9.3048    0.0000 C   0  0  2  0  0  0  0  0  0  0  0  0
   11.3959   -9.2848    0.0000 O   0  0  0  0  0  0  0  0  0  0  0  0
   10.9662   -9.9890    0.0000 C   0  0  1  0  0  0  0  0  0  0  0  0
   11.3612  -10.7133    0.0000 C   0  0  2  0  0  0  0  0  0  0  0  0
   12.1860  -10.7333    0.0000 C   0  0  1  0  0  0  0  0  0  0  0  0
   12.6157  -10.0291    0.0000 C   0  0  1  0  0  0  0  0  0  0  0  0
   10.1414   -9.9690    0.0000 C   0  0  0  0  0  0  0  0  0  0  0  0
   12.5810  -11.4576    0.0000 O   0  0  0  0  0  0  0  0  0  0  0  0
   10.9315  -11.4176    0.0000 O   0  0  0  0  0  0  0  0  0  0  0  0
   13.4404  -10.0491    0.0000 O   0  0  0  0  0  0  0  0  0  0  0  0
    9.7117  -10.6732    0.0000 O   0  0  0  0  0  0  0  0  0  0  0  0
   12.6790   -8.5536    0.0000 O   0  0  0  0  0  0  0  0  0  0  0  0
    5.5234   -9.2773    0.0000 C   0  0  2  0  0  0  0  0  0  0  0  0
    5.5351   -8.4523    0.0000 O   0  0  0  0  0  0  0  0  0  0  0  0
    4.8265   -8.0298    0.0000 C   0  0  1  0  0  0  0  0  0  0  0  0
    4.1063   -8.4321    0.0000 C   0  0  2  0  0  0  0  0  0  0  0  0
    4.0946   -9.2570    0.0000 C   0  0  1  0  0  0  0  0  0  0  0  0
    4.8031   -9.6796    0.0000 C   0  0  1  0  0  0  0  0  0  0  0  0
    4.8382   -7.2048    0.0000 C   0  0  0  0  0  0  0  0  0  0  0  0
    3.3743   -9.6593    0.0000 O   0  0  0  0  0  0  0  0  0  0  0  0
    3.3977   -8.0095    0.0000 O   0  0  0  0  0  0  0  0  0  0  0  0
    4.7914  -10.5045    0.0000 O   0  0  0  0  0  0  0  0  0  0  0  0
    4.1296   -6.7823    0.0000 O   0  0  0  0  0  0  0  0  0  0  0  0
    5.5584   -6.8025    0.0000 O   0  0  0  0  0  0  0  0  0  0  0  0
    2.6658   -9.2367    0.0000 C   0  0  1  0  0  0  0  0  0  0  0  0
    2.6775   -8.4118    0.0000 C   0  0  1  0  0  0  0  0  0  0  0  0
    2.6775   -7.5868    0.0000 O   0  0  0  0  0  0  0  0  0  0  0  0
    1.9513  -10.4742    0.0000 C   0  0  0  0  0  0  0  0  0  0  0  0
    1.9630   -7.9993    0.0000 C   0  0  0  0  0  0  0  0  0  0  0  0
    1.9630   -7.1743    0.0000 O   0  0  0  0  0  0  0  0  0  0  0  0
    1.2485   -8.4118    0.0000 O   0  0  0  0  0  0  0  0  0  0  0  0
    2.6658  -10.8867    0.0000 C   0  0  0  0  0  0  0  0  0  0  0  0
    2.6658  -11.7117    0.0000 O   0  0  0  0  0  0  0  0  0  0  0  0
    3.3802  -10.4742    0.0000 O   0  0  0  0  0  0  0  0  0  0  0  0
    1.9513  -12.1242    0.0000 C   0  0  0  0  0  0  0  0  0  0  0  0
    5.5584   -5.9775    0.0000 C   0  0  0  0  0  0  0  0  0  0  0  0
    1.2485   -6.7618    0.0000 C   0  0  0  0  0  0  0  0  0  0  0  0
    1.9513   -9.6492    0.0000 O   0  0  0  0  0  0  0  0  0  0  0  0
    3.3919   -7.1743    0.0000 C   0  0  0  0  0  0  0  0  0  0  0  0
  1  2  1  0  0  0  0
  2  3  1  0  0  0  0
  3  4  1  0  0  0  0
  4  5  1  0  0  0  0
  5  6  1  0  0  0  0
  6  1  1  0  0  0  0
  4  7  1  0  0  0  0
  7  8  1  0  0  0  0
  8  9  1  0  0  0  0
  9 10  1  0  0  0  0
 10  5  1  0  0  0  0
  9 11  1  0  0  0  0
 11 12  1  0  0  0  0
 12 13  2  0  0  0  0
 13 14  1  0  0  0  0
 14 10  1  0  0  0  0
 11 15  1  0  0  0  0
 15 16  1  0  0  0  0
 16 17  1  0  0  0  0
 17 18  1  0  0  0  0
 18 12  1  0  0  0  0
 17 19  1  0  0  0  0
 19 20  1  0  0  0  0
 20 21  1  0  0  0  0
 21 22  1  0  0  0  0
 22 18  1  0  0  0  0
 21 23  1  1  0  0  0
 21 24  1  6  0  0  0
 11 25  1  6  0  0  0
  9 26  1  1  0  0  0
  5 27  1  1  0  0  0
  3 28  1  1  0  0  0
  3 29  1  6  0  0  0
  2 30  1  1  0  0  0
 17 31  1  1  0  0  0
 31 32  2  0  0  0  0
 33 34  1  0  0  0  0
 34 35  1  0  0  0  0
 35 36  1  0  0  0  0
 36 37  1  0  0  0  0
 37 38  1  0  0  0  0
 38 33  1  0  0  0  0
 35 39  1  1  0  0  0
 37 40  1  1  0  0  0
 36 41  1  6  0  0  0
 38 42  1  6  0  0  0
 39 43  1  0  0  0  0
 31 44  1  0  0  0  0
 33 44  1  1  0  0  0
 45 30  1  1  0  0  0
 45 46  1  0  0  0  0
 46 47  1  0  0  0  0
 47 48  1  0  0  0  0
 48 49  1  0  0  0  0
 49 50  1  0  0  0  0
 50 45  1  0  0  0  0
 47 51  1  1  0  0  0
 49 52  1  1  0  0  0
 48 53  1  6  0  0  0
 50 54  1  6  0  0  0
 51 55  2  0  0  0  0
 51 56  1  0  0  0  0
 52 57  1  0  0  0  0
 53 58  1  0  0  0  0
 58 59  1  1  0  0  0
 58 57  1  0  0  0  0
 57 70  1  6  0  0  0
 58 61  1  6  0  0  0
 61 62  1  0  0  0  0
 61 63  2  0  0  0  0
 60 64  1  0  0  0  0
 64 65  1  0  0  0  0
 64 66  2  0  0  0  0
 70 60  1  0  0  0  0
 56 68  1  0  0  0  0
 62 69  1  0  0  0  0
 65 67  1  0  0  0  0
 59 71  1  0  0  0  0
M  END
>  <cdx:fragmentId>
242823

$$$$
