9629.cdx
  Mrv1902 05222410272D          

 18 20  0  0  0  0            999 V2000
    6.2375   -6.6492    0.0000 H   0  0  0  0  0  0  0  0  0  0  0  0
    6.2157   -9.1241    0.0000 C   0  0  0  0  0  0  0  0  0  0  0  0
    9.7500   -7.9177    0.0000 O   0  0  0  0  0  0  0  0  0  0  0  0
    8.6665   -6.4437    0.0000 C   0  0  0  0  0  0  0  0  0  0  0  0
    5.5267   -6.2304    0.0000 C   0  0  0  0  0  0  0  0  0  0  0  0
    8.4342   -8.5735    0.0000 O   0  0  0  0  0  0  0  0  0  0  0  0
    8.9250   -7.9104    0.0000 C   0  0  0  0  0  0  0  0  0  0  0  0
    8.4460   -7.2387    0.0000 C   0  0  0  0  0  0  0  0  0  0  0  0
    6.9338   -8.7179    0.0000 C   0  0  0  0  0  0  0  0  0  0  0  0
    7.6519   -8.3117    0.0000 C   0  0  0  0  0  0  0  0  0  0  0  0
    7.6591   -7.4867    0.0000 C   0  0  0  0  0  0  0  0  0  0  0  0
    6.9483   -7.0680    0.0000 C   0  0  0  0  0  0  0  0  0  0  0  0
    5.5049   -8.7053    0.0000 C   0  0  0  0  0  0  0  0  0  0  0  0
    6.2230   -8.2991    0.0000 C   0  0  2  0  0  0  0  0  0  0  0  0
    6.2303   -7.4742    0.0000 C   0  0  2  0  0  0  0  0  0  0  0  0
    5.5194   -7.0554    0.0000 C   0  0  0  0  0  0  0  0  0  0  0  0
    4.8014   -7.4616    0.0000 C   0  0  0  0  0  0  0  0  0  0  0  0
    4.7941   -8.2865    0.0000 C   0  0  0  0  0  0  0  0  0  0  0  0
 15  1  1  1  0  0  0
 14  2  1  6  0  0  0
  7  3  2  0  0  0  0
  8  4  1  0  0  0  0
 16  5  2  0  0  0  0
  6 10  1  0  0  0  0
  7  6  1  0  0  0  0
  8  7  1  0  0  0  0
 11  8  2  0  0  0  0
  9 14  1  0  0  0  0
 10  9  2  0  0  0  0
 11 10  1  0  0  0  0
 12 11  1  0  0  0  0
 15 12  1  0  0  0  0
 13 18  2  0  0  0  0
 14 13  1  0  0  0  0
 15 14  1  0  0  0  0
 16 15  1  0  0  0  0
 17 16  1  0  0  0  0
 18 17  1  0  0  0  0
M  END
>  <cdx:fragmentId>
5

$$$$
