96292.cdx
  Mrv1902 05222410192D          

 71 78  0  0  0  0            999 V2000
    6.6338   -8.5551    0.0000 C   0  0  0  0  0  0  0  0  0  0  0  0
    6.6222   -9.3800    0.0000 C   0  0  1  0  0  0  0  0  0  0  0  0
    7.3307   -9.8026    0.0000 C   0  0  1  0  0  0  0  0  0  0  0  0
    8.0510   -9.4003    0.0000 C   0  0  1  0  0  0  0  0  0  0  0  0
    8.0626   -8.5754    0.0000 C   0  0  2  0  0  0  0  0  0  0  0  0
    7.3541   -8.1528    0.0000 C   0  0  0  0  0  0  0  0  0  0  0  0
    8.7595   -9.8229    0.0000 C   0  0  0  0  0  0  0  0  0  0  0  0
    9.4797   -9.4205    0.0000 C   0  0  0  0  0  0  0  0  0  0  0  0
    9.4914   -8.5956    0.0000 C   0  0  2  0  0  0  0  0  0  0  0  0
    8.7829   -8.1730    0.0000 C   0  0  2  0  0  0  0  0  0  0  0  0
   10.2117   -8.1933    0.0000 C   0  0  1  0  0  0  0  0  0  0  0  0
   10.2234   -7.3684    0.0000 C   0  0  0  0  0  0  0  0  0  0  0  0
    9.5148   -6.9458    0.0000 C   0  0  0  0  0  0  0  0  0  0  0  0
    8.7946   -7.3481    0.0000 C   0  0  0  0  0  0  0  0  0  0  0  0
   10.9202   -8.6159    0.0000 C   0  0  0  0  0  0  0  0  0  0  0  0
   11.6405   -8.2135    0.0000 C   0  0  0  0  0  0  0  0  0  0  0  0
   11.6522   -7.3886    0.0000 C   0  0  2  0  0  0  0  0  0  0  0  0
   10.9436   -6.9660    0.0000 C   0  0  1  0  0  0  0  0  0  0  0  0
   12.3724   -6.9863    0.0000 C   0  0  0  0  0  0  0  0  0  0  0  0
   12.3841   -6.1614    0.0000 C   0  0  0  0  0  0  0  0  0  0  0  0
   11.6756   -5.7388    0.0000 C   0  0  1  0  0  0  0  0  0  0  0  0
   10.9553   -6.1411    0.0000 C   0  0  0  0  0  0  0  0  0  0  0  0
   11.2732   -5.0185    0.0000 C   0  0  0  0  0  0  0  0  0  0  0  0
   12.0982   -5.0302    0.0000 C   0  0  0  0  0  0  0  0  0  0  0  0
   10.2000   -9.0182    0.0000 C   0  0  0  0  0  0  0  0  0  0  0  0
    9.5031   -7.7707    0.0000 C   0  0  0  0  0  0  0  0  0  0  0  0
    8.0743   -7.7504    0.0000 C   0  0  0  0  0  0  0  0  0  0  0  0
    6.9081  -10.5112    0.0000 C   0  0  0  0  0  0  0  0  0  0  0  0
    7.7330  -10.5229    0.0000 C   0  0  0  0  0  0  0  0  0  0  0  0
    5.9019   -9.7824    0.0000 O   0  0  0  0  0  0  0  0  0  0  0  0
   12.3607   -7.8112    0.0000 C   0  0  0  0  0  0  0  0  0  0  0  0
   13.0810   -7.4089    0.0000 O   0  0  0  0  0  0  0  0  0  0  0  0
   11.8907   -9.3873    0.0000 C   0  0  2  0  0  0  0  0  0  0  0  0
   11.0659   -9.3673    0.0000 O   0  0  0  0  0  0  0  0  0  0  0  0
   10.6362  -10.0715    0.0000 C   0  0  1  0  0  0  0  0  0  0  0  0
   11.0312  -10.7958    0.0000 C   0  0  2  0  0  0  0  0  0  0  0  0
   11.8560  -10.8158    0.0000 C   0  0  1  0  0  0  0  0  0  0  0  0
   12.2857  -10.1116    0.0000 C   0  0  1  0  0  0  0  0  0  0  0  0
    9.8114  -10.0515    0.0000 C   0  0  0  0  0  0  0  0  0  0  0  0
   12.2510  -11.5401    0.0000 O   0  0  0  0  0  0  0  0  0  0  0  0
   10.6015  -11.5001    0.0000 O   0  0  0  0  0  0  0  0  0  0  0  0
   13.1104  -10.1316    0.0000 O   0  0  0  0  0  0  0  0  0  0  0  0
    9.3817  -10.7557    0.0000 O   0  0  0  0  0  0  0  0  0  0  0  0
   12.3490   -8.6361    0.0000 O   0  0  0  0  0  0  0  0  0  0  0  0
    5.1934   -9.3598    0.0000 C   0  0  2  0  0  0  0  0  0  0  0  0
    5.2051   -8.5348    0.0000 O   0  0  0  0  0  0  0  0  0  0  0  0
    4.4965   -8.1123    0.0000 C   0  0  1  0  0  0  0  0  0  0  0  0
    3.7763   -8.5146    0.0000 C   0  0  2  0  0  0  0  0  0  0  0  0
    3.7646   -9.3395    0.0000 C   0  0  1  0  0  0  0  0  0  0  0  0
    4.4731   -9.7621    0.0000 C   0  0  1  0  0  0  0  0  0  0  0  0
    4.5082   -7.2873    0.0000 C   0  0  0  0  0  0  0  0  0  0  0  0
    3.0443   -9.7418    0.0000 O   0  0  0  0  0  0  0  0  0  0  0  0
    3.0677   -8.0920    0.0000 O   0  0  0  0  0  0  0  0  0  0  0  0
    4.4614  -10.5870    0.0000 O   0  0  0  0  0  0  0  0  0  0  0  0
    3.7996   -6.8648    0.0000 O   0  0  0  0  0  0  0  0  0  0  0  0
    5.2284   -6.8850    0.0000 O   0  0  0  0  0  0  0  0  0  0  0  0
    2.3358   -9.3192    0.0000 C   0  0  1  0  0  0  0  0  0  0  0  0
    2.3475   -8.4943    0.0000 C   0  0  1  0  0  0  0  0  0  0  0  0
    2.3475   -7.6693    0.0000 O   0  0  0  0  0  0  0  0  0  0  0  0
    1.6213  -10.5567    0.0000 C   0  0  0  0  0  0  0  0  0  0  0  0
    1.6330   -8.0818    0.0000 C   0  0  0  0  0  0  0  0  0  0  0  0
    1.6330   -7.2568    0.0000 O   0  0  0  0  0  0  0  0  0  0  0  0
    0.9185   -8.4943    0.0000 O   0  0  0  0  0  0  0  0  0  0  0  0
    2.3358  -10.9692    0.0000 C   0  0  0  0  0  0  0  0  0  0  0  0
    2.3358  -11.7942    0.0000 O   0  0  0  0  0  0  0  0  0  0  0  0
    3.0502  -10.5567    0.0000 O   0  0  0  0  0  0  0  0  0  0  0  0
    1.6213   -9.7317    0.0000 O   0  0  0  0  0  0  0  0  0  0  0  0
    8.0393  -10.2252    0.0000 H   0  0  0  0  0  0  0  0  0  0  0  0
    8.7712   -8.9979    0.0000 H   0  0  0  0  0  0  0  0  0  0  0  0
   10.9319   -7.7910    0.0000 H   0  0  0  0  0  0  0  0  0  0  0  0
    3.0619   -7.2568    0.0000 C   0  0  0  0  0  0  0  0  0  0  0  0
  1  2  1  0  0  0  0
  2  3  1  0  0  0  0
  3  4  1  0  0  0  0
  4  5  1  0  0  0  0
  5  6  1  0  0  0  0
  6  1  1  0  0  0  0
  4  7  1  0  0  0  0
  7  8  1  0  0  0  0
  8  9  1  0  0  0  0
  9 10  1  0  0  0  0
 10  5  1  0  0  0  0
  9 11  1  0  0  0  0
 11 12  1  0  0  0  0
 12 13  2  0  0  0  0
 13 14  1  0  0  0  0
 14 10  1  0  0  0  0
 11 15  1  0  0  0  0
 15 16  1  0  0  0  0
 16 17  1  0  0  0  0
 17 18  1  0  0  0  0
 18 12  1  0  0  0  0
 17 19  1  0  0  0  0
 19 20  1  0  0  0  0
 20 21  1  0  0  0  0
 21 22  1  0  0  0  0
 22 18  1  0  0  0  0
 21 23  1  1  0  0  0
 21 24  1  6  0  0  0
 11 25  1  6  0  0  0
  9 26  1  1  0  0  0
  5 27  1  1  0  0  0
  3 28  1  1  0  0  0
  3 29  1  6  0  0  0
  2 30  1  1  0  0  0
 17 31  1  1  0  0  0
 31 32  2  0  0  0  0
 33 34  1  0  0  0  0
 34 35  1  0  0  0  0
 35 36  1  0  0  0  0
 36 37  1  0  0  0  0
 37 38  1  0  0  0  0
 38 33  1  0  0  0  0
 35 39  1  1  0  0  0
 37 40  1  1  0  0  0
 36 41  1  6  0  0  0
 38 42  1  6  0  0  0
 39 43  1  0  0  0  0
 31 44  1  0  0  0  0
 33 44  1  1  0  0  0
 45 30  1  1  0  0  0
 45 46  1  0  0  0  0
 46 47  1  0  0  0  0
 47 48  1  0  0  0  0
 48 49  1  0  0  0  0
 49 50  1  0  0  0  0
 50 45  1  0  0  0  0
 47 51  1  1  0  0  0
 49 52  1  1  0  0  0
 48 53  1  6  0  0  0
 50 54  1  6  0  0  0
 51 55  2  0  0  0  0
 51 56  1  0  0  0  0
 52 57  1  0  0  0  0
 53 58  1  0  0  0  0
 58 59  1  1  0  0  0
 58 57  1  0  0  0  0
 57 67  1  6  0  0  0
 58 61  1  6  0  0  0
 61 62  1  0  0  0  0
 61 63  2  0  0  0  0
 60 64  1  0  0  0  0
 64 65  1  0  0  0  0
 67 60  1  0  0  0  0
 64 66  2  0  0  0  0
  4 68  1  6  0  0  0
 10 69  1  6  0  0  0
 18 70  1  1  0  0  0
 59 71  1  0  0  0  0
M  END
>  <cdx:fragmentId>
242506

$$$$
