96299.cdx
  Mrv1902 05222410282D          

 65 71  0  0  0  0            999 V2000
    6.4138   -8.4726    0.0000 C   0  0  0  0  0  0  0  0  0  0  0  0
    6.4022   -9.2975    0.0000 C   0  0  1  0  0  0  0  0  0  0  0  0
    7.1107   -9.7201    0.0000 C   0  0  1  0  0  0  0  0  0  0  0  0
    7.8310   -9.3178    0.0000 C   0  0  0  0  0  0  0  0  0  0  0  0
    7.8426   -8.4929    0.0000 C   0  0  2  0  0  0  0  0  0  0  0  0
    7.1341   -8.0703    0.0000 C   0  0  0  0  0  0  0  0  0  0  0  0
    8.5395   -9.7404    0.0000 C   0  0  0  0  0  0  0  0  0  0  0  0
    9.2597   -9.3380    0.0000 C   0  0  0  0  0  0  0  0  0  0  0  0
    9.2714   -8.5131    0.0000 C   0  0  2  0  0  0  0  0  0  0  0  0
    8.5629   -8.0905    0.0000 C   0  0  0  0  0  0  0  0  0  0  0  0
    9.9917   -8.1108    0.0000 C   0  0  1  0  0  0  0  0  0  0  0  0
   10.0034   -7.2859    0.0000 C   0  0  0  0  0  0  0  0  0  0  0  0
    9.2948   -6.8633    0.0000 C   0  0  0  0  0  0  0  0  0  0  0  0
    8.5746   -7.2656    0.0000 C   0  0  0  0  0  0  0  0  0  0  0  0
   10.7002   -8.5334    0.0000 C   0  0  0  0  0  0  0  0  0  0  0  0
   11.4205   -8.1310    0.0000 C   0  0  0  0  0  0  0  0  0  0  0  0
   11.4322   -7.3061    0.0000 C   0  0  2  0  0  0  0  0  0  0  0  0
   10.7236   -6.8835    0.0000 C   0  0  0  0  0  0  0  0  0  0  0  0
   12.1524   -6.9038    0.0000 C   0  0  0  0  0  0  0  0  0  0  0  0
   12.1641   -6.0789    0.0000 C   0  0  0  0  0  0  0  0  0  0  0  0
   11.4556   -5.6563    0.0000 C   0  0  1  0  0  0  0  0  0  0  0  0
   10.7353   -6.0586    0.0000 C   0  0  0  0  0  0  0  0  0  0  0  0
   11.0532   -4.9360    0.0000 C   0  0  0  0  0  0  0  0  0  0  0  0
   11.8782   -4.9477    0.0000 C   0  0  0  0  0  0  0  0  0  0  0  0
    9.9800   -8.9357    0.0000 C   0  0  0  0  0  0  0  0  0  0  0  0
    9.2831   -7.6882    0.0000 C   0  0  0  0  0  0  0  0  0  0  0  0
    7.8543   -7.6679    0.0000 C   0  0  0  0  0  0  0  0  0  0  0  0
    6.6881  -10.4287    0.0000 C   0  0  0  0  0  0  0  0  0  0  0  0
    7.5130  -10.4404    0.0000 C   0  0  0  0  0  0  0  0  0  0  0  0
    5.6819   -9.6999    0.0000 O   0  0  0  0  0  0  0  0  0  0  0  0
   12.1407   -7.7287    0.0000 C   0  0  0  0  0  0  0  0  0  0  0  0
   12.8610   -7.3264    0.0000 O   0  0  0  0  0  0  0  0  0  0  0  0
   11.6707   -9.3048    0.0000 C   0  0  2  0  0  0  0  0  0  0  0  0
   10.8459   -9.2848    0.0000 O   0  0  0  0  0  0  0  0  0  0  0  0
   10.4162   -9.9890    0.0000 C   0  0  1  0  0  0  0  0  0  0  0  0
   10.8112  -10.7133    0.0000 C   0  0  2  0  0  0  0  0  0  0  0  0
   11.6360  -10.7333    0.0000 C   0  0  1  0  0  0  0  0  0  0  0  0
   12.0657  -10.0291    0.0000 C   0  0  1  0  0  0  0  0  0  0  0  0
    9.5914   -9.9690    0.0000 C   0  0  0  0  0  0  0  0  0  0  0  0
   12.0310  -11.4576    0.0000 O   0  0  0  0  0  0  0  0  0  0  0  0
   10.3815  -11.4176    0.0000 O   0  0  0  0  0  0  0  0  0  0  0  0
   12.8904  -10.0491    0.0000 O   0  0  0  0  0  0  0  0  0  0  0  0
    9.1617  -10.6732    0.0000 O   0  0  0  0  0  0  0  0  0  0  0  0
   12.1290   -8.5536    0.0000 O   0  0  0  0  0  0  0  0  0  0  0  0
    4.9734   -9.2773    0.0000 C   0  0  2  0  0  0  0  0  0  0  0  0
    4.9851   -8.4523    0.0000 O   0  0  0  0  0  0  0  0  0  0  0  0
    4.2765   -8.0298    0.0000 C   0  0  1  0  0  0  0  0  0  0  0  0
    3.5563   -8.4321    0.0000 C   0  0  2  0  0  0  0  0  0  0  0  0
    3.5446   -9.2570    0.0000 C   0  0  1  0  0  0  0  0  0  0  0  0
    4.2531   -9.6796    0.0000 C   0  0  1  0  0  0  0  0  0  0  0  0
    4.2882   -7.2048    0.0000 C   0  0  0  0  0  0  0  0  0  0  0  0
    2.8243   -9.6593    0.0000 O   0  0  0  0  0  0  0  0  0  0  0  0
    2.8477   -8.0095    0.0000 O   0  0  0  0  0  0  0  0  0  0  0  0
    4.2414  -10.5045    0.0000 O   0  0  0  0  0  0  0  0  0  0  0  0
    3.5796   -6.7823    0.0000 O   0  0  0  0  0  0  0  0  0  0  0  0
    5.0084   -6.8025    0.0000 O   0  0  0  0  0  0  0  0  0  0  0  0
    1.9994   -9.6476    0.0000 C   0  0  1  0  0  0  0  0  0  0  0  0
    1.5971   -8.9274    0.0000 C   0  0  0  0  0  0  0  0  0  0  0  0
    1.5869  -10.3621    0.0000 O   0  0  0  0  0  0  0  0  0  0  0  0
    0.7619  -11.7911    0.0000 O   0  0  0  0  0  0  0  0  0  0  0  0
    1.9994  -12.5055    0.0000 O   0  0  0  0  0  0  0  0  0  0  0  0
    1.5869  -11.7911    0.0000 C   0  0  0  0  0  0  0  0  0  0  0  0
    1.9994  -11.0766    0.0000 C   0  0  0  0  0  0  0  0  0  0  0  0
    2.0196   -8.2188    0.0000 O   0  0  0  0  0  0  0  0  0  0  0  0
    0.7721   -8.9157    0.0000 O   0  0  0  0  0  0  0  0  0  0  0  0
  1  2  1  0  0  0  0
  2  3  1  0  0  0  0
  3  4  1  0  0  0  0
  4  5  1  0  0  0  0
  5  6  1  0  0  0  0
  6  1  1  0  0  0  0
  4  7  1  0  0  0  0
  7  8  1  0  0  0  0
  8  9  1  0  0  0  0
  9 10  1  0  0  0  0
 10  5  1  0  0  0  0
  9 11  1  0  0  0  0
 11 12  1  0  0  0  0
 12 13  2  0  0  0  0
 13 14  1  0  0  0  0
 14 10  1  0  0  0  0
 11 15  1  0  0  0  0
 15 16  1  0  0  0  0
 16 17  1  0  0  0  0
 17 18  1  0  0  0  0
 18 12  1  0  0  0  0
 17 19  1  0  0  0  0
 19 20  1  0  0  0  0
 20 21  1  0  0  0  0
 21 22  1  0  0  0  0
 22 18  1  0  0  0  0
 21 23  1  1  0  0  0
 21 24  1  6  0  0  0
 11 25  1  6  0  0  0
  9 26  1  1  0  0  0
  5 27  1  1  0  0  0
  3 28  1  1  0  0  0
  3 29  1  6  0  0  0
  2 30  1  1  0  0  0
 17 31  1  1  0  0  0
 31 32  2  0  0  0  0
 33 34  1  0  0  0  0
 34 35  1  0  0  0  0
 35 36  1  0  0  0  0
 36 37  1  0  0  0  0
 37 38  1  0  0  0  0
 38 33  1  0  0  0  0
 35 39  1  1  0  0  0
 37 40  1  1  0  0  0
 36 41  1  6  0  0  0
 38 42  1  6  0  0  0
 39 43  1  0  0  0  0
 31 44  1  0  0  0  0
 33 44  1  1  0  0  0
 45 30  1  1  0  0  0
 45 46  1  0  0  0  0
 46 47  1  0  0  0  0
 47 48  1  0  0  0  0
 48 49  1  0  0  0  0
 49 50  1  0  0  0  0
 50 45  1  0  0  0  0
 47 51  1  1  0  0  0
 49 52  1  1  0  0  0
 48 53  1  6  0  0  0
 50 54  1  6  0  0  0
 51 55  2  0  0  0  0
 51 56  1  0  0  0  0
 57 52  1  6  0  0  0
 58 57  1  0  0  0  0
 57 59  1  0  0  0  0
 62 60  2  0  0  0  0
 59 63  1  0  0  0  0
 62 61  1  0  0  0  0
 63 62  1  0  0  0  0
 58 64  1  0  0  0  0
 58 65  2  0  0  0  0
M  END
>  <cdx:fragmentId>
242506

$$$$
