96290.cdx
  Mrv1902 05222410202D          

 56 62  0  0  0  0            999 V2000
    6.9088   -8.5276    0.0000 C   0  0  0  0  0  0  0  0  0  0  0  0
    6.8972   -9.3525    0.0000 C   0  0  1  0  0  0  0  0  0  0  0  0
    7.6057   -9.7751    0.0000 C   0  0  1  0  0  0  0  0  0  0  0  0
    8.3260   -9.3728    0.0000 C   0  0  0  0  0  0  0  0  0  0  0  0
    8.3376   -8.5479    0.0000 C   0  0  2  0  0  0  0  0  0  0  0  0
    7.6291   -8.1253    0.0000 C   0  0  0  0  0  0  0  0  0  0  0  0
    9.0345   -9.7954    0.0000 C   0  0  0  0  0  0  0  0  0  0  0  0
    9.7547   -9.3930    0.0000 C   0  0  0  0  0  0  0  0  0  0  0  0
    9.7664   -8.5681    0.0000 C   0  0  2  0  0  0  0  0  0  0  0  0
    9.0579   -8.1455    0.0000 C   0  0  0  0  0  0  0  0  0  0  0  0
   10.4867   -8.1658    0.0000 C   0  0  1  0  0  0  0  0  0  0  0  0
   10.4984   -7.3409    0.0000 C   0  0  0  0  0  0  0  0  0  0  0  0
    9.7898   -6.9183    0.0000 C   0  0  0  0  0  0  0  0  0  0  0  0
    9.0696   -7.3206    0.0000 C   0  0  0  0  0  0  0  0  0  0  0  0
   11.1952   -8.5884    0.0000 C   0  0  0  0  0  0  0  0  0  0  0  0
   11.9155   -8.1860    0.0000 C   0  0  0  0  0  0  0  0  0  0  0  0
   11.9272   -7.3611    0.0000 C   0  0  2  0  0  0  0  0  0  0  0  0
   11.2186   -6.9385    0.0000 C   0  0  0  0  0  0  0  0  0  0  0  0
   12.6474   -6.9588    0.0000 C   0  0  0  0  0  0  0  0  0  0  0  0
   12.6591   -6.1339    0.0000 C   0  0  0  0  0  0  0  0  0  0  0  0
   11.9506   -5.7113    0.0000 C   0  0  1  0  0  0  0  0  0  0  0  0
   11.2303   -6.1136    0.0000 C   0  0  0  0  0  0  0  0  0  0  0  0
   11.5482   -4.9910    0.0000 C   0  0  0  0  0  0  0  0  0  0  0  0
   12.3732   -5.0027    0.0000 C   0  0  0  0  0  0  0  0  0  0  0  0
   10.4750   -8.9907    0.0000 C   0  0  0  0  0  0  0  0  0  0  0  0
    9.7781   -7.7432    0.0000 C   0  0  0  0  0  0  0  0  0  0  0  0
    8.3493   -7.7229    0.0000 C   0  0  0  0  0  0  0  0  0  0  0  0
    7.1831  -10.4837    0.0000 C   0  0  0  0  0  0  0  0  0  0  0  0
    8.0080  -10.4954    0.0000 C   0  0  0  0  0  0  0  0  0  0  0  0
    6.1769   -9.7549    0.0000 O   0  0  0  0  0  0  0  0  0  0  0  0
   12.6357   -7.7837    0.0000 C   0  0  0  0  0  0  0  0  0  0  0  0
   13.3560   -7.3814    0.0000 O   0  0  0  0  0  0  0  0  0  0  0  0
   12.6240   -8.6086    0.0000 O   0  0  0  0  0  0  0  0  0  0  0  0
    5.4684   -9.3323    0.0000 C   0  0  2  0  0  0  0  0  0  0  0  0
    5.4801   -8.5073    0.0000 O   0  0  0  0  0  0  0  0  0  0  0  0
    4.7715   -8.0848    0.0000 C   0  0  1  0  0  0  0  0  0  0  0  0
    4.0513   -8.4871    0.0000 C   0  0  2  0  0  0  0  0  0  0  0  0
    4.0396   -9.3120    0.0000 C   0  0  1  0  0  0  0  0  0  0  0  0
    4.7481   -9.7346    0.0000 C   0  0  1  0  0  0  0  0  0  0  0  0
    4.7832   -7.2598    0.0000 C   0  0  0  0  0  0  0  0  0  0  0  0
    3.3193   -9.7143    0.0000 O   0  0  0  0  0  0  0  0  0  0  0  0
    3.3427   -8.0645    0.0000 O   0  0  0  0  0  0  0  0  0  0  0  0
    4.7364  -10.5595    0.0000 O   0  0  0  0  0  0  0  0  0  0  0  0
    4.0746   -6.8373    0.0000 O   0  0  0  0  0  0  0  0  0  0  0  0
    5.5034   -6.8575    0.0000 O   0  0  0  0  0  0  0  0  0  0  0  0
    2.6108   -9.2917    0.0000 C   0  0  1  0  0  0  0  0  0  0  0  0
    2.6225   -8.4668    0.0000 C   0  0  1  0  0  0  0  0  0  0  0  0
    2.6225   -7.6418    0.0000 O   0  0  0  0  0  0  0  0  0  0  0  0
    1.8963  -10.5292    0.0000 C   0  0  0  0  0  0  0  0  0  0  0  0
    1.9080   -8.0543    0.0000 C   0  0  0  0  0  0  0  0  0  0  0  0
    1.9080   -7.2293    0.0000 O   0  0  0  0  0  0  0  0  0  0  0  0
    1.1935   -8.4668    0.0000 O   0  0  0  0  0  0  0  0  0  0  0  0
    2.6108  -10.9417    0.0000 C   0  0  0  0  0  0  0  0  0  0  0  0
    2.6108  -11.7667    0.0000 O   0  0  0  0  0  0  0  0  0  0  0  0
    3.3252  -10.5292    0.0000 O   0  0  0  0  0  0  0  0  0  0  0  0
    1.8963   -9.7042    0.0000 O   0  0  0  0  0  0  0  0  0  0  0  0
  1  2  1  0  0  0  0
  2  3  1  0  0  0  0
  3  4  1  0  0  0  0
  4  5  1  0  0  0  0
  5  6  1  0  0  0  0
  6  1  1  0  0  0  0
  4  7  1  0  0  0  0
  7  8  1  0  0  0  0
  8  9  1  0  0  0  0
  9 10  1  0  0  0  0
 10  5  1  0  0  0  0
  9 11  1  0  0  0  0
 11 12  1  0  0  0  0
 12 13  2  0  0  0  0
 13 14  1  0  0  0  0
 14 10  1  0  0  0  0
 11 15  1  0  0  0  0
 15 16  1  0  0  0  0
 16 17  1  0  0  0  0
 17 18  1  0  0  0  0
 18 12  1  0  0  0  0
 17 19  1  0  0  0  0
 19 20  1  0  0  0  0
 20 21  1  0  0  0  0
 21 22  1  0  0  0  0
 22 18  1  0  0  0  0
 21 23  1  1  0  0  0
 21 24  1  6  0  0  0
 11 25  1  6  0  0  0
  9 26  1  1  0  0  0
  5 27  1  1  0  0  0
  3 28  1  1  0  0  0
  3 29  1  6  0  0  0
  2 30  1  1  0  0  0
 17 31  1  1  0  0  0
 31 32  2  0  0  0  0
 31 33  1  0  0  0  0
 34 30  1  1  0  0  0
 34 35  1  0  0  0  0
 35 36  1  0  0  0  0
 36 37  1  0  0  0  0
 37 38  1  0  0  0  0
 38 39  1  0  0  0  0
 39 34  1  0  0  0  0
 36 40  1  1  0  0  0
 38 41  1  1  0  0  0
 37 42  1  6  0  0  0
 39 43  1  6  0  0  0
 40 44  2  0  0  0  0
 40 45  1  0  0  0  0
 41 46  1  0  0  0  0
 42 47  1  0  0  0  0
 47 48  1  1  0  0  0
 47 46  1  0  0  0  0
 46 56  1  6  0  0  0
 47 50  1  6  0  0  0
 50 51  1  0  0  0  0
 50 52  2  0  0  0  0
 49 53  1  0  0  0  0
 53 54  1  0  0  0  0
 56 49  1  0  0  0  0
 53 55  2  0  0  0  0
M  END
>  <cdx:fragmentId>
242506

$$$$
