96309.cdx
  Mrv1902 05222410192D          

 33 36  0  0  0  0            999 V2000
    4.3244   -9.3006    0.0000 C   0  0  0  0  0  0  0  0  0  0  0  0
    4.9979   -8.8241    0.0000 O   0  0  0  0  0  0  0  0  0  0  0  0
    4.5321  -10.9824    0.0000 C   0  0  0  0  0  0  0  0  0  0  0  0
    4.7418  -10.1844    0.0000 O   0  0  0  0  0  0  0  0  0  0  0  0
    6.5003  -11.9261    0.0000 C   0  0  0  0  0  0  0  0  0  0  0  0
    5.9141  -11.3455    0.0000 O   0  0  0  0  0  0  0  0  0  0  0  0
    4.3172   -7.7995    0.0000 C   0  0  0  0  0  0  0  0  0  0  0  0
    4.9953   -8.2694    0.0000 O   0  0  0  0  0  0  0  0  0  0  0  0
    9.2986   -9.2542    0.0000 C   0  0  0  0  0  0  0  0  0  0  0  0
    9.2916   -7.7978    0.0000 C   0  0  0  0  0  0  0  0  0  0  0  0
    5.7413   -7.9171    0.0000 C   0  0  0  0  0  0  0  0  0  0  0  0
    5.5239   -7.1213    0.0000 C   0  0  0  0  0  0  0  0  0  0  0  0
    4.7870   -6.7503    0.0000 O   0  0  0  0  0  0  0  0  0  0  0  0
    4.9122   -5.9348    0.0000 C   0  0  0  0  0  0  0  0  0  0  0  0
    5.7264   -5.8018    0.0000 O   0  0  0  0  0  0  0  0  0  0  0  0
    6.1045   -6.5351    0.0000 C   0  0  0  0  0  0  0  0  0  0  0  0
    6.9024   -6.7448    0.0000 C   0  0  0  0  0  0  0  0  0  0  0  0
    7.1197   -7.5406    0.0000 C   0  0  0  0  0  0  0  0  0  0  0  0
    7.9447   -7.5367    0.0000 C   0  0  0  0  0  0  0  0  0  0  0  0
    8.5309   -8.1172    0.0000 C   0  0  1  0  0  0  0  0  0  0  0  0
    8.5349   -8.9422    0.0000 C   0  0  1  0  0  0  0  0  0  0  0  0
    7.9543   -9.5284    0.0000 C   0  0  2  0  0  0  0  0  0  0  0  0
    7.1293   -9.5323    0.0000 C   0  0  0  0  0  0  0  0  0  0  0  0
    6.9197  -10.3302    0.0000 C   0  0  0  0  0  0  0  0  0  0  0  0
    6.1238  -10.5476    0.0000 C   0  0  0  0  0  0  0  0  0  0  0  0
    5.5376   -9.9671    0.0000 C   0  0  0  0  0  0  0  0  0  0  0  0
    5.7473   -9.1692    0.0000 C   0  0  0  0  0  0  0  0  0  0  0  0
    6.5432   -8.9518    0.0000 C   0  0  0  0  0  0  0  0  0  0  0  0
    6.5392   -8.1268    0.0000 C   0  0  0  0  0  0  0  0  0  0  0  0
    8.2737  -10.2890    0.0000 O   0  0  0  0  0  0  0  0  0  0  0  0
    9.5912   -9.7358    0.0000 O   0  0  0  0  0  0  0  0  0  0  0  0
    9.4116  -11.1534    0.0000 C   0  0  0  0  0  0  0  0  0  0  0  0
    9.0922  -10.3928    0.0000 C   0  0  0  0  0  0  0  0  0  0  0  0
 22 30  1  1  0  0  0
 27  2  1  0  0  0  0
  2  1  1  0  0  0  0
 26  4  1  0  0  0  0
  4  3  1  0  0  0  0
 25  6  1  0  0  0  0
  6  5  1  0  0  0  0
 11  8  1  0  0  0  0
  8  7  1  0  0  0  0
 21  9  1  6  0  0  0
 20 10  1  6  0  0  0
 28 23  1  0  0  0  0
 16 12  2  0  0  0  0
 29 18  1  0  0  0  0
 29 11  2  0  0  0  0
 12 11  1  0  0  0  0
 13 12  1  0  0  0  0
 14 13  1  0  0  0  0
 15 14  1  0  0  0  0
 16 15  1  0  0  0  0
 17 16  1  0  0  0  0
 18 17  2  0  0  0  0
 19 18  1  0  0  0  0
 20 19  1  0  0  0  0
 21 20  1  0  0  0  0
 22 21  1  0  0  0  0
 23 22  1  0  0  0  0
 24 23  2  0  0  0  0
 25 24  1  0  0  0  0
 26 25  2  0  0  0  0
 27 26  1  0  0  0  0
 28 27  2  0  0  0  0
 29 28  1  0  0  0  0
 33 30  1  0  0  0  0
 33 31  2  0  0  0  0
 33 32  1  0  0  0  0
M  END
>  <cdx:fragmentId>
13

$$$$
