96307.cdx
  Mrv1902 05222410282D          

 25 26  0  0  0  0            999 V2000
    6.7790   -4.1178    0.0000 C   0  0  0  0  0  0  0  0  0  0  0  0
    6.0645   -4.5303    0.0000 C   0  0  0  0  0  0  0  0  0  0  0  0
    5.3501   -4.1178    0.0000 C   0  0  0  0  0  0  0  0  0  0  0  0
    6.7790   -3.2928    0.0000 O   0  0  0  0  0  0  0  0  0  0  0  0
    7.4935   -4.5303    0.0000 N   0  0  0  0  0  0  0  0  0  0  0  0
    8.2080   -4.1178    0.0000 C   0  0  0  0  0  0  0  0  0  0  0  0
    8.9224   -4.5303    0.0000 C   0  0  0  0  0  0  0  0  0  0  0  0
    9.6369   -4.1178    0.0000 C   0  0  0  0  0  0  0  0  0  0  0  0
   10.3514   -4.5303    0.0000 C   0  0  0  0  0  0  0  0  0  0  0  0
   11.0658   -4.1178    0.0000 C   0  0  0  0  0  0  0  0  0  0  0  0
   11.0658   -3.2928    0.0000 C   0  0  0  0  0  0  0  0  0  0  0  0
   10.3514   -2.8803    0.0000 C   0  0  0  0  0  0  0  0  0  0  0  0
    9.6369   -3.2928    0.0000 C   0  0  0  0  0  0  0  0  0  0  0  0
   11.7803   -4.5303    0.0000 O   0  0  0  0  0  0  0  0  0  0  0  0
   12.4948   -4.1178    0.0000 C   0  0  0  0  0  0  0  0  0  0  0  0
   11.7803   -2.8803    0.0000 O   0  0  0  0  0  0  0  0  0  0  0  0
    4.6356   -4.5303    0.0000 C   0  0  0  0  0  0  0  0  0  0  0  0
    3.9211   -4.1178    0.0000 C   0  0  0  0  0  0  0  0  0  0  0  0
    3.2067   -4.5303    0.0000 C   0  0  0  0  0  0  0  0  0  0  0  0
    3.2067   -5.3553    0.0000 C   0  0  0  0  0  0  0  0  0  0  0  0
    3.9211   -5.7678    0.0000 C   0  0  0  0  0  0  0  0  0  0  0  0
    4.6356   -5.3553    0.0000 C   0  0  0  0  0  0  0  0  0  0  0  0
    2.4922   -4.1178    0.0000 O   0  0  0  0  0  0  0  0  0  0  0  0
    1.7777   -4.5303    0.0000 C   0  0  0  0  0  0  0  0  0  0  0  0
    2.4922   -5.7678    0.0000 O   0  0  0  0  0  0  0  0  0  0  0  0
  1  2  1  0  0  0  0
  2  3  2  0  0  0  0
  1  4  2  0  0  0  0
  1  5  1  0  0  0  0
  6  7  1  0  0  0  0
  8  9  1  0  0  0  0
  9 10  2  0  0  0  0
 10 11  1  0  0  0  0
 11 12  2  0  0  0  0
 12 13  1  0  0  0  0
  8 13  2  0  0  0  0
 14 15  1  0  0  0  0
 10 14  1  0  0  0  0
 11 16  1  0  0  0  0
  7  8  1  0  0  0  0
  5  6  1  0  0  0  0
 17 18  1  0  0  0  0
 18 19  2  0  0  0  0
 19 20  1  0  0  0  0
 20 21  2  0  0  0  0
 21 22  1  0  0  0  0
 17 22  2  0  0  0  0
 23 24  1  0  0  0  0
 19 23  1  0  0  0  0
 20 25  1  0  0  0  0
  3 17  1  0  0  0  0
M  END
>  <cdx:fragmentId>
22652

$$$$
