96316.cdx
  Mrv1902 05222410262D          

 36 38  0  0  0  0            999 V2000
    1.6068   -8.8539    0.0000 C   0  0  0  0  0  0  0  0  0  0  0  0
    2.3213  -10.0914    0.0000 O   0  0  0  0  0  0  0  0  0  0  0  0
    3.0357   -9.6789    0.0000 C   0  0  0  0  0  0  0  0  0  0  0  0
    3.0357   -8.8539    0.0000 C   0  0  0  0  0  0  0  0  0  0  0  0
    2.3213   -8.4414    0.0000 O   0  0  0  0  0  0  0  0  0  0  0  0
    4.4647   -8.8539    0.0000 C   0  0  0  0  0  0  0  0  0  0  0  0
    3.7502   -8.4414    0.0000 C   0  0  0  0  0  0  0  0  0  0  0  0
    5.8936   -8.8539    0.0000 C   0  0  0  0  0  0  0  0  0  0  0  0
    5.1792   -8.4414    0.0000 C   0  0  0  0  0  0  0  0  0  0  0  0
    7.3226   -8.8539    0.0000 N   0  0  0  0  0  0  0  0  0  0  0  0
    6.6081   -8.4414    0.0000 C   0  0  0  0  0  0  0  0  0  0  0  0
    8.7515   -8.8539    0.0000 C   0  0  0  0  0  0  0  0  0  0  0  0
    8.0370   -8.4414    0.0000 C   0  0  0  0  0  0  0  0  0  0  0  0
   10.1805   -8.8539    0.0000 C   0  0  0  0  0  0  0  0  0  0  0  0
    9.4660   -8.4414    0.0000 C   0  0  0  0  0  0  0  0  0  0  0  0
   11.6094   -8.8539    0.0000 O   0  0  0  0  0  0  0  0  0  0  0  0
   10.8949   -8.4414    0.0000 C   0  0  0  0  0  0  0  0  0  0  0  0
    3.7502  -10.0914    0.0000 C   0  0  0  0  0  0  0  0  0  0  0  0
    4.4647   -9.6789    0.0000 C   0  0  0  0  0  0  0  0  0  0  0  0
    6.6081   -7.6164    0.0000 O   0  0  0  0  0  0  0  0  0  0  0  0
    9.4660   -7.6164    0.0000 C   0  0  0  0  0  0  0  0  0  0  0  0
   10.1805   -7.2039    0.0000 C   0  0  0  0  0  0  0  0  0  0  0  0
   10.8949   -7.6164    0.0000 C   0  0  0  0  0  0  0  0  0  0  0  0
   12.3239   -8.4414    0.0000 C   0  0  0  0  0  0  0  0  0  0  0  0
   11.6141   -7.2061    0.0000 O   0  0  0  0  0  0  0  0  0  0  0  0
    2.3213  -10.9164    0.0000 C   0  0  2  0  0  0  0  0  0  0  0  0
    1.6068  -11.3289    0.0000 O   0  0  0  0  0  0  0  0  0  0  0  0
    1.6068  -12.1539    0.0000 C   0  0  1  0  0  0  0  0  0  0  0  0
    2.3213  -12.5664    0.0000 C   0  0  2  0  0  0  0  0  0  0  0  0
    3.0357  -12.1539    0.0000 C   0  0  1  0  0  0  0  0  0  0  0  0
    3.0357  -11.3289    0.0000 C   0  0  1  0  0  0  0  0  0  0  0  0
    0.8923  -12.5664    0.0000 C   0  0  0  0  0  0  0  0  0  0  0  0
    3.7502  -12.5664    0.0000 O   0  0  0  0  0  0  0  0  0  0  0  0
    3.7502  -10.9164    0.0000 O   0  0  0  0  0  0  0  0  0  0  0  0
    2.3213  -13.3914    0.0000 O   0  0  0  0  0  0  0  0  0  0  0  0
    0.8923  -13.3914    0.0000 O   0  0  0  0  0  0  0  0  0  0  0  0
  2  3  1  0  0  0  0
  3  4  2  0  0  0  0
  4  5  1  0  0  0  0
  5  1  1  0  0  0  0
  6  7  2  0  0  0  0
  7  4  1  0  0  0  0
  8  9  2  0  0  0  0
  9  6  1  0  0  0  0
 10 11  1  0  0  0  0
 11  8  1  0  0  0  0
 12 13  1  0  0  0  0
 13 10  1  0  0  0  0
 14 15  2  0  0  0  0
 15 12  1  0  0  0  0
 16 17  1  0  0  0  0
 17 14  1  0  0  0  0
  3 18  1  0  0  0  0
 18 19  2  0  0  0  0
 19  6  1  0  0  0  0
 11 20  2  0  0  0  0
 15 21  1  0  0  0  0
 21 22  2  0  0  0  0
 22 23  1  0  0  0  0
 23 17  2  0  0  0  0
 16 24  1  0  0  0  0
 23 25  1  0  0  0  0
 26  2  1  1  0  0  0
 26 27  1  0  0  0  0
 27 28  1  0  0  0  0
 28 29  1  0  0  0  0
 29 30  1  0  0  0  0
 30 31  1  0  0  0  0
 31 26  1  0  0  0  0
 28 32  1  1  0  0  0
 30 33  1  1  0  0  0
 31 34  1  6  0  0  0
 29 35  1  6  0  0  0
 32 36  1  0  0  0  0
M  END
>  <cdx:fragmentId>
5

$$$$
