96312.cdx
  Mrv1902 05222410282D          

  8  8  0  0  0  0            999 V2000
    5.4385   -6.9850    0.0000 C   0  0  0  0  0  0  0  0  0  0  0  0
    5.4385   -7.8100    0.0000 C   0  0  0  0  0  0  0  0  0  0  0  0
    6.2231   -8.0649    0.0000 C   0  0  0  0  0  0  0  0  0  0  0  0
    6.7081   -7.3975    0.0000 C   0  0  0  0  0  0  0  0  0  0  0  0
    6.2231   -6.7301    0.0000 O   0  0  0  0  0  0  0  0  0  0  0  0
    7.5331   -7.3975    0.0000 C   0  0  0  0  0  0  0  0  0  0  0  0
    7.9456   -6.6830    0.0000 H   0  0  0  0  0  0  0  0  0  0  0  0
    7.9456   -8.1120    0.0000 O   0  0  0  0  0  0  0  0  0  0  0  0
  1  2  2  0  0  0  0
  2  3  1  0  0  0  0
  3  4  2  0  0  0  0
  4  5  1  0  0  0  0
  5  1  1  0  0  0  0
  4  6  1  0  0  0  0
  6  7  1  0  0  0  0
  6  8  2  0  0  0  0
M  END
>  <cdx:fragmentId>
5

$$$$
