96314.cdx
  Mrv1902 05222410272D          

 30 34  0  0  0  0            999 V2000
    8.2690   -7.7814    0.0000 C   0  0  0  0  0  0  0  0  0  0  0  0
    8.2690   -8.6064    0.0000 C   0  0  0  0  0  0  0  0  0  0  0  0
    8.9835   -9.0189    0.0000 O   0  0  0  0  0  0  0  0  0  0  0  0
    8.9835   -9.8439    0.0000 C   0  0  0  0  0  0  0  0  0  0  0  0
    8.2690  -10.2564    0.0000 C   0  0  0  0  0  0  0  0  0  0  0  0
    7.5545   -9.8439    0.0000 C   0  0  0  0  0  0  0  0  0  0  0  0
    7.5545   -9.0189    0.0000 C   0  0  0  0  0  0  0  0  0  0  0  0
    6.8401   -8.6064    0.0000 C   0  0  0  0  0  0  0  0  0  0  0  0
    6.1256   -9.0189    0.0000 O   0  0  0  0  0  0  0  0  0  0  0  0
    5.4111   -8.6064    0.0000 C   0  0  0  0  0  0  0  0  0  0  0  0
    5.4111   -7.7814    0.0000 C   0  0  0  0  0  0  0  0  0  0  0  0
    6.1256   -7.3689    0.0000 C   0  0  0  0  0  0  0  0  0  0  0  0
    6.8401   -7.7814    0.0000 C   0  0  0  0  0  0  0  0  0  0  0  0
    7.5545   -7.3689    0.0000 C   0  0  0  0  0  0  0  0  0  0  0  0
    7.5545   -6.5439    0.0000 O   0  0  0  0  0  0  0  0  0  0  0  0
    8.2690   -6.1314    0.0000 C   0  0  0  0  0  0  0  0  0  0  0  0
    8.9835   -6.5439    0.0000 C   0  0  0  0  0  0  0  0  0  0  0  0
    8.9835   -7.3689    0.0000 C   0  0  0  0  0  0  0  0  0  0  0  0
    9.6979  -10.2564    0.0000 O   0  0  0  0  0  0  0  0  0  0  0  0
    9.6979   -7.7814    0.0000 O   0  0  0  0  0  0  0  0  0  0  0  0
    6.8401  -10.2564    0.0000 C   0  0  0  0  0  0  0  0  0  0  0  0
    6.8401  -11.0814    0.0000 C   0  0  0  0  0  0  0  0  0  0  0  0
    6.1256  -11.4939    0.0000 C   0  0  0  0  0  0  0  0  0  0  0  0
    5.4111  -11.0814    0.0000 C   0  0  0  0  0  0  0  0  0  0  0  0
    5.4111  -10.2564    0.0000 C   0  0  0  0  0  0  0  0  0  0  0  0
    6.1256   -9.8439    0.0000 C   0  0  0  0  0  0  0  0  0  0  0  0
    9.6979   -6.1314    0.0000 C   0  0  0  0  0  0  0  0  0  0  0  0
    8.2690   -5.3064    0.0000 C   0  0  0  0  0  0  0  0  0  0  0  0
    4.9986   -9.3209    0.0000 C   0  0  0  0  0  0  0  0  0  0  0  0
    4.5861   -8.6064    0.0000 C   0  0  0  0  0  0  0  0  0  0  0  0
  1  2  1  0  0  0  0
  2  3  1  0  0  0  0
  3  4  1  0  0  0  0
  4  5  1  0  0  0  0
  5  6  2  0  0  0  0
  6  7  1  0  0  0  0
  7  8  1  0  0  0  0
  8  9  1  0  0  0  0
  9 10  1  0  0  0  0
 10 11  1  0  0  0  0
 11 12  2  0  0  0  0
 12 13  1  0  0  0  0
 13 14  1  0  0  0  0
 14 15  1  0  0  0  0
 15 16  1  0  0  0  0
 16 17  1  0  0  0  0
 17 18  1  0  0  0  0
  1 18  1  0  0  0  0
  1 14  2  0  0  0  0
  8 13  2  0  0  0  0
  2  7  2  0  0  0  0
  4 19  2  0  0  0  0
 18 20  2  0  0  0  0
 21 22  1  0  0  0  0
 22 23  2  0  0  0  0
 23 24  1  0  0  0  0
 24 25  2  0  0  0  0
 25 26  1  0  0  0  0
 21 26  2  0  0  0  0
  6 21  1  0  0  0  0
 17 27  1  0  0  0  0
 16 28  1  0  0  0  0
 10 29  1  0  0  0  0
 10 30  1  0  0  0  0
M  END
>  <cdx:groupId>
96

>  <cdx:fragmentId>
5

$$$$
