96315.cdx
  Mrv1902 05222410262D          

 50 55  0  0  0  0            999 V2000
   10.1396   -5.5836    0.0000 C   0  0  0  0  0  0  0  0  0  0  0  0
   10.8578   -5.1776    0.0000 C   0  0  0  0  0  0  0  0  0  0  0  0
   11.5685   -5.5967    0.0000 C   0  0  0  0  0  0  0  0  0  0  0  0
   11.5609   -6.4216    0.0000 C   0  0  0  0  0  0  0  0  0  0  0  0
   10.8427   -6.8276    0.0000 C   0  0  2  0  0  0  0  0  0  0  0  0
   10.8352   -7.6525    0.0000 C   0  0  0  0  0  0  0  0  0  0  0  0
   10.1169   -8.0585    0.0000 C   0  0  0  0  0  0  0  0  0  0  0  0
    9.4063   -7.6394    0.0000 C   0  0  1  0  0  0  0  0  0  0  0  0
    8.6881   -8.0454    0.0000 C   0  0  2  0  0  0  0  0  0  0  0  0
    8.6805   -8.8704    0.0000 C   0  0  0  0  0  0  0  0  0  0  0  0
    7.9623   -9.2763    0.0000 C   0  0  0  0  0  0  0  0  0  0  0  0
    7.2516   -8.8573    0.0000 C   0  0  1  0  0  0  0  0  0  0  0  0
    6.5334   -9.2632    0.0000 C   0  0  0  0  0  0  0  0  0  0  0  0
    5.8227   -8.8442    0.0000 C   0  0  2  0  0  0  0  0  0  0  0  0
    5.8303   -8.0192    0.0000 C   0  0  0  0  0  0  0  0  0  0  0  0
    6.5485   -7.6133    0.0000 C   0  0  0  0  0  0  0  0  0  0  0  0
    7.2592   -8.0323    0.0000 C   0  0  2  0  0  0  0  0  0  0  0  0
    7.9774   -7.6264    0.0000 C   0  0  1  0  0  0  0  0  0  0  0  0
    7.9849   -6.8014    0.0000 C   0  0  0  0  0  0  0  0  0  0  0  0
    8.7032   -6.3955    0.0000 C   0  0  0  0  0  0  0  0  0  0  0  0
    9.4138   -6.8145    0.0000 C   0  0  0  0  0  0  0  0  0  0  0  0
   10.1320   -6.4085    0.0000 C   0  0  2  0  0  0  0  0  0  0  0  0
   11.5534   -7.2466    0.0000 C   0  0  0  0  0  0  0  0  0  0  0  0
   11.5458   -8.0716    0.0000 O   0  0  0  0  0  0  0  0  0  0  0  0
   12.2716   -6.8406    0.0000 O   0  0  0  0  0  0  0  0  0  0  0  0
    7.2667   -7.2073    0.0000 C   0  0  0  0  0  0  0  0  0  0  0  0
    6.9393   -9.9814    0.0000 C   0  0  0  0  0  0  0  0  0  0  0  0
    6.1144   -9.9739    0.0000 C   0  0  0  0  0  0  0  0  0  0  0  0
    9.3987   -8.4644    0.0000 C   0  0  0  0  0  0  0  0  0  0  0  0
   10.4519   -4.4594    0.0000 C   0  0  0  0  0  0  0  0  0  0  0  0
   11.2768   -4.4670    0.0000 C   0  0  0  0  0  0  0  0  0  0  0  0
    7.2441   -9.6822    0.0000 H   0  0  0  0  0  0  0  0  0  0  0  0
    9.4268   -5.9805    0.0000 H   0  0  0  0  0  0  0  0  0  0  0  0
    3.6836  -10.0888    0.0000 N   0  0  0  0  0  0  0  0  0  0  0  0
    2.9810  -11.3331    0.0000 O   0  0  0  0  0  0  0  0  0  0  0  0
    2.2547  -10.1025    0.0000 C   0  0  0  0  0  0  0  0  0  0  0  0
    2.9731  -10.5081    0.0000 C   0  0  0  0  0  0  0  0  0  0  0  0
    2.2468   -9.2776    0.0000 O   0  0  0  0  0  0  0  0  0  0  0  0
    2.2309   -7.6276    0.0000 O   0  0  0  0  0  0  0  0  0  0  0  0
    2.9335   -6.3833    0.0000 O   0  0  0  0  0  0  0  0  0  0  0  0
    3.6519   -6.7890    0.0000 C   0  0  0  0  0  0  0  0  0  0  0  0
    3.6598   -7.6139    0.0000 C   0  0  2  0  0  0  0  0  0  0  0  0
    2.9493   -8.0333    0.0000 C   0  0  2  0  0  0  0  0  0  0  0  0
    2.9572   -8.8582    0.0000 C   0  0  1  0  0  0  0  0  0  0  0  0
    3.6756   -9.2638    0.0000 C   0  0  2  0  0  0  0  0  0  0  0  0
    4.3861   -8.8445    0.0000 C   0  0  1  0  0  0  0  0  0  0  0  0
    4.3782   -8.0195    0.0000 O   0  0  0  0  0  0  0  0  0  0  0  0
    5.1045   -9.2501    0.0000 O   0  0  0  0  0  0  0  0  0  0  0  0
    8.6881   -7.2204    0.0000 C   0  0  0  0  0  0  0  0  0  0  0  0
    7.9774   -8.4514    0.0000 H   0  0  0  0  0  0  0  0  0  0  0  0
 46 48  1  1  0  0  0
 45 34  1  6  0  0  0
 37 34  1  0  0  0  0
 37 35  2  0  0  0  0
 37 36  1  0  0  0  0
 44 38  1  1  0  0  0
 43 39  1  6  0  0  0
 42 41  1  1  0  0  0
 41 40  1  0  0  0  0
 47 42  1  0  0  0  0
 43 42  1  0  0  0  0
 44 43  1  0  0  0  0
 45 44  1  0  0  0  0
 46 45  1  0  0  0  0
 47 46  1  0  0  0  0
  1  2  1  0  0  0  0
  2  3  1  0  0  0  0
  3  4  1  0  0  0  0
  4  5  1  0  0  0  0
  5  6  1  0  0  0  0
  6  7  1  0  0  0  0
  7  8  1  0  0  0  0
  8  9  1  0  0  0  0
  9 10  1  0  0  0  0
 10 11  1  0  0  0  0
 11 12  1  0  0  0  0
 12 13  1  0  0  0  0
 13 14  1  0  0  0  0
 14 15  1  0  0  0  0
 15 16  1  0  0  0  0
 16 17  1  0  0  0  0
 12 17  1  0  0  0  0
 17 18  1  0  0  0  0
  9 18  1  0  0  0  0
 18 19  1  0  0  0  0
 19 20  1  0  0  0  0
 20 21  2  0  0  0  0
  8 21  1  0  0  0  0
 21 22  1  0  0  0  0
  5 22  1  0  0  0  0
  1 22  1  0  0  0  0
 23 24  2  0  0  0  0
 23 25  1  0  0  0  0
  5 23  1  1  0  0  0
 17 26  1  1  0  0  0
 13 27  1  0  0  0  0
 13 28  1  0  0  0  0
  8 29  1  6  0  0  0
  2 30  1  0  0  0  0
  2 31  1  0  0  0  0
 14 48  1  1  0  0  0
 12 32  1  6  0  0  0
 22 33  1  1  0  0  0
  9 49  1  1  0  0  0
 18 50  1  6  0  0  0
M  END
>  <cdx:fragmentId>
5

$$$$
