96328.cdx
  Mrv1902 05222410272D          

 11 11  0  0  0  0            999 V2000
    6.1784   -8.6128    0.0000 O   0  0  0  0  0  0  0  0  0  0  0  0
    4.7981   -8.2429    0.0000 N   0  0  0  0  0  0  0  0  0  0  0  0
    5.5950   -8.0294    0.0000 C   0  0  0  0  0  0  0  0  0  0  0  0
    5.8085   -7.2325    0.0000 N   0  0  0  0  0  0  0  0  0  0  0  0
    6.8635   -5.7804    0.0000 O   0  0  0  0  0  0  0  0  0  0  0  0
    8.5705   -8.1299    0.0000 O   0  0  0  0  0  0  0  0  0  0  0  0
    7.1184   -6.5651    0.0000 C   0  0  0  0  0  0  0  0  0  0  0  0
    6.6335   -7.2325    0.0000 C   0  0  1  0  0  0  0  0  0  0  0  0
    7.1184   -7.8999    0.0000 N   0  0  0  0  0  0  0  0  0  0  0  0
    7.9031   -7.6450    0.0000 C   0  0  0  0  0  0  0  0  0  0  0  0
    7.9031   -6.8200    0.0000 N   0  0  0  0  0  0  0  0  0  0  0  0
  3  1  2  0  0  0  0
  3  2  1  0  0  0  0
  4  3  1  0  0  0  0
  8  4  1  1  0  0  0
  7  5  2  0  0  0  0
 10  6  2  0  0  0  0
  7 11  1  0  0  0  0
  8  7  1  0  0  0  0
  9  8  1  0  0  0  0
 10  9  1  0  0  0  0
 11 10  1  0  0  0  0
M  END
>  <cdx:fragmentId>
5

$$$$
