96329.cdx
  Mrv1902 05222410262D          

 13 13  0  0  0  0            999 V2000
    6.1055   -8.8000    0.0000 C   0  0  2  0  0  0  0  0  0  0  0  0
    6.1055   -9.6250    0.0000 C   0  0  1  0  0  0  0  0  0  0  0  0
    6.8200  -10.0375    0.0000 C   0  0  1  0  0  0  0  0  0  0  0  0
    7.5345   -9.6250    0.0000 C   0  0  2  0  0  0  0  0  0  0  0  0
    7.5345   -8.8000    0.0000 C   0  0  0  0  0  0  0  0  0  0  0  0
    6.8200   -8.3875    0.0000 O   0  0  0  0  0  0  0  0  0  0  0  0
    8.2489   -8.3875    0.0000 O   0  0  0  0  0  0  0  0  0  0  0  0
    8.2489  -10.0375    0.0000 O   0  0  0  0  0  0  0  0  0  0  0  0
    6.8200  -10.8625    0.0000 O   0  0  0  0  0  0  0  0  0  0  0  0
    5.3911  -10.0375    0.0000 O   0  0  0  0  0  0  0  0  0  0  0  0
    5.3911   -8.3875    0.0000 C   0  0  0  0  0  0  0  0  0  0  0  0
    4.6766   -8.8000    0.0000 O   0  0  0  0  0  0  0  0  0  0  0  0
    5.3911   -7.5625    0.0000 O   0  0  0  0  0  0  0  0  0  0  0  0
  1  2  1  0  0  0  0
  2  3  1  0  0  0  0
  3  4  1  0  0  0  0
  4  5  1  0  0  0  0
  5  6  1  0  0  0  0
  6  1  1  0  0  0  0
  5  7  1  0  0  0  0
  4  8  1  6  0  0  0
  3  9  1  1  0  0  0
  2 10  1  1  0  0  0
  1 11  1  1  0  0  0
 11 12  2  0  0  0  0
 11 13  1  0  0  0  0
M  END
>  <cdx:fragmentId>
64

$$$$
