96331.cdx
  Mrv1902 05222410192D          

 32 34  0  0  0  0            999 V2000
    7.7118   -4.2488    0.0000 C   0  0  0  0  0  0  0  0  0  0  0  0
    7.7118   -5.0737    0.0000 C   0  0  0  0  0  0  0  0  0  0  0  0
    8.4263   -5.4863    0.0000 C   0  0  1  0  0  0  0  0  0  0  0  0
    9.1407   -5.0737    0.0000 C   0  0  0  0  0  0  0  0  0  0  0  0
    9.1407   -4.2488    0.0000 C   0  0  0  0  0  0  0  0  0  0  0  0
    8.4263   -3.8363    0.0000 C   0  0  1  0  0  0  0  0  0  0  0  0
    6.9272   -3.9938    0.0000 C   0  0  0  0  0  0  0  0  0  0  0  0
    6.4423   -4.6612    0.0000 C   0  0  0  0  0  0  0  0  0  0  0  0
    6.9272   -5.3287    0.0000 C   0  0  0  0  0  0  0  0  0  0  0  0
    5.6173   -4.6612    0.0000 C   0  0  0  0  0  0  0  0  0  0  0  0
    5.2048   -3.9468    0.0000 O   0  0  0  0  0  0  0  0  0  0  0  0
    5.2048   -5.3757    0.0000 C   0  0  0  0  0  0  0  0  0  0  0  0
    8.4263   -6.3113    0.0000 C   0  0  0  0  0  0  0  0  0  0  0  0
    9.1407   -6.7237    0.0000 C   0  0  0  0  0  0  0  0  0  0  0  0
    7.7118   -6.7237    0.0000 C   0  0  0  0  0  0  0  0  0  0  0  0
    9.8552   -6.3113    0.0000 O   0  0  0  0  0  0  0  0  0  0  0  0
    9.1407   -7.5488    0.0000 O   0  0  0  0  0  0  0  0  0  0  0  0
    6.6722   -6.1133    0.0000 C   0  0  0  0  0  0  0  0  0  0  0  0
    7.2243   -6.7264    0.0000 C   0  0  0  0  0  0  0  0  0  0  0  0
    6.9693   -7.5110    0.0000 C   0  0  0  0  0  0  0  0  0  0  0  0
    7.5214   -8.1241    0.0000 C   0  0  0  0  0  0  0  0  0  0  0  0
    7.2664   -8.9087    0.0000 C   0  0  0  0  0  0  0  0  0  0  0  0
    7.8185   -9.5218    0.0000 C   0  0  0  0  0  0  0  0  0  0  0  0
    8.6254   -9.3503    0.0000 C   0  0  0  0  0  0  0  0  0  0  0  0
    8.8804   -8.5657    0.0000 C   0  0  0  0  0  0  0  0  0  0  0  0
    8.3283   -7.9526    0.0000 C   0  0  0  0  0  0  0  0  0  0  0  0
    7.5635  -10.3065    0.0000 O   0  0  0  0  0  0  0  0  0  0  0  0
    8.1156  -10.9196    0.0000 C   0  0  0  0  0  0  0  0  0  0  0  0
    9.1775   -9.9634    0.0000 O   0  0  0  0  0  0  0  0  0  0  0  0
    9.6873   -8.3942    0.0000 O   0  0  0  0  0  0  0  0  0  0  0  0
   10.2394   -9.0073    0.0000 C   0  0  0  0  0  0  0  0  0  0  0  0
    8.4263   -3.0112    0.0000 C   0  0  0  0  0  0  0  0  0  0  0  0
  1  2  2  0  0  0  0
  2  3  1  0  0  0  0
  3  4  1  0  0  0  0
  4  5  1  0  0  0  0
  5  6  1  0  0  0  0
  6  1  1  0  0  0  0
  1  7  1  0  0  0  0
  7  8  2  0  0  0  0
  8  9  1  0  0  0  0
  9  2  1  0  0  0  0
  8 10  1  0  0  0  0
 10 11  2  0  0  0  0
 10 12  1  0  0  0  0
  3 13  1  1  0  0  0
 13 14  1  0  0  0  0
 13 15  2  0  0  0  0
 14 16  2  0  0  0  0
 14 17  1  0  0  0  0
  9 18  2  0  0  0  0
 18 19  1  0  0  0  0
 19 20  2  0  0  0  0
 20 21  1  0  0  0  0
 21 22  2  0  0  0  0
 22 23  1  0  0  0  0
 23 24  2  0  0  0  0
 24 25  1  0  0  0  0
 25 26  2  0  0  0  0
 26 21  1  0  0  0  0
 23 27  1  0  0  0  0
 27 28  1  0  0  0  0
 24 29  1  0  0  0  0
 25 30  1  0  0  0  0
 30 31  1  0  0  0  0
  6 32  1  6  0  0  0
M  END
>  <cdx:fragmentId>
5

$$$$
