96333.cdx
  Mrv1902 05222410202D          

 17 18  0  0  0  0            999 V2000
    7.0106   -6.3388    0.0000 C   0  0  2  0  0  0  0  0  0  0  0  0
    7.0106   -7.1638    0.0000 C   0  0  0  0  0  0  0  0  0  0  0  0
    7.7250   -7.5762    0.0000 C   0  0  1  0  0  0  0  0  0  0  0  0
    8.4395   -7.1638    0.0000 C   0  0  0  0  0  0  0  0  0  0  0  0
    8.4395   -6.3388    0.0000 C   0  0  0  0  0  0  0  0  0  0  0  0
    7.7250   -5.9262    0.0000 C   0  0  1  0  0  0  0  0  0  0  0  0
    6.2259   -6.0838    0.0000 C   0  0  0  0  0  0  0  0  0  0  0  0
    5.7410   -6.7512    0.0000 C   0  0  0  0  0  0  0  0  0  0  0  0
    6.2259   -7.4187    0.0000 C   0  0  0  0  0  0  0  0  0  0  0  0
    4.9160   -6.7512    0.0000 O   0  0  0  0  0  0  0  0  0  0  0  0
    7.7250   -8.4013    0.0000 C   0  0  0  0  0  0  0  0  0  0  0  0
    8.4395   -8.8138    0.0000 C   0  0  0  0  0  0  0  0  0  0  0  0
    6.9243   -5.5183    0.0000 H   0  0  0  0  0  0  0  0  0  0  0  0
    7.7250   -5.1013    0.0000 C   0  0  0  0  0  0  0  0  0  0  0  0
    7.0106   -8.8138    0.0000 C   0  0  0  0  0  0  0  0  0  0  0  0
    9.1540   -8.4013    0.0000 O   0  0  0  0  0  0  0  0  0  0  0  0
    8.4395   -9.6387    0.0000 O   0  0  0  0  0  0  0  0  0  0  0  0
  1  2  1  0  0  0  0
  2  3  1  0  0  0  0
  3  4  1  0  0  0  0
  4  5  1  0  0  0  0
  5  6  1  0  0  0  0
  6  1  1  0  0  0  0
  1  7  1  0  0  0  0
  7  8  1  0  0  0  0
  8  9  1  0  0  0  0
  9  2  2  0  0  0  0
  8 10  2  0  0  0  0
  3 11  1  1  0  0  0
 11 12  1  0  0  0  0
  1 13  1  6  0  0  0
  6 14  1  6  0  0  0
 11 15  2  0  0  0  0
 12 16  1  0  0  0  0
 12 17  2  0  0  0  0
M  END
>  <cdx:fragmentId>
5

$$$$
