96330.cdx
  Mrv1902 05222410192D          

 41 46  0  0  0  0            999 V2000
    6.6775   -8.0507    0.0000 C   0  0  0  0  0  0  0  0  0  0  0  0
    5.9098   -8.3522    0.0000 O   0  0  0  0  0  0  0  0  0  0  0  0
    6.2623   -7.6063    0.0000 C   0  0  0  0  0  0  0  0  0  0  0  0
    7.0184   -7.2771    0.0000 C   0  0  0  0  0  0  0  0  0  0  0  0
    6.6775   -6.4220    0.0000 O   0  0  0  0  0  0  0  0  0  0  0  0
    7.7759   -7.6034    0.0000 C   0  0  0  0  0  0  0  0  0  0  0  0
    7.4481   -8.3449    0.0000 C   0  0  1  0  0  0  0  0  0  0  0  0
    8.2202   -8.9524    0.0000 C   0  0  0  0  0  0  0  0  0  0  0  0
    5.6880   -7.0141    0.0000 O   0  0  0  0  0  0  0  0  0  0  0  0
    6.0450   -8.7789    0.0000 C   0  0  2  0  0  0  0  0  0  0  0  0
    6.2585   -9.5758    0.0000 C   0  0  1  0  0  0  0  0  0  0  0  0
    7.0554   -9.7893    0.0000 C   0  0  0  0  0  0  0  0  0  0  0  0
    7.6388   -9.2059    0.0000 C   0  0  0  0  0  0  0  0  0  0  0  0
    7.6097   -6.7018    0.0000 C   0  0  2  0  0  0  0  0  0  0  0  0
    8.4036   -6.9262    0.0000 C   0  0  0  0  0  0  0  0  0  0  0  0
    8.9949   -6.3509    0.0000 C   0  0  0  0  0  0  0  0  0  0  0  0
    8.7923   -5.5512    0.0000 C   0  0  2  0  0  0  0  0  0  0  0  0
    7.9984   -5.3267    0.0000 C   0  0  1  0  0  0  0  0  0  0  0  0
    7.4071   -5.9021    0.0000 C   0  0  1  0  0  0  0  0  0  0  0  0
    7.6340   -4.5866    0.0000 C   0  0  0  0  0  0  0  0  0  0  0  0
    6.8174   -4.7045    0.0000 C   0  0  0  0  0  0  0  0  0  0  0  0
    6.6772   -5.5175    0.0000 C   0  0  0  0  0  0  0  0  0  0  0  0
    6.2421   -4.1132    0.0000 C   0  0  0  0  0  0  0  0  0  0  0  0
    6.4666   -3.3193    0.0000 O   0  0  0  0  0  0  0  0  0  0  0  0
    5.4424   -4.3158    0.0000 C   0  0  0  0  0  0  0  0  0  0  0  0
    5.2481   -8.5654    0.0000 C   0  0  1  0  0  0  0  0  0  0  0  0
    4.6647   -9.1487    0.0000 C   0  0  0  0  0  0  0  0  0  0  0  0
    4.8783   -9.9456    0.0000 C   0  0  0  0  0  0  0  0  0  0  0  0
    5.6751  -10.1591    0.0000 C   0  0  1  0  0  0  0  0  0  0  0  0
    5.0346   -7.7685    0.0000 C   0  0  0  0  0  0  0  0  0  0  0  0
    5.2481   -6.9716    0.0000 C   0  0  0  0  0  0  0  0  0  0  0  0
    4.2096   -7.7685    0.0000 C   0  0  0  0  0  0  0  0  0  0  0  0
    3.7971   -7.0540    0.0000 O   0  0  0  0  0  0  0  0  0  0  0  0
    3.7971   -8.4829    0.0000 O   0  0  0  0  0  0  0  0  0  0  0  0
    8.5263   -4.6928    0.0000 H   0  0  0  0  0  0  0  0  0  0  0  0
    9.3836   -4.9759    0.0000 C   0  0  0  0  0  0  0  0  0  0  0  0
    8.1930   -7.2852    0.0000 H   0  0  0  0  0  0  0  0  0  0  0  0
    5.4616   -9.3622    0.0000 H   0  0  0  0  0  0  0  0  0  0  0  0
    5.8887  -10.9560    0.0000 C   0  0  0  0  0  0  0  0  0  0  0  0
    8.2040   -6.1156    0.0000 H   0  0  0  0  0  0  0  0  0  0  0  0
    6.8419   -8.9924    0.0000 H   0  0  0  0  0  0  0  0  0  0  0  0
  1  2  1  0  0  0  0
  2  3  1  0  0  0  0
  3  4  1  0  0  0  0
  1  5  1  0  0  0  0
  4  5  1  0  0  0  0
  4  6  1  0  0  0  0
  1  7  1  0  0  0  0
  6  8  1  0  0  0  0
  7  8  1  0  0  0  0
  3  9  2  0  0  0  0
  1 10  1  0  0  0  0
 10 11  1  0  0  0  0
 11 12  1  0  0  0  0
 12 13  1  0  0  0  0
  4 14  1  0  0  0  0
 14 15  1  0  0  0  0
 15 16  1  0  0  0  0
 16 17  1  0  0  0  0
 17 18  1  0  0  0  0
 18 19  1  0  0  0  0
 19 14  1  0  0  0  0
 18 20  1  0  0  0  0
 20 21  1  0  0  0  0
 21 22  2  0  0  0  0
 22 19  1  0  0  0  0
 21 23  1  0  0  0  0
 23 24  2  0  0  0  0
 23 25  1  0  0  0  0
  7 13  1  6  0  0  0
 10 26  1  0  0  0  0
 26 27  1  0  0  0  0
 27 28  1  0  0  0  0
 28 29  1  0  0  0  0
 29 11  1  0  0  0  0
 26 30  1  1  0  0  0
 30 31  2  0  0  0  0
 30 32  1  0  0  0  0
 32 33  1  0  0  0  0
 32 34  2  0  0  0  0
 18 35  1  6  0  0  0
 17 36  1  6  0  0  0
 14 37  1  6  0  0  0
 11 38  1  6  0  0  0
 29 39  1  6  0  0  0
 19 40  1  1  0  0  0
 10 41  1  1  0  0  0
M  END
>  <cdx:groupId>
816

>  <cdx:fragmentId>
817

$$$$
