96341.cdx
  Mrv1902 05222410212D          

 22 21  0  0  0  0            999 V2000
    2.6360   -8.1691    0.0000 C   0  0  0  0  0  0  0  0  0  0  0  0
    3.1361   -7.8804    0.0000 C   0  0  0  0  0  0  0  0  0  0  0  0
    3.6362   -8.1691    0.0000 C   0  0  0  0  0  0  0  0  0  0  0  0
    4.1363   -7.8804    0.0000 C   0  0  0  0  0  0  0  0  0  0  0  0
    4.6365   -8.1691    0.0000 C   0  0  0  0  0  0  0  0  0  0  0  0
    5.1366   -7.8804    0.0000 C   0  0  0  0  0  0  0  0  0  0  0  0
    5.6367   -8.1691    0.0000 C   0  0  0  0  0  0  0  0  0  0  0  0
    6.1369   -7.8804    0.0000 C   0  0  0  0  0  0  0  0  0  0  0  0
    6.6370   -8.1691    0.0000 C   0  0  0  0  0  0  0  0  0  0  0  0
    7.1371   -7.8804    0.0000 C   0  0  0  0  0  0  0  0  0  0  0  0
    7.6373   -8.1691    0.0000 C   0  0  0  0  0  0  0  0  0  0  0  0
    8.1374   -7.8804    0.0000 C   0  0  0  0  0  0  0  0  0  0  0  0
    8.6375   -8.1691    0.0000 C   0  0  0  0  0  0  0  0  0  0  0  0
    9.1376   -7.8804    0.0000 C   0  0  0  0  0  0  0  0  0  0  0  0
    9.6378   -8.1691    0.0000 C   0  0  0  0  0  0  0  0  0  0  0  0
   10.1379   -7.8804    0.0000 C   0  0  0  0  0  0  0  0  0  0  0  0
   10.6380   -8.1691    0.0000 C   0  0  0  0  0  0  0  0  0  0  0  0
   11.1382   -7.8804    0.0000 C   0  0  0  0  0  0  0  0  0  0  0  0
   11.6383   -8.1691    0.0000 C   0  0  0  0  0  0  0  0  0  0  0  0
   12.1384   -7.8804    0.0000 C   0  0  0  0  0  0  0  0  0  0  0  0
    2.6360   -8.7466    0.0000 O   0  0  0  0  0  0  0  0  0  0  0  0
    2.1358   -7.8804    0.0000 O   0  0  0  0  0  0  0  0  0  0  0  0
  1  2  1  0  0  0  0
  2  3  1  0  0  0  0
  3  4  1  0  0  0  0
  4  5  1  0  0  0  0
  5  6  1  0  0  0  0
  6  7  1  0  0  0  0
  7  8  1  0  0  0  0
  8  9  1  0  0  0  0
  9 10  1  0  0  0  0
 10 11  1  0  0  0  0
 11 12  1  0  0  0  0
 12 13  1  0  0  0  0
 13 14  1  0  0  0  0
 14 15  1  0  0  0  0
 15 16  1  0  0  0  0
 16 17  1  0  0  0  0
 17 18  1  0  0  0  0
 18 19  1  0  0  0  0
 19 20  1  0  0  0  0
  1 21  2  0  0  0  0
  1 22  1  0  0  0  0
M  END
>  <cdx:fragmentId>
5

$$$$
