96357.cdx
  Mrv1902 05222410212D          

 44 48  0  0  0  0            999 V2000
    3.4631   -8.7588    0.0000 C   0  0  0  0  0  0  0  0  0  0  0  0
    3.4631   -9.5838    0.0000 C   0  0  0  0  0  0  0  0  0  0  0  0
    4.1775   -9.9962    0.0000 C   0  0  0  0  0  0  0  0  0  0  0  0
    4.8920   -9.5838    0.0000 C   0  0  0  0  0  0  0  0  0  0  0  0
    4.8920   -8.7588    0.0000 C   0  0  0  0  0  0  0  0  0  0  0  0
    4.1775   -8.3462    0.0000 C   0  0  0  0  0  0  0  0  0  0  0  0
    5.6065   -9.9962    0.0000 C   0  0  0  0  0  0  0  0  0  0  0  0
    6.3209   -9.5838    0.0000 C   0  0  0  0  0  0  0  0  0  0  0  0
    6.3209   -8.7588    0.0000 C   0  0  0  0  0  0  0  0  0  0  0  0
    5.6065   -8.3462    0.0000 C   0  0  0  0  0  0  0  0  0  0  0  0
   12.0367   -7.1087    0.0000 O   0  0  0  0  0  0  0  0  0  0  0  0
    6.3209   -7.1088    0.0000 C   0  0  0  0  0  0  0  0  0  0  0  0
    5.6065   -7.5213    0.0000 C   0  0  0  0  0  0  0  0  0  0  0  0
    6.3209   -6.2837    0.0000 C   0  0  0  0  0  0  0  0  0  0  0  0
    5.6065   -5.8712    0.0000 C   0  0  0  0  0  0  0  0  0  0  0  0
    4.8920   -6.2837    0.0000 C   0  0  0  0  0  0  0  0  0  0  0  0
    4.8920   -7.1088    0.0000 C   0  0  0  0  0  0  0  0  0  0  0  0
    7.0354   -7.5213    0.0000 O   0  0  0  0  0  0  0  0  0  0  0  0
    7.0354   -5.8712    0.0000 O   0  0  0  0  0  0  0  0  0  0  0  0
   10.6078   -8.7587    0.0000 C   0  0  0  0  0  0  0  0  0  0  0  0
   11.3222   -8.3462    0.0000 C   0  0  0  0  0  0  0  0  0  0  0  0
   11.3222   -7.5212    0.0000 C   0  0  0  0  0  0  0  0  0  0  0  0
   10.6078   -7.1087    0.0000 C   0  0  0  0  0  0  0  0  0  0  0  0
    9.8933   -8.3462    0.0000 C   0  0  0  0  0  0  0  0  0  0  0  0
    9.8933   -7.5212    0.0000 C   0  0  0  0  0  0  0  0  0  0  0  0
    9.1788   -8.7587    0.0000 C   0  0  0  0  0  0  0  0  0  0  0  0
    7.0354   -9.9962    0.0000 C   0  0  0  0  0  0  0  0  0  0  0  0
    7.7499   -9.5838    0.0000 N   0  0  0  0  0  0  0  0  0  0  0  0
    8.4644   -8.3462    0.0000 C   0  0  0  0  0  0  0  0  0  0  0  0
    8.4644   -9.9962    0.0000 C   0  0  0  0  0  0  0  0  0  0  0  0
    9.1788   -9.5838    0.0000 C   0  0  0  0  0  0  0  0  0  0  0  0
    9.8933   -9.9962    0.0000 C   0  0  0  0  0  0  0  0  0  0  0  0
   10.6078   -9.5838    0.0000 C   0  0  0  0  0  0  0  0  0  0  0  0
    9.8933  -10.8212    0.0000 C   0  0  0  0  0  0  0  0  0  0  0  0
   10.6078  -11.2337    0.0000 C   0  0  0  0  0  0  0  0  0  0  0  0
   11.3222  -10.8212    0.0000 C   0  0  0  0  0  0  0  0  0  0  0  0
   11.3222   -9.9962    0.0000 C   0  0  0  0  0  0  0  0  0  0  0  0
    2.7486   -8.3462    0.0000 O   0  0  0  0  0  0  0  0  0  0  0  0
    2.7486   -9.9962    0.0000 O   0  0  0  0  0  0  0  0  0  0  0  0
    5.6065   -5.0462    0.0000 O   0  0  0  0  0  0  0  0  0  0  0  0
    7.7499   -8.7587    0.0000 N   0  0  0  0  0  0  0  0  0  0  0  0
    7.0354   -8.3462    0.0000 C   0  0  0  0  0  0  0  0  0  0  0  0
    7.0354  -10.8212    0.0000 O   0  0  0  0  0  0  0  0  0  0  0  0
   12.0367  -11.2338    0.0000 O   0  0  0  0  0  0  0  0  0  0  0  0
  1  2  2  0  0  0  0
  2  3  1  0  0  0  0
  3  4  2  0  0  0  0
  4  5  1  0  0  0  0
  5  6  2  0  0  0  0
  6  1  1  0  0  0  0
  4  7  1  0  0  0  0
  7  8  2  0  0  0  0
  8  9  1  0  0  0  0
  9 10  2  0  0  0  0
 10  5  1  0  0  0  0
 22 11  1  0  0  0  0
  9 42  1  0  0  0  0
 18 42  2  0  0  0  0
 12 13  2  0  0  0  0
 13 10  1  0  0  0  0
 12 14  1  0  0  0  0
 14 15  2  0  0  0  0
 15 16  1  0  0  0  0
 16 17  2  0  0  0  0
 17 13  1  0  0  0  0
 20 24  1  0  0  0  0
 21 20  2  0  0  0  0
 22 21  1  0  0  0  0
 19 14  1  0  0  0  0
 23 22  2  0  0  0  0
 25 23  1  0  0  0  0
 24 26  1  0  0  0  0
 25 24  2  0  0  0  0
 29 26  1  0  0  0  0
 41 29  1  0  0  0  0
  8 27  1  0  0  0  0
 27 28  1  0  0  0  0
 42 41  1  0  0  0  0
 28 30  1  0  0  0  0
 30 31  1  0  0  0  0
 31 32  1  0  0  0  0
 32 33  1  0  0  0  0
 32 34  2  0  0  0  0
 34 35  1  0  0  0  0
 35 36  2  0  0  0  0
 36 37  1  0  0  0  0
 37 33  2  0  0  0  0
  1 38  1  0  0  0  0
  2 39  1  0  0  0  0
 15 40  1  0  0  0  0
 27 43  2  0  0  0  0
 36 44  1  0  0  0  0
M  END
>  <cdx:fragmentId>
5

$$$$
