96359.cdx
  Mrv1902 05222410262D          

 46 50  0  0  0  0            999 V2000
    3.4646   -8.7477    0.0000 C   0  0  0  0  0  0  0  0  0  0  0  0
    3.4660   -9.5727    0.0000 C   0  0  0  0  0  0  0  0  0  0  0  0
    4.1811   -9.9840    0.0000 C   0  0  0  0  0  0  0  0  0  0  0  0
    4.8949   -9.5704    0.0000 C   0  0  0  0  0  0  0  0  0  0  0  0
    4.8936   -8.7454    0.0000 C   0  0  0  0  0  0  0  0  0  0  0  0
    4.1785   -8.3340    0.0000 C   0  0  0  0  0  0  0  0  0  0  0  0
    5.6100   -9.9818    0.0000 C   0  0  0  0  0  0  0  0  0  0  0  0
    6.3238   -9.5682    0.0000 C   0  0  0  0  0  0  0  0  0  0  0  0
    6.3225   -8.7432    0.0000 C   0  0  2  0  0  0  0  0  0  0  0  0
    5.6074   -8.3318    0.0000 C   0  0  2  0  0  0  0  0  0  0  0  0
    7.0363   -8.3295    0.0000 C   0  0  0  0  0  0  0  0  0  0  0  0
    7.0350   -7.5045    0.0000 N   0  0  0  0  0  0  0  0  0  0  0  0
    6.3199   -7.0932    0.0000 C   0  0  0  0  0  0  0  0  0  0  0  0
    5.6061   -7.5068    0.0000 C   0  0  0  0  0  0  0  0  0  0  0  0
    6.3186   -6.2682    0.0000 C   0  0  0  0  0  0  0  0  0  0  0  0
    5.6035   -5.8568    0.0000 C   0  0  0  0  0  0  0  0  0  0  0  0
    4.8897   -6.2704    0.0000 C   0  0  0  0  0  0  0  0  0  0  0  0
    4.8910   -7.0954    0.0000 C   0  0  0  0  0  0  0  0  0  0  0  0
    7.7489   -7.0909    0.0000 C   0  0  0  0  0  0  0  0  0  0  0  0
    7.7476   -6.2659    0.0000 C   0  0  0  0  0  0  0  0  0  0  0  0
    7.0324   -5.8545    0.0000 O   0  0  0  0  0  0  0  0  0  0  0  0
    9.1765   -6.2636    0.0000 C   0  0  0  0  0  0  0  0  0  0  0  0
    8.4614   -5.8523    0.0000 C   0  0  0  0  0  0  0  0  0  0  0  0
    9.8903   -5.8500    0.0000 C   0  0  0  0  0  0  0  0  0  0  0  0
    9.8890   -5.0250    0.0000 C   0  0  0  0  0  0  0  0  0  0  0  0
    9.1739   -4.6136    0.0000 C   0  0  0  0  0  0  0  0  0  0  0  0
    8.4601   -5.0273    0.0000 C   0  0  0  0  0  0  0  0  0  0  0  0
    7.0390   -9.9795    0.0000 C   0  0  0  0  0  0  0  0  0  0  0  0
    7.7528   -9.5659    0.0000 N   0  0  0  0  0  0  0  0  0  0  0  0
    7.7515   -8.7409    0.0000 O   0  0  0  0  0  0  0  0  0  0  0  0
    8.4679   -9.9773    0.0000 C   0  0  0  0  0  0  0  0  0  0  0  0
    9.1817   -9.5636    0.0000 C   0  0  0  0  0  0  0  0  0  0  0  0
    9.8968   -9.9750    0.0000 C   0  0  0  0  0  0  0  0  0  0  0  0
   10.6107   -9.5614    0.0000 C   0  0  0  0  0  0  0  0  0  0  0  0
    9.8981  -10.8000    0.0000 C   0  0  0  0  0  0  0  0  0  0  0  0
   10.6133  -11.2114    0.0000 C   0  0  0  0  0  0  0  0  0  0  0  0
   11.3271  -10.7977    0.0000 C   0  0  0  0  0  0  0  0  0  0  0  0
   11.3258   -9.9727    0.0000 C   0  0  0  0  0  0  0  0  0  0  0  0
    2.7495   -8.3363    0.0000 O   0  0  0  0  0  0  0  0  0  0  0  0
    2.7521   -9.9863    0.0000 O   0  0  0  0  0  0  0  0  0  0  0  0
    5.6022   -5.0318    0.0000 O   0  0  0  0  0  0  0  0  0  0  0  0
   10.6028   -4.6114    0.0000 O   0  0  0  0  0  0  0  0  0  0  0  0
    7.0403  -10.8045    0.0000 O   0  0  0  0  0  0  0  0  0  0  0  0
   12.0422  -11.2091    0.0000 O   0  0  0  0  0  0  0  0  0  0  0  0
    2.0370   -9.5749    0.0000 C   0  0  0  0  0  0  0  0  0  0  0  0
    7.0311   -5.0295    0.0000 C   0  0  0  0  0  0  0  0  0  0  0  0
  1  2  2  0  0  0  0
  2  3  1  0  0  0  0
  3  4  2  0  0  0  0
  4  5  1  0  0  0  0
  5  6  2  0  0  0  0
  6  1  1  0  0  0  0
  4  7  1  0  0  0  0
  7  8  2  0  0  0  0
  8  9  1  0  0  0  0
  9 10  1  0  0  0  0
 10  5  1  0  0  0  0
  9 11  1  6  0  0  0
 11 12  1  0  0  0  0
 13 14  2  0  0  0  0
 10 14  1  1  0  0  0
 13 15  1  0  0  0  0
 15 16  2  0  0  0  0
 16 17  1  0  0  0  0
 17 18  2  0  0  0  0
 18 14  1  0  0  0  0
 12 19  1  0  0  0  0
 19 20  1  0  0  0  0
 21 15  1  0  0  0  0
 22 23  2  0  0  0  0
 23 20  1  0  0  0  0
 22 24  1  0  0  0  0
 24 25  2  0  0  0  0
 25 26  1  0  0  0  0
 26 27  2  0  0  0  0
 27 23  1  0  0  0  0
  8 28  1  0  0  0  0
 28 29  1  0  0  0  0
 30 11  2  0  0  0  0
 29 31  1  0  0  0  0
 31 32  1  0  0  0  0
 32 33  1  0  0  0  0
 33 34  1  0  0  0  0
 33 35  2  0  0  0  0
 35 36  1  0  0  0  0
 36 37  2  0  0  0  0
 37 38  1  0  0  0  0
 38 34  2  0  0  0  0
  1 39  1  0  0  0  0
  2 40  1  0  0  0  0
 16 41  1  0  0  0  0
 25 42  1  0  0  0  0
 28 43  2  0  0  0  0
 37 44  1  0  0  0  0
 40 45  1  0  0  0  0
 21 46  1  0  0  0  0
M  END
>  <cdx:fragmentId>
5

$$$$
