963770.cdx
  Mrv1902 05222410202D          

 22 24  0  0  0  0            999 V2000
    6.0243  -10.0729    0.0000 O   0  0  0  0  0  0  0  0  0  0  0  0
    3.8808   -8.0104    0.0000 C   0  0  0  0  0  0  0  0  0  0  0  0
    4.5953   -7.5979    0.0000 O   0  0  0  0  0  0  0  0  0  0  0  0
    5.3098   -6.3604    0.0000 C   0  0  0  0  0  0  0  0  0  0  0  0
    6.0243   -6.7729    0.0000 O   0  0  0  0  0  0  0  0  0  0  0  0
    8.8821   -6.7729    0.0000 C   0  0  0  0  0  0  0  0  0  0  0  0
    9.5966   -6.3604    0.0000 C   0  0  0  0  0  0  0  0  0  0  0  0
   10.3111   -6.7729    0.0000 C   0  0  0  0  0  0  0  0  0  0  0  0
   10.3111   -7.5979    0.0000 C   0  0  0  0  0  0  0  0  0  0  0  0
    9.5966   -8.0104    0.0000 C   0  0  0  0  0  0  0  0  0  0  0  0
    8.8821   -7.5979    0.0000 C   0  0  0  0  0  0  0  0  0  0  0  0
    7.4532  -10.0729    0.0000 O   0  0  0  0  0  0  0  0  0  0  0  0
    7.4532   -7.5979    0.0000 O   0  0  0  0  0  0  0  0  0  0  0  0
    6.7387   -8.0104    0.0000 C   0  0  0  0  0  0  0  0  0  0  0  0
    6.0243   -7.5979    0.0000 C   0  0  0  0  0  0  0  0  0  0  0  0
    5.3098   -8.0104    0.0000 C   0  0  0  0  0  0  0  0  0  0  0  0
    5.3098   -8.8354    0.0000 C   0  0  0  0  0  0  0  0  0  0  0  0
    6.0243   -9.2479    0.0000 C   0  0  0  0  0  0  0  0  0  0  0  0
    6.7387   -8.8354    0.0000 C   0  0  0  0  0  0  0  0  0  0  0  0
    7.4532   -9.2479    0.0000 C   0  0  0  0  0  0  0  0  0  0  0  0
    8.1677   -8.8354    0.0000 C   0  0  0  0  0  0  0  0  0  0  0  0
    8.1677   -8.0104    0.0000 C   0  0  0  0  0  0  0  0  0  0  0  0
 18  1  1  0  0  0  0
 16  3  1  0  0  0  0
  3  2  1  0  0  0  0
 15  5  1  0  0  0  0
  5  4  1  0  0  0  0
 22 11  1  0  0  0  0
 11  6  2  0  0  0  0
  7  6  1  0  0  0  0
  8  7  2  0  0  0  0
  9  8  1  0  0  0  0
 10  9  2  0  0  0  0
 11 10  1  0  0  0  0
 20 12  2  0  0  0  0
 22 13  1  0  0  0  0
 14 13  1  0  0  0  0
 19 14  2  0  0  0  0
 15 14  1  0  0  0  0
 16 15  2  0  0  0  0
 17 16  1  0  0  0  0
 18 17  2  0  0  0  0
 19 18  1  0  0  0  0
 20 19  1  0  0  0  0
 21 20  1  0  0  0  0
 22 21  1  0  0  0  0
M  END
>  <cdx:fragmentId>
99088

$$$$
