96371.cdx
  Mrv1902 05222410262D          

 65 69  0  0  0  0            999 V2000
    3.7560   -4.0371    0.0000 Mg  0  2  0  0  0  0  0  0  0  0  0  0
    1.9828   -7.3867    0.0000 O   0  0  0  0  0  0  0  0  0  0  0  0
    3.8388   -8.2290    0.0000 O   0  0  0  0  0  0  0  0  0  0  0  0
    4.9710   -7.3579    0.0000 O   0  0  0  0  0  0  0  0  0  0  0  0
    6.9539   -8.3022    0.0000 O   0  0  0  0  0  0  0  0  0  0  0  0
    5.5372   -8.4857    0.0000 O   0  0  0  0  0  0  0  0  0  0  0  0
    4.6294   -4.8977    0.0000 N   0  0  0  0  0  0  0  0  0  0  0  0
    3.0146   -4.8062    0.0000 N   0  5  0  0  0  0  0  0  0  0  0  0
    4.5536   -3.2623    0.0000 N   0  5  0  0  0  0  0  0  0  0  0  0
    2.9563   -3.1887    0.0000 N   0  0  0  0  0  0  0  0  0  0  0  0
    5.2195   -6.0319    0.0000 C   0  0  1  0  0  0  0  0  0  0  0  0
    5.7888   -5.4745    0.0000 C   0  0  1  0  0  0  0  0  0  0  0  0
    4.5461   -5.6488    0.0000 C   0  0  0  0  0  0  0  0  0  0  0  0
    3.8289   -6.0172    0.0000 C   0  0  0  0  0  0  0  0  0  0  0  0
    5.3254   -6.8498    0.0000 C   0  0  0  0  0  0  0  0  0  0  0  0
    3.1192   -5.5969    0.0000 C   0  0  0  0  0  0  0  0  0  0  0  0
    3.6506   -6.8130    0.0000 C   0  0  2  0  0  0  0  0  0  0  0  0
    5.4015   -4.7741    0.0000 C   0  0  0  0  0  0  0  0  0  0  0  0
    2.4010   -5.9643    0.0000 C   0  0  0  0  0  0  0  0  0  0  0  0
    2.5300   -6.7696    0.0000 C   0  0  0  0  0  0  0  0  0  0  0  0
    6.6048   -5.5941    0.0000 C   0  0  0  0  0  0  0  0  0  0  0  0
    1.8436   -5.3949    0.0000 C   0  0  0  0  0  0  0  0  0  0  0  0
    2.2071   -4.7034    0.0000 C   0  0  0  0  0  0  0  0  0  0  0  0
    6.0867   -7.1671    0.0000 C   0  0  0  0  0  0  0  0  0  0  0  0
    5.7659   -4.0835    0.0000 C   0  0  0  0  0  0  0  0  0  0  0  0
    5.3986   -3.3654    0.0000 C   0  0  0  0  0  0  0  0  0  0  0  0
    4.1535   -7.4666    0.0000 C   0  0  0  0  0  0  0  0  0  0  0  0
    5.7435   -2.6549    0.0000 C   0  0  0  0  0  0  0  0  0  0  0  0
    1.0276   -5.5144    0.0000 C   0  0  0  0  0  0  0  0  0  0  0  0
    4.4680   -2.4529    0.0000 C   0  0  0  0  0  0  0  0  0  0  0  0
    1.8397   -3.9853    0.0000 C   0  0  0  0  0  0  0  0  0  0  0  0
    5.1861   -2.0855    0.0000 C   0  0  0  0  0  0  0  0  0  0  0  0
    6.1926   -7.9850    0.0000 C   0  0  0  0  0  0  0  0  0  0  0  0
   11.3959  -14.7960    0.0000 C   0  0  1  0  0  0  0  0  0  0  0  0
    2.2033   -3.2938    0.0000 C   0  0  0  0  0  0  0  0  0  0  0  0
   11.2899  -13.9780    0.0000 C   0  0  0  0  0  0  0  0  0  0  0  0
    9.6614  -12.5256    0.0000 C   0  0  2  0  0  0  0  0  0  0  0  0
   10.5286  -13.6608    0.0000 C   0  0  0  0  0  0  0  0  0  0  0  0
   10.4227  -12.8429    0.0000 C   0  0  0  0  0  0  0  0  0  0  0  0
    3.7768   -2.0517    0.0000 C   0  0  0  0  0  0  0  0  0  0  0  0
   12.1571  -15.1132    0.0000 C   0  0  0  0  0  0  0  0  0  0  0  0
    1.8170   -2.5943    0.0000 C   0  0  0  0  0  0  0  0  0  0  0  0
    3.0773   -2.4382    0.0000 C   0  0  0  0  0  0  0  0  0  0  0  0
    6.5575   -2.5223    0.0000 C   0  0  0  0  0  0  0  0  0  0  0  0
    9.5555  -11.7077    0.0000 C   0  0  0  0  0  0  0  0  0  0  0  0
    2.3863   -2.0370    0.0000 C   0  0  0  0  0  0  0  0  0  0  0  0
   12.2631  -15.9311    0.0000 C   0  0  0  0  0  0  0  0  0  0  0  0
    8.7942  -11.3904    0.0000 C   0  0  0  0  0  0  0  0  0  0  0  0
    5.3188   -1.2715    0.0000 C   0  0  0  0  0  0  0  0  0  0  0  0
   13.0244  -16.2484    0.0000 C   0  0  0  0  0  0  0  0  0  0  0  0
   10.7405  -15.2966    0.0000 C   0  0  0  0  0  0  0  0  0  0  0  0
    9.0060  -13.0263    0.0000 C   0  0  0  0  0  0  0  0  0  0  0  0
    1.0009   -2.4746    0.0000 C   0  0  0  0  0  0  0  0  0  0  0  0
   13.1303  -17.0663    0.0000 C   0  0  0  0  0  0  0  0  0  0  0  0
    8.6883  -10.5725    0.0000 C   0  0  0  0  0  0  0  0  0  0  0  0
    4.3418   -8.8827    0.0000 C   0  0  0  0  0  0  0  0  0  0  0  0
    2.2839   -1.2186    0.0000 C   0  0  0  0  0  0  0  0  0  0  0  0
    7.0598   -9.1202    0.0000 C   0  0  0  0  0  0  0  0  0  0  0  0
    7.9269  -10.2553    0.0000 C   0  0  0  0  0  0  0  0  0  0  0  0
    7.8210   -9.4374    0.0000 C   0  0  0  0  0  0  0  0  0  0  0  0
    0.6966   -1.7081    0.0000 C   0  0  0  0  0  0  0  0  0  0  0  0
   13.8916  -17.3835    0.0000 C   0  0  0  0  0  0  0  0  0  0  0  0
   12.4749  -17.5670    0.0000 C   0  0  0  0  0  0  0  0  0  0  0  0
    6.0900   -0.9794    0.0000 C   0  0  0  0  0  0  0  0  0  0  0  0
    7.2716  -10.7560    0.0000 C   0  0  0  0  0  0  0  0  0  0  0  0
  2 20  2  0  0  0  0
  3 27  1  0  0  0  0
  3 56  1  0  0  0  0
  4 27  2  0  0  0  0
  5 33  1  0  0  0  0
  5 58  1  0  0  0  0
  6 33  2  0  0  0  0
  7 13  1  0  0  0  0
  7 18  2  0  0  0  0
  8 16  1  0  0  0  0
  8 23  1  0  0  0  0
  9 26  1  0  0  0  0
  9 30  1  0  0  0  0
 10 35  1  0  0  0  0
 10 43  2  0  0  0  0
 11 12  1  0  0  0  0
 11 13  1  0  0  0  0
 11 15  1  6  0  0  0
 12 18  1  0  0  0  0
 12 21  1  1  0  0  0
 13 14  2  0  0  0  0
 14 16  1  0  0  0  0
 14 17  1  0  0  0  0
 15 24  1  0  0  0  0
 16 19  2  0  0  0  0
 17 20  1  0  0  0  0
 17 27  1  1  0  0  0
 18 25  1  0  0  0  0
 19 20  1  0  0  0  0
 19 22  1  0  0  0  0
 22 23  2  0  0  0  0
 22 29  1  0  0  0  0
 23 31  1  0  0  0  0
 24 33  1  0  0  0  0
 25 26  2  0  0  0  0
 26 28  1  0  0  0  0
 28 32  2  0  0  0  0
 28 44  1  0  0  0  0
 30 32  1  0  0  0  0
 30 40  2  0  0  0  0
 31 35  2  0  0  0  0
 32 49  1  0  0  0  0
 34 36  1  0  0  0  0
 34 41  1  0  0  0  0
 34 51  1  1  0  0  0
 35 42  1  0  0  0  0
 36 38  1  0  0  0  0
 37 39  1  0  0  0  0
 37 45  1  0  0  0  0
 37 52  1  1  0  0  0
 38 39  1  0  0  0  0
 40 43  1  0  0  0  0
 41 47  1  0  0  0  0
 42 46  2  0  0  0  0
 42 53  1  0  0  0  0
 43 46  1  0  0  0  0
 45 48  1  0  0  0  0
 46 57  1  0  0  0  0
 47 50  1  0  0  0  0
 48 55  1  0  0  0  0
 49 64  2  0  0  0  0
 50 54  1  0  0  0  0
 53 61  1  0  0  0  0
 54 62  1  0  0  0  0
 54 63  1  0  0  0  0
 55 59  1  0  0  0  0
 58 60  1  0  0  0  0
 59 60  2  0  0  0  0
 59 65  1  0  0  0  0
M  CHG  3   1   2   8  -1   9  -1
M  END
>  <cdx:groupId>
1

>  <cdx:fragmentId>
281

$$$$
