96372.cdx
  Mrv1902 05222410252D          

 66 70  0  0  0  0            999 V2000
    3.6691   -4.8206    0.0000 Mg  0  2  0  0  0  0  0  0  0  0  0  0
    1.9644   -8.2056    0.0000 O   0  0  0  0  0  0  0  0  0  0  0  0
    3.8372   -9.0101    0.0000 O   0  0  0  0  0  0  0  0  0  0  0  0
    4.9514   -8.1161    0.0000 O   0  0  0  0  0  0  0  0  0  0  0  0
    6.9530   -9.0199    0.0000 O   0  0  0  0  0  0  0  0  0  0  0  0
    5.5404   -9.2321    0.0000 O   0  0  0  0  0  0  0  0  0  0  0  0
    1.3738   -1.7276    0.0000 O   0  0  0  0  0  0  0  0  0  0  0  0
    4.5599   -5.6634    0.0000 N   0  0  0  0  0  0  0  0  0  0  0  0
    2.9435   -5.6047    0.0000 N   0  5  0  0  0  0  0  0  0  0  0  0
    4.4507   -4.0298    0.0000 N   0  5  0  0  0  0  0  0  0  0  0  0
    2.8523   -3.9887    0.0000 N   0  0  0  0  0  0  0  0  0  0  0  0
    5.1728   -6.7853    0.0000 C   0  0  1  0  0  0  0  0  0  0  0  0
    5.7307   -6.2165    0.0000 C   0  0  1  0  0  0  0  0  0  0  0  0
    4.4918   -6.4160    0.0000 C   0  0  0  0  0  0  0  0  0  0  0  0
    3.7823   -6.7989    0.0000 C   0  0  0  0  0  0  0  0  0  0  0  0
    5.2953   -7.6009    0.0000 C   0  0  0  0  0  0  0  0  0  0  0  0
    3.0641   -6.3931    0.0000 C   0  0  0  0  0  0  0  0  0  0  0  0
    3.6201   -7.5981    0.0000 C   0  0  2  0  0  0  0  0  0  0  0  0
    5.3292   -5.5240    0.0000 C   0  0  0  0  0  0  0  0  0  0  0  0
    2.3536   -6.7751    0.0000 C   0  0  0  0  0  0  0  0  0  0  0  0
    2.4989   -7.5775    0.0000 C   0  0  0  0  0  0  0  0  0  0  0  0
    6.5490   -6.3195    0.0000 C   0  0  0  0  0  0  0  0  0  0  0  0
    1.7847   -6.2171    0.0000 C   0  0  0  0  0  0  0  0  0  0  0  0
    2.1341   -5.5183    0.0000 C   0  0  0  0  0  0  0  0  0  0  0  0
    6.0629   -7.9026    0.0000 C   0  0  0  0  0  0  0  0  0  0  0  0
    5.6795   -4.8262    0.0000 C   0  0  0  0  0  0  0  0  0  0  0  0
    5.2977   -4.1157    0.0000 C   0  0  0  0  0  0  0  0  0  0  0  0
    4.1362   -8.2414    0.0000 C   0  0  0  0  0  0  0  0  0  0  0  0
    5.6281   -3.3983    0.0000 C   0  0  0  0  0  0  0  0  0  0  0  0
    0.9712   -6.3532    0.0000 C   0  0  0  0  0  0  0  0  0  0  0  0
    4.3487   -3.2223    0.0000 C   0  0  0  0  0  0  0  0  0  0  0  0
    1.7522   -4.8078    0.0000 C   0  0  0  0  0  0  0  0  0  0  0  0
    5.0592   -2.8404    0.0000 C   0  0  0  0  0  0  0  0  0  0  0  0
    6.1854   -8.7182    0.0000 C   0  0  0  0  0  0  0  0  0  0  0  0
   11.5261  -15.4220    0.0000 C   0  0  1  0  0  0  0  0  0  0  0  0
   11.4036  -14.6064    0.0000 C   0  0  0  0  0  0  0  0  0  0  0  0
    2.1016   -4.1091    0.0000 C   0  0  0  0  0  0  0  0  0  0  0  0
    9.7459  -13.1873    0.0000 C   0  0  2  0  0  0  0  0  0  0  0  0
   10.6360  -14.3047    0.0000 C   0  0  0  0  0  0  0  0  0  0  0  0
   10.5135  -13.4891    0.0000 C   0  0  0  0  0  0  0  0  0  0  0  0
   12.2937  -15.7237    0.0000 C   0  0  0  0  0  0  0  0  0  0  0  0
    3.6496   -2.8353    0.0000 C   0  0  0  0  0  0  0  0  0  0  0  0
    6.4392   -3.2492    0.0000 C   0  0  0  0  0  0  0  0  0  0  0  0
    9.6234  -12.3717    0.0000 C   0  0  0  0  0  0  0  0  0  0  0  0
    2.9580   -3.2359    0.0000 C   0  0  0  0  0  0  0  0  0  0  0  0
    1.7011   -3.4176    0.0000 C   0  0  0  0  0  0  0  0  0  0  0  0
   12.4162  -16.5393    0.0000 C   0  0  0  0  0  0  0  0  0  0  0  0
    2.2590   -2.8488    0.0000 C   0  0  0  0  0  0  0  0  0  0  0  0
    8.8558  -12.0700    0.0000 C   0  0  0  0  0  0  0  0  0  0  0  0
   13.1838  -16.8410    0.0000 C   0  0  0  0  0  0  0  0  0  0  0  0
   10.8811  -15.9359    0.0000 C   0  0  0  0  0  0  0  0  0  0  0  0
    5.1753   -2.0239    0.0000 C   0  0  0  0  0  0  0  0  0  0  0  0
    9.1008  -13.7013    0.0000 C   0  0  0  0  0  0  0  0  0  0  0  0
   13.3064  -17.6566    0.0000 C   0  0  0  0  0  0  0  0  0  0  0  0
    0.8828   -3.3145    0.0000 C   0  0  0  0  0  0  0  0  0  0  0  0
    8.7333  -11.2544    0.0000 C   0  0  0  0  0  0  0  0  0  0  0  0
    4.3533   -9.6534    0.0000 C   0  0  0  0  0  0  0  0  0  0  0  0
    7.0755   -9.8355    0.0000 C   0  0  0  0  0  0  0  0  0  0  0  0
    7.9656  -10.9528    0.0000 C   0  0  0  0  0  0  0  0  0  0  0  0
    7.8431  -10.1372    0.0000 C   0  0  0  0  0  0  0  0  0  0  0  0
    2.1400   -2.0327    0.0000 C   0  0  0  0  0  0  0  0  0  0  0  0
   14.0740  -17.9582    0.0000 C   0  0  0  0  0  0  0  0  0  0  0  0
   12.6613  -18.1705    0.0000 C   0  0  0  0  0  0  0  0  0  0  0  0
    0.4703   -2.6001    0.0000 C   0  0  0  0  0  0  0  0  0  0  0  0
    5.9405   -1.7161    0.0000 C   0  0  0  0  0  0  0  0  0  0  0  0
    7.3206  -11.4667    0.0000 C   0  0  0  0  0  0  0  0  0  0  0  0
  2 21  2  0  0  0  0
  3 28  1  0  0  0  0
  3 57  1  0  0  0  0
  4 28  2  0  0  0  0
  5 34  1  0  0  0  0
  5 58  1  0  0  0  0
  6 34  2  0  0  0  0
  7 61  2  0  0  0  0
  8 14  1  0  0  0  0
  8 19  2  0  0  0  0
  9 17  1  0  0  0  0
  9 24  1  0  0  0  0
 10 27  1  0  0  0  0
 10 31  1  0  0  0  0
 11 37  1  0  0  0  0
 11 45  2  0  0  0  0
 12 13  1  0  0  0  0
 12 14  1  0  0  0  0
 12 16  1  6  0  0  0
 13 19  1  0  0  0  0
 13 22  1  1  0  0  0
 14 15  2  0  0  0  0
 15 17  1  0  0  0  0
 15 18  1  0  0  0  0
 16 25  1  0  0  0  0
 17 20  2  0  0  0  0
 18 21  1  0  0  0  0
 18 28  1  1  0  0  0
 19 26  1  0  0  0  0
 20 21  1  0  0  0  0
 20 23  1  0  0  0  0
 23 24  2  0  0  0  0
 23 30  1  0  0  0  0
 24 32  1  0  0  0  0
 25 34  1  0  0  0  0
 26 27  2  0  0  0  0
 27 29  1  0  0  0  0
 29 33  2  0  0  0  0
 29 43  1  0  0  0  0
 31 33  1  0  0  0  0
 31 42  2  0  0  0  0
 32 37  2  0  0  0  0
 33 52  1  0  0  0  0
 35 36  1  0  0  0  0
 35 41  1  0  0  0  0
 35 51  1  1  0  0  0
 36 39  1  0  0  0  0
 37 46  1  0  0  0  0
 38 40  1  0  0  0  0
 38 44  1  0  0  0  0
 38 53  1  1  0  0  0
 39 40  1  0  0  0  0
 41 47  1  0  0  0  0
 42 45  1  0  0  0  0
 44 49  1  0  0  0  0
 45 48  1  0  0  0  0
 46 48  2  0  0  0  0
 46 55  1  0  0  0  0
 47 50  1  0  0  0  0
 48 61  1  0  0  0  0
 49 56  1  0  0  0  0
 50 54  1  0  0  0  0
 52 65  2  0  0  0  0
 54 62  1  0  0  0  0
 54 63  1  0  0  0  0
 55 64  1  0  0  0  0
 56 59  1  0  0  0  0
 58 60  1  0  0  0  0
 59 60  2  0  0  0  0
 59 66  1  0  0  0  0
M  CHG  3   1   2   9  -1  10  -1
M  END
>  <cdx:groupId>
1

>  <cdx:fragmentId>
279

$$$$
