9641.cdx
  Mrv1902 05222410202D          

 38 44  0  0  0  0            999 V2000
    7.7188   -7.6909    0.0000 C   0  0  2  0  0  0  0  0  0  0  0  0
    8.0789   -8.4332    0.0000 C   0  0  1  0  0  0  0  0  0  0  0  0
    7.7231   -9.1775    0.0000 C   0  0  2  0  0  0  0  0  0  0  0  0
    6.9193   -9.3635    0.0000 C   0  0  2  0  0  0  0  0  0  0  0  0
    6.2728   -8.8510    0.0000 C   0  0  1  0  0  0  0  0  0  0  0  0
    6.2704   -8.0260    0.0000 C   0  0  0  0  0  0  0  0  0  0  0  0
    6.9139   -7.5097    0.0000 C   0  0  2  0  0  0  0  0  0  0  0  0
    5.5596   -9.2655    0.0000 C   0  0  2  0  0  0  0  0  0  0  0  0
    4.8439   -8.8551    0.0000 C   0  0  0  0  0  0  0  0  0  0  0  0
    4.8415   -8.0301    0.0000 C   0  0  0  0  0  0  0  0  0  0  0  0
    5.5547   -7.6155    0.0000 C   0  0  2  0  0  0  0  0  0  0  0  0
    6.8376   -6.6882    0.0000 C   0  0  0  0  0  0  0  0  0  0  0  0
    7.5952   -6.3618    0.0000 C   0  0  0  0  0  0  0  0  0  0  0  0
    8.1398   -6.9815    0.0000 C   0  0  0  0  0  0  0  0  0  0  0  0
    5.5523   -6.7906    0.0000 O   0  0  0  0  0  0  0  0  0  0  0  0
    4.8412   -6.3724    0.0000 C   0  0  0  0  0  0  0  0  0  0  0  0
    5.5620  -10.0905    0.0000 C   0  0  0  0  0  0  0  0  0  0  0  0
    4.8487  -10.5051    0.0000 O   0  0  0  0  0  0  0  0  0  0  0  0
    4.8511  -11.3301    0.0000 C   0  0  0  0  0  0  0  0  0  0  0  0
    6.2700   -7.3700    0.0000 C   0  0  0  0  0  0  0  0  0  0  0  0
    5.5550   -8.3875    0.0000 N   0  0  0  0  0  0  0  0  0  0  0  0
    4.8400   -9.5700    0.0000 C   0  0  0  0  0  0  0  0  0  0  0  0
    8.8775   -8.2260    0.0000 C   0  0  0  0  0  0  0  0  0  0  0  0
    8.9100   -6.5450    0.0000 C   0  0  2  0  0  0  0  0  0  0  0  0
    9.2675   -7.0125    0.0000 O   0  0  0  0  0  0  0  0  0  0  0  0
    6.2662   -9.6759    0.0000 H   0  0  0  0  0  0  0  0  0  0  0  0
    6.3306   -6.9263    0.0000 H   0  0  0  0  0  0  0  0  0  0  0  0
    8.5437   -7.6975    0.0000 H   0  0  0  0  0  0  0  0  0  0  0  0
    4.3725   -8.3875    0.0000 C   0  0  0  0  0  0  0  0  0  0  0  0
    9.6245   -6.1325    0.0000 O   0  0  0  0  0  0  0  0  0  0  0  0
    9.6245   -5.3075    0.0000 C   0  0  0  0  0  0  0  0  0  0  0  0
    3.7891   -7.8041    0.0000 C   0  0  0  0  0  0  0  0  0  0  0  0
    6.9193  -10.1885    0.0000 O   0  0  0  0  0  0  0  0  0  0  0  0
    6.3360  -10.7718    0.0000 C   0  0  0  0  0  0  0  0  0  0  0  0
    8.4425   -9.7625    0.0000 O   0  0  0  0  0  0  0  0  0  0  0  0
    9.0475   -8.5800    0.0000 O   0  0  0  0  0  0  0  0  0  0  0  0
    9.1850   -9.3225    0.0000 C   0  0  0  0  0  0  0  0  0  0  0  0
    9.8509   -7.5959    0.0000 C   0  0  0  0  0  0  0  0  0  0  0  0
  1  2  1  0  0  0  0
  2  3  1  0  0  0  0
  3  4  1  0  0  0  0
  4  5  1  0  0  0  0
  5  6  1  0  0  0  0
  6  7  1  0  0  0  0
  7  1  1  0  0  0  0
  5  8  1  0  0  0  0
  8  9  1  0  0  0  0
  9 10  1  0  0  0  0
 10 11  1  0  0  0  0
 11  6  1  0  0  0  0
  7 12  1  0  0  0  0
 12 13  1  0  0  0  0
 13 14  1  0  0  0  0
 14  1  1  0  0  0  0
 11 15  1  6  0  0  0
 15 16  1  0  0  0  0
  8 17  1  1  0  0  0
 17 18  1  0  0  0  0
 18 19  1  0  0  0  0
  6 20  1  0  0  0  0
  3 20  1  0  0  0  0
 20 21  1  0  0  0  0
 21 22  1  0  0  0  0
  8 22  1  0  0  0  0
  2 23  1  0  0  0  0
 13 24  1  0  0  0  0
 24 23  1  0  0  0  0
 14 25  1  0  0  0  0
  5 26  1  1  0  0  0
  7 27  1  1  0  0  0
  1 28  1  1  0  0  0
 21 29  1  0  0  0  0
 24 30  1  1  0  0  0
 30 31  1  0  0  0  0
 29 32  1  0  0  0  0
  4 33  1  1  0  0  0
 33 34  1  0  0  0  0
  3 35  1  1  0  0  0
  2 36  1  1  0  0  0
 35 37  1  0  0  0  0
 37 36  1  0  0  0  0
 25 38  1  0  0  0  0
M  END
>  <cdx:fragmentId>
491

$$$$
