10964430.cdx
  Mrv1902 05222410192D          

  8  8  0  0  0  0            999 V2000
    7.2091  -11.8717    0.0000 C   0  0  0  0  0  0  0  0  0  0  0  0
    6.4947  -12.2842    0.0000 C   0  0  0  0  0  0  0  0  0  0  0  0
    5.7802  -11.8717    0.0000 C   0  0  0  0  0  0  0  0  0  0  0  0
    5.7802  -11.0467    0.0000 C   0  0  0  0  0  0  0  0  0  0  0  0
    6.4947  -10.6342    0.0000 C   0  0  0  0  0  0  0  0  0  0  0  0
    7.2091  -11.0467    0.0000 C   0  0  0  0  0  0  0  0  0  0  0  0
    7.9236  -12.2842    0.0000 C   0  0  0  0  0  0  0  0  0  0  0  0
    8.6381  -11.8717    0.0000 O   0  0  0  0  0  0  0  0  0  0  0  0
  1  2  2  0  0  0  0
  2  3  1  0  0  0  0
  3  4  2  0  0  0  0
  4  5  1  0  0  0  0
  5  6  1  0  0  0  0
  1  6  1  0  0  0  0
  7  8  2  0  0  0  0
  1  7  1  0  0  0  0
M  END
>  <cdx:groupId>
63725

>  <cdx:fragmentId>
63704

$$$$
