96453.cdx
  Mrv1902 05222410192D          

 14 14  0  0  0  0            999 V2000
    6.5671   -5.6312    0.0000 C   0  0  0  0  0  0  0  0  0  0  0  0
    5.8526   -6.0437    0.0000 C   0  0  0  0  0  0  0  0  0  0  0  0
    5.8526   -6.8687    0.0000 C   0  0  0  0  0  0  0  0  0  0  0  0
    5.1382   -7.2812    0.0000 C   0  0  0  0  0  0  0  0  0  0  0  0
    4.4237   -6.8687    0.0000 C   0  0  0  0  0  0  0  0  0  0  0  0
    4.4237   -6.0437    0.0000 C   0  0  0  0  0  0  0  0  0  0  0  0
    5.1382   -5.6312    0.0000 C   0  0  0  0  0  0  0  0  0  0  0  0
    6.5671   -4.8062    0.0000 O   0  0  0  0  0  0  0  0  0  0  0  0
    7.2816   -6.0437    0.0000 O   0  0  0  0  0  0  0  0  0  0  0  0
    7.9961   -5.6312    0.0000 C   0  0  0  0  0  0  0  0  0  0  0  0
    8.7105   -6.0437    0.0000 C   0  0  0  0  0  0  0  0  0  0  0  0
    9.4250   -5.6312    0.0000 C   0  0  0  0  0  0  0  0  0  0  0  0
    9.4250   -4.8062    0.0000 C   0  0  0  0  0  0  0  0  0  0  0  0
   10.1395   -6.0437    0.0000 C   0  0  0  0  0  0  0  0  0  0  0  0
  1  2  1  0  0  0  0
  2  3  1  0  0  0  0
  3  4  2  0  0  0  0
  4  5  1  0  0  0  0
  5  6  2  0  0  0  0
  6  7  1  0  0  0  0
  2  7  2  0  0  0  0
  1  8  2  0  0  0  0
  1  9  1  0  0  0  0
 10 11  1  0  0  0  0
 11 12  1  0  0  0  0
 12 13  1  0  0  0  0
 14 12  1  0  0  0  0
  9 10  1  0  0  0  0
M  END
>  <cdx:fragmentId>
5

$$$$
