964533.cdx
  Mrv1902 05222410222D          

 38 44  0  0  0  0            999 V2000
    9.0451   -8.5924    0.0000 C   0  0  0  0  0  0  0  0  0  0  0  0
    9.0451   -7.7674    0.0000 C   0  0  0  0  0  0  0  0  0  0  0  0
    9.7596   -7.3549    0.0000 C   0  0  0  0  0  0  0  0  0  0  0  0
   10.4740   -7.7674    0.0000 C   0  0  0  0  0  0  0  0  0  0  0  0
   10.4740   -8.5924    0.0000 C   0  0  0  0  0  0  0  0  0  0  0  0
   11.1885   -9.0049    0.0000 C   0  0  0  0  0  0  0  0  0  0  0  0
   11.1885   -9.8299    0.0000 C   0  0  0  0  0  0  0  0  0  0  0  0
   10.4740  -10.2424    0.0000 C   0  0  0  0  0  0  0  0  0  0  0  0
    9.7596   -9.8299    0.0000 C   0  0  0  0  0  0  0  0  0  0  0  0
    9.7596   -9.0049    0.0000 C   0  0  0  0  0  0  0  0  0  0  0  0
    8.2605   -7.5124    0.0000 C   0  0  0  0  0  0  0  0  0  0  0  0
    7.7755   -8.1799    0.0000 C   0  0  0  0  0  0  0  0  0  0  0  0
    8.2605   -8.8473    0.0000 C   0  0  0  0  0  0  0  0  0  0  0  0
    8.2605   -6.1775    0.0000 O   0  0  0  0  0  0  0  0  0  0  0  0
    8.7454   -6.8450    0.0000 C   0  0  0  0  0  0  0  0  0  0  0  0
    7.4758   -7.2575    0.0000 C   0  0  0  0  0  0  0  0  0  0  0  0
    6.7614   -7.6700    0.0000 C   0  0  0  0  0  0  0  0  0  0  0  0
    6.0469   -7.2575    0.0000 C   0  0  0  0  0  0  0  0  0  0  0  0
    6.0469   -6.4325    0.0000 C   0  0  0  0  0  0  0  0  0  0  0  0
    6.7614   -6.0200    0.0000 C   0  0  0  0  0  0  0  0  0  0  0  0
    7.4758   -6.4325    0.0000 C   0  0  0  0  0  0  0  0  0  0  0  0
    6.7614   -8.4950    0.0000 C   0  0  0  0  0  0  0  0  0  0  0  0
    6.0469   -8.9075    0.0000 C   0  0  0  0  0  0  0  0  0  0  0  0
    5.3324   -8.4950    0.0000 C   0  0  0  0  0  0  0  0  0  0  0  0
    4.6180   -8.9075    0.0000 C   0  0  0  0  0  0  0  0  0  0  0  0
    3.9035   -8.4950    0.0000 C   0  0  0  0  0  0  0  0  0  0  0  0
    3.9035   -7.6700    0.0000 C   0  0  0  0  0  0  0  0  0  0  0  0
    4.6180   -7.2575    0.0000 C   0  0  0  0  0  0  0  0  0  0  0  0
    5.3324   -7.6700    0.0000 C   0  0  0  0  0  0  0  0  0  0  0  0
    8.0055   -9.6319    0.0000 O   0  0  0  0  0  0  0  0  0  0  0  0
    9.3641   -6.8450    0.0000 O   0  0  0  0  0  0  0  0  0  0  0  0
    7.4758   -8.9075    0.0000 O   0  0  0  0  0  0  0  0  0  0  0  0
    7.4758   -9.7325    0.0000 C   0  0  0  0  0  0  0  0  0  0  0  0
    9.7596   -6.5299    0.0000 O   0  0  0  0  0  0  0  0  0  0  0  0
   10.4740   -6.1174    0.0000 C   0  0  0  0  0  0  0  0  0  0  0  0
    5.3324   -6.0200    0.0000 O   0  0  0  0  0  0  0  0  0  0  0  0
    3.1890   -8.9075    0.0000 O   0  0  0  0  0  0  0  0  0  0  0  0
   11.9030  -10.2424    0.0000 O   0  0  0  0  0  0  0  0  0  0  0  0
  1  2  1  0  0  0  0
  2  3  2  0  0  0  0
  3  4  1  0  0  0  0
  4  5  2  0  0  0  0
  5  6  1  0  0  0  0
  6  7  2  0  0  0  0
  7  8  1  0  0  0  0
  8  9  2  0  0  0  0
  9 10  1  0  0  0  0
  1 10  2  0  0  0  0
  5 10  1  0  0  0  0
 11 12  1  0  0  0  0
 12 13  1  0  0  0  0
 13  1  1  0  0  0  0
 11  2  1  0  0  0  0
 14 15  1  0  0  0  0
 16 17  1  0  0  0  0
 17 18  1  0  0  0  0
 18 19  1  0  0  0  0
 19 20  2  0  0  0  0
 20 21  1  0  0  0  0
 16 21  2  0  0  0  0
 14 21  1  0  0  0  0
 22 23  1  0  0  0  0
 23 24  2  0  0  0  0
 24 25  1  0  0  0  0
 25 26  2  0  0  0  0
 26 27  1  0  0  0  0
 27 28  2  0  0  0  0
 28 29  1  0  0  0  0
 24 29  1  0  0  0  0
 22 17  2  0  0  0  0
 29 18  2  0  0  0  0
 15 11  1  0  0  0  0
 16 11  1  0  0  0  0
 13 30  2  0  0  0  0
 15 31  2  0  0  0  0
 32 33  1  0  0  0  0
 22 32  1  0  0  0  0
 34 35  1  0  0  0  0
  3 34  1  0  0  0  0
 19 36  1  0  0  0  0
 26 37  1  0  0  0  0
  7 38  1  0  0  0  0
M  END
>  <cdx:groupId>
83814

>  <cdx:fragmentId>
83727

$$$$
