964549.cdx
  Mrv1902 05222410272D          

 23 25  0  0  0  0            999 V2000
    3.8330   -7.6346    0.0000 O   0  0  0  0  0  0  0  0  0  0  0  0
   10.2854   -6.5181    0.0000 O   0  0  0  0  0  0  0  0  0  0  0  0
   10.9765   -7.7688    0.0000 C   0  0  0  0  0  0  0  0  0  0  0  0
   10.2544   -8.1678    0.0000 O   0  0  0  0  0  0  0  0  0  0  0  0
    8.1346   -6.8902    0.0000 C   0  0  0  0  0  0  0  0  0  0  0  0
    8.8567   -6.4912    0.0000 C   0  0  0  0  0  0  0  0  0  0  0  0
    9.5633   -6.9171    0.0000 C   0  0  0  0  0  0  0  0  0  0  0  0
    9.5478   -7.7420    0.0000 C   0  0  0  0  0  0  0  0  0  0  0  0
    8.8257   -8.1410    0.0000 C   0  0  0  0  0  0  0  0  0  0  0  0
    8.1191   -7.7151    0.0000 C   0  0  0  0  0  0  0  0  0  0  0  0
    4.4931  -10.5350    0.0000 C   0  0  0  0  0  0  0  0  0  0  0  0
    5.2152  -10.1360    0.0000 O   0  0  0  0  0  0  0  0  0  0  0  0
    6.6439  -10.1628    0.0000 O   0  0  0  0  0  0  0  0  0  0  0  0
    6.6904   -7.6883    0.0000 O   0  0  0  0  0  0  0  0  0  0  0  0
    5.9683   -8.0873    0.0000 C   0  0  0  0  0  0  0  0  0  0  0  0
    5.2617   -7.6614    0.0000 C   0  0  0  0  0  0  0  0  0  0  0  0
    4.5396   -8.0604    0.0000 C   0  0  0  0  0  0  0  0  0  0  0  0
    4.5241   -8.8853    0.0000 C   0  0  0  0  0  0  0  0  0  0  0  0
    5.2307   -9.3111    0.0000 C   0  0  0  0  0  0  0  0  0  0  0  0
    5.9528   -8.9121    0.0000 C   0  0  0  0  0  0  0  0  0  0  0  0
    6.6594   -9.3380    0.0000 C   0  0  0  0  0  0  0  0  0  0  0  0
    7.3815   -8.9390    0.0000 C   0  0  0  0  0  0  0  0  0  0  0  0
    7.3970   -8.1141    0.0000 C   0  0  0  0  0  0  0  0  0  0  0  0
 17  1  1  0  0  0  0
 23 10  1  0  0  0  0
  7  2  1  0  0  0  0
  8  4  1  0  0  0  0
  4  3  1  0  0  0  0
 10  5  2  0  0  0  0
  6  5  1  0  0  0  0
  7  6  2  0  0  0  0
  8  7  1  0  0  0  0
  9  8  2  0  0  0  0
 10  9  1  0  0  0  0
 19 12  1  0  0  0  0
 12 11  1  0  0  0  0
 21 13  2  0  0  0  0
 23 14  1  0  0  0  0
 15 14  1  0  0  0  0
 20 15  2  0  0  0  0
 16 15  1  0  0  0  0
 17 16  2  0  0  0  0
 18 17  1  0  0  0  0
 19 18  2  0  0  0  0
 20 19  1  0  0  0  0
 21 20  1  0  0  0  0
 22 21  1  0  0  0  0
 23 22  2  0  0  0  0
M  END
>  <cdx:fragmentId>
99163

$$$$
