9964599.cdx
  Mrv1902 05222410282D          

 17 18  0  0  0  0            999 V2000
    8.5264  -11.7367    0.0000 C   0  0  0  0  0  0  0  0  0  0  0  0
    9.2409  -12.1492    0.0000 C   0  0  0  0  0  0  0  0  0  0  0  0
    9.2409  -12.9742    0.0000 C   0  0  0  0  0  0  0  0  0  0  0  0
    8.5264  -13.3867    0.0000 C   0  0  0  0  0  0  0  0  0  0  0  0
    7.8119  -12.9742    0.0000 C   0  0  0  0  0  0  0  0  0  0  0  0
    7.8119  -12.1492    0.0000 C   0  0  0  0  0  0  0  0  0  0  0  0
    8.5264  -10.9117    0.0000 O   0  0  0  0  0  0  0  0  0  0  0  0
    9.9553  -11.7367    0.0000 O   0  0  0  0  0  0  0  0  0  0  0  0
    9.9553  -13.3867    0.0000 O   0  0  0  0  0  0  0  0  0  0  0  0
    7.0975  -13.3867    0.0000 C   0  0  0  0  0  0  0  0  0  0  0  0
    6.3830  -12.9742    0.0000 C   0  0  0  0  0  0  0  0  0  0  0  0
    5.6685  -13.3867    0.0000 C   0  0  0  0  0  0  0  0  0  0  0  0
    5.6685  -14.2117    0.0000 C   0  0  0  0  0  0  0  0  0  0  0  0
    4.9540  -14.6242    0.0000 C   0  0  0  0  0  0  0  0  0  0  0  0
    4.2396  -14.2117    0.0000 C   0  0  0  0  0  0  0  0  0  0  0  0
    4.2396  -13.3867    0.0000 C   0  0  0  0  0  0  0  0  0  0  0  0
    4.9540  -12.9742    0.0000 C   0  0  0  0  0  0  0  0  0  0  0  0
  1  2  1  0  0  0  0
  2  3  2  0  0  0  0
  3  4  1  0  0  0  0
  4  5  2  0  0  0  0
  5  6  1  0  0  0  0
  1  6  2  0  0  0  0
  1  7  1  0  0  0  0
  2  8  1  0  0  0  0
  3  9  1  0  0  0  0
 10 11  2  0  0  0  0
 12 13  1  0  0  0  0
 13 14  2  0  0  0  0
 14 15  1  0  0  0  0
 15 16  2  0  0  0  0
 16 17  1  0  0  0  0
 12 17  2  0  0  0  0
 11 12  1  0  0  0  0
  5 10  1  0  0  0  0
M  END
>  <cdx:groupId>
33215

>  <cdx:fragmentId>
33166

$$$$
