96469.cdx
  Mrv1902 05222410202D          

 49 56  0  0  0  0            999 V2000
    3.8633   -8.3406    0.0000 O   0  0  0  0  0  0  0  0  0  0  0  0
    3.8633   -9.1656    0.0000 C   0  0  2  0  0  0  0  0  0  0  0  0
    3.1488   -9.5781    0.0000 C   0  0  1  0  0  0  0  0  0  0  0  0
    2.4343   -9.1656    0.0000 C   0  0  2  0  0  0  0  0  0  0  0  0
    2.4343   -8.3406    0.0000 C   0  0  2  0  0  0  0  0  0  0  0  0
    3.1488   -7.9281    0.0000 C   0  0  0  0  0  0  0  0  0  0  0  0
    3.1488  -10.4031    0.0000 O   0  0  0  0  0  0  0  0  0  0  0  0
    1.7199   -9.5781    0.0000 O   0  0  0  0  0  0  0  0  0  0  0  0
    1.7199   -7.9281    0.0000 O   0  0  0  0  0  0  0  0  0  0  0  0
    4.5778   -9.5781    0.0000 O   0  0  0  0  0  0  0  0  0  0  0  0
   10.1341   -7.5156    0.0000 C   0  0  0  0  0  0  0  0  0  0  0  0
    9.6492   -8.1830    0.0000 C   0  0  1  0  0  0  0  0  0  0  0  0
    8.8646   -7.9281    0.0000 C   0  0  1  0  0  0  0  0  0  0  0  0
    8.1501   -8.3406    0.0000 C   0  0  0  0  0  0  0  0  0  0  0  0
    8.1501   -9.1656    0.0000 C   0  0  0  0  0  0  0  0  0  0  0  0
    7.4356   -9.5781    0.0000 C   0  0  0  0  0  0  0  0  0  0  0  0
    6.7212   -9.1656    0.0000 C   0  0  1  0  0  0  0  0  0  0  0  0
    6.0067   -9.5781    0.0000 C   0  0  0  0  0  0  0  0  0  0  0  0
    5.2922   -9.1656    0.0000 C   0  0  2  0  0  0  0  0  0  0  0  0
    5.2922   -8.3406    0.0000 C   0  0  0  0  0  0  0  0  0  0  0  0
    6.0067   -7.9281    0.0000 C   0  0  0  0  0  0  0  0  0  0  0  0
    6.7212   -8.3406    0.0000 C   0  0  1  0  0  0  0  0  0  0  0  0
    6.7212   -7.5156    0.0000 C   0  0  0  0  0  0  0  0  0  0  0  0
    7.4356   -7.9281    0.0000 C   0  0  1  0  0  0  0  0  0  0  0  0
    7.4356   -7.1031    0.0000 C   0  0  0  0  0  0  0  0  0  0  0  0
    8.1501   -6.6906    0.0000 C   0  0  2  0  0  0  0  0  0  0  0  0
    8.8646   -7.1031    0.0000 C   0  0  2  0  0  0  0  0  0  0  0  0
    9.6492   -6.8481    0.0000 C   0  0  1  0  0  0  0  0  0  0  0  0
    9.8687   -6.0529    0.0000 C   0  0  1  0  0  0  0  0  0  0  0  0
   10.6273   -5.7286    0.0000 C   0  0  0  0  0  0  0  0  0  0  0  0
   11.3538   -6.1196    0.0000 C   0  0  2  0  0  0  0  0  0  0  0  0
   11.5011   -6.9313    0.0000 C   0  0  2  0  0  0  0  0  0  0  0  0
   10.9583   -7.5526    0.0000 O   0  0  0  0  0  0  0  0  0  0  0  0
   10.3420   -6.4651    0.0000 O   0  0  0  0  0  0  0  0  0  0  0  0
    9.2474   -5.5101    0.0000 C   0  0  0  0  0  0  0  0  0  0  0  0
    8.8646   -6.2781    0.0000 C   0  0  0  0  0  0  0  0  0  0  0  0
    6.4192  -10.2925    0.0000 C   0  0  0  0  0  0  0  0  0  0  0  0
    5.5942  -10.2925    0.0000 C   0  0  0  0  0  0  0  0  0  0  0  0
    8.8646   -8.7531    0.0000 C   0  0  0  0  0  0  0  0  0  0  0  0
   12.5039   -7.9492    0.0000 C   0  0  0  0  0  0  0  0  0  0  0  0
   12.2964   -7.1508    0.0000 C   0  0  0  0  0  0  0  0  0  0  0  0
   12.8797   -6.5674    0.0000 C   0  0  0  0  0  0  0  0  0  0  0  0
   13.0916   -7.3703    0.0000 O   0  0  0  0  0  0  0  0  0  0  0  0
    8.1501   -5.8656    0.0000 O   0  0  0  0  0  0  0  0  0  0  0  0
    9.9041   -8.9676    0.0000 O   0  0  0  0  0  0  0  0  0  0  0  0
    6.7212   -9.9906    0.0000 H   0  0  0  0  0  0  0  0  0  0  0  0
   12.0212   -5.6346    0.0000 H   0  0  0  0  0  0  0  0  0  0  0  0
   11.6484   -7.7430    0.0000 H   0  0  0  0  0  0  0  0  0  0  0  0
    9.2367   -6.1337    0.0000 H   0  0  0  0  0  0  0  0  0  0  0  0
  1  2  1  0  0  0  0
  2  3  1  0  0  0  0
  3  4  1  0  0  0  0
  4  5  1  0  0  0  0
  5  6  1  0  0  0  0
  1  6  1  0  0  0  0
  3  7  1  6  0  0  0
  4  8  1  1  0  0  0
  5  9  1  1  0  0  0
 11 12  1  0  0  0  0
 12 13  1  0  0  0  0
 13 14  1  0  0  0  0
 14 15  2  0  0  0  0
 15 16  1  0  0  0  0
 16 17  1  0  0  0  0
 17 18  1  0  0  0  0
 18 19  1  0  0  0  0
 19 20  1  0  0  0  0
 20 21  1  0  0  0  0
 21 22  1  0  0  0  0
 22 23  1  1  0  0  0
 24 23  1  1  0  0  0
 24 25  1  0  0  0  0
 25 26  1  0  0  0  0
 26 27  1  0  0  0  0
 27 28  1  0  0  0  0
 28 29  1  0  0  0  0
 29 30  1  0  0  0  0
 30 31  1  0  0  0  0
 31 32  1  0  0  0  0
 32 33  1  0  0  0  0
 11 33  1  0  0  0  0
 11 34  1  0  0  0  0
 31 34  1  0  0  0  0
 11 28  1  0  0  0  0
 13 27  1  0  0  0  0
 22 24  1  0  0  0  0
 14 24  1  0  0  0  0
 17 22  1  0  0  0  0
 29 35  1  6  0  0  0
 27 36  1  1  0  0  0
 18 37  1  0  0  0  0
 18 38  1  0  0  0  0
 13 39  1  6  0  0  0
 40 41  1  0  0  0  0
 41 42  1  0  0  0  0
 41 43  1  0  0  0  0
 32 41  1  0  0  0  0
 26 44  1  1  0  0  0
 12 45  1  6  0  0  0
 19 10  1  1  0  0  0
  2 10  1  1  0  0  0
 17 46  1  6  0  0  0
 31 47  1  1  0  0  0
 32 48  1  6  0  0  0
 28 49  1  6  0  0  0
M  END
>  <cdx:fragmentId>
230808

$$$$
