96479.cdx
  Mrv1902 05222410182D          

 18 19  0  0  0  0            999 V2000
    7.4035   -8.1409    0.0000 C   0  0  2  0  0  0  0  0  0  0  0  0
    7.4035   -7.3159    0.0000 H   0  0  0  0  0  0  0  0  0  0  0  0
    6.6891   -7.7284    0.0000 C   0  0  0  0  0  0  0  0  0  0  0  0
    5.9746   -8.1409    0.0000 C   0  0  0  0  0  0  0  0  0  0  0  0
    5.9746   -8.9659    0.0000 C   0  0  0  0  0  0  0  0  0  0  0  0
    5.2601   -9.3784    0.0000 C   0  0  0  0  0  0  0  0  0  0  0  0
    6.6891   -9.3784    0.0000 C   0  0  0  0  0  0  0  0  0  0  0  0
    7.4035   -8.9659    0.0000 C   0  0  1  0  0  0  0  0  0  0  0  0
    7.4035   -9.7909    0.0000 H   0  0  0  0  0  0  0  0  0  0  0  0
    8.1180   -9.3784    0.0000 C   0  0  2  0  0  0  0  0  0  0  0  0
    8.1180  -10.2034    0.0000 C   0  0  0  0  0  0  0  0  0  0  0  0
    7.4035  -10.6159    0.0000 C   0  0  0  0  0  0  0  0  0  0  0  0
    8.8325  -10.6159    0.0000 C   0  0  0  0  0  0  0  0  0  0  0  0
    8.8325   -8.9659    0.0000 C   0  0  0  0  0  0  0  0  0  0  0  0
    8.8325   -8.1409    0.0000 C   0  0  0  0  0  0  0  0  0  0  0  0
    8.1180   -7.7284    0.0000 C   0  0  2  0  0  0  0  0  0  0  0  0
    8.1180   -6.9034    0.0000 C   0  0  0  0  0  0  0  0  0  0  0  0
    8.8325   -9.7909    0.0000 O   0  0  0  0  0  0  0  0  0  0  0  0
  1  2  1  6  0  0  0
  1  3  1  0  0  0  0
  3  4  1  0  0  0  0
  4  5  1  0  0  0  0
  5  6  1  0  0  0  0
  5  7  2  0  0  0  0
  7  8  1  0  0  0  0
  8  9  1  1  0  0  0
  1  8  1  0  0  0  0
  8 10  1  0  0  0  0
 10 11  1  0  0  0  0
 11 12  1  0  0  0  0
 11 13  1  0  0  0  0
 10 14  1  0  0  0  0
 14 15  1  0  0  0  0
 15 16  1  0  0  0  0
 16 17  1  1  0  0  0
  1 16  1  0  0  0  0
 10 18  1  6  0  0  0
M  END
>  <cdx:fragmentId>
5

$$$$
