96478.cdx
  Mrv1902 05222410182D          

 15 16  0  0  0  0            999 V2000
    8.2639   -9.5388    0.0000 C   0  0  0  0  0  0  0  0  0  0  0  0
    8.9784   -9.1263    0.0000 C   0  0  0  0  0  0  0  0  0  0  0  0
    8.9784   -8.3013    0.0000 C   0  0  0  0  0  0  0  0  0  0  0  0
    8.2639   -7.8888    0.0000 C   0  0  0  0  0  0  0  0  0  0  0  0
    7.5494   -8.3013    0.0000 C   0  0  0  0  0  0  0  0  0  0  0  0
    6.8350   -7.8888    0.0000 C   0  0  0  0  0  0  0  0  0  0  0  0
    6.1205   -8.3013    0.0000 C   0  0  0  0  0  0  0  0  0  0  0  0
    6.1205   -9.1263    0.0000 C   0  0  0  0  0  0  0  0  0  0  0  0
    6.8350   -9.5388    0.0000 C   0  0  0  0  0  0  0  0  0  0  0  0
    7.5494   -9.1263    0.0000 C   0  0  0  0  0  0  0  0  0  0  0  0
    6.8350  -10.3638    0.0000 C   0  0  0  0  0  0  0  0  0  0  0  0
    7.5494   -9.9513    0.0000 C   0  0  0  0  0  0  0  0  0  0  0  0
    5.4060   -9.5388    0.0000 C   0  0  0  0  0  0  0  0  0  0  0  0
    7.8514   -7.1743    0.0000 C   0  0  0  0  0  0  0  0  0  0  0  0
    8.6764   -7.1743    0.0000 C   0  0  0  0  0  0  0  0  0  0  0  0
  1  2  1  0  0  0  0
  2  3  1  0  0  0  0
  3  4  1  0  0  0  0
  4  5  1  0  0  0  0
  5  6  1  0  0  0  0
  6  7  1  0  0  0  0
  7  8  2  0  0  0  0
  8  9  1  0  0  0  0
  9 10  1  0  0  0  0
  1 10  1  0  0  0  0
  5 10  1  0  0  0  0
  9 11  2  0  0  0  0
 10 12  1  0  0  0  0
  8 13  1  0  0  0  0
  4 14  1  0  0  0  0
  4 15  1  0  0  0  0
M  END
>  <cdx:fragmentId>
5

$$$$
