96480.cdx
  Mrv1902 05222410192D          

  7  6  0  0  0  0            999 V2000
    5.8044   -8.5318    0.0000 C   0  0  0  0  0  0  0  0  0  0  0  0
    6.5188   -8.9443    0.0000 C   0  0  0  0  0  0  0  0  0  0  0  0
    7.2333   -8.5318    0.0000 C   0  0  0  0  0  0  0  0  0  0  0  0
    7.9478   -8.9443    0.0000 C   0  0  0  0  0  0  0  0  0  0  0  0
    8.6623   -8.5318    0.0000 C   0  0  0  0  0  0  0  0  0  0  0  0
    9.3767   -8.9443    0.0000 C   0  0  0  0  0  0  0  0  0  0  0  0
    5.0899   -8.9443    0.0000 O   0  0  0  0  0  0  0  0  0  0  0  0
  1  2  1  0  0  0  0
  2  3  2  0  0  0  0
  3  4  1  0  0  0  0
  4  5  1  0  0  0  0
  5  6  1  0  0  0  0
  1  7  2  0  0  0  0
M  END
>  <cdx:fragmentId>
5

$$$$
