96481.cdx
  Mrv1902 05222410202D          

 16 17  0  0  0  0            999 V2000
    7.5494   -8.1409    0.0000 C   0  0  0  0  0  0  0  0  0  0  0  0
    6.8350   -7.7284    0.0000 C   0  0  0  0  0  0  0  0  0  0  0  0
    6.1205   -8.1409    0.0000 C   0  0  0  0  0  0  0  0  0  0  0  0
    6.1205   -8.9659    0.0000 C   0  0  0  0  0  0  0  0  0  0  0  0
    5.4060   -9.3784    0.0000 C   0  0  0  0  0  0  0  0  0  0  0  0
    6.8350   -9.3784    0.0000 C   0  0  0  0  0  0  0  0  0  0  0  0
    7.5494   -8.9659    0.0000 C   0  0  1  0  0  0  0  0  0  0  0  0
    7.5494   -9.7909    0.0000 H   0  0  0  0  0  0  0  0  0  0  0  0
    8.2639   -9.3784    0.0000 C   0  0  2  0  0  0  0  0  0  0  0  0
    8.2639  -10.2034    0.0000 C   0  0  0  0  0  0  0  0  0  0  0  0
    7.5494  -10.6159    0.0000 C   0  0  0  0  0  0  0  0  0  0  0  0
    8.9784  -10.6159    0.0000 C   0  0  0  0  0  0  0  0  0  0  0  0
    8.9784   -8.9659    0.0000 C   0  0  0  0  0  0  0  0  0  0  0  0
    8.9784   -8.1409    0.0000 C   0  0  0  0  0  0  0  0  0  0  0  0
    8.2639   -7.7284    0.0000 C   0  0  2  0  0  0  0  0  0  0  0  0
    8.2639   -6.9034    0.0000 C   0  0  0  0  0  0  0  0  0  0  0  0
  1  2  2  0  0  0  0
  2  3  1  0  0  0  0
  3  4  1  0  0  0  0
  4  5  1  0  0  0  0
  4  6  2  0  0  0  0
  6  7  1  0  0  0  0
  7  8  1  1  0  0  0
  1  7  1  0  0  0  0
  7  9  1  0  0  0  0
  9 10  1  1  0  0  0
 10 11  1  0  0  0  0
 10 12  1  0  0  0  0
  9 13  1  0  0  0  0
 13 14  1  0  0  0  0
 14 15  1  0  0  0  0
 15 16  1  1  0  0  0
  1 15  1  0  0  0  0
M  END
>  <cdx:fragmentId>
5

$$$$
