96485.cdx
  Mrv1902 05222410182D          

  7  6  0  0  0  0            999 V2000
    6.8494   -6.8268    0.0000 C   0  0  0  0  0  0  0  0  0  0  0  0
    7.5638   -7.2393    0.0000 C   0  0  0  0  0  0  0  0  0  0  0  0
    8.9928   -4.7643    0.0000 C   0  0  0  0  0  0  0  0  0  0  0  0
    6.1349   -7.2393    0.0000 O   0  0  0  0  0  0  0  0  0  0  0  0
    8.9928   -5.5893    0.0000 C   0  0  0  0  0  0  0  0  0  0  0  0
    8.2783   -6.0018    0.0000 C   0  0  0  0  0  0  0  0  0  0  0  0
    8.2783   -6.8268    0.0000 C   0  0  0  0  0  0  0  0  0  0  0  0
  5  3  1  0  0  0  0
  6  5  1  0  0  0  0
  7  6  1  0  0  0  0
  1  2  1  0  0  0  0
  2  7  2  0  0  0  0
  1  4  1  0  0  0  0
M  END
>  <cdx:fragmentId>
5

$$$$
