96483.cdx
  Mrv1902 05222410202D          

 16 16  0  0  0  0            999 V2000
    7.1956   -7.2110    0.0000 C   0  0  0  0  0  0  0  0  0  0  0  0
    7.9389   -7.5689    0.0000 C   0  0  0  0  0  0  0  0  0  0  0  0
    8.1225   -8.3733    0.0000 C   0  0  0  0  0  0  0  0  0  0  0  0
    7.6081   -9.0183    0.0000 C   0  0  0  0  0  0  0  0  0  0  0  0
    8.0206   -9.7327    0.0000 C   0  0  0  0  0  0  0  0  0  0  0  0
    7.6081  -10.4472    0.0000 C   0  0  0  0  0  0  0  0  0  0  0  0
    6.7831  -10.4472    0.0000 C   0  0  0  0  0  0  0  0  0  0  0  0
    6.3706   -9.7327    0.0000 C   0  0  0  0  0  0  0  0  0  0  0  0
    6.7831   -9.0183    0.0000 C   0  0  0  0  0  0  0  0  0  0  0  0
    6.2688   -8.3733    0.0000 C   0  0  0  0  0  0  0  0  0  0  0  0
    6.4524   -7.5689    0.0000 C   0  0  0  0  0  0  0  0  0  0  0  0
    7.1956   -6.3860    0.0000 O   0  0  0  0  0  0  0  0  0  0  0  0
    5.4645   -8.5568    0.0000 C   0  0  0  0  0  0  0  0  0  0  0  0
    6.7831  -11.2722    0.0000 C   0  0  0  0  0  0  0  0  0  0  0  0
    6.0687  -10.8597    0.0000 C   0  0  0  0  0  0  0  0  0  0  0  0
    8.9268   -8.5568    0.0000 C   0  0  0  0  0  0  0  0  0  0  0  0
  1  2  1  0  0  0  0
  2  3  2  0  0  0  0
  3  4  1  0  0  0  0
  4  5  1  0  0  0  0
  5  6  1  0  0  0  0
  6  7  1  0  0  0  0
  7  8  1  0  0  0  0
  8  9  2  0  0  0  0
  9 10  1  0  0  0  0
 10 11  1  0  0  0  0
  1 11  1  0  0  0  0
  1 12  1  0  0  0  0
 10 13  1  0  0  0  0
  7 14  1  0  0  0  0
  7 15  1  0  0  0  0
  3 16  1  0  0  0  0
M  END
>  <cdx:fragmentId>
5

$$$$
