96482.cdx
  Mrv1902 05222410202D          

 10 10  0  0  0  0            999 V2000
    8.5904   -9.5502    0.0000 C   0  0  0  0  0  0  0  0  0  0  0  0
    7.8759   -9.1377    0.0000 C   0  0  0  0  0  0  0  0  0  0  0  0
    7.1614   -9.5502    0.0000 C   0  0  0  0  0  0  0  0  0  0  0  0
    9.3048   -9.1377    0.0000 O   0  0  0  0  0  0  0  0  0  0  0  0
    6.4470   -9.1377    0.0000 C   0  0  0  0  0  0  0  0  0  0  0  0
    5.7325   -9.5502    0.0000 C   0  0  0  0  0  0  0  0  0  0  0  0
    5.0180   -9.1377    0.0000 C   0  0  0  0  0  0  0  0  0  0  0  0
    5.0180   -8.3127    0.0000 C   0  0  0  0  0  0  0  0  0  0  0  0
    5.7325   -7.9002    0.0000 C   0  0  0  0  0  0  0  0  0  0  0  0
    6.4470   -8.3127    0.0000 C   0  0  0  0  0  0  0  0  0  0  0  0
  1  2  1  0  0  0  0
  2  3  2  0  0  0  0
  1  4  2  0  0  0  0
  5  6  2  0  0  0  0
  6  7  1  0  0  0  0
  7  8  1  0  0  0  0
  8  9  1  0  0  0  0
  9 10  1  0  0  0  0
  5 10  1  0  0  0  0
  3  5  1  0  0  0  0
M  END
>  <cdx:fragmentId>
13

$$$$
