96518.cdx
  Mrv1902 05222410182D          

 19 18  0  0  0  0            999 V2000
    3.6233   -8.3892    0.0000 C   0  0  0  0  0  0  0  0  0  0  0  0
    2.9088   -8.8017    0.0000 C   0  0  0  0  0  0  0  0  0  0  0  0
    3.6233   -7.5642    0.0000 O   0  0  0  0  0  0  0  0  0  0  0  0
    4.3378   -8.8017    0.0000 O   0  0  0  0  0  0  0  0  0  0  0  0
    5.0522   -8.3892    0.0000 C   0  0  0  0  0  0  0  0  0  0  0  0
    5.7667   -8.8017    0.0000 C   0  0  0  0  0  0  0  0  0  0  0  0
    6.4812   -8.3892    0.0000 C   0  0  0  0  0  0  0  0  0  0  0  0
    7.1956   -8.8017    0.0000 C   0  0  0  0  0  0  0  0  0  0  0  0
    7.9101   -8.3892    0.0000 C   0  0  0  0  0  0  0  0  0  0  0  0
    8.6246   -8.8017    0.0000 C   0  0  0  0  0  0  0  0  0  0  0  0
    9.3391   -8.3892    0.0000 C   0  0  0  0  0  0  0  0  0  0  0  0
   10.0535   -8.8017    0.0000 C   0  0  0  0  0  0  0  0  0  0  0  0
   10.7680   -8.3892    0.0000 C   0  0  0  0  0  0  0  0  0  0  0  0
   10.7680   -7.5642    0.0000 C   0  0  0  0  0  0  0  0  0  0  0  0
    5.0522  -10.0392    0.0000 C   0  0  0  0  0  0  0  0  0  0  0  0
    5.7667   -9.6267    0.0000 C   0  0  0  0  0  0  0  0  0  0  0  0
    6.4812  -10.0392    0.0000 C   0  0  0  0  0  0  0  0  0  0  0  0
   11.4825   -8.8017    0.0000 C   0  0  0  0  0  0  0  0  0  0  0  0
    7.9101   -7.5642    0.0000 C   0  0  0  0  0  0  0  0  0  0  0  0
  1  2  1  0  0  0  0
  1  3  2  0  0  0  0
  1  4  1  0  0  0  0
  5  6  1  0  0  0  0
  6  7  1  0  0  0  0
  7  8  1  0  0  0  0
  8  9  2  0  0  0  0
  9 10  1  0  0  0  0
 10 11  1  0  0  0  0
 11 12  1  0  0  0  0
 12 13  2  0  0  0  0
 13 14  1  0  0  0  0
 15 16  2  0  0  0  0
 16 17  1  0  0  0  0
  6 16  1  0  0  0  0
 13 18  1  0  0  0  0
  9 19  1  0  0  0  0
  4  5  1  0  0  0  0
M  END
>  <cdx:fragmentId>
13

$$$$
