96529.cdx
  Mrv1902 05222410282D          

 12 12  0  0  0  0            999 V2000
    6.2389   -8.2363    0.0000 C   0  0  0  0  0  0  0  0  0  0  0  0
    6.2389   -9.0612    0.0000 C   0  0  0  0  0  0  0  0  0  0  0  0
    6.9534   -9.4738    0.0000 C   0  0  0  0  0  0  0  0  0  0  0  0
    7.6678   -9.0613    0.0000 C   0  0  0  0  0  0  0  0  0  0  0  0
    7.6678   -8.2363    0.0000 C   0  0  0  0  0  0  0  0  0  0  0  0
    6.9534   -7.8237    0.0000 C   0  0  0  0  0  0  0  0  0  0  0  0
    8.3823   -9.4738    0.0000 C   0  0  0  0  0  0  0  0  0  0  0  0
    9.0968   -9.0613    0.0000 C   0  0  0  0  0  0  0  0  0  0  0  0
    5.5244   -9.4737    0.0000 C   0  0  0  0  0  0  0  0  0  0  0  0
    5.5244   -7.8237    0.0000 C   0  0  0  0  0  0  0  0  0  0  0  0
    5.5244   -6.9987    0.0000 C   0  0  0  0  0  0  0  0  0  0  0  0
    5.5244  -10.2987    0.0000 C   0  0  0  0  0  0  0  0  0  0  0  0
  1  2  1  0  0  0  0
  2  3  1  0  0  0  0
  3  4  1  0  0  0  0
  4  5  1  0  0  0  0
  5  6  1  0  0  0  0
  1  6  1  0  0  0  0
  7  8  2  0  0  0  0
  4  7  1  0  0  0  0
  2  9  1  0  0  0  0
  1 10  1  0  0  0  0
 10 11  2  0  0  0  0
  9 12  2  0  0  0  0
M  END
>  <cdx:fragmentId>
5

$$$$
