96538.cdx
  Mrv1902 05222410262D          

 15 16  0  0  0  0            999 V2000
    6.1150   -9.3097    0.0000 C   0  0  0  0  0  0  0  0  0  0  0  0
    5.4005   -8.8972    0.0000 C   0  0  0  0  0  0  0  0  0  0  0  0
    5.4005   -8.0722    0.0000 C   0  0  0  0  0  0  0  0  0  0  0  0
    6.1150   -7.6597    0.0000 C   0  0  0  0  0  0  0  0  0  0  0  0
    6.8295   -8.0722    0.0000 C   0  0  0  0  0  0  0  0  0  0  0  0
    7.5439   -7.6597    0.0000 C   0  0  0  0  0  0  0  0  0  0  0  0
    8.2584   -8.0722    0.0000 C   0  0  0  0  0  0  0  0  0  0  0  0
    8.2584   -8.8972    0.0000 C   0  0  0  0  0  0  0  0  0  0  0  0
    7.5439   -9.3097    0.0000 C   0  0  0  0  0  0  0  0  0  0  0  0
    6.8295   -8.8972    0.0000 C   0  0  0  0  0  0  0  0  0  0  0  0
    6.8295  -10.5472    0.0000 C   0  0  0  0  0  0  0  0  0  0  0  0
    6.1150  -10.1347    0.0000 C   0  0  0  0  0  0  0  0  0  0  0  0
    5.4005  -10.5472    0.0000 C   0  0  0  0  0  0  0  0  0  0  0  0
    8.9729   -9.3097    0.0000 C   0  0  0  0  0  0  0  0  0  0  0  0
    6.1150   -6.8347    0.0000 C   0  0  0  0  0  0  0  0  0  0  0  0
  1  2  1  0  0  0  0
  2  3  1  0  0  0  0
  3  4  1  0  0  0  0
  4  5  1  0  0  0  0
  5  6  1  0  0  0  0
  6  7  1  0  0  0  0
  7  8  1  0  0  0  0
  8  9  1  0  0  0  0
  9 10  2  0  0  0  0
  1 10  1  0  0  0  0
  5 10  1  0  0  0  0
 11 12  1  0  0  0  0
 12 13  1  0  0  0  0
  1 12  1  0  0  0  0
  8 14  2  0  0  0  0
  4 15  1  0  0  0  0
M  END
>  <cdx:fragmentId>
5

$$$$
