14965368.cdx
  Mrv1902 05222410242D          

 28 31  0  0  0  0            999 V2000
    6.5174  -14.5905    0.0000 C   0  0  1  0  0  0  0  0  0  0  0  0
    7.0318  -13.9455    0.0000 C   0  0  0  0  0  0  0  0  0  0  0  0
    7.8568  -13.9455    0.0000 C   0  0  2  0  0  0  0  0  0  0  0  0
    8.3712  -14.5905    0.0000 C   0  0  2  0  0  0  0  0  0  0  0  0
    9.1929  -14.5166    0.0000 C   0  0  0  0  0  0  0  0  0  0  0  0
    9.5171  -15.2752    0.0000 C   0  0  2  0  0  0  0  0  0  0  0  0
    8.8958  -15.8180    0.0000 C   0  0  0  0  0  0  0  0  0  0  0  0
    8.1876  -15.3948    0.0000 C   0  0  1  0  0  0  0  0  0  0  0  0
    7.4443  -15.7528    0.0000 C   0  0  2  0  0  0  0  0  0  0  0  0
    6.7010  -15.3948    0.0000 C   0  0  2  0  0  0  0  0  0  0  0  0
    6.1866  -16.0399    0.0000 C   0  0  0  0  0  0  0  0  0  0  0  0
    5.3616  -16.0399    0.0000 C   0  0  0  0  0  0  0  0  0  0  0  0
    4.8473  -15.3948    0.0000 C   0  0  1  0  0  0  0  0  0  0  0  0
    5.0308  -14.5905    0.0000 C   0  0  1  0  0  0  0  0  0  0  0  0
    5.7741  -14.2326    0.0000 C   0  0  0  0  0  0  0  0  0  0  0  0
    5.4512  -14.5106    0.0000 C   0  0  1  0  0  0  0  0  0  0  0  0
    8.2693  -13.2311    0.0000 O   0  0  0  0  0  0  0  0  0  0  0  0
    8.6954  -13.8319    0.0000 O   0  0  0  0  0  0  0  0  0  0  0  0
   10.3214  -15.4588    0.0000 O   0  0  0  0  0  0  0  0  0  0  0  0
    4.2151  -14.4676    0.0000 O   0  0  0  0  0  0  0  0  0  0  0  0
    5.0387  -13.7961    0.0000 O   0  0  0  0  0  0  0  0  0  0  0  0
    4.7294  -13.8226    0.0000 C   0  0  0  0  0  0  0  0  0  0  0  0
    7.4443  -16.5778    0.0000 C   0  0  0  0  0  0  0  0  0  0  0  0
    9.1929  -13.6916    0.0000 C   0  0  0  0  0  0  0  0  0  0  0  0
    9.9074  -14.1041    0.0000 C   0  0  0  0  0  0  0  0  0  0  0  0
    8.1876  -16.2198    0.0000 H   0  0  0  0  0  0  0  0  0  0  0  0
    6.8846  -16.1992    0.0000 H   0  0  0  0  0  0  0  0  0  0  0  0
    4.0429  -15.5784    0.0000 H   0  0  0  0  0  0  0  0  0  0  0  0
  1  2  1  0  0  0  0
  2  3  1  0  0  0  0
  3  4  1  0  0  0  0
  4  5  1  0  0  0  0
  5  6  1  0  0  0  0
  6  7  1  0  0  0  0
  7  8  1  0  0  0  0
  8  9  1  0  0  0  0
  9 10  1  0  0  0  0
 10 11  1  0  0  0  0
 11 12  1  0  0  0  0
 12 13  1  0  0  0  0
 13 14  1  0  0  0  0
 14 15  1  0  0  0  0
  1 15  1  1  0  0  0
  1 16  1  0  0  0  0
 16 13  1  0  0  0  0
  1 10  1  0  0  0  0
  4  8  1  0  0  0  0
  3 17  1  1  0  0  0
  4 18  1  1  0  0  0
  6 19  1  1  0  0  0
 14 20  1  6  0  0  0
 16 21  1  1  0  0  0
 14 22  1  1  0  0  0
  9 23  1  1  0  0  0
  5 24  1  0  0  0  0
  5 25  1  0  0  0  0
  8 26  1  6  0  0  0
 10 27  1  1  0  0  0
 13 28  1  6  0  0  0
M  END
>  <cdx:groupId>
110373

>  <cdx:fragmentId>
110289

$$$$
