96541.cdx
  Mrv1902 05222410222D          

 10  9  0  0  0  0            999 V2000
    9.1897   -9.3077    0.0000 C   0  0  0  0  0  0  0  0  0  0  0  0
    8.4753   -8.8952    0.0000 C   0  0  0  0  0  0  0  0  0  0  0  0
    7.7608   -9.3077    0.0000 C   0  0  0  0  0  0  0  0  0  0  0  0
    7.0463   -8.8952    0.0000 C   0  0  0  0  0  0  0  0  0  0  0  0
    6.3318   -9.3077    0.0000 C   0  0  0  0  0  0  0  0  0  0  0  0
    5.6174   -8.8952    0.0000 C   0  0  0  0  0  0  0  0  0  0  0  0
    4.9029   -9.3077    0.0000 C   0  0  0  0  0  0  0  0  0  0  0  0
    4.1884   -8.8952    0.0000 C   0  0  0  0  0  0  0  0  0  0  0  0
    9.9042   -8.8952    0.0000 O   0  0  0  0  0  0  0  0  0  0  0  0
    8.4753   -8.0702    0.0000 C   0  0  0  0  0  0  0  0  0  0  0  0
  1  2  1  0  0  0  0
  2  3  1  0  0  0  0
  3  4  1  0  0  0  0
  4  5  1  0  0  0  0
  5  6  1  0  0  0  0
  6  7  1  0  0  0  0
  7  8  1  0  0  0  0
  1  9  1  0  0  0  0
  2 10  1  0  0  0  0
M  END
>  <cdx:fragmentId>
5

$$$$
