96589.cdx
  Mrv1902 05222410252D          

 20 20  0  0  0  0            999 V2000
    6.1239   -9.5827    0.0000 C   0  0  0  0  0  0  0  0  0  0  0  0
    6.1239   -8.7577    0.0000 C   0  0  0  0  0  0  0  0  0  0  0  0
    6.8384   -8.3452    0.0000 C   0  0  0  0  0  0  0  0  0  0  0  0
    7.5529   -8.7577    0.0000 C   0  0  0  0  0  0  0  0  0  0  0  0
    7.5529   -9.5827    0.0000 C   0  0  0  0  0  0  0  0  0  0  0  0
    6.8384   -9.9952    0.0000 C   0  0  0  0  0  0  0  0  0  0  0  0
    5.4095   -9.9952    0.0000 C   0  0  0  0  0  0  0  0  0  0  0  0
    4.6950   -9.5827    0.0000 C   0  0  0  0  0  0  0  0  0  0  0  0
    3.9805   -9.9952    0.0000 C   0  0  0  0  0  0  0  0  0  0  0  0
    3.2661   -9.5827    0.0000 C   0  0  0  0  0  0  0  0  0  0  0  0
    2.5516   -9.9952    0.0000 C   0  0  0  0  0  0  0  0  0  0  0  0
    3.2661   -8.7577    0.0000 C   0  0  0  0  0  0  0  0  0  0  0  0
    8.2674   -7.5202    0.0000 C   0  0  0  0  0  0  0  0  0  0  0  0
    8.2674   -8.3452    0.0000 C   0  0  0  0  0  0  0  0  0  0  0  0
    8.9818   -8.7577    0.0000 C   0  0  0  0  0  0  0  0  0  0  0  0
    9.6963   -8.3452    0.0000 C   0  0  0  0  0  0  0  0  0  0  0  0
   10.4108   -8.7577    0.0000 C   0  0  0  0  0  0  0  0  0  0  0  0
   11.1252   -8.3452    0.0000 C   0  0  0  0  0  0  0  0  0  0  0  0
   11.1252   -7.5202    0.0000 C   0  0  0  0  0  0  0  0  0  0  0  0
   11.8397   -8.7577    0.0000 C   0  0  0  0  0  0  0  0  0  0  0  0
  1  2  2  0  0  0  0
  2  3  1  0  0  0  0
  3  4  1  0  0  0  0
  4  5  1  0  0  0  0
  5  6  1  0  0  0  0
  1  6  1  0  0  0  0
  7  8  1  0  0  0  0
  8  9  1  0  0  0  0
  9 10  2  0  0  0  0
 10 11  1  0  0  0  0
 10 12  1  0  0  0  0
  1  7  1  0  0  0  0
 13 14  2  0  0  0  0
 14 15  1  0  0  0  0
 15 16  1  0  0  0  0
 16 17  1  0  0  0  0
 17 18  2  0  0  0  0
 18 19  1  0  0  0  0
 18 20  1  0  0  0  0
  4 14  1  0  0  0  0
M  END
>  <cdx:fragmentId>
5

$$$$
