96607.cdx
  Mrv1902 05222410242D          

 11 11  0  0  0  0            999 V2000
    7.5529   -8.7736    0.0000 C   0  0  0  0  0  0  0  0  0  0  0  0
    6.8384   -9.1861    0.0000 C   0  0  0  0  0  0  0  0  0  0  0  0
    6.1239   -8.7736    0.0000 C   0  0  0  0  0  0  0  0  0  0  0  0
    6.1239   -7.9486    0.0000 C   0  0  0  0  0  0  0  0  0  0  0  0
    6.8384   -7.5361    0.0000 C   0  0  0  0  0  0  0  0  0  0  0  0
    7.5529   -7.9486    0.0000 C   0  0  0  0  0  0  0  0  0  0  0  0
    7.5529   -9.5986    0.0000 O   0  0  0  0  0  0  0  0  0  0  0  0
    8.2674  -10.0111    0.0000 C   0  0  0  0  0  0  0  0  0  0  0  0
    8.2674   -9.1861    0.0000 C   0  0  0  0  0  0  0  0  0  0  0  0
    8.9818   -8.7736    0.0000 C   0  0  0  0  0  0  0  0  0  0  0  0
    5.4095   -7.5361    0.0000 C   0  0  0  0  0  0  0  0  0  0  0  0
  1  2  1  0  0  0  0
  2  3  1  0  0  0  0
  3  4  2  0  0  0  0
  4  5  1  0  0  0  0
  5  6  1  0  0  0  0
  1  6  1  0  0  0  0
  1  7  1  0  0  0  0
  8  9  2  0  0  0  0
  9 10  1  0  0  0  0
  1  9  1  0  0  0  0
  4 11  1  0  0  0  0
M  END
>  <cdx:fragmentId>
5

$$$$
