96609.cdx
  Mrv1902 05222410222D          

 11 10  0  0  0  0            999 V2000
    4.9406   -8.4150    0.0000 C   0  0  0  0  0  0  0  0  0  0  0  0
    5.6551   -8.0025    0.0000 C   0  0  0  0  0  0  0  0  0  0  0  0
    6.3696   -8.4150    0.0000 C   0  0  0  0  0  0  0  0  0  0  0  0
    7.0841   -8.0025    0.0000 C   0  0  0  0  0  0  0  0  0  0  0  0
    7.7985   -8.4150    0.0000 C   0  0  0  0  0  0  0  0  0  0  0  0
    8.5130   -8.0025    0.0000 C   0  0  0  0  0  0  0  0  0  0  0  0
    9.2275   -8.4150    0.0000 C   0  0  0  0  0  0  0  0  0  0  0  0
    5.6551   -7.1775    0.0000 C   0  0  0  0  0  0  0  0  0  0  0  0
    4.9406   -7.5900    0.0000 O   0  0  0  0  0  0  0  0  0  0  0  0
    8.5130   -7.1775    0.0000 C   0  0  0  0  0  0  0  0  0  0  0  0
    9.2275   -6.7650    0.0000 C   0  0  0  0  0  0  0  0  0  0  0  0
  1  2  1  0  0  0  0
  2  3  1  0  0  0  0
  3  4  2  0  0  0  0
  4  5  1  0  0  0  0
  5  6  2  0  0  0  0
  6  7  1  0  0  0  0
  2  8  1  0  0  0  0
  2  9  1  0  0  0  0
  6 10  1  0  0  0  0
 10 11  2  0  0  0  0
M  END
>  <cdx:fragmentId>
3

$$$$
