96608.cdx
  Mrv1902 05222410232D          

 12 13  0  0  0  0            999 V2000
    5.8850   -4.6200    0.0000 C   0  0  0  0  0  0  0  0  0  0  0  0
    5.5550   -5.2800    0.0000 C   0  0  0  0  0  0  0  0  0  0  0  0
    6.1870   -5.7470    0.0000 C   0  0  0  0  0  0  0  0  0  0  0  0
    7.0675   -5.3075    0.0000 C   0  0  1  0  0  0  0  0  0  0  0  0
    8.1950   -5.1975    0.0000 C   0  0  0  0  0  0  0  0  0  0  0  0
    7.3975   -4.5375    0.0000 C   0  0  2  0  0  0  0  0  0  0  0  0
    6.8750   -3.7950    0.0000 C   0  0  0  0  0  0  0  0  0  0  0  0
    6.1870   -6.5720    0.0000 O   0  0  0  0  0  0  0  0  0  0  0  0
    8.7784   -5.7809    0.0000 C   0  0  0  0  0  0  0  0  0  0  0  0
    8.9919   -4.9840    0.0000 C   0  0  0  0  0  0  0  0  0  0  0  0
    7.0675   -6.1325    0.0000 H   0  0  0  0  0  0  0  0  0  0  0  0
    7.8100   -3.8230    0.0000 H   0  0  0  0  0  0  0  0  0  0  0  0
  1  2  1  0  0  0  0
  2  3  1  0  0  0  0
  3  4  1  0  0  0  0
  4  5  1  0  0  0  0
  5  6  1  0  0  0  0
  6  1  1  0  0  0  0
  6  7  1  0  0  0  0
  7  4  1  0  0  0  0
  3  8  2  0  0  0  0
  5  9  1  0  0  0  0
  5 10  1  0  0  0  0
  4 11  1  1  0  0  0
  6 12  1  6  0  0  0
M  END
>  <cdx:fragmentId>
44

$$$$
