96613.cdx
  Mrv1902 05222410242D          

 17 19  0  0  0  0            999 V2000
    7.7588   -7.4357    0.0000 C   0  0  0  0  0  0  0  0  0  0  0  0
    7.1138   -7.9500    0.0000 C   0  0  2  0  0  0  0  0  0  0  0  0
    6.3291   -7.6951    0.0000 C   0  0  0  0  0  0  0  0  0  0  0  0
    5.8442   -8.3625    0.0000 C   0  0  0  0  0  0  0  0  0  0  0  0
    6.3291   -9.0300    0.0000 C   0  0  2  0  0  0  0  0  0  0  0  0
    7.1138   -8.7750    0.0000 C   0  0  2  0  0  0  0  0  0  0  0  0
    7.7588   -9.2894    0.0000 C   0  0  0  0  0  0  0  0  0  0  0  0
    8.5631   -9.1058    0.0000 C   0  0  0  0  0  0  0  0  0  0  0  0
    8.9210   -8.3625    0.0000 C   0  0  0  0  0  0  0  0  0  0  0  0
    8.5631   -7.6192    0.0000 C   0  0  0  0  0  0  0  0  0  0  0  0
    8.2934   -8.3616    0.0000 O   0  0  0  0  0  0  0  0  0  0  0  0
    6.6576  -10.3980    0.0000 C   0  0  0  0  0  0  0  0  0  0  0  0
    6.0742   -9.8146    0.0000 C   0  0  0  0  0  0  0  0  0  0  0  0
    5.2672   -9.9861    0.0000 C   0  0  0  0  0  0  0  0  0  0  0  0
    9.0775   -9.7508    0.0000 C   0  0  0  0  0  0  0  0  0  0  0  0
    6.9665   -7.1383    0.0000 C   0  0  0  0  0  0  0  0  0  0  0  0
    6.9665   -9.5868    0.0000 H   0  0  0  0  0  0  0  0  0  0  0  0
  1  2  1  0  0  0  0
  2  3  1  0  0  0  0
  3  4  1  0  0  0  0
  4  5  1  0  0  0  0
  5  6  1  0  0  0  0
  6  7  1  0  0  0  0
  7  8  1  0  0  0  0
  8  9  1  0  0  0  0
  9 10  1  0  0  0  0
  1 10  1  0  0  0  0
  1 11  1  0  0  0  0
 11  7  1  0  0  0  0
  2  6  1  0  0  0  0
 12 13  1  0  0  0  0
 13 14  1  0  0  0  0
  5 13  1  6  0  0  0
  8 15  2  0  0  0  0
  2 16  1  6  0  0  0
  6 17  1  6  0  0  0
M  END
>  <cdx:fragmentId>
5

$$$$
