96611.cdx
  Mrv1902 05222410232D          

 12 12  0  0  0  0            999 V2000
    7.0430   -9.3497    0.0000 C   0  0  0  0  0  0  0  0  0  0  0  0
    7.7575   -8.9372    0.0000 C   0  0  0  0  0  0  0  0  0  0  0  0
    7.7575   -8.1122    0.0000 C   0  0  0  0  0  0  0  0  0  0  0  0
    7.0430   -7.6997    0.0000 C   0  0  0  0  0  0  0  0  0  0  0  0
    6.3285   -8.1122    0.0000 C   0  0  1  0  0  0  0  0  0  0  0  0
    6.3285   -8.9372    0.0000 C   0  0  2  0  0  0  0  0  0  0  0  0
    5.9160   -7.3978    0.0000 C   0  0  0  0  0  0  0  0  0  0  0  0
    8.4720   -9.3497    0.0000 C   0  0  0  0  0  0  0  0  0  0  0  0
    8.4720  -10.1747    0.0000 C   0  0  0  0  0  0  0  0  0  0  0  0
    9.1864   -8.9372    0.0000 C   0  0  0  0  0  0  0  0  0  0  0  0
    5.5035   -8.1122    0.0000 O   0  0  0  0  0  0  0  0  0  0  0  0
    5.6141   -9.3497    0.0000 O   0  0  0  0  0  0  0  0  0  0  0  0
  1  2  2  0  0  0  0
  2  3  1  0  0  0  0
  3  4  1  0  0  0  0
  4  5  1  0  0  0  0
  5  6  1  0  0  0  0
  1  6  1  0  0  0  0
  5  7  1  1  0  0  0
  8  9  1  0  0  0  0
  8 10  1  0  0  0  0
  2  8  1  0  0  0  0
  5 11  1  6  0  0  0
  6 12  1  1  0  0  0
M  END
>  <cdx:fragmentId>
5

$$$$
