96610.cdx
  Mrv1902 05222410232D          

  9  9  0  0  0  0            999 V2000
    6.4794   -9.3376    0.0000 C   0  0  0  0  0  0  0  0  0  0  0  0
    6.4794   -8.5126    0.0000 C   0  0  0  0  0  0  0  0  0  0  0  0
    7.1939   -8.1001    0.0000 C   0  0  0  0  0  0  0  0  0  0  0  0
    7.9083   -8.5126    0.0000 C   0  0  0  0  0  0  0  0  0  0  0  0
    7.9083   -9.3376    0.0000 C   0  0  0  0  0  0  0  0  0  0  0  0
    7.1939   -9.7501    0.0000 C   0  0  0  0  0  0  0  0  0  0  0  0
    8.7333   -8.5126    0.0000 C   0  0  0  0  0  0  0  0  0  0  0  0
    8.3208   -7.7981    0.0000 O   0  0  0  0  0  0  0  0  0  0  0  0
    5.7649   -9.7501    0.0000 O   0  0  0  0  0  0  0  0  0  0  0  0
  1  2  1  0  0  0  0
  2  3  2  0  0  0  0
  3  4  1  0  0  0  0
  4  5  1  0  0  0  0
  5  6  1  0  0  0  0
  1  6  1  0  0  0  0
  4  7  1  0  0  0  0
  4  8  1  0  0  0  0
  1  9  2  0  0  0  0
M  END
>  <cdx:fragmentId>
5

$$$$
