96614.cdx
  Mrv1902 05222410252D          

 12 12  0  0  0  0            999 V2000
    8.2674   -8.7736    0.0000 C   0  0  2  0  0  0  0  0  0  0  0  0
    8.2674   -7.9486    0.0000 C   0  0  0  0  0  0  0  0  0  0  0  0
    7.5529   -7.5361    0.0000 C   0  0  0  0  0  0  0  0  0  0  0  0
    6.8384   -7.9486    0.0000 C   0  0  0  0  0  0  0  0  0  0  0  0
    6.8384   -8.7736    0.0000 C   0  0  0  0  0  0  0  0  0  0  0  0
    7.5529   -9.1861    0.0000 C   0  0  0  0  0  0  0  0  0  0  0  0
    8.9818   -9.1861    0.0000 O   0  0  0  0  0  0  0  0  0  0  0  0
    8.9818   -7.5361    0.0000 C   0  0  0  0  0  0  0  0  0  0  0  0
    6.1239  -10.0111    0.0000 C   0  0  0  0  0  0  0  0  0  0  0  0
    6.1239   -9.1861    0.0000 C   0  0  0  0  0  0  0  0  0  0  0  0
    5.4095   -8.7736    0.0000 C   0  0  0  0  0  0  0  0  0  0  0  0
    5.4095   -9.5986    0.0000 O   0  0  0  0  0  0  0  0  0  0  0  0
  1  2  1  0  0  0  0
  2  3  2  0  0  0  0
  3  4  1  0  0  0  0
  4  5  1  0  0  0  0
  5  6  1  0  0  0  0
  1  6  1  0  0  0  0
  1  7  1  1  0  0  0
  2  8  1  0  0  0  0
  9 10  1  0  0  0  0
 10 11  1  0  0  0  0
 10 12  1  0  0  0  0
  5 10  1  0  0  0  0
M  END
>  <cdx:fragmentId>
5

$$$$
