96612.cdx
  Mrv1902 05222410242D          

 12 12  0  0  0  0            999 V2000
    6.6594   -6.7380    0.0000 C   0  0  0  0  0  0  0  0  0  0  0  0
    6.2469   -7.4525    0.0000 C   0  0  0  0  0  0  0  0  0  0  0  0
    6.6594   -8.1670    0.0000 C   0  0  0  0  0  0  0  0  0  0  0  0
    7.4844   -8.1670    0.0000 C   0  0  0  0  0  0  0  0  0  0  0  0
    7.8969   -7.4525    0.0000 C   0  0  0  0  0  0  0  0  0  0  0  0
    7.4844   -6.7380    0.0000 C   0  0  0  0  0  0  0  0  0  0  0  0
    5.5324   -7.8650    0.0000 O   0  0  0  0  0  0  0  0  0  0  0  0
    5.5324   -7.0400    0.0000 C   0  0  0  0  0  0  0  0  0  0  0  0
    8.7219   -7.4525    0.0000 C   0  0  0  0  0  0  0  0  0  0  0  0
    8.3094   -8.1670    0.0000 O   0  0  0  0  0  0  0  0  0  0  0  0
    9.1344   -6.7380    0.0000 C   0  0  0  0  0  0  0  0  0  0  0  0
    9.1344   -8.1670    0.0000 C   0  0  0  0  0  0  0  0  0  0  0  0
  1  2  1  0  0  0  0
  2  3  1  0  0  0  0
  3  4  1  0  0  0  0
  4  5  1  0  0  0  0
  5  6  1  0  0  0  0
  6  1  2  0  0  0  0
  2  7  1  0  0  0  0
  2  8  1  0  0  0  0
  5  9  1  0  0  0  0
  5 10  1  0  0  0  0
  9 11  1  0  0  0  0
  9 12  1  0  0  0  0
M  END
>  <cdx:fragmentId>
5

$$$$
