966146.cdx
  Mrv1902 05222410202D          

 23 25  0  0  0  0            999 V2000
    6.6937   -9.4589    0.0000 H   0  0  0  0  0  0  0  0  0  0  0  0
    6.3923   -9.7614    0.0000 C   0  0  0  0  0  0  0  0  0  0  0  0
    5.5673   -9.7629    0.0000 C   0  0  0  0  0  0  0  0  0  0  0  0
    6.6892   -6.9839    0.0000 C   0  0  0  0  0  0  0  0  0  0  0  0
    9.5441   -5.3286    0.0000 C   0  0  0  0  0  0  0  0  0  0  0  0
    9.5456   -6.1536    0.0000 C   0  0  0  0  0  0  0  0  0  0  0  0
   10.2608   -6.5648    0.0000 C   0  0  0  0  0  0  0  0  0  0  0  0
    8.1151   -5.3312    0.0000 O   0  0  0  0  0  0  0  0  0  0  0  0
    4.5466   -7.4003    0.0000 O   0  0  0  0  0  0  0  0  0  0  0  0
    6.6922   -8.6339    0.0000 C   0  0  2  0  0  0  0  0  0  0  0  0
    7.4075   -9.0450    0.0000 C   0  0  0  0  0  0  0  0  0  0  0  0
    8.1212   -8.6312    0.0000 C   0  0  0  0  0  0  0  0  0  0  0  0
    8.1197   -7.8062    0.0000 C   0  0  0  0  0  0  0  0  0  0  0  0
    8.8334   -7.3924    0.0000 C   0  0  0  0  0  0  0  0  0  0  0  0
    8.8319   -6.5674    0.0000 C   0  0  0  0  0  0  0  0  0  0  0  0
    8.1166   -6.1562    0.0000 C   0  0  0  0  0  0  0  0  0  0  0  0
    7.4029   -6.5701    0.0000 C   0  0  0  0  0  0  0  0  0  0  0  0
    7.4044   -7.3951    0.0000 C   0  0  0  0  0  0  0  0  0  0  0  0
    6.6907   -7.8089    0.0000 C   0  0  2  0  0  0  0  0  0  0  0  0
    5.9755   -7.3977    0.0000 C   0  0  0  0  0  0  0  0  0  0  0  0
    5.2618   -7.8115    0.0000 C   0  0  2  0  0  0  0  0  0  0  0  0
    5.2633   -8.6365    0.0000 C   0  0  0  0  0  0  0  0  0  0  0  0
    5.9785   -9.0477    0.0000 C   0  0  0  0  0  0  0  0  0  0  0  0
 10  1  1  6  0  0  0
 23  2  1  0  0  0  0
 23  3  1  0  0  0  0
 19  4  1  1  0  0  0
 15  6  1  0  0  0  0
  6  5  1  0  0  0  0
  7  6  1  0  0  0  0
 16  8  1  0  0  0  0
 21  9  1  6  0  0  0
 19 10  1  0  0  0  0
 23 10  1  0  0  0  0
 11 10  1  0  0  0  0
 12 11  1  0  0  0  0
 13 12  1  0  0  0  0
 18 13  2  0  0  0  0
 14 13  1  0  0  0  0
 15 14  2  0  0  0  0
 16 15  1  0  0  0  0
 17 16  2  0  0  0  0
 18 17  1  0  0  0  0
 19 18  1  0  0  0  0
 20 19  1  0  0  0  0
 21 20  1  0  0  0  0
 22 21  1  0  0  0  0
 23 22  1  0  0  0  0
M  END
>  <cdx:fragmentId>
99314

$$$$
