9662.cdx
  Mrv1902 05222410242D          

 18 18  0  0  0  0            999 V2000
    2.7877   -7.5900    0.0000 C   0  0  0  0  0  0  0  0  0  0  0  0
    2.7877   -8.4150    0.0000 C   0  0  0  0  0  0  0  0  0  0  0  0
    3.5021   -8.8275    0.0000 C   0  0  0  0  0  0  0  0  0  0  0  0
    4.2166   -8.4150    0.0000 C   0  0  0  0  0  0  0  0  0  0  0  0
    4.2166   -7.5900    0.0000 C   0  0  0  0  0  0  0  0  0  0  0  0
    3.5021   -7.1775    0.0000 C   0  0  0  0  0  0  0  0  0  0  0  0
    2.0732   -8.8275    0.0000 O   0  0  0  0  0  0  0  0  0  0  0  0
    4.9311   -7.1775    0.0000 C   0  0  0  0  0  0  0  0  0  0  0  0
    5.6455   -7.5900    0.0000 C   0  0  0  0  0  0  0  0  0  0  0  0
    6.3600   -7.1775    0.0000 C   0  0  0  0  0  0  0  0  0  0  0  0
    7.0745   -7.5900    0.0000 C   0  0  0  0  0  0  0  0  0  0  0  0
    7.7890   -7.1775    0.0000 C   0  0  0  0  0  0  0  0  0  0  0  0
    8.5034   -7.5900    0.0000 C   0  0  0  0  0  0  0  0  0  0  0  0
    9.2179   -7.1775    0.0000 C   0  0  0  0  0  0  0  0  0  0  0  0
    6.3600   -6.3525    0.0000 O   0  0  0  0  0  0  0  0  0  0  0  0
    9.9324   -7.5900    0.0000 C   0  0  0  0  0  0  0  0  0  0  0  0
   10.6468   -7.1775    0.0000 C   0  0  0  0  0  0  0  0  0  0  0  0
   11.3613   -7.5900    0.0000 C   0  0  0  0  0  0  0  0  0  0  0  0
  1  2  2  0  0  0  0
  2  3  1  0  0  0  0
  3  4  2  0  0  0  0
  4  5  1  0  0  0  0
  5  6  2  0  0  0  0
  6  1  1  0  0  0  0
  2  7  1  0  0  0  0
  5  8  1  0  0  0  0
  8  9  1  0  0  0  0
  9 10  1  0  0  0  0
 10 11  1  0  0  0  0
 11 12  2  0  0  0  0
 12 13  1  0  0  0  0
 13 14  1  0  0  0  0
 10 15  2  0  0  0  0
 14 16  1  0  0  0  0
 16 17  1  0  0  0  0
 17 18  1  0  0  0  0
M  END
>  <cdx:fragmentId>
5

$$$$
