9665.cdx
  Mrv1902 05222410252D          

 25 27  0  0  0  0            999 V2000
   11.6033   -5.0971    0.0000 O   0  0  0  0  0  0  0  0  0  0  0  0
    2.3185   -6.3518    0.0000 C   0  0  0  0  0  0  0  0  0  0  0  0
    3.0330   -6.7643    0.0000 O   0  0  0  0  0  0  0  0  0  0  0  0
    3.0297   -5.1143    0.0000 O   0  0  0  0  0  0  0  0  0  0  0  0
    8.0384   -8.8168    0.0000 O   0  0  0  0  0  0  0  0  0  0  0  0
    7.3214   -7.5807    0.0000 C   0  0  0  0  0  0  0  0  0  0  0  0
    8.0367   -7.9918    0.0000 C   0  0  0  0  0  0  0  0  0  0  0  0
    8.7504   -7.5778    0.0000 C   0  0  0  0  0  0  0  0  0  0  0  0
   10.1777   -6.7500    0.0000 C   0  0  0  0  0  0  0  0  0  0  0  0
   10.8913   -6.3360    0.0000 C   0  0  0  0  0  0  0  0  0  0  0  0
   10.8897   -5.5110    0.0000 C   0  0  0  0  0  0  0  0  0  0  0  0
   10.1744   -5.1000    0.0000 C   0  0  0  0  0  0  0  0  0  0  0  0
    8.7487   -6.7528    0.0000 C   0  0  0  0  0  0  0  0  0  0  0  0
    9.4624   -6.3389    0.0000 C   0  0  0  0  0  0  0  0  0  0  0  0
    9.4607   -5.5139    0.0000 C   0  0  0  0  0  0  0  0  0  0  0  0
    7.3198   -6.7557    0.0000 C   0  0  0  0  0  0  0  0  0  0  0  0
    8.0334   -6.3418    0.0000 O   0  0  0  0  0  0  0  0  0  0  0  0
    5.8909   -6.7586    0.0000 C   0  0  0  0  0  0  0  0  0  0  0  0
    6.6045   -6.3446    0.0000 C   0  0  0  0  0  0  0  0  0  0  0  0
    4.4619   -6.7615    0.0000 C   0  0  0  0  0  0  0  0  0  0  0  0
    5.1756   -6.3475    0.0000 C   0  0  0  0  0  0  0  0  0  0  0  0
    5.1739   -5.5225    0.0000 C   0  0  0  0  0  0  0  0  0  0  0  0
    4.4586   -5.1115    0.0000 C   0  0  0  0  0  0  0  0  0  0  0  0
    3.7450   -5.5254    0.0000 C   0  0  0  0  0  0  0  0  0  0  0  0
    3.7466   -6.3504    0.0000 C   0  0  0  0  0  0  0  0  0  0  0  0
 11  1  1  0  0  0  0
  3  2  1  0  0  0  0
 25  3  1  0  0  0  0
 24  4  1  0  0  0  0
  7  5  2  0  0  0  0
  6 16  2  0  0  0  0
  7  6  1  0  0  0  0
  8  7  1  0  0  0  0
 13  8  1  0  0  0  0
  9 14  1  0  0  0  0
 10  9  2  0  0  0  0
 11 10  1  0  0  0  0
 12 11  2  0  0  0  0
 15 12  1  0  0  0  0
 13 17  1  0  0  0  0
 14 13  1  0  0  0  0
 15 14  2  0  0  0  0
 16 19  1  0  0  0  0
 17 16  1  0  0  0  0
 18 21  1  0  0  0  0
 19 18  2  0  0  0  0
 20 25  1  0  0  0  0
 21 20  2  0  0  0  0
 22 21  1  0  0  0  0
 23 22  2  0  0  0  0
 24 23  1  0  0  0  0
 25 24  2  0  0  0  0
M  END
>  <cdx:fragmentId>
5

$$$$
