96664.cdx
  Mrv1902 05222410272D          

 19 20  0  0  0  0            999 V2000
    6.9756   -5.5016    0.0000 C   0  0  0  0  0  0  0  0  0  0  0  0
    6.2612   -5.9141    0.0000 C   0  0  0  0  0  0  0  0  0  0  0  0
    6.2612   -6.7391    0.0000 C   0  0  0  0  0  0  0  0  0  0  0  0
    5.5467   -7.1516    0.0000 C   0  0  0  0  0  0  0  0  0  0  0  0
    4.8322   -6.7391    0.0000 C   0  0  0  0  0  0  0  0  0  0  0  0
    4.8322   -5.9141    0.0000 C   0  0  0  0  0  0  0  0  0  0  0  0
    5.5467   -5.5016    0.0000 C   0  0  0  0  0  0  0  0  0  0  0  0
    6.9756   -4.6766    0.0000 O   0  0  0  0  0  0  0  0  0  0  0  0
    7.6901   -5.9141    0.0000 C   0  0  0  0  0  0  0  0  0  0  0  0
    8.4046   -5.5016    0.0000 C   0  0  0  0  0  0  0  0  0  0  0  0
    9.1191   -5.9141    0.0000 C   0  0  0  0  0  0  0  0  0  0  0  0
    9.1191   -6.7391    0.0000 C   0  0  0  0  0  0  0  0  0  0  0  0
    8.4046   -7.1516    0.0000 C   0  0  0  0  0  0  0  0  0  0  0  0
    7.6901   -6.7391    0.0000 C   0  0  0  0  0  0  0  0  0  0  0  0
    5.5467   -4.6766    0.0000 O   0  0  0  0  0  0  0  0  0  0  0  0
    9.8335   -7.1516    0.0000 O   0  0  0  0  0  0  0  0  0  0  0  0
    4.1178   -7.1516    0.0000 O   0  0  0  0  0  0  0  0  0  0  0  0
    9.8335   -5.5016    0.0000 O   0  0  0  0  0  0  0  0  0  0  0  0
    6.9756   -7.1516    0.0000 O   0  0  0  0  0  0  0  0  0  0  0  0
  1  2  1  0  0  0  0
  2  3  1  0  0  0  0
  3  4  2  0  0  0  0
  4  5  1  0  0  0  0
  5  6  2  0  0  0  0
  6  7  1  0  0  0  0
  2  7  2  0  0  0  0
  9 10  1  0  0  0  0
 10 11  2  0  0  0  0
 11 12  1  0  0  0  0
 12 13  2  0  0  0  0
 13 14  1  0  0  0  0
  9 14  2  0  0  0  0
  1  8  2  0  0  0  0
  1  9  1  0  0  0  0
  7 15  1  0  0  0  0
 12 16  1  0  0  0  0
  5 17  1  0  0  0  0
 11 18  1  0  0  0  0
  3 19  1  0  0  0  0
M  END
>  <cdx:fragmentId>
5

$$$$
