96687.cdx
  Mrv1902 05222410182D          

 13 13  0  0  0  0            999 V2000
    6.4782   -6.8698    0.0000 C   0  0  2  0  0  0  0  0  0  0  0  0
    6.4782   -7.6948    0.0000 C   0  0  2  0  0  0  0  0  0  0  0  0
    7.1926   -8.1073    0.0000 C   0  0  1  0  0  0  0  0  0  0  0  0
    7.9071   -7.6948    0.0000 C   0  0  2  0  0  0  0  0  0  0  0  0
    7.9071   -6.8698    0.0000 C   0  0  2  0  0  0  0  0  0  0  0  0
    7.1926   -6.4573    0.0000 N   0  0  0  0  0  0  0  0  0  0  0  0
    5.7637   -6.4573    0.0000 C   0  0  0  0  0  0  0  0  0  0  0  0
    7.1926   -8.9323    0.0000 O   0  0  0  0  0  0  0  0  0  0  0  0
    8.6216   -8.1073    0.0000 O   0  0  0  0  0  0  0  0  0  0  0  0
    5.7637   -8.1073    0.0000 O   0  0  0  0  0  0  0  0  0  0  0  0
    5.0492   -6.8698    0.0000 O   0  0  0  0  0  0  0  0  0  0  0  0
    8.6216   -6.4573    0.0000 C   0  0  0  0  0  0  0  0  0  0  0  0
    9.4185   -6.6708    0.0000 O   0  0  0  0  0  0  0  0  0  0  0  0
  1  2  1  0  0  0  0
  2  3  1  0  0  0  0
  3  4  1  0  0  0  0
  4  5  1  0  0  0  0
  5  6  1  0  0  0  0
  6  1  1  0  0  0  0
  1  7  1  1  0  0  0
  3  8  1  1  0  0  0
  4  9  1  6  0  0  0
  2 10  1  6  0  0  0
  7 11  1  0  0  0  0
  5 12  1  6  0  0  0
 12 13  1  0  0  0  0
M  END
>  <cdx:fragmentId>
5

$$$$
