96688.cdx
  Mrv1902 05222410282D          

 24 25  0  0  0  0            999 V2000
    7.8817   -7.5856    0.0000 C   0  0  2  0  0  0  0  0  0  0  0  0
    7.8817   -8.4106    0.0000 C   0  0  2  0  0  0  0  0  0  0  0  0
    8.5961   -8.8231    0.0000 C   0  0  1  0  0  0  0  0  0  0  0  0
    9.3106   -8.4106    0.0000 C   0  0  2  0  0  0  0  0  0  0  0  0
    9.3106   -7.5856    0.0000 C   0  0  2  0  0  0  0  0  0  0  0  0
    8.5961   -7.1731    0.0000 N   0  0  0  0  0  0  0  0  0  0  0  0
    7.1672   -7.1731    0.0000 C   0  0  0  0  0  0  0  0  0  0  0  0
    8.5961   -9.6481    0.0000 O   0  0  0  0  0  0  0  0  0  0  0  0
   10.0251   -8.8231    0.0000 O   0  0  0  0  0  0  0  0  0  0  0  0
    7.1672   -8.8231    0.0000 O   0  0  0  0  0  0  0  0  0  0  0  0
    6.4527   -7.5856    0.0000 O   0  0  0  0  0  0  0  0  0  0  0  0
   10.0251   -7.1731    0.0000 C   0  0  0  0  0  0  0  0  0  0  0  0
   10.7395   -7.5856    0.0000 O   0  0  0  0  0  0  0  0  0  0  0  0
    5.7382   -7.1731    0.0000 C   0  0  2  0  0  0  0  0  0  0  0  0
    5.7382   -6.3481    0.0000 O   0  0  0  0  0  0  0  0  0  0  0  0
    5.0238   -5.9356    0.0000 C   0  0  1  0  0  0  0  0  0  0  0  0
    4.3093   -6.3481    0.0000 C   0  0  2  0  0  0  0  0  0  0  0  0
    4.3093   -7.1731    0.0000 C   0  0  1  0  0  0  0  0  0  0  0  0
    5.0238   -7.5856    0.0000 C   0  0  1  0  0  0  0  0  0  0  0  0
    5.0238   -5.1106    0.0000 C   0  0  0  0  0  0  0  0  0  0  0  0
    3.5948   -7.5856    0.0000 O   0  0  0  0  0  0  0  0  0  0  0  0
    5.0238   -8.4106    0.0000 O   0  0  0  0  0  0  0  0  0  0  0  0
    3.5948   -5.9356    0.0000 O   0  0  0  0  0  0  0  0  0  0  0  0
    4.3093   -4.6981    0.0000 O   0  0  0  0  0  0  0  0  0  0  0  0
  1  2  1  0  0  0  0
  2  3  1  0  0  0  0
  3  4  1  0  0  0  0
  4  5  1  0  0  0  0
  5  6  1  0  0  0  0
  6  1  1  0  0  0  0
  1  7  1  1  0  0  0
  3  8  1  1  0  0  0
  4  9  1  6  0  0  0
  2 10  1  6  0  0  0
  7 11  1  0  0  0  0
  5 12  1  6  0  0  0
 12 13  1  0  0  0  0
 14 11  1  1  0  0  0
 14 15  1  0  0  0  0
 15 16  1  0  0  0  0
 16 17  1  0  0  0  0
 17 18  1  0  0  0  0
 18 19  1  0  0  0  0
 19 14  1  0  0  0  0
 16 20  1  1  0  0  0
 18 21  1  1  0  0  0
 19 22  1  6  0  0  0
 17 23  1  6  0  0  0
 20 24  1  0  0  0  0
M  END
>  <cdx:fragmentId>
5

$$$$
