96684.cdx
  Mrv1902 05222410182D          

 11 11  0  0  0  0            999 V2000
    6.7482   -7.5892    0.0000 N   0  0  0  0  0  0  0  0  0  0  0  0
    7.4082   -8.0841    0.0000 C   0  0  0  0  0  0  0  0  0  0  0  0
    7.1415   -8.8648    0.0000 C   0  0  0  0  0  0  0  0  0  0  0  0
    6.3166   -8.8524    0.0000 C   0  0  0  0  0  0  0  0  0  0  0  0
    6.0735   -8.0640    0.0000 C   0  0  0  0  0  0  0  0  0  0  0  0
    5.8217   -9.5125    0.0000 O   0  0  0  0  0  0  0  0  0  0  0  0
    7.6163   -9.5395    0.0000 O   0  0  0  0  0  0  0  0  0  0  0  0
    5.2928   -7.7973    0.0000 C   0  0  0  0  0  0  0  0  0  0  0  0
    4.6715   -8.3401    0.0000 O   0  0  0  0  0  0  0  0  0  0  0  0
    8.1966   -7.8410    0.0000 C   0  0  0  0  0  0  0  0  0  0  0  0
    8.8013   -8.4022    0.0000 O   0  0  0  0  0  0  0  0  0  0  0  0
  1  2  1  0  0  0  0
  2  3  1  0  0  0  0
  3  4  1  0  0  0  0
  4  5  1  0  0  0  0
  1  5  1  0  0  0  0
  4  6  1  0  0  0  0
  3  7  1  0  0  0  0
  8  9  1  0  0  0  0
  5  8  1  0  0  0  0
 10 11  1  0  0  0  0
  2 10  1  0  0  0  0
M  END
>  <cdx:fragmentId>
5

$$$$
