96693.cdx
  Mrv1902 05222410182D          

 29 30  0  0  0  0            999 V2000
    2.9337   -8.4013    0.0000 C   0  0  0  0  0  0  0  0  0  0  0  0
    2.9337   -9.2263    0.0000 C   0  0  0  0  0  0  0  0  0  0  0  0
    3.6481   -9.6387    0.0000 C   0  0  0  0  0  0  0  0  0  0  0  0
    4.3626   -9.2263    0.0000 C   0  0  0  0  0  0  0  0  0  0  0  0
    4.3626   -8.4013    0.0000 C   0  0  0  0  0  0  0  0  0  0  0  0
    3.6481   -7.9888    0.0000 C   0  0  0  0  0  0  0  0  0  0  0  0
    5.0771   -9.6387    0.0000 C   0  0  0  0  0  0  0  0  0  0  0  0
    5.7916   -9.2263    0.0000 C   0  0  0  0  0  0  0  0  0  0  0  0
    5.7916   -8.4013    0.0000 C   0  0  0  0  0  0  0  0  0  0  0  0
    5.0771   -7.9888    0.0000 C   0  0  0  0  0  0  0  0  0  0  0  0
    7.2205   -8.4013    0.0000 C   0  0  0  0  0  0  0  0  0  0  0  0
    6.5060   -7.9888    0.0000 C   0  0  1  0  0  0  0  0  0  0  0  0
    8.6494   -9.2263    0.0000 C   0  0  0  0  0  0  0  0  0  0  0  0
    8.6494   -8.4013    0.0000 C   0  0  0  0  0  0  0  0  0  0  0  0
    7.9350   -7.9888    0.0000 C   0  0  0  0  0  0  0  0  0  0  0  0
    3.6481   -7.1638    0.0000 O   0  0  0  0  0  0  0  0  0  0  0  0
    3.6481  -10.4637    0.0000 O   0  0  0  0  0  0  0  0  0  0  0  0
    5.0771  -10.4637    0.0000 O   0  0  0  0  0  0  0  0  0  0  0  0
    5.0771   -7.1638    0.0000 O   0  0  0  0  0  0  0  0  0  0  0  0
    5.7916   -6.7512    0.0000 C   0  0  0  0  0  0  0  0  0  0  0  0
    6.5060   -7.1638    0.0000 O   0  0  0  0  0  0  0  0  0  0  0  0
    9.3639   -7.9888    0.0000 C   0  0  0  0  0  0  0  0  0  0  0  0
    7.2205   -6.7512    0.0000 C   0  0  0  0  0  0  0  0  0  0  0  0
    7.2205   -5.9262    0.0000 O   0  0  0  0  0  0  0  0  0  0  0  0
    7.9350   -7.1638    0.0000 C   0  0  0  0  0  0  0  0  0  0  0  0
    8.6494   -6.7512    0.0000 C   0  0  0  0  0  0  0  0  0  0  0  0
    9.3639   -7.1638    0.0000 C   0  0  0  0  0  0  0  0  0  0  0  0
    8.2369   -6.0368    0.0000 C   0  0  0  0  0  0  0  0  0  0  0  0
    9.0619   -6.0368    0.0000 O   0  0  0  0  0  0  0  0  0  0  0  0
  1  2  2  0  0  0  0
  2  3  1  0  0  0  0
  3  4  1  0  0  0  0
  4  5  2  0  0  0  0
  5  6  1  0  0  0  0
  6  1  1  0  0  0  0
  4  7  1  0  0  0  0
  7  8  2  0  0  0  0
  8  9  1  0  0  0  0
  9 10  2  0  0  0  0
 10  5  1  0  0  0  0
 11 12  1  0  0  0  0
 12  9  1  0  0  0  0
 13 14  1  0  0  0  0
 14 15  2  0  0  0  0
 15 11  1  0  0  0  0
  6 16  2  0  0  0  0
  3 17  2  0  0  0  0
  7 18  1  0  0  0  0
 10 19  1  0  0  0  0
 19 20  1  0  0  0  0
 12 21  1  6  0  0  0
 14 22  1  0  0  0  0
 21 23  1  0  0  0  0
 23 24  2  0  0  0  0
 23 25  1  0  0  0  0
 25 26  1  0  0  0  0
 26 27  1  0  0  0  0
 26 28  1  0  0  0  0
 26 29  1  0  0  0  0
M  END
>  <cdx:fragmentId>
5

$$$$
