96706-￬ﾞﾐ￪ﾷﾼ.cdx
  Mrv1902 05222410262D          

 27 28  0  0  0  0            999 V2000
    8.7912   -5.6238    0.0000 C   0  0  0  0  0  0  0  0  0  0  0  0
    8.7912   -6.4487    0.0000 C   0  0  0  0  0  0  0  0  0  0  0  0
    9.5056   -6.8613    0.0000 C   0  0  0  0  0  0  0  0  0  0  0  0
   10.2201   -6.4487    0.0000 C   0  0  0  0  0  0  0  0  0  0  0  0
   10.2201   -5.6238    0.0000 C   0  0  0  0  0  0  0  0  0  0  0  0
    9.5056   -5.2113    0.0000 C   0  0  0  0  0  0  0  0  0  0  0  0
    9.5056   -4.3862    0.0000 O   0  0  0  0  0  0  0  0  0  0  0  0
    9.5056   -7.6863    0.0000 O   0  0  0  0  0  0  0  0  0  0  0  0
    8.0767   -6.8613    0.0000 C   0  0  0  0  0  0  0  0  0  0  0  0
    7.3230   -6.5257    0.0000 O   0  0  0  0  0  0  0  0  0  0  0  0
    6.7710   -7.1388    0.0000 C   0  0  0  0  0  0  0  0  0  0  0  0
    7.1835   -7.8533    0.0000 C   0  0  0  0  0  0  0  0  0  0  0  0
    7.9905   -7.6817    0.0000 C   0  0  0  0  0  0  0  0  0  0  0  0
    6.8479   -8.6069    0.0000 C   0  0  0  0  0  0  0  0  0  0  0  0
    7.3329   -9.2744    0.0000 O   0  0  0  0  0  0  0  0  0  0  0  0
    6.0275   -8.6932    0.0000 C   0  0  0  0  0  0  0  0  0  0  0  0
    5.6150   -9.4076    0.0000 C   0  0  0  0  0  0  0  0  0  0  0  0
    4.7900   -9.4076    0.0000 C   0  0  0  0  0  0  0  0  0  0  0  0
    3.9650   -9.4076    0.0000 O   0  0  0  0  0  0  0  0  0  0  0  0
    4.3775   -8.6932    0.0000 C   0  0  0  0  0  0  0  0  0  0  0  0
    4.2066   -9.9910    0.0000 C   0  0  0  0  0  0  0  0  0  0  0  0
    6.9973  -10.0280    0.0000 C   0  0  0  0  0  0  0  0  0  0  0  0
    7.4822  -10.6955    0.0000 C   0  0  0  0  0  0  0  0  0  0  0  0
    6.1768  -10.1143    0.0000 O   0  0  0  0  0  0  0  0  0  0  0  0
    7.1467  -11.4492    0.0000 C   0  0  0  0  0  0  0  0  0  0  0  0
    7.6316  -12.1166    0.0000 C   0  0  0  0  0  0  0  0  0  0  0  0
    7.4181  -12.9135    0.0000 C   0  0  0  0  0  0  0  0  0  0  0  0
  1  2  2  0  0  0  0
  2  3  1  0  0  0  0
  3  4  2  0  0  0  0
  4  5  1  0  0  0  0
  5  6  2  0  0  0  0
  6  1  1  0  0  0  0
  6  7  1  0  0  0  0
  3  8  1  0  0  0  0
  2  9  1  0  0  0  0
  9 10  1  0  0  0  0
 10 11  1  0  0  0  0
 11 12  2  0  0  0  0
 12 13  1  0  0  0  0
 13  9  2  0  0  0  0
 12 14  1  0  0  0  0
 14 15  1  0  0  0  0
 14 16  1  0  0  0  0
 16 17  1  0  0  0  0
 17 18  1  0  0  0  0
 18 19  1  0  0  0  0
 18 20  1  0  0  0  0
 18 21  1  0  0  0  0
 15 22  1  0  0  0  0
 22 23  1  0  0  0  0
 22 24  2  0  0  0  0
 23 25  1  0  0  0  0
 25 26  1  0  0  0  0
 26 27  1  0  0  0  0
M  END
>  <cdx:fragmentId>
5

$$$$
