967000.cdx
  Mrv1902 05222410202D          

 46 49  0  0  0  0            999 V2000
    1.6549   -6.8750    0.0000 C   0  0  0  0  0  0  0  0  0  0  0  0
    1.6549   -7.7000    0.0000 C   0  0  0  0  0  0  0  0  0  0  0  0
    2.3694   -8.1125    0.0000 C   0  0  0  0  0  0  0  0  0  0  0  0
    3.0839   -7.7000    0.0000 C   0  0  0  0  0  0  0  0  0  0  0  0
    3.0839   -6.8750    0.0000 C   0  0  0  0  0  0  0  0  0  0  0  0
    2.3694   -6.4625    0.0000 C   0  0  0  0  0  0  0  0  0  0  0  0
    3.7983   -8.1125    0.0000 C   0  0  0  0  0  0  0  0  0  0  0  0
    4.5128   -7.7000    0.0000 C   0  0  0  0  0  0  0  0  0  0  0  0
    4.5128   -6.8750    0.0000 C   0  0  0  0  0  0  0  0  0  0  0  0
    3.7983   -6.4625    0.0000 C   0  0  0  0  0  0  0  0  0  0  0  0
    5.2273   -8.1125    0.0000 C   0  0  2  0  0  0  0  0  0  0  0  0
    5.9418   -7.7000    0.0000 C   0  0  0  0  0  0  0  0  0  0  0  0
    5.9418   -6.8750    0.0000 C   0  0  0  0  0  0  0  0  0  0  0  0
    6.6562   -8.1125    0.0000 C   0  0  0  0  0  0  0  0  0  0  0  0
    7.3707   -7.7000    0.0000 C   0  0  0  0  0  0  0  0  0  0  0  0
    7.3707   -6.8750    0.0000 C   0  0  0  0  0  0  0  0  0  0  0  0
    6.6562   -6.4625    0.0000 C   0  0  0  0  0  0  0  0  0  0  0  0
    8.0852   -8.1125    0.0000 C   0  0  0  0  0  0  0  0  0  0  0  0
    8.7996   -7.7000    0.0000 C   0  0  0  0  0  0  0  0  0  0  0  0
    8.7996   -6.8750    0.0000 C   0  0  0  0  0  0  0  0  0  0  0  0
    8.0852   -6.4625    0.0000 C   0  0  0  0  0  0  0  0  0  0  0  0
    2.3694   -5.6375    0.0000 O   0  0  0  0  0  0  0  0  0  0  0  0
    2.3694   -8.9375    0.0000 O   0  0  0  0  0  0  0  0  0  0  0  0
    3.7983   -5.6375    0.0000 O   0  0  0  0  0  0  0  0  0  0  0  0
    3.7983   -8.9375    0.0000 O   0  0  0  0  0  0  0  0  0  0  0  0
    6.6562   -5.6375    0.0000 O   0  0  0  0  0  0  0  0  0  0  0  0
    6.6562   -8.9375    0.0000 O   0  0  0  0  0  0  0  0  0  0  0  0
    8.0852   -5.6375    0.0000 O   0  0  0  0  0  0  0  0  0  0  0  0
    8.0852   -8.9375    0.0000 O   0  0  0  0  0  0  0  0  0  0  0  0
    9.5141   -8.1125    0.0000 C   0  0  2  0  0  0  0  0  0  0  0  0
    9.5141   -8.9375    0.0000 O   0  0  0  0  0  0  0  0  0  0  0  0
   10.2286   -7.7000    0.0000 C   0  0  0  0  0  0  0  0  0  0  0  0
   10.9431   -8.1125    0.0000 C   0  0  0  0  0  0  0  0  0  0  0  0
   11.6575   -7.7000    0.0000 C   0  0  0  0  0  0  0  0  0  0  0  0
   12.3720   -8.1125    0.0000 C   0  0  0  0  0  0  0  0  0  0  0  0
   11.6575   -6.8750    0.0000 C   0  0  0  0  0  0  0  0  0  0  0  0
    5.2273   -8.9375    0.0000 C   0  0  0  0  0  0  0  0  0  0  0  0
    5.9418   -9.3500    0.0000 C   0  0  0  0  0  0  0  0  0  0  0  0
    5.9418  -10.1750    0.0000 C   0  0  0  0  0  0  0  0  0  0  0  0
    6.6562  -10.5875    0.0000 C   0  0  0  0  0  0  0  0  0  0  0  0
    5.2273  -10.5875    0.0000 C   0  0  0  0  0  0  0  0  0  0  0  0
   10.2286   -9.3500    0.0000 C   0  0  0  0  0  0  0  0  0  0  0  0
   10.2286  -10.1750    0.0000 C   0  0  0  0  0  0  0  0  0  0  0  0
   10.9431   -8.9375    0.0000 O   0  0  0  0  0  0  0  0  0  0  0  0
   10.9431  -10.5875    0.0000 C   0  0  0  0  0  0  0  0  0  0  0  0
    9.5141  -10.5875    0.0000 C   0  0  0  0  0  0  0  0  0  0  0  0
  1  2  1  0  0  0  0
  2  3  2  0  0  0  0
  3  4  1  0  0  0  0
  4  5  2  0  0  0  0
  5  6  1  0  0  0  0
  6  1  2  0  0  0  0
  4  7  1  0  0  0  0
  7  8  1  0  0  0  0
  8  9  2  0  0  0  0
  9 10  1  0  0  0  0
 10  5  1  0  0  0  0
  8 11  1  0  0  0  0
 11 12  1  6  0  0  0
 12 13  1  0  0  0  0
 12 14  2  0  0  0  0
 14 15  1  0  0  0  0
 15 16  2  0  0  0  0
 16 17  1  0  0  0  0
 17 13  2  0  0  0  0
 15 18  1  0  0  0  0
 18 19  1  0  0  0  0
 19 20  2  0  0  0  0
 20 21  1  0  0  0  0
 21 16  1  0  0  0  0
  6 22  1  0  0  0  0
  3 23  1  0  0  0  0
 10 24  2  0  0  0  0
  7 25  2  0  0  0  0
 17 26  1  0  0  0  0
 14 27  1  0  0  0  0
 21 28  2  0  0  0  0
 18 29  2  0  0  0  0
 19 30  1  0  0  0  0
 30 31  1  1  0  0  0
 30 32  1  0  0  0  0
 32 33  1  0  0  0  0
 33 34  2  0  0  0  0
 34 35  1  0  0  0  0
 34 36  1  0  0  0  0
 11 37  1  0  0  0  0
 37 38  1  0  0  0  0
 38 39  2  0  0  0  0
 39 40  1  0  0  0  0
 39 41  1  0  0  0  0
 31 42  1  0  0  0  0
 42 43  1  0  0  0  0
 42 44  2  0  0  0  0
 43 45  1  0  0  0  0
 43 46  1  0  0  0  0
M  END
>  <cdx:fragmentId>
5

$$$$
