967010.cdx
  Mrv1902 05222410232D          

 45 48  0  0  0  0            999 V2000
    1.9299   -7.1500    0.0000 C   0  0  0  0  0  0  0  0  0  0  0  0
    1.9299   -7.9750    0.0000 C   0  0  0  0  0  0  0  0  0  0  0  0
    2.6444   -8.3875    0.0000 C   0  0  0  0  0  0  0  0  0  0  0  0
    3.3589   -7.9750    0.0000 C   0  0  0  0  0  0  0  0  0  0  0  0
    3.3589   -7.1500    0.0000 C   0  0  0  0  0  0  0  0  0  0  0  0
    2.6444   -6.7375    0.0000 C   0  0  0  0  0  0  0  0  0  0  0  0
    4.0733   -8.3875    0.0000 C   0  0  0  0  0  0  0  0  0  0  0  0
    4.7878   -7.9750    0.0000 C   0  0  0  0  0  0  0  0  0  0  0  0
    4.7878   -7.1500    0.0000 C   0  0  0  0  0  0  0  0  0  0  0  0
    4.0733   -6.7375    0.0000 C   0  0  0  0  0  0  0  0  0  0  0  0
    5.5023   -8.3875    0.0000 C   0  0  2  0  0  0  0  0  0  0  0  0
    6.2168   -7.9750    0.0000 C   0  0  0  0  0  0  0  0  0  0  0  0
    6.2168   -7.1500    0.0000 C   0  0  0  0  0  0  0  0  0  0  0  0
    6.9312   -8.3875    0.0000 C   0  0  0  0  0  0  0  0  0  0  0  0
    7.6457   -7.9750    0.0000 C   0  0  0  0  0  0  0  0  0  0  0  0
    7.6457   -7.1500    0.0000 C   0  0  0  0  0  0  0  0  0  0  0  0
    6.9312   -6.7375    0.0000 C   0  0  0  0  0  0  0  0  0  0  0  0
    8.3602   -8.3875    0.0000 C   0  0  0  0  0  0  0  0  0  0  0  0
    9.0746   -7.9750    0.0000 C   0  0  0  0  0  0  0  0  0  0  0  0
    9.0746   -7.1500    0.0000 C   0  0  0  0  0  0  0  0  0  0  0  0
    8.3602   -6.7375    0.0000 C   0  0  0  0  0  0  0  0  0  0  0  0
    2.6444   -5.9125    0.0000 O   0  0  0  0  0  0  0  0  0  0  0  0
    2.6444   -9.2125    0.0000 O   0  0  0  0  0  0  0  0  0  0  0  0
    4.0733   -5.9125    0.0000 O   0  0  0  0  0  0  0  0  0  0  0  0
    4.0733   -9.2125    0.0000 O   0  0  0  0  0  0  0  0  0  0  0  0
    6.9312   -5.9125    0.0000 O   0  0  0  0  0  0  0  0  0  0  0  0
    6.9312   -9.2125    0.0000 O   0  0  0  0  0  0  0  0  0  0  0  0
    8.3602   -5.9125    0.0000 O   0  0  0  0  0  0  0  0  0  0  0  0
    8.3602   -9.2125    0.0000 O   0  0  0  0  0  0  0  0  0  0  0  0
    9.7891   -8.3875    0.0000 C   0  0  2  0  0  0  0  0  0  0  0  0
    9.7891   -9.2125    0.0000 O   0  0  0  0  0  0  0  0  0  0  0  0
   10.5036   -7.9750    0.0000 C   0  0  0  0  0  0  0  0  0  0  0  0
   11.2181   -8.3875    0.0000 C   0  0  0  0  0  0  0  0  0  0  0  0
   11.9325   -7.9750    0.0000 C   0  0  0  0  0  0  0  0  0  0  0  0
   12.6470   -8.3875    0.0000 C   0  0  0  0  0  0  0  0  0  0  0  0
   11.9325   -7.1500    0.0000 C   0  0  0  0  0  0  0  0  0  0  0  0
    5.5023   -9.2125    0.0000 C   0  0  0  0  0  0  0  0  0  0  0  0
    6.2168   -9.6250    0.0000 C   0  0  0  0  0  0  0  0  0  0  0  0
    6.2168  -10.4500    0.0000 C   0  0  0  0  0  0  0  0  0  0  0  0
    6.9312  -10.8625    0.0000 C   0  0  0  0  0  0  0  0  0  0  0  0
    5.5023  -10.8625    0.0000 C   0  0  0  0  0  0  0  0  0  0  0  0
   10.5072   -9.6186    0.0000 C   0  0  0  0  0  0  0  0  0  0  0  0
   11.2180   -9.1997    0.0000 C   0  0  0  0  0  0  0  0  0  0  0  0
   10.5146  -10.4436    0.0000 O   0  0  0  0  0  0  0  0  0  0  0  0
   11.9361   -9.6058    0.0000 C   0  0  0  0  0  0  0  0  0  0  0  0
  1  2  1  0  0  0  0
  2  3  2  0  0  0  0
  3  4  1  0  0  0  0
  4  5  2  0  0  0  0
  5  6  1  0  0  0  0
  6  1  2  0  0  0  0
  4  7  1  0  0  0  0
  7  8  1  0  0  0  0
  8  9  2  0  0  0  0
  9 10  1  0  0  0  0
 10  5  1  0  0  0  0
  8 11  1  0  0  0  0
 11 12  1  6  0  0  0
 12 13  1  0  0  0  0
 12 14  2  0  0  0  0
 14 15  1  0  0  0  0
 15 16  2  0  0  0  0
 16 17  1  0  0  0  0
 17 13  2  0  0  0  0
 15 18  1  0  0  0  0
 18 19  1  0  0  0  0
 19 20  2  0  0  0  0
 20 21  1  0  0  0  0
 21 16  1  0  0  0  0
  6 22  1  0  0  0  0
  3 23  1  0  0  0  0
 10 24  2  0  0  0  0
  7 25  2  0  0  0  0
 17 26  1  0  0  0  0
 14 27  1  0  0  0  0
 21 28  2  0  0  0  0
 18 29  2  0  0  0  0
 19 30  1  0  0  0  0
 30 31  1  1  0  0  0
 30 32  1  0  0  0  0
 32 33  1  0  0  0  0
 33 34  2  0  0  0  0
 34 35  1  0  0  0  0
 34 36  1  0  0  0  0
 11 37  1  0  0  0  0
 37 38  1  0  0  0  0
 38 39  2  0  0  0  0
 39 40  1  0  0  0  0
 39 41  1  0  0  0  0
 31 42  1  0  0  0  0
 42 43  1  0  0  0  0
 42 44  2  0  0  0  0
 43 45  1  0  0  0  0
M  END
>  <cdx:fragmentId>
180

$$$$
