9671.cdx
  Mrv1902 05222410252D          

 30 33  0  0  0  0            999 V2000
    9.6963   -9.3692    0.0000 O   0  0  0  0  0  0  0  0  0  0  0  0
   11.1252   -6.8942    0.0000 O   0  0  0  0  0  0  0  0  0  0  0  0
    6.8384   -6.0692    0.0000 O   0  0  0  0  0  0  0  0  0  0  0  0
    6.8384  -11.0192    0.0000 O   0  0  0  0  0  0  0  0  0  0  0  0
    5.4095  -11.8442    0.0000 O   0  0  0  0  0  0  0  0  0  0  0  0
    3.9805  -11.0192    0.0000 O   0  0  0  0  0  0  0  0  0  0  0  0
    3.2661   -9.7817    0.0000 O   0  0  0  0  0  0  0  0  0  0  0  0
    3.9805   -9.3692    0.0000 C   0  0  0  0  0  0  0  0  0  0  0  0
    4.6950   -9.7817    0.0000 C   0  0  2  0  0  0  0  0  0  0  0  0
    4.6950  -10.6067    0.0000 C   0  0  2  0  0  0  0  0  0  0  0  0
    5.4095  -11.0192    0.0000 C   0  0  1  0  0  0  0  0  0  0  0  0
    6.1239  -10.6067    0.0000 C   0  0  2  0  0  0  0  0  0  0  0  0
    6.1239   -9.7817    0.0000 C   0  0  1  0  0  0  0  0  0  0  0  0
    5.4095   -9.3692    0.0000 O   0  0  0  0  0  0  0  0  0  0  0  0
    6.8384   -9.3692    0.0000 O   0  0  0  0  0  0  0  0  0  0  0  0
    8.2674   -9.3692    0.0000 O   0  0  0  0  0  0  0  0  0  0  0  0
    7.5529   -8.1317    0.0000 C   0  0  0  0  0  0  0  0  0  0  0  0
    6.8384   -8.5442    0.0000 C   0  0  0  0  0  0  0  0  0  0  0  0
    6.1239   -8.1317    0.0000 C   0  0  0  0  0  0  0  0  0  0  0  0
    6.1239   -7.3067    0.0000 C   0  0  0  0  0  0  0  0  0  0  0  0
    6.8384   -6.8942    0.0000 C   0  0  0  0  0  0  0  0  0  0  0  0
    7.5529   -7.3067    0.0000 C   0  0  0  0  0  0  0  0  0  0  0  0
    8.2674   -6.8942    0.0000 O   0  0  0  0  0  0  0  0  0  0  0  0
    8.9818   -7.3067    0.0000 C   0  0  0  0  0  0  0  0  0  0  0  0
    9.6963   -6.8942    0.0000 C   0  0  0  0  0  0  0  0  0  0  0  0
   10.4108   -7.3067    0.0000 C   0  0  0  0  0  0  0  0  0  0  0  0
   10.4108   -8.1317    0.0000 C   0  0  0  0  0  0  0  0  0  0  0  0
    9.6963   -8.5442    0.0000 C   0  0  0  0  0  0  0  0  0  0  0  0
    8.9818   -8.1317    0.0000 C   0  0  0  0  0  0  0  0  0  0  0  0
    8.2674   -8.5442    0.0000 C   0  0  0  0  0  0  0  0  0  0  0  0
 28  1  1  0  0  0  0
 26  2  1  0  0  0  0
 21  3  1  0  0  0  0
 18 15  1  0  0  0  0
 13 15  1  1  0  0  0
 12  4  1  6  0  0  0
 11  5  1  1  0  0  0
 10  6  1  6  0  0  0
  9  8  1  1  0  0  0
  8  7  1  0  0  0  0
 14  9  1  0  0  0  0
 10  9  1  0  0  0  0
 11 10  1  0  0  0  0
 12 11  1  0  0  0  0
 13 12  1  0  0  0  0
 14 13  1  0  0  0  0
 30 16  2  0  0  0  0
 30 17  1  0  0  0  0
 22 17  2  0  0  0  0
 18 17  1  0  0  0  0
 19 18  2  0  0  0  0
 20 19  1  0  0  0  0
 21 20  2  0  0  0  0
 22 21  1  0  0  0  0
 23 22  1  0  0  0  0
 24 23  1  0  0  0  0
 29 24  2  0  0  0  0
 25 24  1  0  0  0  0
 26 25  2  0  0  0  0
 27 26  1  0  0  0  0
 28 27  2  0  0  0  0
 29 28  1  0  0  0  0
 30 29  1  0  0  0  0
M  END
>  <cdx:fragmentId>
5

$$$$
