96712-6.cdx
  Mrv1902 05222410262D          

 22 23  0  0  0  0            999 V2000
    6.1099   -7.3975    0.0000 C   0  0  0  0  0  0  0  0  0  0  0  0
    6.1099   -8.2225    0.0000 C   0  0  0  0  0  0  0  0  0  0  0  0
    6.8244   -8.6350    0.0000 C   0  0  0  0  0  0  0  0  0  0  0  0
    7.5389   -8.2225    0.0000 C   0  0  0  0  0  0  0  0  0  0  0  0
    7.5389   -7.3975    0.0000 C   0  0  0  0  0  0  0  0  0  0  0  0
    6.8244   -6.9850    0.0000 C   0  0  0  0  0  0  0  0  0  0  0  0
    6.8244   -6.1600    0.0000 C   0  0  0  0  0  0  0  0  0  0  0  0
    6.1099   -5.7475    0.0000 C   0  0  0  0  0  0  0  0  0  0  0  0
    6.1099   -4.9225    0.0000 C   0  0  0  0  0  0  0  0  0  0  0  0
    5.3955   -8.6350    0.0000 O   0  0  0  0  0  0  0  0  0  0  0  0
    6.8244   -9.4875    0.0000 C   0  0  0  0  0  0  0  0  0  0  0  0
    6.1099   -9.9000    0.0000 C   0  0  0  0  0  0  0  0  0  0  0  0
    7.5389   -9.9000    0.0000 C   0  0  0  0  0  0  0  0  0  0  0  0
    6.1099  -10.7250    0.0000 C   0  0  0  0  0  0  0  0  0  0  0  0
    5.3955  -11.1375    0.0000 C   0  0  0  0  0  0  0  0  0  0  0  0
    5.3955  -11.9625    0.0000 C   0  0  0  0  0  0  0  0  0  0  0  0
    6.1099  -12.3750    0.0000 C   0  0  0  0  0  0  0  0  0  0  0  0
    6.8244  -11.9625    0.0000 C   0  0  0  0  0  0  0  0  0  0  0  0
    6.8244  -11.1375    0.0000 C   0  0  0  0  0  0  0  0  0  0  0  0
    4.6810  -12.3750    0.0000 O   0  0  0  0  0  0  0  0  0  0  0  0
    3.9665  -11.9625    0.0000 C   0  0  0  0  0  0  0  0  0  0  0  0
    6.1099  -13.2000    0.0000 O   0  0  0  0  0  0  0  0  0  0  0  0
  1  2  2  0  0  0  0
  2  3  1  0  0  0  0
  3  4  2  0  0  0  0
  4  5  1  0  0  0  0
  5  6  2  0  0  0  0
  6  1  1  0  0  0  0
  6  7  1  0  0  0  0
  7  8  1  0  0  0  0
  8  9  1  0  0  0  0
  2 10  1  0  0  0  0
 11 12  1  0  0  0  0
 11 13  1  0  0  0  0
 12 14  1  0  0  0  0
 14 15  2  0  0  0  0
 15 16  1  0  0  0  0
 16 17  2  0  0  0  0
 17 18  1  0  0  0  0
 18 19  2  0  0  0  0
 19 14  1  0  0  0  0
 16 20  1  0  0  0  0
 20 21  1  0  0  0  0
 17 22  1  0  0  0  0
  3 11  1  0  0  0  0
M  END
>  <cdx:fragmentId>
5

$$$$
