96711.cdx
  Mrv1902 05222410262D          

 25 27  0  0  0  0            999 V2000
    5.8450   -9.1527    0.0000 O   0  0  0  0  0  0  0  0  0  0  0  0
    5.8477   -8.3277    0.0000 C   0  0  0  0  0  0  0  0  0  0  0  0
   10.1481   -4.2168    0.0000 C   0  0  0  0  0  0  0  0  0  0  0  0
    9.4322   -4.6270    0.0000 C   0  0  0  0  0  0  0  0  0  0  0  0
    9.4295   -5.4519    0.0000 C   0  0  0  0  0  0  0  0  0  0  0  0
    7.2848   -5.8574    0.0000 C   0  0  0  0  0  0  0  0  0  0  0  0
    8.0006   -5.4473    0.0000 C   0  0  0  0  0  0  0  0  0  0  0  0
    8.7137   -5.8621    0.0000 C   0  0  0  0  0  0  0  0  0  0  0  0
    8.7110   -6.6871    0.0000 C   0  0  0  0  0  0  0  0  0  0  0  0
    7.2821   -6.6824    0.0000 C   0  0  0  0  0  0  0  0  0  0  0  0
    7.9952   -7.0972    0.0000 C   0  0  0  0  0  0  0  0  0  0  0  0
    7.9925   -7.9222    0.0000 O   0  0  0  0  0  0  0  0  0  0  0  0
    7.2767   -8.3324    0.0000 C   0  0  2  0  0  0  0  0  0  0  0  0
    6.5635   -7.9176    0.0000 C   0  0  1  0  0  0  0  0  0  0  0  0
    6.5662   -7.0926    0.0000 O   0  0  0  0  0  0  0  0  0  0  0  0
    7.2658  -11.6324    0.0000 O   0  0  0  0  0  0  0  0  0  0  0  0
    7.9844  -10.3972    0.0000 C   0  0  0  0  0  0  0  0  0  0  0  0
    7.9871   -9.5722    0.0000 C   0  0  0  0  0  0  0  0  0  0  0  0
    7.2739   -9.1574    0.0000 C   0  0  0  0  0  0  0  0  0  0  0  0
    6.5581   -9.5675    0.0000 C   0  0  0  0  0  0  0  0  0  0  0  0
    6.5554  -10.3925    0.0000 C   0  0  0  0  0  0  0  0  0  0  0  0
    7.2685  -10.8074    0.0000 C   0  0  0  0  0  0  0  0  0  0  0  0
   10.1508   -3.3918    0.0000 O   0  0  0  0  0  0  0  0  0  0  0  0
    8.6975  -10.8121    0.0000 O   0  0  0  0  0  0  0  0  0  0  0  0
    8.6975  -11.6371    0.0000 C   0  0  0  0  0  0  0  0  0  0  0  0
 13 19  1  1  0  0  0
 14  2  1  6  0  0  0
  2  1  1  0  0  0  0
  8  5  1  0  0  0  0
  4  3  1  0  0  0  0
  5  4  1  0  0  0  0
  9 11  2  0  0  0  0
  6 10  2  0  0  0  0
  7  6  1  0  0  0  0
  8  7  2  0  0  0  0
  9  8  1  0  0  0  0
 15 10  1  0  0  0  0
 11 10  1  0  0  0  0
 12 11  1  0  0  0  0
 13 12  1  0  0  0  0
 14 13  1  0  0  0  0
 15 14  1  0  0  0  0
 22 16  1  0  0  0  0
 22 17  2  0  0  0  0
 18 17  1  0  0  0  0
 19 18  2  0  0  0  0
 20 19  1  0  0  0  0
 21 20  2  0  0  0  0
 22 21  1  0  0  0  0
  3 23  1  0  0  0  0
 17 24  1  0  0  0  0
 24 25  1  0  0  0  0
M  END
>  <cdx:fragmentId>
23

$$$$
