96710.cdx
  Mrv1902 05222410272D          

 22 26  0  0  0  0            999 V2000
    6.5904   -7.4905    0.0000 C   0  0  0  0  0  0  0  0  0  0  0  0
    5.8800   -7.0710    0.0000 C   0  0  0  0  0  0  0  0  0  0  0  0
    5.0929   -7.3182    0.0000 O   0  0  0  0  0  0  0  0  0  0  0  0
    4.6145   -6.6461    0.0000 C   0  0  0  0  0  0  0  0  0  0  0  0
    5.1060   -5.9834    0.0000 O   0  0  0  0  0  0  0  0  0  0  0  0
    5.8881   -6.2460    0.0000 C   0  0  0  0  0  0  0  0  0  0  0  0
    6.6066   -5.8406    0.0000 C   0  0  0  0  0  0  0  0  0  0  0  0
    7.3169   -6.2601    0.0000 C   0  0  0  0  0  0  0  0  0  0  0  0
    8.1338   -6.1443    0.0000 C   0  0  0  0  0  0  0  0  0  0  0  0
    8.5393   -6.8628    0.0000 N   0  0  0  0  0  0  0  0  0  0  0  0
    8.0192   -7.5045    0.0000 C   0  0  0  0  0  0  0  0  0  0  0  0
    8.0112   -8.3295    0.0000 C   0  0  0  0  0  0  0  0  0  0  0  0
    7.2927   -8.7349    0.0000 C   0  0  0  0  0  0  0  0  0  0  0  0
    7.2846   -9.5599    0.0000 C   0  0  0  0  0  0  0  0  0  0  0  0
    6.5661   -9.9654    0.0000 C   0  0  0  0  0  0  0  0  0  0  0  0
    5.8557   -9.5459    0.0000 C   0  0  0  0  0  0  0  0  0  0  0  0
    5.8638   -8.7209    0.0000 C   0  0  0  0  0  0  0  0  0  0  0  0
    6.5823   -8.3155    0.0000 C   0  0  0  0  0  0  0  0  0  0  0  0
    7.3089   -7.0850    0.0000 C   0  0  0  0  0  0  0  0  0  0  0  0
    8.5533   -5.4340    0.0000 O   0  0  0  0  0  0  0  0  0  0  0  0
    7.9950   -9.9794    0.0000 O   0  0  0  0  0  0  0  0  0  0  0  0
    7.9869  -10.8044    0.0000 C   0  0  0  0  0  0  0  0  0  0  0  0
  1  2  1  0  0  0  0
  2  3  1  0  0  0  0
  3  4  1  0  0  0  0
  4  5  1  0  0  0  0
  5  6  1  0  0  0  0
  6  7  1  0  0  0  0
  7  8  2  0  0  0  0
  8  9  1  0  0  0  0
  9 10  1  0  0  0  0
 10 11  1  0  0  0  0
 11 12  1  0  0  0  0
 12 13  2  0  0  0  0
 13 14  1  0  0  0  0
 14 15  2  0  0  0  0
 15 16  1  0  0  0  0
 16 17  2  0  0  0  0
 17 18  1  0  0  0  0
  1 18  2  0  0  0  0
  1 19  1  0  0  0  0
 19 11  2  0  0  0  0
 13 18  1  0  0  0  0
  2  6  2  0  0  0  0
  8 19  1  0  0  0  0
  9 20  2  0  0  0  0
 21 22  1  0  0  0  0
 14 21  1  0  0  0  0
M  END
>  <cdx:fragmentId>
5

$$$$
