96736.cdx
  Mrv1902 05222410202D          

 30 32  0  0  0  0            999 V2000
    5.1887   -7.3975    0.0000 C   0  0  0  0  0  0  0  0  0  0  0  0
    5.1887   -8.2225    0.0000 C   0  0  0  0  0  0  0  0  0  0  0  0
    5.9031   -8.6350    0.0000 C   0  0  0  0  0  0  0  0  0  0  0  0
    6.6176   -8.2225    0.0000 C   0  0  0  0  0  0  0  0  0  0  0  0
    6.6176   -7.3975    0.0000 C   0  0  0  0  0  0  0  0  0  0  0  0
    5.9031   -6.9850    0.0000 C   0  0  0  0  0  0  0  0  0  0  0  0
    7.3321   -8.6350    0.0000 C   0  0  2  0  0  0  0  0  0  0  0  0
    8.0466   -8.2225    0.0000 C   0  0  1  0  0  0  0  0  0  0  0  0
    8.0466   -7.3975    0.0000 C   0  0  2  0  0  0  0  0  0  0  0  0
    7.3321   -6.9850    0.0000 C   0  0  1  0  0  0  0  0  0  0  0  0
    7.3321   -9.4600    0.0000 C   0  0  0  0  0  0  0  0  0  0  0  0
    8.0466   -9.8725    0.0000 C   0  0  0  0  0  0  0  0  0  0  0  0
    8.7610   -8.6350    0.0000 C   0  0  0  0  0  0  0  0  0  0  0  0
    6.6176   -9.8725    0.0000 C   0  0  0  0  0  0  0  0  0  0  0  0
    6.6176  -10.6975    0.0000 C   0  0  0  0  0  0  0  0  0  0  0  0
    7.3321  -11.1100    0.0000 C   0  0  0  0  0  0  0  0  0  0  0  0
    8.0466  -10.6975    0.0000 C   0  0  0  0  0  0  0  0  0  0  0  0
    5.9031   -9.4600    0.0000 O   0  0  0  0  0  0  0  0  0  0  0  0
    5.1887   -9.8725    0.0000 C   0  0  0  0  0  0  0  0  0  0  0  0
    4.4742   -8.6350    0.0000 O   0  0  0  0  0  0  0  0  0  0  0  0
    4.4742   -6.9850    0.0000 O   0  0  0  0  0  0  0  0  0  0  0  0
    4.4742   -6.1600    0.0000 C   0  0  0  0  0  0  0  0  0  0  0  0
    7.3321   -6.1600    0.0000 O   0  0  0  0  0  0  0  0  0  0  0  0
    8.0466   -5.7475    0.0000 C   0  0  0  0  0  0  0  0  0  0  0  0
    5.9031  -11.1100    0.0000 O   0  0  0  0  0  0  0  0  0  0  0  0
    5.9031  -11.9350    0.0000 C   0  0  0  0  0  0  0  0  0  0  0  0
    7.3321  -11.9350    0.0000 O   0  0  0  0  0  0  0  0  0  0  0  0
    8.7610  -11.1100    0.0000 O   0  0  0  0  0  0  0  0  0  0  0  0
    9.4755  -10.6975    0.0000 C   0  0  0  0  0  0  0  0  0  0  0  0
    8.7610   -6.9850    0.0000 C   0  0  0  0  0  0  0  0  0  0  0  0
  1  2  2  0  0  0  0
  2  3  1  0  0  0  0
  3  4  2  0  0  0  0
  4  5  1  0  0  0  0
  5  6  2  0  0  0  0
  6  1  1  0  0  0  0
  4  7  1  0  0  0  0
  7  8  1  0  0  0  0
  8  9  1  0  0  0  0
  9 10  1  0  0  0  0
 10  5  1  0  0  0  0
  7 11  1  6  0  0  0
 11 12  2  0  0  0  0
  8 13  1  1  0  0  0
 11 14  1  0  0  0  0
 14 15  2  0  0  0  0
 15 16  1  0  0  0  0
 16 17  2  0  0  0  0
 17 12  1  0  0  0  0
  3 18  1  0  0  0  0
 18 19  1  0  0  0  0
  2 20  1  0  0  0  0
  1 21  1  0  0  0  0
 21 22  1  0  0  0  0
 10 23  1  6  0  0  0
 23 24  1  0  0  0  0
 15 25  1  0  0  0  0
 25 26  1  0  0  0  0
 16 27  1  0  0  0  0
 17 28  1  0  0  0  0
 28 29  1  0  0  0  0
  9 30  1  6  0  0  0
M  END
>  <cdx:fragmentId>
5

$$$$
