96737.cdx
  Mrv1902 05222410202D          

 48 52  0  0  0  0            999 V2000
    9.7702   -7.0036    0.0000 C   0  0  0  0  0  0  0  0  0  0  0  0
   10.1867   -7.7157    0.0000 C   0  0  0  0  0  0  0  0  0  0  0  0
   11.0117   -7.7111    0.0000 C   0  0  0  0  0  0  0  0  0  0  0  0
   11.4202   -6.9943    0.0000 C   0  0  0  0  0  0  0  0  0  0  0  0
   11.0037   -6.2822    0.0000 C   0  0  0  0  0  0  0  0  0  0  0  0
   10.1787   -6.2868    0.0000 C   0  0  0  0  0  0  0  0  0  0  0  0
    8.9642   -7.1796    0.0000 C   0  0  2  0  0  0  0  0  0  0  0  0
    8.8826   -8.0006    0.0000 C   0  0  1  0  0  0  0  0  0  0  0  0
    9.6382   -8.3319    0.0000 O   0  0  0  0  0  0  0  0  0  0  0  0
    8.1705   -8.4171    0.0000 C   0  0  0  0  0  0  0  0  0  0  0  0
    7.4537   -8.0086    0.0000 C   0  0  0  0  0  0  0  0  0  0  0  0
    6.7416   -8.4252    0.0000 C   0  0  0  0  0  0  0  0  0  0  0  0
    6.7462   -9.2501    0.0000 C   0  0  0  0  0  0  0  0  0  0  0  0
    7.4630   -9.6586    0.0000 C   0  0  0  0  0  0  0  0  0  0  0  0
    8.1751   -9.2421    0.0000 C   0  0  0  0  0  0  0  0  0  0  0  0
   11.4122   -5.5654    0.0000 C   0  0  0  0  0  0  0  0  0  0  0  0
   12.2371   -5.5607    0.0000 C   0  0  0  0  0  0  0  0  0  0  0  0
   12.6456   -4.8440    0.0000 C   0  0  0  0  0  0  0  0  0  0  0  0
   13.4706   -4.8393    0.0000 O   0  0  0  0  0  0  0  0  0  0  0  0
   11.4282   -8.4232    0.0000 O   0  0  0  0  0  0  0  0  0  0  0  0
   12.2532   -8.4186    0.0000 C   0  0  0  0  0  0  0  0  0  0  0  0
    8.3480   -6.6311    0.0000 C   0  0  0  0  0  0  0  0  0  0  0  0
    8.5150   -5.8231    0.0000 O   0  0  0  0  0  0  0  0  0  0  0  0
    7.4676  -10.4836    0.0000 O   0  0  0  0  0  0  0  0  0  0  0  0
    8.1844  -10.8921    0.0000 C   0  0  0  0  0  0  0  0  0  0  0  0
    6.0341   -9.6667    0.0000 O   0  0  0  0  0  0  0  0  0  0  0  0
    4.6066   -8.0215    0.0000 C   0  0  2  0  0  0  0  0  0  0  0  0
    3.8946   -8.4382    0.0000 C   0  0  2  0  0  0  0  0  0  0  0  0
    3.8995   -9.2632    0.0000 C   0  0  1  0  0  0  0  0  0  0  0  0
    4.6164   -9.6714    0.0000 C   0  0  2  0  0  0  0  0  0  0  0  0
    5.3284   -9.2547    0.0000 C   0  0  1  0  0  0  0  0  0  0  0  0
    5.3235   -8.4297    0.0000 O   0  0  0  0  0  0  0  0  0  0  0  0
    4.6018   -7.1965    0.0000 C   0  0  0  0  0  0  0  0  0  0  0  0
    3.1875   -9.6799    0.0000 O   0  0  0  0  0  0  0  0  0  0  0  0
    3.1777   -8.0299    0.0000 O   0  0  0  0  0  0  0  0  0  0  0  0
    4.6213  -10.4964    0.0000 O   0  0  0  0  0  0  0  0  0  0  0  0
    3.8849   -6.7882    0.0000 O   0  0  0  0  0  0  0  0  0  0  0  0
    2.4855  -10.9283    0.0000 C   0  0  2  0  0  0  0  0  0  0  0  0
    2.4918  -11.7532    0.0000 C   0  0  2  0  0  0  0  0  0  0  0  0
    3.2095  -12.1602    0.0000 C   0  0  1  0  0  0  0  0  0  0  0  0
    3.9207  -11.7422    0.0000 C   0  0  2  0  0  0  0  0  0  0  0  0
    3.9144  -10.9172    0.0000 C   0  0  1  0  0  0  0  0  0  0  0  0
    3.1967  -10.5103    0.0000 O   0  0  0  0  0  0  0  0  0  0  0  0
    1.7678  -10.5213    0.0000 C   0  0  0  0  0  0  0  0  0  0  0  0
    3.2158  -12.9852    0.0000 O   0  0  0  0  0  0  0  0  0  0  0  0
    1.7806  -12.1713    0.0000 O   0  0  0  0  0  0  0  0  0  0  0  0
    4.6384  -12.1492    0.0000 O   0  0  0  0  0  0  0  0  0  0  0  0
    1.0566  -10.9393    0.0000 O   0  0  0  0  0  0  0  0  0  0  0  0
  1  2  2  0  0  0  0
  2  3  1  0  0  0  0
  3  4  2  0  0  0  0
  4  5  1  0  0  0  0
  5  6  2  0  0  0  0
  6  1  1  0  0  0  0
  1  7  1  0  0  0  0
  7  8  1  0  0  0  0
  8  9  1  0  0  0  0
  9  2  1  0  0  0  0
  8 10  1  1  0  0  0
 10 11  2  0  0  0  0
 11 12  1  0  0  0  0
 12 13  2  0  0  0  0
 13 14  1  0  0  0  0
 14 15  2  0  0  0  0
 15 10  1  0  0  0  0
  5 16  1  0  0  0  0
 16 17  1  0  0  0  0
 17 18  1  0  0  0  0
 18 19  1  0  0  0  0
  3 20  1  0  0  0  0
 20 21  1  0  0  0  0
  7 22  1  6  0  0  0
 22 23  1  0  0  0  0
 14 24  1  0  0  0  0
 24 25  1  0  0  0  0
 13 26  1  0  0  0  0
 27 28  1  0  0  0  0
 28 29  1  0  0  0  0
 29 30  1  0  0  0  0
 30 31  1  0  0  0  0
 31 32  1  0  0  0  0
 32 27  1  0  0  0  0
 27 33  1  1  0  0  0
 29 34  1  1  0  0  0
 28 35  1  6  0  0  0
 30 36  1  6  0  0  0
 33 37  1  0  0  0  0
 38 39  1  0  0  0  0
 39 40  1  0  0  0  0
 40 41  1  0  0  0  0
 41 42  1  0  0  0  0
 42 43  1  0  0  0  0
 43 38  1  0  0  0  0
 38 44  1  1  0  0  0
 40 45  1  1  0  0  0
 39 46  1  6  0  0  0
 41 47  1  6  0  0  0
 44 48  1  0  0  0  0
 42 36  1  1  0  0  0
 31 26  1  1  0  0  0
M  END
>  <cdx:fragmentId>
41

$$$$
