96748.cdx
  Mrv1902 05222410252D          

 15 16  0  0  0  0            999 V2000
    7.5566   -7.1569    0.0000 C   0  0  0  0  0  0  0  0  0  0  0  0
    8.2711   -6.7444    0.0000 C   0  0  0  0  0  0  0  0  0  0  0  0
    8.2711   -5.9194    0.0000 C   0  0  0  0  0  0  0  0  0  0  0  0
    7.5566   -5.5069    0.0000 C   0  0  0  0  0  0  0  0  0  0  0  0
    6.8421   -5.9194    0.0000 C   0  0  0  0  0  0  0  0  0  0  0  0
    6.1276   -5.5069    0.0000 C   0  0  0  0  0  0  0  0  0  0  0  0
    5.4132   -5.9194    0.0000 C   0  0  0  0  0  0  0  0  0  0  0  0
    5.4132   -6.7444    0.0000 C   0  0  0  0  0  0  0  0  0  0  0  0
    6.1276   -7.1569    0.0000 C   0  0  0  0  0  0  0  0  0  0  0  0
    6.8421   -6.7444    0.0000 C   0  0  0  0  0  0  0  0  0  0  0  0
    8.9855   -4.6819    0.0000 C   0  0  0  0  0  0  0  0  0  0  0  0
    8.9855   -5.5069    0.0000 C   0  0  0  0  0  0  0  0  0  0  0  0
    9.7000   -5.9194    0.0000 C   0  0  0  0  0  0  0  0  0  0  0  0
    6.8421   -7.5694    0.0000 C   0  0  0  0  0  0  0  0  0  0  0  0
    6.1276   -4.6819    0.0000 C   0  0  0  0  0  0  0  0  0  0  0  0
  1  2  1  0  0  0  0
  2  3  1  0  0  0  0
  3  4  1  0  0  0  0
  4  5  1  0  0  0  0
  5  6  1  0  0  0  0
  6  7  2  0  0  0  0
  7  8  1  0  0  0  0
  8  9  1  0  0  0  0
  9 10  1  0  0  0  0
  1 10  1  0  0  0  0
  5 10  1  0  0  0  0
 11 12  1  0  0  0  0
 12 13  1  0  0  0  0
  3 12  2  0  0  0  0
 10 14  1  0  0  0  0
  6 15  1  0  0  0  0
M  END
>  <cdx:fragmentId>
5

$$$$
