9675.cdx
  Mrv1902 05222410232D          

 20 22  0  0  0  0            999 V2000
    5.2284   -9.2755    0.0000 C   0  0  0  0  0  0  0  0  0  0  0  0
    5.2284  -10.1005    0.0000 C   0  0  0  0  0  0  0  0  0  0  0  0
    5.9428  -10.5130    0.0000 C   0  0  0  0  0  0  0  0  0  0  0  0
    6.6573  -10.1005    0.0000 C   0  0  0  0  0  0  0  0  0  0  0  0
    7.3718  -10.5130    0.0000 C   0  0  0  0  0  0  0  0  0  0  0  0
    8.0863  -10.1005    0.0000 C   0  0  0  0  0  0  0  0  0  0  0  0
    8.0863   -9.2755    0.0000 C   0  0  0  0  0  0  0  0  0  0  0  0
    7.3718   -8.8630    0.0000 C   0  0  0  0  0  0  0  0  0  0  0  0
    6.6573   -9.2755    0.0000 C   0  0  0  0  0  0  0  0  0  0  0  0
    5.9428   -8.8630    0.0000 O   0  0  0  0  0  0  0  0  0  0  0  0
    8.8709   -9.0206    0.0000 O   0  0  0  0  0  0  0  0  0  0  0  0
    8.8709  -10.3555    0.0000 C   0  0  0  0  0  0  0  0  0  0  0  0
    9.3558   -9.6880    0.0000 C   0  0  0  0  0  0  0  0  0  0  0  0
    4.5139   -8.8630    0.0000 O   0  0  0  0  0  0  0  0  0  0  0  0
    6.5468   -8.0380    0.0000 C   0  0  0  0  0  0  0  0  0  0  0  0
    7.3718   -8.0380    0.0000 C   0  0  0  0  0  0  0  0  0  0  0  0
    8.0863   -7.6255    0.0000 C   0  0  0  0  0  0  0  0  0  0  0  0
    8.0863   -6.8005    0.0000 C   0  0  0  0  0  0  0  0  0  0  0  0
    6.9593   -7.3236    0.0000 C   0  0  0  0  0  0  0  0  0  0  0  0
    7.3718  -11.3380    0.0000 O   0  0  0  0  0  0  0  0  0  0  0  0
  1  2  1  0  0  0  0
  2  3  2  0  0  0  0
  3  4  1  0  0  0  0
  4  5  2  0  0  0  0
  5  6  1  0  0  0  0
  6  7  2  0  0  0  0
  7  8  1  0  0  0  0
  8  9  2  0  0  0  0
  4  9  1  0  0  0  0
  9 10  1  0  0  0  0
  1 10  1  0  0  0  0
 12 13  2  0  0  0  0
 11 13  1  0  0  0  0
 12  6  1  0  0  0  0
 11  7  1  0  0  0  0
  1 14  2  0  0  0  0
 15 16  1  0  0  0  0
 16 17  1  0  0  0  0
 17 18  2  0  0  0  0
 16 19  1  0  0  0  0
  8 16  1  0  0  0  0
  5 20  1  0  0  0  0
M  END
>  <cdx:fragmentId>
4569

$$$$
