967683.cdx
  Mrv1902 05222410282D          

 22 25  0  0  0  0            999 V2000
    9.4089   -6.2744    0.0000 O   0  0  0  0  0  0  0  0  0  0  0  0
    9.8938   -5.6069    0.0000 C   0  0  0  0  0  0  0  0  0  0  0  0
    9.4089   -4.9395    0.0000 C   0  0  0  0  0  0  0  0  0  0  0  0
    8.6243   -5.1944    0.0000 C   0  0  0  0  0  0  0  0  0  0  0  0
    7.9098   -4.7819    0.0000 C   0  0  0  0  0  0  0  0  0  0  0  0
    7.1953   -5.1944    0.0000 C   0  0  0  0  0  0  0  0  0  0  0  0
    7.1953   -6.0194    0.0000 C   0  0  0  0  0  0  0  0  0  0  0  0
    7.9098   -6.4319    0.0000 C   0  0  0  0  0  0  0  0  0  0  0  0
    8.6243   -6.0194    0.0000 C   0  0  0  0  0  0  0  0  0  0  0  0
    7.9098   -7.2569    0.0000 C   0  0  0  0  0  0  0  0  0  0  0  0
    7.1953   -7.6694    0.0000 C   0  0  0  0  0  0  0  0  0  0  0  0
    6.4809   -7.2569    0.0000 C   0  0  0  0  0  0  0  0  0  0  0  0
    5.7664   -7.6694    0.0000 C   0  0  1  0  0  0  0  0  0  0  0  0
    5.0519   -7.2569    0.0000 C   0  0  0  0  0  0  0  0  0  0  0  0
    5.0519   -6.4319    0.0000 C   0  0  0  0  0  0  0  0  0  0  0  0
    5.7664   -6.0194    0.0000 C   0  0  0  0  0  0  0  0  0  0  0  0
    6.4809   -6.4319    0.0000 C   0  0  0  0  0  0  0  0  0  0  0  0
    6.4809   -4.7819    0.0000 O   0  0  0  0  0  0  0  0  0  0  0  0
    7.9098   -3.9569    0.0000 O   0  0  0  0  0  0  0  0  0  0  0  0
    6.1789   -8.3839    0.0000 C   0  0  0  0  0  0  0  0  0  0  0  0
    9.6638   -4.1549    0.0000 C   0  0  0  0  0  0  0  0  0  0  0  0
    5.3539   -8.3839    0.0000 O   0  0  0  0  0  0  0  0  0  0  0  0
  1  2  1  0  0  0  0
  2  3  2  0  0  0  0
  3  4  1  0  0  0  0
  4  5  1  0  0  0  0
  5  6  1  0  0  0  0
  6  7  1  0  0  0  0
  7  8  1  0  0  0  0
  8  9  1  0  0  0  0
  4  9  2  0  0  0  0
  1  9  1  0  0  0  0
 10 11  1  0  0  0  0
 11 12  2  0  0  0  0
 12 13  1  0  0  0  0
 13 14  1  0  0  0  0
 14 15  1  0  0  0  0
 15 16  1  0  0  0  0
 16 17  1  0  0  0  0
 12 17  1  0  0  0  0
 17  7  2  0  0  0  0
 10  8  2  0  0  0  0
  6 18  2  0  0  0  0
  5 19  2  0  0  0  0
 13 20  1  6  0  0  0
  3 21  1  0  0  0  0
 13 22  1  1  0  0  0
M  END
>  <cdx:fragmentId>
172

$$$$
