96774.cdx
  Mrv1902 05222410252D          

 65 72  0  0  0  0            999 V2000
    6.1590  -11.5893    0.0000 C   0  0  0  0  0  0  0  0  0  0  0  0
    6.1590  -12.4140    0.0000 C   0  0  0  0  0  0  0  0  0  0  0  0
    6.8733  -12.8264    0.0000 C   0  0  0  0  0  0  0  0  0  0  0  0
    7.5875  -12.4140    0.0000 C   0  0  0  0  0  0  0  0  0  0  0  0
    7.5875  -11.5893    0.0000 C   0  0  0  0  0  0  0  0  0  0  0  0
    6.8733  -11.1769    0.0000 C   0  0  0  0  0  0  0  0  0  0  0  0
    8.3018  -12.8264    0.0000 C   0  0  0  0  0  0  0  0  0  0  0  0
    9.0160  -12.4140    0.0000 C   0  0  0  0  0  0  0  0  0  0  0  0
    9.0160  -11.5893    0.0000 C   0  0  0  0  0  0  0  0  0  0  0  0
    8.3018  -11.1769    0.0000 C   0  0  0  0  0  0  0  0  0  0  0  0
    9.7303  -11.1769    0.0000 C   0  0  0  0  0  0  0  0  0  0  0  0
    9.7303  -10.3522    0.0000 C   0  0  0  0  0  0  0  0  0  0  0  0
    9.0160   -9.9398    0.0000 C   0  0  0  0  0  0  0  0  0  0  0  0
    8.3018  -10.3522    0.0000 C   0  0  0  0  0  0  0  0  0  0  0  0
    9.7303   -9.5274    0.0000 C   0  0  0  0  0  0  0  0  0  0  0  0
    9.0160   -9.1150    0.0000 O   0  0  0  0  0  0  0  0  0  0  0  0
    7.5875  -10.7645    0.0000 C   0  0  0  0  0  0  0  0  0  0  0  0
    5.4448  -12.8264    0.0000 O   0  0  0  0  0  0  0  0  0  0  0  0
    4.0139  -11.1796    0.0000 C   0  0  2  0  0  0  0  0  0  0  0  0
    3.2970  -11.5874    0.0000 C   0  0  1  0  0  0  0  0  0  0  0  0
    3.2917  -12.4121    0.0000 C   0  0  1  0  0  0  0  0  0  0  0  0
    4.0033  -12.8291    0.0000 C   0  0  2  0  0  0  0  0  0  0  0  0
    4.7202  -12.4213    0.0000 C   0  0  1  0  0  0  0  0  0  0  0  0
    4.7254  -11.5966    0.0000 O   0  0  0  0  0  0  0  0  0  0  0  0
    4.0191  -10.3549    0.0000 C   0  0  0  0  0  0  0  0  0  0  0  0
    2.5854  -11.1705    0.0000 O   0  0  0  0  0  0  0  0  0  0  0  0
    2.5748  -12.8199    0.0000 O   0  0  0  0  0  0  0  0  0  0  0  0
    3.9980  -13.6538    0.0000 O   0  0  0  0  0  0  0  0  0  0  0  0
    3.3075   -9.9380    0.0000 O   0  0  0  0  0  0  0  0  0  0  0  0
    4.0383   -7.8878    0.0000 C   0  0  2  0  0  0  0  0  0  0  0  0
    3.3293   -7.4665    0.0000 C   0  0  2  0  0  0  0  0  0  0  0  0
    2.6099   -7.8698    0.0000 C   0  0  1  0  0  0  0  0  0  0  0  0
    2.5995   -8.6945    0.0000 C   0  0  2  0  0  0  0  0  0  0  0  0
    3.3085   -9.1159    0.0000 C   0  0  1  0  0  0  0  0  0  0  0  0
    4.0279   -8.7125    0.0000 O   0  0  0  0  0  0  0  0  0  0  0  0
    4.7576   -7.4845    0.0000 C   0  0  0  0  0  0  0  0  0  0  0  0
    3.3397   -6.6418    0.0000 O   0  0  0  0  0  0  0  0  0  0  0  0
    1.9009   -7.4485    0.0000 O   0  0  0  0  0  0  0  0  0  0  0  0
    1.8801   -9.0979    0.0000 O   0  0  0  0  0  0  0  0  0  0  0  0
    4.7680   -6.6598    0.0000 O   0  0  0  0  0  0  0  0  0  0  0  0
   10.5146  -11.4318    0.0000 C   0  0  0  0  0  0  0  0  0  0  0  0
   10.9994  -10.7645    0.0000 C   0  0  0  0  0  0  0  0  0  0  0  0
   10.5146  -10.0973    0.0000 C   0  0  0  0  0  0  0  0  0  0  0  0
   11.7838  -10.5097    0.0000 O   0  0  0  0  0  0  0  0  0  0  0  0
   11.7838   -9.6849    0.0000 C   0  0  0  0  0  0  0  0  0  0  0  0
   10.9994   -9.4301    0.0000 C   0  0  0  0  0  0  0  0  0  0  0  0
   10.7445   -8.6454    0.0000 C   0  0  0  0  0  0  0  0  0  0  0  0
   12.4512   -9.2000    0.0000 C   0  0  0  0  0  0  0  0  0  0  0  0
   11.6547   -8.8701    0.0000 O   0  0  0  0  0  0  0  0  0  0  0  0
   13.2049   -9.5356    0.0000 C   0  0  0  0  0  0  0  0  0  0  0  0
   13.8723   -9.0506    0.0000 C   0  0  0  0  0  0  0  0  0  0  0  0
   14.6260   -9.3862    0.0000 C   0  0  0  0  0  0  0  0  0  0  0  0
   15.2935   -8.9013    0.0000 O   0  0  0  0  0  0  0  0  0  0  0  0
   13.7861   -8.2302    0.0000 C   0  0  0  0  0  0  0  0  0  0  0  0
   16.0471   -9.2368    0.0000 C   0  0  2  0  0  0  0  0  0  0  0  0
   16.1334  -10.0573    0.0000 O   0  0  0  0  0  0  0  0  0  0  0  0
   16.8870  -10.3929    0.0000 C   0  0  1  0  0  0  0  0  0  0  0  0
   17.5545   -9.9080    0.0000 C   0  0  2  0  0  0  0  0  0  0  0  0
   17.4682   -9.0875    0.0000 C   0  0  1  0  0  0  0  0  0  0  0  0
   16.7146   -8.7519    0.0000 C   0  0  1  0  0  0  0  0  0  0  0  0
   16.9733  -11.2134    0.0000 C   0  0  0  0  0  0  0  0  0  0  0  0
   18.1357   -8.6025    0.0000 O   0  0  0  0  0  0  0  0  0  0  0  0
   16.6283   -7.9314    0.0000 O   0  0  0  0  0  0  0  0  0  0  0  0
   18.3082  -10.2435    0.0000 O   0  0  0  0  0  0  0  0  0  0  0  0
   17.7270  -11.5489    0.0000 O   0  0  0  0  0  0  0  0  0  0  0  0
  1  2  1  0  0  0  0
  2  3  1  0  0  0  0
  3  4  1  0  0  0  0
  4  5  1  0  0  0  0
  5  6  1  0  0  0  0
  6  1  1  0  0  0  0
  4  7  1  0  0  0  0
  7  8  1  0  0  0  0
  8  9  1  0  0  0  0
  9 10  1  0  0  0  0
 10  5  1  0  0  0  0
  9 11  1  0  0  0  0
 11 12  1  0  0  0  0
 12 13  1  0  0  0  0
 13 14  1  0  0  0  0
 14 10  1  0  0  0  0
 12 15  1  0  0  0  0
 13 16  1  0  0  0  0
  5 17  1  0  0  0  0
  2 18  1  0  0  0  0
 19 20  1  0  0  0  0
 20 21  1  0  0  0  0
 21 22  1  0  0  0  0
 22 23  1  0  0  0  0
 23 24  1  0  0  0  0
 24 19  1  0  0  0  0
 19 25  1  1  0  0  0
 20 26  1  1  0  0  0
 21 27  1  1  0  0  0
 22 28  1  6  0  0  0
 25 29  1  0  0  0  0
 30 31  1  0  0  0  0
 31 32  1  0  0  0  0
 32 33  1  0  0  0  0
 33 34  1  0  0  0  0
 34 35  1  0  0  0  0
 35 30  1  0  0  0  0
 30 36  1  1  0  0  0
 31 37  1  6  0  0  0
 32 38  1  1  0  0  0
 33 39  1  6  0  0  0
 36 40  1  0  0  0  0
 34 29  1  1  0  0  0
 23 18  1  1  0  0  0
 11 41  1  0  0  0  0
 41 42  1  0  0  0  0
 42 43  1  0  0  0  0
 43 12  1  0  0  0  0
 42 44  1  0  0  0  0
 44 45  1  0  0  0  0
 45 46  1  0  0  0  0
 46 43  1  0  0  0  0
 46 47  1  0  0  0  0
 45 48  1  0  0  0  0
 45 49  1  0  0  0  0
 48 50  1  0  0  0  0
 50 51  1  0  0  0  0
 51 52  1  0  0  0  0
 52 53  1  0  0  0  0
 51 54  1  0  0  0  0
 55 53  1  1  0  0  0
 55 56  1  0  0  0  0
 56 57  1  0  0  0  0
 57 58  1  0  0  0  0
 58 59  1  0  0  0  0
 59 60  1  0  0  0  0
 60 55  1  0  0  0  0
 57 61  1  1  0  0  0
 59 62  1  1  0  0  0
 60 63  1  6  0  0  0
 58 64  1  6  0  0  0
 61 65  1  0  0  0  0
M  END
>  <cdx:fragmentId>
5

$$$$
