96772.cdx
  Mrv1902 05222410242D          

 22 23  0  0  0  0            999 V2000
    6.5499   -8.0908    0.0000 C   0  0  0  0  0  0  0  0  0  0  0  0
    6.5499   -8.9158    0.0000 C   0  0  0  0  0  0  0  0  0  0  0  0
    7.2644   -9.3283    0.0000 C   0  0  0  0  0  0  0  0  0  0  0  0
    7.9789   -8.9158    0.0000 C   0  0  0  0  0  0  0  0  0  0  0  0
    7.9789   -8.0908    0.0000 C   0  0  0  0  0  0  0  0  0  0  0  0
    7.2644   -7.6783    0.0000 C   0  0  0  0  0  0  0  0  0  0  0  0
    5.8355   -9.3283    0.0000 O   0  0  0  0  0  0  0  0  0  0  0  0
    5.8355   -7.6783    0.0000 O   0  0  0  0  0  0  0  0  0  0  0  0
    8.6933   -7.6783    0.0000 C   0  0  0  0  0  0  0  0  0  0  0  0
    9.4078   -8.0908    0.0000 C   0  0  0  0  0  0  0  0  0  0  0  0
   10.1223   -7.6783    0.0000 O   0  0  0  0  0  0  0  0  0  0  0  0
    5.1330  -11.4133    0.0000 C   0  0  2  0  0  0  0  0  0  0  0  0
    5.8507  -11.8203    0.0000 C   0  0  2  0  0  0  0  0  0  0  0  0
    6.5619  -11.4022    0.0000 C   0  0  1  0  0  0  0  0  0  0  0  0
    6.5555  -10.5773    0.0000 C   0  0  2  0  0  0  0  0  0  0  0  0
    5.8379  -10.1703    0.0000 C   0  0  1  0  0  0  0  0  0  0  0  0
    5.1266  -10.5884    0.0000 O   0  0  0  0  0  0  0  0  0  0  0  0
    4.4218  -11.8314    0.0000 C   0  0  0  0  0  0  0  0  0  0  0  0
    7.2796  -11.8092    0.0000 O   0  0  0  0  0  0  0  0  0  0  0  0
    5.8571  -12.6452    0.0000 O   0  0  0  0  0  0  0  0  0  0  0  0
    7.2668  -10.1592    0.0000 O   0  0  0  0  0  0  0  0  0  0  0  0
    3.7041  -11.4244    0.0000 O   0  0  0  0  0  0  0  0  0  0  0  0
  1  2  2  0  0  0  0
  2  3  1  0  0  0  0
  3  4  2  0  0  0  0
  4  5  1  0  0  0  0
  5  6  2  0  0  0  0
  6  1  1  0  0  0  0
  2  7  1  0  0  0  0
  1  8  1  0  0  0  0
  5  9  1  0  0  0  0
  9 10  1  0  0  0  0
 10 11  1  0  0  0  0
 12 13  1  0  0  0  0
 13 14  1  0  0  0  0
 14 15  1  0  0  0  0
 15 16  1  0  0  0  0
 16 17  1  0  0  0  0
 17 12  1  0  0  0  0
 12 18  1  1  0  0  0
 14 19  1  1  0  0  0
 13 20  1  6  0  0  0
 15 21  1  6  0  0  0
 18 22  1  0  0  0  0
 16  7  1  1  0  0  0
M  END
>  <cdx:fragmentId>
5

$$$$
