96776.cdx
  Mrv1902 05222410252D          

 39 41  0  0  0  0            999 V2000
    5.4224   -9.2125    0.0000 C   0  0  0  0  0  0  0  0  0  0  0  0
    5.4224  -10.0375    0.0000 N   0  0  0  0  0  0  0  0  0  0  0  0
    6.1369  -10.4500    0.0000 C   0  0  0  0  0  0  0  0  0  0  0  0
    6.8514  -10.0375    0.0000 O   0  0  0  0  0  0  0  0  0  0  0  0
    6.8514   -9.2125    0.0000 O   0  0  0  0  0  0  0  0  0  0  0  0
    6.1369   -8.8000    0.0000 C   0  0  0  0  0  0  0  0  0  0  0  0
    7.5658   -8.8000    0.0000 N   0  0  0  0  0  0  0  0  0  0  0  0
    7.5658   -7.9750    0.0000 C   0  0  0  0  0  0  0  0  0  0  0  0
    6.8514   -7.5625    0.0000 C   0  0  0  0  0  0  0  0  0  0  0  0
    6.1369   -7.9750    0.0000 N   0  0  0  0  0  0  0  0  0  0  0  0
    8.2803   -9.2125    0.0000 C   0  0  0  0  0  0  0  0  0  0  0  0
    8.9948   -8.8000    0.0000 C   0  0  0  0  0  0  0  0  0  0  0  0
    8.9948   -7.9750    0.0000 N   0  0  0  0  0  0  0  0  0  0  0  0
    8.2803   -7.5625    0.0000 O   0  0  0  0  0  0  0  0  0  0  0  0
    8.2803  -10.0375    0.0000 C   0  0  0  0  0  0  0  0  0  0  0  0
    8.9948  -10.4500    0.0000 C   0  0  0  0  0  0  0  0  0  0  0  0
    9.7093   -9.2125    0.0000 O   0  0  0  0  0  0  0  0  0  0  0  0
    4.7080  -11.2750    0.0000 C   0  0  0  0  0  0  0  0  0  0  0  0
    5.4224  -11.6875    0.0000 N   0  0  0  0  0  0  0  0  0  0  0  0
    6.1369  -11.2750    0.0000 C   0  0  0  0  0  0  0  0  0  0  0  0
    6.8514  -11.6875    0.0000 C   0  0  0  0  0  0  0  0  0  0  0  0
    4.7080   -8.8000    0.0000 C   0  0  0  0  0  0  0  0  0  0  0  0
    4.7080   -7.9750    0.0000 C   0  0  0  0  0  0  0  0  0  0  0  0
    3.9935   -9.2125    0.0000 C   0  0  0  0  0  0  0  0  0  0  0  0
    7.5658  -10.4500    0.0000 C   0  0  0  0  0  0  0  0  0  0  0  0
    9.7093   -7.5625    0.0000 C   0  0  0  0  0  0  0  0  0  0  0  0
    9.7093   -6.7375    0.0000 C   0  0  0  0  0  0  0  0  0  0  0  0
    8.9948   -6.3250    0.0000 C   0  0  0  0  0  0  0  0  0  0  0  0
    8.9948   -5.5000    0.0000 C   0  0  0  0  0  0  0  0  0  0  0  0
    8.2803   -5.0875    0.0000 C   0  0  0  0  0  0  0  0  0  0  0  0
    7.5658   -5.5000    0.0000 C   0  0  0  0  0  0  0  0  0  0  0  0
    7.5658   -6.3250    0.0000 C   0  0  0  0  0  0  0  0  0  0  0  0
    8.2803   -6.7375    0.0000 C   0  0  0  0  0  0  0  0  0  0  0  0
    9.7093   -5.0875    0.0000 O   0  0  0  0  0  0  0  0  0  0  0  0
   10.4237   -5.5000    0.0000 C   0  0  0  0  0  0  0  0  0  0  0  0
    6.6798   -6.7555    0.0000 C   0  0  2  0  0  0  0  0  0  0  0  0
    5.8594   -6.6693    0.0000 C   0  0  0  0  0  0  0  0  0  0  0  0
    5.5238   -7.4230    0.0000 C   0  0  0  0  0  0  0  0  0  0  0  0
    7.0400   -6.3525    0.0000 O   0  0  0  0  0  0  0  0  0  0  0  0
  1  2  1  0  0  0  0
  2  3  1  0  0  0  0
  3  4  2  0  0  0  0
  5  6  2  0  0  0  0
  6  1  1  0  0  0  0
  7  8  1  0  0  0  0
  8  9  1  0  0  0  0
  9 10  1  0  0  0  0
 10  6  1  0  0  0  0
  7 11  1  0  0  0  0
 11 12  1  0  0  0  0
 12 13  1  0  0  0  0
 14  8  2  0  0  0  0
 11 15  1  0  0  0  0
 15 16  1  0  0  0  0
 17 12  2  0  0  0  0
 18 19  1  0  0  0  0
 19 20  1  0  0  0  0
 20  3  1  0  0  0  0
 20 21  1  0  0  0  0
  1 22  1  0  0  0  0
 22 23  1  0  0  0  0
 22 24  1  0  0  0  0
 15 25  1  0  0  0  0
 13 26  1  0  0  0  0
 26 27  2  0  0  0  0
 27 28  1  0  0  0  0
 28 29  2  0  0  0  0
 29 30  1  0  0  0  0
 30 31  2  0  0  0  0
 31 32  1  0  0  0  0
 32 33  2  0  0  0  0
 33 28  1  0  0  0  0
 29 34  1  0  0  0  0
 34 35  1  0  0  0  0
  9 36  1  0  0  0  0
 36 37  1  0  0  0  0
 37 38  1  0  0  0  0
 38 10  1  0  0  0  0
 36 39  1  6  0  0  0
 32 39  1  0  0  0  0
M  END
>  <cdx:fragmentId>
5

$$$$
