96773.cdx
  Mrv1902 05222410242D          

 41 45  0  0  0  0            999 V2000
    7.0716   -8.2654    0.0000 O   0  0  0  0  0  0  0  0  0  0  0  0
    5.6426   -5.7904    0.0000 O   0  0  0  0  0  0  0  0  0  0  0  0
   12.0729   -4.5529    0.0000 O   0  0  0  0  0  0  0  0  0  0  0  0
   12.7873   -5.7904    0.0000 C   0  0  0  0  0  0  0  0  0  0  0  0
   12.0729   -6.2029    0.0000 O   0  0  0  0  0  0  0  0  0  0  0  0
    9.9295   -4.9654    0.0000 C   0  0  0  0  0  0  0  0  0  0  0  0
   10.6439   -4.5529    0.0000 C   0  0  0  0  0  0  0  0  0  0  0  0
   11.3584   -4.9654    0.0000 C   0  0  0  0  0  0  0  0  0  0  0  0
   11.3584   -5.7904    0.0000 C   0  0  0  0  0  0  0  0  0  0  0  0
   10.6439   -6.2029    0.0000 C   0  0  0  0  0  0  0  0  0  0  0  0
    9.9295   -5.7904    0.0000 C   0  0  0  0  0  0  0  0  0  0  0  0
    8.5005   -8.2654    0.0000 O   0  0  0  0  0  0  0  0  0  0  0  0
    8.5005   -5.7904    0.0000 O   0  0  0  0  0  0  0  0  0  0  0  0
    7.7860   -6.2029    0.0000 C   0  0  0  0  0  0  0  0  0  0  0  0
    7.0716   -5.7904    0.0000 C   0  0  0  0  0  0  0  0  0  0  0  0
    6.3571   -6.2029    0.0000 C   0  0  0  0  0  0  0  0  0  0  0  0
    6.3571   -7.0279    0.0000 C   0  0  0  0  0  0  0  0  0  0  0  0
    7.0716   -7.4404    0.0000 C   0  0  0  0  0  0  0  0  0  0  0  0
    7.7860   -7.0279    0.0000 C   0  0  0  0  0  0  0  0  0  0  0  0
    8.5005   -7.4404    0.0000 C   0  0  0  0  0  0  0  0  0  0  0  0
    9.2150   -7.0279    0.0000 C   0  0  0  0  0  0  0  0  0  0  0  0
    9.2150   -6.2029    0.0000 C   0  0  0  0  0  0  0  0  0  0  0  0
    5.6460   -4.9654    0.0000 C   0  0  2  0  0  0  0  0  0  0  0  0
    6.3621   -4.5557    0.0000 O   0  0  0  0  0  0  0  0  0  0  0  0
    6.3654   -3.7307    0.0000 C   0  0  2  0  0  0  0  0  0  0  0  0
    5.6526   -3.3154    0.0000 C   0  0  1  0  0  0  0  0  0  0  0  0
    4.9365   -3.7250    0.0000 C   0  0  2  0  0  0  0  0  0  0  0  0
    4.9332   -4.5500    0.0000 C   0  0  1  0  0  0  0  0  0  0  0  0
    4.2170   -4.9596    0.0000 O   0  0  0  0  0  0  0  0  0  0  0  0
    4.2237   -3.3096    0.0000 O   0  0  0  0  0  0  0  0  0  0  0  0
    7.0815   -3.3211    0.0000 C   0  0  0  0  0  0  0  0  0  0  0  0
    5.6559   -2.4904    0.0000 O   0  0  0  0  0  0  0  0  0  0  0  0
    3.5042   -4.5442    0.0000 C   0  0  0  0  0  0  0  0  0  0  0  0
    3.5092   -3.7192    0.0000 O   0  0  0  0  0  0  0  0  0  0  0  0
    2.7972   -3.3024    0.0000 C   0  0  0  0  0  0  0  0  0  0  0  0
    2.0803   -3.7192    0.0000 C   0  0  0  0  0  0  0  0  0  0  0  0
    2.0803   -4.5442    0.0000 C   0  0  0  0  0  0  0  0  0  0  0  0
    2.7972   -4.9610    0.0000 C   0  0  0  0  0  0  0  0  0  0  0  0
    2.7998   -5.7860    0.0000 O   0  0  0  0  0  0  0  0  0  0  0  0
    1.3652   -4.9557    0.0000 O   0  0  0  0  0  0  0  0  0  0  0  0
    1.3652   -3.3078    0.0000 O   0  0  0  0  0  0  0  0  0  0  0  0
 18  1  1  0  0  0  0
 16  2  1  0  0  0  0
 22 11  1  0  0  0  0
  8  3  1  0  0  0  0
  9  5  1  0  0  0  0
  5  4  1  0  0  0  0
 11  6  2  0  0  0  0
  7  6  1  0  0  0  0
  8  7  2  0  0  0  0
  9  8  1  0  0  0  0
 10  9  2  0  0  0  0
 11 10  1  0  0  0  0
 20 12  2  0  0  0  0
 22 13  1  0  0  0  0
 14 13  1  0  0  0  0
 19 14  2  0  0  0  0
 15 14  1  0  0  0  0
 16 15  2  0  0  0  0
 17 16  1  0  0  0  0
 18 17  2  0  0  0  0
 19 18  1  0  0  0  0
 20 19  1  0  0  0  0
 21 20  1  0  0  0  0
 22 21  2  0  0  0  0
 23  2  1  1  0  0  0
 23 24  1  0  0  0  0
 24 25  1  0  0  0  0
 25 26  1  0  0  0  0
 26 27  1  0  0  0  0
 27 28  1  0  0  0  0
 28 23  1  0  0  0  0
 28 29  1  6  0  0  0
 27 30  1  6  0  0  0
 25 31  1  6  0  0  0
 26 32  1  1  0  0  0
 29 33  1  0  0  0  0
 33 34  1  0  0  0  0
 34 35  1  0  0  0  0
 35 36  1  0  0  0  0
 36 37  1  0  0  0  0
 37 38  1  0  0  0  0
 38 33  1  0  0  0  0
 38 39  1  0  0  0  0
 37 40  1  0  0  0  0
 36 41  1  0  0  0  0
M  END
>  <cdx:fragmentId>
5

$$$$
