96775.cdx
  Mrv1902 05222410252D          

 68 74  0  0  0  0            999 V2000
    9.3681  -12.4589    0.0000 O   0  0  0  0  0  0  0  0  0  0  0  0
   14.3928   -7.9472    0.0000 C   0  0  0  0  0  0  0  0  0  0  0  0
   14.3903   -8.7722    0.0000 C   0  0  0  0  0  0  0  0  0  0  0  0
   13.6746   -9.1824    0.0000 C   0  0  0  0  0  0  0  0  0  0  0  0
   12.9614   -8.7677    0.0000 C   0  0  0  0  0  0  0  0  0  0  0  0
   12.2456   -9.1780    0.0000 C   0  0  0  0  0  0  0  0  0  0  0  0
   11.5324   -8.7633    0.0000 C   0  0  0  0  0  0  0  0  0  0  0  0
   11.5350   -7.9383    0.0000 C   0  0  0  0  0  0  0  0  0  0  0  0
   12.2507   -7.5280    0.0000 C   0  0  0  0  0  0  0  0  0  0  0  0
   12.9639   -7.9427    0.0000 C   0  0  0  0  0  0  0  0  0  0  0  0
   13.6797   -7.5325    0.0000 O   0  0  0  0  0  0  0  0  0  0  0  0
   13.6720  -10.0074    0.0000 O   0  0  0  0  0  0  0  0  0  0  0  0
   10.8218   -7.5236    0.0000 O   0  0  0  0  0  0  0  0  0  0  0  0
   10.1073   -7.9361    0.0000 C   0  0  0  0  0  0  0  0  0  0  0  0
   15.1086   -7.5369    0.0000 C   0  0  0  0  0  0  0  0  0  0  0  0
   15.1111   -6.7119    0.0000 C   0  0  0  0  0  0  0  0  0  0  0  0
   15.8269   -6.3016    0.0000 C   0  0  0  0  0  0  0  0  0  0  0  0
   16.5401   -6.7163    0.0000 C   0  0  0  0  0  0  0  0  0  0  0  0
   16.5375   -7.5413    0.0000 C   0  0  0  0  0  0  0  0  0  0  0  0
   15.8218   -7.9516    0.0000 C   0  0  0  0  0  0  0  0  0  0  0  0
   17.2558   -6.3060    0.0000 O   0  0  0  0  0  0  0  0  0  0  0  0
   12.2431  -10.0030    0.0000 O   0  0  0  0  0  0  0  0  0  0  0  0
   10.7998  -11.6486    0.0000 O   0  0  0  0  0  0  0  0  0  0  0  0
   10.7941  -12.4735    0.0000 C   0  0  1  0  0  0  0  0  0  0  0  0
   11.5058  -12.8909    0.0000 C   0  0  2  0  0  0  0  0  0  0  0  0
   12.2231  -12.4833    0.0000 C   0  0  1  0  0  0  0  0  0  0  0  0
   12.2287  -11.6583    0.0000 C   0  0  2  0  0  0  0  0  0  0  0  0
   11.5171  -11.2410    0.0000 C   0  0  2  0  0  0  0  0  0  0  0  0
   12.9460  -11.2507    0.0000 O   0  0  0  0  0  0  0  0  0  0  0  0
   12.9347  -12.9007    0.0000 O   0  0  0  0  0  0  0  0  0  0  0  0
   11.5001  -13.7159    0.0000 O   0  0  0  0  0  0  0  0  0  0  0  0
   11.5227  -10.4160    0.0000 O   0  0  0  0  0  0  0  0  0  0  0  0
   10.1050   -8.7562    0.0000 O   0  0  0  0  0  0  0  0  0  0  0  0
   10.8167   -9.1736    0.0000 C   0  0  2  0  0  0  0  0  0  0  0  0
   10.8110   -9.9986    0.0000 C   0  0  1  0  0  0  0  0  0  0  0  0
   10.0938  -10.4062    0.0000 C   0  0  2  0  0  0  0  0  0  0  0  0
    9.3821   -9.9888    0.0000 C   0  0  1  0  0  0  0  0  0  0  0  0
    9.3878   -9.1639    0.0000 C   0  0  1  0  0  0  0  0  0  0  0  0
    8.6761   -8.7465    0.0000 C   0  0  0  0  0  0  0  0  0  0  0  0
    7.9589   -9.1541    0.0000 O   0  0  0  0  0  0  0  0  0  0  0  0
    8.6649  -10.3964    0.0000 O   0  0  0  0  0  0  0  0  0  0  0  0
   10.0881  -11.2312    0.0000 O   0  0  0  0  0  0  0  0  0  0  0  0
   10.0769  -12.8812    0.0000 C   0  0  0  0  0  0  0  0  0  0  0  0
   10.8167   -8.3486    0.0000 H   0  0  0  0  0  0  0  0  0  0  0  0
    7.2472   -8.7367    0.0000 C   0  0  0  0  0  0  0  0  0  0  0  0
    6.5300   -9.1443    0.0000 C   0  0  0  0  0  0  0  0  0  0  0  0
    7.2529   -7.9117    0.0000 O   0  0  0  0  0  0  0  0  0  0  0  0
    5.8183   -8.7270    0.0000 C   0  0  0  0  0  0  0  0  0  0  0  0
    5.1011   -9.1346    0.0000 C   0  0  0  0  0  0  0  0  0  0  0  0
    4.3923   -8.7123    0.0000 C   0  0  0  0  0  0  0  0  0  0  0  0
    3.6722   -9.1346    0.0000 C   0  0  0  0  0  0  0  0  0  0  0  0
    3.6722   -9.9595    0.0000 C   0  0  0  0  0  0  0  0  0  0  0  0
    4.3923  -10.3817    0.0000 C   0  0  0  0  0  0  0  0  0  0  0  0
    5.1011   -9.9595    0.0000 C   0  0  0  0  0  0  0  0  0  0  0  0
    2.9564  -10.3696    0.0000 O   0  0  0  0  0  0  0  0  0  0  0  0
    2.9564   -8.7245    0.0000 O   0  0  0  0  0  0  0  0  0  0  0  0
    2.2433   -9.1394    0.0000 C   0  0  0  0  0  0  0  0  0  0  0  0
    8.6481  -12.8616    0.0000 C   0  0  0  0  0  0  0  0  0  0  0  0
    7.9393  -12.4394    0.0000 C   0  0  0  0  0  0  0  0  0  0  0  0
    8.6368  -13.6865    0.0000 O   0  0  0  0  0  0  0  0  0  0  0  0
    7.9561  -11.6146    0.0000 C   0  0  0  0  0  0  0  0  0  0  0  0
    7.2502  -11.1876    0.0000 C   0  0  0  0  0  0  0  0  0  0  0  0
    6.5275  -11.5854    0.0000 C   0  0  0  0  0  0  0  0  0  0  0  0
    6.5275  -12.4102    0.0000 C   0  0  0  0  0  0  0  0  0  0  0  0
    7.2502  -12.8372    0.0000 C   0  0  0  0  0  0  0  0  0  0  0  0
    5.8173  -11.1656    0.0000 O   0  0  0  0  0  0  0  0  0  0  0  0
    5.8110  -12.8191    0.0000 O   0  0  0  0  0  0  0  0  0  0  0  0
    5.0986  -12.4031    0.0000 C   0  0  0  0  0  0  0  0  0  0  0  0
 34  7  1  0  0  0  0
  2  3  2  0  0  0  0
  3  4  1  0  0  0  0
  4  5  1  0  0  0  0
  5  6  1  0  0  0  0
  6  7  2  0  0  0  0
  7  8  1  0  0  0  0
  8  9  2  0  0  0  0
  9 10  1  0  0  0  0
  5 10  2  0  0  0  0
 10 11  1  0  0  0  0
  2 11  1  0  0  0  0
  4 12  2  0  0  0  0
 13 14  1  0  0  0  0
  8 13  1  0  0  0  0
 15 16  1  0  0  0  0
 16 17  2  0  0  0  0
 17 18  1  0  0  0  0
 18 19  2  0  0  0  0
 19 20  1  0  0  0  0
 15 20  2  0  0  0  0
 18 21  1  0  0  0  0
  2 15  1  0  0  0  0
  6 22  1  0  0  0  0
  1 43  1  0  0  0  0
 23 24  1  0  0  0  0
 24 25  1  0  0  0  0
 25 26  1  0  0  0  0
 26 27  1  0  0  0  0
 27 28  1  0  0  0  0
 23 28  1  0  0  0  0
 27 29  1  6  0  0  0
 26 30  1  1  0  0  0
 25 31  1  6  0  0  0
 33 34  1  0  0  0  0
 34 35  1  0  0  0  0
 35 36  1  0  0  0  0
 36 37  1  0  0  0  0
 37 38  1  0  0  0  0
 33 38  1  0  0  0  0
 39 40  1  0  0  0  0
 38 39  1  1  0  0  0
 37 41  1  6  0  0  0
 36 42  1  1  0  0  0
 35 32  1  6  0  0  0
 28 32  1  1  0  0  0
 24 43  1  1  0  0  0
 34 44  1  6  0  0  0
 40 45  1  0  0  0  0
 45 46  1  0  0  0  0
 45 47  2  0  0  0  0
 46 48  2  0  0  0  0
 48 49  1  0  0  0  0
 49 50  2  0  0  0  0
 50 51  1  0  0  0  0
 51 52  2  0  0  0  0
 52 53  1  0  0  0  0
 53 54  2  0  0  0  0
 54 49  1  0  0  0  0
 52 55  1  0  0  0  0
 51 56  1  0  0  0  0
 56 57  1  0  0  0  0
  1 58  1  0  0  0  0
 58 59  1  0  0  0  0
 58 60  2  0  0  0  0
 59 61  2  0  0  0  0
 61 62  1  0  0  0  0
 62 63  2  0  0  0  0
 63 64  1  0  0  0  0
 64 65  2  0  0  0  0
 65 59  1  0  0  0  0
 63 66  1  0  0  0  0
 64 67  1  0  0  0  0
 67 68  1  0  0  0  0
M  END
>  <cdx:fragmentId>
133584

$$$$
