9679.cdx
  Mrv1902 05222410232D          

  9  9  0  0  0  0            999 V2000
    2.7206   -3.4682    0.0000 C   0  0  0  0  0  0  0  0  0  0  0  0
    3.1331   -4.1827    0.0000 N   0  0  0  0  0  0  0  0  0  0  0  0
    3.9400   -4.0112    0.0000 C   0  0  0  0  0  0  0  0  0  0  0  0
    4.0263   -3.1907    0.0000 C   0  0  0  0  0  0  0  0  0  0  0  0
    3.2726   -2.8551    0.0000 N   0  0  0  0  0  0  0  0  0  0  0  0
    4.7407   -2.7782    0.0000 C   0  0  0  0  0  0  0  0  0  0  0  0
    4.7407   -1.9532    0.0000 O   0  0  0  0  0  0  0  0  0  0  0  0
    5.4552   -3.1907    0.0000 N   0  0  0  0  0  0  0  0  0  0  0  0
    4.5531   -4.5632    0.0000 N   0  0  0  0  0  0  0  0  0  0  0  0
  1  2  2  0  0  0  0
  2  3  1  0  0  0  0
  3  4  2  0  0  0  0
  4  5  1  0  0  0  0
  1  5  1  0  0  0  0
  6  7  2  0  0  0  0
  6  8  1  0  0  0  0
  4  6  1  0  0  0  0
  3  9  1  0  0  0  0
M  END
>  <cdx:groupId>
29

>  <cdx:fragmentId>
5

$$$$
