7-demethylsuberosine.cdx
  Mrv1902 05222410212D          

 17 18  0  0  0  0            999 V2000
    4.6852   -7.1156    0.0000 C   0  0  0  0  0  0  0  0  0  0  0  0
    5.3996   -8.3531    0.0000 O   0  0  0  0  0  0  0  0  0  0  0  0
    6.1141   -7.9406    0.0000 C   0  0  0  0  0  0  0  0  0  0  0  0
    6.1141   -7.1156    0.0000 C   0  0  0  0  0  0  0  0  0  0  0  0
    5.3996   -6.7031    0.0000 C   0  0  0  0  0  0  0  0  0  0  0  0
    6.8286   -8.3531    0.0000 C   0  0  0  0  0  0  0  0  0  0  0  0
    7.5430   -7.9406    0.0000 C   0  0  0  0  0  0  0  0  0  0  0  0
    7.5430   -7.1156    0.0000 C   0  0  0  0  0  0  0  0  0  0  0  0
    6.8286   -6.7031    0.0000 C   0  0  0  0  0  0  0  0  0  0  0  0
    8.2575   -8.3531    0.0000 O   0  0  0  0  0  0  0  0  0  0  0  0
    8.9720   -7.9406    0.0000 C   0  0  0  0  0  0  0  0  0  0  0  0
    8.9720   -7.1156    0.0000 C   0  0  0  0  0  0  0  0  0  0  0  0
    8.2575   -6.7031    0.0000 C   0  0  0  0  0  0  0  0  0  0  0  0
    3.9707   -6.7031    0.0000 C   0  0  0  0  0  0  0  0  0  0  0  0
    3.2562   -7.1156    0.0000 C   0  0  0  0  0  0  0  0  0  0  0  0
    3.9707   -5.8781    0.0000 C   0  0  0  0  0  0  0  0  0  0  0  0
    9.6865   -8.3531    0.0000 O   0  0  0  0  0  0  0  0  0  0  0  0
  2  3  1  0  0  0  0
  3  4  2  0  0  0  0
  4  5  1  0  0  0  0
  5  1  1  0  0  0  0
  3  6  1  0  0  0  0
  6  7  2  0  0  0  0
  7  8  1  0  0  0  0
  8  9  2  0  0  0  0
  9  4  1  0  0  0  0
  7 10  1  0  0  0  0
 10 11  1  0  0  0  0
 11 12  1  0  0  0  0
 12 13  2  0  0  0  0
 13  8  1  0  0  0  0
  1 14  2  0  0  0  0
 14 15  1  0  0  0  0
 14 16  1  0  0  0  0
 11 17  2  0  0  0  0
M  END
>  <cdx:fragmentId>
5

$$$$
