96826.cdx
  Mrv1902 05222410262D          

  8  8  0  0  0  0            999 V2000
    4.1827   -2.8654    0.0000 C   0  0  0  0  0  0  0  0  0  0  0  0
    4.8502   -3.3503    0.0000 C   0  0  0  0  0  0  0  0  0  0  0  0
    4.5952   -4.1349    0.0000 C   0  0  0  0  0  0  0  0  0  0  0  0
    3.7702   -4.1349    0.0000 C   0  0  0  0  0  0  0  0  0  0  0  0
    3.5153   -3.3503    0.0000 C   0  0  0  0  0  0  0  0  0  0  0  0
    4.1827   -2.0404    0.0000 O   0  0  0  0  0  0  0  0  0  0  0  0
    2.7307   -3.0954    0.0000 C   0  0  0  0  0  0  0  0  0  0  0  0
    5.6348   -3.0954    0.0000 C   0  0  0  0  0  0  0  0  0  0  0  0
  1  2  1  0  0  0  0
  2  3  1  0  0  0  0
  3  4  1  0  0  0  0
  4  5  1  0  0  0  0
  1  5  1  0  0  0  0
  1  6  2  0  0  0  0
  5  7  1  0  0  0  0
  2  8  1  0  0  0  0
M  END
>  <cdx:groupId>
26

>  <cdx:fragmentId>
5

$$$$
