968391.cdx
  Mrv1902 05222410192D          

 54 57  0  0  0  0            999 V2000
   10.1532  -10.8123    0.0000 O   0  0  0  0  0  0  0  0  0  0  0  0
    9.4450  -11.2355    0.0000 C   0  0  1  0  0  0  0  0  0  0  0  0
    9.4574  -12.0604    0.0000 C   0  0  2  0  0  0  0  0  0  0  0  0
   10.1780  -12.4621    0.0000 C   0  0  1  0  0  0  0  0  0  0  0  0
   10.8862  -12.0389    0.0000 C   0  0  2  0  0  0  0  0  0  0  0  0
   10.8738  -11.2140    0.0000 C   0  0  1  0  0  0  0  0  0  0  0  0
   11.5820  -10.7908    0.0000 O   0  0  0  0  0  0  0  0  0  0  0  0
   10.5272   -9.8514    0.0000 O   0  0  0  0  0  0  0  0  0  0  0  0
   11.3519   -9.8754    0.0000 C   0  0  2  0  0  0  0  0  0  0  0  0
   11.6295   -9.0985    0.0000 C   0  0  2  0  0  0  0  0  0  0  0  0
   10.9764   -8.5944    0.0000 C   0  0  1  0  0  0  0  0  0  0  0  0
   10.2952   -9.0597    0.0000 C   0  0  1  0  0  0  0  0  0  0  0  0
    9.5183   -8.7821    0.0000 C   0  0  0  0  0  0  0  0  0  0  0  0
    8.8894   -9.3161    0.0000 O   0  0  0  0  0  0  0  0  0  0  0  0
   11.0004   -7.7698    0.0000 O   0  0  0  0  0  0  0  0  0  0  0  0
   11.6068  -12.4406    0.0000 O   0  0  0  0  0  0  0  0  0  0  0  0
   10.1905  -13.2870    0.0000 O   0  0  0  0  0  0  0  0  0  0  0  0
    8.7492  -12.4837    0.0000 O   0  0  0  0  0  0  0  0  0  0  0  0
    8.7244  -10.8338    0.0000 C   0  0  0  0  0  0  0  0  0  0  0  0
    8.0162  -11.2571    0.0000 O   0  0  0  0  0  0  0  0  0  0  0  0
    7.3112  -10.0141    0.0000 O   0  0  0  0  0  0  0  0  0  0  0  0
    7.3049  -10.8391    0.0000 C   0  0  0  0  0  0  0  0  0  0  0  0
   12.4212   -8.8665    0.0000 O   0  0  0  0  0  0  0  0  0  0  0  0
   12.6161   -8.0649    0.0000 C   0  0  0  0  0  0  0  0  0  0  0  0
   13.4078   -7.8328    0.0000 C   0  0  0  0  0  0  0  0  0  0  0  0
   12.0193   -7.4952    0.0000 O   0  0  0  0  0  0  0  0  0  0  0  0
   13.6027   -7.0312    0.0000 C   0  0  0  0  0  0  0  0  0  0  0  0
   14.3944   -6.7991    0.0000 C   0  0  0  0  0  0  0  0  0  0  0  0
   14.9912   -7.3688    0.0000 C   0  0  0  0  0  0  0  0  0  0  0  0
   15.7829   -7.1367    0.0000 C   0  0  0  0  0  0  0  0  0  0  0  0
   15.9778   -6.3351    0.0000 C   0  0  0  0  0  0  0  0  0  0  0  0
   15.3810   -5.7655    0.0000 C   0  0  0  0  0  0  0  0  0  0  0  0
   14.5893   -5.9975    0.0000 C   0  0  0  0  0  0  0  0  0  0  0  0
   15.5759   -4.9638    0.0000 O   0  0  0  0  0  0  0  0  0  0  0  0
   16.7695   -6.1031    0.0000 O   0  0  0  0  0  0  0  0  0  0  0  0
   16.3797   -7.7063    0.0000 O   0  0  0  0  0  0  0  0  0  0  0  0
   14.9297   -4.4510    0.0000 C   0  0  0  0  0  0  0  0  0  0  0  0
   17.1714   -7.4743    0.0000 C   0  0  0  0  0  0  0  0  0  0  0  0
   12.1488  -10.0889    0.0000 C   0  0  0  0  0  0  0  0  0  0  0  0
   12.7321   -9.5056    0.0000 O   0  0  0  0  0  0  0  0  0  0  0  0
   16.9644   -5.3014    0.0000 C   0  0  0  0  0  0  0  0  0  0  0  0
    6.5873  -11.2462    0.0000 C   0  0  0  0  0  0  0  0  0  0  0  0
    5.8760  -10.8282    0.0000 C   0  0  0  0  0  0  0  0  0  0  0  0
    5.1584  -11.2353    0.0000 C   0  0  0  0  0  0  0  0  0  0  0  0
    4.4503  -10.8119    0.0000 C   0  0  0  0  0  0  0  0  0  0  0  0
    3.7296  -11.2353    0.0000 C   0  0  0  0  0  0  0  0  0  0  0  0
    3.7296  -12.0602    0.0000 C   0  0  0  0  0  0  0  0  0  0  0  0
    4.4503  -12.4835    0.0000 C   0  0  0  0  0  0  0  0  0  0  0  0
    5.1584  -12.0602    0.0000 C   0  0  0  0  0  0  0  0  0  0  0  0
    3.0136  -10.8255    0.0000 O   0  0  0  0  0  0  0  0  0  0  0  0
    3.0136  -12.4700    0.0000 O   0  0  0  0  0  0  0  0  0  0  0  0
    4.4535  -13.3085    0.0000 O   0  0  0  0  0  0  0  0  0  0  0  0
    3.7406  -13.7238    0.0000 C   0  0  0  0  0  0  0  0  0  0  0  0
    2.3007  -11.2406    0.0000 C   0  0  0  0  0  0  0  0  0  0  0  0
 20 19  1  0  0  0  0
 22 20  1  0  0  0  0
 22 21  2  0  0  0  0
  1  2  1  0  0  0  0
  2  3  1  0  0  0  0
  3  4  1  0  0  0  0
  4  5  1  0  0  0  0
  5  6  1  0  0  0  0
  1  6  1  0  0  0  0
  8  9  1  0  0  0  0
  9 10  1  0  0  0  0
 10 11  1  0  0  0  0
 11 12  1  0  0  0  0
  8 12  1  0  0  0  0
 13 14  1  0  0  0  0
 12 13  1  6  0  0  0
 11 15  1  1  0  0  0
  6  7  1  6  0  0  0
  5 16  1  6  0  0  0
  4 17  1  1  0  0  0
  3 18  1  6  0  0  0
  2 19  1  1  0  0  0
 10 23  1  6  0  0  0
 23 24  1  0  0  0  0
 24 25  1  0  0  0  0
 24 26  2  0  0  0  0
 25 27  2  0  0  0  0
 27 28  1  0  0  0  0
 28 29  2  0  0  0  0
 29 30  1  0  0  0  0
 30 31  2  0  0  0  0
 31 32  1  0  0  0  0
 32 33  2  0  0  0  0
 33 28  1  0  0  0  0
 32 34  1  0  0  0  0
 31 35  1  0  0  0  0
 30 36  1  0  0  0  0
 34 37  1  0  0  0  0
 36 38  1  0  0  0  0
  9  7  1  6  0  0  0
  9 39  1  0  0  0  0
 39 40  1  0  0  0  0
 35 41  1  0  0  0  0
 22 42  1  0  0  0  0
 42 43  2  0  0  0  0
 43 44  1  0  0  0  0
 44 45  2  0  0  0  0
 45 46  1  0  0  0  0
 46 47  2  0  0  0  0
 47 48  1  0  0  0  0
 48 49  2  0  0  0  0
 49 44  1  0  0  0  0
 46 50  1  0  0  0  0
 47 51  1  0  0  0  0
 48 52  1  0  0  0  0
 52 53  1  0  0  0  0
 50 54  1  0  0  0  0
M  END
>  <cdx:fragmentId>
178882

$$$$
