96849.cdx
  Mrv1902 05222410182D          

 30 32  0  0  0  0            999 V2000
    7.2089   -7.9942    0.0000 C   0  0  0  0  0  0  0  0  0  0  0  0
    7.9249   -7.5843    0.0000 C   0  0  0  0  0  0  0  0  0  0  0  0
    7.2059   -8.8192    0.0000 S   0  0  0  0  0  0  0  0  0  0  0  0
    6.4960   -7.5791    0.0000 N   0  0  0  0  0  0  0  0  0  0  0  0
    5.7800   -7.9890    0.0000 O   0  0  0  0  0  0  0  0  0  0  0  0
    5.0670   -7.5739    0.0000 S   0  0  0  0  0  0  0  0  0  0  0  0
    4.6519   -8.2869    0.0000 O   0  0  0  0  0  0  0  0  0  0  0  0
    5.4821   -6.8609    0.0000 O   0  0  0  0  0  0  0  0  0  0  0  0
    4.3540   -7.1588    0.0000 O   0  0  0  0  0  0  0  0  0  0  0  0
    9.5275   -8.9946    0.0000 N   0  0  0  0  0  0  0  0  0  0  0  0
    8.7211   -8.8201    0.0000 C   0  0  0  0  0  0  0  0  0  0  0  0
    8.6379   -7.9994    0.0000 C   0  0  0  0  0  0  0  0  0  0  0  0
    9.3927   -7.6665    0.0000 C   0  0  0  0  0  0  0  0  0  0  0  0
    9.6505   -6.8828    0.0000 C   0  0  0  0  0  0  0  0  0  0  0  0
   10.4581   -6.7142    0.0000 C   0  0  0  0  0  0  0  0  0  0  0  0
   11.0079   -7.3293    0.0000 C   0  0  0  0  0  0  0  0  0  0  0  0
   10.7501   -8.1130    0.0000 C   0  0  0  0  0  0  0  0  0  0  0  0
    9.9426   -8.2816    0.0000 C   0  0  0  0  0  0  0  0  0  0  0  0
    9.1007   -6.2677    0.0000 O   0  0  0  0  0  0  0  0  0  0  0  0
    5.7770   -8.8140    0.0000 O   0  0  0  0  0  0  0  0  0  0  0  0
    6.4900   -9.2291    0.0000 C   0  0  2  0  0  0  0  0  0  0  0  0
    6.4870  -10.0541    0.0000 C   0  0  1  0  0  0  0  0  0  0  0  0
    5.7710  -10.4640    0.0000 C   0  0  2  0  0  0  0  0  0  0  0  0
    5.0581  -10.0489    0.0000 C   0  0  1  0  0  0  0  0  0  0  0  0
    5.0610   -9.2239    0.0000 C   0  0  1  0  0  0  0  0  0  0  0  0
    4.3481   -8.8088    0.0000 C   0  0  0  0  0  0  0  0  0  0  0  0
    3.6321   -9.2187    0.0000 O   0  0  0  0  0  0  0  0  0  0  0  0
    4.3421  -10.4588    0.0000 O   0  0  0  0  0  0  0  0  0  0  0  0
    5.7680  -11.2890    0.0000 O   0  0  0  0  0  0  0  0  0  0  0  0
    7.2000  -10.4692    0.0000 O   0  0  0  0  0  0  0  0  0  0  0  0
  1  2  1  0  0  0  0
  1  3  1  0  0  0  0
  1  4  2  0  0  0  0
  6  7  2  0  0  0  0
  6  8  2  0  0  0  0
  6  9  1  0  0  0  0
  5  6  1  0  0  0  0
  4  5  1  0  0  0  0
 10 11  1  0  0  0  0
 11 12  2  0  0  0  0
 12 13  1  0  0  0  0
 13 14  1  0  0  0  0
 14 15  2  0  0  0  0
 15 16  1  0  0  0  0
 16 17  2  0  0  0  0
 17 18  1  0  0  0  0
 10 18  1  0  0  0  0
 13 18  2  0  0  0  0
 14 19  1  0  0  0  0
  2 12  1  0  0  0  0
 20 21  1  0  0  0  0
 21 22  1  0  0  0  0
 22 23  1  0  0  0  0
 23 24  1  0  0  0  0
 24 25  1  0  0  0  0
 20 25  1  0  0  0  0
 26 27  1  0  0  0  0
 25 26  1  1  0  0  0
 24 28  1  6  0  0  0
 23 29  1  1  0  0  0
 22 30  1  6  0  0  0
 21  3  1  1  0  0  0
M  END
>  <cdx:fragmentId>
23

$$$$
