968629.cdx
  Mrv1902 05222410262D          

 35 38  0  0  0  0            999 V2000
    5.0738  -10.1469    0.0000 O   0  0  0  0  0  0  0  0  0  0  0  0
    5.7884   -8.9095    0.0000 O   0  0  0  0  0  0  0  0  0  0  0  0
    5.0739   -9.3219    0.0000 C   0  0  2  0  0  0  0  0  0  0  0  0
    4.3594   -8.9094    0.0000 C   0  0  1  0  0  0  0  0  0  0  0  0
    4.3594   -8.0844    0.0000 C   0  0  2  0  0  0  0  0  0  0  0  0
    5.0739   -7.6719    0.0000 C   0  0  1  0  0  0  0  0  0  0  0  0
    5.7884   -8.0845    0.0000 C   0  0  1  0  0  0  0  0  0  0  0  0
    6.5029   -7.6720    0.0000 C   0  0  0  0  0  0  0  0  0  0  0  0
    6.5029   -6.8470    0.0000 O   0  0  0  0  0  0  0  0  0  0  0  0
    5.0740   -6.8469    0.0000 O   0  0  0  0  0  0  0  0  0  0  0  0
    3.6450   -7.6719    0.0000 O   0  0  0  0  0  0  0  0  0  0  0  0
    3.6449   -9.3219    0.0000 O   0  0  0  0  0  0  0  0  0  0  0  0
    6.5028  -12.6219    0.0000 O   0  0  0  0  0  0  0  0  0  0  0  0
   11.5041  -11.3844    0.0000 O   0  0  0  0  0  0  0  0  0  0  0  0
   12.2185  -12.6219    0.0000 C   0  0  0  0  0  0  0  0  0  0  0  0
   11.5041  -13.0344    0.0000 O   0  0  0  0  0  0  0  0  0  0  0  0
    9.3607  -12.6219    0.0000 C   0  0  0  0  0  0  0  0  0  0  0  0
   10.0751  -13.0344    0.0000 C   0  0  0  0  0  0  0  0  0  0  0  0
   10.7896  -12.6219    0.0000 C   0  0  0  0  0  0  0  0  0  0  0  0
   10.7896  -11.7969    0.0000 C   0  0  0  0  0  0  0  0  0  0  0  0
   10.0751  -11.3844    0.0000 C   0  0  0  0  0  0  0  0  0  0  0  0
    9.3607  -11.7969    0.0000 C   0  0  0  0  0  0  0  0  0  0  0  0
    4.3594  -11.3844    0.0000 C   0  0  0  0  0  0  0  0  0  0  0  0
    5.0738  -11.7969    0.0000 O   0  0  0  0  0  0  0  0  0  0  0  0
    7.9317  -12.6219    0.0000 O   0  0  0  0  0  0  0  0  0  0  0  0
    7.9317  -10.1469    0.0000 O   0  0  0  0  0  0  0  0  0  0  0  0
    7.2172  -10.5594    0.0000 C   0  0  0  0  0  0  0  0  0  0  0  0
    6.5028  -10.1469    0.0000 C   0  0  0  0  0  0  0  0  0  0  0  0
    5.7883  -10.5594    0.0000 C   0  0  0  0  0  0  0  0  0  0  0  0
    5.7883  -11.3844    0.0000 C   0  0  0  0  0  0  0  0  0  0  0  0
    6.5028  -11.7969    0.0000 C   0  0  0  0  0  0  0  0  0  0  0  0
    7.2172  -11.3844    0.0000 C   0  0  0  0  0  0  0  0  0  0  0  0
    7.9317  -11.7969    0.0000 C   0  0  0  0  0  0  0  0  0  0  0  0
    8.6462  -11.3844    0.0000 C   0  0  0  0  0  0  0  0  0  0  0  0
    8.6462  -10.5594    0.0000 C   0  0  0  0  0  0  0  0  0  0  0  0
 31 13  1  0  0  0  0
 34 22  1  0  0  0  0
 20 14  1  0  0  0  0
 19 16  1  0  0  0  0
 16 15  1  0  0  0  0
 22 17  2  0  0  0  0
 18 17  1  0  0  0  0
 19 18  2  0  0  0  0
 20 19  1  0  0  0  0
 21 20  2  0  0  0  0
 22 21  1  0  0  0  0
 30 24  1  0  0  0  0
 24 23  1  0  0  0  0
 29  1  1  0  0  0  0
 33 25  2  0  0  0  0
 35 26  1  0  0  0  0
 27 26  1  0  0  0  0
 32 27  2  0  0  0  0
 28 27  1  0  0  0  0
 29 28  2  0  0  0  0
 30 29  1  0  0  0  0
 31 30  2  0  0  0  0
 32 31  1  0  0  0  0
 33 32  1  0  0  0  0
 34 33  1  0  0  0  0
 35 34  2  0  0  0  0
  2  3  1  0  0  0  0
  3  4  1  0  0  0  0
  4  5  1  0  0  0  0
  5  6  1  0  0  0  0
  6  7  1  0  0  0  0
  2  7  1  0  0  0  0
  8  9  1  0  0  0  0
  7  8  1  1  0  0  0
  6 10  1  6  0  0  0
  5 11  1  1  0  0  0
  4 12  1  6  0  0  0
  3  1  1  1  0  0  0
M  END
>  <cdx:fragmentId>
9796

$$$$
