9687.cdx
  Mrv1902 05222410222D          

 12 12  0  0  0  0            999 V2000
    4.9743   -5.4296    0.0000 O   0  0  0  0  0  0  0  0  0  0  0  0
    5.6887   -5.0171    0.0000 C   0  0  0  0  0  0  0  0  0  0  0  0
    7.1427   -7.4775    0.0000 O   0  0  0  0  0  0  0  0  0  0  0  0
    5.7055   -6.6670    0.0000 O   0  0  0  0  0  0  0  0  0  0  0  0
    7.8362   -5.4078    0.0000 C   0  0  2  0  0  0  0  0  0  0  0  0
    7.8446   -6.2328    0.0000 C   0  0  0  0  0  0  0  0  0  0  0  0
    7.1343   -6.6525    0.0000 C   0  0  2  0  0  0  0  0  0  0  0  0
    6.4157   -6.2473    0.0000 C   0  0  1  0  0  0  0  0  0  0  0  0
    6.4074   -5.4223    0.0000 C   0  0  2  0  0  0  0  0  0  0  0  0
    7.1176   -5.0026    0.0000 N   0  0  0  0  0  0  0  0  0  0  0  0
    8.5465   -4.9881    0.0000 C   0  0  0  0  0  0  0  0  0  0  0  0
    9.2651   -5.3933    0.0000 C   0  0  0  0  0  0  0  0  0  0  0  0
  9  2  1  1  0  0  0
  2  1  1  0  0  0  0
  7  3  1  1  0  0  0
  8  4  1  6  0  0  0
 10  5  1  0  0  0  0
  6  5  1  0  0  0  0
  7  6  1  0  0  0  0
  8  7  1  0  0  0  0
  9  8  1  0  0  0  0
 10  9  1  0  0  0  0
  5 11  1  6  0  0  0
 11 12  1  0  0  0  0
M  END
>  <cdx:fragmentId>
5

$$$$
