968737.cdx
  Mrv1902 05222410202D          

 37 40  0  0  0  0            999 V2000
    6.8174   -5.6755    0.0000 O   0  0  0  0  0  0  0  0  0  0  0  0
    6.8166   -6.5005    0.0000 C   0  0  2  0  0  0  0  0  0  0  0  0
    6.1018   -6.9124    0.0000 C   0  0  1  0  0  0  0  0  0  0  0  0
    5.3877   -6.4992    0.0000 C   0  0  2  0  0  0  0  0  0  0  0  0
    5.3884   -5.6742    0.0000 C   0  0  1  0  0  0  0  0  0  0  0  0
    6.1032   -5.2624    0.0000 C   0  0  1  0  0  0  0  0  0  0  0  0
    6.1011   -7.7374    0.0000 O   0  0  0  0  0  0  0  0  0  0  0  0
    4.6729   -6.9111    0.0000 O   0  0  0  0  0  0  0  0  0  0  0  0
    4.6743   -5.2611    0.0000 O   0  0  0  0  0  0  0  0  0  0  0  0
    6.1040   -4.4374    0.0000 C   0  0  0  0  0  0  0  0  0  0  0  0
    5.3898   -4.0242    0.0000 O   0  0  0  0  0  0  0  0  0  0  0  0
    7.5308   -6.9136    0.0000 O   0  0  0  0  0  0  0  0  0  0  0  0
    8.2717   -7.3105    0.0000 H   0  0  0  0  0  0  0  0  0  0  0  0
    9.3510   -9.9772    0.0000 O   0  0  0  0  0  0  0  0  0  0  0  0
   10.0917   -6.8850    0.0000 O   0  0  0  0  0  0  0  0  0  0  0  0
    9.2886   -7.0738    0.0000 C   0  0  0  0  0  0  0  0  0  0  0  0
    8.2894   -9.7853    0.0000 O   0  0  0  0  0  0  0  0  0  0  0  0
    9.0506   -7.8637    0.0000 C   0  0  0  0  0  0  0  0  0  0  0  0
    9.5498   -8.5206    0.0000 C   0  0  0  0  0  0  0  0  0  0  0  0
    9.0793   -9.1983    0.0000 C   0  0  2  0  0  0  0  0  0  0  0  0
    6.8430   -8.1662    0.0000 O   0  0  0  0  0  0  0  0  0  0  0  0
    6.8608   -8.9910    0.0000 C   0  0  0  0  0  0  0  0  0  0  0  0
    7.5839   -9.3880    0.0000 C   0  0  0  0  0  0  0  0  0  0  0  0
    8.2894   -8.9603    0.0000 C   0  0  1  0  0  0  0  0  0  0  0  0
    8.2717   -8.1355    0.0000 C   0  0  2  0  0  0  0  0  0  0  0  0
    7.5485   -7.7384    0.0000 C   0  0  2  0  0  0  0  0  0  0  0  0
    7.5810  -10.2082    0.0000 C   0  0  2  0  0  0  0  0  0  0  0  0
    6.8606   -9.8062    0.0000 O   0  0  0  0  0  0  0  0  0  0  0  0
    6.1523  -10.2292    0.0000 C   0  0  1  0  0  0  0  0  0  0  0  0
    6.1644  -11.0541    0.0000 C   0  0  2  0  0  0  0  0  0  0  0  0
    6.8848  -11.4561    0.0000 C   0  0  1  0  0  0  0  0  0  0  0  0
    7.5931  -11.0331    0.0000 C   0  0  1  0  0  0  0  0  0  0  0  0
    5.4318   -9.8272    0.0000 C   0  0  0  0  0  0  0  0  0  0  0  0
    6.8969  -12.2810    0.0000 O   0  0  0  0  0  0  0  0  0  0  0  0
    5.4560  -11.4770    0.0000 O   0  0  0  0  0  0  0  0  0  0  0  0
    8.3136  -11.4351    0.0000 O   0  0  0  0  0  0  0  0  0  0  0  0
    4.7235  -10.2501    0.0000 O   0  0  0  0  0  0  0  0  0  0  0  0
 25 13  1  1  0  0  0
 26 12  1  1  0  0  0
 20 14  1  1  0  0  0
 18 16  1  0  0  0  0
 16 15  1  0  0  0  0
 24 17  1  1  0  0  0
 20 24  1  0  0  0  0
 18 25  1  0  0  0  0
 19 18  2  0  0  0  0
 20 19  1  0  0  0  0
 26 21  1  0  0  0  0
 22 21  1  0  0  0  0
 23 22  2  0  0  0  0
 24 23  1  0  0  0  0
 25 24  1  0  0  0  0
 26 25  1  0  0  0  0
  1  2  1  0  0  0  0
  2  3  1  0  0  0  0
  3  4  1  0  0  0  0
  4  5  1  0  0  0  0
  5  6  1  0  0  0  0
  1  6  1  0  0  0  0
  3  7  1  6  0  0  0
  4  8  1  1  0  0  0
  5  9  1  6  0  0  0
 10 11  1  0  0  0  0
  6 10  1  1  0  0  0
  2 12  1  1  0  0  0
 27 17  1  1  0  0  0
 27 28  1  0  0  0  0
 28 29  1  0  0  0  0
 29 30  1  0  0  0  0
 30 31  1  0  0  0  0
 31 32  1  0  0  0  0
 32 27  1  0  0  0  0
 29 33  1  1  0  0  0
 31 34  1  1  0  0  0
 30 35  1  6  0  0  0
 32 36  1  6  0  0  0
 33 37  1  0  0  0  0
M  END
>  <cdx:fragmentId>
84209

$$$$
