96884.cdx
  Mrv1902 05222410272D          

 45 48  0  0  0  0            999 V2000
    5.5189  -10.0909    0.0000 O   0  0  0  0  0  0  0  0  0  0  0  0
    6.9479  -10.9159    0.0000 O   0  0  0  0  0  0  0  0  0  0  0  0
   10.5202  -12.1534    0.0000 O   0  0  0  0  0  0  0  0  0  0  0  0
   11.9492  -11.3284    0.0000 O   0  0  0  0  0  0  0  0  0  0  0  0
   11.9492   -9.6784    0.0000 O   0  0  0  0  0  0  0  0  0  0  0  0
    9.0913   -8.8534    0.0000 O   0  0  0  0  0  0  0  0  0  0  0  0
   10.5202   -9.6784    0.0000 C   0  0  0  0  0  0  0  0  0  0  0  0
   11.2347  -10.0909    0.0000 C   0  0  0  0  0  0  0  0  0  0  0  0
   11.2347  -10.9159    0.0000 C   0  0  0  0  0  0  0  0  0  0  0  0
   10.5202  -11.3284    0.0000 C   0  0  0  0  0  0  0  0  0  0  0  0
    9.8058  -10.9159    0.0000 C   0  0  0  0  0  0  0  0  0  0  0  0
    9.8058  -10.0909    0.0000 C   0  0  0  0  0  0  0  0  0  0  0  0
    9.0913   -9.6784    0.0000 C   0  0  0  0  0  0  0  0  0  0  0  0
    8.3768  -10.0909    0.0000 O   0  0  0  0  0  0  0  0  0  0  0  0
   11.2347   -7.6159    0.0000 O   0  0  0  0  0  0  0  0  0  0  0  0
   11.2347   -5.9659    0.0000 O   0  0  0  0  0  0  0  0  0  0  0  0
    9.8058   -5.1409    0.0000 O   0  0  0  0  0  0  0  0  0  0  0  0
    7.6624   -7.2034    0.0000 O   0  0  0  0  0  0  0  0  0  0  0  0
    9.0913   -6.3784    0.0000 C   0  0  0  0  0  0  0  0  0  0  0  0
    9.8058   -5.9659    0.0000 C   0  0  0  0  0  0  0  0  0  0  0  0
   10.5202   -6.3784    0.0000 C   0  0  0  0  0  0  0  0  0  0  0  0
   10.5202   -7.2034    0.0000 C   0  0  0  0  0  0  0  0  0  0  0  0
    9.8058   -7.6159    0.0000 C   0  0  0  0  0  0  0  0  0  0  0  0
    9.0913   -7.2034    0.0000 C   0  0  0  0  0  0  0  0  0  0  0  0
    8.3768   -7.6159    0.0000 C   0  0  0  0  0  0  0  0  0  0  0  0
    8.3768   -8.4409    0.0000 O   0  0  0  0  0  0  0  0  0  0  0  0
    7.6624   -8.8534    0.0000 C   0  0  1  0  0  0  0  0  0  0  0  0
    7.6624   -9.6784    0.0000 C   0  0  1  0  0  0  0  0  0  0  0  0
    6.9479  -10.0909    0.0000 C   0  0  2  0  0  0  0  0  0  0  0  0
    6.2334   -9.6784    0.0000 C   0  0  1  0  0  0  0  0  0  0  0  0
    6.2334   -8.8534    0.0000 C   0  0  2  0  0  0  0  0  0  0  0  0
    6.9479   -8.4409    0.0000 O   0  0  0  0  0  0  0  0  0  0  0  0
    5.5189   -8.4409    0.0000 C   0  0  0  0  0  0  0  0  0  0  0  0
    1.2321   -8.4409    0.0000 O   0  0  0  0  0  0  0  0  0  0  0  0
    1.2321  -10.0909    0.0000 O   0  0  0  0  0  0  0  0  0  0  0  0
    2.6611  -10.9159    0.0000 O   0  0  0  0  0  0  0  0  0  0  0  0
    4.8045   -8.8534    0.0000 O   0  0  0  0  0  0  0  0  0  0  0  0
    4.0900   -7.6159    0.0000 O   0  0  0  0  0  0  0  0  0  0  0  0
    3.3755   -9.6784    0.0000 C   0  0  0  0  0  0  0  0  0  0  0  0
    2.6611  -10.0909    0.0000 C   0  0  0  0  0  0  0  0  0  0  0  0
    1.9466   -9.6784    0.0000 C   0  0  0  0  0  0  0  0  0  0  0  0
    1.9466   -8.8534    0.0000 C   0  0  0  0  0  0  0  0  0  0  0  0
    2.6611   -8.4409    0.0000 C   0  0  0  0  0  0  0  0  0  0  0  0
    3.3755   -8.8534    0.0000 C   0  0  0  0  0  0  0  0  0  0  0  0
    4.0900   -8.4409    0.0000 C   0  0  0  0  0  0  0  0  0  0  0  0
 37 33  1  0  0  0  0
 31 33  1  1  0  0  0
 30  1  1  6  0  0  0
 29  2  1  1  0  0  0
 28 14  1  6  0  0  0
 14 13  1  0  0  0  0
 10  3  1  0  0  0  0
  9  4  1  0  0  0  0
  8  5  1  0  0  0  0
 13  6  2  0  0  0  0
 12  7  2  0  0  0  0
  8  7  1  0  0  0  0
  9  8  2  0  0  0  0
 10  9  1  0  0  0  0
 11 10  2  0  0  0  0
 12 11  1  0  0  0  0
 13 12  1  0  0  0  0
 27 26  1  1  0  0  0
 26 25  1  0  0  0  0
 22 15  1  0  0  0  0
 21 16  1  0  0  0  0
 20 17  1  0  0  0  0
 25 18  2  0  0  0  0
 24 19  2  0  0  0  0
 20 19  1  0  0  0  0
 21 20  2  0  0  0  0
 22 21  1  0  0  0  0
 23 22  2  0  0  0  0
 24 23  1  0  0  0  0
 25 24  1  0  0  0  0
 32 27  1  0  0  0  0
 28 27  1  0  0  0  0
 29 28  1  0  0  0  0
 30 29  1  0  0  0  0
 31 30  1  0  0  0  0
 32 31  1  0  0  0  0
 42 34  1  0  0  0  0
 41 35  1  0  0  0  0
 40 36  1  0  0  0  0
 45 37  1  0  0  0  0
 45 38  2  0  0  0  0
 44 39  2  0  0  0  0
 40 39  1  0  0  0  0
 41 40  2  0  0  0  0
 42 41  1  0  0  0  0
 43 42  2  0  0  0  0
 44 43  1  0  0  0  0
 45 44  1  0  0  0  0
M  END
>  <cdx:fragmentId>
45

$$$$
