9688.cdx
  Mrv1902 05222410242D          

 23 24  0  0  0  0            999 V2000
    4.9743   -5.4296    0.0000 C   0  0  0  0  0  0  0  0  0  0  0  0
    5.6887   -5.0171    0.0000 C   0  0  0  0  0  0  0  0  0  0  0  0
    7.1427   -7.4775    0.0000 O   0  0  0  0  0  0  0  0  0  0  0  0
    7.8362   -5.4078    0.0000 C   0  0  2  0  0  0  0  0  0  0  0  0
    7.8446   -6.2328    0.0000 C   0  0  1  0  0  0  0  0  0  0  0  0
    7.1343   -6.6525    0.0000 C   0  0  2  0  0  0  0  0  0  0  0  0
    6.4157   -6.2473    0.0000 C   0  0  0  0  0  0  0  0  0  0  0  0
    6.4074   -5.4223    0.0000 C   0  0  2  0  0  0  0  0  0  0  0  0
    7.1176   -5.0026    0.0000 N   0  0  0  0  0  0  0  0  0  0  0  0
    8.5465   -4.9881    0.0000 C   0  0  0  0  0  0  0  0  0  0  0  0
    9.2651   -5.3933    0.0000 O   0  0  0  0  0  0  0  0  0  0  0  0
    8.5632   -6.6380    0.0000 O   0  0  0  0  0  0  0  0  0  0  0  0
    9.9753   -4.9736    0.0000 C   0  0  2  0  0  0  0  0  0  0  0  0
   10.6980   -5.3715    0.0000 O   0  0  0  0  0  0  0  0  0  0  0  0
   11.4040   -4.9446    0.0000 C   0  0  1  0  0  0  0  0  0  0  0  0
   11.4040   -4.1198    0.0000 C   0  0  2  0  0  0  0  0  0  0  0  0
   10.6980   -3.7219    0.0000 C   0  0  1  0  0  0  0  0  0  0  0  0
    9.9753   -4.1488    0.0000 C   0  0  1  0  0  0  0  0  0  0  0  0
   12.1226   -5.3498    0.0000 C   0  0  0  0  0  0  0  0  0  0  0  0
   12.8329   -4.9301    0.0000 O   0  0  0  0  0  0  0  0  0  0  0  0
   10.6897   -2.8969    0.0000 O   0  0  0  0  0  0  0  0  0  0  0  0
   12.1163   -3.7036    0.0000 O   0  0  0  0  0  0  0  0  0  0  0  0
    9.2588   -3.7398    0.0000 O   0  0  0  0  0  0  0  0  0  0  0  0
  8  2  1  1  0  0  0
  2  1  1  0  0  0  0
  6  3  1  1  0  0  0
  9  4  1  0  0  0  0
  5  4  1  0  0  0  0
  6  5  1  0  0  0  0
  7  6  1  0  0  0  0
  8  7  1  0  0  0  0
  9  8  1  0  0  0  0
  4 10  1  6  0  0  0
 10 11  1  0  0  0  0
  5 12  1  6  0  0  0
 13 11  1  1  0  0  0
 13 14  1  0  0  0  0
 14 15  1  0  0  0  0
 15 16  1  0  0  0  0
 16 17  1  0  0  0  0
 17 18  1  0  0  0  0
 18 13  1  0  0  0  0
 15 19  1  1  0  0  0
 19 20  1  0  0  0  0
 17 21  1  1  0  0  0
 16 22  1  6  0  0  0
 18 23  1  6  0  0  0
M  END
>  <cdx:fragmentId>
5

$$$$
