96894.cdx
  Mrv1902 05222410272D          

 25 27  0  0  0  0            999 V2000
    5.0374   -6.5587    0.0000 C   0  0  0  0  0  0  0  0  0  0  0  0
    5.0374   -7.3838    0.0000 C   0  0  0  0  0  0  0  0  0  0  0  0
    5.7519   -7.7963    0.0000 C   0  0  0  0  0  0  0  0  0  0  0  0
    6.4664   -7.3838    0.0000 C   0  0  0  0  0  0  0  0  0  0  0  0
    6.4664   -6.5587    0.0000 C   0  0  0  0  0  0  0  0  0  0  0  0
    5.7519   -6.1463    0.0000 C   0  0  0  0  0  0  0  0  0  0  0  0
    4.3230   -7.7963    0.0000 C   0  0  0  0  0  0  0  0  0  0  0  0
    3.6085   -7.3838    0.0000 C   0  0  0  0  0  0  0  0  0  0  0  0
    2.8940   -7.7963    0.0000 C   0  0  0  0  0  0  0  0  0  0  0  0
    2.1795   -7.3838    0.0000 C   0  0  0  0  0  0  0  0  0  0  0  0
    2.8940   -8.6212    0.0000 C   0  0  0  0  0  0  0  0  0  0  0  0
    4.3230   -6.1463    0.0000 O   0  0  0  0  0  0  0  0  0  0  0  0
    5.7519   -8.6212    0.0000 O   0  0  0  0  0  0  0  0  0  0  0  0
    7.1808   -7.7963    0.0000 C   0  0  0  0  0  0  0  0  0  0  0  0
    7.8953   -7.3838    0.0000 C   0  0  0  0  0  0  0  0  0  0  0  0
    7.1808   -8.6212    0.0000 O   0  0  0  0  0  0  0  0  0  0  0  0
    8.6490   -7.7193    0.0000 O   0  0  0  0  0  0  0  0  0  0  0  0
    9.2010   -7.1062    0.0000 C   0  0  0  0  0  0  0  0  0  0  0  0
    8.7885   -6.3917    0.0000 C   0  0  0  0  0  0  0  0  0  0  0  0
    7.9815   -6.5633    0.0000 C   0  0  0  0  0  0  0  0  0  0  0  0
   10.0260   -7.1062    0.0000 C   0  0  0  0  0  0  0  0  0  0  0  0
   10.4385   -6.3917    0.0000 C   0  0  0  0  0  0  0  0  0  0  0  0
   10.0260   -5.6773    0.0000 C   0  0  0  0  0  0  0  0  0  0  0  0
    9.2010   -5.6773    0.0000 C   0  0  0  0  0  0  0  0  0  0  0  0
   11.2635   -6.3917    0.0000 O   0  0  0  0  0  0  0  0  0  0  0  0
  1  2  2  0  0  0  0
  2  3  1  0  0  0  0
  3  4  2  0  0  0  0
  4  5  1  0  0  0  0
  5  6  2  0  0  0  0
  6  1  1  0  0  0  0
  2  7  1  0  0  0  0
  7  8  1  0  0  0  0
  8  9  2  0  0  0  0
  9 10  1  0  0  0  0
  9 11  1  0  0  0  0
  1 12  1  0  0  0  0
  3 13  1  0  0  0  0
  4 14  1  0  0  0  0
 14 15  1  0  0  0  0
 14 16  2  0  0  0  0
 15 17  1  0  0  0  0
 17 18  1  0  0  0  0
 18 19  2  0  0  0  0
 19 20  1  0  0  0  0
 20 15  2  0  0  0  0
 18 21  1  0  0  0  0
 21 22  2  0  0  0  0
 22 23  1  0  0  0  0
 23 24  2  0  0  0  0
 24 19  1  0  0  0  0
 22 25  1  0  0  0  0
M  END
>  <cdx:fragmentId>
5

$$$$
