96895.cdx
  Mrv1902 05222410262D          

 26 28  0  0  0  0            999 V2000
    4.1056   -8.7439    0.0000 C   0  0  0  0  0  0  0  0  0  0  0  0
    4.1147   -9.5689    0.0000 C   0  0  0  0  0  0  0  0  0  0  0  0
    9.1313   -7.3740    0.0000 O   0  0  0  0  0  0  0  0  0  0  0  0
    8.3740   -7.0468    0.0000 C   0  0  0  0  0  0  0  0  0  0  0  0
    8.4512   -6.2254    0.0000 C   0  0  0  0  0  0  0  0  0  0  0  0
    9.2562   -6.0450    0.0000 C   0  0  0  0  0  0  0  0  0  0  0  0
    9.6765   -6.7549    0.0000 C   0  0  0  0  0  0  0  0  0  0  0  0
    9.6608   -5.3260    0.0000 C   0  0  0  0  0  0  0  0  0  0  0  0
   10.4857   -5.3169    0.0000 C   0  0  0  0  0  0  0  0  0  0  0  0
   10.9061   -6.0268    0.0000 C   0  0  0  0  0  0  0  0  0  0  0  0
   10.5015   -6.7458    0.0000 C   0  0  0  0  0  0  0  0  0  0  0  0
   11.7310   -6.0177    0.0000 O   0  0  0  0  0  0  0  0  0  0  0  0
    6.2443   -8.3078    0.0000 O   0  0  0  0  0  0  0  0  0  0  0  0
    4.7882   -5.8487    0.0000 O   0  0  0  0  0  0  0  0  0  0  0  0
    5.5345   -8.7282    0.0000 O   0  0  0  0  0  0  0  0  0  0  0  0
    3.3866   -8.3393    0.0000 C   0  0  0  0  0  0  0  0  0  0  0  0
    4.8155   -8.3236    0.0000 C   0  0  0  0  0  0  0  0  0  0  0  0
    4.8064   -7.4986    0.0000 C   0  0  0  0  0  0  0  0  0  0  0  0
    6.9360   -6.2376    0.0000 C   0  0  0  0  0  0  0  0  0  0  0  0
    6.2171   -5.8330    0.0000 C   0  0  0  0  0  0  0  0  0  0  0  0
    5.5072   -6.2533    0.0000 C   0  0  0  0  0  0  0  0  0  0  0  0
    5.5163   -7.0783    0.0000 C   0  0  0  0  0  0  0  0  0  0  0  0
    6.2352   -7.4829    0.0000 C   0  0  0  0  0  0  0  0  0  0  0  0
    6.9451   -7.0625    0.0000 C   0  0  0  0  0  0  0  0  0  0  0  0
    7.6732   -8.2921    0.0000 O   0  0  0  0  0  0  0  0  0  0  0  0
    7.6641   -7.4671    0.0000 C   0  0  0  0  0  0  0  0  0  0  0  0
 26 24  1  0  0  0  0
 23 13  1  0  0  0  0
 21 14  1  0  0  0  0
 22 18  1  0  0  0  0
 17 15  1  0  0  0  0
 17  1  1  0  0  0  0
 18 17  1  0  0  0  0
 24 19  2  0  0  0  0
 20 19  1  0  0  0  0
 21 20  2  0  0  0  0
 22 21  1  0  0  0  0
 23 22  2  0  0  0  0
 24 23  1  0  0  0  0
 26  4  1  0  0  0  0
  3  4  1  0  0  0  0
 26 25  2  0  0  0  0
  1  2  2  0  0  0  0
  1 16  1  0  0  0  0
  4  5  2  0  0  0  0
  5  6  1  0  0  0  0
  6  7  1  0  0  0  0
  3  7  1  0  0  0  0
  8  9  1  0  0  0  0
  9 10  2  0  0  0  0
 10 11  1  0  0  0  0
 11  7  2  0  0  0  0
  8  6  2  0  0  0  0
 10 12  1  0  0  0  0
M  END
>  <cdx:fragmentId>
29

$$$$
