96909.cdx
  Mrv1902 05222410262D          

 33 39  0  0  0  0            999 V2000
    6.6412   -7.7725    0.0000 N   0  0  0  0  0  0  0  0  0  0  0  0
    7.3026   -8.2656    0.0000 C   0  0  0  0  0  0  0  0  0  0  0  0
    7.0381   -9.0470    0.0000 C   0  0  0  0  0  0  0  0  0  0  0  0
    6.2132   -9.0369    0.0000 C   0  0  0  0  0  0  0  0  0  0  0  0
    5.6537   -9.6433    0.0000 C   0  0  0  0  0  0  0  0  0  0  0  0
    4.8489   -9.4619    0.0000 C   0  0  0  0  0  0  0  0  0  0  0  0
    4.6036   -8.6742    0.0000 C   0  0  0  0  0  0  0  0  0  0  0  0
    5.1630   -8.0679    0.0000 C   0  0  0  0  0  0  0  0  0  0  0  0
    5.9679   -8.2493    0.0000 C   0  0  0  0  0  0  0  0  0  0  0  0
    8.1116   -8.1039    0.0000 C   0  0  0  0  0  0  0  0  0  0  0  0
    7.5827   -9.6668    0.0000 C   0  0  0  0  0  0  0  0  0  0  0  0
    8.3917   -9.5051    0.0000 C   0  0  0  0  0  0  0  0  0  0  0  0
    8.6562   -8.7237    0.0000 N   0  0  0  0  0  0  0  0  0  0  0  0
    9.4199   -3.4270    0.0000 C   0  0  0  0  0  0  0  0  0  0  0  0
   10.0262   -3.9864    0.0000 O   0  0  0  0  0  0  0  0  0  0  0  0
    9.7153   -7.8052    0.0000 C   0  0  0  0  0  0  0  0  0  0  0  0
    7.0194   -6.8941    0.0000 O   0  0  0  0  0  0  0  0  0  0  0  0
    8.8758   -5.8414    0.0000 C   0  0  0  0  0  0  0  0  0  0  0  0
    7.7280   -5.1599    0.0000 C   0  0  0  0  0  0  0  0  0  0  0  0
    6.9466   -4.8954    0.0000 C   0  0  0  0  0  0  0  0  0  0  0  0
    6.7849   -4.0864    0.0000 C   0  0  0  0  0  0  0  0  0  0  0  0
    7.4047   -3.5419    0.0000 C   0  0  0  0  0  0  0  0  0  0  0  0
    8.1861   -3.8064    0.0000 C   0  0  0  0  0  0  0  0  0  0  0  0
    8.3478   -4.6154    0.0000 C   0  0  0  0  0  0  0  0  0  0  0  0
    9.0572   -5.0366    0.0000 C   0  0  0  0  0  0  0  0  0  0  0  0
    9.8449   -4.7913    0.0000 C   0  0  0  0  0  0  0  0  0  0  0  0
   10.4512   -5.3507    0.0000 C   0  0  0  0  0  0  0  0  0  0  0  0
   10.2698   -6.1556    0.0000 N   0  0  0  0  0  0  0  0  0  0  0  0
    9.4822   -6.4009    0.0000 C   0  0  0  0  0  0  0  0  0  0  0  0
    9.1872   -7.1714    0.0000 C   0  0  0  0  0  0  0  0  0  0  0  0
    8.3761   -7.3224    0.0000 C   0  0  0  0  0  0  0  0  0  0  0  0
    7.8236   -6.7098    0.0000 C   0  0  0  0  0  0  0  0  0  0  0  0
    8.0544   -5.9176    0.0000 N   0  0  0  0  0  0  0  0  0  0  0  0
 26 15  1  0  0  0  0
 15 14  1  0  0  0  0
 30 16  1  0  0  0  0
 32 17  2  0  0  0  0
 29 18  2  0  0  0  0
 24 19  1  0  0  0  0
 18 25  1  0  0  0  0
 33 18  1  0  0  0  0
 33 19  1  0  0  0  0
 20 19  2  0  0  0  0
 21 20  1  0  0  0  0
 22 21  2  0  0  0  0
 23 22  1  0  0  0  0
 24 23  2  0  0  0  0
 25 24  1  0  0  0  0
 26 25  2  0  0  0  0
 27 26  1  0  0  0  0
 28 27  2  0  0  0  0
 29 28  1  0  0  0  0
 30 29  1  0  0  0  0
 31 30  2  0  0  0  0
 32 31  1  0  0  0  0
 33 32  1  0  0  0  0
  1  2  1  0  0  0  0
  2  3  2  0  0  0  0
  3  4  1  0  0  0  0
  4  5  1  0  0  0  0
  5  6  2  0  0  0  0
  6  7  1  0  0  0  0
  7  8  2  0  0  0  0
  8  9  1  0  0  0  0
  1  9  1  0  0  0  0
  4  9  2  0  0  0  0
 11 12  2  0  0  0  0
 12 13  1  0  0  0  0
 10 13  2  0  0  0  0
 10  2  1  0  0  0  0
 11  3  1  0  0  0  0
 31 10  1  0  0  0  0
M  END
>  <cdx:fragmentId>
5

$$$$
