96910.cdx
  Mrv1902 05222410202D          

 32 37  0  0  0  0            999 V2000
    9.5604   -3.2503    0.0000 C   0  0  0  0  0  0  0  0  0  0  0  0
    9.3200   -2.4611    0.0000 C   0  0  0  0  0  0  0  0  0  0  0  0
    8.5164   -2.2746    0.0000 C   0  0  0  0  0  0  0  0  0  0  0  0
    7.9531   -2.8774    0.0000 C   0  0  0  0  0  0  0  0  0  0  0  0
    7.1129   -8.2416    0.0000 N   0  0  0  0  0  0  0  0  0  0  0  0
    7.7712   -8.7388    0.0000 C   0  0  0  0  0  0  0  0  0  0  0  0
    7.5018   -9.5186    0.0000 C   0  0  0  0  0  0  0  0  0  0  0  0
    6.6770   -9.5033    0.0000 C   0  0  0  0  0  0  0  0  0  0  0  0
    6.1137  -10.1061    0.0000 C   0  0  0  0  0  0  0  0  0  0  0  0
    5.3100   -9.9196    0.0000 C   0  0  0  0  0  0  0  0  0  0  0  0
    5.0696   -9.1304    0.0000 C   0  0  0  0  0  0  0  0  0  0  0  0
    5.6329   -8.5276    0.0000 C   0  0  0  0  0  0  0  0  0  0  0  0
    6.4366   -8.7141    0.0000 C   0  0  0  0  0  0  0  0  0  0  0  0
    8.5813   -8.5823    0.0000 C   0  0  0  0  0  0  0  0  0  0  0  0
    8.0424  -10.1418    0.0000 C   0  0  0  0  0  0  0  0  0  0  0  0
    8.8524   -9.9852    0.0000 C   0  0  0  0  0  0  0  0  0  0  0  0
    9.1218   -9.2055    0.0000 N   0  0  0  0  0  0  0  0  0  0  0  0
    7.7730  -10.9216    0.0000 O   0  0  0  0  0  0  0  0  0  0  0  0
    6.9630  -11.0781    0.0000 C   0  0  0  0  0  0  0  0  0  0  0  0
    9.0681   -4.6750    0.0000 N   0  0  0  0  0  0  0  0  0  0  0  0
    8.9971   -3.8531    0.0000 C   0  0  0  0  0  0  0  0  0  0  0  0
    8.1935   -3.6666    0.0000 C   0  0  0  0  0  0  0  0  0  0  0  0
    8.3084   -4.9965    0.0000 C   0  0  0  0  0  0  0  0  0  0  0  0
    7.7678   -4.3733    0.0000 C   0  0  0  0  0  0  0  0  0  0  0  0
    6.9578   -4.5299    0.0000 C   0  0  0  0  0  0  0  0  0  0  0  0
    6.6884   -5.3096    0.0000 C   0  0  0  0  0  0  0  0  0  0  0  0
    7.2289   -5.9329    0.0000 N   0  0  0  0  0  0  0  0  0  0  0  0
    8.0389   -5.7763    0.0000 C   0  0  0  0  0  0  0  0  0  0  0  0
    9.3895   -6.2430    0.0000 O   0  0  0  0  0  0  0  0  0  0  0  0
    8.8507   -7.8025    0.0000 C   0  0  0  0  0  0  0  0  0  0  0  0
    8.3101   -7.1793    0.0000 C   0  0  0  0  0  0  0  0  0  0  0  0
    8.5795   -6.3995    0.0000 C   0  0  0  0  0  0  0  0  0  0  0  0
  1 21  1  0  0  0  0
  2  1  2  0  0  0  0
  3  2  1  0  0  0  0
  4  3  2  0  0  0  0
 22  4  1  0  0  0  0
 20 23  1  0  0  0  0
 21 20  1  0  0  0  0
 22 21  2  0  0  0  0
 24 22  1  0  0  0  0
  5  6  1  0  0  0  0
  6  7  2  0  0  0  0
  7  8  1  0  0  0  0
  8  9  1  0  0  0  0
  9 10  2  0  0  0  0
 10 11  1  0  0  0  0
 11 12  2  0  0  0  0
 12 13  1  0  0  0  0
  5 13  1  0  0  0  0
  8 13  2  0  0  0  0
 15 16  2  0  0  0  0
 16 17  1  0  0  0  0
 14 17  2  0  0  0  0
 14  6  1  0  0  0  0
 15  7  1  0  0  0  0
 18 19  1  0  0  0  0
 15 18  1  0  0  0  0
 30 14  1  0  0  0  0
 23 28  1  0  0  0  0
 24 23  2  0  0  0  0
 25 24  1  0  0  0  0
 26 25  2  0  0  0  0
 27 26  1  0  0  0  0
 28 27  2  0  0  0  0
 32 28  1  0  0  0  0
 32 29  2  0  0  0  0
 31 30  1  0  0  0  0
 32 31  1  0  0  0  0
M  END
>  <cdx:fragmentId>
13

$$$$
