96916.cdx
  Mrv1902 05222410192D          

 39 42  0  0  0  0            999 V2000
    5.0167   -6.3920    0.0000 C   0  0  0  0  0  0  0  0  0  0  0  0
    5.7373   -5.9902    0.0000 C   0  0  0  0  0  0  0  0  0  0  0  0
    5.7127   -7.6400    0.0000 O   0  0  0  0  0  0  0  0  0  0  0  0
    5.7496   -5.1653    0.0000 C   0  0  0  0  0  0  0  0  0  0  0  0
    5.0413   -4.7422    0.0000 C   0  0  0  0  0  0  0  0  0  0  0  0
    5.0536   -3.9173    0.0000 C   0  0  0  0  0  0  0  0  0  0  0  0
    5.7742   -3.5155    0.0000 C   0  0  0  0  0  0  0  0  0  0  0  0
    6.4824   -3.9386    0.0000 C   0  0  0  0  0  0  0  0  0  0  0  0
    6.4701   -4.7635    0.0000 C   0  0  0  0  0  0  0  0  0  0  0  0
    4.3085   -5.9689    0.0000 O   0  0  0  0  0  0  0  0  0  0  0  0
    6.4209   -8.0631    0.0000 H   0  0  0  0  0  0  0  0  0  0  0  0
    5.6942   -8.4756    0.0000 C   0  0  0  0  0  0  0  0  0  0  0  0
    6.4086   -8.8881    0.0000 C   0  0  0  0  0  0  0  0  0  0  0  0
    8.5949   -6.0328    0.0000 O   0  0  0  0  0  0  0  0  0  0  0  0
    7.8301  -11.3843    0.0000 O   0  0  0  0  0  0  0  0  0  0  0  0
    6.4037  -12.2136    0.0000 O   0  0  0  0  0  0  0  0  0  0  0  0
    4.9723  -11.3929    0.0000 O   0  0  0  0  0  0  0  0  0  0  0  0
    4.2540  -10.1576    0.0000 O   0  0  0  0  0  0  0  0  0  0  0  0
    4.9672   -9.7430    0.0000 C   0  0  0  0  0  0  0  0  0  0  0  0
    5.6830  -10.1533    0.0000 C   0  0  2  0  0  0  0  0  0  0  0  0
    5.6855  -10.9783    0.0000 C   0  0  2  0  0  0  0  0  0  0  0  0
    6.4012  -11.3886    0.0000 C   0  0  1  0  0  0  0  0  0  0  0  0
    7.1144  -10.9739    0.0000 C   0  0  2  0  0  0  0  0  0  0  0  0
    7.1119  -10.1489    0.0000 C   0  0  1  0  0  0  0  0  0  0  0  0
    6.3962   -9.7386    0.0000 O   0  0  0  0  0  0  0  0  0  0  0  0
    7.8251   -9.7343    0.0000 O   0  0  0  0  0  0  0  0  0  0  0  0
    8.5580   -8.5076    0.0000 O   0  0  0  0  0  0  0  0  0  0  0  0
    7.8374   -8.9094    0.0000 C   0  0  2  0  0  0  0  0  0  0  0  0
    7.1292   -8.4862    0.0000 C   0  0  1  0  0  0  0  0  0  0  0  0
    8.5703   -7.6826    0.0000 C   0  0  0  0  0  0  0  0  0  0  0  0
    7.1661   -6.0115    0.0000 O   0  0  0  0  0  0  0  0  0  0  0  0
    6.4455   -6.4133    0.0000 C   0  0  1  0  0  0  0  0  0  0  0  0
    6.4332   -7.2382    0.0000 C   0  0  0  0  0  0  0  0  0  0  0  0
    7.1415   -7.6613    0.0000 C   0  0  2  0  0  0  0  0  0  0  0  0
    7.8620   -7.2595    0.0000 C   0  0  0  0  0  0  0  0  0  0  0  0
    7.8743   -6.4346    0.0000 C   0  0  0  0  0  0  0  0  0  0  0  0
    4.2839   -7.6187    0.0000 O   0  0  0  0  0  0  0  0  0  0  0  0
    5.0044   -7.2169    0.0000 C   0  0  0  0  0  0  0  0  0  0  0  0
    6.4578   -5.5884    0.0000 H   0  0  0  0  0  0  0  0  0  0  0  0
 34 11  1  1  0  0  0
 32  2  1  0  0  0  0
 29 13  1  6  0  0  0
 13 12  2  0  0  0  0
 36 14  2  0  0  0  0
 28 26  1  1  0  0  0
 24 26  1  1  0  0  0
 23 15  1  6  0  0  0
 22 16  1  1  0  0  0
 21 17  1  6  0  0  0
 20 19  1  1  0  0  0
 19 18  1  0  0  0  0
 25 20  1  0  0  0  0
 21 20  1  0  0  0  0
 22 21  1  0  0  0  0
 23 22  1  0  0  0  0
 24 23  1  0  0  0  0
 25 24  1  0  0  0  0
 29 34  1  0  0  0  0
 30 35  2  0  0  0  0
 30 27  1  0  0  0  0
 28 27  1  0  0  0  0
 29 28  1  0  0  0  0
 36 31  1  0  0  0  0
 32 31  1  0  0  0  0
 33 32  1  0  0  0  0
 34 33  1  0  0  0  0
 35 34  1  0  0  0  0
 36 35  1  0  0  0  0
 38  3  1  0  0  0  0
 38 37  2  0  0  0  0
 38  1  1  0  0  0  0
  1  2  2  0  0  0  0
  4  5  1  0  0  0  0
  5  6  2  0  0  0  0
  6  7  1  0  0  0  0
  7  8  2  0  0  0  0
  8  9  1  0  0  0  0
  4  9  2  0  0  0  0
  2  4  1  0  0  0  0
  1 10  1  0  0  0  0
 32 39  1  6  0  0  0
M  END
>  <cdx:fragmentId>
159

$$$$
