96911.cdx
  Mrv1902 05222410202D          

 36 41  0  0  0  0            999 V2000
    9.7206   -6.8634    0.0000 C   0  0  0  0  0  0  0  0  0  0  0  0
    9.4569   -7.6452    0.0000 O   0  0  0  0  0  0  0  0  0  0  0  0
    5.7484   -7.1624    0.0000 C   0  0  0  0  0  0  0  0  0  0  0  0
    5.1896   -7.7693    0.0000 O   0  0  0  0  0  0  0  0  0  0  0  0
    9.3240   -3.2504    0.0000 C   0  0  0  0  0  0  0  0  0  0  0  0
    9.0778   -2.4630    0.0000 C   0  0  0  0  0  0  0  0  0  0  0  0
    8.2728   -2.2825    0.0000 C   0  0  0  0  0  0  0  0  0  0  0  0
    7.7140   -2.8894    0.0000 C   0  0  0  0  0  0  0  0  0  0  0  0
    6.9136   -8.2597    0.0000 N   0  0  0  0  0  0  0  0  0  0  0  0
    7.5757   -8.7520    0.0000 C   0  0  0  0  0  0  0  0  0  0  0  0
    7.3120   -9.5338    0.0000 C   0  0  0  0  0  0  0  0  0  0  0  0
    6.4871   -9.5246    0.0000 C   0  0  0  0  0  0  0  0  0  0  0  0
    5.9283  -10.1315    0.0000 C   0  0  0  0  0  0  0  0  0  0  0  0
    5.1232   -9.9511    0.0000 C   0  0  0  0  0  0  0  0  0  0  0  0
    4.8770   -9.1637    0.0000 C   0  0  0  0  0  0  0  0  0  0  0  0
    5.4358   -8.5567    0.0000 C   0  0  0  0  0  0  0  0  0  0  0  0
    6.2409   -8.7372    0.0000 C   0  0  0  0  0  0  0  0  0  0  0  0
    8.3845   -8.5895    0.0000 C   0  0  0  0  0  0  0  0  0  0  0  0
    7.8572  -10.1530    0.0000 C   0  0  0  0  0  0  0  0  0  0  0  0
    8.6660   -9.9904    0.0000 C   0  0  0  0  0  0  0  0  0  0  0  0
    8.9297   -9.2087    0.0000 N   0  0  0  0  0  0  0  0  0  0  0  0
    7.5936  -10.9347    0.0000 O   0  0  0  0  0  0  0  0  0  0  0  0
    6.7848  -11.0973    0.0000 C   0  0  0  0  0  0  0  0  0  0  0  0
    8.8423   -4.6787    0.0000 N   0  0  0  0  0  0  0  0  0  0  0  0
    8.7652   -3.8573    0.0000 C   0  0  0  0  0  0  0  0  0  0  0  0
    7.9602   -3.6768    0.0000 C   0  0  0  0  0  0  0  0  0  0  0  0
    8.0850   -5.0059    0.0000 C   0  0  0  0  0  0  0  0  0  0  0  0
    7.5398   -4.3867    0.0000 C   0  0  0  0  0  0  0  0  0  0  0  0
    6.7310   -4.5492    0.0000 C   0  0  0  0  0  0  0  0  0  0  0  0
    6.4673   -5.3310    0.0000 C   0  0  0  0  0  0  0  0  0  0  0  0
    7.0125   -5.9502    0.0000 N   0  0  0  0  0  0  0  0  0  0  0  0
    7.8214   -5.7876    0.0000 C   0  0  0  0  0  0  0  0  0  0  0  0
    9.1754   -6.2442    0.0000 O   0  0  0  0  0  0  0  0  0  0  0  0
    8.6481   -7.8077    0.0000 C   0  0  0  0  0  0  0  0  0  0  0  0
    8.1029   -7.1885    0.0000 C   0  0  0  0  0  0  0  0  0  0  0  0
    8.3665   -6.4068    0.0000 C   0  0  0  0  0  0  0  0  0  0  0  0
 33  1  1  0  0  0  0
 34  2  1  0  0  0  0
  4  3  1  0  0  0  0
 16  4  1  0  0  0  0
  5 25  1  0  0  0  0
  6  5  2  0  0  0  0
  7  6  1  0  0  0  0
  8  7  2  0  0  0  0
 26  8  1  0  0  0  0
 24 27  1  0  0  0  0
 25 24  1  0  0  0  0
 26 25  2  0  0  0  0
 28 26  1  0  0  0  0
  9 10  1  0  0  0  0
 10 11  2  0  0  0  0
 11 12  1  0  0  0  0
 12 13  1  0  0  0  0
 13 14  2  0  0  0  0
 14 15  1  0  0  0  0
 15 16  2  0  0  0  0
 16 17  1  0  0  0  0
  9 17  1  0  0  0  0
 12 17  2  0  0  0  0
 19 20  2  0  0  0  0
 20 21  1  0  0  0  0
 18 21  2  0  0  0  0
 18 10  1  0  0  0  0
 19 11  1  0  0  0  0
 22 23  1  0  0  0  0
 19 22  1  0  0  0  0
 34 18  1  0  0  0  0
 27 32  1  0  0  0  0
 28 27  2  0  0  0  0
 29 28  1  0  0  0  0
 30 29  2  0  0  0  0
 31 30  1  0  0  0  0
 32 31  2  0  0  0  0
 36 32  1  0  0  0  0
 36 33  1  0  0  0  0
 35 34  1  0  0  0  0
 36 35  1  0  0  0  0
M  END
>  <cdx:fragmentId>
13

$$$$
