96914.cdx
  Mrv1902 05222410182D          

 36 40  0  0  0  0            999 V2000
    8.0502   -7.9635    0.0000 C   0  0  2  0  0  0  0  0  0  0  0  0
    8.7660   -7.5533    0.0000 C   0  0  1  0  0  0  0  0  0  0  0  0
    9.4791   -7.9680    0.0000 C   0  0  1  0  0  0  0  0  0  0  0  0
   10.1949   -7.5577    0.0000 O   0  0  0  0  0  0  0  0  0  0  0  0
   10.1975   -6.7327    0.0000 C   0  0  0  0  0  0  0  0  0  0  0  0
    9.4843   -6.3180    0.0000 C   0  0  0  0  0  0  0  0  0  0  0  0
    8.7685   -6.7283    0.0000 C   0  0  1  0  0  0  0  0  0  0  0  0
    8.0554   -6.3135    0.0000 C   0  0  0  0  0  0  0  0  0  0  0  0
    7.3396   -6.7238    0.0000 C   0  0  1  0  0  0  0  0  0  0  0  0
    6.6493   -7.1368    0.0000 C   0  0  0  0  0  0  0  0  0  0  0  0
    6.6518   -7.9411    0.0000 C   0  0  0  0  0  0  0  0  0  0  0  0
    7.3446   -8.3498    0.0000 O   0  0  0  0  0  0  0  0  0  0  0  0
    8.0575   -7.1225    0.0000 C   0  0  0  0  0  0  0  0  0  0  0  0
    9.4869   -5.4930    0.0000 C   0  0  0  0  0  0  0  0  0  0  0  0
    8.7737   -5.0783    0.0000 O   0  0  0  0  0  0  0  0  0  0  0  0
   10.2026   -5.0827    0.0000 O   0  0  0  0  0  0  0  0  0  0  0  0
    5.9361   -6.7220    0.0000 C   0  0  0  0  0  0  0  0  0  0  0  0
    5.2204   -7.1323    0.0000 C   0  0  0  0  0  0  0  0  0  0  0  0
    4.5072   -6.7176    0.0000 C   0  0  0  0  0  0  0  0  0  0  0  0
    4.5098   -5.8926    0.0000 C   0  0  0  0  0  0  0  0  0  0  0  0
    5.2255   -5.4823    0.0000 C   0  0  0  0  0  0  0  0  0  0  0  0
    5.9387   -5.8970    0.0000 C   0  0  0  0  0  0  0  0  0  0  0  0
    8.7634   -8.3782    0.0000 H   0  0  0  0  0  0  0  0  0  0  0  0
    8.7711   -5.9033    0.0000 H   0  0  0  0  0  0  0  0  0  0  0  0
    9.4714  -10.4430    0.0000 O   0  0  0  0  0  0  0  0  0  0  0  0
    8.0399  -11.2635    0.0000 O   0  0  0  0  0  0  0  0  0  0  0  0
    6.6135  -10.4340    0.0000 O   0  0  0  0  0  0  0  0  0  0  0  0
    5.9029   -9.1943    0.0000 O   0  0  0  0  0  0  0  0  0  0  0  0
    6.6187   -8.7841    0.0000 C   0  0  0  0  0  0  0  0  0  0  0  0
    7.3319   -9.1988    0.0000 C   0  0  2  0  0  0  0  0  0  0  0  0
    7.3293  -10.0238    0.0000 C   0  0  2  0  0  0  0  0  0  0  0  0
    8.0425  -10.4385    0.0000 C   0  0  1  0  0  0  0  0  0  0  0  0
    8.7582  -10.0282    0.0000 C   0  0  2  0  0  0  0  0  0  0  0  0
    8.7608   -9.2032    0.0000 C   0  0  1  0  0  0  0  0  0  0  0  0
    8.0476   -8.7885    0.0000 O   0  0  0  0  0  0  0  0  0  0  0  0
    9.4766   -8.7930    0.0000 O   0  0  0  0  0  0  0  0  0  0  0  0
 34 36  1  1  0  0  0
 33 25  1  6  0  0  0
 32 26  1  1  0  0  0
 31 27  1  6  0  0  0
 30 29  1  1  0  0  0
 29 28  1  0  0  0  0
 35 30  1  0  0  0  0
 31 30  1  0  0  0  0
 32 31  1  0  0  0  0
 33 32  1  0  0  0  0
 34 33  1  0  0  0  0
 35 34  1  0  0  0  0
  1  2  1  0  0  0  0
  2  3  1  0  0  0  0
  3  4  1  0  0  0  0
  4  5  1  0  0  0  0
  5  6  2  0  0  0  0
  6  7  1  0  0  0  0
  7  8  1  0  0  0  0
  8  9  1  0  0  0  0
  9 10  1  0  0  0  0
 10 11  2  0  0  0  0
 11 12  1  0  0  0  0
  1 12  1  0  0  0  0
  1 13  1  1  0  0  0
  9 13  1  1  0  0  0
  2  7  1  0  0  0  0
 14 15  2  0  0  0  0
 14 16  1  0  0  0  0
  6 14  1  0  0  0  0
  3 36  1  1  0  0  0
 17 18  1  0  0  0  0
 18 19  2  0  0  0  0
 19 20  1  0  0  0  0
 20 21  2  0  0  0  0
 21 22  1  0  0  0  0
 17 22  2  0  0  0  0
 10 17  1  0  0  0  0
  2 23  1  1  0  0  0
  7 24  1  1  0  0  0
M  END
>  <cdx:fragmentId>
5

$$$$
