96917.cdx
  Mrv1902 05222410192D          

 39 42  0  0  0  0            999 V2000
    7.7407   -9.1147    0.0000 C   0  0  1  0  0  0  0  0  0  0  0  0
    7.0265   -8.7017    0.0000 C   0  0  1  0  0  0  0  0  0  0  0  0
    7.0271   -7.8767    0.0000 C   0  0  1  0  0  0  0  0  0  0  0  0
    7.7419   -7.4647    0.0000 C   0  0  0  0  0  0  0  0  0  0  0  0
    8.4561   -7.8777    0.0000 C   0  0  0  0  0  0  0  0  0  0  0  0
    8.4555   -8.7027    0.0000 O   0  0  0  0  0  0  0  0  0  0  0  0
    8.4573   -6.2277    0.0000 O   0  0  0  0  0  0  0  0  0  0  0  0
    7.7401   -9.9397    0.0000 O   0  0  0  0  0  0  0  0  0  0  0  0
    6.3113   -9.9201    0.0000 O   0  0  0  0  0  0  0  0  0  0  0  0
    7.0200  -10.3424    0.0000 C   0  0  2  0  0  0  0  0  0  0  0  0
    7.0087  -11.1673    0.0000 C   0  0  1  0  0  0  0  0  0  0  0  0
    6.2887  -11.5700    0.0000 C   0  0  2  0  0  0  0  0  0  0  0  0
    5.5799  -11.1477    0.0000 C   0  0  1  0  0  0  0  0  0  0  0  0
    5.5912  -10.3228    0.0000 C   0  0  1  0  0  0  0  0  0  0  0  0
    4.8825   -9.9005    0.0000 C   0  0  0  0  0  0  0  0  0  0  0  0
    4.1624  -10.3032    0.0000 O   0  0  0  0  0  0  0  0  0  0  0  0
    4.8599  -11.5504    0.0000 O   0  0  0  0  0  0  0  0  0  0  0  0
    6.2774  -12.3949    0.0000 O   0  0  0  0  0  0  0  0  0  0  0  0
    7.7175  -11.5895    0.0000 O   0  0  0  0  0  0  0  0  0  0  0  0
    6.2362   -7.4772    0.0000 C   0  0  0  0  0  0  0  0  0  0  0  0
    6.7297   -5.9905    0.0000 O   0  0  0  0  0  0  0  0  0  0  0  0
    6.2370   -6.6522    0.0000 C   0  0  1  0  0  0  0  0  0  0  0  0
    5.4554   -6.3881    0.0000 C   0  0  0  0  0  0  0  0  0  0  0  0
    5.4651   -5.5632    0.0000 C   0  0  0  0  0  0  0  0  0  0  0  0
    6.2527   -5.3174    0.0000 C   0  0  0  0  0  0  0  0  0  0  0  0
    4.7824   -6.8652    0.0000 C   0  0  0  0  0  0  0  0  0  0  0  0
    4.7909   -7.6901    0.0000 C   0  0  0  0  0  0  0  0  0  0  0  0
    4.0807   -8.1100    0.0000 C   0  0  0  0  0  0  0  0  0  0  0  0
    3.3620   -7.7049    0.0000 C   0  0  0  0  0  0  0  0  0  0  0  0
    3.3535   -6.8800    0.0000 C   0  0  0  0  0  0  0  0  0  0  0  0
    4.0636   -6.4601    0.0000 C   0  0  0  0  0  0  0  0  0  0  0  0
    6.5168   -4.5359    0.0000 O   0  0  0  0  0  0  0  0  0  0  0  0
    4.8034   -5.0704    0.0000 O   0  0  0  0  0  0  0  0  0  0  0  0
    6.3118   -9.1136    0.0000 C   0  0  0  0  0  0  0  0  0  0  0  0
    5.5976   -8.7006    0.0000 C   0  0  0  0  0  0  0  0  0  0  0  0
    7.0284   -6.2267    0.0000 O   0  0  0  0  0  0  0  0  0  0  0  0
    7.7425   -6.6397    0.0000 C   0  0  0  0  0  0  0  0  0  0  0  0
    7.0277   -7.0517    0.0000 H   0  0  0  0  0  0  0  0  0  0  0  0
    5.6783   -7.2592    0.0000 H   0  0  0  0  0  0  0  0  0  0  0  0
 37  7  1  0  0  0  0
 37 36  2  0  0  0  0
  1  2  1  0  0  0  0
  2  3  1  0  0  0  0
  3  4  1  0  0  0  0
  4  5  2  0  0  0  0
  5  6  1  0  0  0  0
  1  6  1  0  0  0  0
  4 37  1  0  0  0  0
  9 10  1  0  0  0  0
 10 11  1  0  0  0  0
 11 12  1  0  0  0  0
 12 13  1  0  0  0  0
 13 14  1  0  0  0  0
  9 14  1  0  0  0  0
 15 16  1  0  0  0  0
 14 15  1  1  0  0  0
 13 17  1  6  0  0  0
 12 18  1  1  0  0  0
 11 19  1  6  0  0  0
 10  8  1  1  0  0  0
  1  8  1  1  0  0  0
 21 22  1  0  0  0  0
 22 23  1  0  0  0  0
 23 24  2  0  0  0  0
 24 25  1  0  0  0  0
 21 25  1  0  0  0  0
 26 27  1  0  0  0  0
 27 28  2  0  0  0  0
 28 29  1  0  0  0  0
 29 30  2  0  0  0  0
 30 31  1  0  0  0  0
 26 31  2  0  0  0  0
 23 26  1  0  0  0  0
 25 32  2  0  0  0  0
 24 33  1  0  0  0  0
 22 20  1  0  0  0  0
  3 20  1  0  0  0  0
 34 35  2  0  0  0  0
  2 34  1  6  0  0  0
  3 38  1  1  0  0  0
 22 39  1  1  0  0  0
M  END
>  <cdx:fragmentId>
25

$$$$
