96918.cdx
  Mrv1902 05222410282D          

 35 38  0  0  0  0            999 V2000
    9.1312   -8.4106    0.0000 C   0  0  0  0  0  0  0  0  0  0  0  0
    9.1312   -7.5856    0.0000 C   0  0  0  0  0  0  0  0  0  0  0  0
    8.4167   -7.1731    0.0000 C   0  0  0  0  0  0  0  0  0  0  0  0
    7.7022   -7.5856    0.0000 C   0  0  0  0  0  0  0  0  0  0  0  0
    6.9878   -7.1731    0.0000 C   0  0  0  0  0  0  0  0  0  0  0  0
    6.2733   -7.5856    0.0000 C   0  0  0  0  0  0  0  0  0  0  0  0
    6.2733   -8.4106    0.0000 C   0  0  0  0  0  0  0  0  0  0  0  0
    6.9878   -8.8231    0.0000 C   0  0  0  0  0  0  0  0  0  0  0  0
    7.7022   -8.4106    0.0000 C   0  0  0  0  0  0  0  0  0  0  0  0
    8.4167   -8.8231    0.0000 O   0  0  0  0  0  0  0  0  0  0  0  0
    8.4167   -6.3481    0.0000 O   0  0  0  0  0  0  0  0  0  0  0  0
    5.5588   -8.8231    0.0000 O   0  0  0  0  0  0  0  0  0  0  0  0
    4.1299   -8.8231    0.0000 O   0  0  0  0  0  0  0  0  0  0  0  0
    4.8443   -8.4106    0.0000 C   0  0  2  0  0  0  0  0  0  0  0  0
    4.8443   -7.5856    0.0000 C   0  0  1  0  0  0  0  0  0  0  0  0
    4.1299   -7.1731    0.0000 C   0  0  2  0  0  0  0  0  0  0  0  0
    3.4154   -7.5856    0.0000 C   0  0  1  0  0  0  0  0  0  0  0  0
    3.4154   -8.4106    0.0000 C   0  0  1  0  0  0  0  0  0  0  0  0
    2.7009   -8.8231    0.0000 C   0  0  0  0  0  0  0  0  0  0  0  0
    1.9865   -8.4106    0.0000 O   0  0  0  0  0  0  0  0  0  0  0  0
    2.7009   -7.1731    0.0000 O   0  0  0  0  0  0  0  0  0  0  0  0
    4.1299   -6.3481    0.0000 O   0  0  0  0  0  0  0  0  0  0  0  0
    5.5588   -7.1731    0.0000 O   0  0  0  0  0  0  0  0  0  0  0  0
    9.8456   -8.8231    0.0000 C   0  0  0  0  0  0  0  0  0  0  0  0
   10.5601   -8.4106    0.0000 C   0  0  0  0  0  0  0  0  0  0  0  0
   11.2746   -8.8231    0.0000 C   0  0  0  0  0  0  0  0  0  0  0  0
   11.2746   -9.6481    0.0000 C   0  0  0  0  0  0  0  0  0  0  0  0
   10.5601  -10.0606    0.0000 C   0  0  0  0  0  0  0  0  0  0  0  0
    9.8456   -9.6481    0.0000 C   0  0  0  0  0  0  0  0  0  0  0  0
   10.5601  -10.8856    0.0000 O   0  0  0  0  0  0  0  0  0  0  0  0
   11.2746  -11.2981    0.0000 C   0  0  0  0  0  0  0  0  0  0  0  0
   11.9890   -8.4106    0.0000 O   0  0  0  0  0  0  0  0  0  0  0  0
   12.7035   -8.8231    0.0000 C   0  0  0  0  0  0  0  0  0  0  0  0
   11.9890  -10.0606    0.0000 O   0  0  0  0  0  0  0  0  0  0  0  0
    6.9878   -6.3481    0.0000 O   0  0  0  0  0  0  0  0  0  0  0  0
  1  2  2  0  0  0  0
  2  3  1  0  0  0  0
  3  4  1  0  0  0  0
  4  5  1  0  0  0  0
  5  6  2  0  0  0  0
  6  7  1  0  0  0  0
  7  8  2  0  0  0  0
  8  9  1  0  0  0  0
  4  9  2  0  0  0  0
  9 10  1  0  0  0  0
  1 10  1  0  0  0  0
  3 11  2  0  0  0  0
 13 14  1  0  0  0  0
 14 15  1  0  0  0  0
 15 16  1  0  0  0  0
 16 17  1  0  0  0  0
 17 18  1  0  0  0  0
 13 18  1  0  0  0  0
 19 20  1  0  0  0  0
 18 19  1  6  0  0  0
 17 21  1  1  0  0  0
 16 22  1  6  0  0  0
 15 23  1  1  0  0  0
 14 12  1  6  0  0  0
  7 12  1  0  0  0  0
 24 25  1  0  0  0  0
 25 26  2  0  0  0  0
 26 27  1  0  0  0  0
 27 28  2  0  0  0  0
 28 29  1  0  0  0  0
 24 29  2  0  0  0  0
 30 31  1  0  0  0  0
 28 30  1  0  0  0  0
 32 33  1  0  0  0  0
 26 32  1  0  0  0  0
 27 34  1  0  0  0  0
  1 24  1  0  0  0  0
  5 35  1  0  0  0  0
M  END
>  <cdx:fragmentId>
29

$$$$
