96929.cdx
  Mrv1902 05222410182D          

 32 34  0  0  0  0            999 V2000
    2.6037   -8.4975    0.0000 C   0  0  0  0  0  0  0  0  0  0  0  0
    2.6037   -9.3225    0.0000 C   0  0  0  0  0  0  0  0  0  0  0  0
    3.3181   -9.7350    0.0000 C   0  0  0  0  0  0  0  0  0  0  0  0
    4.0326   -9.3225    0.0000 C   0  0  0  0  0  0  0  0  0  0  0  0
    4.0326   -8.4975    0.0000 C   0  0  0  0  0  0  0  0  0  0  0  0
    3.3181   -8.0850    0.0000 C   0  0  0  0  0  0  0  0  0  0  0  0
    4.7471   -9.7350    0.0000 C   0  0  0  0  0  0  0  0  0  0  0  0
    5.4616   -9.3225    0.0000 C   0  0  0  0  0  0  0  0  0  0  0  0
    5.4616   -8.4975    0.0000 C   0  0  0  0  0  0  0  0  0  0  0  0
    4.7471   -8.0850    0.0000 O   0  0  0  0  0  0  0  0  0  0  0  0
    6.1760   -8.0850    0.0000 C   0  0  0  0  0  0  0  0  0  0  0  0
    6.1760   -7.2600    0.0000 C   0  0  0  0  0  0  0  0  0  0  0  0
    5.4616   -6.8475    0.0000 O   0  0  0  0  0  0  0  0  0  0  0  0
    6.8905   -8.4975    0.0000 C   0  0  0  0  0  0  0  0  0  0  0  0
    7.6050   -8.0850    0.0000 C   0  0  0  0  0  0  0  0  0  0  0  0
    7.6050   -7.2600    0.0000 C   0  0  0  0  0  0  0  0  0  0  0  0
    6.8905   -6.8475    0.0000 C   0  0  0  0  0  0  0  0  0  0  0  0
    1.8892   -8.0850    0.0000 O   0  0  0  0  0  0  0  0  0  0  0  0
    3.3181  -10.5600    0.0000 O   0  0  0  0  0  0  0  0  0  0  0  0
    4.7471  -10.5600    0.0000 O   0  0  0  0  0  0  0  0  0  0  0  0
    8.3194   -6.8475    0.0000 O   0  0  0  0  0  0  0  0  0  0  0  0
    9.0339   -7.2600    0.0000 C   0  0  0  0  0  0  0  0  0  0  0  0
    8.3194   -8.4975    0.0000 C   0  0  0  0  0  0  0  0  0  0  0  0
    9.0339   -8.0850    0.0000 C   0  0  0  0  0  0  0  0  0  0  0  0
    9.7484   -8.4975    0.0000 C   0  0  0  0  0  0  0  0  0  0  0  0
   10.4629   -8.0850    0.0000 C   0  0  0  0  0  0  0  0  0  0  0  0
    9.7484   -9.3225    0.0000 C   0  0  0  0  0  0  0  0  0  0  0  0
   11.1773   -8.4975    0.0000 C   0  0  0  0  0  0  0  0  0  0  0  0
   11.8918   -8.0850    0.0000 C   0  0  0  0  0  0  0  0  0  0  0  0
   12.6063   -8.4975    0.0000 C   0  0  0  0  0  0  0  0  0  0  0  0
   13.3207   -8.0850    0.0000 C   0  0  0  0  0  0  0  0  0  0  0  0
   12.6063   -9.3225    0.0000 C   0  0  0  0  0  0  0  0  0  0  0  0
  1  2  2  0  0  0  0
  2  3  1  0  0  0  0
  3  4  2  0  0  0  0
  4  5  1  0  0  0  0
  5  6  2  0  0  0  0
  6  1  1  0  0  0  0
  4  7  1  0  0  0  0
  7  8  1  0  0  0  0
  8  9  1  0  0  0  0
  9 10  1  0  0  0  0
 10  5  1  0  0  0  0
  9 11  1  0  0  0  0
 11 12  2  0  0  0  0
 12 13  1  0  0  0  0
 11 14  1  0  0  0  0
 14 15  2  0  0  0  0
 15 16  1  0  0  0  0
 16 17  2  0  0  0  0
 17 12  1  0  0  0  0
  1 18  1  0  0  0  0
  3 19  1  0  0  0  0
  7 20  2  0  0  0  0
 16 21  1  0  0  0  0
 21 22  1  0  0  0  0
 15 23  1  0  0  0  0
 23 24  1  0  0  0  0
 24 25  2  0  0  0  0
 25 26  1  0  0  0  0
 25 27  1  0  0  0  0
 26 28  1  0  0  0  0
 28 29  1  0  0  0  0
 29 30  2  0  0  0  0
 30 31  1  0  0  0  0
 30 32  1  0  0  0  0
M  END
>  <cdx:fragmentId>
5

$$$$
