96922.cdx
  Mrv1902 05222410262D          

 27 28  0  0  0  0            999 V2000
   10.1518   -7.8147    0.0000 C   0  0  0  0  0  0  0  0  0  0  0  0
    7.2894   -8.6242    0.0000 C   0  0  2  0  0  0  0  0  0  0  0  0
   10.1473   -8.6397    0.0000 C   0  0  0  0  0  0  0  0  0  0  0  0
    5.8605   -8.6165    0.0000 C   0  0  0  0  0  0  0  0  0  0  0  0
    6.5727   -9.0328    0.0000 C   0  0  0  0  0  0  0  0  0  0  0  0
    6.5683   -9.8578    0.0000 C   0  0  0  0  0  0  0  0  0  0  0  0
    5.8516  -10.2664    0.0000 C   0  0  0  0  0  0  0  0  0  0  0  0
    5.1394   -9.8501    0.0000 C   0  0  0  0  0  0  0  0  0  0  0  0
    4.4227  -10.2587    0.0000 C   0  0  0  0  0  0  0  0  0  0  0  0
    3.7104   -9.8423    0.0000 C   0  0  0  0  0  0  0  0  0  0  0  0
    3.7149   -9.0173    0.0000 C   0  0  0  0  0  0  0  0  0  0  0  0
    4.4316   -8.6087    0.0000 C   0  0  0  0  0  0  0  0  0  0  0  0
    5.1438   -9.0251    0.0000 C   0  0  0  0  0  0  0  0  0  0  0  0
    5.8471  -11.0914    0.0000 O   0  0  0  0  0  0  0  0  0  0  0  0
    5.8650   -7.7915    0.0000 O   0  0  0  0  0  0  0  0  0  0  0  0
    4.4361   -7.7837    0.0000 O   0  0  0  0  0  0  0  0  0  0  0  0
    4.4182  -11.0837    0.0000 O   0  0  0  0  0  0  0  0  0  0  0  0
    7.2939   -7.7992    0.0000 O   0  0  0  0  0  0  0  0  0  0  0  0
    8.0151   -6.5656    0.0000 O   0  0  0  0  0  0  0  0  0  0  0  0
    9.4440   -6.5734    0.0000 C   0  0  0  0  0  0  0  0  0  0  0  0
    9.4395   -7.3983    0.0000 C   0  0  0  0  0  0  0  0  0  0  0  0
    8.7228   -7.8070    0.0000 C   0  0  0  0  0  0  0  0  0  0  0  0
    8.0106   -7.3906    0.0000 C   0  0  0  0  0  0  0  0  0  0  0  0
    9.4261   -9.8733    0.0000 C   0  0  0  0  0  0  0  0  0  0  0  0
    9.4306   -9.0483    0.0000 C   0  0  0  0  0  0  0  0  0  0  0  0
    8.7184   -8.6320    0.0000 C   0  0  0  0  0  0  0  0  0  0  0  0
    8.0017   -9.0406    0.0000 C   0  0  0  0  0  0  0  0  0  0  0  0
 21  1  1  0  0  0  0
 23 18  1  0  0  0  0
 23 19  2  0  0  0  0
 21 20  1  0  0  0  0
 22 21  2  0  0  0  0
 23 22  1  0  0  0  0
 25  3  1  0  0  0  0
 25 24  1  0  0  0  0
 26 25  2  0  0  0  0
 27 26  1  0  0  0  0
  2 27  1  0  0  0  0
  4  5  1  0  0  0  0
  5  6  2  0  0  0  0
  6  7  1  0  0  0  0
  7  8  1  0  0  0  0
  8  9  1  0  0  0  0
  9 10  2  0  0  0  0
 10 11  1  0  0  0  0
 11 12  2  0  0  0  0
 12 13  1  0  0  0  0
  4 13  1  0  0  0  0
  8 13  2  0  0  0  0
  7 14  2  0  0  0  0
  4 15  2  0  0  0  0
 12 16  1  0  0  0  0
  9 17  1  0  0  0  0
  2  5  1  0  0  0  0
  2 18  1  6  0  0  0
M  END
>  <cdx:fragmentId>
31

$$$$
