96923.cdx
  Mrv1902 05222410272D          

 20 19  0  0  0  0            999 V2000
   11.4147   -3.6583    0.0000 C   0  0  0  0  0  0  0  0  0  0  0  0
   10.7002   -4.0708    0.0000 C   0  0  0  0  0  0  0  0  0  0  0  0
    9.9857   -3.6583    0.0000 C   0  0  0  0  0  0  0  0  0  0  0  0
    9.2712   -4.0708    0.0000 C   0  0  0  0  0  0  0  0  0  0  0  0
    8.5568   -3.6583    0.0000 C   0  0  0  0  0  0  0  0  0  0  0  0
    7.8423   -4.0708    0.0000 C   0  0  0  0  0  0  0  0  0  0  0  0
    7.1278   -3.6583    0.0000 C   0  0  0  0  0  0  0  0  0  0  0  0
    6.4134   -4.0708    0.0000 C   0  0  0  0  0  0  0  0  0  0  0  0
    5.6989   -3.6583    0.0000 C   0  0  0  0  0  0  0  0  0  0  0  0
    4.9844   -4.0708    0.0000 C   0  0  0  0  0  0  0  0  0  0  0  0
    4.2699   -3.6583    0.0000 C   0  0  0  0  0  0  0  0  0  0  0  0
    3.5555   -4.0708    0.0000 C   0  0  0  0  0  0  0  0  0  0  0  0
    2.8410   -3.6583    0.0000 C   0  0  0  0  0  0  0  0  0  0  0  0
    2.1265   -4.0708    0.0000 C   0  0  0  0  0  0  0  0  0  0  0  0
    1.4121   -3.6583    0.0000 C   0  0  0  0  0  0  0  0  0  0  0  0
    0.6976   -4.0708    0.0000 C   0  0  0  0  0  0  0  0  0  0  0  0
   12.1291   -4.0708    0.0000 S   0  0  0  0  0  0  0  0  0  0  0  0
   12.5416   -3.3563    0.0000 O   0  0  0  0  0  0  0  0  0  0  0  0
   11.7166   -4.7853    0.0000 O   0  0  0  0  0  0  0  0  0  0  0  0
   12.8436   -4.4833    0.0000 Cl  0  0  0  0  0  0  0  0  0  0  0  0
  1  2  1  0  0  0  0
  2  3  1  0  0  0  0
  3  4  1  0  0  0  0
  4  5  1  0  0  0  0
  5  6  1  0  0  0  0
  6  7  1  0  0  0  0
  7  8  1  0  0  0  0
  8  9  1  0  0  0  0
  9 10  1  0  0  0  0
 10 11  1  0  0  0  0
 11 12  1  0  0  0  0
 12 13  1  0  0  0  0
 13 14  1  0  0  0  0
 14 15  1  0  0  0  0
 15 16  1  0  0  0  0
 17 18  2  0  0  0  0
 17 19  2  0  0  0  0
 17 20  1  0  0  0  0
  1 17  1  0  0  0  0
M  END
>  <cdx:groupId>
61

>  <cdx:fragmentId>
5

$$$$
