96933.cdx
  Mrv1902 05222410272D          

 25 27  0  0  0  0            999 V2000
    7.3450   -9.5886    0.0000 C   0  0  0  0  0  0  0  0  0  0  0  0
    7.3450  -10.4136    0.0000 C   0  0  0  0  0  0  0  0  0  0  0  0
    6.6305  -10.8261    0.0000 C   0  0  0  0  0  0  0  0  0  0  0  0
    5.9160  -10.4136    0.0000 C   0  0  0  0  0  0  0  0  0  0  0  0
    5.2016  -10.8261    0.0000 C   0  0  0  0  0  0  0  0  0  0  0  0
    4.4871  -10.4136    0.0000 C   0  0  0  0  0  0  0  0  0  0  0  0
    4.4871   -9.5886    0.0000 C   0  0  0  0  0  0  0  0  0  0  0  0
    5.2016   -9.1761    0.0000 C   0  0  0  0  0  0  0  0  0  0  0  0
    5.9160   -9.5886    0.0000 C   0  0  0  0  0  0  0  0  0  0  0  0
    6.6305   -9.1761    0.0000 O   0  0  0  0  0  0  0  0  0  0  0  0
    8.0595   -9.1761    0.0000 C   0  0  0  0  0  0  0  0  0  0  0  0
    8.0595   -8.3511    0.0000 C   0  0  0  0  0  0  0  0  0  0  0  0
    8.7739   -7.9386    0.0000 C   0  0  0  0  0  0  0  0  0  0  0  0
    9.4884   -8.3511    0.0000 C   0  0  0  0  0  0  0  0  0  0  0  0
    9.4884   -9.1761    0.0000 C   0  0  0  0  0  0  0  0  0  0  0  0
    8.7739   -9.5886    0.0000 C   0  0  0  0  0  0  0  0  0  0  0  0
    5.2016   -8.3511    0.0000 C   0  0  0  0  0  0  0  0  0  0  0  0
    4.4871   -7.9386    0.0000 C   0  0  0  0  0  0  0  0  0  0  0  0
    4.4871   -7.1136    0.0000 C   0  0  0  0  0  0  0  0  0  0  0  0
    5.2016   -6.7011    0.0000 C   0  0  0  0  0  0  0  0  0  0  0  0
    3.7726   -6.7011    0.0000 C   0  0  0  0  0  0  0  0  0  0  0  0
   10.2029   -7.9386    0.0000 O   0  0  0  0  0  0  0  0  0  0  0  0
   10.9173   -8.3511    0.0000 C   0  0  0  0  0  0  0  0  0  0  0  0
    3.7726   -9.1761    0.0000 O   0  0  0  0  0  0  0  0  0  0  0  0
    7.3450   -7.9386    0.0000 O   0  0  0  0  0  0  0  0  0  0  0  0
  1  2  1  0  0  0  0
  2  3  1  0  0  0  0
  3  4  1  0  0  0  0
  4  5  1  0  0  0  0
  5  6  2  0  0  0  0
  6  7  1  0  0  0  0
  7  8  2  0  0  0  0
  8  9  1  0  0  0  0
  4  9  2  0  0  0  0
  9 10  1  0  0  0  0
  1 10  1  0  0  0  0
  1 11  1  0  0  0  0
 11 12  1  0  0  0  0
 12 13  2  0  0  0  0
 13 14  1  0  0  0  0
 14 15  2  0  0  0  0
 15 16  1  0  0  0  0
 11 16  2  0  0  0  0
 17 18  1  0  0  0  0
 18 19  2  0  0  0  0
 19 20  1  0  0  0  0
 19 21  1  0  0  0  0
  8 17  1  0  0  0  0
 22 23  1  0  0  0  0
 14 22  1  0  0  0  0
  7 24  1  0  0  0  0
 12 25  1  0  0  0  0
M  END
>  <cdx:fragmentId>
5

$$$$
