96934.cdx
  Mrv1902 05222410262D          

 46 51  0  0  0  0            999 V2000
    5.5534   -9.7490    0.0000 C   0  0  1  0  0  0  0  0  0  0  0  0
    5.5534   -8.9240    0.0000 C   0  0  0  0  0  0  0  0  0  0  0  0
    6.2679   -8.5115    0.0000 C   0  0  0  0  0  0  0  0  0  0  0  0
    6.2679  -10.1615    0.0000 C   0  0  2  0  0  0  0  0  0  0  0  0
    6.6804  -10.8760    0.0000 C   0  0  0  0  0  0  0  0  0  0  0  0
    5.8554  -10.8760    0.0000 C   0  0  0  0  0  0  0  0  0  0  0  0
    6.9823   -9.7490    0.0000 C   0  0  0  0  0  0  0  0  0  0  0  0
    7.6968  -10.1615    0.0000 C   0  0  0  0  0  0  0  0  0  0  0  0
    8.4113   -9.7490    0.0000 C   0  0  0  0  0  0  0  0  0  0  0  0
    8.4113   -8.9240    0.0000 C   0  0  1  0  0  0  0  0  0  0  0  0
    8.4113   -8.0990    0.0000 C   0  0  0  0  0  0  0  0  0  0  0  0
    9.1257   -8.5115    0.0000 C   0  0  2  0  0  0  0  0  0  0  0  0
    9.1257   -9.3365    0.0000 C   0  0  0  0  0  0  0  0  0  0  0  0
    9.8402   -8.9240    0.0000 C   0  0  0  0  0  0  0  0  0  0  0  0
   10.5547   -8.5115    0.0000 C   0  0  0  0  0  0  0  0  0  0  0  0
   10.5547   -7.6865    0.0000 C   0  0  1  0  0  0  0  0  0  0  0  0
   11.2691   -8.0990    0.0000 C   0  0  0  0  0  0  0  0  0  0  0  0
   11.2691   -7.2740    0.0000 C   0  0  0  0  0  0  0  0  0  0  0  0
   11.2691   -6.4490    0.0000 C   0  0  0  0  0  0  0  0  0  0  0  0
   10.5547   -6.0365    0.0000 C   0  0  1  0  0  0  0  0  0  0  0  0
   10.5547   -5.2115    0.0000 C   0  0  0  0  0  0  0  0  0  0  0  0
    9.8402   -6.4490    0.0000 C   0  0  2  0  0  0  0  0  0  0  0  0
    9.4277   -5.7345    0.0000 C   0  0  0  0  0  0  0  0  0  0  0  0
    9.8402   -7.2740    0.0000 C   0  0  0  0  0  0  0  0  0  0  0  0
    9.1257   -7.6865    0.0000 C   0  0  0  0  0  0  0  0  0  0  0  0
    8.4113   -7.2740    0.0000 C   0  0  0  0  0  0  0  0  0  0  0  0
    7.6968   -7.6865    0.0000 C   0  0  0  0  0  0  0  0  0  0  0  0
    7.6968   -8.5115    0.0000 C   0  0  0  0  0  0  0  0  0  0  0  0
    6.9823   -8.9240    0.0000 C   0  0  1  0  0  0  0  0  0  0  0  0
    6.9823   -8.0990    0.0000 C   0  0  0  0  0  0  0  0  0  0  0  0
   11.2691   -8.9240    0.0000 O   0  0  0  0  0  0  0  0  0  0  0  0
   11.9836   -7.6865    0.0000 O   0  0  0  0  0  0  0  0  0  0  0  0
    9.0152   -6.4490    0.0000 O   0  0  0  0  0  0  0  0  0  0  0  0
    4.8389  -10.1615    0.0000 O   0  0  0  0  0  0  0  0  0  0  0  0
    4.1244   -9.7490    0.0000 C   0  0  2  0  0  0  0  0  0  0  0  0
    4.1244   -8.9240    0.0000 O   0  0  0  0  0  0  0  0  0  0  0  0
    3.4100   -8.5115    0.0000 C   0  0  1  0  0  0  0  0  0  0  0  0
    2.6955   -8.9240    0.0000 C   0  0  2  0  0  0  0  0  0  0  0  0
    2.6955   -9.7490    0.0000 C   0  0  1  0  0  0  0  0  0  0  0  0
    3.4100  -10.1615    0.0000 C   0  0  1  0  0  0  0  0  0  0  0  0
    1.9810  -10.1615    0.0000 O   0  0  0  0  0  0  0  0  0  0  0  0
    3.4100   -7.6865    0.0000 C   0  0  0  0  0  0  0  0  0  0  0  0
    1.9810   -8.5115    0.0000 O   0  0  0  0  0  0  0  0  0  0  0  0
    3.4100  -10.9865    0.0000 O   0  0  0  0  0  0  0  0  0  0  0  0
    2.6955   -7.2740    0.0000 O   0  0  0  0  0  0  0  0  0  0  0  0
    4.1244   -7.2740    0.0000 O   0  0  0  0  0  0  0  0  0  0  0  0
  1  2  1  0  0  0  0
  2  3  1  0  0  0  0
  1  4  1  0  0  0  0
  4  5  1  6  0  0  0
  4  6  1  1  0  0  0
  4  7  1  0  0  0  0
  7  8  1  0  0  0  0
  8  9  1  0  0  0  0
  9 10  1  0  0  0  0
 10 11  1  1  0  0  0
 10 12  1  0  0  0  0
 12 13  1  6  0  0  0
 12 14  1  0  0  0  0
 14 15  1  0  0  0  0
 15 16  1  0  0  0  0
 16 17  1  1  0  0  0
 16 18  1  0  0  0  0
 18 19  1  0  0  0  0
 19 20  1  0  0  0  0
 20 21  1  6  0  0  0
 20 22  1  0  0  0  0
 22 23  1  1  0  0  0
 22 24  1  0  0  0  0
 16 24  1  0  0  0  0
 24 25  1  0  0  0  0
 12 25  1  0  0  0  0
 25 26  2  0  0  0  0
 26 27  1  0  0  0  0
 27 28  1  0  0  0  0
 10 28  1  0  0  0  0
 28 29  1  0  0  0  0
  3 29  1  0  0  0  0
  7 29  1  0  0  0  0
 29 30  1  1  0  0  0
 17 31  2  0  0  0  0
 17 32  1  0  0  0  0
 22 33  1  6  0  0  0
  1 34  1  1  0  0  0
 35 34  1  1  0  0  0
 35 36  1  0  0  0  0
 36 37  1  0  0  0  0
 37 38  1  0  0  0  0
 38 39  1  0  0  0  0
 39 40  1  0  0  0  0
 40 35  1  0  0  0  0
 39 41  1  1  0  0  0
 37 42  1  1  0  0  0
 38 43  1  6  0  0  0
 40 44  1  6  0  0  0
 42 45  2  0  0  0  0
 42 46  1  0  0  0  0
M  END
>  <cdx:fragmentId>
5

$$$$
