96956.cdx
  Mrv1902 05222410232D          

 36 40  0  0  0  0            999 V2000
    4.3221   -6.8298    0.0000 O   0  0  0  0  0  0  0  0  0  0  0  0
    3.9225   -6.1081    0.0000 C   0  0  2  0  0  0  0  0  0  0  0  0
    4.3477   -5.4011    0.0000 O   0  0  0  0  0  0  0  0  0  0  0  0
    3.9481   -4.6794    0.0000 C   0  0  1  0  0  0  0  0  0  0  0  0
    3.1232   -4.6646    0.0000 C   0  0  2  0  0  0  0  0  0  0  0  0
    2.6980   -5.3716    0.0000 C   0  0  1  0  0  0  0  0  0  0  0  0
    3.0976   -6.0933    0.0000 C   0  0  1  0  0  0  0  0  0  0  0  0
    4.3733   -3.9724    0.0000 C   0  0  0  0  0  0  0  0  0  0  0  0
    1.8731   -5.3568    0.0000 O   0  0  0  0  0  0  0  0  0  0  0  0
    2.7236   -3.9429    0.0000 O   0  0  0  0  0  0  0  0  0  0  0  0
    2.6724   -6.8003    0.0000 O   0  0  0  0  0  0  0  0  0  0  0  0
    3.9737   -3.2507    0.0000 O   0  0  0  0  0  0  0  0  0  0  0  0
    5.1322   -7.6695    0.0000 C   0  0  0  0  0  0  0  0  0  0  0  0
    5.1618   -6.0197    0.0000 C   0  0  0  0  0  0  0  0  0  0  0  0
   12.4395   -5.5460    0.0000 O   0  0  0  0  0  0  0  0  0  0  0  0
   12.3883   -8.4034    0.0000 O   0  0  0  0  0  0  0  0  0  0  0  0
   11.1638   -7.6669    0.0000 C   0  0  0  0  0  0  0  0  0  0  0  0
   11.9887   -7.6817    0.0000 C   0  0  0  0  0  0  0  0  0  0  0  0
   12.4139   -6.9747    0.0000 C   0  0  0  0  0  0  0  0  0  0  0  0
   12.0142   -6.2530    0.0000 C   0  0  0  0  0  0  0  0  0  0  0  0
   11.1894   -6.2382    0.0000 C   0  0  0  0  0  0  0  0  0  0  0  0
   10.7641   -6.9452    0.0000 C   0  0  0  0  0  0  0  0  0  0  0  0
    5.1470   -6.8446    0.0000 C   0  0  0  0  0  0  0  0  0  0  0  0
    9.4425   -7.5890    0.0000 O   0  0  0  0  0  0  0  0  0  0  0  0
    9.9393   -6.9304    0.0000 C   0  0  0  0  0  0  0  0  0  0  0  0
    9.4664   -6.2544    0.0000 C   0  0  0  0  0  0  0  0  0  0  0  0
    6.4687   -6.2007    0.0000 C   0  0  0  0  0  0  0  0  0  0  0  0
    5.9719   -6.8594    0.0000 C   0  0  1  0  0  0  0  0  0  0  0  0
    6.4448   -7.5354    0.0000 O   0  0  0  0  0  0  0  0  0  0  0  0
    7.9408   -7.7198    0.0000 C   0  0  0  0  0  0  0  0  0  0  0  0
    8.6626   -7.3201    0.0000 C   0  0  0  0  0  0  0  0  0  0  0  0
    8.6773   -6.4952    0.0000 C   0  0  0  0  0  0  0  0  0  0  0  0
    7.9703   -6.0700    0.0000 C   0  0  0  0  0  0  0  0  0  0  0  0
    7.2486   -6.4697    0.0000 C   0  0  0  0  0  0  0  0  0  0  0  0
    7.2338   -7.2945    0.0000 C   0  0  0  0  0  0  0  0  0  0  0  0
    5.5594   -7.5738    0.0000 H   0  0  0  0  0  0  0  0  0  0  0  0
  2  1  1  1  0  0  0
  2  3  1  0  0  0  0
  3  4  1  0  0  0  0
  4  5  1  0  0  0  0
  5  6  1  0  0  0  0
  6  7  1  0  0  0  0
  7  2  1  0  0  0  0
  4  8  1  1  0  0  0
  6  9  1  1  0  0  0
  5 10  1  6  0  0  0
  7 11  1  6  0  0  0
 23  1  1  0  0  0  0
  8 12  1  0  0  0  0
 23 13  1  0  0  0  0
 23 14  1  0  0  0  0
 20 15  1  0  0  0  0
 18 16  1  0  0  0  0
 17 22  1  0  0  0  0
 18 17  2  0  0  0  0
 19 18  1  0  0  0  0
 20 19  2  0  0  0  0
 21 20  1  0  0  0  0
 22 21  2  0  0  0  0
 25 22  1  0  0  0  0
 28 23  1  0  0  0  0
 24 31  1  0  0  0  0
 25 24  1  0  0  0  0
 26 25  2  0  0  0  0
 32 26  1  0  0  0  0
 27 34  1  0  0  0  0
 28 27  1  0  0  0  0
 29 28  1  0  0  0  0
 35 29  1  0  0  0  0
 30 35  1  0  0  0  0
 31 30  2  0  0  0  0
 32 31  1  0  0  0  0
 33 32  2  0  0  0  0
 34 33  1  0  0  0  0
 35 34  2  0  0  0  0
 28 36  1  6  0  0  0
M  END
>  <cdx:fragmentId>
402

$$$$
