11969589.cdx
  Mrv1902 05222410212D          

 27 31  0  0  0  0            999 V2000
    9.5764  -11.2482    0.0000 C   0  0  0  0  0  0  0  0  0  0  0  0
   10.4014  -11.2482    0.0000 C   0  0  0  0  0  0  0  0  0  0  0  0
    9.1639  -11.9627    0.0000 O   0  0  0  0  0  0  0  0  0  0  0  0
    9.1639  -10.5337    0.0000 O   0  0  0  0  0  0  0  0  0  0  0  0
    6.5316  -10.9462    0.0000 C   0  0  2  0  0  0  0  0  0  0  0  0
    7.1766  -11.4606    0.0000 C   0  0  2  0  0  0  0  0  0  0  0  0
    7.9809  -11.2770    0.0000 C   0  0  0  0  0  0  0  0  0  0  0  0
    8.3389  -10.5337    0.0000 C   0  0  0  0  0  0  0  0  0  0  0  0
    7.9809   -9.7904    0.0000 C   0  0  1  0  0  0  0  0  0  0  0  0
    8.4041   -9.0822    0.0000 C   0  0  0  0  0  0  0  0  0  0  0  0
    7.8613   -8.4609    0.0000 C   0  0  0  0  0  0  0  0  0  0  0  0
    7.1027   -8.7852    0.0000 O   0  0  0  0  0  0  0  0  0  0  0  0
    7.1766   -9.6068    0.0000 C   0  0  0  0  0  0  0  0  0  0  0  0
    6.5316  -10.1212    0.0000 C   0  0  0  0  0  0  0  0  0  0  0  0
    5.7470   -9.8663    0.0000 C   0  0  1  0  0  0  0  0  0  0  0  0
    4.9265   -9.7800    0.0000 O   0  0  0  0  0  0  0  0  0  0  0  0
    5.2621  -10.5337    0.0000 C   0  0  1  0  0  0  0  0  0  0  0  0
    5.7470  -11.2012    0.0000 C   0  0  1  0  0  0  0  0  0  0  0  0
    6.3601  -11.7532    0.0000 O   0  0  0  0  0  0  0  0  0  0  0  0
    8.0449   -7.6566    0.0000 O   0  0  0  0  0  0  0  0  0  0  0  0
    5.9185   -9.0593    0.0000 C   0  0  0  0  0  0  0  0  0  0  0  0
    9.2258   -9.0082    0.0000 C   0  0  0  0  0  0  0  0  0  0  0  0
    6.7290  -12.1536    0.0000 C   0  0  0  0  0  0  0  0  0  0  0  0
    7.4876  -12.2248    0.0000 O   0  0  0  0  0  0  0  0  0  0  0  0
    8.8059   -9.7904    0.0000 H   0  0  0  0  0  0  0  0  0  0  0  0
    4.5476  -10.9462    0.0000 H   0  0  0  0  0  0  0  0  0  0  0  0
    5.1339  -11.7532    0.0000 H   0  0  0  0  0  0  0  0  0  0  0  0
  1  2  1  0  0  0  0
  1  3  2  0  0  0  0
  1  4  1  0  0  0  0
  5  6  1  0  0  0  0
  6  7  1  0  0  0  0
  7  8  1  0  0  0  0
  8  9  1  0  0  0  0
  9 10  1  0  0  0  0
 10 11  1  0  0  0  0
 11 12  1  0  0  0  0
 12 13  1  0  0  0  0
 13 14  1  0  0  0  0
 14 15  1  0  0  0  0
 15 16  1  0  0  0  0
 16 17  1  0  0  0  0
 17 18  1  0  0  0  0
 18 19  1  0  0  0  0
  5 19  1  6  0  0  0
  5 14  1  0  0  0  0
  5 18  1  0  0  0  0
 15 17  1  0  0  0  0
  9 13  1  0  0  0  0
 11 20  2  0  0  0  0
 15 21  1  1  0  0  0
 10 22  1  0  0  0  0
  6 23  1  6  0  0  0
  6 24  1  1  0  0  0
  4  8  1  0  0  0  0
  9 25  1  1  0  0  0
 17 26  1  1  0  0  0
 18 27  1  1  0  0  0
M  END
>  <cdx:groupId>
10518

>  <cdx:fragmentId>
10444

$$$$
