96957.cdx
  Mrv1902 05222410232D          

 34 38  0  0  0  0            999 V2000
    2.0121   -6.7748    0.0000 O   0  0  0  0  0  0  0  0  0  0  0  0
    2.8222   -7.6145    0.0000 C   0  0  0  0  0  0  0  0  0  0  0  0
    2.8518   -5.9647    0.0000 C   0  0  0  0  0  0  0  0  0  0  0  0
   10.1295   -5.4910    0.0000 O   0  0  0  0  0  0  0  0  0  0  0  0
   10.0783   -8.3484    0.0000 O   0  0  0  0  0  0  0  0  0  0  0  0
    8.8538   -7.6119    0.0000 C   0  0  0  0  0  0  0  0  0  0  0  0
    9.6787   -7.6267    0.0000 C   0  0  0  0  0  0  0  0  0  0  0  0
   10.1039   -6.9197    0.0000 C   0  0  0  0  0  0  0  0  0  0  0  0
    9.7042   -6.1980    0.0000 C   0  0  0  0  0  0  0  0  0  0  0  0
    8.8794   -6.1832    0.0000 C   0  0  0  0  0  0  0  0  0  0  0  0
    8.4541   -6.8902    0.0000 C   0  0  0  0  0  0  0  0  0  0  0  0
    2.8370   -6.7896    0.0000 C   0  0  0  0  0  0  0  0  0  0  0  0
    7.1325   -7.5340    0.0000 O   0  0  0  0  0  0  0  0  0  0  0  0
    7.6293   -6.8754    0.0000 C   0  0  0  0  0  0  0  0  0  0  0  0
    7.1564   -6.1994    0.0000 C   0  0  0  0  0  0  0  0  0  0  0  0
    4.1587   -6.1457    0.0000 C   0  0  0  0  0  0  0  0  0  0  0  0
    3.6619   -6.8044    0.0000 C   0  0  1  0  0  0  0  0  0  0  0  0
    4.1348   -7.4804    0.0000 O   0  0  0  0  0  0  0  0  0  0  0  0
    5.6308   -7.6648    0.0000 C   0  0  0  0  0  0  0  0  0  0  0  0
    6.3526   -7.2651    0.0000 C   0  0  0  0  0  0  0  0  0  0  0  0
    6.3673   -6.4402    0.0000 C   0  0  0  0  0  0  0  0  0  0  0  0
    5.6603   -6.0150    0.0000 C   0  0  0  0  0  0  0  0  0  0  0  0
    4.9386   -6.4147    0.0000 C   0  0  0  0  0  0  0  0  0  0  0  0
    4.9238   -7.2395    0.0000 C   0  0  0  0  0  0  0  0  0  0  0  0
    3.2494   -7.5188    0.0000 H   0  0  0  0  0  0  0  0  0  0  0  0
    9.6531   -9.0554    0.0000 C   0  0  2  0  0  0  0  0  0  0  0  0
    8.8284   -9.0334    0.0000 O   0  0  0  0  0  0  0  0  0  0  0  0
    8.3969   -9.7366    0.0000 C   0  0  0  0  0  0  0  0  0  0  0  0
    8.7902  -10.4618    0.0000 C   0  0  2  0  0  0  0  0  0  0  0  0
    9.6149  -10.4618    0.0000 C   0  0  1  0  0  0  0  0  0  0  0  0
   10.0464   -9.7366    0.0000 C   0  0  1  0  0  0  0  0  0  0  0  0
   10.8713   -9.7419    0.0000 O   0  0  0  0  0  0  0  0  0  0  0  0
   10.0227  -11.1789    0.0000 O   0  0  0  0  0  0  0  0  0  0  0  0
    8.3682  -11.1707    0.0000 O   0  0  0  0  0  0  0  0  0  0  0  0
 12  1  1  0  0  0  0
 12  2  1  0  0  0  0
 12  3  1  0  0  0  0
  9  4  1  0  0  0  0
  7  5  1  0  0  0  0
  6 11  1  0  0  0  0
  7  6  2  0  0  0  0
  8  7  1  0  0  0  0
  9  8  2  0  0  0  0
 10  9  1  0  0  0  0
 11 10  2  0  0  0  0
 14 11  1  0  0  0  0
 17 12  1  0  0  0  0
 13 20  1  0  0  0  0
 14 13  1  0  0  0  0
 15 14  2  0  0  0  0
 21 15  1  0  0  0  0
 16 23  1  0  0  0  0
 17 16  1  0  0  0  0
 18 17  1  0  0  0  0
 24 18  1  0  0  0  0
 19 24  1  0  0  0  0
 20 19  2  0  0  0  0
 21 20  1  0  0  0  0
 22 21  2  0  0  0  0
 23 22  1  0  0  0  0
 24 23  2  0  0  0  0
 17 25  1  6  0  0  0
 26  5  1  1  0  0  0
 26 27  1  0  0  0  0
 27 28  1  0  0  0  0
 28 29  1  0  0  0  0
 29 30  1  0  0  0  0
 30 31  1  0  0  0  0
 31 26  1  0  0  0  0
 31 32  1  6  0  0  0
 30 33  1  1  0  0  0
 29 34  1  6  0  0  0
M  END
>  <cdx:fragmentId>
402

$$$$
