969516.cdx
  Mrv1902 05222410182D          

 27 28  0  0  0  0            999 V2000
    4.9928   -4.9016    0.0000 C   0  0  0  0  0  0  0  0  0  0  0  0
    5.7073   -5.3141    0.0000 C   0  0  0  0  0  0  0  0  0  0  0  0
    6.4218   -4.9016    0.0000 C   0  0  0  0  0  0  0  0  0  0  0  0
    7.1363   -5.3141    0.0000 C   0  0  0  0  0  0  0  0  0  0  0  0
    7.8507   -4.9016    0.0000 C   0  0  0  0  0  0  0  0  0  0  0  0
    8.5652   -5.3141    0.0000 C   0  0  0  0  0  0  0  0  0  0  0  0
    9.2797   -4.9016    0.0000 C   0  0  0  0  0  0  0  0  0  0  0  0
    6.4218   -4.0766    0.0000 O   0  0  0  0  0  0  0  0  0  0  0  0
    7.8507   -4.0766    0.0000 O   0  0  0  0  0  0  0  0  0  0  0  0
    9.9941   -5.3141    0.0000 C   0  0  0  0  0  0  0  0  0  0  0  0
   10.7086   -4.9016    0.0000 C   0  0  0  0  0  0  0  0  0  0  0  0
   11.4231   -5.3141    0.0000 C   0  0  0  0  0  0  0  0  0  0  0  0
   11.4231   -6.1391    0.0000 C   0  0  0  0  0  0  0  0  0  0  0  0
   10.7086   -6.5516    0.0000 C   0  0  0  0  0  0  0  0  0  0  0  0
    9.9941   -6.1391    0.0000 C   0  0  0  0  0  0  0  0  0  0  0  0
   12.1376   -4.9016    0.0000 O   0  0  0  0  0  0  0  0  0  0  0  0
   12.8520   -5.3141    0.0000 C   0  0  0  0  0  0  0  0  0  0  0  0
   12.1376   -6.5516    0.0000 O   0  0  0  0  0  0  0  0  0  0  0  0
    4.2784   -5.3141    0.0000 C   0  0  0  0  0  0  0  0  0  0  0  0
    3.5639   -4.9016    0.0000 C   0  0  0  0  0  0  0  0  0  0  0  0
    2.8494   -5.3141    0.0000 C   0  0  0  0  0  0  0  0  0  0  0  0
    2.8494   -6.1391    0.0000 C   0  0  0  0  0  0  0  0  0  0  0  0
    3.5639   -6.5516    0.0000 C   0  0  0  0  0  0  0  0  0  0  0  0
    4.2784   -6.1391    0.0000 C   0  0  0  0  0  0  0  0  0  0  0  0
    2.1350   -4.9016    0.0000 O   0  0  0  0  0  0  0  0  0  0  0  0
    1.4205   -5.3141    0.0000 C   0  0  0  0  0  0  0  0  0  0  0  0
    2.1350   -6.5516    0.0000 O   0  0  0  0  0  0  0  0  0  0  0  0
  1  2  2  0  0  0  0
  2  3  1  0  0  0  0
  3  4  1  0  0  0  0
  4  5  1  0  0  0  0
  5  6  1  0  0  0  0
  6  7  2  0  0  0  0
  3  8  2  0  0  0  0
  5  9  2  0  0  0  0
 10 11  1  0  0  0  0
 11 12  2  0  0  0  0
 12 13  1  0  0  0  0
 13 14  2  0  0  0  0
 14 15  1  0  0  0  0
 10 15  2  0  0  0  0
 16 17  1  0  0  0  0
 12 16  1  0  0  0  0
 13 18  1  0  0  0  0
  7 10  1  0  0  0  0
 19 20  1  0  0  0  0
 20 21  2  0  0  0  0
 21 22  1  0  0  0  0
 22 23  2  0  0  0  0
 23 24  1  0  0  0  0
 19 24  2  0  0  0  0
 25 26  1  0  0  0  0
 21 25  1  0  0  0  0
 22 27  1  0  0  0  0
  1 19  1  0  0  0  0
M  END
>  <cdx:groupId>
15353

>  <cdx:fragmentId>
15292

$$$$
