96952.cdx
  Mrv1902 05222410252D          

 12 12  0  0  0  0            999 V2000
    9.1897   -9.6057    0.0000 C   0  0  0  0  0  0  0  0  0  0  0  0
    8.4753   -9.1932    0.0000 C   0  0  0  0  0  0  0  0  0  0  0  0
    7.7608   -9.6057    0.0000 C   0  0  0  0  0  0  0  0  0  0  0  0
    7.0463   -9.1932    0.0000 C   0  0  0  0  0  0  0  0  0  0  0  0
    6.3318   -9.6057    0.0000 C   0  0  0  0  0  0  0  0  0  0  0  0
    5.6174   -9.1932    0.0000 C   0  0  0  0  0  0  0  0  0  0  0  0
    5.6174   -8.3682    0.0000 C   0  0  0  0  0  0  0  0  0  0  0  0
    6.3318   -7.9557    0.0000 C   0  0  0  0  0  0  0  0  0  0  0  0
    7.0463   -8.3682    0.0000 C   0  0  0  0  0  0  0  0  0  0  0  0
    4.9029   -7.9557    0.0000 O   0  0  0  0  0  0  0  0  0  0  0  0
    4.1884   -8.3682    0.0000 C   0  0  0  0  0  0  0  0  0  0  0  0
    9.9042   -9.1932    0.0000 O   0  0  0  0  0  0  0  0  0  0  0  0
  1  2  1  0  0  0  0
  2  3  2  0  0  0  0
  3  4  1  0  0  0  0
  4  5  1  0  0  0  0
  5  6  2  0  0  0  0
  6  7  1  0  0  0  0
  7  8  2  0  0  0  0
  8  9  1  0  0  0  0
  4  9  2  0  0  0  0
 10 11  1  0  0  0  0
  7 10  1  0  0  0  0
  1 12  1  0  0  0  0
M  END
>  <cdx:fragmentId>
5

$$$$
