96955.cdx
  Mrv1902 05222410242D          

 33 36  0  0  0  0            999 V2000
    4.8955   -8.1400    0.0000 C   0  0  0  0  0  0  0  0  0  0  0  0
    4.8955   -8.9650    0.0000 C   0  0  0  0  0  0  0  0  0  0  0  0
    5.6100   -9.3775    0.0000 C   0  0  0  0  0  0  0  0  0  0  0  0
    6.3245   -8.9650    0.0000 C   0  0  0  0  0  0  0  0  0  0  0  0
    6.3245   -8.1400    0.0000 C   0  0  0  0  0  0  0  0  0  0  0  0
    5.6100   -7.7275    0.0000 C   0  0  0  0  0  0  0  0  0  0  0  0
    7.0389   -9.3775    0.0000 C   0  0  0  0  0  0  0  0  0  0  0  0
    7.7534   -8.9650    0.0000 C   0  0  0  0  0  0  0  0  0  0  0  0
    7.7534   -8.1400    0.0000 C   0  0  2  0  0  0  0  0  0  0  0  0
    7.0389   -7.7275    0.0000 O   0  0  0  0  0  0  0  0  0  0  0  0
    8.4679   -7.7275    0.0000 C   0  0  0  0  0  0  0  0  0  0  0  0
    9.1824   -8.1400    0.0000 C   0  0  0  0  0  0  0  0  0  0  0  0
    9.8968   -7.7275    0.0000 C   0  0  0  0  0  0  0  0  0  0  0  0
    9.8968   -6.9025    0.0000 C   0  0  0  0  0  0  0  0  0  0  0  0
    9.1824   -6.4900    0.0000 C   0  0  0  0  0  0  0  0  0  0  0  0
    8.4679   -6.9025    0.0000 C   0  0  0  0  0  0  0  0  0  0  0  0
    7.0389  -10.2025    0.0000 O   0  0  0  0  0  0  0  0  0  0  0  0
    5.6100  -10.2025    0.0000 O   0  0  0  0  0  0  0  0  0  0  0  0
    4.1811   -7.7275    0.0000 O   0  0  0  0  0  0  0  0  0  0  0  0
    9.1824   -8.9650    0.0000 O   0  0  0  0  0  0  0  0  0  0  0  0
   10.6113   -6.4900    0.0000 O   0  0  0  0  0  0  0  0  0  0  0  0
    9.1824   -5.6650    0.0000 C   0  0  2  0  0  0  0  0  0  0  0  0
    9.8968   -5.2525    0.0000 O   0  0  0  0  0  0  0  0  0  0  0  0
    9.8968   -4.4275    0.0000 C   0  0  1  0  0  0  0  0  0  0  0  0
    9.1824   -4.0150    0.0000 C   0  0  2  0  0  0  0  0  0  0  0  0
    8.4679   -4.4275    0.0000 C   0  0  1  0  0  0  0  0  0  0  0  0
    8.4679   -5.2525    0.0000 C   0  0  1  0  0  0  0  0  0  0  0  0
   10.6113   -4.0150    0.0000 C   0  0  0  0  0  0  0  0  0  0  0  0
    7.7534   -4.0150    0.0000 O   0  0  0  0  0  0  0  0  0  0  0  0
    9.1824   -3.1900    0.0000 O   0  0  0  0  0  0  0  0  0  0  0  0
    7.7534   -5.6650    0.0000 O   0  0  0  0  0  0  0  0  0  0  0  0
   10.6113   -3.1900    0.0000 O   0  0  0  0  0  0  0  0  0  0  0  0
    9.9792   -5.8785    0.0000 H   0  0  0  0  0  0  0  0  0  0  0  0
  1  2  2  0  0  0  0
  2  3  1  0  0  0  0
  3  4  2  0  0  0  0
  4  5  1  0  0  0  0
  5  6  2  0  0  0  0
  6  1  1  0  0  0  0
  4  7  1  0  0  0  0
  7  8  1  0  0  0  0
  8  9  1  0  0  0  0
  9 10  1  0  0  0  0
 10  5  1  0  0  0  0
  9 11  1  6  0  0  0
 11 12  2  0  0  0  0
 12 13  1  0  0  0  0
 13 14  2  0  0  0  0
 14 15  1  0  0  0  0
 15 16  2  0  0  0  0
 16 11  1  0  0  0  0
  7 17  2  0  0  0  0
  3 18  1  0  0  0  0
  1 19  1  0  0  0  0
 12 20  1  0  0  0  0
 14 21  1  0  0  0  0
 15 22  1  0  0  0  0
 22 23  1  0  0  0  0
 23 24  1  0  0  0  0
 24 25  1  0  0  0  0
 25 26  1  0  0  0  0
 26 27  1  0  0  0  0
 27 22  1  0  0  0  0
 24 28  1  1  0  0  0
 26 29  1  1  0  0  0
 25 30  1  6  0  0  0
 27 31  1  6  0  0  0
 28 32  1  0  0  0  0
 22 33  1  6  0  0  0
M  END
>  <cdx:fragmentId>
260

$$$$
