96961.cdx
  Mrv1902 05222410212D          

 35 39  0  0  0  0            999 V2000
    5.4774   -6.3525    0.0000 C   0  0  0  0  0  0  0  0  0  0  0  0
    5.4774   -7.1775    0.0000 C   0  0  1  0  0  0  0  0  0  0  0  0
    6.1919   -7.5900    0.0000 C   0  0  0  0  0  0  0  0  0  0  0  0
    6.9064   -7.1775    0.0000 C   0  0  0  0  0  0  0  0  0  0  0  0
    6.9064   -6.3525    0.0000 C   0  0  0  0  0  0  0  0  0  0  0  0
    6.1919   -5.9400    0.0000 O   0  0  0  0  0  0  0  0  0  0  0  0
    7.6208   -7.5900    0.0000 C   0  0  0  0  0  0  0  0  0  0  0  0
    8.3353   -7.1775    0.0000 C   0  0  0  0  0  0  0  0  0  0  0  0
    8.3353   -6.3525    0.0000 C   0  0  0  0  0  0  0  0  0  0  0  0
    7.6208   -5.9400    0.0000 C   0  0  0  0  0  0  0  0  0  0  0  0
    9.1199   -7.4324    0.0000 C   0  0  0  0  0  0  0  0  0  0  0  0
    9.6049   -6.7650    0.0000 C   0  0  0  0  0  0  0  0  0  0  0  0
    9.1199   -6.0976    0.0000 O   0  0  0  0  0  0  0  0  0  0  0  0
    4.6524   -6.3525    0.0000 C   0  0  0  0  0  0  0  0  0  0  0  0
    5.0649   -5.6380    0.0000 C   0  0  0  0  0  0  0  0  0  0  0  0
   10.4299   -6.7650    0.0000 C   0  0  0  0  0  0  0  0  0  0  0  0
   10.8424   -7.4795    0.0000 C   0  0  0  0  0  0  0  0  0  0  0  0
   11.6674   -7.4795    0.0000 C   0  0  0  0  0  0  0  0  0  0  0  0
   12.0799   -6.7650    0.0000 C   0  0  0  0  0  0  0  0  0  0  0  0
   11.6674   -6.0505    0.0000 C   0  0  0  0  0  0  0  0  0  0  0  0
   10.8424   -6.0505    0.0000 C   0  0  0  0  0  0  0  0  0  0  0  0
   12.0799   -5.3361    0.0000 O   0  0  0  0  0  0  0  0  0  0  0  0
   12.0799   -8.1939    0.0000 O   0  0  0  0  0  0  0  0  0  0  0  0
    4.7630   -7.5900    0.0000 O   0  0  0  0  0  0  0  0  0  0  0  0
    4.0485   -7.1775    0.0000 C   0  0  2  0  0  0  0  0  0  0  0  0
    4.0485   -6.3525    0.0000 O   0  0  0  0  0  0  0  0  0  0  0  0
    3.3340   -5.9400    0.0000 C   0  0  1  0  0  0  0  0  0  0  0  0
    2.6195   -6.3525    0.0000 C   0  0  2  0  0  0  0  0  0  0  0  0
    2.6195   -7.1775    0.0000 C   0  0  1  0  0  0  0  0  0  0  0  0
    3.3340   -7.5900    0.0000 C   0  0  1  0  0  0  0  0  0  0  0  0
    3.3340   -5.1150    0.0000 C   0  0  0  0  0  0  0  0  0  0  0  0
    1.9051   -7.5900    0.0000 O   0  0  0  0  0  0  0  0  0  0  0  0
    1.9051   -5.9400    0.0000 O   0  0  0  0  0  0  0  0  0  0  0  0
    3.3340   -8.4150    0.0000 O   0  0  0  0  0  0  0  0  0  0  0  0
    2.6195   -4.7025    0.0000 O   0  0  0  0  0  0  0  0  0  0  0  0
  1  2  1  0  0  0  0
  2  3  1  0  0  0  0
  3  4  1  0  0  0  0
  4  5  2  0  0  0  0
  5  6  1  0  0  0  0
  6  1  1  0  0  0  0
  4  7  1  0  0  0  0
  7  8  2  0  0  0  0
  8  9  1  0  0  0  0
  9 10  2  0  0  0  0
 10  5  1  0  0  0  0
  8 11  1  0  0  0  0
 11 12  2  0  0  0  0
 12 13  1  0  0  0  0
 13  9  1  0  0  0  0
  1 14  1  0  0  0  0
  1 15  1  0  0  0  0
 12 16  1  0  0  0  0
 16 17  2  0  0  0  0
 17 18  1  0  0  0  0
 18 19  2  0  0  0  0
 19 20  1  0  0  0  0
 20 21  2  0  0  0  0
 21 16  1  0  0  0  0
 20 22  1  0  0  0  0
 18 23  1  0  0  0  0
  2 24  1  1  0  0  0
 25 24  1  1  0  0  0
 25 26  1  0  0  0  0
 26 27  1  0  0  0  0
 27 28  1  0  0  0  0
 28 29  1  0  0  0  0
 29 30  1  0  0  0  0
 30 25  1  0  0  0  0
 27 31  1  1  0  0  0
 29 32  1  1  0  0  0
 28 33  1  6  0  0  0
 30 34  1  6  0  0  0
 31 35  1  0  0  0  0
M  END
>  <cdx:fragmentId>
5

$$$$
