96962.cdx
  Mrv1902 05222410212D          

 35 39  0  0  0  0            999 V2000
    3.4699   -6.5175    0.0000 C   0  0  0  0  0  0  0  0  0  0  0  0
    3.4699   -7.3425    0.0000 C   0  0  1  0  0  0  0  0  0  0  0  0
    4.1844   -7.7550    0.0000 C   0  0  0  0  0  0  0  0  0  0  0  0
    4.8989   -7.3425    0.0000 C   0  0  0  0  0  0  0  0  0  0  0  0
    4.8989   -6.5175    0.0000 C   0  0  0  0  0  0  0  0  0  0  0  0
    4.1844   -6.1050    0.0000 O   0  0  0  0  0  0  0  0  0  0  0  0
    5.6133   -7.7550    0.0000 C   0  0  0  0  0  0  0  0  0  0  0  0
    6.3278   -7.3425    0.0000 C   0  0  0  0  0  0  0  0  0  0  0  0
    6.3278   -6.5175    0.0000 C   0  0  0  0  0  0  0  0  0  0  0  0
    5.6133   -6.1050    0.0000 C   0  0  0  0  0  0  0  0  0  0  0  0
    7.1124   -7.5974    0.0000 C   0  0  0  0  0  0  0  0  0  0  0  0
    7.5974   -6.9300    0.0000 C   0  0  0  0  0  0  0  0  0  0  0  0
    7.1124   -6.2626    0.0000 O   0  0  0  0  0  0  0  0  0  0  0  0
    2.6449   -6.5175    0.0000 C   0  0  0  0  0  0  0  0  0  0  0  0
    3.0574   -5.8030    0.0000 C   0  0  0  0  0  0  0  0  0  0  0  0
    8.4224   -6.9300    0.0000 C   0  0  0  0  0  0  0  0  0  0  0  0
    8.8349   -7.6445    0.0000 C   0  0  0  0  0  0  0  0  0  0  0  0
    9.6599   -7.6445    0.0000 C   0  0  0  0  0  0  0  0  0  0  0  0
   10.0724   -6.9300    0.0000 C   0  0  0  0  0  0  0  0  0  0  0  0
    9.6599   -6.2155    0.0000 C   0  0  0  0  0  0  0  0  0  0  0  0
    8.8349   -6.2155    0.0000 C   0  0  0  0  0  0  0  0  0  0  0  0
   10.0724   -5.5011    0.0000 O   0  0  0  0  0  0  0  0  0  0  0  0
   10.0724   -8.3589    0.0000 O   0  0  0  0  0  0  0  0  0  0  0  0
    2.7555   -7.7550    0.0000 O   0  0  0  0  0  0  0  0  0  0  0  0
    8.4313   -9.7886    0.0000 C   0  0  2  0  0  0  0  0  0  0  0  0
    8.8431  -10.5035    0.0000 C   0  0  2  0  0  0  0  0  0  0  0  0
    9.6681  -10.5042    0.0000 C   0  0  1  0  0  0  0  0  0  0  0  0
   10.0813   -9.7901    0.0000 C   0  0  2  0  0  0  0  0  0  0  0  0
    9.6694   -9.0753    0.0000 C   0  0  1  0  0  0  0  0  0  0  0  0
    8.8444   -9.0745    0.0000 O   0  0  0  0  0  0  0  0  0  0  0  0
    7.6063   -9.7879    0.0000 C   0  0  0  0  0  0  0  0  0  0  0  0
   10.0800  -11.2190    0.0000 O   0  0  0  0  0  0  0  0  0  0  0  0
    8.4300  -11.2176    0.0000 O   0  0  0  0  0  0  0  0  0  0  0  0
   10.9063   -9.7908    0.0000 O   0  0  0  0  0  0  0  0  0  0  0  0
    7.1931  -10.5020    0.0000 O   0  0  0  0  0  0  0  0  0  0  0  0
  1  2  1  0  0  0  0
  2  3  1  0  0  0  0
  3  4  1  0  0  0  0
  4  5  2  0  0  0  0
  5  6  1  0  0  0  0
  6  1  1  0  0  0  0
  4  7  1  0  0  0  0
  7  8  2  0  0  0  0
  8  9  1  0  0  0  0
  9 10  2  0  0  0  0
 10  5  1  0  0  0  0
  8 11  1  0  0  0  0
 11 12  2  0  0  0  0
 12 13  1  0  0  0  0
 13  9  1  0  0  0  0
  1 14  1  0  0  0  0
  1 15  1  0  0  0  0
 12 16  1  0  0  0  0
 16 17  2  0  0  0  0
 17 18  1  0  0  0  0
 18 19  2  0  0  0  0
 19 20  1  0  0  0  0
 20 21  2  0  0  0  0
 21 16  1  0  0  0  0
 20 22  1  0  0  0  0
 18 23  1  0  0  0  0
  2 24  1  1  0  0  0
 25 26  1  0  0  0  0
 26 27  1  0  0  0  0
 27 28  1  0  0  0  0
 28 29  1  0  0  0  0
 29 30  1  0  0  0  0
 30 25  1  0  0  0  0
 25 31  1  1  0  0  0
 27 32  1  1  0  0  0
 26 33  1  6  0  0  0
 28 34  1  6  0  0  0
 31 35  1  0  0  0  0
 29 23  1  1  0  0  0
M  END
>  <cdx:fragmentId>
5

$$$$
