96968.cdx
  Mrv1902 05222410242D          

 38 42  0  0  0  0            999 V2000
    4.3378  -10.4585    0.0000 C   0  0  2  0  0  0  0  0  0  0  0  0
    4.3378   -9.6335    0.0000 C   0  0  1  0  0  0  0  0  0  0  0  0
    5.0522   -9.2210    0.0000 C   0  0  1  0  0  0  0  0  0  0  0  0
    5.0522  -10.8710    0.0000 C   0  0  2  0  0  0  0  0  0  0  0  0
    5.4647  -11.5855    0.0000 C   0  0  0  0  0  0  0  0  0  0  0  0
    4.6397  -11.5855    0.0000 C   0  0  0  0  0  0  0  0  0  0  0  0
    5.7667  -10.4585    0.0000 C   0  0  2  0  0  0  0  0  0  0  0  0
    5.7667  -11.2835    0.0000 H   0  0  0  0  0  0  0  0  0  0  0  0
    6.4812  -10.8710    0.0000 C   0  0  0  0  0  0  0  0  0  0  0  0
    7.1956  -10.4585    0.0000 C   0  0  0  0  0  0  0  0  0  0  0  0
    7.1956   -9.6335    0.0000 C   0  0  1  0  0  0  0  0  0  0  0  0
    7.1956   -8.8085    0.0000 C   0  0  0  0  0  0  0  0  0  0  0  0
    7.9101   -9.2210    0.0000 C   0  0  2  0  0  0  0  0  0  0  0  0
    7.9101  -10.0460    0.0000 C   0  0  0  0  0  0  0  0  0  0  0  0
    8.6246   -9.6335    0.0000 C   0  0  0  0  0  0  0  0  0  0  0  0
    9.3391   -9.2210    0.0000 C   0  0  0  0  0  0  0  0  0  0  0  0
    9.3391   -8.3960    0.0000 C   0  0  1  0  0  0  0  0  0  0  0  0
   10.0535   -8.8085    0.0000 C   0  0  0  0  0  0  0  0  0  0  0  0
   10.0535   -7.9835    0.0000 C   0  0  0  0  0  0  0  0  0  0  0  0
   10.0535   -7.1585    0.0000 C   0  0  0  0  0  0  0  0  0  0  0  0
    9.3391   -6.7460    0.0000 C   0  0  1  0  0  0  0  0  0  0  0  0
    9.7516   -6.0315    0.0000 C   0  0  0  0  0  0  0  0  0  0  0  0
    8.6246   -7.1585    0.0000 C   0  0  2  0  0  0  0  0  0  0  0  0
    7.9101   -6.7460    0.0000 C   0  0  0  0  0  0  0  0  0  0  0  0
    8.6246   -7.9835    0.0000 C   0  0  0  0  0  0  0  0  0  0  0  0
    7.9101   -8.3960    0.0000 C   0  0  0  0  0  0  0  0  0  0  0  0
    7.1956   -7.9835    0.0000 C   0  0  0  0  0  0  0  0  0  0  0  0
    6.4812   -8.3960    0.0000 C   0  0  0  0  0  0  0  0  0  0  0  0
    6.4812   -9.2210    0.0000 C   0  0  2  0  0  0  0  0  0  0  0  0
    5.7667   -9.6335    0.0000 C   0  0  1  0  0  0  0  0  0  0  0  0
    5.7667   -8.8085    0.0000 C   0  0  0  0  0  0  0  0  0  0  0  0
   10.0535   -9.6335    0.0000 O   0  0  0  0  0  0  0  0  0  0  0  0
   10.7680   -8.3960    0.0000 O   0  0  0  0  0  0  0  0  0  0  0  0
    8.9266   -6.0315    0.0000 O   0  0  0  0  0  0  0  0  0  0  0  0
    3.6233  -10.8710    0.0000 O   0  0  0  0  0  0  0  0  0  0  0  0
    3.6233   -9.2210    0.0000 O   0  0  0  0  0  0  0  0  0  0  0  0
    5.0522   -8.3960    0.0000 O   0  0  0  0  0  0  0  0  0  0  0  0
    6.4812  -10.0460    0.0000 H   0  0  0  0  0  0  0  0  0  0  0  0
  1  2  1  0  0  0  0
  2  3  1  0  0  0  0
  1  4  1  0  0  0  0
  4  5  1  6  0  0  0
  4  6  1  1  0  0  0
  4  7  1  0  0  0  0
  7  8  1  6  0  0  0
  7  9  1  0  0  0  0
  9 10  1  0  0  0  0
 10 11  1  0  0  0  0
 11 12  1  1  0  0  0
 11 13  1  0  0  0  0
 13 14  1  6  0  0  0
 13 15  1  0  0  0  0
 15 16  1  0  0  0  0
 16 17  1  0  0  0  0
 17 18  1  1  0  0  0
 17 19  1  0  0  0  0
 19 20  1  0  0  0  0
 20 21  1  0  0  0  0
 21 22  1  6  0  0  0
 21 23  1  0  0  0  0
 23 24  1  1  0  0  0
 23 25  1  0  0  0  0
 17 25  1  0  0  0  0
 25 26  2  0  0  0  0
 13 26  1  0  0  0  0
 26 27  1  0  0  0  0
 27 28  1  0  0  0  0
 28 29  1  0  0  0  0
 11 29  1  0  0  0  0
 29 30  1  0  0  0  0
  3 30  1  0  0  0  0
  7 30  1  0  0  0  0
 30 31  1  1  0  0  0
 18 32  2  0  0  0  0
 18 33  1  0  0  0  0
 21 34  1  1  0  0  0
  1 35  1  6  0  0  0
  2 36  1  6  0  0  0
  3 37  1  6  0  0  0
 29 38  1  6  0  0  0
M  END
>  <cdx:fragmentId>
5

$$$$
