96967.cdx
  Mrv1902 05222410232D          

 20 21  0  0  0  0            999 V2000
    5.6930   -4.7850    0.0000 C   0  0  0  0  0  0  0  0  0  0  0  0
    5.6930   -5.6100    0.0000 C   0  0  0  0  0  0  0  0  0  0  0  0
    6.4075   -6.0225    0.0000 C   0  0  0  0  0  0  0  0  0  0  0  0
    7.1220   -5.6100    0.0000 C   0  0  0  0  0  0  0  0  0  0  0  0
    7.1220   -4.7850    0.0000 C   0  0  0  0  0  0  0  0  0  0  0  0
    6.4075   -4.3725    0.0000 C   0  0  0  0  0  0  0  0  0  0  0  0
    7.8364   -6.0225    0.0000 C   0  0  0  0  0  0  0  0  0  0  0  0
    7.8364   -6.8475    0.0000 C   0  0  0  0  0  0  0  0  0  0  0  0
    7.1220   -7.2600    0.0000 C   0  0  0  0  0  0  0  0  0  0  0  0
    7.1220   -8.0850    0.0000 C   0  0  0  0  0  0  0  0  0  0  0  0
    7.8364   -8.4975    0.0000 C   0  0  0  0  0  0  0  0  0  0  0  0
    8.5509   -8.0850    0.0000 C   0  0  0  0  0  0  0  0  0  0  0  0
    8.5509   -7.2600    0.0000 C   0  0  0  0  0  0  0  0  0  0  0  0
    4.9786   -4.3725    0.0000 O   0  0  0  0  0  0  0  0  0  0  0  0
    7.8364   -4.3725    0.0000 O   0  0  0  0  0  0  0  0  0  0  0  0
    4.9786   -6.0225    0.0000 C   0  0  0  0  0  0  0  0  0  0  0  0
    4.2641   -5.6100    0.0000 O   0  0  0  0  0  0  0  0  0  0  0  0
    4.9786   -6.8475    0.0000 O   0  0  0  0  0  0  0  0  0  0  0  0
    7.8364   -9.3225    0.0000 O   0  0  0  0  0  0  0  0  0  0  0  0
    9.2654   -8.4975    0.0000 O   0  0  0  0  0  0  0  0  0  0  0  0
  1  2  2  0  0  0  0
  2  3  1  0  0  0  0
  3  4  2  0  0  0  0
  4  5  1  0  0  0  0
  5  6  2  0  0  0  0
  6  1  1  0  0  0  0
  4  7  1  0  0  0  0
  7  8  1  0  0  0  0
  8  9  2  0  0  0  0
  9 10  1  0  0  0  0
 10 11  2  0  0  0  0
 11 12  1  0  0  0  0
 12 13  2  0  0  0  0
 13  8  1  0  0  0  0
  1 14  1  0  0  0  0
  5 15  1  0  0  0  0
  2 16  1  0  0  0  0
 16 17  1  0  0  0  0
 16 18  2  0  0  0  0
 11 19  1  0  0  0  0
 12 20  1  0  0  0  0
M  END
>  <cdx:fragmentId>
188

$$$$
