96964.cdx
  Mrv1902 05222410222D          

 44 49  0  0  0  0            999 V2000
    2.2324   -6.2425    0.0000 C   0  0  0  0  0  0  0  0  0  0  0  0
    2.2324   -7.0675    0.0000 C   0  0  1  0  0  0  0  0  0  0  0  0
    2.9469   -7.4800    0.0000 C   0  0  0  0  0  0  0  0  0  0  0  0
    3.6614   -7.0675    0.0000 C   0  0  0  0  0  0  0  0  0  0  0  0
    3.6614   -6.2425    0.0000 C   0  0  0  0  0  0  0  0  0  0  0  0
    2.9469   -5.8300    0.0000 O   0  0  0  0  0  0  0  0  0  0  0  0
    4.3758   -7.4800    0.0000 C   0  0  0  0  0  0  0  0  0  0  0  0
    5.0903   -7.0675    0.0000 C   0  0  0  0  0  0  0  0  0  0  0  0
    5.0903   -6.2425    0.0000 C   0  0  0  0  0  0  0  0  0  0  0  0
    4.3758   -5.8300    0.0000 C   0  0  0  0  0  0  0  0  0  0  0  0
    5.8749   -7.3224    0.0000 C   0  0  0  0  0  0  0  0  0  0  0  0
    6.3599   -6.6550    0.0000 C   0  0  0  0  0  0  0  0  0  0  0  0
    5.8749   -5.9876    0.0000 O   0  0  0  0  0  0  0  0  0  0  0  0
    1.4074   -6.2425    0.0000 C   0  0  0  0  0  0  0  0  0  0  0  0
    1.8199   -5.5280    0.0000 C   0  0  0  0  0  0  0  0  0  0  0  0
    7.1849   -6.6550    0.0000 C   0  0  0  0  0  0  0  0  0  0  0  0
    7.5974   -7.3695    0.0000 C   0  0  0  0  0  0  0  0  0  0  0  0
    8.4224   -7.3695    0.0000 C   0  0  0  0  0  0  0  0  0  0  0  0
    8.8349   -6.6550    0.0000 C   0  0  0  0  0  0  0  0  0  0  0  0
    8.4224   -5.9405    0.0000 C   0  0  0  0  0  0  0  0  0  0  0  0
    7.5974   -5.9405    0.0000 C   0  0  0  0  0  0  0  0  0  0  0  0
    8.8349   -5.2261    0.0000 O   0  0  0  0  0  0  0  0  0  0  0  0
    8.8349   -8.0839    0.0000 O   0  0  0  0  0  0  0  0  0  0  0  0
    1.5180   -7.4800    0.0000 O   0  0  0  0  0  0  0  0  0  0  0  0
    7.1938   -9.5136    0.0000 C   0  0  0  0  0  0  0  0  0  0  0  0
    7.6056  -10.2285    0.0000 C   0  0  1  0  0  0  0  0  0  0  0  0
    8.4306  -10.2292    0.0000 C   0  0  1  0  0  0  0  0  0  0  0  0
    8.8438   -9.5151    0.0000 C   0  0  2  0  0  0  0  0  0  0  0  0
    8.4319   -8.8003    0.0000 C   0  0  1  0  0  0  0  0  0  0  0  0
    7.6069   -8.7995    0.0000 O   0  0  0  0  0  0  0  0  0  0  0  0
    8.8425  -10.9440    0.0000 O   0  0  0  0  0  0  0  0  0  0  0  0
    7.1925  -10.9426    0.0000 O   0  0  0  0  0  0  0  0  0  0  0  0
    9.6688   -9.5158    0.0000 O   0  0  0  0  0  0  0  0  0  0  0  0
   10.3830   -9.1030    0.0000 C   0  0  2  0  0  0  0  0  0  0  0  0
   11.0975   -9.5155    0.0000 O   0  0  0  0  0  0  0  0  0  0  0  0
   11.8120   -9.1030    0.0000 C   0  0  1  0  0  0  0  0  0  0  0  0
   11.8103   -8.2770    0.0000 C   0  0  2  0  0  0  0  0  0  0  0  0
   11.0953   -7.8655    0.0000 C   0  0  1  0  0  0  0  0  0  0  0  0
   10.3803   -8.2790    0.0000 C   0  0  1  0  0  0  0  0  0  0  0  0
   12.5269   -9.5148    0.0000 C   0  0  0  0  0  0  0  0  0  0  0  0
   11.0944   -7.0405    0.0000 O   0  0  0  0  0  0  0  0  0  0  0  0
    9.6650   -7.8679    0.0000 O   0  0  0  0  0  0  0  0  0  0  0  0
   12.5241   -7.8633    0.0000 O   0  0  0  0  0  0  0  0  0  0  0  0
   13.2409   -9.1015    0.0000 O   0  0  0  0  0  0  0  0  0  0  0  0
  1  2  1  0  0  0  0
  2  3  1  0  0  0  0
  3  4  1  0  0  0  0
  4  5  2  0  0  0  0
  5  6  1  0  0  0  0
  6  1  1  0  0  0  0
  4  7  1  0  0  0  0
  7  8  2  0  0  0  0
  8  9  1  0  0  0  0
  9 10  2  0  0  0  0
 10  5  1  0  0  0  0
  8 11  1  0  0  0  0
 11 12  2  0  0  0  0
 12 13  1  0  0  0  0
 13  9  1  0  0  0  0
  1 14  1  0  0  0  0
  1 15  1  0  0  0  0
 12 16  1  0  0  0  0
 16 17  2  0  0  0  0
 17 18  1  0  0  0  0
 18 19  2  0  0  0  0
 19 20  1  0  0  0  0
 20 21  2  0  0  0  0
 21 16  1  0  0  0  0
 20 22  1  0  0  0  0
 18 23  1  0  0  0  0
  2 24  1  1  0  0  0
 25 26  1  0  0  0  0
 26 27  1  0  0  0  0
 27 28  1  0  0  0  0
 28 29  1  0  0  0  0
 29 30  1  0  0  0  0
 30 25  1  0  0  0  0
 27 31  1  1  0  0  0
 26 32  1  1  0  0  0
 28 33  1  6  0  0  0
 29 23  1  1  0  0  0
 34 33  1  1  0  0  0
 34 35  1  0  0  0  0
 35 36  1  0  0  0  0
 36 37  1  0  0  0  0
 37 38  1  0  0  0  0
 38 39  1  0  0  0  0
 39 34  1  0  0  0  0
 36 40  1  1  0  0  0
 38 41  1  1  0  0  0
 39 42  1  6  0  0  0
 37 43  1  6  0  0  0
 40 44  1  0  0  0  0
M  END
>  <cdx:fragmentId>
5

$$$$
