96965.cdx
  Mrv1902 05222410222D          

 33 37  0  0  0  0            999 V2000
    4.3774   -6.4350    0.0000 C   0  0  0  0  0  0  0  0  0  0  0  0
    4.3774   -7.2600    0.0000 C   0  0  1  0  0  0  0  0  0  0  0  0
    5.0919   -7.6725    0.0000 C   0  0  0  0  0  0  0  0  0  0  0  0
    5.8064   -7.2600    0.0000 C   0  0  0  0  0  0  0  0  0  0  0  0
    5.8064   -6.4350    0.0000 C   0  0  0  0  0  0  0  0  0  0  0  0
    5.0919   -6.0225    0.0000 O   0  0  0  0  0  0  0  0  0  0  0  0
    6.5208   -7.6725    0.0000 C   0  0  0  0  0  0  0  0  0  0  0  0
    7.2353   -7.2600    0.0000 C   0  0  0  0  0  0  0  0  0  0  0  0
    7.2353   -6.4350    0.0000 C   0  0  0  0  0  0  0  0  0  0  0  0
    6.5208   -6.0225    0.0000 C   0  0  0  0  0  0  0  0  0  0  0  0
    8.0199   -7.5149    0.0000 C   0  0  0  0  0  0  0  0  0  0  0  0
    8.5049   -6.8475    0.0000 C   0  0  0  0  0  0  0  0  0  0  0  0
    8.0199   -6.1801    0.0000 O   0  0  0  0  0  0  0  0  0  0  0  0
    3.5524   -6.4350    0.0000 C   0  0  0  0  0  0  0  0  0  0  0  0
    3.9649   -5.7205    0.0000 C   0  0  0  0  0  0  0  0  0  0  0  0
    9.3299   -6.8475    0.0000 C   0  0  0  0  0  0  0  0  0  0  0  0
    9.7424   -7.5620    0.0000 C   0  0  0  0  0  0  0  0  0  0  0  0
   10.5674   -7.5620    0.0000 C   0  0  0  0  0  0  0  0  0  0  0  0
   10.9799   -6.8475    0.0000 C   0  0  0  0  0  0  0  0  0  0  0  0
   10.5674   -6.1330    0.0000 C   0  0  0  0  0  0  0  0  0  0  0  0
    9.7424   -6.1330    0.0000 C   0  0  0  0  0  0  0  0  0  0  0  0
   10.9799   -5.4186    0.0000 O   0  0  0  0  0  0  0  0  0  0  0  0
   10.9799   -8.2764    0.0000 O   0  0  0  0  0  0  0  0  0  0  0  0
    3.6630   -7.6725    0.0000 O   0  0  0  0  0  0  0  0  0  0  0  0
    9.3388   -9.7061    0.0000 C   0  0  0  0  0  0  0  0  0  0  0  0
    9.7506  -10.4210    0.0000 C   0  0  2  0  0  0  0  0  0  0  0  0
   10.5756  -10.4217    0.0000 C   0  0  1  0  0  0  0  0  0  0  0  0
   10.9888   -9.7076    0.0000 C   0  0  2  0  0  0  0  0  0  0  0  0
   10.5769   -8.9928    0.0000 C   0  0  1  0  0  0  0  0  0  0  0  0
    9.7519   -8.9920    0.0000 O   0  0  0  0  0  0  0  0  0  0  0  0
   10.9875  -11.1365    0.0000 O   0  0  0  0  0  0  0  0  0  0  0  0
    9.3375  -11.1351    0.0000 O   0  0  0  0  0  0  0  0  0  0  0  0
   11.8138   -9.7083    0.0000 O   0  0  0  0  0  0  0  0  0  0  0  0
  1  2  1  0  0  0  0
  2  3  1  0  0  0  0
  3  4  1  0  0  0  0
  4  5  2  0  0  0  0
  5  6  1  0  0  0  0
  6  1  1  0  0  0  0
  4  7  1  0  0  0  0
  7  8  2  0  0  0  0
  8  9  1  0  0  0  0
  9 10  2  0  0  0  0
 10  5  1  0  0  0  0
  8 11  1  0  0  0  0
 11 12  2  0  0  0  0
 12 13  1  0  0  0  0
 13  9  1  0  0  0  0
  1 14  1  0  0  0  0
  1 15  1  0  0  0  0
 12 16  1  0  0  0  0
 16 17  2  0  0  0  0
 17 18  1  0  0  0  0
 18 19  2  0  0  0  0
 19 20  1  0  0  0  0
 20 21  2  0  0  0  0
 21 16  1  0  0  0  0
 20 22  1  0  0  0  0
 18 23  1  0  0  0  0
  2 24  1  1  0  0  0
 25 26  1  0  0  0  0
 26 27  1  0  0  0  0
 27 28  1  0  0  0  0
 28 29  1  0  0  0  0
 29 30  1  0  0  0  0
 30 25  1  0  0  0  0
 27 31  1  1  0  0  0
 26 32  1  6  0  0  0
 28 33  1  6  0  0  0
 29 23  1  1  0  0  0
M  END
>  <cdx:fragmentId>
5

$$$$
