96977.cdx
  Mrv1902 05222410202D          

 30 31  0  0  0  0            999 V2000
   10.0740   -8.8598    0.0000 C   0  0  0  0  0  0  0  0  0  0  0  0
   10.0740   -8.0348    0.0000 C   0  0  0  0  0  0  0  0  0  0  0  0
    9.3596   -7.6223    0.0000 C   0  0  0  0  0  0  0  0  0  0  0  0
    8.6451   -8.0348    0.0000 C   0  0  0  0  0  0  0  0  0  0  0  0
    8.6451   -8.8598    0.0000 C   0  0  0  0  0  0  0  0  0  0  0  0
    9.3596   -9.2723    0.0000 C   0  0  0  0  0  0  0  0  0  0  0  0
   10.7885   -9.2723    0.0000 O   0  0  0  0  0  0  0  0  0  0  0  0
    8.9471   -9.9867    0.0000 C   0  0  0  0  0  0  0  0  0  0  0  0
    9.7721   -9.9867    0.0000 C   0  0  0  0  0  0  0  0  0  0  0  0
    8.0617   -9.4431    0.0000 O   0  0  0  0  0  0  0  0  0  0  0  0
    9.3596   -6.7973    0.0000 O   0  0  0  0  0  0  0  0  0  0  0  0
    7.7163   -7.4985    0.0000 C   0  0  0  0  0  0  0  0  0  0  0  0
    6.7875   -8.0348    0.0000 C   0  0  0  0  0  0  0  0  0  0  0  0
    6.0730   -7.6223    0.0000 C   0  0  0  0  0  0  0  0  0  0  0  0
    5.3585   -8.0348    0.0000 C   0  0  0  0  0  0  0  0  0  0  0  0
    5.3585   -8.8598    0.0000 C   0  0  0  0  0  0  0  0  0  0  0  0
    6.0730   -9.2723    0.0000 C   0  0  0  0  0  0  0  0  0  0  0  0
    6.7875   -8.8598    0.0000 C   0  0  0  0  0  0  0  0  0  0  0  0
    6.0730  -10.0973    0.0000 C   0  0  0  0  0  0  0  0  0  0  0  0
    7.3708   -9.4431    0.0000 O   0  0  0  0  0  0  0  0  0  0  0  0
    4.6441   -9.2723    0.0000 O   0  0  0  0  0  0  0  0  0  0  0  0
    6.0730   -6.7973    0.0000 O   0  0  0  0  0  0  0  0  0  0  0  0
    4.6441   -7.6223    0.0000 C   0  0  0  0  0  0  0  0  0  0  0  0
    3.9296   -8.0348    0.0000 C   0  0  0  0  0  0  0  0  0  0  0  0
    3.2151   -7.6223    0.0000 C   0  0  0  0  0  0  0  0  0  0  0  0
    2.5007   -8.0348    0.0000 C   0  0  0  0  0  0  0  0  0  0  0  0
    4.6441   -6.7973    0.0000 O   0  0  0  0  0  0  0  0  0  0  0  0
   10.7885   -7.6223    0.0000 C   0  0  0  0  0  0  0  0  0  0  0  0
   10.7885   -6.7973    0.0000 O   0  0  0  0  0  0  0  0  0  0  0  0
   11.5030   -8.0348    0.0000 C   0  0  0  0  0  0  0  0  0  0  0  0
  1  2  1  0  0  0  0
  2  3  2  0  0  0  0
  3  4  1  0  0  0  0
  4  5  2  0  0  0  0
  5  6  1  0  0  0  0
  1  6  1  0  0  0  0
  1  7  2  0  0  0  0
  6  8  1  0  0  0  0
  6  9  1  0  0  0  0
  5 10  1  0  0  0  0
  3 11  1  0  0  0  0
 13 14  1  0  0  0  0
 14 15  2  0  0  0  0
 15 16  1  0  0  0  0
 16 17  2  0  0  0  0
 17 18  1  0  0  0  0
 13 18  2  0  0  0  0
 17 19  1  0  0  0  0
 18 20  1  0  0  0  0
 16 21  1  0  0  0  0
 14 22  1  0  0  0  0
 23 24  1  0  0  0  0
 24 25  1  0  0  0  0
 25 26  1  0  0  0  0
 23 27  2  0  0  0  0
 15 23  1  0  0  0  0
 12 13  1  0  0  0  0
  4 12  1  0  0  0  0
 28 29  2  0  0  0  0
 28 30  1  0  0  0  0
  2 28  1  0  0  0  0
M  END
>  <cdx:fragmentId>
5639

$$$$
