96978.cdx
  Mrv1902 05222410242D          

 28 30  0  0  0  0            999 V2000
    5.4202  -10.0305    0.0000 O   0  0  0  0  0  0  0  0  0  0  0  0
    4.6967   -9.6341    0.0000 C   0  0  1  0  0  0  0  0  0  0  0  0
    3.9916  -10.0624    0.0000 C   0  0  2  0  0  0  0  0  0  0  0  0
    4.0101  -10.8872    0.0000 O   0  0  0  0  0  0  0  0  0  0  0  0
    3.2681   -9.6660    0.0000 C   0  0  1  0  0  0  0  0  0  0  0  0
    2.5631  -10.0943    0.0000 O   0  0  0  0  0  0  0  0  0  0  0  0
    3.2497   -8.8412    0.0000 C   0  0  1  0  0  0  0  0  0  0  0  0
    2.5262   -8.4447    0.0000 O   0  0  0  0  0  0  0  0  0  0  0  0
    3.9548   -8.4128    0.0000 C   0  0  2  0  0  0  0  0  0  0  0  0
    4.6783   -8.8093    0.0000 O   0  0  0  0  0  0  0  0  0  0  0  0
    3.9364   -7.5880    0.0000 C   0  0  0  0  0  0  0  0  0  0  0  0
    3.2129   -7.1916    0.0000 O   0  0  0  0  0  0  0  0  0  0  0  0
   12.5647   -9.9681    0.0000 O   0  0  0  0  0  0  0  0  0  0  0  0
   11.1214   -8.3307    0.0000 C   0  0  0  0  0  0  0  0  0  0  0  0
   11.8394   -8.7369    0.0000 C   0  0  0  0  0  0  0  0  0  0  0  0
   11.8466   -9.5619    0.0000 C   0  0  0  0  0  0  0  0  0  0  0  0
   11.1358   -9.9806    0.0000 C   0  0  0  0  0  0  0  0  0  0  0  0
   10.4177   -9.5744    0.0000 C   0  0  0  0  0  0  0  0  0  0  0  0
   10.4105   -8.7494    0.0000 C   0  0  0  0  0  0  0  0  0  0  0  0
    9.6925   -8.3431    0.0000 C   0  0  0  0  0  0  0  0  0  0  0  0
    7.5600   -9.5993    0.0000 C   0  0  0  0  0  0  0  0  0  0  0  0
    6.8491  -10.0180    0.0000 C   0  0  0  0  0  0  0  0  0  0  0  0
    6.1311   -9.6118    0.0000 C   0  0  0  0  0  0  0  0  0  0  0  0
    6.1239   -8.7868    0.0000 C   0  0  0  0  0  0  0  0  0  0  0  0
    6.8347   -8.3681    0.0000 C   0  0  0  0  0  0  0  0  0  0  0  0
    7.5528   -8.7743    0.0000 C   0  0  0  0  0  0  0  0  0  0  0  0
    8.2636   -8.3556    0.0000 C   0  0  0  0  0  0  0  0  0  0  0  0
    8.9816   -8.7619    0.0000 O   0  0  0  0  0  0  0  0  0  0  0  0
 23  1  1  0  0  0  0
 28 20  1  0  0  0  0
 16 13  1  0  0  0  0
 19 14  2  0  0  0  0
 15 14  1  0  0  0  0
 16 15  2  0  0  0  0
 17 16  1  0  0  0  0
 18 17  2  0  0  0  0
 19 18  1  0  0  0  0
 20 19  1  0  0  0  0
 28 27  1  0  0  0  0
 26 21  2  0  0  0  0
 22 21  1  0  0  0  0
 23 22  2  0  0  0  0
 24 23  1  0  0  0  0
 25 24  2  0  0  0  0
 26 25  1  0  0  0  0
 27 26  1  0  0  0  0
  2  1  1  1  0  0  0
  2  3  1  0  0  0  0
  3  4  1  6  0  0  0
  3  5  1  0  0  0  0
  5  6  1  1  0  0  0
  5  7  1  0  0  0  0
  7  8  1  1  0  0  0
  7  9  1  0  0  0  0
  9 10  1  0  0  0  0
  9 11  1  1  0  0  0
 11 12  1  0  0  0  0
  2 10  1  0  0  0  0
M  END
>  <cdx:fragmentId>
21

$$$$
