96985.cdx
  Mrv1902 05222410252D          

 22 24  0  0  0  0            999 V2000
    9.4917   -8.3616    0.0000 O   0  0  0  0  0  0  0  0  0  0  0  0
    9.4917   -9.1866    0.0000 C   0  0  0  0  0  0  0  0  0  0  0  0
    8.7772   -9.5991    0.0000 C   0  0  0  0  0  0  0  0  0  0  0  0
    8.0628   -9.1866    0.0000 C   0  0  0  0  0  0  0  0  0  0  0  0
    7.3483   -9.5991    0.0000 C   0  0  0  0  0  0  0  0  0  0  0  0
    6.6338   -9.1866    0.0000 C   0  0  0  0  0  0  0  0  0  0  0  0
    6.6338   -8.3616    0.0000 C   0  0  0  0  0  0  0  0  0  0  0  0
    7.3483   -7.9491    0.0000 C   0  0  0  0  0  0  0  0  0  0  0  0
    8.0628   -8.3616    0.0000 C   0  0  0  0  0  0  0  0  0  0  0  0
    8.7772   -7.9491    0.0000 C   0  0  0  0  0  0  0  0  0  0  0  0
    5.9193   -7.9491    0.0000 C   0  0  0  0  0  0  0  0  0  0  0  0
    5.2049   -8.3616    0.0000 C   0  0  0  0  0  0  0  0  0  0  0  0
    5.2049   -9.1866    0.0000 C   0  0  0  0  0  0  0  0  0  0  0  0
    5.9193   -9.5991    0.0000 C   0  0  0  0  0  0  0  0  0  0  0  0
    5.9193  -10.4241    0.0000 O   0  0  0  0  0  0  0  0  0  0  0  0
    5.9193   -7.1241    0.0000 O   0  0  0  0  0  0  0  0  0  0  0  0
    9.9042   -9.9011    0.0000 C   0  0  0  0  0  0  0  0  0  0  0  0
    4.4904   -9.5991    0.0000 O   0  0  0  0  0  0  0  0  0  0  0  0
    3.7759   -9.1866    0.0000 C   0  0  0  0  0  0  0  0  0  0  0  0
    7.3483   -7.1241    0.0000 O   0  0  0  0  0  0  0  0  0  0  0  0
    7.3483  -10.4241    0.0000 O   0  0  0  0  0  0  0  0  0  0  0  0
   10.3167   -9.1866    0.0000 O   0  0  0  0  0  0  0  0  0  0  0  0
  1  2  1  0  0  0  0
  2  3  1  0  0  0  0
  3  4  1  0  0  0  0
  4  5  1  0  0  0  0
  5  6  2  0  0  0  0
  6  7  1  0  0  0  0
  7  8  2  0  0  0  0
  8  9  1  0  0  0  0
  4  9  2  0  0  0  0
  9 10  1  0  0  0  0
  1 10  1  0  0  0  0
 11 12  1  0  0  0  0
 12 13  2  0  0  0  0
 13 14  1  0  0  0  0
 14  6  1  0  0  0  0
 11  7  1  0  0  0  0
 14 15  2  0  0  0  0
 11 16  2  0  0  0  0
  2 17  1  0  0  0  0
 18 19  1  0  0  0  0
 13 18  1  0  0  0  0
  8 20  1  0  0  0  0
  5 21  1  0  0  0  0
  2 22  1  0  0  0  0
M  END
>  <cdx:fragmentId>
5

$$$$
