96983.cdx
  Mrv1902 05222410242D          

 27 30  0  0  0  0            999 V2000
    4.7194  -10.4254    0.0000 C   0  0  1  0  0  0  0  0  0  0  0  0
    4.7194   -9.6004    0.0000 C   0  0  0  0  0  0  0  0  0  0  0  0
    5.4339   -9.1879    0.0000 C   0  0  0  0  0  0  0  0  0  0  0  0
    5.4339  -10.8379    0.0000 C   0  0  0  0  0  0  0  0  0  0  0  0
    6.1484  -10.4254    0.0000 C   0  0  0  0  0  0  0  0  0  0  0  0
    6.8628  -10.8379    0.0000 C   0  0  0  0  0  0  0  0  0  0  0  0
    7.5773  -10.4254    0.0000 C   0  0  0  0  0  0  0  0  0  0  0  0
    7.5773   -9.6004    0.0000 C   0  0  1  0  0  0  0  0  0  0  0  0
    8.2918   -9.1879    0.0000 C   0  0  2  0  0  0  0  0  0  0  0  0
    9.0764   -9.4429    0.0000 C   0  0  0  0  0  0  0  0  0  0  0  0
    9.5613   -8.7754    0.0000 C   0  0  2  0  0  0  0  0  0  0  0  0
    9.0764   -8.1080    0.0000 C   0  0  2  0  0  0  0  0  0  0  0  0
    9.3314   -7.3234    0.0000 C   0  0  0  0  0  0  0  0  0  0  0  0
   10.1383   -7.1518    0.0000 C   0  0  0  0  0  0  0  0  0  0  0  0
    8.2918   -8.3629    0.0000 C   0  0  2  0  0  0  0  0  0  0  0  0
    8.2918   -7.5379    0.0000 C   0  0  0  0  0  0  0  0  0  0  0  0
    7.5773   -7.9504    0.0000 C   0  0  0  0  0  0  0  0  0  0  0  0
    6.8628   -8.3629    0.0000 C   0  0  0  0  0  0  0  0  0  0  0  0
    6.8628   -9.1879    0.0000 C   0  0  2  0  0  0  0  0  0  0  0  0
    6.1484   -9.6004    0.0000 C   0  0  1  0  0  0  0  0  0  0  0  0
    6.1484   -8.7754    0.0000 C   0  0  0  0  0  0  0  0  0  0  0  0
    8.7793   -6.7103    0.0000 O   0  0  0  0  0  0  0  0  0  0  0  0
   10.3863   -8.7754    0.0000 O   0  0  0  0  0  0  0  0  0  0  0  0
    4.0050  -10.8379    0.0000 O   0  0  0  0  0  0  0  0  0  0  0  0
    6.8628  -10.0129    0.0000 H   0  0  0  0  0  0  0  0  0  0  0  0
    7.5773   -8.7754    0.0000 H   0  0  0  0  0  0  0  0  0  0  0  0
    8.2918  -10.0129    0.0000 H   0  0  0  0  0  0  0  0  0  0  0  0
  1  2  1  0  0  0  0
  2  3  1  0  0  0  0
  1  4  1  0  0  0  0
  4  5  1  0  0  0  0
  5  6  2  0  0  0  0
  6  7  1  0  0  0  0
  7  8  1  0  0  0  0
  8  9  1  0  0  0  0
  9 10  1  0  0  0  0
 10 11  1  0  0  0  0
 11 12  1  0  0  0  0
 12 13  1  1  0  0  0
 13 14  1  0  0  0  0
 12 15  1  0  0  0  0
  9 15  1  0  0  0  0
 15 16  1  1  0  0  0
 15 17  1  0  0  0  0
 17 18  1  0  0  0  0
 18 19  1  0  0  0  0
  8 19  1  0  0  0  0
 19 20  1  0  0  0  0
  3 20  1  0  0  0  0
  5 20  1  0  0  0  0
 20 21  1  1  0  0  0
 13 22  2  0  0  0  0
 11 23  1  6  0  0  0
  1 24  1  1  0  0  0
 19 25  1  6  0  0  0
  8 26  1  1  0  0  0
  9 27  1  6  0  0  0
M  END
>  <cdx:fragmentId>
5

$$$$
