96987.cdx
  Mrv1902 05222410252D          

 25 26  0  0  0  0            999 V2000
   10.2144   -9.0307    0.0000 H   0  0  0  0  0  0  0  0  0  0  0  0
   10.9230   -8.6082    0.0000 O   0  0  0  0  0  0  0  0  0  0  0  0
   11.6432   -9.0106    0.0000 H   0  0  0  0  0  0  0  0  0  0  0  0
    6.5485   -6.9143    0.0000 O   0  0  0  0  0  0  0  0  0  0  0  0
    9.4063   -6.9444    0.0000 O   0  0  0  0  0  0  0  0  0  0  0  0
    7.9600   -8.5793    0.0000 C   0  0  0  0  0  0  0  0  0  0  0  0
    8.6788   -8.1743    0.0000 C   0  0  0  0  0  0  0  0  0  0  0  0
    8.6875   -7.3494    0.0000 C   0  0  0  0  0  0  0  0  0  0  0  0
    7.9774   -6.9294    0.0000 C   0  0  0  0  0  0  0  0  0  0  0  0
    7.2586   -7.3343    0.0000 C   0  0  0  0  0  0  0  0  0  0  0  0
    7.2499   -8.1593    0.0000 C   0  0  0  0  0  0  0  0  0  0  0  0
    7.2325   -9.8092    0.0000 O   0  0  0  0  0  0  0  0  0  0  0  0
    4.3661  -10.6040    0.0000 O   0  0  0  0  0  0  0  0  0  0  0  0
    2.9633   -8.1140    0.0000 O   0  0  0  0  0  0  0  0  0  0  0  0
    5.7950  -10.6190    0.0000 O   0  0  0  0  0  0  0  0  0  0  0  0
    5.8211   -8.1442    0.0000 O   0  0  0  0  0  0  0  0  0  0  0  0
    5.1023   -8.5491    0.0000 C   0  0  0  0  0  0  0  0  0  0  0  0
    4.3922   -8.1291    0.0000 C   0  0  0  0  0  0  0  0  0  0  0  0
    3.6734   -8.5341    0.0000 C   0  0  0  0  0  0  0  0  0  0  0  0
    3.6647   -9.3590    0.0000 C   0  0  0  0  0  0  0  0  0  0  0  0
    4.3748   -9.7790    0.0000 C   0  0  0  0  0  0  0  0  0  0  0  0
    5.0936   -9.3741    0.0000 C   0  0  0  0  0  0  0  0  0  0  0  0
    5.8037   -9.7941    0.0000 C   0  0  0  0  0  0  0  0  0  0  0  0
    6.5224   -9.3892    0.0000 C   0  0  0  0  0  0  0  0  0  0  0  0
    6.5311   -8.5642    0.0000 C   0  0  0  0  0  0  0  0  0  0  0  0
  1  2  1  0  0  0  0
  2  3  1  0  0  0  0
 25 11  1  0  0  0  0
 10  4  1  0  0  0  0
  8  5  1  0  0  0  0
 11  6  2  0  0  0  0
  7  6  1  0  0  0  0
  8  7  2  0  0  0  0
  9  8  1  0  0  0  0
 10  9  2  0  0  0  0
 11 10  1  0  0  0  0
 24 12  1  0  0  0  0
 21 13  1  0  0  0  0
 19 14  1  0  0  0  0
 23 15  2  0  0  0  0
 25 16  1  0  0  0  0
 17 16  1  0  0  0  0
 22 17  2  0  0  0  0
 18 17  1  0  0  0  0
 19 18  2  0  0  0  0
 20 19  1  0  0  0  0
 21 20  2  0  0  0  0
 22 21  1  0  0  0  0
 23 22  1  0  0  0  0
 24 23  1  0  0  0  0
 25 24  2  0  0  0  0
M  END
>  <cdx:groupId>
78

>  <cdx:fragmentId>
5

$$$$
