96998.cdx
  Mrv1902 05222410232D          

 35 37  0  0  0  0            999 V2000
    5.7524   -8.7862    0.0000 C   0  0  0  0  0  0  0  0  0  0  0  0
    5.7524   -9.6112    0.0000 C   0  0  0  0  0  0  0  0  0  0  0  0
    6.4669  -10.0238    0.0000 C   0  0  0  0  0  0  0  0  0  0  0  0
    7.1814   -9.6112    0.0000 C   0  0  2  0  0  0  0  0  0  0  0  0
    7.1814   -8.7862    0.0000 C   0  0  0  0  0  0  0  0  0  0  0  0
    6.4669   -8.3737    0.0000 C   0  0  2  0  0  0  0  0  0  0  0  0
    4.9678   -8.5313    0.0000 O   0  0  0  0  0  0  0  0  0  0  0  0
    6.4669   -7.5488    0.0000 C   0  0  0  0  0  0  0  0  0  0  0  0
    5.7524   -7.1362    0.0000 C   0  0  0  0  0  0  0  0  0  0  0  0
    7.1814   -7.1362    0.0000 O   0  0  0  0  0  0  0  0  0  0  0  0
    5.0380   -7.5488    0.0000 C   0  0  0  0  0  0  0  0  0  0  0  0
    5.7524   -6.3113    0.0000 C   0  0  0  0  0  0  0  0  0  0  0  0
    7.8139   -7.5762    0.0000 C   0  0  0  0  0  0  0  0  0  0  0  0
    8.5283   -8.8138    0.0000 C   0  0  0  0  0  0  0  0  0  0  0  0
    8.5283   -7.9888    0.0000 C   0  0  2  0  0  0  0  0  0  0  0  0
    7.8093   -6.7513    0.0000 C   0  0  0  0  0  0  0  0  0  0  0  0
    9.2428   -7.5762    0.0000 C   0  0  0  0  0  0  0  0  0  0  0  0
    9.9573   -7.9888    0.0000 C   0  0  0  0  0  0  0  0  0  0  0  0
   10.6718   -7.5762    0.0000 C   0  0  0  0  0  0  0  0  0  0  0  0
   11.3862   -7.9888    0.0000 C   0  0  0  0  0  0  0  0  0  0  0  0
   10.6718   -6.7512    0.0000 C   0  0  0  0  0  0  0  0  0  0  0  0
    7.5978  -10.3234    0.0000 C   0  0  0  0  0  0  0  0  0  0  0  0
    7.3843  -11.1203    0.0000 C   0  0  0  0  0  0  0  0  0  0  0  0
    7.9676  -11.7037    0.0000 C   0  0  0  0  0  0  0  0  0  0  0  0
    7.7541  -12.5006    0.0000 C   0  0  0  0  0  0  0  0  0  0  0  0
    8.7645  -11.4902    0.0000 C   0  0  0  0  0  0  0  0  0  0  0  0
    8.5272   -7.1618    0.0000 C   0  0  0  0  0  0  0  0  0  0  0  0
    7.8958   -8.3737    0.0000 O   0  0  0  0  0  0  0  0  0  0  0  0
    5.1393  -10.1633    0.0000 C   0  0  0  0  0  0  0  0  0  0  0  0
    5.4749  -10.9170    0.0000 C   0  0  1  0  0  0  0  0  0  0  0  0
    6.2954  -10.8307    0.0000 O   0  0  0  0  0  0  0  0  0  0  0  0
    5.0624  -11.6314    0.0000 C   0  0  0  0  0  0  0  0  0  0  0  0
    5.4749  -12.3459    0.0000 C   0  0  0  0  0  0  0  0  0  0  0  0
    4.2374  -11.6314    0.0000 C   0  0  0  0  0  0  0  0  0  0  0  0
    4.6499  -12.3459    0.0000 O   0  0  0  0  0  0  0  0  0  0  0  0
  1  2  1  0  0  0  0
  2  3  2  0  0  0  0
  3  4  1  0  0  0  0
  4  5  1  0  0  0  0
  5  6  1  0  0  0  0
  6  1  1  0  0  0  0
  1  7  2  0  0  0  0
  6  8  1  1  0  0  0
  8  9  1  0  0  0  0
  8 10  2  0  0  0  0
  9 11  1  0  0  0  0
  9 12  1  0  0  0  0
  6 13  1  0  0  0  0
  4 14  1  0  0  0  0
 13 15  1  0  0  0  0
 15 14  1  0  0  0  0
 13 16  1  0  0  0  0
 15 17  1  1  0  0  0
 17 18  1  0  0  0  0
 18 19  2  0  0  0  0
 19 20  1  0  0  0  0
 19 21  1  0  0  0  0
  4 22  1  1  0  0  0
 22 23  1  0  0  0  0
 23 24  2  0  0  0  0
 24 25  1  0  0  0  0
 24 26  1  0  0  0  0
 13 27  1  0  0  0  0
  5 28  2  0  0  0  0
  2 29  1  0  0  0  0
 29 30  1  0  0  0  0
 30 31  1  0  0  0  0
 31  3  1  0  0  0  0
 30 32  1  1  0  0  0
 32 33  1  0  0  0  0
 32 34  1  0  0  0  0
 32 35  1  0  0  0  0
M  END
>  <cdx:fragmentId>
5

$$$$
