96996.cdx
  Mrv1902 05222410242D          

 41 43  0  0  0  0            999 V2000
    5.7524   -8.7862    0.0000 C   0  0  0  0  0  0  0  0  0  0  0  0
    5.7524   -9.6112    0.0000 C   0  0  0  0  0  0  0  0  0  0  0  0
    6.4669  -10.0238    0.0000 C   0  0  0  0  0  0  0  0  0  0  0  0
    7.1814   -9.6112    0.0000 C   0  0  2  0  0  0  0  0  0  0  0  0
    7.1814   -8.7862    0.0000 C   0  0  0  0  0  0  0  0  0  0  0  0
    6.4669   -8.3737    0.0000 C   0  0  2  0  0  0  0  0  0  0  0  0
    4.9678   -8.5313    0.0000 O   0  0  0  0  0  0  0  0  0  0  0  0
    4.4829   -9.1987    0.0000 C   0  0  1  0  0  0  0  0  0  0  0  0
    4.9678   -9.8662    0.0000 C   0  0  0  0  0  0  0  0  0  0  0  0
    3.6579   -9.1987    0.0000 C   0  0  0  0  0  0  0  0  0  0  0  0
    3.2454   -9.9132    0.0000 C   0  0  0  0  0  0  0  0  0  0  0  0
    3.2454   -8.4843    0.0000 C   0  0  0  0  0  0  0  0  0  0  0  0
    2.8329   -9.1987    0.0000 O   0  0  0  0  0  0  0  0  0  0  0  0
    6.4669   -7.5488    0.0000 C   0  0  0  0  0  0  0  0  0  0  0  0
    5.7524   -7.1362    0.0000 C   0  0  0  0  0  0  0  0  0  0  0  0
    7.1814   -7.1362    0.0000 O   0  0  0  0  0  0  0  0  0  0  0  0
    5.0380   -7.5488    0.0000 C   0  0  0  0  0  0  0  0  0  0  0  0
    5.7524   -6.3113    0.0000 C   0  0  0  0  0  0  0  0  0  0  0  0
    6.4669  -10.8488    0.0000 O   0  0  0  0  0  0  0  0  0  0  0  0
    7.8139   -7.5762    0.0000 C   0  0  1  0  0  0  0  0  0  0  0  0
    8.5283   -8.8138    0.0000 C   0  0  0  0  0  0  0  0  0  0  0  0
    8.5283   -7.9888    0.0000 C   0  0  2  0  0  0  0  0  0  0  0  0
    7.8093   -6.7513    0.0000 C   0  0  0  0  0  0  0  0  0  0  0  0
    8.5215   -6.3349    0.0000 C   0  0  0  0  0  0  0  0  0  0  0  0
    8.5170   -5.5099    0.0000 C   0  0  0  0  0  0  0  0  0  0  0  0
    9.2292   -5.0935    0.0000 C   0  0  0  0  0  0  0  0  0  0  0  0
    9.2247   -4.2685    0.0000 C   0  0  0  0  0  0  0  0  0  0  0  0
    9.9459   -5.5020    0.0000 C   0  0  0  0  0  0  0  0  0  0  0  0
    9.2428   -7.5762    0.0000 C   0  0  0  0  0  0  0  0  0  0  0  0
    9.9573   -7.9888    0.0000 C   0  0  0  0  0  0  0  0  0  0  0  0
   10.6718   -7.5762    0.0000 C   0  0  0  0  0  0  0  0  0  0  0  0
   11.3862   -7.9888    0.0000 C   0  0  0  0  0  0  0  0  0  0  0  0
   10.6718   -6.7512    0.0000 C   0  0  0  0  0  0  0  0  0  0  0  0
    7.5978  -10.3234    0.0000 C   0  0  0  0  0  0  0  0  0  0  0  0
    7.3843  -11.1203    0.0000 C   0  0  0  0  0  0  0  0  0  0  0  0
    7.9676  -11.7037    0.0000 C   0  0  0  0  0  0  0  0  0  0  0  0
    7.7541  -12.5006    0.0000 C   0  0  0  0  0  0  0  0  0  0  0  0
    8.7645  -11.4902    0.0000 C   0  0  0  0  0  0  0  0  0  0  0  0
    8.5272   -7.1618    0.0000 C   0  0  0  0  0  0  0  0  0  0  0  0
    7.8958   -8.3737    0.0000 O   0  0  0  0  0  0  0  0  0  0  0  0
    9.9414   -4.6770    0.0000 O   0  0  0  0  0  0  0  0  0  0  0  0
  1  2  2  0  0  0  0
  2  3  1  0  0  0  0
  3  4  1  0  0  0  0
  4  5  1  0  0  0  0
  5  6  1  0  0  0  0
  6  1  1  0  0  0  0
  1  7  1  0  0  0  0
  7  8  1  0  0  0  0
  8  9  1  0  0  0  0
  9  2  1  0  0  0  0
  8 10  1  1  0  0  0
 10 11  1  0  0  0  0
 10 12  1  0  0  0  0
 10 13  1  0  0  0  0
  6 14  1  1  0  0  0
 14 15  1  0  0  0  0
 14 16  2  0  0  0  0
 15 17  1  0  0  0  0
 15 18  1  0  0  0  0
  3 19  2  0  0  0  0
  6 20  1  0  0  0  0
  4 21  1  0  0  0  0
 20 22  1  0  0  0  0
 22 21  1  0  0  0  0
 20 23  1  0  0  0  0
 23 24  1  0  0  0  0
 24 25  2  0  0  0  0
 25 26  1  0  0  0  0
 26 27  1  0  0  0  0
 26 28  1  0  0  0  0
 22 29  1  1  0  0  0
 29 30  1  0  0  0  0
 30 31  2  0  0  0  0
 31 32  1  0  0  0  0
 31 33  1  0  0  0  0
  4 34  1  1  0  0  0
 34 35  2  0  0  0  0
 35 36  1  0  0  0  0
 36 37  1  0  0  0  0
 36 38  1  0  0  0  0
 20 39  1  1  0  0  0
  5 40  2  0  0  0  0
 26 41  1  0  0  0  0
M  END
>  <cdx:fragmentId>
5

$$$$
