96992.cdx
  Mrv1902 05222410252D          

 40 46  0  0  0  0            999 V2000
    7.3424  -10.3357    0.0000 C   0  0  2  0  0  0  0  0  0  0  0  0
    7.3424  -11.1607    0.0000 C   0  0  2  0  0  0  0  0  0  0  0  0
    7.3424  -11.9857    0.0000 O   0  0  0  0  0  0  0  0  0  0  0  0
    6.6279  -11.5732    0.0000 C   0  0  2  0  0  0  0  0  0  0  0  0
    5.9134  -11.1607    0.0000 C   0  0  1  0  0  0  0  0  0  0  0  0
    5.1990  -11.5732    0.0000 C   0  0  0  0  0  0  0  0  0  0  0  0
    4.4845  -11.1607    0.0000 C   0  0  0  0  0  0  0  0  0  0  0  0
    4.4845  -10.3357    0.0000 C   0  0  0  0  0  0  0  0  0  0  0  0
    5.1990   -9.9232    0.0000 C   0  0  0  0  0  0  0  0  0  0  0  0
    5.9134  -10.3357    0.0000 C   0  0  2  0  0  0  0  0  0  0  0  0
    6.6279   -9.9232    0.0000 C   0  0  1  0  0  0  0  0  0  0  0  0
    6.6279   -9.0982    0.0000 C   0  0  0  0  0  0  0  0  0  0  0  0
    7.3424   -8.6857    0.0000 C   0  0  1  0  0  0  0  0  0  0  0  0
    8.0569   -9.0982    0.0000 C   0  0  2  0  0  0  0  0  0  0  0  0
    8.8415   -8.8433    0.0000 C   0  0  0  0  0  0  0  0  0  0  0  0
    9.3264   -9.5107    0.0000 C   0  0  0  0  0  0  0  0  0  0  0  0
    8.8415  -10.1782    0.0000 C   0  0  0  0  0  0  0  0  0  0  0  0
    8.0569   -9.9232    0.0000 C   0  0  1  0  0  0  0  0  0  0  0  0
    5.1990   -9.0982    0.0000 O   0  0  0  0  0  0  0  0  0  0  0  0
    8.1431   -8.2778    0.0000 C   0  0  0  0  0  0  0  0  0  0  0  0
    5.9134   -9.5107    0.0000 C   0  0  0  0  0  0  0  0  0  0  0  0
    7.3424   -7.8607    0.0000 O   0  0  0  0  0  0  0  0  0  0  0  0
    5.9134  -11.9857    0.0000 O   0  0  0  0  0  0  0  0  0  0  0  0
    9.0964   -8.0587    0.0000 C   0  0  2  0  0  0  0  0  0  0  0  0
    9.9034   -7.8872    0.0000 C   0  0  0  0  0  0  0  0  0  0  0  0
    7.4403   -6.2194    0.0000 C   0  0  2  0  0  0  0  0  0  0  0  0
    8.2473   -6.0479    0.0000 C   0  0  0  0  0  0  0  0  0  0  0  0
    8.7993   -6.6610    0.0000 O   0  0  0  0  0  0  0  0  0  0  0  0
    8.5444   -7.4456    0.0000 C   0  0  2  0  0  0  0  0  0  0  0  0
    7.7374   -7.6171    0.0000 C   0  0  0  0  0  0  0  0  0  0  0  0
    7.1854   -7.0040    0.0000 C   0  0  2  0  0  0  0  0  0  0  0  0
    6.6334   -6.3909    0.0000 O   0  0  0  0  0  0  0  0  0  0  0  0
    8.5022   -5.2632    0.0000 O   0  0  0  0  0  0  0  0  0  0  0  0
    6.5723   -7.5561    0.0000 C   0  0  0  0  0  0  0  0  0  0  0  0
    7.2688   -5.4124    0.0000 C   0  0  0  0  0  0  0  0  0  0  0  0
    7.3424   -9.5107    0.0000 H   0  0  0  0  0  0  0  0  0  0  0  0
    8.1674  -11.1607    0.0000 H   0  0  0  0  0  0  0  0  0  0  0  0
    6.2154  -12.2877    0.0000 H   0  0  0  0  0  0  0  0  0  0  0  0
    6.6279  -10.7482    0.0000 H   0  0  0  0  0  0  0  0  0  0  0  0
    8.0569  -10.7482    0.0000 H   0  0  0  0  0  0  0  0  0  0  0  0
  1  2  1  0  0  0  0
  2  3  1  0  0  0  0
  3  4  1  0  0  0  0
  4  5  1  0  0  0  0
  5  6  1  0  0  0  0
  6  7  1  0  0  0  0
  7  8  2  0  0  0  0
  8  9  1  0  0  0  0
  9 10  1  0  0  0  0
 10 11  1  0  0  0  0
 11 12  1  0  0  0  0
 12 13  1  0  0  0  0
 13 14  1  0  0  0  0
 14 15  1  0  0  0  0
 15 16  1  0  0  0  0
 16 17  1  0  0  0  0
 17 18  1  0  0  0  0
  1 18  1  0  0  0  0
  1 11  1  0  0  0  0
  5 10  1  0  0  0  0
  2  4  1  0  0  0  0
 14 18  1  0  0  0  0
  9 19  2  0  0  0  0
 14 20  1  1  0  0  0
 10 21  1  1  0  0  0
 13 22  1  6  0  0  0
  5 23  1  6  0  0  0
 24 25  1  1  0  0  0
 26 27  1  0  0  0  0
 27 28  1  0  0  0  0
 29 28  1  1  0  0  0
 29 30  1  0  0  0  0
 30 31  1  0  0  0  0
 31 32  1  0  0  0  0
 26 32  1  0  0  0  0
 26 31  1  0  0  0  0
 27 33  2  0  0  0  0
 31 34  1  1  0  0  0
 26 35  1  1  0  0  0
 24 29  1  0  0  0  0
 15 24  1  0  0  0  0
  1 36  1  1  0  0  0
  2 37  1  1  0  0  0
  4 38  1  1  0  0  0
 11 39  1  6  0  0  0
 18 40  1  6  0  0  0
M  END
>  <cdx:fragmentId>
5

$$$$
