96991.cdx
  Mrv1902 05222410252D          

 21 23  0  0  0  0            999 V2000
    8.7772   -8.2622    0.0000 C   0  0  0  0  0  0  0  0  0  0  0  0
    9.4917   -8.6747    0.0000 C   0  0  0  0  0  0  0  0  0  0  0  0
    9.4917   -9.4997    0.0000 C   0  0  0  0  0  0  0  0  0  0  0  0
    8.7772   -9.9122    0.0000 C   0  0  0  0  0  0  0  0  0  0  0  0
    8.0628   -9.4997    0.0000 C   0  0  0  0  0  0  0  0  0  0  0  0
    7.3483   -9.9122    0.0000 C   0  0  0  0  0  0  0  0  0  0  0  0
    6.6338   -9.4997    0.0000 C   0  0  0  0  0  0  0  0  0  0  0  0
    5.9193   -9.9122    0.0000 C   0  0  0  0  0  0  0  0  0  0  0  0
    5.2049   -9.4997    0.0000 C   0  0  0  0  0  0  0  0  0  0  0  0
    5.2049   -8.6747    0.0000 C   0  0  0  0  0  0  0  0  0  0  0  0
    5.9193   -8.2622    0.0000 C   0  0  0  0  0  0  0  0  0  0  0  0
    6.6338   -8.6747    0.0000 C   0  0  0  0  0  0  0  0  0  0  0  0
    7.3483   -8.2622    0.0000 C   0  0  0  0  0  0  0  0  0  0  0  0
    8.0628   -8.6747    0.0000 C   0  0  0  0  0  0  0  0  0  0  0  0
    8.7772   -7.4372    0.0000 O   0  0  0  0  0  0  0  0  0  0  0  0
    9.9042  -10.2142    0.0000 C   0  0  0  0  0  0  0  0  0  0  0  0
    4.4904   -9.9122    0.0000 O   0  0  0  0  0  0  0  0  0  0  0  0
    3.7759   -9.4997    0.0000 C   0  0  0  0  0  0  0  0  0  0  0  0
    7.3483   -7.4372    0.0000 O   0  0  0  0  0  0  0  0  0  0  0  0
    5.9193   -7.4372    0.0000 O   0  0  0  0  0  0  0  0  0  0  0  0
   10.3167   -9.4997    0.0000 O   0  0  0  0  0  0  0  0  0  0  0  0
  1  2  1  0  0  0  0
  2  3  1  0  0  0  0
  3  4  1  0  0  0  0
  4  5  1  0  0  0  0
  5  6  1  0  0  0  0
  6  7  2  0  0  0  0
  7  8  1  0  0  0  0
  8  9  2  0  0  0  0
  9 10  1  0  0  0  0
 10 11  2  0  0  0  0
 11 12  1  0  0  0  0
  7 12  1  0  0  0  0
 12 13  2  0  0  0  0
 13 14  1  0  0  0  0
  5 14  2  0  0  0  0
  1 14  1  0  0  0  0
  1 15  2  0  0  0  0
  3 16  1  0  0  0  0
 17 18  1  0  0  0  0
  9 17  1  0  0  0  0
 13 19  1  0  0  0  0
 11 20  1  0  0  0  0
  3 21  1  0  0  0  0
M  END
>  <cdx:fragmentId>
5

$$$$
