97.cdx
  Mrv1902 05222410262D          

 32 36  0  0  0  0            999 V2000
    3.9588   -8.7911    0.0000 C   0  0  0  0  0  0  0  0  0  0  0  0
    3.9588   -9.6161    0.0000 C   0  0  1  0  0  0  0  0  0  0  0  0
    4.6733  -10.0286    0.0000 C   0  0  0  0  0  0  0  0  0  0  0  0
    5.3877   -9.6161    0.0000 C   0  0  2  0  0  0  0  0  0  0  0  0
    5.3877   -8.7911    0.0000 C   0  0  2  0  0  0  0  0  0  0  0  0
    4.6733   -8.3786    0.0000 C   0  0  0  0  0  0  0  0  0  0  0  0
    6.1022  -10.0286    0.0000 C   0  0  0  0  0  0  0  0  0  0  0  0
    6.8167   -9.6161    0.0000 C   0  0  0  0  0  0  0  0  0  0  0  0
    6.8167   -8.7911    0.0000 C   0  0  2  0  0  0  0  0  0  0  0  0
    6.1022   -8.3786    0.0000 C   0  0  0  0  0  0  0  0  0  0  0  0
    7.5312   -8.3786    0.0000 C   0  0  2  0  0  0  0  0  0  0  0  0
    7.5312   -7.5536    0.0000 C   0  0  2  0  0  0  0  0  0  0  0  0
    6.8167   -7.1411    0.0000 C   0  0  0  0  0  0  0  0  0  0  0  0
    6.1022   -7.5536    0.0000 C   0  0  0  0  0  0  0  0  0  0  0  0
    8.3158   -8.6336    0.0000 C   0  0  0  0  0  0  0  0  0  0  0  0
    8.8007   -7.9661    0.0000 C   0  0  0  0  0  0  0  0  0  0  0  0
    8.3158   -7.2987    0.0000 C   0  0  2  0  0  0  0  0  0  0  0  0
    8.5707   -6.5141    0.0000 C   0  0  0  0  0  0  0  0  0  0  0  0
    9.3777   -6.3426    0.0000 C   0  0  0  0  0  0  0  0  0  0  0  0
    8.0187   -5.9010    0.0000 C   0  0  0  0  0  0  0  0  0  0  0  0
    9.6326   -5.5579    0.0000 C   0  0  0  0  0  0  0  0  0  0  0  0
    8.2736   -5.1164    0.0000 O   0  0  0  0  0  0  0  0  0  0  0  0
    9.0806   -4.9448    0.0000 C   0  0  0  0  0  0  0  0  0  0  0  0
    9.3355   -4.1602    0.0000 O   0  0  0  0  0  0  0  0  0  0  0  0
    3.2443  -10.0286    0.0000 O   0  0  0  0  0  0  0  0  0  0  0  0
    5.3877   -7.9661    0.0000 C   0  0  0  0  0  0  0  0  0  0  0  0
    5.3877  -10.4411    0.0000 H   0  0  0  0  0  0  0  0  0  0  0  0
    7.6174   -6.7332    0.0000 C   0  0  0  0  0  0  0  0  0  0  0  0
    7.6174   -9.1991    0.0000 O   0  0  0  0  0  0  0  0  0  0  0  0
    5.3877   -7.1411    0.0000 O   0  0  0  0  0  0  0  0  0  0  0  0
    6.8167   -6.3161    0.0000 O   0  0  0  0  0  0  0  0  0  0  0  0
    6.8167   -7.9661    0.0000 H   0  0  0  0  0  0  0  0  0  0  0  0
  1  2  1  0  0  0  0
  2  3  1  0  0  0  0
  3  4  1  0  0  0  0
  4  5  1  0  0  0  0
  5  6  1  0  0  0  0
  6  1  1  0  0  0  0
  4  7  1  0  0  0  0
  7  8  1  0  0  0  0
  8  9  1  0  0  0  0
  9 10  1  0  0  0  0
 10  5  1  0  0  0  0
  9 11  1  0  0  0  0
 11 12  1  0  0  0  0
 12 13  1  0  0  0  0
 13 14  1  0  0  0  0
 14 10  2  0  0  0  0
 11 15  1  0  0  0  0
 15 16  1  0  0  0  0
 16 17  1  0  0  0  0
 17 12  1  0  0  0  0
 17 18  1  1  0  0  0
 18 19  1  0  0  0  0
 18 20  2  0  0  0  0
 19 21  2  0  0  0  0
 20 22  1  0  0  0  0
 21 23  1  0  0  0  0
 22 23  1  0  0  0  0
 23 24  2  0  0  0  0
  2 25  1  1  0  0  0
  5 26  1  1  0  0  0
  4 27  1  1  0  0  0
 12 28  1  1  0  0  0
 11 29  1  1  0  0  0
 14 30  1  1  0  0  0
 13 31  2  0  0  0  0
  9 32  1  1  0  0  0
M  END
>  <cdx:fragmentId>
287

$$$$
