970053.cdx
  Mrv1902 05222410182D          

 38 42  0  0  0  0            999 V2000
    6.0754  -10.6393    0.0000 H   0  0  0  0  0  0  0  0  0  0  0  0
    5.7725  -10.9403    0.0000 C   0  0  0  0  0  0  0  0  0  0  0  0
    4.9475  -10.9377    0.0000 C   0  0  0  0  0  0  0  0  0  0  0  0
   10.3700   -8.1778    0.0000 C   0  0  0  0  0  0  0  0  0  0  0  0
    9.6646   -5.2880    0.0000 C   0  0  0  0  0  0  0  0  0  0  0  0
    8.2331   -6.1085    0.0000 C   0  0  0  0  0  0  0  0  0  0  0  0
    3.9333  -10.2200    0.0000 O   0  0  0  0  0  0  0  0  0  0  0  0
    6.0806   -8.9893    0.0000 C   0  0  2  0  0  0  0  0  0  0  0  0
    6.7964   -8.5790    0.0000 C   0  0  1  0  0  0  0  0  0  0  0  0
    6.7990   -7.7540    0.0000 C   0  0  0  0  0  0  0  0  0  0  0  0
    7.5147   -7.3438    0.0000 C   0  0  0  0  0  0  0  0  0  0  0  0
    8.2279   -7.7585    0.0000 C   0  0  2  0  0  0  0  0  0  0  0  0
    8.9437   -7.3483    0.0000 C   0  0  1  0  0  0  0  0  0  0  0  0
    8.9463   -6.5233    0.0000 C   0  0  1  0  0  0  0  0  0  0  0  0
    9.6620   -6.1130    0.0000 C   0  0  0  0  0  0  0  0  0  0  0  0
   10.3752   -6.5278    0.0000 C   0  0  0  0  0  0  0  0  0  0  0  0
   10.3726   -7.3528    0.0000 C   0  0  0  0  0  0  0  0  0  0  0  0
    9.6568   -7.7630    0.0000 C   0  0  1  0  0  0  0  0  0  0  0  0
    9.6542   -8.5880    0.0000 C   0  0  0  0  0  0  0  0  0  0  0  0
    8.9385   -8.9983    0.0000 C   0  0  0  0  0  0  0  0  0  0  0  0
    8.2253   -8.5835    0.0000 C   0  0  1  0  0  0  0  0  0  0  0  0
    7.5095   -8.9938    0.0000 C   0  0  2  0  0  0  0  0  0  0  0  0
    7.5069   -9.8188    0.0000 C   0  0  0  0  0  0  0  0  0  0  0  0
    6.7912  -10.2290    0.0000 C   0  0  0  0  0  0  0  0  0  0  0  0
    6.0780   -9.8143    0.0000 C   0  0  1  0  0  0  0  0  0  0  0  0
    5.3622  -10.2245    0.0000 C   0  0  0  0  0  0  0  0  0  0  0  0
    4.6491   -9.8098    0.0000 C   0  0  2  0  0  0  0  0  0  0  0  0
    4.6517   -8.9848    0.0000 C   0  0  0  0  0  0  0  0  0  0  0  0
    5.3674   -8.5745    0.0000 C   0  0  0  0  0  0  0  0  0  0  0  0
    6.0832   -8.1643    0.0000 C   0  0  0  0  0  0  0  0  0  0  0  0
    6.7964   -9.4040    0.0000 H   0  0  0  0  0  0  0  0  0  0  0  0
    7.5095   -8.1688    0.0000 C   0  0  0  0  0  0  0  0  0  0  0  0
    8.2253   -9.4085    0.0000 C   0  0  0  0  0  0  0  0  0  0  0  0
    8.2305   -6.9335    0.0000 H   0  0  0  0  0  0  0  0  0  0  0  0
    8.9437   -8.1733    0.0000 H   0  0  0  0  0  0  0  0  0  0  0  0
    3.2201   -9.8053    0.0000 C   0  0  0  0  0  0  0  0  0  0  0  0
    2.5044  -10.2156    0.0000 C   0  0  0  0  0  0  0  0  0  0  0  0
    3.2227   -8.9803    0.0000 O   0  0  0  0  0  0  0  0  0  0  0  0
 25  1  1  6  0  0  0
 26  2  1  0  0  0  0
 26  3  1  0  0  0  0
 18  4  1  1  0  0  0
 15  5  1  0  0  0  0
 14  6  1  6  0  0  0
 27  7  1  1  0  0  0
 29  8  1  0  0  0  0
 25  8  1  0  0  0  0
  9  8  1  0  0  0  0
 22  9  1  0  0  0  0
 10  9  1  0  0  0  0
 11 10  1  0  0  0  0
 12 11  1  0  0  0  0
 21 12  1  0  0  0  0
 13 12  1  0  0  0  0
 18 13  1  0  0  0  0
 14 13  1  0  0  0  0
 15 14  1  0  0  0  0
 16 15  2  0  0  0  0
 17 16  1  0  0  0  0
 18 17  1  0  0  0  0
 19 18  1  0  0  0  0
 20 19  1  0  0  0  0
 21 20  1  0  0  0  0
 22 21  1  0  0  0  0
 23 22  1  0  0  0  0
 24 23  1  0  0  0  0
 25 24  1  0  0  0  0
 26 25  1  0  0  0  0
 27 26  1  0  0  0  0
 28 27  1  0  0  0  0
 29 28  1  0  0  0  0
  8 30  1  1  0  0  0
  9 31  1  6  0  0  0
 22 32  1  1  0  0  0
 21 33  1  6  0  0  0
 12 34  1  1  0  0  0
 13 35  1  6  0  0  0
  7 36  1  0  0  0  0
 36 37  1  0  0  0  0
 36 38  2  0  0  0  0
M  END
>  <cdx:fragmentId>
5

$$$$
