97001.cdx
  Mrv1902 05222410182D          

 44 48  0  0  0  0            999 V2000
    5.6837   -7.7825    0.0000 C   0  0  0  0  0  0  0  0  0  0  0  0
    5.6837   -8.6075    0.0000 C   0  0  0  0  0  0  0  0  0  0  0  0
    6.3981   -9.0200    0.0000 C   0  0  0  0  0  0  0  0  0  0  0  0
    7.1126   -8.6075    0.0000 C   0  0  0  0  0  0  0  0  0  0  0  0
    7.1126   -7.7825    0.0000 C   0  0  0  0  0  0  0  0  0  0  0  0
    6.3981   -7.3700    0.0000 C   0  0  0  0  0  0  0  0  0  0  0  0
    7.8271   -9.0200    0.0000 C   0  0  0  0  0  0  0  0  0  0  0  0
    8.5416   -8.6075    0.0000 C   0  0  0  0  0  0  0  0  0  0  0  0
    8.5416   -7.7825    0.0000 C   0  0  0  0  0  0  0  0  0  0  0  0
    7.8271   -7.3700    0.0000 O   0  0  0  0  0  0  0  0  0  0  0  0
    9.2560   -9.0200    0.0000 O   0  0  0  0  0  0  0  0  0  0  0  0
    9.9705   -8.6075    0.0000 O   0  0  0  0  0  0  0  0  0  0  0  0
    9.9705   -7.7825    0.0000 C   0  0  0  0  0  0  0  0  0  0  0  0
    9.2560   -7.3700    0.0000 C   0  0  0  0  0  0  0  0  0  0  0  0
   10.6850   -7.3700    0.0000 C   0  0  0  0  0  0  0  0  0  0  0  0
   10.6850   -6.5450    0.0000 C   0  0  0  0  0  0  0  0  0  0  0  0
    9.9705   -6.1325    0.0000 C   0  0  0  0  0  0  0  0  0  0  0  0
    9.2560   -6.5450    0.0000 C   0  0  0  0  0  0  0  0  0  0  0  0
    4.9692   -7.3700    0.0000 O   0  0  0  0  0  0  0  0  0  0  0  0
    6.3981   -9.8450    0.0000 O   0  0  0  0  0  0  0  0  0  0  0  0
    7.8271   -9.8450    0.0000 O   0  0  0  0  0  0  0  0  0  0  0  0
   11.3994   -6.1325    0.0000 O   0  0  0  0  0  0  0  0  0  0  0  0
    4.2547   -7.7825    0.0000 C   0  0  2  0  0  0  0  0  0  0  0  0
    3.5403   -7.3700    0.0000 O   0  0  0  0  0  0  0  0  0  0  0  0
    2.8258   -7.7825    0.0000 C   0  0  1  0  0  0  0  0  0  0  0  0
    2.8258   -8.6075    0.0000 C   0  0  2  0  0  0  0  0  0  0  0  0
    3.5403   -9.0200    0.0000 C   0  0  1  0  0  0  0  0  0  0  0  0
    4.2547   -8.6075    0.0000 C   0  0  1  0  0  0  0  0  0  0  0  0
    2.1113   -7.3700    0.0000 C   0  0  0  0  0  0  0  0  0  0  0  0
    3.5403   -9.8450    0.0000 O   0  0  0  0  0  0  0  0  0  0  0  0
    2.1113   -9.0200    0.0000 O   0  0  0  0  0  0  0  0  0  0  0  0
    4.9692   -9.0200    0.0000 O   0  0  0  0  0  0  0  0  0  0  0  0
    1.3969   -7.7825    0.0000 O   0  0  0  0  0  0  0  0  0  0  0  0
   11.3981  -10.2522    0.0000 C   0  0  2  0  0  0  0  0  0  0  0  0
   12.1122   -9.8390    0.0000 C   0  0  2  0  0  0  0  0  0  0  0  0
   12.1114   -9.0140    0.0000 C   0  0  1  0  0  0  0  0  0  0  0  0
   11.3965   -8.6022    0.0000 C   0  0  2  0  0  0  0  0  0  0  0  0
   10.6824   -9.0154    0.0000 C   0  0  1  0  0  0  0  0  0  0  0  0
   10.6832   -9.8404    0.0000 O   0  0  0  0  0  0  0  0  0  0  0  0
   11.3989  -11.0772    0.0000 C   0  0  0  0  0  0  0  0  0  0  0  0
   12.8254   -8.6008    0.0000 O   0  0  0  0  0  0  0  0  0  0  0  0
   12.8270  -10.2508    0.0000 O   0  0  0  0  0  0  0  0  0  0  0  0
   11.3957   -7.7772    0.0000 O   0  0  0  0  0  0  0  0  0  0  0  0
   12.1138  -11.4890    0.0000 O   0  0  0  0  0  0  0  0  0  0  0  0
  1  2  2  0  0  0  0
  2  3  1  0  0  0  0
  3  4  2  0  0  0  0
  4  5  1  0  0  0  0
  5  6  2  0  0  0  0
  6  1  1  0  0  0  0
  4  7  1  0  0  0  0
  7  8  1  0  0  0  0
  8  9  2  0  0  0  0
  9 10  1  0  0  0  0
 10  5  1  0  0  0  0
  8 11  1  0  0  0  0
 12 13  1  0  0  0  0
 13 14  2  0  0  0  0
 14  9  1  0  0  0  0
 13 15  1  0  0  0  0
 15 16  2  0  0  0  0
 16 17  1  0  0  0  0
 17 18  2  0  0  0  0
 18 14  1  0  0  0  0
  1 19  1  0  0  0  0
  3 20  1  0  0  0  0
  7 21  2  0  0  0  0
 16 22  1  0  0  0  0
 23 19  1  1  0  0  0
 23 24  1  0  0  0  0
 24 25  1  0  0  0  0
 25 26  1  0  0  0  0
 26 27  1  0  0  0  0
 27 28  1  0  0  0  0
 28 23  1  0  0  0  0
 25 29  1  1  0  0  0
 27 30  1  1  0  0  0
 26 31  1  6  0  0  0
 28 32  1  6  0  0  0
 29 33  1  0  0  0  0
 34 35  1  0  0  0  0
 35 36  1  0  0  0  0
 36 37  1  0  0  0  0
 37 38  1  0  0  0  0
 38 39  1  0  0  0  0
 39 34  1  0  0  0  0
 34 40  1  1  0  0  0
 36 41  1  1  0  0  0
 35 42  1  6  0  0  0
 37 43  1  6  0  0  0
 40 44  1  0  0  0  0
 38 12  1  1  0  0  0
M  END
>  <cdx:fragmentId>
5

$$$$
