97005.cdx
  Mrv1902 05222410202D          

 24 25  0  0  0  0            999 V2000
    8.6851   -5.2695    0.0000 O   0  0  0  0  0  0  0  0  0  0  0  0
    7.9648   -5.6718    0.0000 C   0  0  0  0  0  0  0  0  0  0  0  0
    7.9531   -6.4967    0.0000 C   0  0  0  0  0  0  0  0  0  0  0  0
    7.2328   -6.8990    0.0000 C   0  0  0  0  0  0  0  0  0  0  0  0
    7.2210   -7.7239    0.0000 C   0  0  0  0  0  0  0  0  0  0  0  0
    7.9295   -8.1465    0.0000 C   0  0  0  0  0  0  0  0  0  0  0  0
    6.5007   -8.1261    0.0000 C   0  0  0  0  0  0  0  0  0  0  0  0
    6.4890   -8.9511    0.0000 C   0  0  0  0  0  0  0  0  0  0  0  0
    7.1975   -9.3737    0.0000 C   0  0  0  0  0  0  0  0  0  0  0  0
    7.9178   -8.9714    0.0000 C   0  0  0  0  0  0  0  0  0  0  0  0
    5.7570  -10.1783    0.0000 O   0  0  0  0  0  0  0  0  0  0  0  0
    6.4655  -10.6009    0.0000 C   0  0  1  0  0  0  0  0  0  0  0  0
    7.1858  -10.1986    0.0000 O   0  0  0  0  0  0  0  0  0  0  0  0
    5.0367  -10.5805    0.0000 C   0  0  1  0  0  0  0  0  0  0  0  0
    5.0249  -11.4054    0.0000 C   0  0  2  0  0  0  0  0  0  0  0  0
    5.7334  -11.8281    0.0000 C   0  0  1  0  0  0  0  0  0  0  0  0
    6.4537  -11.4258    0.0000 C   0  0  1  0  0  0  0  0  0  0  0  0
    4.3282  -10.1579    0.0000 C   0  0  0  0  0  0  0  0  0  0  0  0
    3.6079  -10.5602    0.0000 O   0  0  0  0  0  0  0  0  0  0  0  0
    4.3046  -11.8077    0.0000 O   0  0  0  0  0  0  0  0  0  0  0  0
    8.6263   -9.3941    0.0000 O   0  0  0  0  0  0  0  0  0  0  0  0
    9.3466   -8.9918    0.0000 C   0  0  0  0  0  0  0  0  0  0  0  0
    5.7217  -12.6530    0.0000 O   0  0  0  0  0  0  0  0  0  0  0  0
    7.1622  -11.8485    0.0000 O   0  0  0  0  0  0  0  0  0  0  0  0
  1  2  1  0  0  0  0
  2  3  1  0  0  0  0
  3  4  2  0  0  0  0
  4  5  1  0  0  0  0
  5  6  2  0  0  0  0
  5  7  1  0  0  0  0
  7  8  2  0  0  0  0
  8  9  1  0  0  0  0
  9 10  2  0  0  0  0
 10  6  1  0  0  0  0
 11 12  1  0  0  0  0
 12 13  1  1  0  0  0
 13  9  1  0  0  0  0
 11 14  1  0  0  0  0
 14 15  1  0  0  0  0
 15 16  1  0  0  0  0
 16 17  1  0  0  0  0
 17 12  1  0  0  0  0
 14 18  1  1  0  0  0
 18 19  1  0  0  0  0
 15 20  1  6  0  0  0
 10 21  1  0  0  0  0
 21 22  1  0  0  0  0
 16 23  1  1  0  0  0
 17 24  1  6  0  0  0
M  END
>  <cdx:fragmentId>
5

$$$$
