97003.cdx
  Mrv1902 05222410192D          

 43 47  0  0  0  0            999 V2000
   10.9364   -5.9805    0.0000 C   0  0  0  0  0  0  0  0  0  0  0  0
    8.8860   -6.7289    0.0000 C   0  0  0  0  0  0  0  0  0  0  0  0
    9.7109   -6.7153    0.0000 C   0  0  0  0  0  0  0  0  0  0  0  0
   10.1115   -5.9941    0.0000 C   0  0  0  0  0  0  0  0  0  0  0  0
    9.6873   -5.2866    0.0000 C   0  0  0  0  0  0  0  0  0  0  0  0
    8.4618   -6.0214    0.0000 C   0  0  0  0  0  0  0  0  0  0  0  0
    8.8624   -5.3002    0.0000 C   0  0  0  0  0  0  0  0  0  0  0  0
    7.6369   -6.0350    0.0000 C   0  0  0  0  0  0  0  0  0  0  0  0
   10.1265   -7.4059    0.0000 O   0  0  0  0  0  0  0  0  0  0  0  0
    9.7258   -8.1271    0.0000 C   0  0  2  0  0  0  0  0  0  0  0  0
    8.9010   -8.1407    0.0000 O   0  0  0  0  0  0  0  0  0  0  0  0
    8.5003   -8.8619    0.0000 C   0  0  1  0  0  0  0  0  0  0  0  0
    8.9246   -9.5694    0.0000 C   0  0  2  0  0  0  0  0  0  0  0  0
    9.7494   -9.5558    0.0000 C   0  0  1  0  0  0  0  0  0  0  0  0
   10.1501   -8.8346    0.0000 C   0  0  1  0  0  0  0  0  0  0  0  0
    7.6754   -8.8755    0.0000 C   0  0  0  0  0  0  0  0  0  0  0  0
   10.1737  -10.2634    0.0000 O   0  0  0  0  0  0  0  0  0  0  0  0
    8.5239  -10.2906    0.0000 O   0  0  0  0  0  0  0  0  0  0  0  0
   10.9750   -8.8210    0.0000 O   0  0  0  0  0  0  0  0  0  0  0  0
    7.2748   -9.5967    0.0000 O   0  0  0  0  0  0  0  0  0  0  0  0
   10.0919   -4.5667    0.0000 O   0  0  0  0  0  0  0  0  0  0  0  0
   11.3371   -5.2593    0.0000 C   0  0  0  0  0  0  0  0  0  0  0  0
   12.1620   -5.2457    0.0000 O   0  0  0  0  0  0  0  0  0  0  0  0
    7.1410   -5.3757    0.0000 C   0  0  0  0  0  0  0  0  0  0  0  0
    6.3607   -5.6435    0.0000 C   0  0  0  0  0  0  0  0  0  0  0  0
    6.3743   -6.4684    0.0000 C   0  0  0  0  0  0  0  0  0  0  0  0
    7.1630   -6.7104    0.0000 O   0  0  0  0  0  0  0  0  0  0  0  0
    5.6395   -5.2429    0.0000 C   0  0  0  0  0  0  0  0  0  0  0  0
    4.9319   -5.6671    0.0000 C   0  0  0  0  0  0  0  0  0  0  0  0
    4.9456   -6.4920    0.0000 C   0  0  0  0  0  0  0  0  0  0  0  0
    5.6668   -6.8927    0.0000 C   0  0  0  0  0  0  0  0  0  0  0  0
    4.2380   -6.9163    0.0000 O   0  0  0  0  0  0  0  0  0  0  0  0
    3.5168   -6.5156    0.0000 C   0  0  2  0  0  0  0  0  0  0  0  0
    3.4963   -5.6909    0.0000 O   0  0  0  0  0  0  0  0  0  0  0  0
    2.7718   -5.2963    0.0000 C   0  0  1  0  0  0  0  0  0  0  0  0
    2.0678   -5.7264    0.0000 C   0  0  2  0  0  0  0  0  0  0  0  0
    2.0678   -6.5512    0.0000 C   0  0  1  0  0  0  0  0  0  0  0  0
    2.7718   -6.9458    0.0000 C   0  0  1  0  0  0  0  0  0  0  0  0
    2.7512   -4.4715    0.0000 C   0  0  0  0  0  0  0  0  0  0  0  0
    1.3560   -6.9682    0.0000 O   0  0  0  0  0  0  0  0  0  0  0  0
    2.7770   -7.7707    0.0000 O   0  0  0  0  0  0  0  0  0  0  0  0
    1.3482   -5.3228    0.0000 O   0  0  0  0  0  0  0  0  0  0  0  0
    2.0267   -4.0769    0.0000 O   0  0  0  0  0  0  0  0  0  0  0  0
  4  1  1  0  0  0  0
  2  6  1  0  0  0  0
  3  2  2  0  0  0  0
  4  3  1  0  0  0  0
  5  4  2  0  0  0  0
  7  5  1  0  0  0  0
  6  8  1  0  0  0  0
  7  6  2  0  0  0  0
 10  9  1  1  0  0  0
 10 11  1  0  0  0  0
 11 12  1  0  0  0  0
 12 13  1  0  0  0  0
 13 14  1  0  0  0  0
 14 15  1  0  0  0  0
 15 10  1  0  0  0  0
 12 16  1  1  0  0  0
 14 17  1  1  0  0  0
 13 18  1  6  0  0  0
 15 19  1  6  0  0  0
 16 20  1  0  0  0  0
  1 22  1  0  0  0  0
 22 23  1  0  0  0  0
  5 21  1  0  0  0  0
  3  9  1  0  0  0  0
  8 24  2  0  0  0  0
 24 25  1  0  0  0  0
 25 26  2  0  0  0  0
 26 27  1  0  0  0  0
 27  8  1  0  0  0  0
 25 28  1  0  0  0  0
 28 29  2  0  0  0  0
 29 30  1  0  0  0  0
 30 31  2  0  0  0  0
 31 26  1  0  0  0  0
 30 32  1  0  0  0  0
 33 32  1  1  0  0  0
 33 34  1  0  0  0  0
 34 35  1  0  0  0  0
 35 36  1  0  0  0  0
 36 37  1  0  0  0  0
 37 38  1  0  0  0  0
 38 33  1  0  0  0  0
 35 39  1  1  0  0  0
 37 40  1  1  0  0  0
 38 41  1  6  0  0  0
 36 42  1  6  0  0  0
 39 43  1  0  0  0  0
M  END
>  <cdx:fragmentId>
5

$$$$
