97002.cdx
  Mrv1902 05222410182D          

 43 47  0  0  0  0            999 V2000
    9.4514   -8.2905    0.0000 C   0  0  0  0  0  0  0  0  0  0  0  0
    7.4010   -9.0389    0.0000 C   0  0  0  0  0  0  0  0  0  0  0  0
    8.2259   -9.0253    0.0000 C   0  0  0  0  0  0  0  0  0  0  0  0
    8.6265   -8.3041    0.0000 C   0  0  0  0  0  0  0  0  0  0  0  0
    8.2023   -7.5966    0.0000 C   0  0  0  0  0  0  0  0  0  0  0  0
    6.9768   -8.3314    0.0000 C   0  0  0  0  0  0  0  0  0  0  0  0
    7.3774   -7.6102    0.0000 C   0  0  0  0  0  0  0  0  0  0  0  0
    6.1519   -8.3450    0.0000 C   0  0  0  0  0  0  0  0  0  0  0  0
    8.6415   -9.7159    0.0000 O   0  0  0  0  0  0  0  0  0  0  0  0
    8.2408  -10.4371    0.0000 C   0  0  2  0  0  0  0  0  0  0  0  0
    7.4160  -10.4507    0.0000 O   0  0  0  0  0  0  0  0  0  0  0  0
    7.0153  -11.1719    0.0000 C   0  0  1  0  0  0  0  0  0  0  0  0
    7.4396  -11.8794    0.0000 C   0  0  2  0  0  0  0  0  0  0  0  0
    8.2644  -11.8658    0.0000 C   0  0  1  0  0  0  0  0  0  0  0  0
    8.6651  -11.1446    0.0000 C   0  0  1  0  0  0  0  0  0  0  0  0
    6.1904  -11.1855    0.0000 C   0  0  0  0  0  0  0  0  0  0  0  0
    8.6887  -12.5734    0.0000 O   0  0  0  0  0  0  0  0  0  0  0  0
    7.0389  -12.6006    0.0000 O   0  0  0  0  0  0  0  0  0  0  0  0
    9.4900  -11.1310    0.0000 O   0  0  0  0  0  0  0  0  0  0  0  0
    5.7898  -11.9067    0.0000 O   0  0  0  0  0  0  0  0  0  0  0  0
    8.6069   -6.8767    0.0000 O   0  0  0  0  0  0  0  0  0  0  0  0
    8.1851   -6.1677    0.0000 C   0  0  2  0  0  0  0  0  0  0  0  0
    8.5881   -5.4479    0.0000 O   0  0  0  0  0  0  0  0  0  0  0  0
    8.1662   -4.7389    0.0000 C   0  0  1  0  0  0  0  0  0  0  0  0
    7.3413   -4.7498    0.0000 C   0  0  2  0  0  0  0  0  0  0  0  0
    6.9383   -5.4696    0.0000 C   0  0  1  0  0  0  0  0  0  0  0  0
    7.3601   -6.1786    0.0000 C   0  0  1  0  0  0  0  0  0  0  0  0
    8.5693   -4.0191    0.0000 C   0  0  0  0  0  0  0  0  0  0  0  0
    6.1133   -5.4805    0.0000 O   0  0  0  0  0  0  0  0  0  0  0  0
    6.9194   -4.0408    0.0000 O   0  0  0  0  0  0  0  0  0  0  0  0
    6.9571   -6.8984    0.0000 O   0  0  0  0  0  0  0  0  0  0  0  0
    8.1474   -3.3101    0.0000 O   0  0  0  0  0  0  0  0  0  0  0  0
    9.8521   -7.5693    0.0000 C   0  0  0  0  0  0  0  0  0  0  0  0
   10.6770   -7.5557    0.0000 O   0  0  0  0  0  0  0  0  0  0  0  0
    5.6560   -7.6857    0.0000 C   0  0  0  0  0  0  0  0  0  0  0  0
    4.8757   -7.9535    0.0000 C   0  0  0  0  0  0  0  0  0  0  0  0
    4.8893   -8.7784    0.0000 C   0  0  0  0  0  0  0  0  0  0  0  0
    5.6780   -9.0204    0.0000 O   0  0  0  0  0  0  0  0  0  0  0  0
    4.1545   -7.5529    0.0000 C   0  0  0  0  0  0  0  0  0  0  0  0
    3.4469   -7.9771    0.0000 C   0  0  0  0  0  0  0  0  0  0  0  0
    3.4606   -8.8020    0.0000 C   0  0  0  0  0  0  0  0  0  0  0  0
    4.1818   -9.2027    0.0000 C   0  0  0  0  0  0  0  0  0  0  0  0
    2.7530   -9.2263    0.0000 O   0  0  0  0  0  0  0  0  0  0  0  0
  4  1  1  0  0  0  0
  2  6  1  0  0  0  0
  3  2  2  0  0  0  0
  4  3  1  0  0  0  0
  5  4  2  0  0  0  0
  7  5  1  0  0  0  0
  6  8  1  0  0  0  0
  7  6  2  0  0  0  0
 10  9  1  1  0  0  0
 10 11  1  0  0  0  0
 11 12  1  0  0  0  0
 12 13  1  0  0  0  0
 13 14  1  0  0  0  0
 14 15  1  0  0  0  0
 15 10  1  0  0  0  0
 12 16  1  1  0  0  0
 14 17  1  1  0  0  0
 13 18  1  6  0  0  0
 15 19  1  6  0  0  0
 16 20  1  0  0  0  0
 22 21  1  1  0  0  0
 22 23  1  0  0  0  0
 23 24  1  0  0  0  0
 24 25  1  0  0  0  0
 25 26  1  0  0  0  0
 26 27  1  0  0  0  0
 27 22  1  0  0  0  0
 24 28  1  1  0  0  0
 26 29  1  1  0  0  0
 25 30  1  6  0  0  0
 27 31  1  6  0  0  0
 28 32  1  0  0  0  0
  1 33  1  0  0  0  0
 33 34  1  0  0  0  0
  5 21  1  0  0  0  0
  3  9  1  0  0  0  0
  8 35  2  0  0  0  0
 35 36  1  0  0  0  0
 36 37  2  0  0  0  0
 37 38  1  0  0  0  0
 38  8  1  0  0  0  0
 36 39  1  0  0  0  0
 39 40  2  0  0  0  0
 40 41  1  0  0  0  0
 41 42  2  0  0  0  0
 42 37  1  0  0  0  0
 41 43  1  0  0  0  0
M  END
>  <cdx:fragmentId>
5

$$$$
