97009.cdx
  Mrv1902 05222410262D          

 12 11  0  0  0  0            999 V2000
    4.3754   -8.8954    0.0000 C   0  0  0  0  0  0  0  0  0  0  0  0
    3.6610   -9.3079    0.0000 C   0  0  0  0  0  0  0  0  0  0  0  0
    5.0899   -9.3079    0.0000 C   0  0  0  0  0  0  0  0  0  0  0  0
    5.8044   -8.8954    0.0000 C   0  0  0  0  0  0  0  0  0  0  0  0
    6.5188   -9.3079    0.0000 C   0  0  0  0  0  0  0  0  0  0  0  0
    7.2333   -8.8954    0.0000 C   0  0  0  0  0  0  0  0  0  0  0  0
    7.9478   -9.3079    0.0000 C   0  0  0  0  0  0  0  0  0  0  0  0
    8.6623   -8.8954    0.0000 C   0  0  0  0  0  0  0  0  0  0  0  0
    9.3767   -9.3079    0.0000 C   0  0  0  0  0  0  0  0  0  0  0  0
   10.0912   -8.8954    0.0000 C   0  0  0  0  0  0  0  0  0  0  0  0
   10.8057   -9.3079    0.0000 C   0  0  0  0  0  0  0  0  0  0  0  0
    4.3754   -8.0704    0.0000 O   0  0  0  0  0  0  0  0  0  0  0  0
  1  2  1  0  0  0  0
  3  4  1  0  0  0  0
  4  5  1  0  0  0  0
  5  6  1  0  0  0  0
  6  7  1  0  0  0  0
  7  8  1  0  0  0  0
  8  9  1  0  0  0  0
  9 10  1  0  0  0  0
 10 11  1  0  0  0  0
  1  3  1  0  0  0  0
  1 12  2  0  0  0  0
M  END
>  <cdx:fragmentId>
9

$$$$
