97004.cdx
  Mrv1902 05222410202D          

 34 37  0  0  0  0            999 V2000
    4.2905   -6.9025    0.0000 C   0  0  0  0  0  0  0  0  0  0  0  0
    4.2905   -7.7275    0.0000 C   0  0  0  0  0  0  0  0  0  0  0  0
    5.0050   -8.1400    0.0000 C   0  0  0  0  0  0  0  0  0  0  0  0
    5.7195   -7.7275    0.0000 C   0  0  0  0  0  0  0  0  0  0  0  0
    5.7195   -6.9025    0.0000 C   0  0  0  0  0  0  0  0  0  0  0  0
    5.0050   -6.4900    0.0000 C   0  0  0  0  0  0  0  0  0  0  0  0
    6.4339   -8.1400    0.0000 C   0  0  0  0  0  0  0  0  0  0  0  0
    7.1484   -7.7275    0.0000 C   0  0  0  0  0  0  0  0  0  0  0  0
    7.1484   -6.9025    0.0000 C   0  0  2  0  0  0  0  0  0  0  0  0
    6.4339   -6.4900    0.0000 O   0  0  0  0  0  0  0  0  0  0  0  0
    7.8629   -6.4900    0.0000 C   0  0  0  0  0  0  0  0  0  0  0  0
    8.5774   -6.9025    0.0000 C   0  0  0  0  0  0  0  0  0  0  0  0
    9.2918   -6.4900    0.0000 C   0  0  0  0  0  0  0  0  0  0  0  0
    9.2918   -5.6650    0.0000 C   0  0  0  0  0  0  0  0  0  0  0  0
    8.5774   -5.2525    0.0000 C   0  0  0  0  0  0  0  0  0  0  0  0
    7.8629   -5.6650    0.0000 C   0  0  0  0  0  0  0  0  0  0  0  0
    8.5774   -7.7275    0.0000 O   0  0  0  0  0  0  0  0  0  0  0  0
   10.0063   -5.2525    0.0000 O   0  0  0  0  0  0  0  0  0  0  0  0
    5.0050   -5.6650    0.0000 C   0  0  0  0  0  0  0  0  0  0  0  0
    5.7195   -5.2525    0.0000 C   0  0  0  0  0  0  0  0  0  0  0  0
    6.4339   -5.6650    0.0000 O   0  0  0  0  0  0  0  0  0  0  0  0
    3.5761   -6.4900    0.0000 O   0  0  0  0  0  0  0  0  0  0  0  0
    9.2918   -8.1400    0.0000 C   0  0  2  0  0  0  0  0  0  0  0  0
    9.2918   -8.9650    0.0000 O   0  0  0  0  0  0  0  0  0  0  0  0
   10.0063   -9.3775    0.0000 C   0  0  1  0  0  0  0  0  0  0  0  0
   10.7208   -8.9650    0.0000 C   0  0  2  0  0  0  0  0  0  0  0  0
   10.7208   -8.1400    0.0000 C   0  0  1  0  0  0  0  0  0  0  0  0
   10.0063   -7.7275    0.0000 C   0  0  1  0  0  0  0  0  0  0  0  0
   10.0063  -10.2025    0.0000 C   0  0  0  0  0  0  0  0  0  0  0  0
   11.4352   -7.7275    0.0000 O   0  0  0  0  0  0  0  0  0  0  0  0
   11.4352   -9.3775    0.0000 O   0  0  0  0  0  0  0  0  0  0  0  0
   10.0063   -6.9025    0.0000 O   0  0  0  0  0  0  0  0  0  0  0  0
   10.7208  -10.6150    0.0000 O   0  0  0  0  0  0  0  0  0  0  0  0
    2.8616   -6.9025    0.0000 C   0  0  0  0  0  0  0  0  0  0  0  0
  1  2  2  0  0  0  0
  2  3  1  0  0  0  0
  3  4  2  0  0  0  0
  4  5  1  0  0  0  0
  5  6  2  0  0  0  0
  6  1  1  0  0  0  0
  4  7  1  0  0  0  0
  7  8  1  0  0  0  0
  8  9  1  0  0  0  0
  9 10  1  0  0  0  0
 10  5  1  0  0  0  0
  9 11  1  6  0  0  0
 11 12  2  0  0  0  0
 12 13  1  0  0  0  0
 13 14  2  0  0  0  0
 14 15  1  0  0  0  0
 15 16  2  0  0  0  0
 16 11  1  0  0  0  0
 12 17  1  0  0  0  0
 14 18  1  0  0  0  0
  6 19  1  0  0  0  0
 19 20  1  0  0  0  0
 20 21  1  0  0  0  0
  1 22  1  0  0  0  0
 23 17  1  1  0  0  0
 23 24  1  0  0  0  0
 24 25  1  0  0  0  0
 25 26  1  0  0  0  0
 26 27  1  0  0  0  0
 27 28  1  0  0  0  0
 28 23  1  0  0  0  0
 25 29  1  1  0  0  0
 27 30  1  1  0  0  0
 26 31  1  6  0  0  0
 28 32  1  6  0  0  0
 29 33  1  0  0  0  0
 22 34  1  0  0  0  0
M  END
>  <cdx:fragmentId>
306

$$$$
