97000.cdx
  Mrv1902 05222410182D          

 15 16  0  0  0  0            999 V2000
    6.3712   -6.3525    0.0000 C   0  0  2  0  0  0  0  0  0  0  0  0
    6.3712   -7.1775    0.0000 N   0  0  0  0  0  0  0  0  0  0  0  0
    7.0856   -7.5900    0.0000 C   0  0  0  0  0  0  0  0  0  0  0  0
    7.8001   -7.1775    0.0000 C   0  0  1  0  0  0  0  0  0  0  0  0
    7.8001   -6.3525    0.0000 N   0  0  0  0  0  0  0  0  0  0  0  0
    7.0856   -5.9400    0.0000 C   0  0  0  0  0  0  0  0  0  0  0  0
    8.5847   -7.4324    0.0000 C   0  0  0  0  0  0  0  0  0  0  0  0
    9.0697   -6.7650    0.0000 C   0  0  0  0  0  0  0  0  0  0  0  0
    8.5847   -6.0976    0.0000 C   0  0  0  0  0  0  0  0  0  0  0  0
    7.0856   -5.1150    0.0000 O   0  0  0  0  0  0  0  0  0  0  0  0
    5.6567   -5.9400    0.0000 C   0  0  0  0  0  0  0  0  0  0  0  0
    4.9422   -6.3525    0.0000 C   0  0  0  0  0  0  0  0  0  0  0  0
    5.6567   -5.1150    0.0000 C   0  0  0  0  0  0  0  0  0  0  0  0
    7.0856   -8.4150    0.0000 O   0  0  0  0  0  0  0  0  0  0  0  0
    7.8864   -7.9980    0.0000 H   0  0  0  0  0  0  0  0  0  0  0  0
  1  2  1  0  0  0  0
  2  3  1  0  0  0  0
  3  4  1  0  0  0  0
  4  5  1  0  0  0  0
  5  6  1  0  0  0  0
  6  1  1  0  0  0  0
  4  7  1  0  0  0  0
  7  8  1  0  0  0  0
  8  9  1  0  0  0  0
  9  5  1  0  0  0  0
  6 10  2  0  0  0  0
  1 11  1  1  0  0  0
 11 12  1  0  0  0  0
 11 13  1  0  0  0  0
  3 14  2  0  0  0  0
  4 15  1  6  0  0  0
M  END
>  <cdx:fragmentId>
5

$$$$
