97011.cdx
  Mrv1902 05222410202D          

 45 50  0  0  0  0            999 V2000
   10.8432  -10.5493    0.0000 C   0  0  0  0  0  0  0  0  0  0  0  0
   10.6269  -11.3455    0.0000 O   0  0  0  0  0  0  0  0  0  0  0  0
    6.5959   -4.8560    0.0000 C   0  0  0  0  0  0  0  0  0  0  0  0
    6.1086   -5.5218    0.0000 C   0  0  0  0  0  0  0  0  0  0  0  0
    2.5130   -8.7519    0.0000 C   0  0  0  0  0  0  0  0  0  0  0  0
    3.2275   -9.1644    0.0000 C   0  0  0  0  0  0  0  0  0  0  0  0
    3.7308   -6.5966    0.0000 O   0  0  0  0  0  0  0  0  0  0  0  0
    3.5144   -7.3927    0.0000 C   0  0  0  0  0  0  0  0  0  0  0  0
    9.9843  -12.2207    0.0000 C   0  0  0  0  0  0  0  0  0  0  0  0
    9.1699  -12.0888    0.0000 O   0  0  0  0  0  0  0  0  0  0  0  0
    9.3984  -10.6782    0.0000 O   0  0  0  0  0  0  0  0  0  0  0  0
    8.8769  -11.3175    0.0000 C   0  0  0  0  0  0  0  0  0  0  0  0
    7.8804   -5.8088    0.0000 C   0  0  0  0  0  0  0  0  0  0  0  0
    9.7513   -8.4029    0.0000 C   0  0  0  0  0  0  0  0  0  0  0  0
    5.4431  -11.6920    0.0000 C   0  0  0  0  0  0  0  0  0  0  0  0
    7.6033  -12.5822    0.0000 O   0  0  0  0  0  0  0  0  0  0  0  0
    5.9835  -11.0686    0.0000 C   0  0  0  0  0  0  0  0  0  0  0  0
    5.2830   -8.5883    0.0000 N   0  0  0  0  0  0  0  0  0  0  0  0
    6.6848   -7.5773    0.0000 N   0  0  0  0  0  0  0  0  0  0  0  0
    7.6957   -8.9791    0.0000 N   0  0  0  0  0  0  0  0  0  0  0  0
    8.8830   -9.5893    0.0000 C   0  0  1  0  0  0  0  0  0  0  0  0
    9.0149   -8.7749    0.0000 C   0  0  1  0  0  0  0  0  0  0  0  0
    8.2811   -8.3978    0.0000 C   0  0  0  0  0  0  0  0  0  0  0  0
    8.1549   -7.5825    0.0000 C   0  0  0  0  0  0  0  0  0  0  0  0
    7.4212   -7.2054    0.0000 C   0  0  0  0  0  0  0  0  0  0  0  0
    7.2950   -6.3901    0.0000 C   0  0  0  0  0  0  0  0  0  0  0  0
    6.4806   -6.2582    0.0000 C   0  0  0  0  0  0  0  0  0  0  0  0
    6.1035   -6.9919    0.0000 C   0  0  0  0  0  0  0  0  0  0  0  0
    5.2882   -7.1181    0.0000 C   0  0  0  0  0  0  0  0  0  0  0  0
    4.9110   -7.8519    0.0000 C   0  0  0  0  0  0  0  0  0  0  0  0
    4.0958   -7.9781    0.0000 C   0  0  0  0  0  0  0  0  0  0  0  0
    3.9638   -8.7925    0.0000 C   0  0  0  0  0  0  0  0  0  0  0  0
    4.6976   -9.1696    0.0000 C   0  0  0  0  0  0  0  0  0  0  0  0
    4.8238   -9.9849    0.0000 C   0  0  0  0  0  0  0  0  0  0  0  0
    5.5576  -10.3620    0.0000 C   0  0  0  0  0  0  0  0  0  0  0  0
    6.2940   -9.9900    0.0000 N   0  0  0  0  0  0  0  0  0  0  0  0
    6.8753  -10.5754    0.0000 C   0  0  0  0  0  0  0  0  0  0  0  0
    6.7434  -11.3898    0.0000 C   0  0  0  0  0  0  0  0  0  0  0  0
    7.4771  -11.7669    0.0000 C   0  0  0  0  0  0  0  0  0  0  0  0
    8.0625  -11.1856    0.0000 C   0  0  1  0  0  0  0  0  0  0  0  0
    7.6906  -10.4492    0.0000 C   0  0  0  0  0  0  0  0  0  0  0  0
    8.0677   -9.7155    0.0000 C   0  0  0  0  0  0  0  0  0  0  0  0
   11.6409  -10.3386    0.0000 O   0  0  0  0  0  0  0  0  0  0  0  0
    9.4643  -10.1747    0.0000 C   0  0  0  0  0  0  0  0  0  0  0  0
   10.2619   -9.9639    0.0000 C   0  0  0  0  0  0  0  0  0  0  0  0
 21 44  1  6  0  0  0
 27  4  1  0  0  0  0
  4  3  2  0  0  0  0
 32  6  1  0  0  0  0
  6  5  1  0  0  0  0
 31  8  2  0  0  0  0
  8  7  1  0  0  0  0
 40 12  1  1  0  0  0
 12 10  1  0  0  0  0
 10  9  1  0  0  0  0
 12 11  2  0  0  0  0
 26 13  1  0  0  0  0
 22 14  1  1  0  0  0
 17 15  1  0  0  0  0
 39 16  2  0  0  0  0
 41 37  1  0  0  0  0
 17 38  2  0  0  0  0
 35 17  1  0  0  0  0
 18 33  1  0  0  0  0
 30 18  2  0  0  0  0
 19 28  1  0  0  0  0
 25 19  2  0  0  0  0
 20 23  1  0  0  0  0
 42 20  1  0  0  0  0
 42 21  1  0  0  0  0
 22 21  1  0  0  0  0
 23 22  1  0  0  0  0
 24 23  2  0  0  0  0
 25 24  1  0  0  0  0
 26 25  1  0  0  0  0
 27 26  2  0  0  0  0
 28 27  1  0  0  0  0
 29 28  2  0  0  0  0
 30 29  1  0  0  0  0
 31 30  1  0  0  0  0
 32 31  1  0  0  0  0
 33 32  2  0  0  0  0
 34 33  1  0  0  0  0
 35 34  2  0  0  0  0
 36 35  1  0  0  0  0
 37 36  2  0  0  0  0
 38 37  1  0  0  0  0
 39 38  1  0  0  0  0
 40 39  1  0  0  0  0
 41 40  1  0  0  0  0
 42 41  2  0  0  0  0
 45 44  1  0  0  0  0
  1 45  1  0  0  0  0
  1  2  2  0  0  0  0
  1 43  1  0  0  0  0
M  END
>  <cdx:fragmentId>
15

$$$$
