97012.cdx
  Mrv1902 05222410202D          

 40 44  0  0  0  0            999 V2000
   10.2421   -7.0485    0.0000 O   0  0  0  0  0  0  0  0  0  0  0  0
   10.2481   -4.1905    0.0000 O   0  0  0  0  0  0  0  0  0  0  0  0
    9.0091   -4.9024    0.0000 C   0  0  0  0  0  0  0  0  0  0  0  0
    9.8341   -4.9042    0.0000 C   0  0  0  0  0  0  0  0  0  0  0  0
   10.2451   -5.6195    0.0000 C   0  0  0  0  0  0  0  0  0  0  0  0
    9.8311   -6.3331    0.0000 C   0  0  0  0  0  0  0  0  0  0  0  0
    9.0061   -6.3313    0.0000 C   0  0  0  0  0  0  0  0  0  0  0  0
    8.5951   -5.6160    0.0000 C   0  0  0  0  0  0  0  0  0  0  0  0
    4.3554   -6.4320    0.0000 O   0  0  0  0  0  0  0  0  0  0  0  0
    5.7844   -6.4351    0.0000 C   0  0  0  0  0  0  0  0  0  0  0  0
    5.0707   -6.0210    0.0000 C   0  0  0  0  0  0  0  0  0  0  0  0
    5.0725   -5.1961    0.0000 C   0  0  0  0  0  0  0  0  0  0  0  0
    5.7878   -4.7851    0.0000 C   0  0  0  0  0  0  0  0  0  0  0  0
    6.4997   -6.0241    0.0000 C   0  0  0  0  0  0  0  0  0  0  0  0
    6.5014   -5.1991    0.0000 C   0  0  0  0  0  0  0  0  0  0  0  0
    7.2866   -4.9458    0.0000 C   0  0  0  0  0  0  0  0  0  0  0  0
    7.7701   -5.6143    0.0000 C   0  0  0  0  0  0  0  0  0  0  0  0
    7.2838   -6.2807    0.0000 O   0  0  0  0  0  0  0  0  0  0  0  0
    3.6418   -6.0180    0.0000 C   0  0  2  0  0  0  0  0  0  0  0  0
    3.6444   -5.1930    0.0000 O   0  0  0  0  0  0  0  0  0  0  0  0
    2.9312   -4.7783    0.0000 C   0  0  1  0  0  0  0  0  0  0  0  0
    2.2155   -5.1930    0.0000 C   0  0  2  0  0  0  0  0  0  0  0  0
    2.2155   -6.0180    0.0000 C   0  0  1  0  0  0  0  0  0  0  0  0
    2.9312   -6.4328    0.0000 C   0  0  1  0  0  0  0  0  0  0  0  0
    2.9319   -3.9533    0.0000 C   0  0  0  0  0  0  0  0  0  0  0  0
    1.5007   -6.4300    0.0000 O   0  0  0  0  0  0  0  0  0  0  0  0
    2.9325   -7.2578    0.0000 O   0  0  0  0  0  0  0  0  0  0  0  0
    1.5007   -4.7811    0.0000 O   0  0  0  0  0  0  0  0  0  0  0  0
    2.2177   -3.5402    0.0000 O   0  0  0  0  0  0  0  0  0  0  0  0
    9.8280   -7.7620    0.0000 C   0  0  2  0  0  0  0  0  0  0  0  0
    9.0030   -7.7594    0.0000 O   0  0  0  0  0  0  0  0  0  0  0  0
    8.5883   -8.4725    0.0000 C   0  0  1  0  0  0  0  0  0  0  0  0
    9.0030   -9.1883    0.0000 C   0  0  2  0  0  0  0  0  0  0  0  0
    9.8280   -9.1883    0.0000 C   0  0  1  0  0  0  0  0  0  0  0  0
   10.2428   -8.4725    0.0000 C   0  0  1  0  0  0  0  0  0  0  0  0
    7.7633   -8.4719    0.0000 C   0  0  0  0  0  0  0  0  0  0  0  0
   10.2400   -9.9031    0.0000 O   0  0  0  0  0  0  0  0  0  0  0  0
   11.0678   -8.4712    0.0000 O   0  0  0  0  0  0  0  0  0  0  0  0
    8.5911   -9.9031    0.0000 O   0  0  0  0  0  0  0  0  0  0  0  0
    7.3502   -9.1860    0.0000 O   0  0  0  0  0  0  0  0  0  0  0  0
 17  8  1  0  0  0  0
  6  1  1  0  0  0  0
  4  2  1  0  0  0  0
  8  3  2  0  0  0  0
  4  3  1  0  0  0  0
  5  4  2  0  0  0  0
  6  5  1  0  0  0  0
  7  6  2  0  0  0  0
  8  7  1  0  0  0  0
 11  9  1  0  0  0  0
 13 15  2  0  0  0  0
 10 14  2  0  0  0  0
 11 10  1  0  0  0  0
 12 11  2  0  0  0  0
 13 12  1  0  0  0  0
 18 14  1  0  0  0  0
 15 14  1  0  0  0  0
 16 15  1  0  0  0  0
 17 16  2  0  0  0  0
 18 17  1  0  0  0  0
 19  9  1  1  0  0  0
 19 20  1  0  0  0  0
 20 21  1  0  0  0  0
 21 22  1  0  0  0  0
 22 23  1  0  0  0  0
 23 24  1  0  0  0  0
 24 19  1  0  0  0  0
 21 25  1  1  0  0  0
 23 26  1  1  0  0  0
 24 27  1  6  0  0  0
 22 28  1  6  0  0  0
 25 29  1  0  0  0  0
 30  1  1  1  0  0  0
 30 31  1  0  0  0  0
 31 32  1  0  0  0  0
 32 33  1  0  0  0  0
 33 34  1  0  0  0  0
 34 35  1  0  0  0  0
 35 30  1  0  0  0  0
 32 36  1  1  0  0  0
 34 37  1  1  0  0  0
 35 38  1  6  0  0  0
 33 39  1  6  0  0  0
 36 40  1  0  0  0  0
M  END
>  <cdx:fragmentId>
16010

$$$$
