126970157.cdx
  Mrv1902 05222410222D          

 26 27  0  0  0  0            999 V2000
   17.6983  -10.6760    0.0000 C   0  0  0  0  0  0  0  0  0  0  0  0
   16.9838  -10.2635    0.0000 C   0  0  0  0  0  0  0  0  0  0  0  0
   16.2694  -10.6760    0.0000 C   0  0  0  0  0  0  0  0  0  0  0  0
   18.4128  -10.2635    0.0000 O   0  0  0  0  0  0  0  0  0  0  0  0
   15.5549  -10.2635    0.0000 C   0  0  0  0  0  0  0  0  0  0  0  0
   14.8404  -10.6760    0.0000 C   0  0  0  0  0  0  0  0  0  0  0  0
   14.1259  -10.2635    0.0000 C   0  0  0  0  0  0  0  0  0  0  0  0
   14.1259   -9.4385    0.0000 C   0  0  0  0  0  0  0  0  0  0  0  0
   14.8404   -9.0260    0.0000 C   0  0  0  0  0  0  0  0  0  0  0  0
   15.5549   -9.4385    0.0000 C   0  0  0  0  0  0  0  0  0  0  0  0
   13.4115   -9.0260    0.0000 O   0  0  0  0  0  0  0  0  0  0  0  0
   12.6970  -10.2635    0.0000 O   0  0  0  0  0  0  0  0  0  0  0  0
   12.6970   -9.4385    0.0000 C   0  0  0  0  0  0  0  0  0  0  0  0
   11.9825   -9.0260    0.0000 C   0  0  1  0  0  0  0  0  0  0  0  0
   11.2681   -9.4385    0.0000 C   0  0  2  0  0  0  0  0  0  0  0  0
   11.2681  -10.2635    0.0000 C   0  0  1  0  0  0  0  0  0  0  0  0
   11.9825  -10.6760    0.0000 C   0  0  1  0  0  0  0  0  0  0  0  0
   11.9825  -11.5010    0.0000 C   0  0  0  0  0  0  0  0  0  0  0  0
   11.2681  -11.9135    0.0000 O   0  0  0  0  0  0  0  0  0  0  0  0
   10.5536  -10.6760    0.0000 O   0  0  0  0  0  0  0  0  0  0  0  0
   10.5536   -9.0260    0.0000 O   0  0  0  0  0  0  0  0  0  0  0  0
   11.9825   -8.2010    0.0000 O   0  0  0  0  0  0  0  0  0  0  0  0
   14.8404   -8.2010    0.0000 O   0  0  0  0  0  0  0  0  0  0  0  0
   14.1259   -7.7885    0.0000 C   0  0  0  0  0  0  0  0  0  0  0  0
   13.4115  -10.6760    0.0000 O   0  0  0  0  0  0  0  0  0  0  0  0
   13.4115  -11.5010    0.0000 C   0  0  0  0  0  0  0  0  0  0  0  0
  1  2  1  0  0  0  0
  2  3  2  0  0  0  0
  1  4  2  0  0  0  0
  5  6  1  0  0  0  0
  6  7  2  0  0  0  0
  7  8  1  0  0  0  0
  8  9  2  0  0  0  0
  9 10  1  0  0  0  0
  5 10  2  0  0  0  0
 12 13  1  0  0  0  0
 13 14  1  0  0  0  0
 14 15  1  0  0  0  0
 15 16  1  0  0  0  0
 16 17  1  0  0  0  0
 12 17  1  0  0  0  0
 18 19  1  0  0  0  0
 17 18  1  6  0  0  0
 16 20  1  1  0  0  0
 15 21  1  6  0  0  0
 14 22  1  1  0  0  0
 11 13  1  0  0  0  0
  8 11  1  0  0  0  0
 23 24  1  0  0  0  0
  9 23  1  0  0  0  0
 25 26  1  0  0  0  0
  7 25  1  0  0  0  0
  3  5  1  0  0  0  0
M  END
>  <cdx:groupId>
43884

>  <cdx:fragmentId>
43830

$$$$
