97024.cdx
  Mrv1902 05222410282D          

 29 32  0  0  0  0            999 V2000
    9.2038  -10.1224    0.0000 C   0  0  0  0  0  0  0  0  0  0  0  0
    6.2760   -4.9435    0.0000 C   0  0  0  0  0  0  0  0  0  0  0  0
    4.1988   -6.9064    0.0000 C   0  0  0  0  0  0  0  0  0  0  0  0
    6.8426   -5.5431    0.0000 O   0  0  0  0  0  0  0  0  0  0  0  0
    5.2374   -5.9249    0.0000 O   0  0  0  0  0  0  0  0  0  0  0  0
    4.7654   -7.5060    0.0000 O   0  0  0  0  0  0  0  0  0  0  0  0
    7.1733   -6.9333    0.0000 C   0  0  0  0  0  0  0  0  0  0  0  0
    6.6066   -6.3337    0.0000 C   0  0  0  0  0  0  0  0  0  0  0  0
    5.8040   -6.5246    0.0000 C   0  0  0  0  0  0  0  0  0  0  0  0
    5.5681   -7.3151    0.0000 C   0  0  0  0  0  0  0  0  0  0  0  0
    6.1347   -7.9147    0.0000 C   0  0  0  0  0  0  0  0  0  0  0  0
    6.9373   -7.7238    0.0000 C   0  0  0  0  0  0  0  0  0  0  0  0
    7.5039   -8.3235    0.0000 C   0  0  0  0  0  0  0  0  0  0  0  0
    7.2679   -9.1140    0.0000 C   0  0  0  0  0  0  0  0  0  0  0  0
    8.6372   -9.5227    0.0000 O   0  0  0  0  0  0  0  0  0  0  0  0
    4.6506  -10.5751    0.0000 C   0  0  0  0  0  0  0  0  0  0  0  0
    4.1135  -11.2013    0.0000 C   0  0  0  0  0  0  0  0  0  0  0  0
    4.3872  -11.9796    0.0000 C   0  0  0  0  0  0  0  0  0  0  0  0
    5.1981  -12.1316    0.0000 C   0  0  0  0  0  0  0  0  0  0  0  0
    6.1170  -10.2263    0.0000 N   0  0  0  0  0  0  0  0  0  0  0  0
    5.4615  -10.7272    0.0000 C   0  0  0  0  0  0  0  0  0  0  0  0
    5.7352  -11.5054    0.0000 C   0  0  0  0  0  0  0  0  0  0  0  0
    7.8346   -9.7136    0.0000 C   0  0  1  0  0  0  0  0  0  0  0  0
    7.1266  -12.0852    0.0000 C   0  0  0  0  0  0  0  0  0  0  0  0
    7.9292  -11.8943    0.0000 C   0  0  0  0  0  0  0  0  0  0  0  0
    8.1652  -11.1038    0.0000 N   0  0  0  0  0  0  0  0  0  0  0  0
    7.5986  -10.5042    0.0000 C   0  0  0  0  0  0  0  0  0  0  0  0
    6.5600  -11.4856    0.0000 C   0  0  0  0  0  0  0  0  0  0  0  0
    6.7960  -10.6951    0.0000 C   0  0  0  0  0  0  0  0  0  0  0  0
 15  1  1  0  0  0  0
  4  2  1  0  0  0  0
  6  3  1  0  0  0  0
  8  4  1  0  0  0  0
  9  5  1  0  0  0  0
 10  6  1  0  0  0  0
  7 12  1  0  0  0  0
  8  7  2  0  0  0  0
  9  8  1  0  0  0  0
 10  9  2  0  0  0  0
 11 10  1  0  0  0  0
 12 11  2  0  0  0  0
 13 12  1  0  0  0  0
 14 13  2  0  0  0  0
 23 14  1  0  0  0  0
 23 15  1  1  0  0  0
 16 21  1  0  0  0  0
 17 16  2  0  0  0  0
 18 17  1  0  0  0  0
 19 18  2  0  0  0  0
 22 19  1  0  0  0  0
 20 29  1  0  0  0  0
 21 20  1  0  0  0  0
 22 21  2  0  0  0  0
 28 22  1  0  0  0  0
 27 23  1  0  0  0  0
 24 28  1  0  0  0  0
 25 24  2  0  0  0  0
 26 25  1  0  0  0  0
 27 26  2  0  0  0  0
 29 27  1  0  0  0  0
 29 28  2  0  0  0  0
M  END
>  <cdx:fragmentId>
5

$$$$
