70247.cdx
  Mrv1902 05222410192D          

 33 36  0  0  0  0            999 V2000
    5.2918   -9.3489    0.0000 C   0  0  0  0  0  0  0  0  0  0  0  0
    5.2918   -8.5239    0.0000 C   0  0  0  0  0  0  0  0  0  0  0  0
    6.0063   -8.1114    0.0000 C   0  0  0  0  0  0  0  0  0  0  0  0
    6.7207   -8.5239    0.0000 C   0  0  0  0  0  0  0  0  0  0  0  0
    6.7207   -9.3489    0.0000 C   0  0  0  0  0  0  0  0  0  0  0  0
    6.0063   -9.7614    0.0000 C   0  0  0  0  0  0  0  0  0  0  0  0
    7.4352   -8.1114    0.0000 O   0  0  0  0  0  0  0  0  0  0  0  0
    8.1497   -8.5239    0.0000 C   0  0  0  0  0  0  0  0  0  0  0  0
    8.1497   -9.3489    0.0000 C   0  0  0  0  0  0  0  0  0  0  0  0
    7.4352   -9.7614    0.0000 C   0  0  0  0  0  0  0  0  0  0  0  0
    7.4352  -10.5864    0.0000 O   0  0  0  0  0  0  0  0  0  0  0  0
    6.0063  -10.5864    0.0000 O   0  0  0  0  0  0  0  0  0  0  0  0
    8.8642   -8.1114    0.0000 C   0  0  0  0  0  0  0  0  0  0  0  0
    9.5786   -8.5239    0.0000 C   0  0  0  0  0  0  0  0  0  0  0  0
    8.8642   -9.7614    0.0000 O   0  0  0  0  0  0  0  0  0  0  0  0
    8.8642   -7.2864    0.0000 C   0  0  0  0  0  0  0  0  0  0  0  0
    9.5786   -6.8739    0.0000 C   0  0  0  0  0  0  0  0  0  0  0  0
   10.2931   -7.2864    0.0000 C   0  0  0  0  0  0  0  0  0  0  0  0
   10.2931   -8.1114    0.0000 C   0  0  0  0  0  0  0  0  0  0  0  0
    4.5773   -8.1114    0.0000 O   0  0  0  0  0  0  0  0  0  0  0  0
    8.8642  -10.5864    0.0000 C   0  0  0  0  0  0  0  0  0  0  0  0
   11.0076   -6.8739    0.0000 O   0  0  0  0  0  0  0  0  0  0  0  0
    3.8629   -8.5239    0.0000 C   0  0  2  0  0  0  0  0  0  0  0  0
    3.1484   -8.1114    0.0000 O   0  0  0  0  0  0  0  0  0  0  0  0
    2.4339   -8.5239    0.0000 C   0  0  1  0  0  0  0  0  0  0  0  0
    2.4339   -9.3489    0.0000 C   0  0  2  0  0  0  0  0  0  0  0  0
    3.1484   -9.7614    0.0000 C   0  0  1  0  0  0  0  0  0  0  0  0
    3.8629   -9.3489    0.0000 C   0  0  1  0  0  0  0  0  0  0  0  0
    1.7194   -8.1114    0.0000 C   0  0  0  0  0  0  0  0  0  0  0  0
    3.1484  -10.5864    0.0000 O   0  0  0  0  0  0  0  0  0  0  0  0
    1.7194   -9.7614    0.0000 O   0  0  0  0  0  0  0  0  0  0  0  0
    4.5773   -9.7614    0.0000 O   0  0  0  0  0  0  0  0  0  0  0  0
    1.0050   -8.5239    0.0000 O   0  0  0  0  0  0  0  0  0  0  0  0
  1  2  2  0  0  0  0
  2  3  1  0  0  0  0
  3  4  2  0  0  0  0
  4  5  1  0  0  0  0
  5  6  2  0  0  0  0
  6  1  1  0  0  0  0
  4  7  1  0  0  0  0
  7  8  1  0  0  0  0
  8  9  2  0  0  0  0
  9 10  1  0  0  0  0
 10  5  1  0  0  0  0
 10 11  2  0  0  0  0
 12  6  1  0  0  0  0
  8 13  1  0  0  0  0
 13 14  2  0  0  0  0
 15  9  1  0  0  0  0
 13 16  1  0  0  0  0
 16 17  2  0  0  0  0
 17 18  1  0  0  0  0
 18 19  2  0  0  0  0
 19 14  1  0  0  0  0
  2 20  1  0  0  0  0
 15 21  1  0  0  0  0
 18 22  1  0  0  0  0
 23 20  1  1  0  0  0
 23 24  1  0  0  0  0
 24 25  1  0  0  0  0
 25 26  1  0  0  0  0
 26 27  1  0  0  0  0
 27 28  1  0  0  0  0
 28 23  1  0  0  0  0
 25 29  1  1  0  0  0
 27 30  1  1  0  0  0
 26 31  1  6  0  0  0
 28 32  1  6  0  0  0
 29 33  1  0  0  0  0
M  END
>  <cdx:fragmentId>
5

$$$$
