97023.cdx
  Mrv1902 05222410262D          

 37 42  0  0  0  0            999 V2000
    6.7544  -10.6071    0.0000 C   0  0  0  0  0  0  0  0  0  0  0  0
    6.5003  -11.3920    0.0000 C   0  0  0  0  0  0  0  0  0  0  0  0
    7.5612  -10.4347    0.0000 C   0  0  0  0  0  0  0  0  0  0  0  0
    8.1139  -11.0473    0.0000 N   0  0  0  0  0  0  0  0  0  0  0  0
    7.8597  -11.8322    0.0000 C   0  0  0  0  0  0  0  0  0  0  0  0
    7.0529  -12.0045    0.0000 C   0  0  0  0  0  0  0  0  0  0  0  0
    6.7988  -12.7894    0.0000 O   0  0  0  0  0  0  0  0  0  0  0  0
    5.9920  -12.9617    0.0000 C   0  0  0  0  0  0  0  0  0  0  0  0
    7.8154   -9.6499    0.0000 C   0  0  0  0  0  0  0  0  0  0  0  0
    8.6222   -9.4775    0.0000 C   0  0  2  0  0  0  0  0  0  0  0  0
    7.2627   -9.0373    0.0000 O   0  0  0  0  0  0  0  0  0  0  0  0
    9.1748  -10.0901    0.0000 O   0  0  0  0  0  0  0  0  0  0  0  0
    8.8763   -8.6927    0.0000 C   0  0  0  0  0  0  0  0  0  0  0  0
    9.9816   -9.9177    0.0000 C   0  0  0  0  0  0  0  0  0  0  0  0
    8.3237   -8.0801    0.0000 C   0  0  0  0  0  0  0  0  0  0  0  0
    8.5778   -7.2952    0.0000 C   0  0  0  0  0  0  0  0  0  0  0  0
    7.5169   -8.2525    0.0000 O   0  0  0  0  0  0  0  0  0  0  0  0
    8.0252   -6.6827    0.0000 C   0  0  0  0  0  0  0  0  0  0  0  0
    8.2793   -5.8978    0.0000 C   0  0  0  0  0  0  0  0  0  0  0  0
    9.0861   -5.7255    0.0000 C   0  0  0  0  0  0  0  0  0  0  0  0
    9.6388   -6.3380    0.0000 C   0  0  0  0  0  0  0  0  0  0  0  0
    9.3846   -7.1229    0.0000 N   0  0  0  0  0  0  0  0  0  0  0  0
    7.6114   -5.4136    0.0000 C   0  0  0  0  0  0  0  0  0  0  0  0
    6.9444   -5.8992    0.0000 C   0  0  0  0  0  0  0  0  0  0  0  0
    7.2002   -6.6835    0.0000 N   0  0  0  0  0  0  0  0  0  0  0  0
    6.0865  -10.1228    0.0000 N   0  0  0  0  0  0  0  0  0  0  0  0
    5.4195  -10.6084    0.0000 C   0  0  0  0  0  0  0  0  0  0  0  0
    5.6753  -11.3928    0.0000 C   0  0  0  0  0  0  0  0  0  0  0  0
    4.6124  -10.4377    0.0000 C   0  0  0  0  0  0  0  0  0  0  0  0
    4.0610  -11.0514    0.0000 C   0  0  0  0  0  0  0  0  0  0  0  0
    4.3167  -11.8357    0.0000 C   0  0  0  0  0  0  0  0  0  0  0  0
    5.1238  -12.0064    0.0000 C   0  0  0  0  0  0  0  0  0  0  0  0
    7.5243   -4.5932    0.0000 C   0  0  0  0  0  0  0  0  0  0  0  0
    6.7703   -4.2584    0.0000 C   0  0  0  0  0  0  0  0  0  0  0  0
    6.1034   -4.7440    0.0000 C   0  0  0  0  0  0  0  0  0  0  0  0
    6.1904   -5.5644    0.0000 C   0  0  0  0  0  0  0  0  0  0  0  0
    4.3567   -9.6534    0.0000 O   0  0  0  0  0  0  0  0  0  0  0  0
  1  2  2  0  0  0  0
  1  3  1  0  0  0  0
  3  4  2  0  0  0  0
  4  5  1  0  0  0  0
  5  6  2  0  0  0  0
  6  2  1  0  0  0  0
  6  7  1  0  0  0  0
  7  8  1  0  0  0  0
  3  9  1  0  0  0  0
  9 10  1  0  0  0  0
  9 11  2  0  0  0  0
 10 12  1  1  0  0  0
 10 13  1  0  0  0  0
 12 14  1  0  0  0  0
 13 15  1  0  0  0  0
 15 16  1  0  0  0  0
 15 17  2  0  0  0  0
 16 18  2  0  0  0  0
 18 19  1  0  0  0  0
 19 20  2  0  0  0  0
 20 21  1  0  0  0  0
 21 22  2  0  0  0  0
 22 16  1  0  0  0  0
 19 23  1  0  0  0  0
 23 24  2  0  0  0  0
 24 25  1  0  0  0  0
 25 18  1  0  0  0  0
  1 26  1  0  0  0  0
 26 27  1  0  0  0  0
 27 28  2  0  0  0  0
 28  2  1  0  0  0  0
 27 29  1  0  0  0  0
 29 30  2  0  0  0  0
 30 31  1  0  0  0  0
 31 32  2  0  0  0  0
 32 28  1  0  0  0  0
 23 33  1  0  0  0  0
 33 34  2  0  0  0  0
 34 35  1  0  0  0  0
 35 36  2  0  0  0  0
 36 24  1  0  0  0  0
 29 37  1  0  0  0  0
M  END
>  <cdx:fragmentId>
5

$$$$
