97025.cdx
  Mrv1902 05222410282D          

 29 32  0  0  0  0            999 V2000
    9.1771  -10.1753    0.0000 C   0  0  0  0  0  0  0  0  0  0  0  0
    6.3558   -4.9376    0.0000 C   0  0  0  0  0  0  0  0  0  0  0  0
    4.2389   -6.8576    0.0000 C   0  0  0  0  0  0  0  0  0  0  0  0
    6.9100   -5.5487    0.0000 O   0  0  0  0  0  0  0  0  0  0  0  0
    5.2974   -5.8976    0.0000 O   0  0  0  0  0  0  0  0  0  0  0  0
    4.7932   -7.4687    0.0000 O   0  0  0  0  0  0  0  0  0  0  0  0
    7.2122   -6.9454    0.0000 C   0  0  0  0  0  0  0  0  0  0  0  0
    6.6579   -6.3343    0.0000 C   0  0  0  0  0  0  0  0  0  0  0  0
    5.8516   -6.5087    0.0000 C   0  0  0  0  0  0  0  0  0  0  0  0
    5.5995   -7.2942    0.0000 C   0  0  0  0  0  0  0  0  0  0  0  0
    6.1537   -7.9053    0.0000 C   0  0  0  0  0  0  0  0  0  0  0  0
    6.9601   -7.7309    0.0000 C   0  0  0  0  0  0  0  0  0  0  0  0
    7.5143   -8.3420    0.0000 C   0  0  0  0  0  0  0  0  0  0  0  0
    7.2622   -9.1275    0.0000 C   0  0  0  0  0  0  0  0  0  0  0  0
    8.6228   -9.5642    0.0000 O   0  0  0  0  0  0  0  0  0  0  0  0
    4.6156  -10.5348    0.0000 C   0  0  0  0  0  0  0  0  0  0  0  0
    4.0658  -11.1499    0.0000 C   0  0  0  0  0  0  0  0  0  0  0  0
    4.3235  -11.9336    0.0000 C   0  0  0  0  0  0  0  0  0  0  0  0
    5.1311  -12.1022    0.0000 C   0  0  0  0  0  0  0  0  0  0  0  0
    6.0889  -10.2161    0.0000 N   0  0  0  0  0  0  0  0  0  0  0  0
    5.4232  -10.7034    0.0000 C   0  0  0  0  0  0  0  0  0  0  0  0
    5.6809  -11.4871    0.0000 C   0  0  0  0  0  0  0  0  0  0  0  0
    7.8165   -9.7386    0.0000 C   0  0  2  0  0  0  0  0  0  0  0  0
    7.0602  -12.0952    0.0000 C   0  0  0  0  0  0  0  0  0  0  0  0
    7.8665  -11.9208    0.0000 C   0  0  0  0  0  0  0  0  0  0  0  0
    8.1186  -11.1353    0.0000 N   0  0  0  0  0  0  0  0  0  0  0  0
    7.5644  -10.5242    0.0000 C   0  0  0  0  0  0  0  0  0  0  0  0
    6.5059  -11.4841    0.0000 C   0  0  0  0  0  0  0  0  0  0  0  0
    6.7580  -10.6986    0.0000 C   0  0  0  0  0  0  0  0  0  0  0  0
 15  1  1  0  0  0  0
  4  2  1  0  0  0  0
  6  3  1  0  0  0  0
  8  4  1  0  0  0  0
  9  5  1  0  0  0  0
 10  6  1  0  0  0  0
  7 12  1  0  0  0  0
  8  7  2  0  0  0  0
  9  8  1  0  0  0  0
 10  9  2  0  0  0  0
 11 10  1  0  0  0  0
 12 11  2  0  0  0  0
 13 12  1  0  0  0  0
 14 13  2  0  0  0  0
 23 14  1  0  0  0  0
 23 15  1  6  0  0  0
 16 21  1  0  0  0  0
 17 16  2  0  0  0  0
 18 17  1  0  0  0  0
 19 18  2  0  0  0  0
 22 19  1  0  0  0  0
 20 29  1  0  0  0  0
 21 20  1  0  0  0  0
 22 21  2  0  0  0  0
 28 22  1  0  0  0  0
 27 23  1  0  0  0  0
 24 28  1  0  0  0  0
 25 24  2  0  0  0  0
 26 25  1  0  0  0  0
 27 26  2  0  0  0  0
 29 27  1  0  0  0  0
 29 28  2  0  0  0  0
M  END
>  <cdx:fragmentId>
5

$$$$
