97029.cdx
  Mrv1902 05222410182D          

 34 39  0  0  0  0            999 V2000
   11.1968   -6.2214    0.0000 C   0  0  0  0  0  0  0  0  0  0  0  0
   11.0185   -5.4159    0.0000 C   0  0  0  0  0  0  0  0  0  0  0  0
   10.2317   -5.1676    0.0000 C   0  0  0  0  0  0  0  0  0  0  0  0
    9.6233   -5.7248    0.0000 C   0  0  0  0  0  0  0  0  0  0  0  0
    4.6076  -10.7471    0.0000 C   0  0  0  0  0  0  0  0  0  0  0  0
    4.0652  -11.3687    0.0000 C   0  0  0  0  0  0  0  0  0  0  0  0
    4.3323  -12.1493    0.0000 C   0  0  0  0  0  0  0  0  0  0  0  0
    5.1419  -12.3082    0.0000 C   0  0  0  0  0  0  0  0  0  0  0  0
   10.5884   -6.7786    0.0000 C   0  0  0  0  0  0  0  0  0  0  0  0
    9.8016   -6.5303    0.0000 C   0  0  0  0  0  0  0  0  0  0  0  0
    9.3223   -7.2017    0.0000 N   0  0  0  0  0  0  0  0  0  0  0  0
    6.0770  -10.4108    0.0000 N   0  0  0  0  0  0  0  0  0  0  0  0
    5.4171  -10.9061    0.0000 C   0  0  0  0  0  0  0  0  0  0  0  0
    5.6843  -11.6866    0.0000 C   0  0  0  0  0  0  0  0  0  0  0  0
   10.2658   -9.2203    0.0000 N   0  0  0  0  0  0  0  0  0  0  0  0
   11.0483   -8.9588    0.0000 C   0  0  0  0  0  0  0  0  0  0  0  0
   11.2130   -8.1504    0.0000 C   0  0  0  0  0  0  0  0  0  0  0  0
   10.5953   -7.6035    0.0000 C   0  0  0  0  0  0  0  0  0  0  0  0
    9.8129   -7.8651    0.0000 C   0  0  0  0  0  0  0  0  0  0  0  0
    9.6481   -8.6735    0.0000 C   0  0  0  0  0  0  0  0  0  0  0  0
    9.9687  -10.1489    0.0000 C   0  0  0  0  0  0  0  0  0  0  0  0
    8.8456   -8.9401    0.0000 C   0  0  0  0  0  0  0  0  0  0  0  0
    9.1645  -10.3330    0.0000 O   0  0  0  0  0  0  0  0  0  0  0  0
    7.2372   -9.3083    0.0000 O   0  0  0  0  0  0  0  0  0  0  0  0
    8.6029   -9.7286    0.0000 C   0  0  2  0  0  0  0  0  0  0  0  0
    7.7987   -9.9127    0.0000 C   0  0  0  0  0  0  0  0  0  0  0  0
    6.0238  -13.2508    0.0000 C   0  0  0  0  0  0  0  0  0  0  0  0
    6.8280  -13.0667    0.0000 O   0  0  0  0  0  0  0  0  0  0  0  0
    7.0707  -12.2782    0.0000 C   0  0  0  0  0  0  0  0  0  0  0  0
    7.8749  -12.0941    0.0000 C   0  0  0  0  0  0  0  0  0  0  0  0
    8.1176  -11.3056    0.0000 N   0  0  0  0  0  0  0  0  0  0  0  0
    7.5561  -10.7012    0.0000 C   0  0  0  0  0  0  0  0  0  0  0  0
    6.5092  -11.6738    0.0000 C   0  0  0  0  0  0  0  0  0  0  0  0
    6.7519  -10.8853    0.0000 C   0  0  0  0  0  0  0  0  0  0  0  0
 22 20  1  0  0  0  0
  1  9  1  0  0  0  0
  2  1  2  0  0  0  0
  3  2  1  0  0  0  0
  4  3  2  0  0  0  0
 10  4  1  0  0  0  0
  5 13  1  0  0  0  0
  6  5  2  0  0  0  0
  7  6  1  0  0  0  0
  8  7  2  0  0  0  0
 14  8  1  0  0  0  0
  9 18  1  0  0  0  0
 10  9  2  0  0  0  0
 11 10  1  0  0  0  0
 19 11  1  0  0  0  0
 12 34  1  0  0  0  0
 13 12  1  0  0  0  0
 14 13  2  0  0  0  0
 33 14  1  0  0  0  0
 15 20  1  0  0  0  0
 16 15  2  0  0  0  0
 17 16  1  0  0  0  0
 18 17  2  0  0  0  0
 19 18  1  0  0  0  0
 20 19  2  0  0  0  0
 23 21  1  0  0  0  0
 25 22  1  0  0  0  0
 25 23  1  6  0  0  0
 26 24  2  0  0  0  0
 26 25  1  0  0  0  0
 32 26  1  0  0  0  0
 28 27  1  0  0  0  0
 29 28  1  0  0  0  0
 29 33  1  0  0  0  0
 30 29  2  0  0  0  0
 31 30  1  0  0  0  0
 32 31  2  0  0  0  0
 34 32  1  0  0  0  0
 34 33  2  0  0  0  0
M  END
>  <cdx:fragmentId>
5

$$$$
