970264.cdx
  Mrv1902 05222410262D          

 75 81  0  0  0  0            999 V2000
    5.9109   -8.4161    0.0000 C   0  0  0  0  0  0  0  0  0  0  0  0
    5.9109   -9.2411    0.0000 C   0  0  0  0  0  0  0  0  0  0  0  0
    6.6254   -9.6536    0.0000 C   0  0  0  0  0  0  0  0  0  0  0  0
    7.3398   -9.2411    0.0000 C   0  0  0  0  0  0  0  0  0  0  0  0
    7.3398   -8.4161    0.0000 C   0  0  0  0  0  0  0  0  0  0  0  0
    6.6254   -8.0036    0.0000 C   0  0  0  0  0  0  0  0  0  0  0  0
    8.1244   -9.4960    0.0000 N   0  0  0  0  0  0  0  0  0  0  0  0
    8.6094   -8.8286    0.0000 C   0  0  0  0  0  0  0  0  0  0  0  0
    8.1244   -8.1612    0.0000 C   0  0  0  0  0  0  0  0  0  0  0  0
    9.4481   -9.4751    0.0000 N   0  0  0  0  0  0  0  0  0  0  0  0
    9.7921  -10.2249    0.0000 C   0  0  0  0  0  0  0  0  0  0  0  0
   10.6116  -10.1295    0.0000 C   0  0  0  0  0  0  0  0  0  0  0  0
   10.7740   -9.3206    0.0000 N   0  0  0  0  0  0  0  0  0  0  0  0
   10.0550   -8.9162    0.0000 C   0  0  0  0  0  0  0  0  0  0  0  0
   11.2308  -10.6746    0.0000 C   0  0  0  0  0  0  0  0  0  0  0  0
   12.2464  -10.4659    0.0000 C   0  0  0  0  0  0  0  0  0  0  0  0
   12.5031   -9.7461    0.0000 N   0  0  0  0  0  0  0  0  0  0  0  0
    5.1964   -9.6536    0.0000 C   0  0  2  0  0  0  0  0  0  0  0  0
    4.4819   -9.2411    0.0000 C   0  0  1  0  0  0  0  0  0  0  0  0
    4.0694   -8.5266    0.0000 C   0  0  0  0  0  0  0  0  0  0  0  0
    4.0694   -7.7016    0.0000 N   0  0  0  0  0  0  0  0  0  0  0  0
    3.2725   -8.7402    0.0000 O   0  0  0  0  0  0  0  0  0  0  0  0
    4.4819   -6.9872    0.0000 C   0  0  2  0  0  0  0  0  0  0  0  0
    5.1964   -6.5747    0.0000 C   0  0  0  0  0  0  0  0  0  0  0  0
    5.9109   -6.9872    0.0000 N   0  0  0  0  0  0  0  0  0  0  0  0
    6.6254   -6.5747    0.0000 C   0  0  2  0  0  0  0  0  0  0  0  0
    7.3398   -6.9872    0.0000 C   0  0  0  0  0  0  0  0  0  0  0  0
    8.0543   -6.5747    0.0000 N   0  0  0  0  0  0  0  0  0  0  0  0
    8.6450   -6.8359    0.0000 C   0  0  1  0  0  0  0  0  0  0  0  0
    7.3398   -7.8122    0.0000 O   0  0  0  0  0  0  0  0  0  0  0  0
    5.1964   -5.7497    0.0000 O   0  0  0  0  0  0  0  0  0  0  0  0
    6.6254   -5.7497    0.0000 C   0  0  0  0  0  0  0  0  0  0  0  0
    5.9109   -5.3372    0.0000 C   0  0  0  0  0  0  0  0  0  0  0  0
    7.3398   -5.3372    0.0000 C   0  0  0  0  0  0  0  0  0  0  0  0
    3.8986   -6.4038    0.0000 C   0  0  0  0  0  0  0  0  0  0  0  0
    4.1121   -5.6069    0.0000 C   0  0  0  0  0  0  0  0  0  0  0  0
    3.5287   -5.0235    0.0000 C   0  0  0  0  0  0  0  0  0  0  0  0
    5.1964  -10.4786    0.0000 C   0  0  0  0  0  0  0  0  0  0  0  0
    5.9109  -10.8911    0.0000 C   0  0  0  0  0  0  0  0  0  0  0  0
    4.4819  -10.8911    0.0000 C   0  0  0  0  0  0  0  0  0  0  0  0
    8.1244   -7.3362    0.0000 C   0  0  0  0  0  0  0  0  0  0  0  0
    9.4282   -7.1248    0.0000 C   0  0  0  0  0  0  0  0  0  0  0  0
   10.0602   -6.8909    0.0000 N   0  0  0  0  0  0  0  0  0  0  0  0
    9.4145   -7.9228    0.0000 O   0  0  0  0  0  0  0  0  0  0  0  0
   12.8267  -11.0523    0.0000 C   0  0  0  0  0  0  0  0  0  0  0  0
   13.6247  -10.8429    0.0000 O   0  0  0  0  0  0  0  0  0  0  0  0
   12.6090  -11.8480    0.0000 O   0  0  0  0  0  0  0  0  0  0  0  0
    3.8986   -9.8245    0.0000 N   0  0  0  0  0  0  0  0  0  0  0  0
    3.1017  -10.0380    0.0000 C   0  0  0  0  0  0  0  0  0  0  0  0
    3.1017  -10.8630    0.0000 O   0  0  0  0  0  0  0  0  0  0  0  0
    2.3048   -9.8245    0.0000 C   0  0  1  0  0  0  0  0  0  0  0  0
    2.0091   -9.0543    0.0000 N   0  0  0  0  0  0  0  0  0  0  0  0
    1.1853   -9.0974    0.0000 C   0  0  0  0  0  0  0  0  0  0  0  0
    0.9717   -9.8943    0.0000 C   0  0  0  0  0  0  0  0  0  0  0  0
    1.6636  -10.3437    0.0000 C   0  0  0  0  0  0  0  0  0  0  0  0
    0.6661   -8.4563    0.0000 O   0  0  0  0  0  0  0  0  0  0  0  0
    8.6450   -6.0109    0.0000 H   0  0  0  0  0  0  0  0  0  0  0  0
    4.9090   -5.3934    0.0000 C   0  0  0  0  0  0  0  0  0  0  0  0
   10.8807   -6.8052    0.0000 C   0  0  1  0  0  0  0  0  0  0  0  0
   11.0528   -5.9984    0.0000 C   0  0  0  0  0  0  0  0  0  0  0  0
   10.3387   -5.5854    0.0000 C   0  0  0  0  0  0  0  0  0  0  0  0
    9.7252   -6.1370    0.0000 C   0  0  0  0  0  0  0  0  0  0  0  0
   11.6776   -7.0188    0.0000 C   0  0  0  0  0  0  0  0  0  0  0  0
   12.0461   -9.0593    0.0000 C   0  0  0  0  0  0  0  0  0  0  0  0
   12.4124   -8.3713    0.0000 C   0  0  1  0  0  0  0  0  0  0  0  0
   11.2229   -9.0038    0.0000 O   0  0  0  0  0  0  0  0  0  0  0  0
   12.2610   -6.4354    0.0000 O   0  0  0  0  0  0  0  0  0  0  0  0
   11.8911   -7.8157    0.0000 N   0  0  0  0  0  0  0  0  0  0  0  0
   13.2302   -8.2626    0.0000 C   0  0  0  0  0  0  0  0  0  0  0  0
   13.6427   -7.5482    0.0000 C   0  0  0  0  0  0  0  0  0  0  0  0
   14.4677   -7.5482    0.0000 C   0  0  0  0  0  0  0  0  0  0  0  0
   14.8802   -6.8337    0.0000 N   0  0  0  0  0  0  0  0  0  0  0  0
   15.7052   -6.8337    0.0000 C   0  0  0  0  0  0  0  0  0  0  0  0
   16.1177   -6.1192    0.0000 N   0  0  0  0  0  0  0  0  0  0  0  0
   16.1177   -7.5482    0.0000 N   0  0  0  0  0  0  0  0  0  0  0  0
  1  2  2  0  0  0  0
  2  3  1  0  0  0  0
  3  4  2  0  0  0  0
  4  5  1  0  0  0  0
  5  6  2  0  0  0  0
  6  1  1  0  0  0  0
  4  7  1  0  0  0  0
  7  8  1  0  0  0  0
  8  9  2  0  0  0  0
  9  5  1  0  0  0  0
  8 10  1  0  0  0  0
 10 11  1  0  0  0  0
 11 12  2  0  0  0  0
 12 13  1  0  0  0  0
 13 14  2  0  0  0  0
 14 10  1  0  0  0  0
 12 15  1  0  0  0  0
 16 15  1  6  0  0  0
 16 17  1  0  0  0  0
  2 18  1  0  0  0  0
 18 19  1  0  0  0  0
 19 20  1  0  0  0  0
 20 21  1  0  0  0  0
 20 22  2  0  0  0  0
 21 23  1  0  0  0  0
 23 24  1  0  0  0  0
 24 25  1  0  0  0  0
 25 26  1  0  0  0  0
 26 27  1  0  0  0  0
 27 28  1  0  0  0  0
 28 29  1  0  0  0  0
 27 30  2  0  0  0  0
 24 31  2  0  0  0  0
 26 32  1  1  0  0  0
 32 33  1  0  0  0  0
 32 34  1  0  0  0  0
 23 35  1  1  0  0  0
 35 36  1  0  0  0  0
 36 37  1  0  0  0  0
 18 38  1  1  0  0  0
 38 39  1  0  0  0  0
 38 40  1  0  0  0  0
  9 41  1  0  0  0  0
 41 29  1  0  0  0  0
 29 42  1  6  0  0  0
 42 43  1  0  0  0  0
 42 44  2  0  0  0  0
 16 45  1  1  0  0  0
 45 46  2  0  0  0  0
 45 47  1  0  0  0  0
 19 48  1  6  0  0  0
 48 49  1  0  0  0  0
 49 50  2  0  0  0  0
 49 51  1  0  0  0  0
 51 52  1  6  0  0  0
 52 53  1  0  0  0  0
 53 54  1  0  0  0  0
 54 55  1  0  0  0  0
 55 51  1  0  0  0  0
 53 56  2  0  0  0  0
 29 57  1  1  0  0  0
 36 58  1  0  0  0  0
 43 59  1  0  0  0  0
 59 60  1  1  0  0  0
 60 61  1  0  0  0  0
 61 62  1  0  0  0  0
 62 43  1  0  0  0  0
 59 63  1  0  0  0  0
 17 64  1  0  0  0  0
 64 65  1  0  0  0  0
 64 66  2  0  0  0  0
 63 67  2  0  0  0  0
 63 68  1  0  0  0  0
 68 65  1  0  0  0  0
 65 69  1  1  0  0  0
 69 70  1  0  0  0  0
 70 71  1  0  0  0  0
 71 72  1  0  0  0  0
 72 73  1  0  0  0  0
 73 74  1  0  0  0  0
 73 75  2  0  0  0  0
M  END
>  <cdx:fragmentId>
5

$$$$
