97022.cdx
  Mrv1902 05222410272D          

 37 42  0  0  0  0            999 V2000
    4.4403   -9.3876    0.0000 O   0  0  0  0  0  0  0  0  0  0  0  0
    7.6202   -4.3351    0.0000 C   0  0  0  0  0  0  0  0  0  0  0  0
    6.8670   -3.9985    0.0000 C   0  0  0  0  0  0  0  0  0  0  0  0
    6.1989   -4.4825    0.0000 C   0  0  0  0  0  0  0  0  0  0  0  0
    6.2839   -5.3031    0.0000 C   0  0  0  0  0  0  0  0  0  0  0  0
    4.6941  -10.1726    0.0000 C   0  0  0  0  0  0  0  0  0  0  0  0
    4.1412  -10.7849    0.0000 C   0  0  0  0  0  0  0  0  0  0  0  0
    4.3950  -11.5699    0.0000 C   0  0  0  0  0  0  0  0  0  0  0  0
    5.2017  -11.7426    0.0000 C   0  0  0  0  0  0  0  0  0  0  0  0
    7.7053   -5.1557    0.0000 C   0  0  0  0  0  0  0  0  0  0  0  0
    7.0371   -5.6397    0.0000 C   0  0  0  0  0  0  0  0  0  0  0  0
    7.2910   -6.4247    0.0000 N   0  0  0  0  0  0  0  0  0  0  0  0
    6.1689   -9.8613    0.0000 N   0  0  0  0  0  0  0  0  0  0  0  0
    5.5008  -10.3453    0.0000 C   0  0  0  0  0  0  0  0  0  0  0  0
    5.7546  -11.1303    0.0000 C   0  0  0  0  0  0  0  0  0  0  0  0
    9.4743   -6.8694    0.0000 N   0  0  0  0  0  0  0  0  0  0  0  0
    9.7304   -6.0851    0.0000 C   0  0  0  0  0  0  0  0  0  0  0  0
    9.1792   -5.4712    0.0000 C   0  0  0  0  0  0  0  0  0  0  0  0
    8.3720   -5.6416    0.0000 C   0  0  0  0  0  0  0  0  0  0  0  0
    8.1160   -6.4259    0.0000 C   0  0  0  0  0  0  0  0  0  0  0  0
    7.6039   -7.9944    0.0000 O   0  0  0  0  0  0  0  0  0  0  0  0
    8.6671   -7.0398    0.0000 C   0  0  0  0  0  0  0  0  0  0  0  0
    8.4111   -7.8240    0.0000 C   0  0  0  0  0  0  0  0  0  0  0  0
   10.0645   -9.6656    0.0000 C   0  0  0  0  0  0  0  0  0  0  0  0
    8.9622   -8.4379    0.0000 C   0  0  0  0  0  0  0  0  0  0  0  0
    9.2573   -9.8360    0.0000 O   0  0  0  0  0  0  0  0  0  0  0  0
    7.3478   -8.7786    0.0000 O   0  0  0  0  0  0  0  0  0  0  0  0
    8.7062   -9.2221    0.0000 C   0  0  2  0  0  0  0  0  0  0  0  0
    7.8990   -9.3925    0.0000 C   0  0  0  0  0  0  0  0  0  0  0  0
    6.0675  -12.6999    0.0000 C   0  0  0  0  0  0  0  0  0  0  0  0
    6.8747  -12.5296    0.0000 O   0  0  0  0  0  0  0  0  0  0  0  0
    7.1308  -11.7453    0.0000 C   0  0  0  0  0  0  0  0  0  0  0  0
    7.9380  -11.5749    0.0000 C   0  0  0  0  0  0  0  0  0  0  0  0
    8.1941  -10.7907    0.0000 N   0  0  0  0  0  0  0  0  0  0  0  0
    7.6429  -10.1768    0.0000 C   0  0  0  0  0  0  0  0  0  0  0  0
    6.5796  -11.1314    0.0000 C   0  0  0  0  0  0  0  0  0  0  0  0
    6.8357  -10.3472    0.0000 C   0  0  0  0  0  0  0  0  0  0  0  0
  6  1  1  0  0  0  0
  2 10  1  0  0  0  0
  3  2  2  0  0  0  0
  4  3  1  0  0  0  0
  5  4  2  0  0  0  0
 11  5  1  0  0  0  0
  6 14  1  0  0  0  0
  7  6  2  0  0  0  0
  8  7  1  0  0  0  0
  9  8  2  0  0  0  0
 15  9  1  0  0  0  0
 10 19  1  0  0  0  0
 11 10  2  0  0  0  0
 12 11  1  0  0  0  0
 20 12  1  0  0  0  0
 13 37  1  0  0  0  0
 14 13  1  0  0  0  0
 15 14  2  0  0  0  0
 36 15  1  0  0  0  0
 16 22  1  0  0  0  0
 17 16  2  0  0  0  0
 18 17  1  0  0  0  0
 19 18  2  0  0  0  0
 20 19  1  0  0  0  0
 22 20  2  0  0  0  0
 23 21  2  0  0  0  0
 23 22  1  0  0  0  0
 25 23  1  0  0  0  0
 26 24  1  0  0  0  0
 28 25  1  0  0  0  0
 28 26  1  6  0  0  0
 29 27  2  0  0  0  0
 29 28  1  0  0  0  0
 35 29  1  0  0  0  0
 31 30  1  0  0  0  0
 32 31  1  0  0  0  0
 32 36  1  0  0  0  0
 33 32  2  0  0  0  0
 34 33  1  0  0  0  0
 35 34  2  0  0  0  0
 37 35  1  0  0  0  0
 37 36  2  0  0  0  0
M  END
>  <cdx:fragmentId>
5

$$$$
