97028.cdx
  Mrv1902 05222410182D          

 34 39  0  0  0  0            999 V2000
   11.2516   -6.2879    0.0000 C   0  0  0  0  0  0  0  0  0  0  0  0
   11.0883   -5.4792    0.0000 C   0  0  0  0  0  0  0  0  0  0  0  0
   10.3063   -5.2164    0.0000 C   0  0  0  0  0  0  0  0  0  0  0  0
    9.6876   -5.7621    0.0000 C   0  0  0  0  0  0  0  0  0  0  0  0
    4.5795  -10.6905    0.0000 C   0  0  0  0  0  0  0  0  0  0  0  0
    4.0257  -11.3020    0.0000 C   0  0  0  0  0  0  0  0  0  0  0  0
    4.2783  -12.0874    0.0000 C   0  0  0  0  0  0  0  0  0  0  0  0
    5.0847  -12.2613    0.0000 C   0  0  0  0  0  0  0  0  0  0  0  0
   10.6329   -6.8337    0.0000 C   0  0  0  0  0  0  0  0  0  0  0  0
    9.8509   -6.5708    0.0000 C   0  0  0  0  0  0  0  0  0  0  0  0
    9.3593   -7.2333    0.0000 N   0  0  0  0  0  0  0  0  0  0  0  0
    6.0549  -10.3815    0.0000 N   0  0  0  0  0  0  0  0  0  0  0  0
    5.3860  -10.8645    0.0000 C   0  0  0  0  0  0  0  0  0  0  0  0
    5.6386  -11.6498    0.0000 C   0  0  0  0  0  0  0  0  0  0  0  0
   10.2652   -9.2690    0.0000 N   0  0  0  0  0  0  0  0  0  0  0  0
   11.0523   -9.0221    0.0000 C   0  0  0  0  0  0  0  0  0  0  0  0
   11.2320   -8.2169    0.0000 C   0  0  0  0  0  0  0  0  0  0  0  0
   10.6246   -7.6587    0.0000 C   0  0  0  0  0  0  0  0  0  0  0  0
    9.8374   -7.9056    0.0000 C   0  0  0  0  0  0  0  0  0  0  0  0
    9.6577   -8.7108    0.0000 C   0  0  0  0  0  0  0  0  0  0  0  0
    9.9508  -10.1920    0.0000 C   0  0  0  0  0  0  0  0  0  0  0  0
    8.8504   -8.9625    0.0000 C   0  0  0  0  0  0  0  0  0  0  0  0
    9.1433  -10.3611    0.0000 O   0  0  0  0  0  0  0  0  0  0  0  0
    7.2354   -9.3007    0.0000 O   0  0  0  0  0  0  0  0  0  0  0  0
    8.5931   -9.7464    0.0000 C   0  0  1  0  0  0  0  0  0  0  0  0
    7.7856   -9.9155    0.0000 C   0  0  0  0  0  0  0  0  0  0  0  0
    5.9490  -13.2200    0.0000 C   0  0  0  0  0  0  0  0  0  0  0  0
    6.7565  -13.0509    0.0000 O   0  0  0  0  0  0  0  0  0  0  0  0
    7.0138  -12.2670    0.0000 C   0  0  0  0  0  0  0  0  0  0  0  0
    7.8213  -12.0979    0.0000 C   0  0  0  0  0  0  0  0  0  0  0  0
    8.0785  -11.3141    0.0000 N   0  0  0  0  0  0  0  0  0  0  0  0
    7.5283  -10.6993    0.0000 C   0  0  0  0  0  0  0  0  0  0  0  0
    6.4636  -11.6523    0.0000 C   0  0  0  0  0  0  0  0  0  0  0  0
    6.7209  -10.8684    0.0000 C   0  0  0  0  0  0  0  0  0  0  0  0
 22 20  1  0  0  0  0
  1  9  1  0  0  0  0
  2  1  2  0  0  0  0
  3  2  1  0  0  0  0
  4  3  2  0  0  0  0
 10  4  1  0  0  0  0
  5 13  1  0  0  0  0
  6  5  2  0  0  0  0
  7  6  1  0  0  0  0
  8  7  2  0  0  0  0
 14  8  1  0  0  0  0
  9 18  1  0  0  0  0
 10  9  2  0  0  0  0
 11 10  1  0  0  0  0
 19 11  1  0  0  0  0
 12 34  1  0  0  0  0
 13 12  1  0  0  0  0
 14 13  2  0  0  0  0
 33 14  1  0  0  0  0
 15 20  1  0  0  0  0
 16 15  2  0  0  0  0
 17 16  1  0  0  0  0
 18 17  2  0  0  0  0
 19 18  1  0  0  0  0
 20 19  2  0  0  0  0
 23 21  1  0  0  0  0
 25 22  1  0  0  0  0
 25 23  1  1  0  0  0
 26 24  2  0  0  0  0
 26 25  1  0  0  0  0
 32 26  1  0  0  0  0
 28 27  1  0  0  0  0
 29 28  1  0  0  0  0
 29 33  1  0  0  0  0
 30 29  2  0  0  0  0
 31 30  1  0  0  0  0
 32 31  2  0  0  0  0
 34 32  1  0  0  0  0
 34 33  2  0  0  0  0
M  END
>  <cdx:fragmentId>
5

$$$$
