97031.cdx
  Mrv1902 05222410282D          

 51 58  0  0  0  0            999 V2000
    5.3812   -7.7550    0.0000 C   0  0  0  0  0  0  0  0  0  0  0  0
    5.3812   -8.5800    0.0000 C   0  0  0  0  0  0  0  0  0  0  0  0
    6.0956   -8.9925    0.0000 C   0  0  0  0  0  0  0  0  0  0  0  0
    6.8101   -8.5800    0.0000 C   0  0  0  0  0  0  0  0  0  0  0  0
    6.8101   -7.7550    0.0000 C   0  0  0  0  0  0  0  0  0  0  0  0
    6.0956   -7.3425    0.0000 C   0  0  0  0  0  0  0  0  0  0  0  0
    7.5246   -8.9925    0.0000 C   0  0  2  0  0  0  0  0  0  0  0  0
    8.2391   -8.5800    0.0000 C   0  0  2  0  0  0  0  0  0  0  0  0
    8.2391   -7.7550    0.0000 C   0  0  0  0  0  0  0  0  0  0  0  0
    7.5246   -7.3425    0.0000 O   0  0  0  0  0  0  0  0  0  0  0  0
    8.9535   -8.9925    0.0000 C   0  0  1  0  0  0  0  0  0  0  0  0
    9.6680   -8.5800    0.0000 C   0  0  0  0  0  0  0  0  0  0  0  0
    9.6680   -7.7550    0.0000 C   0  0  0  0  0  0  0  0  0  0  0  0
    8.9535   -7.3425    0.0000 O   0  0  0  0  0  0  0  0  0  0  0  0
   10.3825   -8.9925    0.0000 C   0  0  0  0  0  0  0  0  0  0  0  0
   11.0969   -8.5800    0.0000 C   0  0  0  0  0  0  0  0  0  0  0  0
   11.0969   -7.7550    0.0000 C   0  0  0  0  0  0  0  0  0  0  0  0
   10.3825   -7.3425    0.0000 C   0  0  0  0  0  0  0  0  0  0  0  0
    7.5246   -9.8175    0.0000 C   0  0  0  0  0  0  0  0  0  0  0  0
    8.2391  -10.2300    0.0000 C   0  0  0  0  0  0  0  0  0  0  0  0
    8.9535   -9.8175    0.0000 C   0  0  0  0  0  0  0  0  0  0  0  0
    6.8101   -5.2800    0.0000 C   0  0  0  0  0  0  0  0  0  0  0  0
    6.8101   -4.4550    0.0000 C   0  0  0  0  0  0  0  0  0  0  0  0
    7.5246   -4.0425    0.0000 O   0  0  0  0  0  0  0  0  0  0  0  0
    6.0957   -3.2175    0.0000 C   0  0  0  0  0  0  0  0  0  0  0  0
    5.3812   -4.4550    0.0000 C   0  0  0  0  0  0  0  0  0  0  0  0
    6.8101   -6.9300    0.0000 O   0  0  0  0  0  0  0  0  0  0  0  0
    1.2985   -6.3505    0.0000 O   0  0  0  0  0  0  0  0  0  0  0  0
    3.3610   -5.6360    0.0000 C   0  0  0  0  0  0  0  0  0  0  0  0
    2.5360   -5.6360    0.0000 C   0  0  0  0  0  0  0  0  0  0  0  0
    2.1235   -6.3505    0.0000 C   0  0  0  0  0  0  0  0  0  0  0  0
    2.5360   -7.0650    0.0000 C   0  0  0  0  0  0  0  0  0  0  0  0
    4.5805   -6.5220    0.0000 C   0  0  0  0  0  0  0  0  0  0  0  0
    3.7735   -6.3505    0.0000 C   0  0  0  0  0  0  0  0  0  0  0  0
    3.3610   -7.0650    0.0000 C   0  0  0  0  0  0  0  0  0  0  0  0
    3.9130   -7.6781    0.0000 O   0  0  0  0  0  0  0  0  0  0  0  0
    4.6667   -7.3425    0.0000 C   0  0  0  0  0  0  0  0  0  0  0  0
    6.0956   -9.8175    0.0000 O   0  0  0  0  0  0  0  0  0  0  0  0
    8.2391  -11.0550    0.0000 C   0  0  0  0  0  0  0  0  0  0  0  0
    6.0957   -4.0425    0.0000 C   0  0  0  0  0  0  0  0  0  0  0  0
    8.2391   -4.4550    0.0000 O   0  0  0  0  0  0  0  0  0  0  0  0
   11.8114   -7.3425    0.0000 O   0  0  0  0  0  0  0  0  0  0  0  0
    7.5246   -8.1675    0.0000 H   0  0  0  0  0  0  0  0  0  0  0  0
    8.2391   -9.4050    0.0000 H   0  0  0  0  0  0  0  0  0  0  0  0
    8.9535   -8.1675    0.0000 H   0  0  0  0  0  0  0  0  0  0  0  0
    8.9535   -6.5175    0.0000 C   0  0  0  0  0  0  0  0  0  0  0  0
    8.9535   -5.6925    0.0000 C   0  0  0  0  0  0  0  0  0  0  0  0
    8.2391   -5.2800    0.0000 C   0  0  0  0  0  0  0  0  0  0  0  0
    7.5246   -5.6925    0.0000 C   0  0  0  0  0  0  0  0  0  0  0  0
    7.5246   -6.5175    0.0000 C   0  0  0  0  0  0  0  0  0  0  0  0
    8.2391   -6.9300    0.0000 C   0  0  0  0  0  0  0  0  0  0  0  0
  1  2  1  0  0  0  0
  2  3  2  0  0  0  0
  3  4  1  0  0  0  0
  4  5  2  0  0  0  0
  5  6  1  0  0  0  0
  6  1  2  0  0  0  0
  4  7  1  0  0  0  0
  7  8  1  0  0  0  0
  8  9  1  0  0  0  0
  9 10  1  0  0  0  0
 10  5  1  0  0  0  0
  8 11  1  0  0  0  0
 11 12  1  0  0  0  0
 12 13  2  0  0  0  0
 13 14  1  0  0  0  0
 14  9  1  0  0  0  0
 12 15  1  0  0  0  0
 15 16  2  0  0  0  0
 16 17  1  0  0  0  0
 17 18  2  0  0  0  0
 18 13  1  0  0  0  0
  7 19  1  0  0  0  0
 19 20  2  0  0  0  0
 20 21  1  0  0  0  0
 21 11  1  0  0  0  0
  9 51  1  0  0  0  0
 22 23  1  0  0  0  0
 40 25  1  0  0  0  0
 23 40  1  0  0  0  0
 23 24  1  0  0  0  0
 40 26  2  0  0  0  0
 50 27  1  0  0  0  0
 31 28  1  0  0  0  0
  1 37  1  0  0  0  0
 29 34  1  0  0  0  0
 30 29  2  0  0  0  0
 31 30  1  0  0  0  0
 32 31  2  0  0  0  0
 35 32  1  0  0  0  0
 33 37  2  0  0  0  0
 34 33  1  0  0  0  0
 35 34  2  0  0  0  0
 36 35  1  0  0  0  0
 37 36  1  0  0  0  0
  3 38  1  0  0  0  0
 20 39  1  0  0  0  0
 49 22  1  0  0  0  0
 48 41  1  0  0  0  0
 46 51  1  0  0  0  0
 47 46  2  0  0  0  0
 17 42  1  0  0  0  0
  7 43  1  1  0  0  0
  8 44  1  1  0  0  0
 11 45  1  6  0  0  0
 48 47  1  0  0  0  0
 49 48  2  0  0  0  0
 50 49  1  0  0  0  0
 51 50  2  0  0  0  0
M  END
>  <cdx:fragmentId>
5

$$$$
