97032.cdx
  Mrv1902 05222410272D          

 33 38  0  0  0  0            999 V2000
    6.5351  -11.6644    0.0000 C   0  0  0  0  0  0  0  0  0  0  0  0
    7.3320  -11.4509    0.0000 O   0  0  0  0  0  0  0  0  0  0  0  0
    4.8922   -8.3131    0.0000 O   0  0  0  0  0  0  0  0  0  0  0  0
    8.9749   -3.7473    0.0000 C   0  0  0  0  0  0  0  0  0  0  0  0
    8.7197   -2.9628    0.0000 C   0  0  0  0  0  0  0  0  0  0  0  0
    7.9127   -2.7915    0.0000 C   0  0  0  0  0  0  0  0  0  0  0  0
    7.3608   -3.4047    0.0000 C   0  0  0  0  0  0  0  0  0  0  0  0
    8.5095   -5.1811    0.0000 N   0  0  0  0  0  0  0  0  0  0  0  0
    8.4230   -4.3606    0.0000 C   0  0  0  0  0  0  0  0  0  0  0  0
    7.6160   -4.1893    0.0000 C   0  0  0  0  0  0  0  0  0  0  0  0
    7.7559   -5.5168    0.0000 C   0  0  0  0  0  0  0  0  0  0  0  0
    7.2037   -4.9039    0.0000 C   0  0  0  0  0  0  0  0  0  0  0  0
    6.3968   -5.0756    0.0000 C   0  0  0  0  0  0  0  0  0  0  0  0
    6.1420   -5.8603    0.0000 C   0  0  0  0  0  0  0  0  0  0  0  0
    6.6942   -6.4733    0.0000 N   0  0  0  0  0  0  0  0  0  0  0  0
    8.8603   -6.7427    0.0000 O   0  0  0  0  0  0  0  0  0  0  0  0
    7.5012   -6.3015    0.0000 C   0  0  0  0  0  0  0  0  0  0  0  0
    8.0534   -6.9145    0.0000 C   0  0  0  0  0  0  0  0  0  0  0  0
    7.7987   -7.6991    0.0000 C   0  0  0  0  0  0  0  0  0  0  0  0
    8.3509   -8.3121    0.0000 C   0  0  0  0  0  0  0  0  0  0  0  0
    7.5867  -10.6662    0.0000 C   0  0  0  0  0  0  0  0  0  0  0  0
    8.3936  -10.4944    0.0000 C   0  0  0  0  0  0  0  0  0  0  0  0
    8.6484   -9.7097    0.0000 N   0  0  0  0  0  0  0  0  0  0  0  0
    8.0961   -9.0968    0.0000 C   0  0  0  0  0  0  0  0  0  0  0  0
    5.1473   -9.0976    0.0000 C   0  0  0  0  0  0  0  0  0  0  0  0
    4.5955   -9.7109    0.0000 C   0  0  0  0  0  0  0  0  0  0  0  0
    4.8506  -10.4954    0.0000 C   0  0  0  0  0  0  0  0  0  0  0  0
    5.6576  -10.6667    0.0000 C   0  0  0  0  0  0  0  0  0  0  0  0
    7.0345  -10.0532    0.0000 C   0  0  0  0  0  0  0  0  0  0  0  0
    7.2892   -9.2685    0.0000 C   0  0  0  0  0  0  0  0  0  0  0  0
    6.6216   -8.7838    0.0000 N   0  0  0  0  0  0  0  0  0  0  0  0
    5.9543   -9.2689    0.0000 C   0  0  0  0  0  0  0  0  0  0  0  0
    6.2095  -10.0535    0.0000 C   0  0  0  0  0  0  0  0  0  0  0  0
  2  1  1  0  0  0  0
 21  2  1  0  0  0  0
 25  3  1  0  0  0  0
  4  9  1  0  0  0  0
  5  4  2  0  0  0  0
  6  5  1  0  0  0  0
  7  6  2  0  0  0  0
 10  7  1  0  0  0  0
  8 11  1  0  0  0  0
  9  8  1  0  0  0  0
 10  9  2  0  0  0  0
 12 10  1  0  0  0  0
 11 17  1  0  0  0  0
 12 11  2  0  0  0  0
 13 12  1  0  0  0  0
 14 13  2  0  0  0  0
 15 14  1  0  0  0  0
 17 15  2  0  0  0  0
 18 16  2  0  0  0  0
 18 17  1  0  0  0  0
 19 18  1  0  0  0  0
 20 19  1  0  0  0  0
 24 20  1  0  0  0  0
 21 29  1  0  0  0  0
 22 21  2  0  0  0  0
 23 22  1  0  0  0  0
 24 23  2  0  0  0  0
 30 24  1  0  0  0  0
 25 32  1  0  0  0  0
 26 25  2  0  0  0  0
 27 26  1  0  0  0  0
 28 27  2  0  0  0  0
 33 28  1  0  0  0  0
 29 33  1  0  0  0  0
 30 29  2  0  0  0  0
 31 30  1  0  0  0  0
 32 31  1  0  0  0  0
 33 32  2  0  0  0  0
M  END
>  <cdx:fragmentId>
5

$$$$
