97033.cdx
  Mrv1902 05222410272D          

 36 41  0  0  0  0            999 V2000
    4.8766   -9.3580    0.0000 C   0  0  0  0  0  0  0  0  0  0  0  0
    4.3298   -9.9758    0.0000 O   0  0  0  0  0  0  0  0  0  0  0  0
   11.2126   -6.2794    0.0000 C   0  0  0  0  0  0  0  0  0  0  0  0
   11.0400   -5.4727    0.0000 C   0  0  0  0  0  0  0  0  0  0  0  0
   10.2550   -5.2188    0.0000 C   0  0  0  0  0  0  0  0  0  0  0  0
    9.6427   -5.7716    0.0000 C   0  0  0  0  0  0  0  0  0  0  0  0
    4.5914  -10.7582    0.0000 C   0  0  0  0  0  0  0  0  0  0  0  0
    4.0445  -11.3759    0.0000 C   0  0  0  0  0  0  0  0  0  0  0  0
    4.3061  -12.1584    0.0000 C   0  0  0  0  0  0  0  0  0  0  0  0
    5.1145  -12.3231    0.0000 C   0  0  0  0  0  0  0  0  0  0  0  0
   10.6002   -6.8323    0.0000 C   0  0  0  0  0  0  0  0  0  0  0  0
    9.8152   -6.5784    0.0000 C   0  0  0  0  0  0  0  0  0  0  0  0
    9.3312   -7.2464    0.0000 N   0  0  0  0  0  0  0  0  0  0  0  0
    6.0631  -10.4323    0.0000 N   0  0  0  0  0  0  0  0  0  0  0  0
    5.3998  -10.9229    0.0000 C   0  0  0  0  0  0  0  0  0  0  0  0
    5.6613  -11.7053    0.0000 C   0  0  0  0  0  0  0  0  0  0  0  0
   10.2603   -9.2717    0.0000 N   0  0  0  0  0  0  0  0  0  0  0  0
   11.0446   -9.0157    0.0000 C   0  0  0  0  0  0  0  0  0  0  0  0
   11.2151   -8.2085    0.0000 C   0  0  0  0  0  0  0  0  0  0  0  0
   10.6013   -7.6573    0.0000 C   0  0  0  0  0  0  0  0  0  0  0  0
    9.8170   -7.9132    0.0000 C   0  0  0  0  0  0  0  0  0  0  0  0
    9.6465   -8.7204    0.0000 C   0  0  0  0  0  0  0  0  0  0  0  0
    9.9566  -10.1981    0.0000 C   0  0  0  0  0  0  0  0  0  0  0  0
    8.8421   -8.9813    0.0000 C   0  0  0  0  0  0  0  0  0  0  0  0
    9.1511  -10.3765    0.0000 O   0  0  0  0  0  0  0  0  0  0  0  0
    7.2312   -9.3381    0.0000 O   0  0  0  0  0  0  0  0  0  0  0  0
    8.5939   -9.7681    0.0000 C   0  0  1  0  0  0  0  0  0  0  0  0
    7.7884   -9.9465    0.0000 C   0  0  0  0  0  0  0  0  0  0  0  0
    5.9897  -13.2718    0.0000 C   0  0  0  0  0  0  0  0  0  0  0  0
    6.7952  -13.0935    0.0000 O   0  0  0  0  0  0  0  0  0  0  0  0
    7.0435  -12.3067    0.0000 C   0  0  0  0  0  0  0  0  0  0  0  0
    7.8490  -12.1284    0.0000 C   0  0  0  0  0  0  0  0  0  0  0  0
    8.0973  -11.3416    0.0000 N   0  0  0  0  0  0  0  0  0  0  0  0
    7.5401  -10.7332    0.0000 C   0  0  0  0  0  0  0  0  0  0  0  0
    6.4863  -11.6983    0.0000 C   0  0  0  0  0  0  0  0  0  0  0  0
    6.7346  -10.9116    0.0000 C   0  0  0  0  0  0  0  0  0  0  0  0
  2  1  1  0  0  0  0
  7  2  1  0  0  0  0
 24 22  1  0  0  0  0
  3 11  1  0  0  0  0
  4  3  2  0  0  0  0
  5  4  1  0  0  0  0
  6  5  2  0  0  0  0
 12  6  1  0  0  0  0
  7 15  1  0  0  0  0
  8  7  2  0  0  0  0
  9  8  1  0  0  0  0
 10  9  2  0  0  0  0
 16 10  1  0  0  0  0
 11 20  1  0  0  0  0
 12 11  2  0  0  0  0
 13 12  1  0  0  0  0
 21 13  1  0  0  0  0
 14 36  1  0  0  0  0
 15 14  1  0  0  0  0
 16 15  2  0  0  0  0
 35 16  1  0  0  0  0
 17 22  1  0  0  0  0
 18 17  2  0  0  0  0
 19 18  1  0  0  0  0
 20 19  2  0  0  0  0
 21 20  1  0  0  0  0
 22 21  2  0  0  0  0
 25 23  1  0  0  0  0
 27 24  1  0  0  0  0
 27 25  1  1  0  0  0
 28 26  2  0  0  0  0
 28 27  1  0  0  0  0
 34 28  1  0  0  0  0
 30 29  1  0  0  0  0
 31 30  1  0  0  0  0
 31 35  1  0  0  0  0
 32 31  2  0  0  0  0
 33 32  1  0  0  0  0
 34 33  2  0  0  0  0
 36 34  1  0  0  0  0
 36 35  2  0  0  0  0
M  END
>  <cdx:fragmentId>
5

$$$$
