97034.cdx
  Mrv1902 05222410262D          

 36 41  0  0  0  0            999 V2000
   11.5316   -6.3938    0.0000 C   0  0  0  0  0  0  0  0  0  0  0  0
   11.3855   -5.5819    0.0000 C   0  0  0  0  0  0  0  0  0  0  0  0
   10.6093   -5.3024    0.0000 C   0  0  0  0  0  0  0  0  0  0  0  0
    9.9792   -5.8350    0.0000 C   0  0  0  0  0  0  0  0  0  0  0  0
    4.7675  -10.6537    0.0000 C   0  0  0  0  0  0  0  0  0  0  0  0
    4.2008  -11.2532    0.0000 C   0  0  0  0  0  0  0  0  0  0  0  0
    4.4367  -12.0438    0.0000 C   0  0  0  0  0  0  0  0  0  0  0  0
    5.2392  -12.2348    0.0000 C   0  0  0  0  0  0  0  0  0  0  0  0
   10.9015   -6.9264    0.0000 C   0  0  0  0  0  0  0  0  0  0  0  0
   10.1253   -6.6469    0.0000 C   0  0  0  0  0  0  0  0  0  0  0  0
    9.6196   -7.2988    0.0000 N   0  0  0  0  0  0  0  0  0  0  0  0
    6.2491  -10.3761    0.0000 N   0  0  0  0  0  0  0  0  0  0  0  0
    5.5701  -10.8447    0.0000 C   0  0  0  0  0  0  0  0  0  0  0  0
    5.8060  -11.6353    0.0000 C   0  0  0  0  0  0  0  0  0  0  0  0
   10.4821   -9.3533    0.0000 N   0  0  0  0  0  0  0  0  0  0  0  0
   11.2743   -9.1231    0.0000 C   0  0  0  0  0  0  0  0  0  0  0  0
   11.4711   -8.3220    0.0000 C   0  0  0  0  0  0  0  0  0  0  0  0
   10.8756   -7.7509    0.0000 C   0  0  0  0  0  0  0  0  0  0  0  0
   10.0834   -7.9811    0.0000 C   0  0  0  0  0  0  0  0  0  0  0  0
    9.8866   -8.7823    0.0000 C   0  0  0  0  0  0  0  0  0  0  0  0
   10.1482  -10.2694    0.0000 C   0  0  0  0  0  0  0  0  0  0  0  0
    9.0741   -9.0168    0.0000 C   0  0  0  0  0  0  0  0  0  0  0  0
    9.3373  -10.4213    0.0000 O   0  0  0  0  0  0  0  0  0  0  0  0
    7.4523   -9.3206    0.0000 O   0  0  0  0  0  0  0  0  0  0  0  0
    8.8003   -9.7950    0.0000 C   0  0  2  0  0  0  0  0  0  0  0  0
    7.9894   -9.9469    0.0000 C   0  0  0  0  0  0  0  0  0  0  0  0
    6.0830  -13.2117    0.0000 C   0  0  0  0  0  0  0  0  0  0  0  0
    6.8939  -13.0598    0.0000 O   0  0  0  0  0  0  0  0  0  0  0  0
    7.1677  -12.2816    0.0000 C   0  0  0  0  0  0  0  0  0  0  0  0
    7.9786  -12.1296    0.0000 C   0  0  0  0  0  0  0  0  0  0  0  0
    8.2525  -11.3514    0.0000 N   0  0  0  0  0  0  0  0  0  0  0  0
    7.7155  -10.7251    0.0000 C   0  0  0  0  0  0  0  0  0  0  0  0
    6.6307  -11.6553    0.0000 C   0  0  0  0  0  0  0  0  0  0  0  0
    6.9046  -10.8771    0.0000 C   0  0  0  0  0  0  0  0  0  0  0  0
    4.5317   -9.8631    0.0000 O   0  0  0  0  0  0  0  0  0  0  0  0
    5.0984   -9.2636    0.0000 C   0  0  0  0  0  0  0  0  0  0  0  0
 22 20  1  0  0  0  0
  1  9  1  0  0  0  0
  2  1  2  0  0  0  0
  3  2  1  0  0  0  0
  4  3  2  0  0  0  0
 10  4  1  0  0  0  0
  5 13  1  0  0  0  0
  6  5  2  0  0  0  0
  7  6  1  0  0  0  0
  8  7  2  0  0  0  0
 14  8  1  0  0  0  0
  9 18  1  0  0  0  0
 10  9  2  0  0  0  0
 11 10  1  0  0  0  0
 19 11  1  0  0  0  0
 12 34  1  0  0  0  0
 13 12  1  0  0  0  0
 14 13  2  0  0  0  0
 33 14  1  0  0  0  0
 15 20  1  0  0  0  0
 16 15  2  0  0  0  0
 17 16  1  0  0  0  0
 18 17  2  0  0  0  0
 19 18  1  0  0  0  0
 20 19  2  0  0  0  0
 23 21  1  0  0  0  0
 25 22  1  0  0  0  0
 25 23  1  6  0  0  0
 26 24  2  0  0  0  0
 26 25  1  0  0  0  0
 32 26  1  0  0  0  0
 28 27  1  0  0  0  0
 29 28  1  0  0  0  0
 29 33  1  0  0  0  0
 30 29  2  0  0  0  0
 31 30  1  0  0  0  0
 32 31  2  0  0  0  0
 34 32  1  0  0  0  0
 34 33  2  0  0  0  0
  5 35  1  0  0  0  0
 35 36  1  0  0  0  0
M  END
>  <cdx:fragmentId>
5

$$$$
