970337.cdx
  Mrv1902 05222410192D          

 59 65  0  0  0  0            999 V2000
    2.4023   -7.6792    0.0000 C   0  0  2  0  0  0  0  0  0  0  0  0
    1.6886   -8.0930    0.0000 C   0  0  2  0  0  0  0  0  0  0  0  0
    1.6902   -8.9180    0.0000 C   0  0  1  0  0  0  0  0  0  0  0  0
    2.4055   -9.3291    0.0000 C   0  0  2  0  0  0  0  0  0  0  0  0
    3.1192   -8.9153    0.0000 C   0  0  1  0  0  0  0  0  0  0  0  0
    3.1176   -8.0903    0.0000 O   0  0  0  0  0  0  0  0  0  0  0  0
    3.8313   -7.6764    0.0000 O   0  0  0  0  0  0  0  0  0  0  0  0
    3.1144   -6.4403    0.0000 O   0  0  0  0  0  0  0  0  0  0  0  0
    2.4008   -6.8542    0.0000 C   0  0  0  0  0  0  0  0  0  0  0  0
    3.8344   -9.3264    0.0000 O   0  0  0  0  0  0  0  0  0  0  0  0
    4.5481   -8.9126    0.0000 C   0  0  1  0  0  0  0  0  0  0  0  0
    4.5465   -8.0876    0.0000 C   0  0  2  0  0  0  0  0  0  0  0  0
    5.2633   -9.3237    0.0000 C   0  0  2  0  0  0  0  0  0  0  0  0
    5.9770   -8.9099    0.0000 C   0  0  1  0  0  0  0  0  0  0  0  0
    5.9755   -8.0849    0.0000 O   0  0  0  0  0  0  0  0  0  0  0  0
    5.2602   -7.6737    0.0000 C   0  0  2  0  0  0  0  0  0  0  0  0
    6.6923   -9.3210    0.0000 O   0  0  0  0  0  0  0  0  0  0  0  0
    7.4060   -8.9071    0.0000 C   0  0  1  0  0  0  0  0  0  0  0  0
    7.4044   -8.0821    0.0000 C   0  0  0  0  0  0  0  0  0  0  0  0
    8.1212   -9.3183    0.0000 C   0  0  2  0  0  0  0  0  0  0  0  0
    8.8349   -8.9044    0.0000 C   0  0  1  0  0  0  0  0  0  0  0  0
    8.8333   -8.0794    0.0000 C   0  0  2  0  0  0  0  0  0  0  0  0
    8.1181   -7.6683    0.0000 C   0  0  0  0  0  0  0  0  0  0  0  0
    9.5502   -9.3156    0.0000 C   0  0  0  0  0  0  0  0  0  0  0  0
   10.2638   -8.9017    0.0000 C   0  0  0  0  0  0  0  0  0  0  0  0
   10.2623   -8.0767    0.0000 C   0  0  2  0  0  0  0  0  0  0  0  0
    9.5470   -7.6656    0.0000 C   0  0  2  0  0  0  0  0  0  0  0  0
   10.9760   -7.6628    0.0000 C   0  0  1  0  0  0  0  0  0  0  0  0
   10.9744   -6.8378    0.0000 C   0  0  0  0  0  0  0  0  0  0  0  0
   10.2591   -6.4267    0.0000 C   0  0  0  0  0  0  0  0  0  0  0  0
    9.5455   -6.8406    0.0000 C   0  0  0  0  0  0  0  0  0  0  0  0
   11.6912   -8.0740    0.0000 C   0  0  0  0  0  0  0  0  0  0  0  0
   12.4049   -7.6601    0.0000 C   0  0  1  0  0  0  0  0  0  0  0  0
   12.4033   -6.8351    0.0000 C   0  0  2  0  0  0  0  0  0  0  0  0
   11.6881   -6.4240    0.0000 C   0  0  1  0  0  0  0  0  0  0  0  0
   13.1170   -6.4213    0.0000 C   0  0  0  0  0  0  0  0  0  0  0  0
   13.1154   -5.5963    0.0000 C   0  0  0  0  0  0  0  0  0  0  0  0
   12.4002   -5.1851    0.0000 C   0  0  1  0  0  0  0  0  0  0  0  0
   11.6865   -5.5990    0.0000 C   0  0  0  0  0  0  0  0  0  0  0  0
   11.9863   -4.4714    0.0000 C   0  0  0  0  0  0  0  0  0  0  0  0
   12.8113   -4.4699    0.0000 C   0  0  0  0  0  0  0  0  0  0  0  0
   13.1202   -8.0713    0.0000 O   0  0  0  0  0  0  0  0  0  0  0  0
   13.1186   -7.2463    0.0000 C   0  0  0  0  0  0  0  0  0  0  0  0
   13.8323   -6.8324    0.0000 O   0  0  0  0  0  0  0  0  0  0  0  0
    8.5351  -10.0320    0.0000 C   0  0  0  0  0  0  0  0  0  0  0  0
    0.9765   -9.3319    0.0000 O   0  0  0  0  0  0  0  0  0  0  0  0
    5.2586   -6.8487    0.0000 C   0  0  0  0  0  0  0  0  0  0  0  0
    7.7101  -10.0335    0.0000 C   0  0  0  0  0  0  0  0  0  0  0  0
    8.8318   -7.2544    0.0000 C   0  0  0  0  0  0  0  0  0  0  0  0
    5.2649  -10.1487    0.0000 O   0  0  0  0  0  0  0  0  0  0  0  0
    0.9734   -7.6819    0.0000 O   0  0  0  0  0  0  0  0  0  0  0  0
    2.4070  -10.1541    0.0000 O   0  0  0  0  0  0  0  0  0  0  0  0
    8.8302   -6.4294    0.0000 O   0  0  0  0  0  0  0  0  0  0  0  0
    8.1226  -10.7464    0.0000 O   0  0  0  0  0  0  0  0  0  0  0  0
   10.2623   -7.2517    0.0000 C   0  0  0  0  0  0  0  0  0  0  0  0
   10.9760   -8.4878    0.0000 C   0  0  0  0  0  0  0  0  0  0  0  0
    8.8349   -9.7294    0.0000 H   0  0  0  0  0  0  0  0  0  0  0  0
    9.5470   -8.4906    0.0000 H   0  0  0  0  0  0  0  0  0  0  0  0
   11.6881   -7.2490    0.0000 H   0  0  0  0  0  0  0  0  0  0  0  0
  1  2  1  0  0  0  0
  2  3  1  0  0  0  0
  3  4  1  0  0  0  0
  4  5  1  0  0  0  0
  5  6  1  0  0  0  0
  6  1  1  0  0  0  0
  8  9  1  0  0  0  0
  1  9  1  1  0  0  0
  5 10  1  1  0  0  0
 11 10  1  1  0  0  0
 11 12  1  0  0  0  0
 12  7  1  1  0  0  0
 11 13  1  0  0  0  0
 13 14  1  0  0  0  0
 14 15  1  0  0  0  0
 15 16  1  0  0  0  0
 16 12  1  0  0  0  0
 14 17  1  1  0  0  0
 18 17  1  1  0  0  0
 18 19  1  0  0  0  0
 18 20  1  0  0  0  0
 20 21  1  0  0  0  0
 21 22  1  0  0  0  0
 22 23  1  0  0  0  0
 23 19  1  0  0  0  0
 21 24  1  0  0  0  0
 24 25  1  0  0  0  0
 25 26  1  0  0  0  0
 26 27  1  0  0  0  0
 27 22  1  0  0  0  0
 26 28  1  0  0  0  0
 28 29  1  0  0  0  0
 29 30  2  0  0  0  0
 30 31  1  0  0  0  0
 31 27  1  0  0  0  0
 28 32  1  0  0  0  0
 32 33  1  0  0  0  0
 33 34  1  0  0  0  0
 34 35  1  0  0  0  0
 35 29  1  0  0  0  0
 34 36  1  0  0  0  0
 36 37  1  0  0  0  0
 37 38  1  0  0  0  0
 38 39  1  0  0  0  0
 39 35  1  0  0  0  0
 38 40  1  1  0  0  0
 38 41  1  6  0  0  0
 33 42  1  1  0  0  0
 34 43  1  1  0  0  0
 43 44  1  0  0  0  0
 20 45  1  6  0  0  0
  3 46  1  1  0  0  0
 16 47  1  1  0  0  0
 20 48  1  1  0  0  0
 22 49  1  1  0  0  0
 13 50  1  6  0  0  0
  2 51  1  6  0  0  0
  4 52  1  6  0  0  0
 31 53  2  0  0  0  0
 45 54  1  0  0  0  0
 26 55  1  1  0  0  0
 28 56  1  6  0  0  0
 21 57  1  6  0  0  0
 27 58  1  6  0  0  0
 35 59  1  1  0  0  0
M  END
>  <cdx:fragmentId>
5

$$$$
