97036.cdx
  Mrv1902 05222410272D          

 32 37  0  0  0  0            999 V2000
   11.2883   -6.3297    0.0000 C   0  0  0  0  0  0  0  0  0  0  0  0
   11.1359   -5.5189    0.0000 C   0  0  0  0  0  0  0  0  0  0  0  0
   10.3575   -5.2455    0.0000 C   0  0  0  0  0  0  0  0  0  0  0  0
    9.7316   -5.7829    0.0000 C   0  0  0  0  0  0  0  0  0  0  0  0
    4.5574  -10.6418    0.0000 C   0  0  0  0  0  0  0  0  0  0  0  0
    3.9953  -11.2457    0.0000 C   0  0  0  0  0  0  0  0  0  0  0  0
    4.2373  -12.0344    0.0000 C   0  0  0  0  0  0  0  0  0  0  0  0
    5.0413  -12.2192    0.0000 C   0  0  0  0  0  0  0  0  0  0  0  0
   10.6623   -6.8671    0.0000 C   0  0  0  0  0  0  0  0  0  0  0  0
    9.8840   -6.5937    0.0000 C   0  0  0  0  0  0  0  0  0  0  0  0
    9.3834   -7.2494    0.0000 N   0  0  0  0  0  0  0  0  0  0  0  0
    6.0368  -10.3528    0.0000 N   0  0  0  0  0  0  0  0  0  0  0  0
    5.3614  -10.8266    0.0000 C   0  0  0  0  0  0  0  0  0  0  0  0
    5.6034  -11.6153    0.0000 C   0  0  0  0  0  0  0  0  0  0  0  0
   10.2617   -9.2972    0.0000 N   0  0  0  0  0  0  0  0  0  0  0  0
   11.0521   -9.0609    0.0000 C   0  0  0  0  0  0  0  0  0  0  0  0
   11.2427   -8.2582    0.0000 C   0  0  0  0  0  0  0  0  0  0  0  0
   10.6428   -7.6919    0.0000 C   0  0  0  0  0  0  0  0  0  0  0  0
    9.8524   -7.9282    0.0000 C   0  0  0  0  0  0  0  0  0  0  0  0
    9.6618   -8.7309    0.0000 C   0  0  0  0  0  0  0  0  0  0  0  0
    8.8512   -8.9716    0.0000 C   0  0  0  0  0  0  0  0  0  0  0  0
    7.2318   -9.2880    0.0000 O   0  0  0  0  0  0  0  0  0  0  0  0
    8.5833   -9.7519    0.0000 C   0  0  0  0  0  0  0  0  0  0  0  0
    7.7736   -9.9101    0.0000 C   0  0  0  0  0  0  0  0  0  0  0  0
    5.8926  -13.1896    0.0000 C   0  0  0  0  0  0  0  0  0  0  0  0
    6.7023  -13.0314    0.0000 O   0  0  0  0  0  0  0  0  0  0  0  0
    6.9701  -12.2511    0.0000 C   0  0  0  0  0  0  0  0  0  0  0  0
    7.7798  -12.0929    0.0000 C   0  0  0  0  0  0  0  0  0  0  0  0
    8.0476  -11.3125    0.0000 N   0  0  0  0  0  0  0  0  0  0  0  0
    7.5058  -10.6904    0.0000 C   0  0  0  0  0  0  0  0  0  0  0  0
    6.4283  -11.6289    0.0000 C   0  0  0  0  0  0  0  0  0  0  0  0
    6.6961  -10.8486    0.0000 C   0  0  0  0  0  0  0  0  0  0  0  0
 21 20  1  0  0  0  0
  1  9  1  0  0  0  0
  2  1  2  0  0  0  0
  3  2  1  0  0  0  0
  4  3  2  0  0  0  0
 10  4  1  0  0  0  0
  5 13  1  0  0  0  0
  6  5  2  0  0  0  0
  7  6  1  0  0  0  0
  8  7  2  0  0  0  0
 14  8  1  0  0  0  0
  9 18  1  0  0  0  0
 10  9  2  0  0  0  0
 11 10  1  0  0  0  0
 19 11  1  0  0  0  0
 12 32  1  0  0  0  0
 13 12  1  0  0  0  0
 14 13  2  0  0  0  0
 31 14  1  0  0  0  0
 15 20  1  0  0  0  0
 16 15  2  0  0  0  0
 17 16  1  0  0  0  0
 18 17  2  0  0  0  0
 19 18  1  0  0  0  0
 20 19  2  0  0  0  0
 23 21  2  0  0  0  0
 24 22  2  0  0  0  0
 24 23  1  0  0  0  0
 30 24  1  0  0  0  0
 26 25  1  0  0  0  0
 27 26  1  0  0  0  0
 27 31  1  0  0  0  0
 28 27  2  0  0  0  0
 29 28  1  0  0  0  0
 30 29  2  0  0  0  0
 32 30  1  0  0  0  0
 32 31  2  0  0  0  0
M  END
>  <cdx:fragmentId>
5

$$$$
