97042.cdx
  Mrv1902 05222410242D          

 82 89  0  0  0  0            999 V2000
   16.9288   -4.9060    0.0000 O   0  0  0  0  0  0  0  0  0  0  0  0
   16.9278   -5.7278    0.0000 C   0  0  0  0  0  0  0  0  0  0  0  0
   16.2317   -6.9757    0.0000 O   0  0  0  0  0  0  0  0  0  0  0  0
   16.2195   -6.1508    0.0000 C   0  0  1  0  0  0  0  0  0  0  0  0
   15.4991   -5.7489    0.0000 C   0  0  2  0  0  0  0  0  0  0  0  0
   14.7907   -6.1718    0.0000 C   0  0  1  0  0  0  0  0  0  0  0  0
   14.8029   -6.9968    0.0000 C   0  0  2  0  0  0  0  0  0  0  0  0
   15.5234   -7.3987    0.0000 C   0  0  2  0  0  0  0  0  0  0  0  0
   14.0946   -7.4197    0.0000 O   0  0  0  0  0  0  0  0  0  0  0  0
   14.0703   -5.7699    0.0000 O   0  0  0  0  0  0  0  0  0  0  0  0
   15.4869   -4.9240    0.0000 O   0  0  0  0  0  0  0  0  0  0  0  0
   15.5511   -8.2232    0.0000 O   0  0  0  0  0  0  0  0  0  0  0  0
   16.1179   -8.8072    0.0000 C   0  0  2  0  0  0  0  0  0  0  0  0
   12.2204  -10.6718    0.0000 C   0  0  0  0  0  0  0  0  0  0  0  0
   11.5060  -11.0843    0.0000 C   0  0  0  0  0  0  0  0  0  0  0  0
   11.5060  -11.9093    0.0000 C   0  0  1  0  0  0  0  0  0  0  0  0
   12.2204  -12.3218    0.0000 C   0  0  0  0  0  0  0  0  0  0  0  0
   12.9349  -11.9093    0.0000 C   0  0  2  0  0  0  0  0  0  0  0  0
   13.6494  -12.3218    0.0000 C   0  0  0  0  0  0  0  0  0  0  0  0
   14.3638  -11.9093    0.0000 C   0  0  0  0  0  0  0  0  0  0  0  0
   14.3638  -11.0843    0.0000 C   0  0  1  0  0  0  0  0  0  0  0  0
   15.0783  -10.6718    0.0000 C   0  0  2  0  0  0  0  0  0  0  0  0
   15.8629  -10.9267    0.0000 C   0  0  0  0  0  0  0  0  0  0  0  0
   16.3479  -10.2593    0.0000 C   0  0  0  0  0  0  0  0  0  0  0  0
   15.8629   -9.5919    0.0000 C   0  0  1  0  0  0  0  0  0  0  0  0
   15.0783   -9.8468    0.0000 C   0  0  1  0  0  0  0  0  0  0  0  0
   14.3638   -9.4343    0.0000 C   0  0  1  0  0  0  0  0  0  0  0  0
   13.6494   -9.8468    0.0000 C   0  0  0  0  0  0  0  0  0  0  0  0
   13.6494  -10.6718    0.0000 C   0  0  2  0  0  0  0  0  0  0  0  0
   12.9349  -11.0843    0.0000 C   0  0  1  0  0  0  0  0  0  0  0  0
   15.0783  -11.4968    0.0000 C   0  0  0  0  0  0  0  0  0  0  0  0
   12.9349  -10.2593    0.0000 C   0  0  0  0  0  0  0  0  0  0  0  0
   14.3638  -10.2593    0.0000 C   0  0  0  0  0  0  0  0  0  0  0  0
   12.6329  -13.0363    0.0000 C   0  0  0  0  0  0  0  0  0  0  0  0
   11.8079  -13.0363    0.0000 C   0  0  0  0  0  0  0  0  0  0  0  0
   14.3638   -8.6093    0.0000 O   0  0  0  0  0  0  0  0  0  0  0  0
   10.7915  -12.3218    0.0000 O   0  0  0  0  0  0  0  0  0  0  0  0
   12.9349  -12.7343    0.0000 H   0  0  0  0  0  0  0  0  0  0  0  0
   13.6494  -11.4968    0.0000 H   0  0  0  0  0  0  0  0  0  0  0  0
   15.1646   -9.0263    0.0000 H   0  0  0  0  0  0  0  0  0  0  0  0
   16.6778   -9.4628    0.0000 H   0  0  0  0  0  0  0  0  0  0  0  0
   16.9249   -8.6357    0.0000 C   0  0  0  0  0  0  0  0  0  0  0  0
   17.4769   -9.2488    0.0000 C   0  0  0  0  0  0  0  0  0  0  0  0
   18.2839   -9.0773    0.0000 C   0  0  0  0  0  0  0  0  0  0  0  0
   18.8359   -9.6904    0.0000 C   0  0  0  0  0  0  0  0  0  0  0  0
   19.6429   -9.5189    0.0000 C   0  0  0  0  0  0  0  0  0  0  0  0
   18.5810  -10.4750    0.0000 C   0  0  0  0  0  0  0  0  0  0  0  0
   16.3728   -8.0226    0.0000 C   0  0  0  0  0  0  0  0  0  0  0  0
    9.3880  -10.6529    0.0000 C   0  0  2  0  0  0  0  0  0  0  0  0
    8.6655  -11.0512    0.0000 C   0  0  2  0  0  0  0  0  0  0  0  0
    8.6491  -11.8760    0.0000 C   0  0  1  0  0  0  0  0  0  0  0  0
    9.3553  -12.3025    0.0000 C   0  0  2  0  0  0  0  0  0  0  0  0
   10.0778  -11.9043    0.0000 C   0  0  1  0  0  0  0  0  0  0  0  0
   10.0941  -11.0794    0.0000 O   0  0  0  0  0  0  0  0  0  0  0  0
    9.4043   -9.8280    0.0000 C   0  0  0  0  0  0  0  0  0  0  0  0
    7.9267  -12.2743    0.0000 O   0  0  0  0  0  0  0  0  0  0  0  0
    7.9593  -10.6246    0.0000 O   0  0  0  0  0  0  0  0  0  0  0  0
    9.3390  -13.1274    0.0000 O   0  0  0  0  0  0  0  0  0  0  0  0
    8.6981   -9.4015    0.0000 O   0  0  0  0  0  0  0  0  0  0  0  0
    7.1915  -13.5047    0.0000 C   0  0  2  0  0  0  0  0  0  0  0  0
    7.1779  -14.3296    0.0000 C   0  0  2  0  0  0  0  0  0  0  0  0
    7.8855  -14.7538    0.0000 C   0  0  1  0  0  0  0  0  0  0  0  0
    8.6067  -14.3531    0.0000 C   0  0  2  0  0  0  0  0  0  0  0  0
    8.6203  -13.5282    0.0000 C   0  0  1  0  0  0  0  0  0  0  0  0
    7.9127  -13.1040    0.0000 O   0  0  0  0  0  0  0  0  0  0  0  0
    6.4839  -13.0805    0.0000 C   0  0  0  0  0  0  0  0  0  0  0  0
    7.8719  -15.5787    0.0000 O   0  0  0  0  0  0  0  0  0  0  0  0
    6.4568  -14.7303    0.0000 O   0  0  0  0  0  0  0  0  0  0  0  0
    9.3143  -14.7773    0.0000 O   0  0  0  0  0  0  0  0  0  0  0  0
    5.7628  -13.4812    0.0000 O   0  0  0  0  0  0  0  0  0  0  0  0
    8.7145   -8.5766    0.0000 C   0  0  0  0  0  0  0  0  0  0  0  0
    8.0083   -8.1501    0.0000 C   0  0  0  0  0  0  0  0  0  0  0  0
    9.4369   -8.1784    0.0000 O   0  0  0  0  0  0  0  0  0  0  0  0
   17.6437   -4.4943    0.0000 C   0  0  2  0  0  0  0  0  0  0  0  0
   18.3970   -4.8307    0.0000 O   0  0  0  0  0  0  0  0  0  0  0  0
   18.9497   -4.2182    0.0000 C   0  0  2  0  0  0  0  0  0  0  0  0
   18.5380   -3.5033    0.0000 C   0  0  1  0  0  0  0  0  0  0  0  0
   17.7309   -3.6739    0.0000 C   0  0  1  0  0  0  0  0  0  0  0  0
   18.8744   -2.7500    0.0000 O   0  0  0  0  0  0  0  0  0  0  0  0
   17.1184   -3.1212    0.0000 O   0  0  0  0  0  0  0  0  0  0  0  0
   19.7701   -4.3053    0.0000 C   0  0  0  0  0  0  0  0  0  0  0  0
   20.2558   -3.6384    0.0000 O   0  0  0  0  0  0  0  0  0  0  0  0
  3  4  1  0  0  0  0
  4  5  1  0  0  0  0
  5  6  1  0  0  0  0
  6  7  1  0  0  0  0
  7  8  1  0  0  0  0
  3  8  1  0  0  0  0
  7  9  1  6  0  0  0
  6 10  1  1  0  0  0
  5 11  1  6  0  0  0
 14 15  1  0  0  0  0
 15 16  1  0  0  0  0
 16 17  1  0  0  0  0
 17 18  1  0  0  0  0
 18 19  1  0  0  0  0
 19 20  1  0  0  0  0
 20 21  1  0  0  0  0
 21 22  1  0  0  0  0
 22 23  1  0  0  0  0
 23 24  1  0  0  0  0
 25 24  1  0  0  0  0
 25 26  1  0  0  0  0
 22 26  1  0  0  0  0
 26 27  1  0  0  0  0
 27 28  1  0  0  0  0
 28 29  1  0  0  0  0
 21 29  1  0  0  0  0
 29 30  1  0  0  0  0
 18 30  1  0  0  0  0
 14 30  1  0  0  0  0
 22 31  1  6  0  0  0
 30 32  1  1  0  0  0
 21 33  1  1  0  0  0
 17 34  1  0  0  0  0
 17 35  1  0  0  0  0
 27 36  1  1  0  0  0
 16 37  1  1  0  0  0
 13 25  1  0  0  0  0
  8 12  1  1  0  0  0
  4  2  1  1  0  0  0
 18 38  1  6  0  0  0
 29 39  1  6  0  0  0
 26 40  1  1  0  0  0
 25 41  1  6  0  0  0
  1  2  1  0  0  0  0
 13 42  1  0  0  0  0
 42 43  1  0  0  0  0
 43 44  1  0  0  0  0
 44 45  2  0  0  0  0
 45 46  1  0  0  0  0
 45 47  1  0  0  0  0
 13 48  1  6  0  0  0
 13 12  1  1  0  0  0
 49 50  1  0  0  0  0
 50 51  1  0  0  0  0
 51 52  1  0  0  0  0
 52 53  1  0  0  0  0
 53 54  1  0  0  0  0
 54 49  1  0  0  0  0
 49 55  1  1  0  0  0
 51 56  1  1  0  0  0
 50 57  1  6  0  0  0
 52 58  1  6  0  0  0
 55 59  1  0  0  0  0
 60 61  1  0  0  0  0
 61 62  1  0  0  0  0
 62 63  1  0  0  0  0
 63 64  1  0  0  0  0
 64 65  1  0  0  0  0
 65 60  1  0  0  0  0
 60 66  1  1  0  0  0
 62 67  1  1  0  0  0
 61 68  1  6  0  0  0
 63 69  1  6  0  0  0
 66 70  1  0  0  0  0
 64 58  1  1  0  0  0
 59 71  1  0  0  0  0
 71 72  1  0  0  0  0
 71 73  2  0  0  0  0
 53 37  1  1  0  0  0
 74  1  1  1  0  0  0
 74 75  1  0  0  0  0
 75 76  1  0  0  0  0
 76 77  1  0  0  0  0
 77 78  1  0  0  0  0
 78 74  1  0  0  0  0
 77 79  1  1  0  0  0
 78 80  1  6  0  0  0
 76 81  1  6  0  0  0
 81 82  1  0  0  0  0
M  END
>  <cdx:fragmentId>
31943

$$$$
