97059.cdx
  Mrv1902 05222410222D          

 20 19  0  0  0  0            999 V2000
    7.1956   -8.5679    0.0000 O   0  0  0  0  0  0  0  0  0  0  0  0
    6.4812  -10.6304    0.0000 C   0  0  0  0  0  0  0  0  0  0  0  0
    9.3391  -10.6304    0.0000 C   0  0  0  0  0  0  0  0  0  0  0  0
   10.0535   -6.9179    0.0000 O   0  0  0  0  0  0  0  0  0  0  0  0
    3.6233  -10.6304    0.0000 O   0  0  0  0  0  0  0  0  0  0  0  0
   11.4825   -6.9179    0.0000 C   0  0  0  0  0  0  0  0  0  0  0  0
   10.7680   -7.3304    0.0000 C   0  0  0  0  0  0  0  0  0  0  0  0
   10.7680   -8.1554    0.0000 C   0  0  0  0  0  0  0  0  0  0  0  0
   10.0535   -8.5679    0.0000 C   0  0  0  0  0  0  0  0  0  0  0  0
   10.0535   -9.3929    0.0000 C   0  0  0  0  0  0  0  0  0  0  0  0
    9.3391   -9.8054    0.0000 C   0  0  0  0  0  0  0  0  0  0  0  0
    8.6246   -9.3929    0.0000 C   0  0  0  0  0  0  0  0  0  0  0  0
    7.9101   -9.8054    0.0000 C   0  0  0  0  0  0  0  0  0  0  0  0
    7.1956   -9.3929    0.0000 C   0  0  0  0  0  0  0  0  0  0  0  0
    6.4812   -9.8054    0.0000 C   0  0  0  0  0  0  0  0  0  0  0  0
    5.7667   -9.3929    0.0000 C   0  0  0  0  0  0  0  0  0  0  0  0
    5.0522   -9.8054    0.0000 C   0  0  0  0  0  0  0  0  0  0  0  0
    4.3378   -9.3929    0.0000 C   0  0  0  0  0  0  0  0  0  0  0  0
    3.6233   -9.8054    0.0000 C   0  0  0  0  0  0  0  0  0  0  0  0
    2.9088   -9.3929    0.0000 C   0  0  0  0  0  0  0  0  0  0  0  0
 14  1  1  0  0  0  0
 15  2  1  0  0  0  0
 11  3  1  0  0  0  0
  7  4  2  0  0  0  0
 19  5  2  0  0  0  0
  7  6  1  0  0  0  0
  8  7  1  0  0  0  0
  9  8  1  0  0  0  0
 10  9  1  0  0  0  0
 11 10  2  0  0  0  0
 12 11  1  0  0  0  0
 13 12  1  0  0  0  0
 14 13  1  0  0  0  0
 15 14  1  0  0  0  0
 16 15  2  0  0  0  0
 17 16  1  0  0  0  0
 18 17  2  0  0  0  0
 19 18  1  0  0  0  0
 20 19  1  0  0  0  0
M  END
>  <cdx:fragmentId>
5

$$$$
