97054.cdx
  Mrv1902 05222410242D          

 44 48  0  0  0  0            999 V2000
    6.2054   -7.7841    0.0000 C   0  0  0  0  0  0  0  0  0  0  0  0
    6.2054   -8.6091    0.0000 C   0  0  0  0  0  0  0  0  0  0  0  0
    5.4909   -9.0216    0.0000 C   0  0  0  0  0  0  0  0  0  0  0  0
    5.4909   -9.8466    0.0000 O   0  0  0  0  0  0  0  0  0  0  0  0
    4.7764   -8.6091    0.0000 C   0  0  0  0  0  0  0  0  0  0  0  0
    4.0620   -9.0216    0.0000 C   0  0  0  0  0  0  0  0  0  0  0  0
    4.0620   -9.8466    0.0000 O   0  0  0  0  0  0  0  0  0  0  0  0
    3.3475   -8.6091    0.0000 C   0  0  0  0  0  0  0  0  0  0  0  0
    3.3475   -7.7841    0.0000 C   0  0  0  0  0  0  0  0  0  0  0  0
    2.6330   -7.3716    0.0000 O   0  0  0  0  0  0  0  0  0  0  0  0
    4.0620   -7.3716    0.0000 C   0  0  0  0  0  0  0  0  0  0  0  0
    4.7764   -7.7841    0.0000 C   0  0  0  0  0  0  0  0  0  0  0  0
    5.4909   -7.3716    0.0000 O   0  0  0  0  0  0  0  0  0  0  0  0
    6.9199   -7.3716    0.0000 C   0  0  0  0  0  0  0  0  0  0  0  0
    7.6343   -7.7841    0.0000 C   0  0  0  0  0  0  0  0  0  0  0  0
    8.3488   -7.3716    0.0000 C   0  0  0  0  0  0  0  0  0  0  0  0
    9.0633   -7.7841    0.0000 O   0  0  0  0  0  0  0  0  0  0  0  0
    8.3488   -6.5466    0.0000 C   0  0  0  0  0  0  0  0  0  0  0  0
    9.0633   -6.1341    0.0000 O   0  0  0  0  0  0  0  0  0  0  0  0
    7.6343   -6.1341    0.0000 C   0  0  0  0  0  0  0  0  0  0  0  0
    7.6343   -5.3091    0.0000 O   0  0  0  0  0  0  0  0  0  0  0  0
    6.9199   -6.5466    0.0000 C   0  0  0  0  0  0  0  0  0  0  0  0
    6.9199   -9.0216    0.0000 O   0  0  0  0  0  0  0  0  0  0  0  0
    6.9199   -9.8466    0.0000 C   0  0  1  0  0  0  0  0  0  0  0  0
    7.6343  -10.2591    0.0000 C   0  0  1  0  0  0  0  0  0  0  0  0
    7.6343  -11.0841    0.0000 C   0  0  2  0  0  0  0  0  0  0  0  0
    8.3488  -11.4966    0.0000 O   0  0  0  0  0  0  0  0  0  0  0  0
    6.9199  -11.4966    0.0000 C   0  0  1  0  0  0  0  0  0  0  0  0
    6.9199  -12.3216    0.0000 O   0  0  0  0  0  0  0  0  0  0  0  0
    6.2054  -11.0841    0.0000 C   0  0  1  0  0  0  0  0  0  0  0  0
    6.2054  -10.2591    0.0000 O   0  0  0  0  0  0  0  0  0  0  0  0
    5.4909  -11.4966    0.0000 C   0  0  0  0  0  0  0  0  0  0  0  0
   11.9290  -10.2424    0.0000 O   0  0  0  0  0  0  0  0  0  0  0  0
   11.9218   -8.5924    0.0000 O   0  0  0  0  0  0  0  0  0  0  0  0
   10.4892   -7.7737    0.0000 O   0  0  0  0  0  0  0  0  0  0  0  0
   10.5001  -10.2487    0.0000 C   0  0  0  0  0  0  0  0  0  0  0  0
   11.2128   -9.8330    0.0000 C   0  0  0  0  0  0  0  0  0  0  0  0
   11.2091   -9.0080    0.0000 C   0  0  0  0  0  0  0  0  0  0  0  0
   10.4929   -8.5987    0.0000 C   0  0  0  0  0  0  0  0  0  0  0  0
    9.7802   -9.0143    0.0000 C   0  0  0  0  0  0  0  0  0  0  0  0
    9.0748  -11.0799    0.0000 O   0  0  0  0  0  0  0  0  0  0  0  0
    9.7838   -9.8393    0.0000 C   0  0  0  0  0  0  0  0  0  0  0  0
    9.0712  -10.2549    0.0000 C   0  0  0  0  0  0  0  0  0  0  0  0
    8.3488   -9.8466    0.0000 O   0  0  0  0  0  0  0  0  0  0  0  0
 43 44  1  0  0  0  0
  1  2  2  0  0  0  0
  2  3  1  0  0  0  0
  3  4  2  0  0  0  0
  3  5  1  0  0  0  0
  5  6  1  0  0  0  0
  6  7  1  0  0  0  0
  6  8  2  0  0  0  0
  8  9  1  0  0  0  0
  9 10  1  0  0  0  0
  9 11  2  0  0  0  0
 11 12  1  0  0  0  0
  5 12  2  0  0  0  0
 12 13  1  0  0  0  0
  1 13  1  0  0  0  0
  1 14  1  0  0  0  0
 14 15  1  0  0  0  0
 15 16  2  0  0  0  0
 16 17  1  0  0  0  0
 16 18  1  0  0  0  0
 18 19  1  0  0  0  0
 18 20  2  0  0  0  0
 20 21  1  0  0  0  0
 20 22  1  0  0  0  0
 14 22  2  0  0  0  0
 24 23  1  1  0  0  0
 24 25  1  0  0  0  0
 25 44  1  6  0  0  0
 25 26  1  0  0  0  0
 26 27  1  6  0  0  0
 26 28  1  0  0  0  0
 28 29  1  1  0  0  0
 28 30  1  0  0  0  0
 30 31  1  0  0  0  0
 30 32  1  6  0  0  0
 24 31  1  0  0  0  0
  2 23  1  0  0  0  0
 37 33  1  0  0  0  0
 38 34  1  0  0  0  0
 39 35  1  0  0  0  0
 36 42  1  0  0  0  0
 37 36  2  0  0  0  0
 38 37  1  0  0  0  0
 39 38  2  0  0  0  0
 40 39  1  0  0  0  0
 42 40  2  0  0  0  0
 43 41  2  0  0  0  0
 43 42  1  0  0  0  0
M  END
>  <cdx:fragmentId>
5

$$$$
