97052.cdx
  Mrv1902 05222410252D          

 30 32  0  0  0  0            999 V2000
    3.3462   -4.8950    0.0000 C   0  0  0  0  0  0  0  0  0  0  0  0
    3.3462   -5.7200    0.0000 C   0  0  0  0  0  0  0  0  0  0  0  0
    4.0606   -6.1325    0.0000 C   0  0  0  0  0  0  0  0  0  0  0  0
    4.7751   -5.7200    0.0000 C   0  0  0  0  0  0  0  0  0  0  0  0
    4.7751   -4.8950    0.0000 C   0  0  0  0  0  0  0  0  0  0  0  0
    4.0606   -4.4825    0.0000 C   0  0  0  0  0  0  0  0  0  0  0  0
    5.5597   -5.9749    0.0000 C   0  0  2  0  0  0  0  0  0  0  0  0
    6.0447   -5.3075    0.0000 C   0  0  0  0  0  0  0  0  0  0  0  0
    5.5597   -4.6401    0.0000 N   0  0  0  0  0  0  0  0  0  0  0  0
    6.8697   -5.3075    0.0000 O   0  0  0  0  0  0  0  0  0  0  0  0
    5.5597   -6.7999    0.0000 C   0  0  0  0  0  0  0  0  0  0  0  0
    4.9764   -7.3833    0.0000 C   0  0  0  0  0  0  0  0  0  0  0  0
    5.1899   -8.1802    0.0000 O   0  0  0  0  0  0  0  0  0  0  0  0
    4.6065   -8.7636    0.0000 C   0  0  0  0  0  0  0  0  0  0  0  0
    4.8201   -9.5604    0.0000 C   0  0  0  0  0  0  0  0  0  0  0  0
    4.2367  -10.1438    0.0000 C   0  0  0  0  0  0  0  0  0  0  0  0
    4.4502  -10.9407    0.0000 C   0  0  0  0  0  0  0  0  0  0  0  0
    4.1795   -7.1698    0.0000 O   0  0  0  0  0  0  0  0  0  0  0  0
    6.3566   -6.1885    0.0000 O   0  0  0  0  0  0  0  0  0  0  0  0
    6.7691   -6.9029    0.0000 C   0  0  2  0  0  0  0  0  0  0  0  0
    6.3566   -7.6174    0.0000 O   0  0  0  0  0  0  0  0  0  0  0  0
    6.7691   -8.3319    0.0000 C   0  0  1  0  0  0  0  0  0  0  0  0
    7.5941   -8.3319    0.0000 C   0  0  2  0  0  0  0  0  0  0  0  0
    8.0066   -7.6174    0.0000 C   0  0  1  0  0  0  0  0  0  0  0  0
    7.5941   -6.9029    0.0000 C   0  0  1  0  0  0  0  0  0  0  0  0
    6.3566   -9.0463    0.0000 C   0  0  0  0  0  0  0  0  0  0  0  0
    6.7691   -9.7608    0.0000 O   0  0  0  0  0  0  0  0  0  0  0  0
    8.8316   -7.6174    0.0000 O   0  0  0  0  0  0  0  0  0  0  0  0
    8.0066   -6.1885    0.0000 O   0  0  0  0  0  0  0  0  0  0  0  0
    8.0066   -9.0463    0.0000 O   0  0  0  0  0  0  0  0  0  0  0  0
  1  2  2  0  0  0  0
  2  3  1  0  0  0  0
  3  4  2  0  0  0  0
  4  5  1  0  0  0  0
  5  6  2  0  0  0  0
  6  1  1  0  0  0  0
  4  7  1  0  0  0  0
  7  8  1  0  0  0  0
  8  9  1  0  0  0  0
  9  5  1  0  0  0  0
  8 10  2  0  0  0  0
  7 11  1  0  0  0  0
 11 12  1  0  0  0  0
 12 13  1  0  0  0  0
 13 14  1  0  0  0  0
 14 15  1  0  0  0  0
 15 16  1  0  0  0  0
 16 17  1  0  0  0  0
 12 18  2  0  0  0  0
  7 19  1  1  0  0  0
 20 19  1  1  0  0  0
 20 21  1  0  0  0  0
 21 22  1  0  0  0  0
 22 23  1  0  0  0  0
 23 24  1  0  0  0  0
 24 25  1  0  0  0  0
 25 20  1  0  0  0  0
 22 26  1  1  0  0  0
 26 27  1  0  0  0  0
 24 28  1  1  0  0  0
 25 29  1  6  0  0  0
 23 30  1  6  0  0  0
M  END
>  <cdx:fragmentId>
5

$$$$
