970642.cdx
  Mrv1902 05222410192D          

 28 31  0  0  0  0            999 V2000
    8.9469   -8.9660    0.0000 C   0  0  0  0  0  0  0  0  0  0  0  0
    8.9581   -9.7909    0.0000 C   0  0  0  0  0  0  0  0  0  0  0  0
    8.2493  -10.2131    0.0000 O   0  0  0  0  0  0  0  0  0  0  0  0
    8.2605  -11.0380    0.0000 C   0  0  0  0  0  0  0  0  0  0  0  0
    5.2028   -9.9061    0.0000 N   0  0  0  0  0  0  0  0  0  0  0  0
    5.2256   -9.0815    0.0000 C   0  0  0  0  0  0  0  0  0  0  0  0
    6.0169   -8.8482    0.0000 C   0  0  2  0  0  0  0  0  0  0  0  0
    6.4833   -9.5288    0.0000 C   0  0  0  0  0  0  0  0  0  0  0  0
    7.3011   -9.6376    0.0000 C   0  0  0  0  0  0  0  0  0  0  0  0
    7.6157  -10.4003    0.0000 C   0  0  0  0  0  0  0  0  0  0  0  0
    7.1126  -11.0541    0.0000 C   0  0  0  0  0  0  0  0  0  0  0  0
    6.2948  -10.9453    0.0000 C   0  0  0  0  0  0  0  0  0  0  0  0
    5.9801  -10.1826    0.0000 C   0  0  0  0  0  0  0  0  0  0  0  0
    5.5230   -8.1875    0.0000 C   0  0  0  0  0  0  0  0  0  0  0  0
    5.9988   -7.5135    0.0000 C   0  0  0  0  0  0  0  0  0  0  0  0
    6.7868   -7.7577    0.0000 N   0  0  0  0  0  0  0  0  0  0  0  0
    7.4956   -7.3356    0.0000 C   0  0  0  0  0  0  0  0  0  0  0  0
    8.2156   -7.7383    0.0000 C   0  0  2  0  0  0  0  0  0  0  0  0
    8.2268   -8.5632    0.0000 C   0  0  2  0  0  0  0  0  0  0  0  0
    7.5180   -8.9854    0.0000 C   0  0  0  0  0  0  0  0  0  0  0  0
    6.7980   -8.5827    0.0000 C   0  0  1  0  0  0  0  0  0  0  0  0
    4.5718   -8.5783    0.0000 O   0  0  0  0  0  0  0  0  0  0  0  0
    8.9244   -7.3161    0.0000 C   0  0  0  0  0  0  0  0  0  0  0  0
    8.9132   -6.4912    0.0000 C   0  0  0  0  0  0  0  0  0  0  0  0
    6.8074   -9.4076    0.0000 H   0  0  0  0  0  0  0  0  0  0  0  0
   10.3757   -8.9465    0.0000 O   0  0  0  0  0  0  0  0  0  0  0  0
    9.6444   -7.7189    0.0000 O   0  0  0  0  0  0  0  0  0  0  0  0
    9.6556   -8.5438    0.0000 C   0  0  0  0  0  0  0  0  0  0  0  0
 28 26  1  0  0  0  0
 28 27  2  0  0  0  0
 28  1  1  0  0  0  0
  1  2  2  0  0  0  0
  3  4  1  0  0  0  0
  2  3  1  0  0  0  0
  5  6  1  0  0  0  0
  6  7  1  0  0  0  0
  7  8  1  0  0  0  0
  8  9  1  0  0  0  0
  9 10  2  0  0  0  0
 10 11  1  0  0  0  0
 11 12  2  0  0  0  0
 12 13  1  0  0  0  0
  5 13  1  0  0  0  0
  8 13  2  0  0  0  0
 14 15  1  0  0  0  0
 15 16  1  0  0  0  0
 16 17  1  0  0  0  0
 17 18  1  0  0  0  0
 18 19  1  0  0  0  0
 19 20  1  0  0  0  0
 20 21  1  0  0  0  0
 16 21  1  0  0  0  0
  7 14  1  1  0  0  0
  7 21  1  0  0  0  0
  6 22  2  0  0  0  0
 23 24  2  0  0  0  0
 18 23  1  1  0  0  0
 19  1  1  1  0  0  0
 21 25  1  6  0  0  0
M  END
>  <cdx:fragmentId>
39996

$$$$
