97065.cdx
  Mrv1902 05222410222D          

 18 20  0  0  0  0            999 V2000
    6.2159   -7.3844    0.0000 C   0  0  0  0  0  0  0  0  0  0  0  0
    6.4687   -8.1697    0.0000 C   0  0  0  0  0  0  0  0  0  0  0  0
    7.2937   -8.1719    0.0000 C   0  0  0  0  0  0  0  0  0  0  0  0
    7.5507   -7.3880    0.0000 C   0  0  0  0  0  0  0  0  0  0  0  0
    6.8846   -6.9013    0.0000 N   0  0  0  0  0  0  0  0  0  0  0  0
    5.4094   -7.2107    0.0000 C   0  0  0  0  0  0  0  0  0  0  0  0
    4.8557   -7.8222    0.0000 C   0  0  0  0  0  0  0  0  0  0  0  0
    5.1085   -8.6076    0.0000 C   0  0  0  0  0  0  0  0  0  0  0  0
    5.9150   -8.7813    0.0000 C   0  0  0  0  0  0  0  0  0  0  0  0
    7.8440   -8.7865    0.0000 C   0  0  0  0  0  0  0  0  0  0  0  0
    8.6515   -8.6172    0.0000 C   0  0  0  0  0  0  0  0  0  0  0  0
    8.9085   -7.8333    0.0000 N   0  0  0  0  0  0  0  0  0  0  0  0
    8.3582   -7.2187    0.0000 C   0  0  0  0  0  0  0  0  0  0  0  0
    8.6152   -6.4348    0.0000 C   0  0  0  0  0  0  0  0  0  0  0  0
    7.5869   -9.5705    0.0000 O   0  0  0  0  0  0  0  0  0  0  0  0
    6.7901   -9.7840    0.0000 C   0  0  0  0  0  0  0  0  0  0  0  0
    5.1566   -6.4253    0.0000 O   0  0  0  0  0  0  0  0  0  0  0  0
    8.0649   -5.8202    0.0000 O   0  0  0  0  0  0  0  0  0  0  0  0
  1  2  2  0  0  0  0
  2  3  1  0  0  0  0
  3  4  2  0  0  0  0
  4  5  1  0  0  0  0
  5  1  1  0  0  0  0
  1  6  1  0  0  0  0
  6  7  2  0  0  0  0
  7  8  1  0  0  0  0
  8  9  2  0  0  0  0
  9  2  1  0  0  0  0
  3 10  1  0  0  0  0
 10 11  2  0  0  0  0
 11 12  1  0  0  0  0
 12 13  2  0  0  0  0
 13  4  1  0  0  0  0
 13 14  1  0  0  0  0
 10 15  1  0  0  0  0
 15 16  1  0  0  0  0
  6 17  1  0  0  0  0
 14 18  2  0  0  0  0
M  END
>  <cdx:fragmentId>
101

$$$$
