97060.cdx
  Mrv1902 05222410212D          

 26 29  0  0  0  0            999 V2000
    3.9787   -6.2150    0.0000 C   0  0  0  0  0  0  0  0  0  0  0  0
    3.9787   -7.0400    0.0000 O   0  0  0  0  0  0  0  0  0  0  0  0
    4.6931   -7.4525    0.0000 C   0  0  0  0  0  0  0  0  0  0  0  0
    5.4076   -7.0400    0.0000 C   0  0  0  0  0  0  0  0  0  0  0  0
    5.4076   -6.2150    0.0000 C   0  0  0  0  0  0  0  0  0  0  0  0
    4.6931   -5.8025    0.0000 C   0  0  0  0  0  0  0  0  0  0  0  0
    4.6931   -8.2775    0.0000 C   0  0  0  0  0  0  0  0  0  0  0  0
    5.4076   -8.6900    0.0000 C   0  0  0  0  0  0  0  0  0  0  0  0
    6.1221   -8.2775    0.0000 C   0  0  0  0  0  0  0  0  0  0  0  0
    6.1221   -7.4525    0.0000 C   0  0  0  0  0  0  0  0  0  0  0  0
    6.8366   -8.6900    0.0000 C   0  0  0  0  0  0  0  0  0  0  0  0
    7.5510   -8.2775    0.0000 C   0  0  0  0  0  0  0  0  0  0  0  0
    7.5510   -7.4525    0.0000 C   0  0  0  0  0  0  0  0  0  0  0  0
    6.8366   -7.0400    0.0000 O   0  0  0  0  0  0  0  0  0  0  0  0
    8.2655   -7.0400    0.0000 C   0  0  0  0  0  0  0  0  0  0  0  0
    8.2655   -6.2150    0.0000 C   0  0  0  0  0  0  0  0  0  0  0  0
    8.9800   -7.4525    0.0000 C   0  0  0  0  0  0  0  0  0  0  0  0
    9.6944   -7.0400    0.0000 C   0  0  0  0  0  0  0  0  0  0  0  0
    9.6944   -6.2150    0.0000 C   0  0  0  0  0  0  0  0  0  0  0  0
    8.9800   -5.8025    0.0000 C   0  0  0  0  0  0  0  0  0  0  0  0
    4.6931   -4.9775    0.0000 O   0  0  0  0  0  0  0  0  0  0  0  0
    3.1818   -6.4285    0.0000 C   0  0  0  0  0  0  0  0  0  0  0  0
    3.5662   -5.5005    0.0000 C   0  0  0  0  0  0  0  0  0  0  0  0
    8.9800   -8.2775    0.0000 O   0  0  0  0  0  0  0  0  0  0  0  0
   10.4089   -5.8025    0.0000 O   0  0  0  0  0  0  0  0  0  0  0  0
   11.1234   -6.2150    0.0000 C   0  0  0  0  0  0  0  0  0  0  0  0
  1  2  1  0  0  0  0
  2  3  1  0  0  0  0
  3  4  2  0  0  0  0
  4  5  1  0  0  0  0
  5  6  1  0  0  0  0
  6  1  1  0  0  0  0
  3  7  1  0  0  0  0
  7  8  2  0  0  0  0
  8  9  1  0  0  0  0
  9 10  2  0  0  0  0
 10  4  1  0  0  0  0
  9 11  1  0  0  0  0
 11 12  1  0  0  0  0
 12 13  1  0  0  0  0
 13 14  1  0  0  0  0
 14 10  1  0  0  0  0
 13 15  1  0  0  0  0
 15 16  2  0  0  0  0
 15 17  1  0  0  0  0
 17 18  2  0  0  0  0
 18 19  1  0  0  0  0
 19 20  2  0  0  0  0
 20 16  1  0  0  0  0
  6 21  1  0  0  0  0
  1 22  1  0  0  0  0
  1 23  1  0  0  0  0
 17 24  1  0  0  0  0
 19 25  1  0  0  0  0
 25 26  1  0  0  0  0
M  END
>  <cdx:fragmentId>
5

$$$$
