970641.cdx
  Mrv1902 05222410182D          

 28 31  0  0  0  0            999 V2000
    8.9465   -8.9685    0.0000 C   0  0  0  0  0  0  0  0  0  0  0  0
    8.9562   -9.7935    0.0000 C   0  0  0  0  0  0  0  0  0  0  0  0
    8.2466  -10.2143    0.0000 O   0  0  0  0  0  0  0  0  0  0  0  0
    8.2563  -11.0393    0.0000 C   0  0  0  0  0  0  0  0  0  0  0  0
    5.2008   -9.9018    0.0000 N   0  0  0  0  0  0  0  0  0  0  0  0
    5.2250   -9.0771    0.0000 C   0  0  0  0  0  0  0  0  0  0  0  0
    6.0168   -8.8454    0.0000 C   0  0  1  0  0  0  0  0  0  0  0  0
    6.4819   -9.5268    0.0000 C   0  0  0  0  0  0  0  0  0  0  0  0
    7.2995   -9.6371    0.0000 C   0  0  0  0  0  0  0  0  0  0  0  0
    7.6127  -10.4004    0.0000 C   0  0  0  0  0  0  0  0  0  0  0  0
    7.1084  -11.0532    0.0000 C   0  0  0  0  0  0  0  0  0  0  0  0
    6.2908  -10.9429    0.0000 C   0  0  0  0  0  0  0  0  0  0  0  0
    5.9776  -10.1797    0.0000 C   0  0  0  0  0  0  0  0  0  0  0  0
    5.5241   -8.1837    0.0000 C   0  0  0  0  0  0  0  0  0  0  0  0
    6.0011   -7.5106    0.0000 C   0  0  0  0  0  0  0  0  0  0  0  0
    6.7887   -7.7563    0.0000 N   0  0  0  0  0  0  0  0  0  0  0  0
    7.4983   -7.3354    0.0000 C   0  0  0  0  0  0  0  0  0  0  0  0
    8.2176   -7.7395    0.0000 C   0  0  2  0  0  0  0  0  0  0  0  0
    8.2273   -8.5644    0.0000 C   0  0  2  0  0  0  0  0  0  0  0  0
    7.5177   -8.9853    0.0000 C   0  0  0  0  0  0  0  0  0  0  0  0
    6.7984   -8.5812    0.0000 C   0  0  1  0  0  0  0  0  0  0  0  0
    4.5722   -8.5728    0.0000 O   0  0  0  0  0  0  0  0  0  0  0  0
    8.9271   -7.3186    0.0000 C   0  0  0  0  0  0  0  0  0  0  0  0
    8.9174   -6.4937    0.0000 C   0  0  0  0  0  0  0  0  0  0  0  0
    6.8062   -9.4062    0.0000 H   0  0  0  0  0  0  0  0  0  0  0  0
   10.3754   -8.9517    0.0000 O   0  0  0  0  0  0  0  0  0  0  0  0
    9.6464   -7.7227    0.0000 O   0  0  0  0  0  0  0  0  0  0  0  0
    9.6561   -8.5476    0.0000 C   0  0  0  0  0  0  0  0  0  0  0  0
 28 26  1  0  0  0  0
 28 27  2  0  0  0  0
 28  1  1  0  0  0  0
  1  2  2  0  0  0  0
  3  4  1  0  0  0  0
  2  3  1  0  0  0  0
  5  6  1  0  0  0  0
  6  7  1  0  0  0  0
  7  8  1  0  0  0  0
  8  9  1  0  0  0  0
  9 10  2  0  0  0  0
 10 11  1  0  0  0  0
 11 12  2  0  0  0  0
 12 13  1  0  0  0  0
  5 13  1  0  0  0  0
  8 13  2  0  0  0  0
 14 15  1  0  0  0  0
 15 16  1  0  0  0  0
 16 17  1  0  0  0  0
 17 18  1  0  0  0  0
 18 19  1  0  0  0  0
 19 20  1  0  0  0  0
 20 21  1  0  0  0  0
 16 21  1  0  0  0  0
  7 14  1  6  0  0  0
  7 21  1  0  0  0  0
  6 22  2  0  0  0  0
 23 24  2  0  0  0  0
 18 23  1  1  0  0  0
 19  1  1  1  0  0  0
 21 25  1  6  0  0  0
M  END
>  <cdx:fragmentId>
39996

$$$$
