97061.cdx
  Mrv1902 05222410212D          

 21 20  0  0  0  0            999 V2000
   11.9320   -5.9279    0.0000 C   0  0  0  0  0  0  0  0  0  0  0  0
   11.9320   -6.7529    0.0000 C   0  0  0  0  0  0  0  0  0  0  0  0
   12.6465   -7.1654    0.0000 C   0  0  0  0  0  0  0  0  0  0  0  0
   12.6465   -7.9904    0.0000 C   0  0  0  0  0  0  0  0  0  0  0  0
   11.9320   -8.4029    0.0000 C   0  0  0  0  0  0  0  0  0  0  0  0
   11.9320   -9.2279    0.0000 C   0  0  0  0  0  0  0  0  0  0  0  0
    9.0742   -8.4029    0.0000 O   0  0  0  0  0  0  0  0  0  0  0  0
    2.6439   -9.6404    0.0000 O   0  0  0  0  0  0  0  0  0  0  0  0
    3.3584   -8.4029    0.0000 O   0  0  0  0  0  0  0  0  0  0  0  0
   11.2176   -9.6404    0.0000 C   0  0  0  0  0  0  0  0  0  0  0  0
   10.5031   -9.2279    0.0000 C   0  0  0  0  0  0  0  0  0  0  0  0
    9.7886   -9.6404    0.0000 C   0  0  0  0  0  0  0  0  0  0  0  0
    9.0742   -9.2279    0.0000 C   0  0  1  0  0  0  0  0  0  0  0  0
    8.3597   -9.6404    0.0000 C   0  0  0  0  0  0  0  0  0  0  0  0
    7.6452   -9.2279    0.0000 C   0  0  0  0  0  0  0  0  0  0  0  0
    6.9308   -9.6404    0.0000 C   0  0  0  0  0  0  0  0  0  0  0  0
    6.2163   -9.2279    0.0000 C   0  0  0  0  0  0  0  0  0  0  0  0
    5.5018   -9.6404    0.0000 C   0  0  0  0  0  0  0  0  0  0  0  0
    4.7873   -9.2279    0.0000 C   0  0  0  0  0  0  0  0  0  0  0  0
    4.0729   -9.6404    0.0000 C   0  0  0  0  0  0  0  0  0  0  0  0
    3.3584   -9.2279    0.0000 C   0  0  0  0  0  0  0  0  0  0  0  0
  2  1  1  0  0  0  0
  3  2  1  0  0  0  0
  4  3  2  0  0  0  0
  5  4  1  0  0  0  0
  6  5  1  0  0  0  0
 10  6  2  0  0  0  0
 13  7  1  1  0  0  0
 21  8  1  0  0  0  0
 21  9  2  0  0  0  0
 11 10  1  0  0  0  0
 12 11  2  0  0  0  0
 13 12  1  0  0  0  0
 14 13  1  0  0  0  0
 15 14  1  0  0  0  0
 16 15  1  0  0  0  0
 17 16  1  0  0  0  0
 18 17  1  0  0  0  0
 19 18  1  0  0  0  0
 20 19  1  0  0  0  0
 21 20  1  0  0  0  0
M  END
>  <cdx:fragmentId>
5

$$$$
