97063.cdx
  Mrv1902 05222410212D          

 11 11  0  0  0  0            999 V2000
    6.1239   -8.4087    0.0000 C   0  0  0  0  0  0  0  0  0  0  0  0
    6.8384   -7.9962    0.0000 C   0  0  0  0  0  0  0  0  0  0  0  0
    7.5529   -8.4087    0.0000 C   0  0  0  0  0  0  0  0  0  0  0  0
    7.5529   -9.2337    0.0000 C   0  0  0  0  0  0  0  0  0  0  0  0
    6.8384   -9.6462    0.0000 C   0  0  0  0  0  0  0  0  0  0  0  0
    6.1239   -9.2337    0.0000 C   0  0  0  0  0  0  0  0  0  0  0  0
    8.2674   -9.6462    0.0000 C   0  0  0  0  0  0  0  0  0  0  0  0
    8.9818   -9.2337    0.0000 C   0  0  0  0  0  0  0  0  0  0  0  0
    9.6963   -9.6462    0.0000 C   0  0  0  0  0  0  0  0  0  0  0  0
    5.4095   -7.9962    0.0000 O   0  0  0  0  0  0  0  0  0  0  0  0
    4.6950   -8.4087    0.0000 C   0  0  0  0  0  0  0  0  0  0  0  0
  1  2  1  0  0  0  0
  2  3  2  0  0  0  0
  3  4  1  0  0  0  0
  4  5  2  0  0  0  0
  5  6  1  0  0  0  0
  1  6  2  0  0  0  0
  7  8  2  0  0  0  0
  8  9  1  0  0  0  0
  4  7  1  0  0  0  0
 10 11  1  0  0  0  0
  1 10  1  0  0  0  0
M  END
>  <cdx:fragmentId>
5

$$$$
