97070.cdx
  Mrv1902 05222410222D          

 50 58  0  0  0  0            999 V2000
    6.4508   -8.5182    0.0000 C   0  0  0  0  0  0  0  0  0  0  0  0
    6.4585   -9.3432    0.0000 C   0  0  0  0  0  0  0  0  0  0  0  0
    7.1768   -9.7490    0.0000 C   0  0  0  0  0  0  0  0  0  0  0  0
    7.8874   -9.3298    0.0000 C   0  0  0  0  0  0  0  0  0  0  0  0
    7.8797   -8.5048    0.0000 C   0  0  0  0  0  0  0  0  0  0  0  0
    7.1614   -8.0990    0.0000 C   0  0  0  0  0  0  0  0  0  0  0  0
    8.6057   -9.7356    0.0000 C   0  0  1  0  0  0  0  0  0  0  0  0
    9.3163   -9.3165    0.0000 C   0  0  1  0  0  0  0  0  0  0  0  0
    9.3086   -8.4915    0.0000 C   0  0  1  0  0  0  0  0  0  0  0  0
    8.5903   -8.0857    0.0000 O   0  0  0  0  0  0  0  0  0  0  0  0
   10.0346   -9.7223    0.0000 C   0  0  2  0  0  0  0  0  0  0  0  0
   10.7452   -9.3031    0.0000 C   0  0  0  0  0  0  0  0  0  0  0  0
   10.7375   -8.4781    0.0000 C   0  0  0  0  0  0  0  0  0  0  0  0
   10.0192   -8.0723    0.0000 O   0  0  0  0  0  0  0  0  0  0  0  0
   11.4635   -9.7089    0.0000 C   0  0  0  0  0  0  0  0  0  0  0  0
   12.1740   -9.2898    0.0000 C   0  0  0  0  0  0  0  0  0  0  0  0
   12.1663   -8.4648    0.0000 C   0  0  0  0  0  0  0  0  0  0  0  0
   11.4480   -8.0590    0.0000 C   0  0  0  0  0  0  0  0  0  0  0  0
    8.6134  -10.5606    0.0000 C   0  0  0  0  0  0  0  0  0  0  0  0
    9.3317  -10.9664    0.0000 C   0  0  0  0  0  0  0  0  0  0  0  0
   10.0423  -10.5472    0.0000 C   0  0  0  0  0  0  0  0  0  0  0  0
    9.3009   -7.6665    0.0000 C   0  0  0  0  0  0  0  0  0  0  0  0
   10.0115   -7.2474    0.0000 C   0  0  0  0  0  0  0  0  0  0  0  0
   10.0038   -6.4224    0.0000 C   0  0  0  0  0  0  0  0  0  0  0  0
    9.2855   -6.0166    0.0000 C   0  0  0  0  0  0  0  0  0  0  0  0
    8.5749   -6.4358    0.0000 C   0  0  0  0  0  0  0  0  0  0  0  0
    8.5826   -7.2607    0.0000 C   0  0  0  0  0  0  0  0  0  0  0  0
   10.7298   -7.6532    0.0000 O   0  0  0  0  0  0  0  0  0  0  0  0
   11.4403   -7.2340    0.0000 C   0  0  0  0  0  0  0  0  0  0  0  0
   11.4326   -6.4091    0.0000 C   0  0  0  0  0  0  0  0  0  0  0  0
   10.7143   -6.0033    0.0000 C   0  0  0  0  0  0  0  0  0  0  0  0
    5.7325   -8.1124    0.0000 C   0  0  0  0  0  0  0  0  0  0  0  0
    5.0219   -8.5315    0.0000 O   0  0  0  0  0  0  0  0  0  0  0  0
    5.5535   -7.3071    0.0000 C   0  0  0  0  0  0  0  0  0  0  0  0
    4.7322   -7.2285    0.0000 C   0  0  0  0  0  0  0  0  0  0  0  0
    4.4037   -7.9853    0.0000 C   0  0  0  0  0  0  0  0  0  0  0  0
    4.2411   -6.5656    0.0000 C   0  0  0  0  0  0  0  0  0  0  0  0
    3.4214   -6.6595    0.0000 C   0  0  0  0  0  0  0  0  0  0  0  0
    3.0929   -7.4163    0.0000 C   0  0  0  0  0  0  0  0  0  0  0  0
    3.5841   -8.0792    0.0000 C   0  0  0  0  0  0  0  0  0  0  0  0
    2.2733   -7.5102    0.0000 O   0  0  0  0  0  0  0  0  0  0  0  0
    7.1845  -10.5739    0.0000 O   0  0  0  0  0  0  0  0  0  0  0  0
    9.3394  -11.7914    0.0000 C   0  0  0  0  0  0  0  0  0  0  0  0
   12.8769   -8.0456    0.0000 O   0  0  0  0  0  0  0  0  0  0  0  0
    9.2777   -5.1916    0.0000 O   0  0  0  0  0  0  0  0  0  0  0  0
   12.1586   -7.6398    0.0000 C   0  0  0  0  0  0  0  0  0  0  0  0
   12.1509   -6.8149    0.0000 C   0  0  0  0  0  0  0  0  0  0  0  0
    8.5980   -8.9107    0.0000 H   0  0  0  0  0  0  0  0  0  0  0  0
    9.3240  -10.1414    0.0000 H   0  0  0  0  0  0  0  0  0  0  0  0
   10.0269   -8.8973    0.0000 H   0  0  0  0  0  0  0  0  0  0  0  0
  1  2  2  0  0  0  0
  2  3  1  0  0  0  0
  3  4  2  0  0  0  0
  4  5  1  0  0  0  0
  5  6  2  0  0  0  0
  6  1  1  0  0  0  0
  4  7  1  0  0  0  0
  7  8  1  0  0  0  0
  8  9  1  0  0  0  0
  9 10  1  0  0  0  0
 10  5  1  0  0  0  0
  8 11  1  0  0  0  0
 11 12  1  0  0  0  0
 12 13  2  0  0  0  0
 13 14  1  0  0  0  0
 14  9  1  0  0  0  0
 12 15  1  0  0  0  0
 15 16  2  0  0  0  0
 16 17  1  0  0  0  0
 17 18  2  0  0  0  0
 18 13  1  0  0  0  0
  7 19  1  0  0  0  0
 19 20  2  0  0  0  0
 20 21  1  0  0  0  0
 21 11  1  0  0  0  0
  9 22  1  6  0  0  0
 22 23  2  0  0  0  0
 23 24  1  0  0  0  0
 24 25  2  0  0  0  0
 25 26  1  0  0  0  0
 26 27  2  0  0  0  0
 27 22  1  0  0  0  0
 23 28  1  0  0  0  0
 28 29  1  0  0  0  0
 29 30  1  0  0  0  0
 30 31  2  0  0  0  0
 31 24  1  0  0  0  0
  1 32  1  0  0  0  0
 32 33  1  0  0  0  0
 32 34  2  0  0  0  0
 34 35  1  0  0  0  0
 35 36  2  0  0  0  0
 36 33  1  0  0  0  0
 35 37  1  0  0  0  0
 37 38  2  0  0  0  0
 38 39  1  0  0  0  0
 39 40  2  0  0  0  0
 40 36  1  0  0  0  0
 39 41  1  0  0  0  0
  3 42  1  0  0  0  0
 20 43  1  0  0  0  0
 17 44  1  0  0  0  0
 25 45  1  0  0  0  0
 29 46  1  0  0  0  0
 29 47  1  0  0  0  0
  7 48  1  6  0  0  0
  8 49  1  6  0  0  0
 11 50  1  1  0  0  0
M  END
>  <cdx:fragmentId>
5

$$$$
