97071.cdx
  Mrv1902 05222410222D          

 40 44  0  0  0  0            999 V2000
    4.8449   -8.2225    0.0000 C   0  0  1  0  0  0  0  0  0  0  0  0
    4.8449   -9.0475    0.0000 C   0  0  2  0  0  0  0  0  0  0  0  0
    5.5594   -9.4600    0.0000 C   0  0  1  0  0  0  0  0  0  0  0  0
    6.2739   -9.0475    0.0000 C   0  0  1  0  0  0  0  0  0  0  0  0
    6.2739   -8.2225    0.0000 C   0  0  2  0  0  0  0  0  0  0  0  0
    5.5594   -7.8100    0.0000 C   0  0  0  0  0  0  0  0  0  0  0  0
    6.9883   -9.4600    0.0000 C   0  0  0  0  0  0  0  0  0  0  0  0
    7.7028   -9.0475    0.0000 C   0  0  0  0  0  0  0  0  0  0  0  0
    7.7028   -8.2225    0.0000 C   0  0  2  0  0  0  0  0  0  0  0  0
    6.9883   -7.8100    0.0000 C   0  0  2  0  0  0  0  0  0  0  0  0
    8.4173   -7.8100    0.0000 C   0  0  1  0  0  0  0  0  0  0  0  0
    8.4173   -6.9850    0.0000 C   0  0  0  0  0  0  0  0  0  0  0  0
    7.7028   -6.5725    0.0000 C   0  0  0  0  0  0  0  0  0  0  0  0
    6.9883   -6.9850    0.0000 C   0  0  0  0  0  0  0  0  0  0  0  0
    9.1318   -8.2225    0.0000 C   0  0  0  0  0  0  0  0  0  0  0  0
    9.8462   -7.8100    0.0000 C   0  0  0  0  0  0  0  0  0  0  0  0
    9.8462   -6.9850    0.0000 C   0  0  2  0  0  0  0  0  0  0  0  0
    9.1318   -6.5725    0.0000 C   0  0  0  0  0  0  0  0  0  0  0  0
   10.5607   -6.5725    0.0000 C   0  0  0  0  0  0  0  0  0  0  0  0
   10.5607   -5.7475    0.0000 C   0  0  0  0  0  0  0  0  0  0  0  0
    9.8462   -5.3350    0.0000 C   0  0  2  0  0  0  0  0  0  0  0  0
    9.1318   -5.7475    0.0000 C   0  0  2  0  0  0  0  0  0  0  0  0
    5.1469  -10.1745    0.0000 C   0  0  0  0  0  0  0  0  0  0  0  0
    6.2739   -7.3975    0.0000 C   0  0  0  0  0  0  0  0  0  0  0  0
    7.7028   -7.3975    0.0000 C   0  0  0  0  0  0  0  0  0  0  0  0
    8.3068   -5.7475    0.0000 C   0  0  0  0  0  0  0  0  0  0  0  0
   10.5607   -7.3975    0.0000 C   0  0  0  0  0  0  0  0  0  0  0  0
    4.1305   -7.8100    0.0000 O   0  0  0  0  0  0  0  0  0  0  0  0
    4.1305   -9.4600    0.0000 O   0  0  0  0  0  0  0  0  0  0  0  0
    5.9719  -10.1745    0.0000 C   0  0  0  0  0  0  0  0  0  0  0  0
    6.2739   -9.8725    0.0000 H   0  0  0  0  0  0  0  0  0  0  0  0
    6.9883   -8.6350    0.0000 H   0  0  0  0  0  0  0  0  0  0  0  0
    8.4173   -8.6350    0.0000 C   0  0  0  0  0  0  0  0  0  0  0  0
    8.7193   -5.0330    0.0000 O   0  0  0  0  0  0  0  0  0  0  0  0
    9.8462   -4.5100    0.0000 C   0  0  0  0  0  0  0  0  0  0  0  0
   11.2752   -6.9850    0.0000 O   0  0  0  0  0  0  0  0  0  0  0  0
   10.5607   -8.2225    0.0000 O   0  0  0  0  0  0  0  0  0  0  0  0
    3.4160   -9.0475    0.0000 C   0  0  0  0  0  0  0  0  0  0  0  0
    2.7015   -9.4600    0.0000 C   0  0  0  0  0  0  0  0  0  0  0  0
    3.4160   -8.2225    0.0000 O   0  0  0  0  0  0  0  0  0  0  0  0
  1  2  1  0  0  0  0
  2  3  1  0  0  0  0
  3  4  1  0  0  0  0
  4  5  1  0  0  0  0
  5  6  1  0  0  0  0
  6  1  1  0  0  0  0
  4  7  1  0  0  0  0
  7  8  1  0  0  0  0
  8  9  1  0  0  0  0
  9 10  1  0  0  0  0
 10  5  1  0  0  0  0
  9 11  1  0  0  0  0
 11 12  1  0  0  0  0
 12 13  2  0  0  0  0
 13 14  1  0  0  0  0
 14 10  1  0  0  0  0
 11 15  1  0  0  0  0
 15 16  1  0  0  0  0
 16 17  1  0  0  0  0
 17 18  1  0  0  0  0
 18 12  1  0  0  0  0
 17 19  1  0  0  0  0
 19 20  1  0  0  0  0
 20 21  1  0  0  0  0
 21 22  1  0  0  0  0
 22 18  1  0  0  0  0
  3 23  1  1  0  0  0
  5 24  1  1  0  0  0
  9 25  1  1  0  0  0
 22 26  1  1  0  0  0
 17 27  1  1  0  0  0
  1 28  1  6  0  0  0
  2 29  1  6  0  0  0
  3 30  1  6  0  0  0
  4 31  1  6  0  0  0
 10 32  1  6  0  0  0
 11 33  1  6  0  0  0
 22 34  1  6  0  0  0
 21 35  1  6  0  0  0
 27 36  2  0  0  0  0
 27 37  1  0  0  0  0
 29 38  1  0  0  0  0
 38 39  1  0  0  0  0
 38 40  2  0  0  0  0
M  END
>  <cdx:fragmentId>
5

$$$$
