97096.cdx
  Mrv1902 05222410242D          

 33 37  0  0  0  0            999 V2000
    7.9757  -10.2014    0.0000 O   0  0  0  0  0  0  0  0  0  0  0  0
    8.8007  -10.1960    0.0000 C   0  0  2  0  0  0  0  0  0  0  0  0
    9.2178  -10.9078    0.0000 C   0  0  1  0  0  0  0  0  0  0  0  0
    8.8100  -11.6249    0.0000 C   0  0  2  0  0  0  0  0  0  0  0  0
    7.9850  -11.6303    0.0000 C   0  0  1  0  0  0  0  0  0  0  0  0
    7.5679  -10.9185    0.0000 C   0  0  0  0  0  0  0  0  0  0  0  0
   10.0428  -10.9024    0.0000 O   0  0  0  0  0  0  0  0  0  0  0  0
    9.2271  -12.3367    0.0000 O   0  0  0  0  0  0  0  0  0  0  0  0
    7.5771  -12.3474    0.0000 O   0  0  0  0  0  0  0  0  0  0  0  0
    9.2086   -9.4789    0.0000 O   0  0  0  0  0  0  0  0  0  0  0  0
    9.1900   -6.6211    0.0000 O   0  0  0  0  0  0  0  0  0  0  0  0
    1.8772   -7.2725    0.0000 O   0  0  0  0  0  0  0  0  0  0  0  0
    2.1918   -9.2224    0.0000 C   0  0  0  0  0  0  0  0  0  0  0  0
    1.7747   -8.5107    0.0000 C   0  0  0  0  0  0  0  0  0  0  0  0
    6.7244   -8.0660    0.0000 C   0  0  0  0  0  0  0  0  0  0  0  0
    6.2351   -7.4018    0.0000 C   0  0  0  0  0  0  0  0  0  0  0  0
    6.2438   -8.7366    0.0000 O   0  0  0  0  0  0  0  0  0  0  0  0
    3.3168   -8.9132    0.0000 O   0  0  0  0  0  0  0  0  0  0  0  0
    4.0286   -8.4960    0.0000 C   0  0  0  0  0  0  0  0  0  0  0  0
    4.7457   -8.9039    0.0000 C   0  0  0  0  0  0  0  0  0  0  0  0
    5.4575   -8.4868    0.0000 C   0  0  0  0  0  0  0  0  0  0  0  0
    5.4522   -7.6618    0.0000 C   0  0  0  0  0  0  0  0  0  0  0  0
    4.7350   -7.2539    0.0000 C   0  0  0  0  0  0  0  0  0  0  0  0
    4.0232   -7.6710    0.0000 C   0  0  0  0  0  0  0  0  0  0  0  0
    3.3061   -7.2632    0.0000 C   0  0  0  0  0  0  0  0  0  0  0  0
    2.5943   -7.6803    0.0000 C   0  0  0  0  0  0  0  0  0  0  0  0
    2.5997   -8.5053    0.0000 C   0  0  0  0  0  0  0  0  0  0  0  0
    7.9665   -8.7725    0.0000 C   0  0  0  0  0  0  0  0  0  0  0  0
    7.5493   -8.0607    0.0000 C   0  0  0  0  0  0  0  0  0  0  0  0
    7.9572   -7.3435    0.0000 C   0  0  0  0  0  0  0  0  0  0  0  0
    8.7822   -7.3382    0.0000 C   0  0  0  0  0  0  0  0  0  0  0  0
    9.1993   -8.0500    0.0000 C   0  0  0  0  0  0  0  0  0  0  0  0
    8.7914   -8.7671    0.0000 C   0  0  0  0  0  0  0  0  0  0  0  0
 31 11  1  0  0  0  0
 29 15  1  0  0  0  0
 26 12  1  0  0  0  0
 27 13  1  0  0  0  0
 27 14  1  0  0  0  0
 17 21  1  0  0  0  0
 16 22  1  0  0  0  0
 17 15  1  0  0  0  0
 16 15  2  0  0  0  0
 27 18  1  0  0  0  0
 19 18  1  0  0  0  0
 24 19  1  0  0  0  0
 20 19  2  0  0  0  0
 21 20  1  0  0  0  0
 22 21  2  0  0  0  0
 23 22  1  0  0  0  0
 24 23  2  0  0  0  0
 25 24  1  0  0  0  0
 26 25  1  0  0  0  0
 27 26  1  0  0  0  0
 10 33  1  0  0  0  0
 33 28  2  0  0  0  0
 29 28  1  0  0  0  0
 30 29  2  0  0  0  0
 31 30  1  0  0  0  0
 32 31  2  0  0  0  0
 33 32  1  0  0  0  0
  1  2  1  0  0  0  0
  2  3  1  0  0  0  0
  3  4  1  0  0  0  0
  4  5  1  0  0  0  0
  5  6  1  0  0  0  0
  1  6  1  0  0  0  0
  3  7  1  6  0  0  0
  4  8  1  1  0  0  0
  5  9  1  6  0  0  0
  2 10  1  1  0  0  0
M  END
>  <cdx:fragmentId>
37

$$$$
