97099.cdx
  Mrv1902 05222410232D          

 35 40  0  0  0  0            999 V2000
    3.6177   -9.4796    0.0000 C   0  0  0  0  0  0  0  0  0  0  0  0
    3.6177  -10.3046    0.0000 C   0  0  0  0  0  0  0  0  0  0  0  0
    4.3322  -10.7171    0.0000 C   0  0  0  0  0  0  0  0  0  0  0  0
    5.0466  -10.3046    0.0000 C   0  0  0  0  0  0  0  0  0  0  0  0
    5.0466   -9.4796    0.0000 C   0  0  2  0  0  0  0  0  0  0  0  0
    4.3322   -9.0671    0.0000 C   0  0  0  0  0  0  0  0  0  0  0  0
    5.7611  -10.7171    0.0000 C   0  0  0  0  0  0  0  0  0  0  0  0
    6.4756  -10.3046    0.0000 C   0  0  0  0  0  0  0  0  0  0  0  0
    6.4756   -9.4796    0.0000 C   0  0  2  0  0  0  0  0  0  0  0  0
    5.7611   -9.0671    0.0000 C   0  0  0  0  0  0  0  0  0  0  0  0
    7.1900   -9.0671    0.0000 C   0  0  0  0  0  0  0  0  0  0  0  0
    7.1900   -8.2421    0.0000 C   0  0  1  0  0  0  0  0  0  0  0  0
    6.4756   -7.8296    0.0000 C   0  0  0  0  0  0  0  0  0  0  0  0
    5.7611   -8.2421    0.0000 C   0  0  0  0  0  0  0  0  0  0  0  0
    4.3322   -8.2421    0.0000 O   0  0  0  0  0  0  0  0  0  0  0  0
    5.0466   -8.6546    0.0000 C   0  0  0  0  0  0  0  0  0  0  0  0
    6.4756   -8.6546    0.0000 H   0  0  0  0  0  0  0  0  0  0  0  0
    7.1900   -7.4171    0.0000 C   0  0  0  0  0  0  0  0  0  0  0  0
    7.9747   -9.3220    0.0000 C   0  0  0  0  0  0  0  0  0  0  0  0
    8.4596   -8.6546    0.0000 C   0  0  0  0  0  0  0  0  0  0  0  0
    7.9747   -7.9871    0.0000 C   0  0  2  0  0  0  0  0  0  0  0  0
    8.7715   -7.7736    0.0000 H   0  0  0  0  0  0  0  0  0  0  0  0
    8.2543   -7.2102    0.0000 C   0  0  1  0  0  0  0  0  0  0  0  0
    9.0682   -7.0751    0.0000 C   0  0  0  0  0  0  0  0  0  0  0  0
    9.3581   -6.3027    0.0000 C   0  0  0  0  0  0  0  0  0  0  0  0
    8.8342   -5.6654    0.0000 C   0  0  1  0  0  0  0  0  0  0  0  0
    8.0204   -5.8005    0.0000 O   0  0  0  0  0  0  0  0  0  0  0  0
    7.7304   -6.5729    0.0000 C   0  0  0  0  0  0  0  0  0  0  0  0
    9.6481   -5.5303    0.0000 C   0  0  0  0  0  0  0  0  0  0  0  0
    9.8821   -6.9400    0.0000 O   0  0  0  0  0  0  0  0  0  0  0  0
   10.1720   -6.1676    0.0000 C   0  0  0  0  0  0  0  0  0  0  0  0
    9.9380   -4.7580    0.0000 C   0  0  0  0  0  0  0  0  0  0  0  0
   10.9859   -6.0326    0.0000 O   0  0  0  0  0  0  0  0  0  0  0  0
    8.5443   -6.4378    0.0000 H   0  0  0  0  0  0  0  0  0  0  0  0
    8.6991   -4.8516    0.0000 C   0  0  0  0  0  0  0  0  0  0  0  0
  1  2  2  0  0  0  0
  2  3  1  0  0  0  0
  3  4  1  0  0  0  0
  4  5  1  0  0  0  0
  5  6  1  0  0  0  0
  6  1  1  0  0  0  0
  4  7  2  0  0  0  0
  7  8  1  0  0  0  0
  8  9  1  0  0  0  0
  9 10  1  0  0  0  0
 10  5  1  0  0  0  0
  9 11  1  0  0  0  0
 11 12  1  0  0  0  0
 12 13  1  0  0  0  0
 13 14  1  0  0  0  0
 14 10  1  0  0  0  0
  6 15  2  0  0  0  0
  5 16  1  1  0  0  0
  9 17  1  1  0  0  0
 12 18  1  1  0  0  0
 11 19  1  0  0  0  0
 19 20  1  0  0  0  0
 20 21  1  0  0  0  0
 21 12  1  0  0  0  0
 21 22  1  6  0  0  0
 23 24  1  0  0  0  0
 24 25  1  6  0  0  0
 26 25  1  6  0  0  0
 26 27  1  0  0  0  0
 27 28  1  0  0  0  0
 28 23  1  0  0  0  0
 26 29  1  1  0  0  0
 24 30  1  1  0  0  0
 29 31  1  0  0  0  0
 31 30  1  0  0  0  0
 29 32  2  0  0  0  0
 31 33  2  0  0  0  0
 23 34  1  1  0  0  0
 26 35  1  6  0  0  0
 23 21  1  0  0  0  0
M  END
>  <cdx:fragmentId>
112

$$$$
