97095.cdx
  Mrv1902 05222410242D          

 15 17  0  0  0  0            999 V2000
    6.5362   -6.5725    0.0000 C   0  0  0  0  0  0  0  0  0  0  0  0
    6.5362   -7.3975    0.0000 C   0  0  0  0  0  0  0  0  0  0  0  0
    7.2506   -7.8100    0.0000 C   0  0  1  0  0  0  0  0  0  0  0  0
    7.9651   -7.3975    0.0000 C   0  0  2  0  0  0  0  0  0  0  0  0
    7.9651   -6.5725    0.0000 C   0  0  2  0  0  0  0  0  0  0  0  0
    7.2506   -6.1600    0.0000 C   0  0  2  0  0  0  0  0  0  0  0  0
    8.6796   -7.8100    0.0000 C   0  0  0  0  0  0  0  0  0  0  0  0
    9.3941   -7.3975    0.0000 O   0  0  0  0  0  0  0  0  0  0  0  0
    8.6796   -6.1600    0.0000 O   0  0  0  0  0  0  0  0  0  0  0  0
    5.7516   -6.3176    0.0000 C   0  0  0  0  0  0  0  0  0  0  0  0
    5.2666   -6.9850    0.0000 O   0  0  0  0  0  0  0  0  0  0  0  0
    5.7516   -7.6524    0.0000 C   0  0  0  0  0  0  0  0  0  0  0  0
    7.6175   -6.9575    0.0000 C   0  0  0  0  0  0  0  0  0  0  0  0
    8.6796   -8.6350    0.0000 O   0  0  0  0  0  0  0  0  0  0  0  0
   10.1085   -7.8100    0.0000 C   0  0  0  0  0  0  0  0  0  0  0  0
  1  2  1  0  0  0  0
  2  3  1  0  0  0  0
  3  4  1  0  0  0  0
  4  5  1  0  0  0  0
  5  6  1  0  0  0  0
  6  1  1  0  0  0  0
  4  7  1  6  0  0  0
  7  8  1  0  0  0  0
  5  9  1  6  0  0  0
  1 10  2  0  0  0  0
 10 11  1  0  0  0  0
 11 12  1  0  0  0  0
 12  2  2  0  0  0  0
  6 13  1  1  0  0  0
  3 13  1  1  0  0  0
  7 14  2  0  0  0  0
  8 15  1  0  0  0  0
M  END
>  <cdx:fragmentId>
5

$$$$
