97098.cdx
  Mrv1902 05222410222D          

 39 44  0  0  0  0            999 V2000
    7.9540   -9.5641    0.0000 C   0  0  2  0  0  0  0  0  0  0  0  0
    7.9563  -10.3891    0.0000 C   0  0  2  0  0  0  0  0  0  0  0  0
    7.9587  -11.2141    0.0000 O   0  0  0  0  0  0  0  0  0  0  0  0
    7.2430  -10.8036    0.0000 C   0  0  2  0  0  0  0  0  0  0  0  0
    6.5274  -10.3931    0.0000 C   0  0  1  0  0  0  0  0  0  0  0  0
    5.8141  -10.8076    0.0000 C   0  0  0  0  0  0  0  0  0  0  0  0
    5.0985  -10.3971    0.0000 C   0  0  0  0  0  0  0  0  0  0  0  0
    5.0961   -9.5721    0.0000 C   0  0  0  0  0  0  0  0  0  0  0  0
    5.8094   -9.1576    0.0000 C   0  0  0  0  0  0  0  0  0  0  0  0
    6.5251   -9.5681    0.0000 C   0  0  2  0  0  0  0  0  0  0  0  0
    7.2384   -9.1536    0.0000 C   0  0  1  0  0  0  0  0  0  0  0  0
    7.2361   -8.3286    0.0000 C   0  0  0  0  0  0  0  0  0  0  0  0
    7.9494   -7.9141    0.0000 C   0  0  0  0  0  0  0  0  0  0  0  0
    8.6650   -8.3246    0.0000 C   0  0  2  0  0  0  0  0  0  0  0  0
    9.4489   -8.0675    0.0000 C   0  0  2  0  0  0  0  0  0  0  0  0
    9.9357   -8.7335    0.0000 C   0  0  0  0  0  0  0  0  0  0  0  0
    9.4527   -9.4023    0.0000 C   0  0  0  0  0  0  0  0  0  0  0  0
    8.6673   -9.1496    0.0000 C   0  0  1  0  0  0  0  0  0  0  0  0
    5.8071   -8.3326    0.0000 O   0  0  0  0  0  0  0  0  0  0  0  0
    8.7489   -7.5039    0.0000 C   0  0  0  0  0  0  0  0  0  0  0  0
    6.5228   -8.7431    0.0000 C   0  0  0  0  0  0  0  0  0  0  0  0
    9.7016   -7.2821    0.0000 C   0  0  2  0  0  0  0  0  0  0  0  0
   10.5081   -7.1083    0.0000 C   0  0  0  0  0  0  0  0  0  0  0  0
    9.1479   -6.6706    0.0000 C   0  0  1  0  0  0  0  0  0  0  0  0
    8.3414   -6.8444    0.0000 C   0  0  0  0  0  0  0  0  0  0  0  0
    7.7876   -6.2328    0.0000 C   0  0  0  0  0  0  0  0  0  0  0  0
    8.0404   -5.4475    0.0000 C   0  0  0  0  0  0  0  0  0  0  0  0
    8.8468   -5.2737    0.0000 C   0  0  0  0  0  0  0  0  0  0  0  0
    9.4006   -5.8852    0.0000 O   0  0  0  0  0  0  0  0  0  0  0  0
    9.0996   -4.4884    0.0000 O   0  0  0  0  0  0  0  0  0  0  0  0
    6.9811   -6.4066    0.0000 C   0  0  0  0  0  0  0  0  0  0  0  0
    7.4866   -4.8360    0.0000 C   0  0  0  0  0  0  0  0  0  0  0  0
    6.6801   -5.0098    0.0000 O   0  0  0  0  0  0  0  0  0  0  0  0
    6.5297  -11.2181    0.0000 O   0  0  0  0  0  0  0  0  0  0  0  0
    7.9517   -8.7391    0.0000 H   0  0  0  0  0  0  0  0  0  0  0  0
    7.2407   -9.9786    0.0000 H   0  0  0  0  0  0  0  0  0  0  0  0
    8.6696   -9.9746    0.0000 H   0  0  0  0  0  0  0  0  0  0  0  0
   10.2634   -7.9361    0.0000 H   0  0  0  0  0  0  0  0  0  0  0  0
    9.9544   -6.4968    0.0000 H   0  0  0  0  0  0  0  0  0  0  0  0
  1  2  1  0  0  0  0
  2  3  1  6  0  0  0
  4  3  1  6  0  0  0
  4  5  1  0  0  0  0
  5  6  1  0  0  0  0
  6  7  1  0  0  0  0
  7  8  2  0  0  0  0
  8  9  1  0  0  0  0
  9 10  1  0  0  0  0
 10 11  1  0  0  0  0
 11 12  1  0  0  0  0
 12 13  1  0  0  0  0
 13 14  1  0  0  0  0
 14 15  1  0  0  0  0
 15 16  1  0  0  0  0
 16 17  1  0  0  0  0
 17 18  1  0  0  0  0
  1 18  1  0  0  0  0
  1 11  1  0  0  0  0
  5 10  1  0  0  0  0
  2  4  1  0  0  0  0
 14 18  1  0  0  0  0
  9 19  2  0  0  0  0
 14 20  1  1  0  0  0
 10 21  1  1  0  0  0
 22 23  1  1  0  0  0
 24 25  1  0  0  0  0
 25 26  1  0  0  0  0
 26 27  2  0  0  0  0
 27 28  1  0  0  0  0
 28 29  1  0  0  0  0
 24 29  1  0  0  0  0
 28 30  2  0  0  0  0
 26 31  1  0  0  0  0
 32 33  1  0  0  0  0
 27 32  1  0  0  0  0
 22 24  1  0  0  0  0
 15 22  1  0  0  0  0
  5 34  1  6  0  0  0
  1 35  1  1  0  0  0
 11 36  1  6  0  0  0
 18 37  1  6  0  0  0
 15 38  1  6  0  0  0
 24 39  1  6  0  0  0
M  END
>  <cdx:fragmentId>
5

$$$$
