970951.cdx
  Mrv1902 05222410242D          

 46 51  0  0  0  0            999 V2000
    3.7870  -10.2883    0.0000 C   0  0  0  0  0  0  0  0  0  0  0  0
    3.0725  -10.7008    0.0000 C   0  0  0  0  0  0  0  0  0  0  0  0
    2.3580  -10.2883    0.0000 C   0  0  0  0  0  0  0  0  0  0  0  0
    3.7870   -9.4633    0.0000 O   0  0  0  0  0  0  0  0  0  0  0  0
    4.5014  -10.7008    0.0000 O   0  0  0  0  0  0  0  0  0  0  0  0
    2.3580   -9.4633    0.0000 C   0  0  0  0  0  0  0  0  0  0  0  0
    1.6436   -9.0508    0.0000 C   0  0  0  0  0  0  0  0  0  0  0  0
    1.6436   -8.2258    0.0000 C   0  0  0  0  0  0  0  0  0  0  0  0
    2.3580   -7.8133    0.0000 C   0  0  0  0  0  0  0  0  0  0  0  0
    3.0725   -8.2258    0.0000 C   0  0  0  0  0  0  0  0  0  0  0  0
    3.0725   -9.0508    0.0000 C   0  0  0  0  0  0  0  0  0  0  0  0
    2.3580   -6.9883    0.0000 O   0  0  0  0  0  0  0  0  0  0  0  0
    7.3593   -9.0508    0.0000 C   0  0  2  0  0  0  0  0  0  0  0  0
    6.6449   -8.6383    0.0000 C   0  0  0  0  0  0  0  0  0  0  0  0
    6.6449   -9.4633    0.0000 C   0  0  1  0  0  0  0  0  0  0  0  0
    5.9304   -9.0508    0.0000 C   0  0  0  0  0  0  0  0  0  0  0  0
    5.2159   -9.4633    0.0000 C   0  0  0  0  0  0  0  0  0  0  0  0
    5.2159  -10.2883    0.0000 C   0  0  1  0  0  0  0  0  0  0  0  0
    5.9304  -10.7008    0.0000 C   0  0  0  0  0  0  0  0  0  0  0  0
    6.6449  -10.2883    0.0000 C   0  0  2  0  0  0  0  0  0  0  0  0
    7.3593  -10.7008    0.0000 C   0  0  0  0  0  0  0  0  0  0  0  0
    8.0738  -10.2883    0.0000 C   0  0  0  0  0  0  0  0  0  0  0  0
    8.0738   -9.4633    0.0000 C   0  0  1  0  0  0  0  0  0  0  0  0
    8.7883   -9.0508    0.0000 C   0  0  2  0  0  0  0  0  0  0  0  0
    9.5729   -9.3057    0.0000 C   0  0  0  0  0  0  0  0  0  0  0  0
   10.0578   -8.6383    0.0000 C   0  0  0  0  0  0  0  0  0  0  0  0
    9.5729   -7.9708    0.0000 C   0  0  1  0  0  0  0  0  0  0  0  0
    8.7883   -8.2258    0.0000 C   0  0  1  0  0  0  0  0  0  0  0  0
    8.0738   -7.8133    0.0000 C   0  0  0  0  0  0  0  0  0  0  0  0
    7.3593   -8.2258    0.0000 C   0  0  0  0  0  0  0  0  0  0  0  0
    9.2758   -6.5731    0.0000 C   0  0  0  0  0  0  0  0  0  0  0  0
    9.8278   -7.1862    0.0000 C   0  0  2  0  0  0  0  0  0  0  0  0
   10.6348   -7.0147    0.0000 C   0  0  0  0  0  0  0  0  0  0  0  0
   10.8897   -6.2301    0.0000 C   0  0  0  0  0  0  0  0  0  0  0  0
   11.6967   -6.0585    0.0000 C   0  0  0  0  0  0  0  0  0  0  0  0
   11.9517   -5.2739    0.0000 C   0  0  0  0  0  0  0  0  0  0  0  0
   11.3996   -4.6608    0.0000 C   0  0  0  0  0  0  0  0  0  0  0  0
   12.2487   -6.6716    0.0000 C   0  0  0  0  0  0  0  0  0  0  0  0
   12.7586   -5.1024    0.0000 C   0  0  0  0  0  0  0  0  0  0  0  0
    8.8745   -7.4053    0.0000 C   0  0  0  0  0  0  0  0  0  0  0  0
    8.7883   -9.8758    0.0000 C   0  0  0  0  0  0  0  0  0  0  0  0
    6.3429  -11.4152    0.0000 C   0  0  0  0  0  0  0  0  0  0  0  0
    5.5179  -11.4152    0.0000 C   0  0  0  0  0  0  0  0  0  0  0  0
    6.6449  -11.1133    0.0000 H   0  0  0  0  0  0  0  0  0  0  0  0
    8.0738   -8.6383    0.0000 H   0  0  0  0  0  0  0  0  0  0  0  0
   10.3698   -7.7573    0.0000 H   0  0  0  0  0  0  0  0  0  0  0  0
  1  2  1  0  0  0  0
  2  3  2  0  0  0  0
  1  4  2  0  0  0  0
  1  5  1  0  0  0  0
  6  7  1  0  0  0  0
  7  8  2  0  0  0  0
  8  9  1  0  0  0  0
  9 10  2  0  0  0  0
 10 11  1  0  0  0  0
  6 11  2  0  0  0  0
  9 12  1  0  0  0  0
  3  6  1  0  0  0  0
 13 14  1  1  0  0  0
 15 14  1  1  0  0  0
 15 16  1  0  0  0  0
 16 17  1  0  0  0  0
 17 18  1  0  0  0  0
 18 19  1  0  0  0  0
 19 20  1  0  0  0  0
 20 21  1  0  0  0  0
 21 22  1  0  0  0  0
 22 23  1  0  0  0  0
 23 24  1  0  0  0  0
 24 25  1  0  0  0  0
 25 26  1  0  0  0  0
 27 26  1  0  0  0  0
 27 28  1  0  0  0  0
 28 29  1  0  0  0  0
 29 30  1  0  0  0  0
 13 30  1  0  0  0  0
 13 23  1  0  0  0  0
 24 28  1  0  0  0  0
 15 20  1  0  0  0  0
 13 15  1  0  0  0  0
 32 31  1  6  0  0  0
 32 33  1  0  0  0  0
 33 34  1  0  0  0  0
 34 35  1  0  0  0  0
 35 36  1  0  0  0  0
 36 37  1  0  0  0  0
 35 38  2  0  0  0  0
 36 39  1  0  0  0  0
 27 32  1  0  0  0  0
 28 40  1  1  0  0  0
 24 41  1  6  0  0  0
 19 42  1  0  0  0  0
 19 43  1  0  0  0  0
 18  5  1  1  0  0  0
 20 44  1  6  0  0  0
 23 45  1  1  0  0  0
 27 46  1  6  0  0  0
M  END
>  <cdx:fragmentId>
29

$$$$
