971.cdx
  Mrv1902 05222410232D          

  6  5  0  0  0  0            999 V2000
    6.7543   -4.1739    0.0000 C   0  0  0  0  0  0  0  0  0  0  0  0
    7.4687   -3.7614    0.0000 C   0  0  0  0  0  0  0  0  0  0  0  0
    6.7543   -4.9989    0.0000 O   0  0  0  0  0  0  0  0  0  0  0  0
    6.0398   -3.7614    0.0000 O   0  0  0  0  0  0  0  0  0  0  0  0
    7.4687   -2.9364    0.0000 O   0  0  0  0  0  0  0  0  0  0  0  0
    8.1832   -4.1739    0.0000 O   0  0  0  0  0  0  0  0  0  0  0  0
  1  2  1  0  0  0  0
  1  3  2  0  0  0  0
  1  4  1  0  0  0  0
  2  5  2  0  0  0  0
  2  6  1  0  0  0  0
M  END
>  <cdx:fragmentId>
5

$$$$
