97104.cdx
  Mrv1902 05222410222D          

 22 23  0  0  0  0            999 V2000
    5.3508   -6.0341    0.0000 O   0  0  0  0  0  0  0  0  0  0  0  0
    4.6371   -6.4479    0.0000 C   0  0  1  0  0  0  0  0  0  0  0  0
    4.6385   -7.2729    0.0000 C   0  0  2  0  0  0  0  0  0  0  0  0
    5.3537   -7.6841    0.0000 C   0  0  1  0  0  0  0  0  0  0  0  0
    6.0675   -7.2704    0.0000 C   0  0  2  0  0  0  0  0  0  0  0  0
    6.0660   -6.4454    0.0000 C   0  0  2  0  0  0  0  0  0  0  0  0
    3.9248   -7.6867    0.0000 O   0  0  0  0  0  0  0  0  0  0  0  0
    5.3552   -8.5091    0.0000 O   0  0  0  0  0  0  0  0  0  0  0  0
    6.7827   -7.6816    0.0000 O   0  0  0  0  0  0  0  0  0  0  0  0
    6.7797   -6.0316    0.0000 O   0  0  0  0  0  0  0  0  0  0  0  0
    7.4949   -6.4428    0.0000 C   0  0  0  0  0  0  0  0  0  0  0  0
    8.2087   -6.0291    0.0000 C   0  0  0  0  0  0  0  0  0  0  0  0
    8.9239   -6.4403    0.0000 C   0  0  0  0  0  0  0  0  0  0  0  0
    8.9253   -7.2653    0.0000 C   0  0  0  0  0  0  0  0  0  0  0  0
    8.2116   -7.6791    0.0000 C   0  0  0  0  0  0  0  0  0  0  0  0
    7.4964   -7.2678    0.0000 C   0  0  0  0  0  0  0  0  0  0  0  0
    3.9219   -6.0367    0.0000 C   0  0  0  0  0  0  0  0  0  0  0  0
    3.2081   -6.4504    0.0000 O   0  0  0  0  0  0  0  0  0  0  0  0
    9.6405   -7.6765    0.0000 C   0  0  0  0  0  0  0  0  0  0  0  0
   10.3543   -7.2628    0.0000 O   0  0  0  0  0  0  0  0  0  0  0  0
   11.0695   -7.6740    0.0000 C   0  0  0  0  0  0  0  0  0  0  0  0
   11.7832   -7.2602    0.0000 C   0  0  0  0  0  0  0  0  0  0  0  0
  1  2  1  0  0  0  0
  2  3  1  0  0  0  0
  3  4  1  0  0  0  0
  4  5  1  0  0  0  0
  5  6  1  0  0  0  0
  1  6  1  0  0  0  0
  3  7  1  6  0  0  0
  4  8  1  1  0  0  0
  5  9  1  6  0  0  0
 11 12  1  0  0  0  0
 12 13  2  0  0  0  0
 13 14  1  0  0  0  0
 14 15  2  0  0  0  0
 15 16  1  0  0  0  0
 11 16  2  0  0  0  0
 10 11  1  0  0  0  0
  6 10  1  1  0  0  0
 17 18  1  0  0  0  0
  2 17  1  1  0  0  0
 14 19  1  0  0  0  0
 19 20  1  0  0  0  0
 20 21  1  0  0  0  0
 21 22  1  0  0  0  0
M  END
>  <cdx:fragmentId>
5

$$$$
