971020.cdx
  Mrv1902 05222410272D          

 21 23  0  0  0  0            999 V2000
    6.0362  -14.9076    0.0000 C   0  0  0  0  0  0  0  0  0  0  0  0
    5.2112  -14.9075    0.0000 C   0  0  0  0  0  0  0  0  0  0  0  0
    9.1968  -10.4812    0.0000 C   0  0  0  0  0  0  0  0  0  0  0  0
    9.1967  -11.3062    0.0000 C   0  0  0  0  0  0  0  0  0  0  0  0
    9.9111  -11.7189    0.0000 C   0  0  0  0  0  0  0  0  0  0  0  0
    6.3388  -11.3057    0.0000 O   0  0  0  0  0  0  0  0  0  0  0  0
    9.1964  -12.9562    0.0000 O   0  0  0  0  0  0  0  0  0  0  0  0
    7.7675  -12.9560    0.0000 C   0  0  0  0  0  0  0  0  0  0  0  0
    7.7673  -13.7810    0.0000 C   0  0  0  0  0  0  0  0  0  0  0  0
    7.0528  -14.1934    0.0000 C   0  0  0  0  0  0  0  0  0  0  0  0
    6.3384  -13.7807    0.0000 C   0  0  0  0  0  0  0  0  0  0  0  0
    5.6238  -14.1931    0.0000 C   0  0  0  0  0  0  0  0  0  0  0  0
    4.9094  -13.7805    0.0000 C   0  0  0  0  0  0  0  0  0  0  0  0
    4.9096  -12.9555    0.0000 C   0  0  0  0  0  0  0  0  0  0  0  0
    5.6241  -12.5431    0.0000 C   0  0  0  0  0  0  0  0  0  0  0  0
    6.3385  -12.9557    0.0000 C   0  0  0  0  0  0  0  0  0  0  0  0
    7.0531  -12.5434    0.0000 C   0  0  0  0  0  0  0  0  0  0  0  0
    7.0532  -11.7184    0.0000 C   0  0  0  0  0  0  0  0  0  0  0  0
    7.7678  -11.3060    0.0000 C   0  0  0  0  0  0  0  0  0  0  0  0
    8.4822  -11.7186    0.0000 C   0  0  0  0  0  0  0  0  0  0  0  0
    8.4820  -12.5436    0.0000 C   0  0  0  0  0  0  0  0  0  0  0  0
 12  1  1  0  0  0  0
 12  2  1  0  0  0  0
 20  4  1  0  0  0  0
  4  3  1  0  0  0  0
  5  4  1  0  0  0  0
 18  6  2  0  0  0  0
 21  7  2  0  0  0  0
 17  8  2  0  0  0  0
 21  8  1  0  0  0  0
  9  8  1  0  0  0  0
 10  9  2  0  0  0  0
 11 10  1  0  0  0  0
 16 11  2  0  0  0  0
 12 11  1  0  0  0  0
 13 12  1  0  0  0  0
 14 13  1  0  0  0  0
 15 14  1  0  0  0  0
 16 15  1  0  0  0  0
 17 16  1  0  0  0  0
 18 17  1  0  0  0  0
 19 18  1  0  0  0  0
 20 19  2  0  0  0  0
 21 20  1  0  0  0  0
M  END
>  <cdx:fragmentId>
33223

$$$$
