9713.cdx
  Mrv1902 05222410252D          

 36 39  0  0  0  0            999 V2000
    5.1822   -8.5909    0.0000 C   0  0  0  0  0  0  0  0  0  0  0  0
    5.3627   -9.3959    0.0000 C   0  0  2  0  0  0  0  0  0  0  0  0
    6.1047   -9.7567    0.0000 C   0  0  0  0  0  0  0  0  0  0  0  0
    6.8493   -9.4016    0.0000 C   0  0  0  0  0  0  0  0  0  0  0  0
    7.0360   -8.5980    0.0000 C   0  0  0  0  0  0  0  0  0  0  0  0
    6.5241   -7.9511    0.0000 C   0  0  2  0  0  0  0  0  0  0  0  0
    5.6991   -7.9479    0.0000 C   0  0  2  0  0  0  0  0  0  0  0  0
    4.3609   -8.5138    0.0000 C   0  0  0  0  0  0  0  0  0  0  0  0
    4.0337   -9.2712    0.0000 C   0  0  0  0  0  0  0  0  0  0  0  0
    4.6529   -9.8164    0.0000 C   0  0  0  0  0  0  0  0  0  0  0  0
    6.9393   -7.2382    0.0000 C   0  0  1  0  0  0  0  0  0  0  0  0
    6.5296   -6.5221    0.0000 C   0  0  1  0  0  0  0  0  0  0  0  0
    5.7046   -6.5190    0.0000 C   0  0  0  0  0  0  0  0  0  0  0  0
    5.2893   -7.2319    0.0000 C   0  0  1  0  0  0  0  0  0  0  0  0
    7.3546   -6.5253    0.0000 C   0  0  1  0  0  0  0  0  0  0  0  0
    3.2287   -9.4517    0.0000 C   0  0  0  0  0  0  0  0  0  0  0  0
    4.4067  -10.6038    0.0000 O   0  0  0  0  0  0  0  0  0  0  0  0
    7.5462   -9.8432    0.0000 C   0  0  0  0  0  0  0  0  0  0  0  0
    6.5636   -5.6978    0.0000 O   0  0  0  0  0  0  0  0  0  0  0  0
    4.4650   -7.1978    0.0000 C   0  0  0  0  0  0  0  0  0  0  0  0
    7.7572   -5.8052    0.0000 C   0  0  0  0  0  0  0  0  0  0  0  0
    8.1795   -6.5140    0.0000 C   0  0  0  0  0  0  0  0  0  0  0  0
    5.4826  -10.2122    0.0000 O   0  0  0  0  0  0  0  0  0  0  0  0
    5.8667   -5.2562    0.0000 C   0  0  0  0  0  0  0  0  0  0  0  0
    5.1358   -5.6389    0.0000 O   0  0  0  0  0  0  0  0  0  0  0  0
    5.9007   -4.4319    0.0000 C   0  0  0  0  0  0  0  0  0  0  0  0
    8.2771   -9.4605    0.0000 O   0  0  0  0  0  0  0  0  0  0  0  0
    4.8766   -7.8831    0.0000 O   0  0  0  0  0  0  0  0  0  0  0  0
    7.3491   -7.9511    0.0000 H   0  0  0  0  0  0  0  0  0  0  0  0
    7.6538   -7.6507    0.0000 H   0  0  0  0  0  0  0  0  0  0  0  0
    8.9931   -9.8703    0.0000 C   0  0  0  0  0  0  0  0  0  0  0  0
    9.7060   -9.4551    0.0000 C   0  0  0  0  0  0  0  0  0  0  0  0
    8.9962  -10.6953    0.0000 O   0  0  0  0  0  0  0  0  0  0  0  0
   10.4220   -9.8649    0.0000 C   0  0  0  0  0  0  0  0  0  0  0  0
   11.1349   -9.4496    0.0000 C   0  0  0  0  0  0  0  0  0  0  0  0
    9.7028   -8.6301    0.0000 C   0  0  0  0  0  0  0  0  0  0  0  0
  1  2  1  0  0  0  0
  2  3  1  0  0  0  0
  3  4  1  0  0  0  0
  4  5  2  0  0  0  0
  5  6  1  0  0  0  0
  6  7  1  0  0  0  0
  7  1  1  0  0  0  0
  1  8  1  0  0  0  0
  8  9  2  0  0  0  0
  9 10  1  0  0  0  0
 10  2  1  0  0  0  0
  6 11  1  0  0  0  0
 11 12  1  0  0  0  0
 12 13  1  0  0  0  0
 13 14  1  0  0  0  0
 14  7  1  0  0  0  0
 11 15  1  0  0  0  0
 15 12  1  0  0  0  0
  9 16  1  0  0  0  0
 10 17  2  0  0  0  0
  4 18  1  0  0  0  0
 12 19  1  6  0  0  0
 14 20  1  6  0  0  0
 15 21  1  1  0  0  0
 15 22  1  6  0  0  0
  2 23  1  1  0  0  0
 19 24  1  0  0  0  0
 24 25  2  0  0  0  0
 24 26  1  0  0  0  0
 18 27  1  0  0  0  0
  7 28  1  6  0  0  0
  6 29  1  1  0  0  0
 11 30  1  6  0  0  0
 27 31  1  0  0  0  0
 31 32  1  0  0  0  0
 31 33  2  0  0  0  0
 32 34  1  0  0  0  0
 34 35  1  0  0  0  0
 32 36  1  0  0  0  0
M  END
>  <cdx:fragmentId>
29

$$$$
