971798.cdx
  Mrv1902 05222410192D          

 22 24  0  0  0  0            999 V2000
    6.1070   -9.6132    0.0000 C   0  0  0  0  0  0  0  0  0  0  0  0
    5.2820   -9.6194    0.0000 C   0  0  0  0  0  0  0  0  0  0  0  0
    9.2337   -5.1627    0.0000 C   0  0  0  0  0  0  0  0  0  0  0  0
    9.2399   -5.9877    0.0000 C   0  0  0  0  0  0  0  0  0  0  0  0
    9.9574   -6.3949    0.0000 C   0  0  0  0  0  0  0  0  0  0  0  0
    5.6707   -6.4269    0.0000 O   0  0  0  0  0  0  0  0  0  0  0  0
    6.3821   -6.0091    0.0000 O   0  0  0  0  0  0  0  0  0  0  0  0
    7.8048   -5.1734    0.0000 O   0  0  0  0  0  0  0  0  0  0  0  0
    7.8233   -7.6483    0.0000 C   0  0  0  0  0  0  0  0  0  0  0  0
    7.8295   -8.4733    0.0000 C   0  0  0  0  0  0  0  0  0  0  0  0
    7.1181   -8.8911    0.0000 C   0  0  0  0  0  0  0  0  0  0  0  0
    6.4006   -8.4840    0.0000 C   0  0  0  0  0  0  0  0  0  0  0  0
    5.6892   -8.9018    0.0000 C   0  0  0  0  0  0  0  0  0  0  0  0
    4.9717   -8.4947    0.0000 C   0  0  0  0  0  0  0  0  0  0  0  0
    4.9655   -7.6697    0.0000 C   0  0  0  0  0  0  0  0  0  0  0  0
    5.6769   -7.2519    0.0000 C   0  0  0  0  0  0  0  0  0  0  0  0
    6.3944   -7.6590    0.0000 C   0  0  0  0  0  0  0  0  0  0  0  0
    7.1058   -7.2412    0.0000 C   0  0  0  0  0  0  0  0  0  0  0  0
    7.0996   -6.4162    0.0000 C   0  0  0  0  0  0  0  0  0  0  0  0
    7.8110   -5.9984    0.0000 C   0  0  0  0  0  0  0  0  0  0  0  0
    8.5285   -6.4055    0.0000 C   0  0  0  0  0  0  0  0  0  0  0  0
    8.5347   -7.2305    0.0000 C   0  0  0  0  0  0  0  0  0  0  0  0
 13  1  1  0  0  0  0
 13  2  1  0  0  0  0
 21  4  1  0  0  0  0
  4  3  1  0  0  0  0
  5  4  1  0  0  0  0
 16  6  2  0  0  0  0
 19  7  2  0  0  0  0
 20  8  2  0  0  0  0
 18  9  2  0  0  0  0
 22  9  1  0  0  0  0
 10  9  1  0  0  0  0
 11 10  2  0  0  0  0
 12 11  1  0  0  0  0
 17 12  2  0  0  0  0
 13 12  1  0  0  0  0
 14 13  1  0  0  0  0
 15 14  1  0  0  0  0
 16 15  1  0  0  0  0
 17 16  1  0  0  0  0
 18 17  1  0  0  0  0
 19 18  1  0  0  0  0
 20 19  1  0  0  0  0
 21 20  1  0  0  0  0
 22 21  2  0  0  0  0
M  END
>  <cdx:fragmentId>
33293

$$$$
