97177.cdx
  Mrv1902 05222410192D          

 23 26  0  0  0  0            999 V2000
    8.0477   -5.6677    0.0000 C   0  0  0  0  0  0  0  0  0  0  0  0
    8.8547   -5.4962    0.0000 C   0  0  0  0  0  0  0  0  0  0  0  0
    9.1097   -4.7116    0.0000 N   0  0  0  0  0  0  0  0  0  0  0  0
    8.5576   -4.0985    0.0000 C   0  0  0  0  0  0  0  0  0  0  0  0
    8.6945   -3.2848    0.0000 C   0  0  0  0  0  0  0  0  0  0  0  0
    8.0742   -2.7408    0.0000 C   0  0  0  0  0  0  0  0  0  0  0  0
    7.2863   -2.9854    0.0000 C   0  0  0  0  0  0  0  0  0  0  0  0
    7.0832   -3.7851    0.0000 N   0  0  0  0  0  0  0  0  0  0  0  0
    6.4158   -4.2700    0.0000 C   0  0  0  0  0  0  0  0  0  0  0  0
    5.6088   -4.0985    0.0000 C   0  0  0  0  0  0  0  0  0  0  0  0
    5.0568   -4.7116    0.0000 C   0  0  0  0  0  0  0  0  0  0  0  0
    5.3117   -5.4962    0.0000 C   0  0  0  0  0  0  0  0  0  0  0  0
    6.1187   -5.6677    0.0000 C   0  0  0  0  0  0  0  0  0  0  0  0
    6.6707   -5.0546    0.0000 C   0  0  0  0  0  0  0  0  0  0  0  0
    7.4957   -5.0546    0.0000 C   0  0  0  0  0  0  0  0  0  0  0  0
    7.7507   -4.2700    0.0000 C   0  0  0  0  0  0  0  0  0  0  0  0
    6.6879   -2.4176    0.0000 O   0  0  0  0  0  0  0  0  0  0  0  0
    9.4716   -3.0080    0.0000 C   0  0  0  0  0  0  0  0  0  0  0  0
   10.0999   -3.5427    0.0000 C   0  0  0  0  0  0  0  0  0  0  0  0
   10.8771   -3.2659    0.0000 C   0  0  0  0  0  0  0  0  0  0  0  0
   11.5054   -3.8005    0.0000 C   0  0  0  0  0  0  0  0  0  0  0  0
   12.2826   -3.5238    0.0000 O   0  0  0  0  0  0  0  0  0  0  0  0
   11.3565   -4.6120    0.0000 O   0  0  0  0  0  0  0  0  0  0  0  0
  1  2  1  0  0  0  0
  2  3  2  0  0  0  0
  3  4  1  0  0  0  0
  4  5  1  0  0  0  0
  5  6  2  0  0  0  0
  6  7  1  0  0  0  0
  7  8  1  0  0  0  0
  8  9  1  0  0  0  0
  9 10  1  0  0  0  0
 10 11  2  0  0  0  0
 11 12  1  0  0  0  0
 12 13  2  0  0  0  0
 13 14  1  0  0  0  0
  9 14  2  0  0  0  0
 14 15  1  0  0  0  0
  1 15  2  0  0  0  0
 15 16  1  0  0  0  0
  4 16  2  0  0  0  0
  8 16  1  0  0  0  0
  7 17  2  0  0  0  0
  5 18  1  0  0  0  0
 18 19  1  0  0  0  0
 19 20  1  0  0  0  0
 20 21  1  0  0  0  0
 21 22  1  0  0  0  0
 21 23  2  0  0  0  0
M  END
>  <cdx:fragmentId>
5

$$$$
