76972186.cdx
  Mrv1902 05222410232D          

 47 53  0  0  0  0            999 V2000
    8.5296   -8.0728    0.0000 C   0  0  0  0  0  0  0  0  0  0  0  0
    9.3454   -7.9498    0.0000 C   0  0  0  0  0  0  0  0  0  0  0  0
    8.2282   -8.8408    0.0000 O   0  0  0  0  0  0  0  0  0  0  0  0
    8.0153   -7.4278    0.0000 O   0  0  0  0  0  0  0  0  0  0  0  0
    9.8598   -8.5948    0.0000 C   0  0  0  0  0  0  0  0  0  0  0  0
   10.6756   -8.4719    0.0000 C   0  0  0  0  0  0  0  0  0  0  0  0
   11.1900   -9.1169    0.0000 C   0  0  0  0  0  0  0  0  0  0  0  0
   10.8886   -9.8849    0.0000 C   0  0  0  0  0  0  0  0  0  0  0  0
   10.0728  -10.0078    0.0000 C   0  0  0  0  0  0  0  0  0  0  0  0
    9.5584   -9.3628    0.0000 C   0  0  0  0  0  0  0  0  0  0  0  0
   11.4029  -10.5299    0.0000 O   0  0  0  0  0  0  0  0  0  0  0  0
    7.1995   -7.5507    0.0000 C   0  0  0  0  0  0  0  0  0  0  0  0
    5.8808   -5.2355    0.0000 C   0  0  2  0  0  0  0  0  0  0  0  0
    5.2358   -5.7499    0.0000 C   0  0  2  0  0  0  0  0  0  0  0  0
    4.4511   -5.4950    0.0000 C   0  0  0  0  0  0  0  0  0  0  0  0
    3.9662   -6.1624    0.0000 C   0  0  0  0  0  0  0  0  0  0  0  0
    4.4511   -6.8299    0.0000 C   0  0  0  0  0  0  0  0  0  0  0  0
    5.2358   -6.5749    0.0000 C   0  0  1  0  0  0  0  0  0  0  0  0
    5.8808   -7.0893    0.0000 C   0  0  0  0  0  0  0  0  0  0  0  0
    6.6851   -6.9057    0.0000 C   0  0  0  0  0  0  0  0  0  0  0  0
    7.0430   -6.1624    0.0000 C   0  0  0  0  0  0  0  0  0  0  0  0
    6.6851   -5.4191    0.0000 C   0  0  1  0  0  0  0  0  0  0  0  0
    7.2462   -4.8144    0.0000 C   0  0  1  0  0  0  0  0  0  0  0  0
    8.0711   -4.8267    0.0000 O   0  0  0  0  0  0  0  0  0  0  0  0
    8.3378   -4.0460    0.0000 C   0  0  2  0  0  0  0  0  0  0  0  0
    7.6777   -3.5511    0.0000 O   0  0  0  0  0  0  0  0  0  0  0  0
    7.0031   -4.0260    0.0000 C   0  0  1  0  0  0  0  0  0  0  0  0
    6.1987   -3.8424    0.0000 C   0  0  0  0  0  0  0  0  0  0  0  0
    5.6376   -4.4472    0.0000 C   0  0  1  0  0  0  0  0  0  0  0  0
    8.3553   -5.0753    0.0000 O   0  0  0  0  0  0  0  0  0  0  0  0
    7.4649   -2.6738    0.0000 C   0  0  0  0  0  0  0  0  0  0  0  0
    6.8436   -3.2166    0.0000 C   0  0  0  0  0  0  0  0  0  0  0  0
    6.0629   -2.9499    0.0000 C   0  0  0  0  0  0  0  0  0  0  0  0
    4.1962   -7.6145    0.0000 O   0  0  0  0  0  0  0  0  0  0  0  0
    4.8333   -4.2636    0.0000 C   0  0  0  0  0  0  0  0  0  0  0  0
    3.1412   -6.1624    0.0000 C   0  0  0  0  0  0  0  0  0  0  0  0
    5.0885   -7.3867    0.0000 O   0  0  0  0  0  0  0  0  0  0  0  0
    9.0523   -3.6335    0.0000 C   0  0  0  0  0  0  0  0  0  0  0  0
    9.7667   -4.0460    0.0000 C   0  0  0  0  0  0  0  0  0  0  0  0
   10.4812   -3.6335    0.0000 C   0  0  0  0  0  0  0  0  0  0  0  0
   11.1957   -4.0460    0.0000 C   0  0  0  0  0  0  0  0  0  0  0  0
   11.1957   -4.8710    0.0000 C   0  0  0  0  0  0  0  0  0  0  0  0
   10.4812   -5.2835    0.0000 C   0  0  0  0  0  0  0  0  0  0  0  0
    9.7667   -4.8710    0.0000 C   0  0  0  0  0  0  0  0  0  0  0  0
    5.0885   -4.9382    0.0000 H   0  0  0  0  0  0  0  0  0  0  0  0
    6.1707   -6.0641    0.0000 H   0  0  0  0  0  0  0  0  0  0  0  0
    6.4419   -4.6308    0.0000 H   0  0  0  0  0  0  0  0  0  0  0  0
  1  2  1  0  0  0  0
  1  3  2  0  0  0  0
  1  4  1  0  0  0  0
  5  6  1  0  0  0  0
  6  7  2  0  0  0  0
  7  8  1  0  0  0  0
  8  9  2  0  0  0  0
  9 10  1  0  0  0  0
  5 10  2  0  0  0  0
  8 11  1  0  0  0  0
  2  5  1  0  0  0  0
 13 14  1  0  0  0  0
 14 15  1  0  0  0  0
 15 16  2  0  0  0  0
 16 17  1  0  0  0  0
 17 18  1  0  0  0  0
 18 19  1  0  0  0  0
 19 20  1  0  0  0  0
 20 21  2  0  0  0  0
 21 22  1  0  0  0  0
 22 23  1  0  0  0  0
 23 24  1  0  0  0  0
 25 24  1  1  0  0  0
 25 26  1  0  0  0  0
 26 27  1  0  0  0  0
 27 28  1  0  0  0  0
 28 29  1  0  0  0  0
 13 29  1  0  0  0  0
 13 30  1  6  0  0  0
 30 25  1  0  0  0  0
 23 27  1  0  0  0  0
 13 22  1  0  0  0  0
 14 18  1  0  0  0  0
 31 32  2  0  0  0  0
 32 33  1  0  0  0  0
 27 32  1  1  0  0  0
 17 34  2  0  0  0  0
 29 35  1  6  0  0  0
 16 36  1  0  0  0  0
 18 37  1  1  0  0  0
 38 39  1  0  0  0  0
 39 40  1  0  0  0  0
 40 41  2  0  0  0  0
 41 42  1  0  0  0  0
 42 43  2  0  0  0  0
 43 44  1  0  0  0  0
 39 44  2  0  0  0  0
 25 38  1  0  0  0  0
 12 20  1  0  0  0  0
  4 12  1  0  0  0  0
 14 45  1  6  0  0  0
 22 46  1  1  0  0  0
 23 47  1  1  0  0  0
M  END
>  <cdx:groupId>
149

>  <cdx:fragmentId>
29

$$$$
