97214.cdx
  Mrv1902 05222410182D          

 25 27  0  0  0  0            999 V2000
    6.5447   -3.7202    0.0000 C   0  0  0  0  0  0  0  0  0  0  0  0
    6.5447   -4.5452    0.0000 C   0  0  0  0  0  0  0  0  0  0  0  0
    5.8303   -4.9577    0.0000 C   0  0  0  0  0  0  0  0  0  0  0  0
    5.8303   -5.7827    0.0000 O   0  0  0  0  0  0  0  0  0  0  0  0
    5.1158   -4.5452    0.0000 C   0  0  0  0  0  0  0  0  0  0  0  0
    4.4013   -4.9577    0.0000 C   0  0  0  0  0  0  0  0  0  0  0  0
    4.4013   -5.7827    0.0000 O   0  0  0  0  0  0  0  0  0  0  0  0
    3.6869   -4.5452    0.0000 C   0  0  0  0  0  0  0  0  0  0  0  0
    2.9724   -4.9577    0.0000 O   0  0  0  0  0  0  0  0  0  0  0  0
    2.2579   -4.5452    0.0000 C   0  0  0  0  0  0  0  0  0  0  0  0
    3.6869   -3.7202    0.0000 C   0  0  0  0  0  0  0  0  0  0  0  0
    2.9724   -3.3077    0.0000 O   0  0  0  0  0  0  0  0  0  0  0  0
    2.2579   -3.7202    0.0000 C   0  0  0  0  0  0  0  0  0  0  0  0
    4.4013   -3.3077    0.0000 C   0  0  0  0  0  0  0  0  0  0  0  0
    5.1158   -3.7202    0.0000 C   0  0  0  0  0  0  0  0  0  0  0  0
    5.8303   -3.3077    0.0000 O   0  0  0  0  0  0  0  0  0  0  0  0
    7.2592   -3.3077    0.0000 C   0  0  0  0  0  0  0  0  0  0  0  0
    7.9737   -3.7202    0.0000 C   0  0  0  0  0  0  0  0  0  0  0  0
    8.6881   -3.3077    0.0000 C   0  0  0  0  0  0  0  0  0  0  0  0
    9.4026   -3.7202    0.0000 O   0  0  0  0  0  0  0  0  0  0  0  0
    8.6881   -2.4827    0.0000 C   0  0  0  0  0  0  0  0  0  0  0  0
    9.4026   -2.0702    0.0000 O   0  0  0  0  0  0  0  0  0  0  0  0
   10.1171   -2.4827    0.0000 C   0  0  0  0  0  0  0  0  0  0  0  0
    7.9737   -2.0702    0.0000 C   0  0  0  0  0  0  0  0  0  0  0  0
    7.2592   -2.4827    0.0000 C   0  0  0  0  0  0  0  0  0  0  0  0
  1  2  2  0  0  0  0
  2  3  1  0  0  0  0
  3  4  2  0  0  0  0
  3  5  1  0  0  0  0
  5  6  1  0  0  0  0
  6  7  1  0  0  0  0
  6  8  2  0  0  0  0
  8  9  1  0  0  0  0
  9 10  1  0  0  0  0
  8 11  1  0  0  0  0
 11 12  1  0  0  0  0
 12 13  1  0  0  0  0
 11 14  2  0  0  0  0
 14 15  1  0  0  0  0
  5 15  2  0  0  0  0
 15 16  1  0  0  0  0
  1 16  1  0  0  0  0
  1 17  1  0  0  0  0
 17 18  1  0  0  0  0
 18 19  2  0  0  0  0
 19 20  1  0  0  0  0
 19 21  1  0  0  0  0
 21 22  1  0  0  0  0
 22 23  1  0  0  0  0
 21 24  2  0  0  0  0
 24 25  1  0  0  0  0
 17 25  2  0  0  0  0
M  END
>  <cdx:groupId>
79

>  <cdx:fragmentId>
5

$$$$
