972303.cdx
  Mrv1902 05222410272D          

 28 30  0  0  0  0            999 V2000
    6.6284   -9.4512    0.0000 O   0  0  0  0  0  0  0  0  0  0  0  0
    6.6284   -8.6262    0.0000 C   0  0  0  0  0  0  0  0  0  0  0  0
    5.9139   -8.2137    0.0000 C   0  0  0  0  0  0  0  0  0  0  0  0
    5.9139   -7.3887    0.0000 C   0  0  0  0  0  0  0  0  0  0  0  0
    6.6284   -6.9762    0.0000 C   0  0  0  0  0  0  0  0  0  0  0  0
    7.3428   -7.3887    0.0000 C   0  0  0  0  0  0  0  0  0  0  0  0
    7.3428   -8.2137    0.0000 C   0  0  0  0  0  0  0  0  0  0  0  0
    6.6284   -6.1512    0.0000 C   0  0  0  0  0  0  0  0  0  0  0  0
    3.0560   -9.8637    0.0000 O   0  0  0  0  0  0  0  0  0  0  0  0
    3.7705   -9.4512    0.0000 C   0  0  0  0  0  0  0  0  0  0  0  0
    6.6284  -11.1012    0.0000 O   0  0  0  0  0  0  0  0  0  0  0  0
    5.1994  -11.9262    0.0000 O   0  0  0  0  0  0  0  0  0  0  0  0
    3.7705  -11.1012    0.0000 O   0  0  0  0  0  0  0  0  0  0  0  0
    5.9139   -9.8637    0.0000 C   0  0  1  0  0  0  0  0  0  0  0  0
    5.9139  -10.6887    0.0000 C   0  0  1  0  0  0  0  0  0  0  0  0
    5.1994  -11.1012    0.0000 C   0  0  2  0  0  0  0  0  0  0  0  0
    4.4849  -10.6887    0.0000 C   0  0  1  0  0  0  0  0  0  0  0  0
    4.4849   -9.8637    0.0000 C   0  0  2  0  0  0  0  0  0  0  0  0
    5.1994   -9.4512    0.0000 O   0  0  0  0  0  0  0  0  0  0  0  0
    7.3428   -5.7387    0.0000 O   0  0  0  0  0  0  0  0  0  0  0  0
    7.3428   -4.9137    0.0000 C   0  0  0  0  0  0  0  0  0  0  0  0
    8.0573   -4.5012    0.0000 C   0  0  0  0  0  0  0  0  0  0  0  0
    8.7718   -4.9137    0.0000 C   0  0  0  0  0  0  0  0  0  0  0  0
    9.4862   -4.5012    0.0000 C   0  0  0  0  0  0  0  0  0  0  0  0
    9.4862   -3.6762    0.0000 C   0  0  0  0  0  0  0  0  0  0  0  0
    8.7718   -3.2637    0.0000 C   0  0  0  0  0  0  0  0  0  0  0  0
    8.0573   -3.6762    0.0000 C   0  0  0  0  0  0  0  0  0  0  0  0
   10.2007   -3.2637    0.0000 O   0  0  0  0  0  0  0  0  0  0  0  0
 18 10  1  1  0  0  0
 10  9  1  0  0  0  0
 14  1  1  1  0  0  0
 15 11  1  6  0  0  0
 16 12  1  1  0  0  0
 17 13  1  6  0  0  0
 19 14  1  0  0  0  0
 15 14  1  0  0  0  0
 16 15  1  0  0  0  0
 17 16  1  0  0  0  0
 18 17  1  0  0  0  0
 19 18  1  0  0  0  0
  2  3  1  0  0  0  0
  3  4  2  0  0  0  0
  4  5  1  0  0  0  0
  5  6  2  0  0  0  0
  6  7  1  0  0  0  0
  2  7  2  0  0  0  0
  1  2  1  0  0  0  0
  5  8  1  0  0  0  0
  8 20  1  0  0  0  0
 20 21  1  0  0  0  0
 21 22  1  0  0  0  0
 22 23  2  0  0  0  0
 23 24  1  0  0  0  0
 24 25  2  0  0  0  0
 25 26  1  0  0  0  0
 26 27  2  0  0  0  0
 27 22  1  0  0  0  0
 25 28  1  0  0  0  0
M  END
>  <cdx:groupId>
84620

>  <cdx:fragmentId>
84575

$$$$
