11972318.cdx
  Mrv1902 05222410202D          

 40 42  0  0  0  0            999 V2000
   11.5303  -13.8590    0.0000 O   0  0  0  0  0  0  0  0  0  0  0  0
   10.8159  -14.2715    0.0000 C   0  0  2  0  0  0  0  0  0  0  0  0
   10.1014  -13.8590    0.0000 C   0  0  1  0  0  0  0  0  0  0  0  0
   10.1014  -13.0340    0.0000 C   0  0  2  0  0  0  0  0  0  0  0  0
   10.8159  -12.6215    0.0000 C   0  0  1  0  0  0  0  0  0  0  0  0
   11.5303  -13.0340    0.0000 C   0  0  1  0  0  0  0  0  0  0  0  0
    9.3869  -14.2715    0.0000 O   0  0  0  0  0  0  0  0  0  0  0  0
    9.3869  -12.6215    0.0000 O   0  0  0  0  0  0  0  0  0  0  0  0
   10.8159  -11.7965    0.0000 O   0  0  0  0  0  0  0  0  0  0  0  0
   12.2448  -12.6215    0.0000 C   0  0  0  0  0  0  0  0  0  0  0  0
   12.9593  -13.0340    0.0000 O   0  0  0  0  0  0  0  0  0  0  0  0
   10.8159  -15.0965    0.0000 O   0  0  0  0  0  0  0  0  0  0  0  0
   10.1014  -15.5090    0.0000 C   0  0  0  0  0  0  0  0  0  0  0  0
   10.1014  -16.3340    0.0000 C   0  0  0  0  0  0  0  0  0  0  0  0
    9.3869  -16.7465    0.0000 C   0  0  0  0  0  0  0  0  0  0  0  0
    8.6724  -16.3340    0.0000 C   0  0  0  0  0  0  0  0  0  0  0  0
    8.6724  -15.5090    0.0000 C   0  0  0  0  0  0  0  0  0  0  0  0
    9.3869  -15.0965    0.0000 C   0  0  0  0  0  0  0  0  0  0  0  0
   10.8159  -16.7465    0.0000 O   0  0  0  0  0  0  0  0  0  0  0  0
   11.5303  -16.3340    0.0000 C   0  0  0  0  0  0  0  0  0  0  0  0
    7.9580  -16.7465    0.0000 C   0  0  0  0  0  0  0  0  0  0  0  0
    7.2435  -16.3340    0.0000 C   0  0  0  0  0  0  0  0  0  0  0  0
    7.2435  -15.5090    0.0000 C   0  0  0  0  0  0  0  0  0  0  0  0
    6.5290  -16.7465    0.0000 O   0  0  0  0  0  0  0  0  0  0  0  0
    5.8146  -16.3340    0.0000 C   0  0  0  0  0  0  0  0  0  0  0  0
    5.1001  -16.7465    0.0000 C   0  0  0  0  0  0  0  0  0  0  0  0
    4.3856  -16.3340    0.0000 C   0  0  0  0  0  0  0  0  0  0  0  0
    4.3856  -15.5090    0.0000 C   0  0  0  0  0  0  0  0  0  0  0  0
    5.1001  -15.0965    0.0000 C   0  0  0  0  0  0  0  0  0  0  0  0
    5.8146  -15.5090    0.0000 C   0  0  0  0  0  0  0  0  0  0  0  0
    6.5290  -15.0965    0.0000 O   0  0  0  0  0  0  0  0  0  0  0  0
    6.5290  -14.2715    0.0000 C   0  0  0  0  0  0  0  0  0  0  0  0
    5.1001  -17.5715    0.0000 O   0  0  0  0  0  0  0  0  0  0  0  0
    4.3856  -17.9840    0.0000 C   0  0  0  0  0  0  0  0  0  0  0  0
    3.6711  -15.0965    0.0000 C   0  0  0  0  0  0  0  0  0  0  0  0
    2.9567  -15.5090    0.0000 C   0  0  0  0  0  0  0  0  0  0  0  0
    2.2422  -15.0965    0.0000 C   0  0  0  0  0  0  0  0  0  0  0  0
    1.5277  -15.5090    0.0000 O   0  0  0  0  0  0  0  0  0  0  0  0
    7.9580  -15.0965    0.0000 O   0  0  0  0  0  0  0  0  0  0  0  0
    7.9580  -17.5715    0.0000 O   0  0  0  0  0  0  0  0  0  0  0  0
  1  2  1  0  0  0  0
  2  3  1  0  0  0  0
  3  4  1  0  0  0  0
  4  5  1  0  0  0  0
  5  6  1  0  0  0  0
  1  6  1  0  0  0  0
  3  7  1  6  0  0  0
  4  8  1  1  0  0  0
  5  9  1  6  0  0  0
 10 11  1  0  0  0  0
  6 10  1  1  0  0  0
 13 14  1  0  0  0  0
 14 15  2  0  0  0  0
 15 16  1  0  0  0  0
 16 17  2  0  0  0  0
 17 18  1  0  0  0  0
 13 18  2  0  0  0  0
 12 13  1  0  0  0  0
 19 20  1  0  0  0  0
 14 19  1  0  0  0  0
 21 22  1  0  0  0  0
 22 23  1  0  0  0  0
 25 26  1  0  0  0  0
 26 27  2  0  0  0  0
 27 28  1  0  0  0  0
 28 29  2  0  0  0  0
 29 30  1  0  0  0  0
 25 30  2  0  0  0  0
 24 25  1  0  0  0  0
 31 32  1  0  0  0  0
 30 31  1  0  0  0  0
 33 34  1  0  0  0  0
 26 33  1  0  0  0  0
 35 36  2  0  0  0  0
 36 37  1  0  0  0  0
 37 38  1  0  0  0  0
 28 35  1  0  0  0  0
 22 24  1  0  0  0  0
 23 39  1  0  0  0  0
 21 40  1  0  0  0  0
 16 21  1  0  0  0  0
  2 12  1  1  0  0  0
M  END
>  <cdx:groupId>
84749

>  <cdx:fragmentId>
84678

$$$$
