972358.cdx
  Mrv1902 05222410242D          

 39 41  0  0  0  0            999 V2000
    3.4619  -10.7126    0.0000 C   0  0  2  0  0  0  0  0  0  0  0  0
    3.4619  -11.5374    0.0000 C   0  0  2  0  0  0  0  0  0  0  0  0
    4.1762  -11.9498    0.0000 C   0  0  1  0  0  0  0  0  0  0  0  0
    4.8904  -11.5374    0.0000 C   0  0  2  0  0  0  0  0  0  0  0  0
    4.8904  -10.7126    0.0000 C   0  0  2  0  0  0  0  0  0  0  0  0
    4.1762  -10.3003    0.0000 O   0  0  0  0  0  0  0  0  0  0  0  0
    2.7477  -10.3003    0.0000 C   0  0  0  0  0  0  0  0  0  0  0  0
    4.1762  -12.7745    0.0000 O   0  0  0  0  0  0  0  0  0  0  0  0
    2.7477  -11.9498    0.0000 O   0  0  0  0  0  0  0  0  0  0  0  0
    5.6047  -11.9498    0.0000 O   0  0  0  0  0  0  0  0  0  0  0  0
    2.0334  -10.7126    0.0000 O   0  0  0  0  0  0  0  0  0  0  0  0
    7.8013   -8.0433    0.0000 O   0  0  0  0  0  0  0  0  0  0  0  0
    7.7965   -8.8680    0.0000 C   0  0  0  0  0  0  0  0  0  0  0  0
    8.5083   -9.2845    0.0000 C   0  0  0  0  0  0  0  0  0  0  0  0
    9.2250   -8.8763    0.0000 C   0  0  0  0  0  0  0  0  0  0  0  0
   12.0867   -8.0682    0.0000 C   0  0  0  0  0  0  0  0  0  0  0  0
   12.0819   -8.8929    0.0000 O   0  0  0  0  0  0  0  0  0  0  0  0
   12.7889  -10.1341    0.0000 C   0  0  0  0  0  0  0  0  0  0  0  0
   12.0723  -10.5424    0.0000 O   0  0  0  0  0  0  0  0  0  0  0  0
    9.9224  -11.7670    0.0000 C   0  0  0  0  0  0  0  0  0  0  0  0
   10.6390  -11.3588    0.0000 O   0  0  0  0  0  0  0  0  0  0  0  0
   10.6438  -10.5341    0.0000 C   0  0  0  0  0  0  0  0  0  0  0  0
   11.3605  -10.1258    0.0000 C   0  0  0  0  0  0  0  0  0  0  0  0
   11.3653   -9.3011    0.0000 C   0  0  0  0  0  0  0  0  0  0  0  0
   10.6534   -8.8846    0.0000 C   0  0  0  0  0  0  0  0  0  0  0  0
    9.9368   -9.2928    0.0000 C   0  0  0  0  0  0  0  0  0  0  0  0
    9.9320  -10.1176    0.0000 C   0  0  0  0  0  0  0  0  0  0  0  0
    6.3189  -10.7126    0.0000 O   0  0  0  0  0  0  0  0  0  0  0  0
    6.3189   -9.8879    0.0000 C   0  0  0  0  0  0  0  0  0  0  0  0
    3.8873   -7.6254    0.0000 O   0  0  0  0  0  0  0  0  0  0  0  0
    6.5018   -7.5392    0.0000 O   0  0  0  0  0  0  0  0  0  0  0  0
    7.0563   -9.2456    0.0000 O   0  0  0  0  0  0  0  0  0  0  0  0
    4.7075   -7.5392    0.0000 C   0  0  0  0  0  0  0  0  0  0  0  0
    6.2719   -8.9908    0.0000 C   0  0  1  0  0  0  0  0  0  0  0  0
    6.0170   -8.2064    0.0000 C   0  0  1  0  0  0  0  0  0  0  0  0
    5.1923   -8.2064    0.0000 C   0  0  2  0  0  0  0  0  0  0  0  0
    4.9375   -8.9908    0.0000 O   0  0  0  0  0  0  0  0  0  0  0  0
    5.6047   -9.4755    0.0000 C   0  0  2  0  0  0  0  0  0  0  0  0
    5.6047  -10.3003    0.0000 O   0  0  0  0  0  0  0  0  0  0  0  0
  1  2  1  0  0  0  0
  2  3  1  0  0  0  0
  3  4  1  0  0  0  0
  4  5  1  0  0  0  0
  5  6  1  0  0  0  0
  6  1  1  0  0  0  0
  1  7  1  1  0  0  0
  3  8  1  1  0  0  0
  2  9  1  6  0  0  0
  4 10  1  6  0  0  0
 13 32  1  0  0  0  0
  5 39  1  6  0  0  0
  7 11  1  0  0  0  0
 13 12  2  0  0  0  0
 14 13  1  0  0  0  0
 15 14  2  0  0  0  0
 26 15  1  0  0  0  0
 17 16  1  0  0  0  0
 24 17  1  0  0  0  0
 19 18  1  0  0  0  0
 23 19  1  0  0  0  0
 21 20  1  0  0  0  0
 22 21  1  0  0  0  0
 22 27  1  0  0  0  0
 23 22  2  0  0  0  0
 24 23  1  0  0  0  0
 25 24  2  0  0  0  0
 26 25  1  0  0  0  0
 27 26  2  0  0  0  0
 29 28  1  0  0  0  0
 38 29  1  1  0  0  0
 33 30  1  0  0  0  0
 35 31  1  1  0  0  0
 34 32  1  6  0  0  0
 36 33  1  6  0  0  0
 34 38  1  0  0  0  0
 35 34  1  0  0  0  0
 36 35  1  0  0  0  0
 37 36  1  0  0  0  0
 38 37  1  0  0  0  0
 38 39  1  6  0  0  0
M  END
>  <cdx:fragmentId>
5

$$$$
