D-epigalbacine.cdx
  Mrv1902 05222410222D          

 23 27  0  0  0  0            999 V2000
    3.0446   -7.2526    0.0000 C   0  0  0  0  0  0  0  0  0  0  0  0
    3.4572   -7.9670    0.0000 C   0  0  0  0  0  0  0  0  0  0  0  0
    4.2822   -7.9668    0.0000 C   0  0  0  0  0  0  0  0  0  0  0  0
    4.6946   -7.2522    0.0000 C   0  0  0  0  0  0  0  0  0  0  0  0
    4.2819   -6.5378    0.0000 C   0  0  0  0  0  0  0  0  0  0  0  0
    3.4569   -6.5380    0.0000 C   0  0  0  0  0  0  0  0  0  0  0  0
    2.9047   -5.9250    0.0000 O   0  0  0  0  0  0  0  0  0  0  0  0
    2.1511   -6.2608    0.0000 C   0  0  0  0  0  0  0  0  0  0  0  0
    2.2375   -7.0812    0.0000 O   0  0  0  0  0  0  0  0  0  0  0  0
    5.5196   -7.2522    0.0000 C   0  0  1  0  0  0  0  0  0  0  0  0
    5.9321   -6.5377    0.0000 C   0  0  2  0  0  0  0  0  0  0  0  0
    6.7571   -6.5377    0.0000 C   0  0  2  0  0  0  0  0  0  0  0  0
    7.1696   -7.2522    0.0000 C   0  0  1  0  0  0  0  0  0  0  0  0
    7.9946   -7.2522    0.0000 C   0  0  0  0  0  0  0  0  0  0  0  0
    8.4071   -7.9667    0.0000 C   0  0  0  0  0  0  0  0  0  0  0  0
    9.2321   -7.9667    0.0000 C   0  0  0  0  0  0  0  0  0  0  0  0
    9.6446   -7.2522    0.0000 C   0  0  0  0  0  0  0  0  0  0  0  0
    9.2321   -6.5377    0.0000 C   0  0  0  0  0  0  0  0  0  0  0  0
    8.4071   -6.5377    0.0000 C   0  0  0  0  0  0  0  0  0  0  0  0
    5.3487   -5.9544    0.0000 C   0  0  0  0  0  0  0  0  0  0  0  0
    7.3404   -5.9544    0.0000 C   0  0  0  0  0  0  0  0  0  0  0  0
    6.3917   -7.8768    0.0000 O   0  0  0  0  0  0  0  0  0  0  0  0
   10.0571   -7.9667    0.0000 C   0  0  0  0  0  0  0  0  0  0  0  0
  1  2  2  0  0  0  0
  2  3  1  0  0  0  0
  3  4  2  0  0  0  0
  4  5  1  0  0  0  0
  5  6  2  0  0  0  0
  6  1  1  0  0  0  0
  6  7  1  0  0  0  0
  7  8  1  0  0  0  0
  8  9  1  0  0  0  0
  9  1  1  0  0  0  0
  4 10  1  0  0  0  0
 10 11  1  0  0  0  0
 11 12  1  0  0  0  0
 12 13  1  0  0  0  0
 13 14  1  1  0  0  0
 14 15  2  0  0  0  0
 15 16  1  0  0  0  0
 16 17  2  0  0  0  0
 17 18  1  0  0  0  0
 18 19  2  0  0  0  0
 19 14  1  0  0  0  0
 11 20  1  1  0  0  0
 12 21  1  1  0  0  0
 10 22  1  1  0  0  0
 13 22  1  1  0  0  0
 16 23  1  0  0  0  0
 17 23  1  0  0  0  0
M  END
>  <cdx:fragmentId>
5

$$$$
