972555.cdx
  Mrv1902 05222410232D          

 16 17  0  0  0  0            999 V2000
    7.7393   -8.9295    0.0000 C   0  0  0  0  0  0  0  0  0  0  0  0
    5.0344   -7.4774    0.0000 C   0  0  0  0  0  0  0  0  0  0  0  0
    7.0969   -8.1919    0.0000 C   0  0  0  0  0  0  0  0  0  0  0  0
    6.2719   -8.1919    0.0000 C   0  0  0  0  0  0  0  0  0  0  0  0
    5.8594   -7.4774    0.0000 C   0  0  0  0  0  0  0  0  0  0  0  0
    6.2719   -6.7629    0.0000 C   0  0  0  0  0  0  0  0  0  0  0  0
    7.0969   -6.7629    0.0000 C   0  0  0  0  0  0  0  0  0  0  0  0
    7.5094   -7.4774    0.0000 C   0  0  2  0  0  0  0  0  0  0  0  0
    7.9943   -6.8100    0.0000 C   0  0  0  0  0  0  0  0  0  0  0  0
    8.7789   -7.0649    0.0000 C   0  0  0  0  0  0  0  0  0  0  0  0
    8.7789   -7.8899    0.0000 C   0  0  0  0  0  0  0  0  0  0  0  0
    7.9943   -8.1449    0.0000 C   0  0  2  0  0  0  0  0  0  0  0  0
    7.4844   -5.2407    0.0000 O   0  0  0  0  0  0  0  0  0  0  0  0
    6.9324   -5.8538    0.0000 C   0  0  0  0  0  0  0  0  0  0  0  0
    7.7393   -6.0254    0.0000 C   0  0  0  0  0  0  0  0  0  0  0  0
    8.2914   -5.4123    0.0000 C   0  0  0  0  0  0  0  0  0  0  0  0
 15  9  1  0  0  0  0
 12  1  1  6  0  0  0
  5  2  1  0  0  0  0
  8  3  1  6  0  0  0
 12  8  1  0  0  0  0
  4  3  1  0  0  0  0
  5  4  1  0  0  0  0
  6  5  2  0  0  0  0
  7  6  1  0  0  0  0
  8  7  1  0  0  0  0
  9  8  1  0  0  0  0
 10  9  1  0  0  0  0
 11 10  1  0  0  0  0
 12 11  1  0  0  0  0
 15 13  1  0  0  0  0
 15 14  1  0  0  0  0
 16 15  1  0  0  0  0
M  END
>  <cdx:fragmentId>
84996

$$$$
