9727.cdx
  Mrv1902 05222410222D          

 11 11  0  0  0  0            999 V2000
    6.5619   -3.0500    0.0000 C   0  0  0  0  0  0  0  0  0  0  0  0
    6.5619   -3.8750    0.0000 C   0  0  0  0  0  0  0  0  0  0  0  0
    5.8475   -4.2875    0.0000 C   0  0  0  0  0  0  0  0  0  0  0  0
    5.1330   -3.8750    0.0000 C   0  0  0  0  0  0  0  0  0  0  0  0
    5.1330   -3.0500    0.0000 C   0  0  0  0  0  0  0  0  0  0  0  0
    5.8475   -2.6375    0.0000 C   0  0  0  0  0  0  0  0  0  0  0  0
    7.2764   -2.6375    0.0000 O   0  0  0  0  0  0  0  0  0  0  0  0
    4.4185   -4.2875    0.0000 C   0  0  0  0  0  0  0  0  0  0  0  0
    3.7041   -3.8750    0.0000 C   0  0  0  0  0  0  0  0  0  0  0  0
    2.9896   -4.2875    0.0000 N   0  0  0  0  0  0  0  0  0  0  0  0
    2.2751   -3.8750    0.0000 C   0  0  0  0  0  0  0  0  0  0  0  0
  1  2  1  0  0  0  0
  2  3  2  0  0  0  0
  3  4  1  0  0  0  0
  4  5  2  0  0  0  0
  5  6  1  0  0  0  0
  1  6  2  0  0  0  0
  1  7  1  0  0  0  0
  8  9  1  0  0  0  0
 10 11  1  0  0  0  0
  9 10  1  0  0  0  0
  4  8  1  0  0  0  0
M  END
>  <cdx:groupId>
35

>  <cdx:fragmentId>
5

$$$$
