97313.cdx
  Mrv1902 05222410222D          

 16 18  0  0  0  0            999 V2000
    9.0352   -6.8885    0.0000 C   0  0  0  0  0  0  0  0  0  0  0  0
    9.0352   -6.0635    0.0000 C   0  0  0  0  0  0  0  0  0  0  0  0
    8.3207   -5.6510    0.0000 C   0  0  0  0  0  0  0  0  0  0  0  0
    7.6062   -6.0635    0.0000 C   0  0  0  0  0  0  0  0  0  0  0  0
    7.6062   -6.8885    0.0000 C   0  0  0  0  0  0  0  0  0  0  0  0
    6.8918   -7.3010    0.0000 C   0  0  0  0  0  0  0  0  0  0  0  0
    6.1773   -6.8885    0.0000 C   0  0  0  0  0  0  0  0  0  0  0  0
    5.4628   -7.3010    0.0000 C   0  0  0  0  0  0  0  0  0  0  0  0
    5.4628   -8.1260    0.0000 C   0  0  0  0  0  0  0  0  0  0  0  0
    6.1773   -8.5385    0.0000 C   0  0  0  0  0  0  0  0  0  0  0  0
    6.8918   -8.1260    0.0000 C   0  0  0  0  0  0  0  0  0  0  0  0
    7.6062   -8.5385    0.0000 C   0  0  0  0  0  0  0  0  0  0  0  0
    8.3207   -8.1260    0.0000 C   0  0  0  0  0  0  0  0  0  0  0  0
    8.3207   -7.3010    0.0000 C   0  0  0  0  0  0  0  0  0  0  0  0
    8.3207   -4.8260    0.0000 O   0  0  0  0  0  0  0  0  0  0  0  0
    6.8918   -5.6510    0.0000 O   0  0  0  0  0  0  0  0  0  0  0  0
  1  2  2  0  0  0  0
  2  3  1  0  0  0  0
  3  4  1  0  0  0  0
  4  5  1  0  0  0  0
  5  6  1  0  0  0  0
  6  7  1  0  0  0  0
  7  8  2  0  0  0  0
  8  9  1  0  0  0  0
  9 10  2  0  0  0  0
 10 11  1  0  0  0  0
  6 11  2  0  0  0  0
 11 12  1  0  0  0  0
 12 13  2  0  0  0  0
 13 14  1  0  0  0  0
  1 14  1  0  0  0  0
  5 14  2  0  0  0  0
  3 15  2  0  0  0  0
  4 16  2  0  0  0  0
M  END
>  <cdx:groupId>
52

>  <cdx:fragmentId>
5

$$$$
