97332.cdx
  Mrv1902 05222410252D          

 27 29  0  0  0  0            999 V2000
    7.4412   -6.4023    0.0000 C   0  0  0  0  0  0  0  0  0  0  0  0
    7.4412   -7.2273    0.0000 C   0  0  0  0  0  0  0  0  0  0  0  0
    6.7268   -7.6398    0.0000 C   0  0  0  0  0  0  0  0  0  0  0  0
    6.7268   -8.4648    0.0000 O   0  0  0  0  0  0  0  0  0  0  0  0
    6.0123   -7.2273    0.0000 C   0  0  0  0  0  0  0  0  0  0  0  0
    5.2978   -7.6398    0.0000 C   0  0  0  0  0  0  0  0  0  0  0  0
    4.5834   -7.2273    0.0000 C   0  0  0  0  0  0  0  0  0  0  0  0
    4.5834   -6.4023    0.0000 C   0  0  0  0  0  0  0  0  0  0  0  0
    5.2978   -5.9898    0.0000 C   0  0  0  0  0  0  0  0  0  0  0  0
    6.0123   -6.4023    0.0000 C   0  0  0  0  0  0  0  0  0  0  0  0
    6.7268   -5.9898    0.0000 O   0  0  0  0  0  0  0  0  0  0  0  0
    3.8689   -5.9898    0.0000 O   0  0  0  0  0  0  0  0  0  0  0  0
    3.1544   -6.4023    0.0000 C   0  0  0  0  0  0  0  0  0  0  0  0
    5.2978   -8.4648    0.0000 O   0  0  0  0  0  0  0  0  0  0  0  0
    4.5834   -8.8773    0.0000 C   0  0  0  0  0  0  0  0  0  0  0  0
    8.1557   -7.6398    0.0000 O   0  0  0  0  0  0  0  0  0  0  0  0
    8.8702   -7.2273    0.0000 C   0  0  0  0  0  0  0  0  0  0  0  0
    8.1557   -3.5148    0.0000 C   0  0  0  0  0  0  0  0  0  0  0  0
    8.8702   -3.9273    0.0000 O   0  0  0  0  0  0  0  0  0  0  0  0
   11.0136   -5.1648    0.0000 C   0  0  0  0  0  0  0  0  0  0  0  0
   10.2991   -4.7523    0.0000 O   0  0  0  0  0  0  0  0  0  0  0  0
    8.8702   -6.4023    0.0000 C   0  0  0  0  0  0  0  0  0  0  0  0
    9.5846   -5.9898    0.0000 C   0  0  0  0  0  0  0  0  0  0  0  0
    9.5846   -5.1648    0.0000 C   0  0  0  0  0  0  0  0  0  0  0  0
    8.8702   -4.7523    0.0000 C   0  0  0  0  0  0  0  0  0  0  0  0
    8.1557   -5.1648    0.0000 C   0  0  0  0  0  0  0  0  0  0  0  0
    8.1557   -5.9898    0.0000 C   0  0  0  0  0  0  0  0  0  0  0  0
 25 19  1  0  0  0  0
 19 18  1  0  0  0  0
 24 21  1  0  0  0  0
 21 20  1  0  0  0  0
 27 22  2  0  0  0  0
 23 22  1  0  0  0  0
 24 23  2  0  0  0  0
 25 24  1  0  0  0  0
 26 25  2  0  0  0  0
 27 26  1  0  0  0  0
  1  2  2  0  0  0  0
  2  3  1  0  0  0  0
  3  4  2  0  0  0  0
  3  5  1  0  0  0  0
  5  6  1  0  0  0  0
  6  7  2  0  0  0  0
  7  8  1  0  0  0  0
  8  9  2  0  0  0  0
  9 10  1  0  0  0  0
  5 10  2  0  0  0  0
 10 11  1  0  0  0  0
  1 11  1  0  0  0  0
  1 27  1  0  0  0  0
 12 13  1  0  0  0  0
  8 12  1  0  0  0  0
 14 15  1  0  0  0  0
  6 14  1  0  0  0  0
 16 17  1  0  0  0  0
  2 16  1  0  0  0  0
M  END
>  <cdx:fragmentId>
5

$$$$
