97348.cdx
  Mrv1902 05222410192D          

 19 21  0  0  0  0            999 V2000
    5.6646   -8.2209    0.0000 C   0  0  0  0  0  0  0  0  0  0  0  0
    8.9056   -4.1812    0.0000 O   0  0  0  0  0  0  0  0  0  0  0  0
    6.7732   -5.4377    0.0000 O   0  0  0  0  0  0  0  0  0  0  0  0
    5.3517   -6.2753    0.0000 O   0  0  0  0  0  0  0  0  0  0  0  0
    5.2521   -7.5064    0.0000 C   0  0  0  0  0  0  0  0  0  0  0  0
    6.7806   -6.2626    0.0000 C   0  0  1  0  0  0  0  0  0  0  0  0
    6.0698   -6.6815    0.0000 C   0  0  2  0  0  0  0  0  0  0  0  0
    6.0771   -7.5064    0.0000 C   0  0  0  0  0  0  0  0  0  0  0  0
    6.7952   -7.9126    0.0000 O   0  0  0  0  0  0  0  0  0  0  0  0
    9.6383   -6.2373    0.0000 C   0  0  0  0  0  0  0  0  0  0  0  0
    9.6310   -5.4123    0.0000 C   0  0  0  0  0  0  0  0  0  0  0  0
    8.9129   -5.0062    0.0000 C   0  0  0  0  0  0  0  0  0  0  0  0
    8.2021   -5.4250    0.0000 O   0  0  0  0  0  0  0  0  0  0  0  0
    8.9349   -7.4811    0.0000 C   0  0  0  0  0  0  0  0  0  0  0  0
    8.9276   -6.6561    0.0000 C   0  0  0  0  0  0  0  0  0  0  0  0
    8.2095   -6.2499    0.0000 C   0  0  0  0  0  0  0  0  0  0  0  0
    7.4987   -6.6688    0.0000 C   0  0  0  0  0  0  0  0  0  0  0  0
    7.5060   -7.4937    0.0000 C   0  0  0  0  0  0  0  0  0  0  0  0
    8.2241   -7.8999    0.0000 C   0  0  0  0  0  0  0  0  0  0  0  0
  8  1  1  0  0  0  0
 12  2  2  0  0  0  0
  6  3  1  6  0  0  0
  7  4  1  6  0  0  0
  8  5  1  0  0  0  0
  6 17  1  0  0  0  0
  7  6  1  0  0  0  0
  8  7  1  0  0  0  0
  9  8  1  0  0  0  0
 18  9  1  0  0  0  0
 10 15  1  0  0  0  0
 11 10  2  0  0  0  0
 12 11  1  0  0  0  0
 13 12  1  0  0  0  0
 16 13  1  0  0  0  0
 14 19  2  0  0  0  0
 15 14  1  0  0  0  0
 16 15  2  0  0  0  0
 17 16  1  0  0  0  0
 18 17  2  0  0  0  0
 19 18  1  0  0  0  0
M  END
>  <cdx:fragmentId>
5

$$$$
