91973812.cdx
  Mrv1902 05222410282D          

 60 67  0  0  0  0            999 V2000
    8.4190  -14.2857    0.0000 C   0  0  0  0  0  0  0  0  0  0  0  0
    7.7045  -13.8732    0.0000 C   0  0  0  0  0  0  0  0  0  0  0  0
    6.9900  -14.2857    0.0000 C   0  0  0  0  0  0  0  0  0  0  0  0
    6.2755  -13.8732    0.0000 C   0  0  0  0  0  0  0  0  0  0  0  0
    6.2755  -13.0482    0.0000 C   0  0  0  0  0  0  0  0  0  0  0  0
    6.9900  -12.6357    0.0000 C   0  0  0  0  0  0  0  0  0  0  0  0
    7.7045  -13.0482    0.0000 C   0  0  0  0  0  0  0  0  0  0  0  0
    8.4190  -15.1107    0.0000 O   0  0  0  0  0  0  0  0  0  0  0  0
    9.1334  -13.8732    0.0000 O   0  0  0  0  0  0  0  0  0  0  0  0
   10.9911  -15.7707    0.0000 C   0  0  2  0  0  0  0  0  0  0  0  0
   11.7055  -16.1832    0.0000 O   0  0  0  0  0  0  0  0  0  0  0  0
   11.7055  -15.3582    0.0000 C   0  0  1  0  0  0  0  0  0  0  0  0
   12.4901  -15.6131    0.0000 C   0  0  0  0  0  0  0  0  0  0  0  0
   12.9751  -14.9457    0.0000 C   0  0  0  0  0  0  0  0  0  0  0  0
   12.4901  -14.2782    0.0000 C   0  0  2  0  0  0  0  0  0  0  0  0
   11.7055  -14.5332    0.0000 C   0  0  1  0  0  0  0  0  0  0  0  0
   10.9911  -14.1207    0.0000 C   0  0  1  0  0  0  0  0  0  0  0  0
   10.2766  -14.5332    0.0000 C   0  0  2  0  0  0  0  0  0  0  0  0
   10.2766  -15.3582    0.0000 C   0  0  2  0  0  0  0  0  0  0  0  0
    9.5621  -15.7707    0.0000 C   0  0  1  0  0  0  0  0  0  0  0  0
    8.8476  -15.3582    0.0000 C   0  0  0  0  0  0  0  0  0  0  0  0
    8.1332  -15.7707    0.0000 C   0  0  0  0  0  0  0  0  0  0  0  0
    8.1332  -16.5957    0.0000 C   0  0  1  0  0  0  0  0  0  0  0  0
    8.8476  -17.0082    0.0000 C   0  0  0  0  0  0  0  0  0  0  0  0
    9.5621  -16.5957    0.0000 C   0  0  2  0  0  0  0  0  0  0  0  0
   10.2766  -17.0082    0.0000 C   0  0  0  0  0  0  0  0  0  0  0  0
   10.9911  -16.5957    0.0000 C   0  0  0  0  0  0  0  0  0  0  0  0
    9.5621  -14.9457    0.0000 C   0  0  0  0  0  0  0  0  0  0  0  0
   11.7918  -13.7127    0.0000 C   0  0  0  0  0  0  0  0  0  0  0  0
    7.4187  -17.0082    0.0000 O   0  0  0  0  0  0  0  0  0  0  0  0
    6.7042  -15.7707    0.0000 O   0  0  0  0  0  0  0  0  0  0  0  0
    6.7042  -16.5957    0.0000 C   0  0  2  0  0  0  0  0  0  0  0  0
    5.9898  -17.0082    0.0000 C   0  0  0  0  0  0  0  0  0  0  0  0
    5.2753  -16.5957    0.0000 C   0  0  2  0  0  0  0  0  0  0  0  0
    5.2753  -15.7707    0.0000 C   0  0  1  0  0  0  0  0  0  0  0  0
    5.9898  -15.3582    0.0000 C   0  0  1  0  0  0  0  0  0  0  0  0
    5.9898  -14.5332    0.0000 C   0  0  0  0  0  0  0  0  0  0  0  0
    4.5608  -17.0082    0.0000 O   0  0  0  0  0  0  0  0  0  0  0  0
    4.5608  -17.8332    0.0000 C   0  0  0  0  0  0  0  0  0  0  0  0
    4.5608  -15.3582    0.0000 O   0  0  0  0  0  0  0  0  0  0  0  0
    3.8463  -16.5957    0.0000 O   0  0  0  0  0  0  0  0  0  0  0  0
    3.8463  -15.7707    0.0000 C   0  0  2  0  0  0  0  0  0  0  0  0
    3.1319  -15.3582    0.0000 C   0  0  1  0  0  0  0  0  0  0  0  0
    2.4174  -15.7707    0.0000 C   0  0  1  0  0  0  0  0  0  0  0  0
    2.4174  -16.5957    0.0000 C   0  0  1  0  0  0  0  0  0  0  0  0
    3.1319  -17.0082    0.0000 C   0  0  1  0  0  0  0  0  0  0  0  0
    3.1319  -17.8332    0.0000 C   0  0  0  0  0  0  0  0  0  0  0  0
    1.7029  -15.3582    0.0000 O   0  0  0  0  0  0  0  0  0  0  0  0
    0.9885  -15.7707    0.0000 C   0  0  0  0  0  0  0  0  0  0  0  0
    1.7029  -17.0082    0.0000 O   0  0  0  0  0  0  0  0  0  0  0  0
    3.1319  -14.5332    0.0000 O   0  0  0  0  0  0  0  0  0  0  0  0
   10.9911  -13.2957    0.0000 O   0  0  0  0  0  0  0  0  0  0  0  0
   10.2766  -12.8832    0.0000 C   0  0  0  0  0  0  0  0  0  0  0  0
   10.2766  -12.0582    0.0000 O   0  0  0  0  0  0  0  0  0  0  0  0
    9.5621  -13.2957    0.0000 C   0  0  0  0  0  0  0  0  0  0  0  0
   12.7451  -13.4936    0.0000 C   0  0  0  0  0  0  0  0  0  0  0  0
   12.1931  -12.8805    0.0000 O   0  0  0  0  0  0  0  0  0  0  0  0
   13.5521  -13.3221    0.0000 C   0  0  0  0  0  0  0  0  0  0  0  0
   10.2766  -16.1832    0.0000 H   0  0  0  0  0  0  0  0  0  0  0  0
    9.5621  -17.4207    0.0000 H   0  0  0  0  0  0  0  0  0  0  0  0
  1  2  1  0  0  0  0
  2  3  1  0  0  0  0
  3  4  2  0  0  0  0
  4  5  1  0  0  0  0
  5  6  2  0  0  0  0
  6  7  1  0  0  0  0
  2  7  2  0  0  0  0
  1  8  2  0  0  0  0
  1  9  1  0  0  0  0
 10 11  1  1  0  0  0
 12 11  1  1  0  0  0
 12 13  1  0  0  0  0
 13 14  1  0  0  0  0
 14 15  1  0  0  0  0
 15 16  1  0  0  0  0
 16 17  1  0  0  0  0
 17 18  1  0  0  0  0
 18 19  1  0  0  0  0
 19 20  1  0  0  0  0
 20 21  1  0  0  0  0
 21 22  1  0  0  0  0
 22 23  1  0  0  0  0
 23 24  1  0  0  0  0
 24 25  1  0  0  0  0
 25 26  1  0  0  0  0
 26 27  1  0  0  0  0
 10 27  1  0  0  0  0
 10 19  1  0  0  0  0
 20 25  1  0  0  0  0
 12 16  1  0  0  0  0
 10 12  1  0  0  0  0
 20 28  1  1  0  0  0
 16 29  1  1  0  0  0
 31 32  1  0  0  0  0
 32 33  1  0  0  0  0
 33 34  1  0  0  0  0
 34 35  1  0  0  0  0
 35 36  1  0  0  0  0
 31 36  1  0  0  0  0
 36 37  1  1  0  0  0
 38 39  1  0  0  0  0
 34 38  1  1  0  0  0
 41 42  1  0  0  0  0
 42 43  1  0  0  0  0
 43 44  1  0  0  0  0
 44 45  1  0  0  0  0
 45 46  1  0  0  0  0
 41 46  1  0  0  0  0
 46 47  1  6  0  0  0
 48 49  1  0  0  0  0
 44 48  1  1  0  0  0
 45 50  1  1  0  0  0
 43 51  1  1  0  0  0
 42 40  1  6  0  0  0
 35 40  1  6  0  0  0
 32 30  1  1  0  0  0
 23 30  1  1  0  0  0
 53 54  2  0  0  0  0
 53 55  1  0  0  0  0
 52 53  1  0  0  0  0
 17 52  1  1  0  0  0
 56 57  2  0  0  0  0
 56 58  1  0  0  0  0
 15 56  1  6  0  0  0
 18  9  1  6  0  0  0
 19 59  1  6  0  0  0
 25 60  1  6  0  0  0
M  END
>  <cdx:groupId>
219234

>  <cdx:fragmentId>
219130

$$$$
