973934.cdx
  Mrv1902 05222410202D          

 17 18  0  0  0  0            999 V2000
    7.8169   -8.7556    0.0000 C   0  0  1  0  0  0  0  0  0  0  0  0
    7.1024   -9.1681    0.0000 C   0  0  1  0  0  0  0  0  0  0  0  0
    6.3880   -8.7556    0.0000 C   0  0  2  0  0  0  0  0  0  0  0  0
    6.3880   -7.9306    0.0000 C   0  0  0  0  0  0  0  0  0  0  0  0
    7.1024   -7.5181    0.0000 C   0  0  0  0  0  0  0  0  0  0  0  0
    7.8169   -7.9306    0.0000 C   0  0  1  0  0  0  0  0  0  0  0  0
    8.5314   -8.3431    0.0000 C   0  0  0  0  0  0  0  0  0  0  0  0
    7.8169  -10.4056    0.0000 C   0  0  0  0  0  0  0  0  0  0  0  0
    7.1024   -9.9931    0.0000 C   0  0  0  0  0  0  0  0  0  0  0  0
    6.3880  -10.4056    0.0000 C   0  0  0  0  0  0  0  0  0  0  0  0
    9.2459   -7.9306    0.0000 C   0  0  0  0  0  0  0  0  0  0  0  0
    9.2459   -8.7556    0.0000 C   0  0  0  0  0  0  0  0  0  0  0  0
    5.9755   -9.4701    0.0000 C   0  0  0  0  0  0  0  0  0  0  0  0
    5.5630   -8.7556    0.0000 C   0  0  0  0  0  0  0  0  0  0  0  0
    5.1505   -9.4701    0.0000 C   0  0  0  0  0  0  0  0  0  0  0  0
    8.2294   -9.4701    0.0000 H   0  0  0  0  0  0  0  0  0  0  0  0
    8.2294   -7.2161    0.0000 H   0  0  0  0  0  0  0  0  0  0  0  0
  1  2  1  0  0  0  0
  2  3  1  0  0  0  0
  3  4  1  0  0  0  0
  4  5  1  0  0  0  0
  5  6  1  0  0  0  0
  6  7  1  0  0  0  0
  1  7  1  0  0  0  0
  1  6  1  0  0  0  0
  8  9  2  0  0  0  0
  9 10  1  0  0  0  0
  2  9  1  6  0  0  0
  7 11  1  0  0  0  0
  7 12  1  0  0  0  0
  3 13  1  1  0  0  0
 14 15  2  0  0  0  0
  3 14  1  0  0  0  0
  1 16  1  6  0  0  0
  6 17  1  6  0  0  0
M  END
>  <cdx:fragmentId>
2134

$$$$
