97416.cdx
  Mrv1902 05222410192D          

 44 48  0  0  0  0            999 V2000
   10.0156   -7.5291    0.0000 O   0  0  0  0  0  0  0  0  0  0  0  0
   10.7300   -7.9416    0.0000 C   0  0  1  0  0  0  0  0  0  0  0  0
   10.7300   -8.7666    0.0000 C   0  0  2  0  0  0  0  0  0  0  0  0
   10.0156   -9.1791    0.0000 O   0  0  0  0  0  0  0  0  0  0  0  0
    9.3011   -8.7666    0.0000 C   0  0  0  0  0  0  0  0  0  0  0  0
    9.3011   -7.9416    0.0000 C   0  0  0  0  0  0  0  0  0  0  0  0
    8.5866   -9.1791    0.0000 C   0  0  0  0  0  0  0  0  0  0  0  0
    7.8721   -8.7666    0.0000 C   0  0  0  0  0  0  0  0  0  0  0  0
    7.8721   -7.9416    0.0000 C   0  0  0  0  0  0  0  0  0  0  0  0
    8.5866   -7.5291    0.0000 C   0  0  0  0  0  0  0  0  0  0  0  0
   11.4445   -9.1791    0.0000 C   0  0  0  0  0  0  0  0  0  0  0  0
   11.4445  -10.0041    0.0000 O   0  0  0  0  0  0  0  0  0  0  0  0
   12.1590   -8.7666    0.0000 N   0  0  0  0  0  0  0  0  0  0  0  0
    7.1577   -9.1791    0.0000 C   0  0  0  0  0  0  0  0  0  0  0  0
    6.4432   -8.7666    0.0000 C   0  0  0  0  0  0  0  0  0  0  0  0
    5.7287   -9.1791    0.0000 C   0  0  0  0  0  0  0  0  0  0  0  0
    5.7287  -10.0041    0.0000 O   0  0  0  0  0  0  0  0  0  0  0  0
    5.0143   -8.7666    0.0000 N   0  0  0  0  0  0  0  0  0  0  0  0
    4.2998   -9.1791    0.0000 C   0  0  0  0  0  0  0  0  0  0  0  0
    3.5853   -8.7666    0.0000 C   0  0  0  0  0  0  0  0  0  0  0  0
    2.8708   -9.1791    0.0000 C   0  0  0  0  0  0  0  0  0  0  0  0
    2.8708  -10.0041    0.0000 C   0  0  0  0  0  0  0  0  0  0  0  0
    2.1564  -10.4166    0.0000 C   0  0  0  0  0  0  0  0  0  0  0  0
    1.4419  -10.0041    0.0000 C   0  0  0  0  0  0  0  0  0  0  0  0
    1.4419   -9.1791    0.0000 C   0  0  0  0  0  0  0  0  0  0  0  0
    2.1564   -8.7666    0.0000 C   0  0  0  0  0  0  0  0  0  0  0  0
    0.7274  -10.4166    0.0000 O   0  0  0  0  0  0  0  0  0  0  0  0
   12.8734   -9.1791    0.0000 C   0  0  0  0  0  0  0  0  0  0  0  0
   13.5879   -8.7666    0.0000 C   0  0  0  0  0  0  0  0  0  0  0  0
   14.3024   -9.1791    0.0000 C   0  0  0  0  0  0  0  0  0  0  0  0
   15.0169   -8.7666    0.0000 C   0  0  0  0  0  0  0  0  0  0  0  0
   15.7313   -9.1791    0.0000 C   0  0  0  0  0  0  0  0  0  0  0  0
   15.7313  -10.0041    0.0000 C   0  0  0  0  0  0  0  0  0  0  0  0
   15.0169  -10.4166    0.0000 C   0  0  0  0  0  0  0  0  0  0  0  0
   14.3024  -10.0041    0.0000 C   0  0  0  0  0  0  0  0  0  0  0  0
   16.4458  -10.4166    0.0000 O   0  0  0  0  0  0  0  0  0  0  0  0
   11.4445   -7.5291    0.0000 C   0  0  0  0  0  0  0  0  0  0  0  0
   12.1590   -7.9416    0.0000 C   0  0  0  0  0  0  0  0  0  0  0  0
   12.8734   -7.5291    0.0000 C   0  0  0  0  0  0  0  0  0  0  0  0
   12.8734   -6.7041    0.0000 C   0  0  0  0  0  0  0  0  0  0  0  0
   12.1590   -6.2916    0.0000 C   0  0  0  0  0  0  0  0  0  0  0  0
   11.4445   -6.7041    0.0000 C   0  0  0  0  0  0  0  0  0  0  0  0
   13.5879   -6.2916    0.0000 O   0  0  0  0  0  0  0  0  0  0  0  0
   13.5879   -7.9416    0.0000 O   0  0  0  0  0  0  0  0  0  0  0  0
  1  2  1  0  0  0  0
  2  3  1  0  0  0  0
  3  4  1  0  0  0  0
  4  5  1  0  0  0  0
  5  6  1  0  0  0  0
  1  6  1  0  0  0  0
  7  8  1  0  0  0  0
  8  9  2  0  0  0  0
  9 10  1  0  0  0  0
 10  6  2  0  0  0  0
  7  5  2  0  0  0  0
 11 12  2  0  0  0  0
 11 13  1  0  0  0  0
  3 11  1  1  0  0  0
 14 15  2  0  0  0  0
 15 16  1  0  0  0  0
 16 17  2  0  0  0  0
 19 20  1  0  0  0  0
 21 22  1  0  0  0  0
 22 23  2  0  0  0  0
 23 24  1  0  0  0  0
 24 25  2  0  0  0  0
 25 26  1  0  0  0  0
 21 26  2  0  0  0  0
 24 27  1  0  0  0  0
 20 21  1  0  0  0  0
 18 19  1  0  0  0  0
 16 18  1  0  0  0  0
  8 14  1  0  0  0  0
 28 29  1  0  0  0  0
 30 31  1  0  0  0  0
 31 32  2  0  0  0  0
 32 33  1  0  0  0  0
 33 34  2  0  0  0  0
 34 35  1  0  0  0  0
 30 35  2  0  0  0  0
 33 36  1  0  0  0  0
 29 30  1  0  0  0  0
 13 28  1  0  0  0  0
 37 38  1  0  0  0  0
 38 39  2  0  0  0  0
 39 40  1  0  0  0  0
 40 41  2  0  0  0  0
 41 42  1  0  0  0  0
 37 42  2  0  0  0  0
 40 43  1  0  0  0  0
 39 44  1  0  0  0  0
  2 37  1  6  0  0  0
M  END
>  <cdx:fragmentId>
45

$$$$
