974111.cdx
  Mrv1902 05222410252D          

 24 26  0  0  0  0            999 V2000
    7.4736  -11.3682    0.0000 O   0  0  0  0  0  0  0  0  0  0  0  0
   11.0460  -13.4307    0.0000 O   0  0  0  0  0  0  0  0  0  0  0  0
   10.3315  -13.8432    0.0000 C   0  0  0  0  0  0  0  0  0  0  0  0
    4.5052  -13.4307    0.0000 C   0  0  0  0  0  0  0  0  0  0  0  0
    4.9177  -14.1451    0.0000 C   0  0  0  0  0  0  0  0  0  0  0  0
    8.9026  -11.3682    0.0000 O   0  0  0  0  0  0  0  0  0  0  0  0
    8.9026  -13.8432    0.0000 O   0  0  0  0  0  0  0  0  0  0  0  0
    9.6170  -13.4307    0.0000 C   0  0  0  0  0  0  0  0  0  0  0  0
    9.6170  -12.6057    0.0000 C   0  0  0  0  0  0  0  0  0  0  0  0
    8.9026  -12.1932    0.0000 C   0  0  0  0  0  0  0  0  0  0  0  0
    6.0447  -13.8432    0.0000 O   0  0  0  0  0  0  0  0  0  0  0  0
    6.7592  -13.4307    0.0000 C   0  0  0  0  0  0  0  0  0  0  0  0
    7.4736  -13.8432    0.0000 C   0  0  0  0  0  0  0  0  0  0  0  0
    8.1881  -13.4307    0.0000 C   0  0  0  0  0  0  0  0  0  0  0  0
    8.1881  -12.6057    0.0000 C   0  0  0  0  0  0  0  0  0  0  0  0
    7.4736  -12.1932    0.0000 C   0  0  0  0  0  0  0  0  0  0  0  0
    6.7592  -12.6057    0.0000 C   0  0  0  0  0  0  0  0  0  0  0  0
    6.0447  -12.1932    0.0000 C   0  0  0  0  0  0  0  0  0  0  0  0
    5.3302  -12.6057    0.0000 C   0  0  1  0  0  0  0  0  0  0  0  0
    5.3302  -13.4307    0.0000 C   0  0  0  0  0  0  0  0  0  0  0  0
    4.6158  -12.1932    0.0000 O   0  0  0  0  0  0  0  0  0  0  0  0
    3.9013  -13.4307    0.0000 O   0  0  0  0  0  0  0  0  0  0  0  0
    3.1868  -12.1932    0.0000 C   0  0  0  0  0  0  0  0  0  0  0  0
    3.9013  -12.6057    0.0000 C   0  0  0  0  0  0  0  0  0  0  0  0
 19 21  1  1  0  0  0
 16  1  1  0  0  0  0
  8  3  1  0  0  0  0
  3  2  1  0  0  0  0
 20  4  1  0  0  0  0
 20  5  1  0  0  0  0
 10  6  2  0  0  0  0
  7 14  1  0  0  0  0
 10 15  1  0  0  0  0
  8  7  1  0  0  0  0
  9  8  2  0  0  0  0
 10  9  1  0  0  0  0
 20 11  1  0  0  0  0
 12 11  1  0  0  0  0
 17 12  2  0  0  0  0
 13 12  1  0  0  0  0
 14 13  2  0  0  0  0
 15 14  1  0  0  0  0
 16 15  2  0  0  0  0
 17 16  1  0  0  0  0
 18 17  1  0  0  0  0
 19 18  1  0  0  0  0
 20 19  1  0  0  0  0
 24 21  1  0  0  0  0
 24 22  2  0  0  0  0
 24 23  1  0  0  0  0
M  END
>  <cdx:fragmentId>
33450

$$$$
