97418.cdx
  Mrv1902 05222410262D          

 27 30  0  0  0  0            999 V2000
    5.7456  -12.0833    0.0000 O   0  0  0  0  0  0  0  0  0  0  0  0
    5.7490  -12.9083    0.0000 C   0  0  1  0  0  0  0  0  0  0  0  0
    6.5347  -13.1599    0.0000 C   0  0  2  0  0  0  0  0  0  0  0  0
    7.0168  -12.4905    0.0000 C   0  0  2  0  0  0  0  0  0  0  0  0
    6.5291  -11.8251    0.0000 C   0  0  2  0  0  0  0  0  0  0  0  0
    6.7929  -13.9435    0.0000 O   0  0  0  0  0  0  0  0  0  0  0  0
    7.8418  -12.4870    0.0000 O   0  0  0  0  0  0  0  0  0  0  0  0
    6.7752   -9.7045    0.0000 N   0  0  0  0  0  0  0  0  0  0  0  0
    6.2931  -10.3740    0.0000 C   0  0  0  0  0  0  0  0  0  0  0  0
    6.7808  -11.0394    0.0000 N   0  0  0  0  0  0  0  0  0  0  0  0
    7.5643  -10.7812    0.0000 C   0  0  0  0  0  0  0  0  0  0  0  0
    8.2805  -11.1907    0.0000 N   0  0  0  0  0  0  0  0  0  0  0  0
    8.9933  -10.7752    0.0000 C   0  0  0  0  0  0  0  0  0  0  0  0
    8.9898   -9.9502    0.0000 N   0  0  0  0  0  0  0  0  0  0  0  0
    8.2737   -9.5407    0.0000 C   0  0  0  0  0  0  0  0  0  0  0  0
    7.5609   -9.9562    0.0000 C   0  0  0  0  0  0  0  0  0  0  0  0
    8.2702   -8.7157    0.0000 N   0  0  0  0  0  0  0  0  0  0  0  0
    8.9830   -8.3003    0.0000 C   0  0  0  0  0  0  0  0  0  0  0  0
    8.9771   -7.4985    0.0000 C   0  0  0  0  0  0  0  0  0  0  0  0
    8.2604   -7.0900    0.0000 C   0  0  0  0  0  0  0  0  0  0  0  0
    8.2558   -6.2650    0.0000 C   0  0  0  0  0  0  0  0  0  0  0  0
    8.9680   -5.8486    0.0000 C   0  0  0  0  0  0  0  0  0  0  0  0
    9.6848   -6.2571    0.0000 C   0  0  0  0  0  0  0  0  0  0  0  0
    9.6893   -7.0821    0.0000 C   0  0  0  0  0  0  0  0  0  0  0  0
    8.9635   -5.0236    0.0000 O   0  0  0  0  0  0  0  0  0  0  0  0
    5.0836  -13.3959    0.0000 C   0  0  0  0  0  0  0  0  0  0  0  0
    5.0836  -14.2209    0.0000 O   0  0  0  0  0  0  0  0  0  0  0  0
  1  2  1  0  0  0  0
  2  3  1  0  0  0  0
  3  4  1  0  0  0  0
  4  5  1  0  0  0  0
  1  5  1  0  0  0  0
  3  6  1  6  0  0  0
  4  7  1  6  0  0  0
  8  9  2  0  0  0  0
  9 10  1  0  0  0  0
 10 11  1  0  0  0  0
 11 12  2  0  0  0  0
 12 13  1  0  0  0  0
 13 14  2  0  0  0  0
 14 15  1  0  0  0  0
 15 16  2  0  0  0  0
  8 16  1  0  0  0  0
 11 16  1  0  0  0  0
 17 18  1  0  0  0  0
 19 20  1  0  0  0  0
 20 21  2  0  0  0  0
 21 22  1  0  0  0  0
 22 23  2  0  0  0  0
 23 24  1  0  0  0  0
 19 24  2  0  0  0  0
 22 25  1  0  0  0  0
 15 17  1  0  0  0  0
  5 10  1  1  0  0  0
 26 27  1  0  0  0  0
  2 26  1  1  0  0  0
 19 18  1  0  0  0  0
M  END
>  <cdx:fragmentId>
19

$$$$
