97417.cdx
  Mrv1902 05222410192D          

 44 48  0  0  0  0            999 V2000
    6.6661   -7.8619    0.0000 C   0  0  0  0  0  0  0  0  0  0  0  0
    7.0091   -8.6122    0.0000 C   0  0  0  0  0  0  0  0  0  0  0  0
    6.5308   -9.2844    0.0000 C   0  0  0  0  0  0  0  0  0  0  0  0
    5.7095   -9.2063    0.0000 C   0  0  0  0  0  0  0  0  0  0  0  0
    5.3665   -8.4560    0.0000 C   0  0  0  0  0  0  0  0  0  0  0  0
    5.8448   -7.7838    0.0000 C   0  0  0  0  0  0  0  0  0  0  0  0
    5.2312   -9.8785    0.0000 O   0  0  0  0  0  0  0  0  0  0  0  0
    6.8738  -10.0348    0.0000 O   0  0  0  0  0  0  0  0  0  0  0  0
    6.0947   -6.1605    0.0000 C   0  0  0  0  0  0  0  0  0  0  0  0
    5.4871   -6.7185    0.0000 C   0  0  0  0  0  0  0  0  0  0  0  0
    4.7000   -6.4714    0.0000 C   0  0  0  0  0  0  0  0  0  0  0  0
    4.0923   -7.0294    0.0000 C   0  0  0  0  0  0  0  0  0  0  0  0
    3.3052   -6.7822    0.0000 C   0  0  0  0  0  0  0  0  0  0  0  0
    3.1258   -5.9770    0.0000 C   0  0  0  0  0  0  0  0  0  0  0  0
    3.7334   -5.4189    0.0000 C   0  0  0  0  0  0  0  0  0  0  0  0
    4.5205   -5.6661    0.0000 C   0  0  0  0  0  0  0  0  0  0  0  0
    2.3387   -5.7298    0.0000 O   0  0  0  0  0  0  0  0  0  0  0  0
   11.7998   -6.6984    0.0000 O   0  0  0  0  0  0  0  0  0  0  0  0
   11.4727   -8.3156    0.0000 O   0  0  0  0  0  0  0  0  0  0  0  0
    9.4536   -7.4864    0.0000 C   0  0  0  0  0  0  0  0  0  0  0  0
   10.0721   -8.0323    0.0000 C   0  0  0  0  0  0  0  0  0  0  0  0
   10.8542   -7.7697    0.0000 C   0  0  0  0  0  0  0  0  0  0  0  0
   11.0177   -6.9610    0.0000 C   0  0  0  0  0  0  0  0  0  0  0  0
   10.3992   -6.4151    0.0000 C   0  0  0  0  0  0  0  0  0  0  0  0
    9.6172   -6.6778    0.0000 C   0  0  0  0  0  0  0  0  0  0  0  0
    8.9986   -6.1318    0.0000 C   0  0  0  0  0  0  0  0  0  0  0  0
   10.2621  -12.6712    0.0000 O   0  0  0  0  0  0  0  0  0  0  0  0
    8.4596  -11.4403    0.0000 C   0  0  0  0  0  0  0  0  0  0  0  0
    8.9511  -12.1029    0.0000 C   0  0  0  0  0  0  0  0  0  0  0  0
    9.7707  -12.0086    0.0000 C   0  0  0  0  0  0  0  0  0  0  0  0
   10.0988  -11.2516    0.0000 C   0  0  0  0  0  0  0  0  0  0  0  0
    9.6073  -10.5890    0.0000 C   0  0  0  0  0  0  0  0  0  0  0  0
    8.7877  -10.6833    0.0000 C   0  0  0  0  0  0  0  0  0  0  0  0
    8.2962  -10.0207    0.0000 C   0  0  0  0  0  0  0  0  0  0  0  0
    8.6243   -9.2638    0.0000 C   0  0  0  0  0  0  0  0  0  0  0  0
    7.5362   -5.0912    0.0000 O   0  0  0  0  0  0  0  0  0  0  0  0
    8.1328   -8.6012    0.0000 N   0  0  0  0  0  0  0  0  0  0  0  0
    9.2818   -7.8422    0.0000 O   0  0  0  0  0  0  0  0  0  0  0  0
    8.4609   -7.8442    0.0000 C   0  0  0  0  0  0  0  0  0  0  0  0
    7.5444   -5.9162    0.0000 C   0  0  0  0  0  0  0  0  0  0  0  0
    8.2166   -6.3945    0.0000 C   0  0  0  0  0  0  0  0  0  0  0  0
    7.9694   -7.1816    0.0000 C   0  0  2  0  0  0  0  0  0  0  0  0
    7.1444   -7.1897    0.0000 C   0  0  2  0  0  0  0  0  0  0  0  0
    6.8818   -6.4077    0.0000 N   0  0  0  0  0  0  0  0  0  0  0  0
 43  1  1  1  0  0  0
 41 26  2  0  0  0  0
 26 25  1  0  0  0  0
 23 18  1  0  0  0  0
 22 19  1  0  0  0  0
 25 20  2  0  0  0  0
 21 20  1  0  0  0  0
 22 21  2  0  0  0  0
 23 22  1  0  0  0  0
 24 23  2  0  0  0  0
 25 24  1  0  0  0  0
 37 35  1  0  0  0  0
 34 33  1  0  0  0  0
 30 27  1  0  0  0  0
 33 28  2  0  0  0  0
 29 28  1  0  0  0  0
 30 29  2  0  0  0  0
 31 30  1  0  0  0  0
 32 31  2  0  0  0  0
 33 32  1  0  0  0  0
 35 34  1  0  0  0  0
 44  9  1  0  0  0  0
 40 36  2  0  0  0  0
 42 39  1  1  0  0  0
 39 37  1  0  0  0  0
 39 38  2  0  0  0  0
 44 40  1  0  0  0  0
 41 40  1  0  0  0  0
 42 41  1  0  0  0  0
 43 42  1  0  0  0  0
 44 43  1  0  0  0  0
  1  2  1  0  0  0  0
  2  3  2  0  0  0  0
  3  4  1  0  0  0  0
  4  5  2  0  0  0  0
  5  6  1  0  0  0  0
  1  6  2  0  0  0  0
  4  7  1  0  0  0  0
  3  8  1  0  0  0  0
  9 10  1  0  0  0  0
 11 12  1  0  0  0  0
 12 13  2  0  0  0  0
 13 14  1  0  0  0  0
 14 15  2  0  0  0  0
 15 16  1  0  0  0  0
 11 16  2  0  0  0  0
 14 17  1  0  0  0  0
 10 11  1  0  0  0  0
M  END
>  <cdx:fragmentId>
27

$$$$
