974234.cdx
  Mrv1902 05222410182D          

 24 23  0  0  0  0            999 V2000
    3.2940   -9.0222    0.0000 C   0  0  0  0  0  0  0  0  0  0  0  0
    2.5796   -7.7847    0.0000 C   0  0  0  0  0  0  0  0  0  0  0  0
    3.2940   -8.1972    0.0000 C   0  0  0  0  0  0  0  0  0  0  0  0
    4.0085   -7.7847    0.0000 C   0  0  0  0  0  0  0  0  0  0  0  0
    4.7230   -8.1972    0.0000 N   0  0  0  0  0  0  0  0  0  0  0  0
    5.4374   -6.9597    0.0000 O   0  0  0  0  0  0  0  0  0  0  0  0
   17.5834   -8.1972    0.0000 C   0  0  0  0  0  0  0  0  0  0  0  0
   16.8690   -7.7847    0.0000 C   0  0  0  0  0  0  0  0  0  0  0  0
   16.1545   -8.1972    0.0000 C   0  0  0  0  0  0  0  0  0  0  0  0
   15.4400   -7.7847    0.0000 C   0  0  0  0  0  0  0  0  0  0  0  0
   14.7256   -8.1972    0.0000 C   0  0  0  0  0  0  0  0  0  0  0  0
   14.0111   -7.7847    0.0000 C   0  0  0  0  0  0  0  0  0  0  0  0
   13.2966   -8.1972    0.0000 C   0  0  0  0  0  0  0  0  0  0  0  0
   12.5821   -7.7847    0.0000 C   0  0  0  0  0  0  0  0  0  0  0  0
   11.8677   -8.1972    0.0000 C   0  0  0  0  0  0  0  0  0  0  0  0
   11.1532   -7.7847    0.0000 C   0  0  0  0  0  0  0  0  0  0  0  0
   10.4387   -8.1972    0.0000 C   0  0  0  0  0  0  0  0  0  0  0  0
    9.7243   -7.7847    0.0000 C   0  0  0  0  0  0  0  0  0  0  0  0
    9.0098   -8.1972    0.0000 C   0  0  0  0  0  0  0  0  0  0  0  0
    8.2953   -7.7847    0.0000 C   0  0  0  0  0  0  0  0  0  0  0  0
    7.5809   -8.1972    0.0000 C   0  0  0  0  0  0  0  0  0  0  0  0
    6.8664   -7.7847    0.0000 C   0  0  0  0  0  0  0  0  0  0  0  0
    6.1519   -8.1972    0.0000 C   0  0  0  0  0  0  0  0  0  0  0  0
    5.4374   -7.7847    0.0000 C   0  0  0  0  0  0  0  0  0  0  0  0
  5  4  1  0  0  0  0
  3  1  1  0  0  0  0
  3  2  1  0  0  0  0
  4  3  1  0  0  0  0
 24  5  1  0  0  0  0
 24  6  2  0  0  0  0
  8  7  1  0  0  0  0
  9  8  1  0  0  0  0
 10  9  1  0  0  0  0
 11 10  1  0  0  0  0
 12 11  1  0  0  0  0
 13 12  1  0  0  0  0
 14 13  1  0  0  0  0
 15 14  1  0  0  0  0
 16 15  1  0  0  0  0
 17 16  1  0  0  0  0
 18 17  1  0  0  0  0
 19 18  1  0  0  0  0
 20 19  1  0  0  0  0
 21 20  2  0  0  0  0
 22 21  1  0  0  0  0
 23 22  2  0  0  0  0
 24 23  1  0  0  0  0
M  END
>  <cdx:fragmentId>
33690

$$$$
