97438.cdx
  Mrv1902 05222410182D          

 45 49  0  0  0  0            999 V2000
   14.3426   -7.7380    0.0000 C   0  0  0  0  0  0  0  0  0  0  0  0
   13.6281   -8.1505    0.0000 O   0  0  0  0  0  0  0  0  0  0  0  0
   12.1991   -5.6755    0.0000 O   0  0  0  0  0  0  0  0  0  0  0  0
   11.4847  -10.2130    0.0000 O   0  0  0  0  0  0  0  0  0  0  0  0
   11.4847   -9.3880    0.0000 C   0  0  0  0  0  0  0  0  0  0  0  0
    0.7676  -10.6255    0.0000 O   0  0  0  0  0  0  0  0  0  0  0  0
    2.1965   -8.9755    0.0000 C   0  0  0  0  0  0  0  0  0  0  0  0
    1.4821   -9.3880    0.0000 C   0  0  0  0  0  0  0  0  0  0  0  0
    1.4821  -10.2130    0.0000 C   0  0  0  0  0  0  0  0  0  0  0  0
    2.1965  -10.6255    0.0000 C   0  0  0  0  0  0  0  0  0  0  0  0
    3.6255   -8.9755    0.0000 C   0  0  0  0  0  0  0  0  0  0  0  0
    2.9110   -9.3880    0.0000 C   0  0  0  0  0  0  0  0  0  0  0  0
    2.9110  -10.2130    0.0000 C   0  0  0  0  0  0  0  0  0  0  0  0
    4.3400   -9.3880    0.0000 C   0  0  0  0  0  0  0  0  0  0  0  0
    5.7689  -10.2130    0.0000 O   0  0  0  0  0  0  0  0  0  0  0  0
    5.0544   -8.9755    0.0000 N   0  0  0  0  0  0  0  0  0  0  0  0
    5.7689   -9.3880    0.0000 C   0  0  0  0  0  0  0  0  0  0  0  0
    6.4834   -8.9755    0.0000 C   0  0  0  0  0  0  0  0  0  0  0  0
    7.1978   -9.3880    0.0000 C   0  0  0  0  0  0  0  0  0  0  0  0
   12.9136   -9.3880    0.0000 C   0  0  0  0  0  0  0  0  0  0  0  0
   12.1991   -8.9755    0.0000 N   0  0  0  0  0  0  0  0  0  0  0  0
   14.3426  -10.2130    0.0000 C   0  0  0  0  0  0  0  0  0  0  0  0
   14.3426   -9.3880    0.0000 C   0  0  0  0  0  0  0  0  0  0  0  0
   13.6281   -8.9755    0.0000 C   0  0  0  0  0  0  0  0  0  0  0  0
   15.0570  -10.6255    0.0000 C   0  0  0  0  0  0  0  0  0  0  0  0
   15.7715  -10.2130    0.0000 C   0  0  0  0  0  0  0  0  0  0  0  0
   15.7715   -9.3880    0.0000 C   0  0  0  0  0  0  0  0  0  0  0  0
   15.0570   -8.9755    0.0000 C   0  0  0  0  0  0  0  0  0  0  0  0
    8.6268   -7.7380    0.0000 C   0  0  0  0  0  0  0  0  0  0  0  0
    7.9123   -8.1505    0.0000 C   0  0  0  0  0  0  0  0  0  0  0  0
    7.9123   -8.9755    0.0000 C   0  0  0  0  0  0  0  0  0  0  0  0
    8.6268   -9.3880    0.0000 C   0  0  0  0  0  0  0  0  0  0  0  0
   10.0557   -7.7380    0.0000 O   0  0  0  0  0  0  0  0  0  0  0  0
    9.3413   -8.1505    0.0000 C   0  0  0  0  0  0  0  0  0  0  0  0
    9.3413   -8.9755    0.0000 C   0  0  0  0  0  0  0  0  0  0  0  0
   10.0557   -9.3880    0.0000 O   0  0  0  0  0  0  0  0  0  0  0  0
   10.7702   -8.1505    0.0000 C   0  0  1  0  0  0  0  0  0  0  0  0
   10.7702   -8.9755    0.0000 C   0  0  2  0  0  0  0  0  0  0  0  0
   16.4860  -10.6255    0.0000 O   0  0  0  0  0  0  0  0  0  0  0  0
   12.1991   -6.5005    0.0000 C   0  0  0  0  0  0  0  0  0  0  0  0
   11.4847   -6.9130    0.0000 C   0  0  0  0  0  0  0  0  0  0  0  0
   11.4847   -7.7380    0.0000 C   0  0  0  0  0  0  0  0  0  0  0  0
   12.1991   -8.1505    0.0000 C   0  0  0  0  0  0  0  0  0  0  0  0
   12.9136   -7.7380    0.0000 C   0  0  0  0  0  0  0  0  0  0  0  0
   12.9136   -6.9130    0.0000 C   0  0  0  0  0  0  0  0  0  0  0  0
  2  1  1  0  0  0  0
 44  2  1  0  0  0  0
 40  3  1  0  0  0  0
  9  6  1  0  0  0  0
  7 12  1  0  0  0  0
  8  7  2  0  0  0  0
  9  8  1  0  0  0  0
 10  9  2  0  0  0  0
 13 10  1  0  0  0  0
 11 14  1  0  0  0  0
 12 11  1  0  0  0  0
 13 12  2  0  0  0  0
 14 16  1  0  0  0  0
 17 15  2  0  0  0  0
 17 16  1  0  0  0  0
 18 17  1  0  0  0  0
 19 18  2  0  0  0  0
 31 19  1  0  0  0  0
  4  5  2  0  0  0  0
 20 21  1  0  0  0  0
 21  5  1  0  0  0  0
 22 23  2  0  0  0  0
 23 24  1  0  0  0  0
 24 20  1  0  0  0  0
 22 25  1  0  0  0  0
 25 26  2  0  0  0  0
 26 27  1  0  0  0  0
 27 28  2  0  0  0  0
 29 34  1  0  0  0  0
 30 29  2  0  0  0  0
 31 30  1  0  0  0  0
 32 31  2  0  0  0  0
 35 32  1  0  0  0  0
 33 37  1  0  0  0  0
 34 33  1  0  0  0  0
 35 34  2  0  0  0  0
 36 35  1  0  0  0  0
 38 36  1  0  0  0  0
 37 42  1  6  0  0  0
 38 37  1  0  0  0  0
 38  5  1  6  0  0  0
 28 23  1  0  0  0  0
 26 39  1  0  0  0  0
 40 45  1  0  0  0  0
 41 40  2  0  0  0  0
 42 41  1  0  0  0  0
 43 42  2  0  0  0  0
 44 43  1  0  0  0  0
 45 44  2  0  0  0  0
M  END
>  <cdx:fragmentId>
5

$$$$
