97439.cdx
  Mrv1902 05222410182D          

 69 75  0  0  0  0            999 V2000
    6.0548   -6.9891    0.0000 C   0  0  0  0  0  0  0  0  0  0  0  0
    6.0474   -7.8140    0.0000 C   0  0  0  0  0  0  0  0  0  0  0  0
    6.7582   -8.2329    0.0000 C   0  0  0  0  0  0  0  0  0  0  0  0
    7.4763   -7.8268    0.0000 C   0  0  0  0  0  0  0  0  0  0  0  0
    7.4837   -7.0018    0.0000 C   0  0  0  0  0  0  0  0  0  0  0  0
    6.7729   -6.5830    0.0000 C   0  0  0  0  0  0  0  0  0  0  0  0
    8.1871   -8.2456    0.0000 C   0  0  0  0  0  0  0  0  0  0  0  0
    8.9052   -7.8395    0.0000 C   0  0  0  0  0  0  0  0  0  0  0  0
    8.9126   -7.0146    0.0000 O   0  0  0  0  0  0  0  0  0  0  0  0
    9.6160   -8.2584    0.0000 C   0  0  0  0  0  0  0  0  0  0  0  0
   10.3341   -7.8523    0.0000 N   0  0  0  0  0  0  0  0  0  0  0  0
   10.3414   -7.0273    0.0000 C   0  0  0  0  0  0  0  0  0  0  0  0
    9.6307   -6.6085    0.0000 C   0  0  0  0  0  0  0  0  0  0  0  0
   11.0448   -8.2712    0.0000 C   0  0  0  0  0  0  0  0  0  0  0  0
   11.7630   -7.8651    0.0000 C   0  0  0  0  0  0  0  0  0  0  0  0
   11.0596   -6.6212    0.0000 C   0  0  0  0  0  0  0  0  0  0  0  0
   12.4737   -8.2839    0.0000 C   0  0  0  0  0  0  0  0  0  0  0  0
   13.1919   -7.8778    0.0000 C   0  0  0  0  0  0  0  0  0  0  0  0
   12.4664   -9.1089    0.0000 C   0  0  0  0  0  0  0  0  0  0  0  0
   13.1771   -9.5278    0.0000 C   0  0  0  0  0  0  0  0  0  0  0  0
   13.8952   -9.1216    0.0000 C   0  0  0  0  0  0  0  0  0  0  0  0
   13.9026   -8.2967    0.0000 C   0  0  0  0  0  0  0  0  0  0  0  0
   11.0669   -5.7963    0.0000 C   0  0  0  0  0  0  0  0  0  0  0  0
   10.3562   -5.3774    0.0000 C   0  0  0  0  0  0  0  0  0  0  0  0
    9.6381   -5.7835    0.0000 C   0  0  0  0  0  0  0  0  0  0  0  0
   11.7851   -5.3902    0.0000 C   0  0  0  0  0  0  0  0  0  0  0  0
   12.4958   -5.8090    0.0000 C   0  0  0  0  0  0  0  0  0  0  0  0
   13.2140   -5.4029    0.0000 C   0  0  0  0  0  0  0  0  0  0  0  0
   13.2213   -4.5779    0.0000 O   0  0  0  0  0  0  0  0  0  0  0  0
   13.9247   -5.8218    0.0000 N   0  0  0  0  0  0  0  0  0  0  0  0
   14.6428   -5.4157    0.0000 C   0  0  0  0  0  0  0  0  0  0  0  0
   15.3536   -5.8345    0.0000 C   0  0  0  0  0  0  0  0  0  0  0  0
   16.0717   -5.4284    0.0000 C   0  0  0  0  0  0  0  0  0  0  0  0
   16.0791   -4.6035    0.0000 C   0  0  0  0  0  0  0  0  0  0  0  0
   16.7825   -5.8473    0.0000 C   0  0  0  0  0  0  0  0  0  0  0  0
   17.5006   -5.4412    0.0000 C   0  0  0  0  0  0  0  0  0  0  0  0
   17.5080   -4.6162    0.0000 C   0  0  0  0  0  0  0  0  0  0  0  0
   16.7972   -4.1974    0.0000 C   0  0  0  0  0  0  0  0  0  0  0  0
    5.2725   -6.7271    0.0000 O   0  0  0  0  0  0  0  0  0  0  0  0
    4.7816   -7.3902    0.0000 C   0  0  1  0  0  0  0  0  0  0  0  0
    5.2606   -8.0619    0.0000 C   0  0  1  0  0  0  0  0  0  0  0  0
    3.9566   -7.3828    0.0000 C   0  0  0  0  0  0  0  0  0  0  0  0
    3.5505   -6.6647    0.0000 C   0  0  0  0  0  0  0  0  0  0  0  0
    2.7256   -6.6573    0.0000 C   0  0  0  0  0  0  0  0  0  0  0  0
    2.3067   -7.3681    0.0000 C   0  0  0  0  0  0  0  0  0  0  0  0
    2.7128   -8.0862    0.0000 C   0  0  0  0  0  0  0  0  0  0  0  0
    3.5378   -8.0936    0.0000 C   0  0  0  0  0  0  0  0  0  0  0  0
    4.9986   -8.8443    0.0000 C   0  0  0  0  0  0  0  0  0  0  0  0
    5.5452   -9.4623    0.0000 N   0  0  0  0  0  0  0  0  0  0  0  0
    4.1902   -9.0086    0.0000 O   0  0  0  0  0  0  0  0  0  0  0  0
    5.2832  -10.2446    0.0000 C   0  0  0  0  0  0  0  0  0  0  0  0
    5.8298  -10.8626    0.0000 C   0  0  0  0  0  0  0  0  0  0  0  0
    5.5678  -11.6449    0.0000 C   0  0  0  0  0  0  0  0  0  0  0  0
    4.7594  -11.8092    0.0000 C   0  0  0  0  0  0  0  0  0  0  0  0
    4.4974  -12.5915    0.0000 C   0  0  0  0  0  0  0  0  0  0  0  0
    5.0440  -13.2095    0.0000 C   0  0  0  0  0  0  0  0  0  0  0  0
    5.8524  -13.0452    0.0000 C   0  0  0  0  0  0  0  0  0  0  0  0
    6.1144  -12.2629    0.0000 C   0  0  0  0  0  0  0  0  0  0  0  0
    4.7820  -13.9918    0.0000 O   0  0  0  0  0  0  0  0  0  0  0  0
    1.4817   -7.3607    0.0000 O   0  0  0  0  0  0  0  0  0  0  0  0
    2.2940   -8.7970    0.0000 O   0  0  0  0  0  0  0  0  0  0  0  0
    2.7001   -9.5151    0.0000 C   0  0  0  0  0  0  0  0  0  0  0  0
    6.7803   -5.7580    0.0000 O   0  0  0  0  0  0  0  0  0  0  0  0
    6.0695   -5.3391    0.0000 C   0  0  0  0  0  0  0  0  0  0  0  0
    9.6086   -9.0834    0.0000 O   0  0  0  0  0  0  0  0  0  0  0  0
   14.6060   -9.5405    0.0000 O   0  0  0  0  0  0  0  0  0  0  0  0
    8.9273   -5.3646    0.0000 O   0  0  0  0  0  0  0  0  0  0  0  0
    8.2092   -5.7707    0.0000 C   0  0  0  0  0  0  0  0  0  0  0  0
   18.2261   -4.2101    0.0000 O   0  0  0  0  0  0  0  0  0  0  0  0
  1  2  2  0  0  0  0
  2  3  1  0  0  0  0
  3  4  2  0  0  0  0
  4  5  1  0  0  0  0
  5  6  2  0  0  0  0
  6  1  1  0  0  0  0
  4  7  1  0  0  0  0
  7  8  2  0  0  0  0
  8  9  1  0  0  0  0
  8 10  1  0  0  0  0
 10 11  1  0  0  0  0
 12 13  2  0  0  0  0
 13  9  1  0  0  0  0
 11 14  1  0  0  0  0
 14 15  1  0  0  0  0
 16 12  1  0  0  0  0
 15 17  1  0  0  0  0
 17 18  1  0  0  0  0
 17 19  2  0  0  0  0
 19 20  1  0  0  0  0
 20 21  2  0  0  0  0
 21 22  1  0  0  0  0
 22 18  2  0  0  0  0
 16 23  2  0  0  0  0
 23 24  1  0  0  0  0
 24 25  2  0  0  0  0
 25 13  1  0  0  0  0
 23 26  1  0  0  0  0
 26 27  2  0  0  0  0
 27 28  1  0  0  0  0
 28 29  2  0  0  0  0
 28 30  1  0  0  0  0
 30 31  1  0  0  0  0
 31 32  1  0  0  0  0
 32 33  1  0  0  0  0
 33 34  2  0  0  0  0
 33 35  1  0  0  0  0
 35 36  2  0  0  0  0
 36 37  1  0  0  0  0
 37 38  2  0  0  0  0
 38 34  1  0  0  0  0
  1 39  1  0  0  0  0
 39 40  1  0  0  0  0
 40 41  1  0  0  0  0
 41  2  1  0  0  0  0
 40 42  1  1  0  0  0
 42 43  2  0  0  0  0
 43 44  1  0  0  0  0
 44 45  2  0  0  0  0
 45 46  1  0  0  0  0
 46 47  2  0  0  0  0
 47 42  1  0  0  0  0
 41 48  1  6  0  0  0
 48 49  1  0  0  0  0
 48 50  2  0  0  0  0
 49 51  1  0  0  0  0
 51 52  1  0  0  0  0
 52 53  1  0  0  0  0
 53 54  2  0  0  0  0
 54 55  1  0  0  0  0
 55 56  2  0  0  0  0
 56 57  1  0  0  0  0
 57 58  2  0  0  0  0
 58 53  1  0  0  0  0
 56 59  1  0  0  0  0
 45 60  1  0  0  0  0
 46 61  1  0  0  0  0
 61 62  1  0  0  0  0
  6 63  1  0  0  0  0
 63 64  1  0  0  0  0
 10 65  2  0  0  0  0
 21 66  1  0  0  0  0
 25 67  1  0  0  0  0
 67 68  1  0  0  0  0
 37 69  1  0  0  0  0
M  END
>  <cdx:fragmentId>
5

$$$$
