97448.cdx
  Mrv1902 05222410222D          

106118  0  0  0  0            999 V2000
    1.7077   -4.8870    0.0000 O   0  0  0  0  0  0  0  0  0  0  0  0
    0.6789   -3.1050    0.0000 O   0  0  0  0  0  0  0  0  0  0  0  0
    5.3086   -2.2140    0.0000 O   0  0  0  0  0  0  0  0  0  0  0  0
    3.7654   -2.5110    0.0000 C   0  0  0  0  0  0  0  0  0  0  0  0
    4.2798   -2.2140    0.0000 C   0  0  0  0  0  0  0  0  0  0  0  0
    4.7942   -2.5110    0.0000 C   0  0  0  0  0  0  0  0  0  0  0  0
    4.7942   -3.1050    0.0000 C   0  0  0  0  0  0  0  0  0  0  0  0
    4.2798   -3.4020    0.0000 C   0  0  0  0  0  0  0  0  0  0  0  0
    3.7654   -3.1050    0.0000 C   0  0  0  0  0  0  0  0  0  0  0  0
    2.7365   -4.8870    0.0000 O   0  0  0  0  0  0  0  0  0  0  0  0
    2.7365   -3.1050    0.0000 O   0  0  0  0  0  0  0  0  0  0  0  0
    2.2221   -3.4020    0.0000 C   0  0  0  0  0  0  0  0  0  0  0  0
    1.7077   -3.1050    0.0000 C   0  0  0  0  0  0  0  0  0  0  0  0
    1.1933   -3.4020    0.0000 C   0  0  0  0  0  0  0  0  0  0  0  0
    1.1933   -3.9960    0.0000 C   0  0  0  0  0  0  0  0  0  0  0  0
    1.7077   -4.2930    0.0000 C   0  0  0  0  0  0  0  0  0  0  0  0
    2.2221   -3.9960    0.0000 C   0  0  0  0  0  0  0  0  0  0  0  0
    2.7365   -4.2930    0.0000 C   0  0  0  0  0  0  0  0  0  0  0  0
    3.2510   -3.9960    0.0000 C   0  0  0  0  0  0  0  0  0  0  0  0
    3.2510   -3.4020    0.0000 C   0  0  0  0  0  0  0  0  0  0  0  0
    3.7654   -4.2930    0.0000 O   0  0  0  0  0  0  0  0  0  0  0  0
    4.7942   -6.0750    0.0000 O   0  0  0  0  0  0  0  0  0  0  0  0
    3.7654   -6.6690    0.0000 O   0  0  0  0  0  0  0  0  0  0  0  0
    2.7365   -6.0750    0.0000 C   0  0  0  0  0  0  0  0  0  0  0  0
    3.2510   -5.7780    0.0000 C   0  0  1  0  0  0  0  0  0  0  0  0
    3.7654   -6.0750    0.0000 C   0  0  1  0  0  0  0  0  0  0  0  0
    4.2798   -5.7780    0.0000 C   0  0  2  0  0  0  0  0  0  0  0  0
    4.2798   -5.1840    0.0000 C   0  0  2  0  0  0  0  0  0  0  0  0
    3.7654   -4.8870    0.0000 C   0  0  1  0  0  0  0  0  0  0  0  0
    3.2510   -5.1840    0.0000 O   0  0  0  0  0  0  0  0  0  0  0  0
    4.7942   -4.8870    0.0000 O   0  0  0  0  0  0  0  0  0  0  0  0
    6.8519   -6.0750    0.0000 O   0  0  0  0  0  0  0  0  0  0  0  0
    6.8519   -4.8870    0.0000 O   0  0  0  0  0  0  0  0  0  0  0  0
    5.8231   -4.2930    0.0000 O   0  0  0  0  0  0  0  0  0  0  0  0
    5.3086   -5.1840    0.0000 C   0  0  1  0  0  0  0  0  0  0  0  0
    5.8231   -4.8870    0.0000 C   0  0  1  0  0  0  0  0  0  0  0  0
    6.3375   -5.1840    0.0000 C   0  0  2  0  0  0  0  0  0  0  0  0
    6.3375   -5.7780    0.0000 C   0  0  1  0  0  0  0  0  0  0  0  0
    5.8231   -6.0750    0.0000 C   0  0  2  0  0  0  0  0  0  0  0  0
    5.3086   -5.7780    0.0000 O   0  0  0  0  0  0  0  0  0  0  0  0
    5.8231   -6.6690    0.0000 C   0  0  0  0  0  0  0  0  0  0  0  0
    8.6137   -5.6456    0.0000 O   0  0  0  0  0  0  0  0  0  0  0  0
    7.4257   -6.6744    0.0000 C   0  0  0  0  0  0  0  0  0  0  0  0
    7.7227   -6.1600    0.0000 C   0  0  0  0  0  0  0  0  0  0  0  0
    8.3167   -6.1600    0.0000 C   0  0  0  0  0  0  0  0  0  0  0  0
    8.6137   -6.6744    0.0000 C   0  0  0  0  0  0  0  0  0  0  0  0
    8.3167   -7.1889    0.0000 C   0  0  0  0  0  0  0  0  0  0  0  0
    7.7227   -7.1889    0.0000 C   0  0  0  0  0  0  0  0  0  0  0  0
    6.3375   -6.9660    0.0000 O   0  0  0  0  0  0  0  0  0  0  0  0
    5.8231   -7.8570    0.0000 O   0  0  0  0  0  0  0  0  0  0  0  0
    6.3375   -7.5600    0.0000 C   0  0  0  0  0  0  0  0  0  0  0  0
    7.4257   -7.7033    0.0000 C   0  0  1  0  0  0  0  0  0  0  0  0
    7.5794   -8.2770    0.0000 C   0  0  1  0  0  0  0  0  0  0  0  0
    7.0056   -8.4308    0.0000 C   0  0  2  0  0  0  0  0  0  0  0  0
    6.8519   -7.8570    0.0000 C   0  0  2  0  0  0  0  0  0  0  0  0
    5.7964  -10.5100    0.0000 O   0  0  0  0  0  0  0  0  0  0  0  0
    6.9981   -9.4972    0.0000 C   0  0  0  0  0  0  0  0  0  0  0  0
    6.6942  -10.0076    0.0000 C   0  0  0  0  0  0  0  0  0  0  0  0
    6.1003   -9.9996    0.0000 C   0  0  0  0  0  0  0  0  0  0  0  0
    5.8102   -9.4813    0.0000 C   0  0  0  0  0  0  0  0  0  0  0  0
    6.1141   -8.9709    0.0000 C   0  0  0  0  0  0  0  0  0  0  0  0
    6.7080   -8.9788    0.0000 C   0  0  0  0  0  0  0  0  0  0  0  0
   12.6068  -11.4795    0.0000 O   0  0  0  0  0  0  0  0  0  0  0  0
   13.5536  -13.3063    0.0000 O   0  0  0  0  0  0  0  0  0  0  0  0
    8.8882  -13.9862    0.0000 O   0  0  0  0  0  0  0  0  0  0  0  0
   10.4433  -13.7596    0.0000 C   0  0  0  0  0  0  0  0  0  0  0  0
    9.9160  -14.0329    0.0000 C   0  0  0  0  0  0  0  0  0  0  0  0
    9.4156  -13.7129    0.0000 C   0  0  0  0  0  0  0  0  0  0  0  0
    9.4425  -13.1195    0.0000 C   0  0  0  0  0  0  0  0  0  0  0  0
    9.9699  -12.8462    0.0000 C   0  0  0  0  0  0  0  0  0  0  0  0
   10.4703  -13.1662    0.0000 C   0  0  0  0  0  0  0  0  0  0  0  0
   11.5790  -11.4328    0.0000 O   0  0  0  0  0  0  0  0  0  0  0  0
   11.4981  -13.2129    0.0000 O   0  0  0  0  0  0  0  0  0  0  0  0
   12.0255  -12.9396    0.0000 C   0  0  0  0  0  0  0  0  0  0  0  0
   12.5259  -13.2596    0.0000 C   0  0  0  0  0  0  0  0  0  0  0  0
   13.0532  -12.9863    0.0000 C   0  0  0  0  0  0  0  0  0  0  0  0
   13.0802  -12.3929    0.0000 C   0  0  0  0  0  0  0  0  0  0  0  0
   12.5798  -12.0729    0.0000 C   0  0  0  0  0  0  0  0  0  0  0  0
   12.0524  -12.3462    0.0000 C   0  0  0  0  0  0  0  0  0  0  0  0
   11.5520  -12.0261    0.0000 C   0  0  0  0  0  0  0  0  0  0  0  0
   11.0247  -12.2995    0.0000 C   0  0  0  0  0  0  0  0  0  0  0  0
   10.9977  -12.8929    0.0000 C   0  0  0  0  0  0  0  0  0  0  0  0
   10.5242  -11.9794    0.0000 O   0  0  0  0  0  0  0  0  0  0  0  0
    9.5774  -10.1526    0.0000 O   0  0  0  0  0  0  0  0  0  0  0  0
   10.6321   -9.6059    0.0000 O   0  0  0  0  0  0  0  0  0  0  0  0
   11.6329  -10.2460    0.0000 C   0  0  0  0  0  0  0  0  0  0  0  0
   11.1056  -10.5193    0.0000 C   0  0  1  0  0  0  0  0  0  0  0  0
   10.6052  -10.1993    0.0000 C   0  0  1  0  0  0  0  0  0  0  0  0
   10.0778  -10.4726    0.0000 C   0  0  2  0  0  0  0  0  0  0  0  0
   10.0508  -11.0660    0.0000 C   0  0  2  0  0  0  0  0  0  0  0  0
   10.5512  -11.3860    0.0000 C   0  0  1  0  0  0  0  0  0  0  0  0
   11.0786  -11.1127    0.0000 O   0  0  0  0  0  0  0  0  0  0  0  0
    9.5234  -11.3393    0.0000 O   0  0  0  0  0  0  0  0  0  0  0  0
    7.5218  -10.0591    0.0000 O   0  0  0  0  0  0  0  0  0  0  0  0
    7.4679  -11.2459    0.0000 O   0  0  0  0  0  0  0  0  0  0  0  0
    8.4687  -11.8860    0.0000 O   0  0  0  0  0  0  0  0  0  0  0  0
    9.0230  -11.0193    0.0000 C   0  0  1  0  0  0  0  0  0  0  0  0
    8.4957  -11.2926    0.0000 C   0  0  1  0  0  0  0  0  0  0  0  0
    7.9953  -10.9726    0.0000 C   0  0  2  0  0  0  0  0  0  0  0  0
    8.0222  -10.3792    0.0000 C   0  0  1  0  0  0  0  0  0  0  0  0
    8.5496  -10.1059    0.0000 C   0  0  2  0  0  0  0  0  0  0  0  0
    9.0500  -10.4259    0.0000 O   0  0  0  0  0  0  0  0  0  0  0  0
    8.5766   -9.5125    0.0000 C   0  0  0  0  0  0  0  0  0  0  0  0
    8.0762   -9.1924    0.0000 O   0  0  0  0  0  0  0  0  0  0  0  0
    8.6305   -8.3257    0.0000 O   0  0  0  0  0  0  0  0  0  0  0  0
    8.1031   -8.5990    0.0000 C   0  0  0  0  0  0  0  0  0  0  0  0
 49 41  1  0  0  0  0
 39 41  1  1  0  0  0
 35 31  1  1  0  0  0
 28 31  1  6  0  0  0
 29 21  1  1  0  0  0
 21 19  1  0  0  0  0
 16  1  1  0  0  0  0
 14  2  1  0  0  0  0
 20  9  1  0  0  0  0
  6  3  1  0  0  0  0
  9  4  2  0  0  0  0
  5  4  1  0  0  0  0
  6  5  2  0  0  0  0
  7  6  1  0  0  0  0
  8  7  2  0  0  0  0
  9  8  1  0  0  0  0
 18 10  2  0  0  0  0
 20 11  1  0  0  0  0
 12 11  1  0  0  0  0
 17 12  2  0  0  0  0
 13 12  1  0  0  0  0
 14 13  2  0  0  0  0
 15 14  1  0  0  0  0
 16 15  2  0  0  0  0
 17 16  1  0  0  0  0
 18 17  1  0  0  0  0
 19 18  1  0  0  0  0
 20 19  2  0  0  0  0
 27 22  1  6  0  0  0
 26 23  1  1  0  0  0
 25 24  1  6  0  0  0
 30 25  1  0  0  0  0
 26 25  1  0  0  0  0
 27 26  1  0  0  0  0
 28 27  1  0  0  0  0
 29 28  1  0  0  0  0
 30 29  1  0  0  0  0
 38 32  1  6  0  0  0
 37 33  1  1  0  0  0
 36 34  1  6  0  0  0
 40 35  1  0  0  0  0
 36 35  1  0  0  0  0
 37 36  1  0  0  0  0
 38 37  1  0  0  0  0
 39 38  1  0  0  0  0
 40 39  1  0  0  0  0
 52 48  1  1  0  0  0
 45 42  1  0  0  0  0
 48 43  2  0  0  0  0
 44 43  1  0  0  0  0
 45 44  2  0  0  0  0
 46 45  1  0  0  0  0
 47 46  2  0  0  0  0
 48 47  1  0  0  0  0
 55 51  1  6  0  0  0
 51 49  1  0  0  0  0
 51 50  2  0  0  0  0
 55 52  1  0  0  0  0
 53 52  1  0  0  0  0
 54 53  1  0  0  0  0
 55 54  1  0  0  0  0
 59 56  1  0  0  0  0
 62 57  2  0  0  0  0
 58 57  1  0  0  0  0
 59 58  2  0  0  0  0
 60 59  1  0  0  0  0
 61 60  2  0  0  0  0
 62 61  1  0  0  0  0
104103  1  0  0  0  0
101103  1  1  0  0  0
 97 93  1  1  0  0  0
 90 93  1  6  0  0  0
 91 83  1  1  0  0  0
 83 81  1  0  0  0  0
 78 63  1  0  0  0  0
 76 64  1  0  0  0  0
 82 71  1  0  0  0  0
 68 65  1  0  0  0  0
 71 66  2  0  0  0  0
 67 66  1  0  0  0  0
 68 67  2  0  0  0  0
 69 68  1  0  0  0  0
 70 69  2  0  0  0  0
 71 70  1  0  0  0  0
 80 72  2  0  0  0  0
 82 73  1  0  0  0  0
 74 73  1  0  0  0  0
 79 74  2  0  0  0  0
 75 74  1  0  0  0  0
 76 75  2  0  0  0  0
 77 76  1  0  0  0  0
 78 77  2  0  0  0  0
 79 78  1  0  0  0  0
 80 79  1  0  0  0  0
 81 80  1  0  0  0  0
 82 81  2  0  0  0  0
 89 84  1  6  0  0  0
 88 85  1  1  0  0  0
 87 86  1  6  0  0  0
 92 87  1  0  0  0  0
 88 87  1  0  0  0  0
 89 88  1  0  0  0  0
 90 89  1  0  0  0  0
 91 90  1  0  0  0  0
 92 91  1  0  0  0  0
100 94  1  6  0  0  0
 99 95  1  1  0  0  0
 98 96  1  6  0  0  0
102 97  1  0  0  0  0
 98 97  1  0  0  0  0
 99 98  1  0  0  0  0
100 99  1  0  0  0  0
101100  1  0  0  0  0
102101  1  0  0  0  0
106104  1  0  0  0  0
106105  2  0  0  0  0
 54 62  1  1  0  0  0
 53106  1  6  0  0  0
M  END
>  <cdx:fragmentId>
95

$$$$
