974411.cdx
  Mrv1902 05222410272D          

 21 22  0  0  0  0            999 V2000
   11.7273   -5.9538    0.0000 O   0  0  0  0  0  0  0  0  0  0  0  0
   10.2984   -7.6037    0.0000 C   0  0  0  0  0  0  0  0  0  0  0  0
   11.0129   -7.1913    0.0000 C   0  0  0  0  0  0  0  0  0  0  0  0
   11.0129   -6.3662    0.0000 C   0  0  0  0  0  0  0  0  0  0  0  0
   10.2984   -5.9538    0.0000 C   0  0  0  0  0  0  0  0  0  0  0  0
    9.5839   -6.3662    0.0000 C   0  0  0  0  0  0  0  0  0  0  0  0
    9.5839   -7.1913    0.0000 C   0  0  0  0  0  0  0  0  0  0  0  0
    8.8694   -7.6037    0.0000 C   0  0  0  0  0  0  0  0  0  0  0  0
    8.1550   -7.1913    0.0000 C   0  0  0  0  0  0  0  0  0  0  0  0
    6.7260   -6.3662    0.0000 O   0  0  0  0  0  0  0  0  0  0  0  0
    7.4405   -7.6037    0.0000 N   0  0  0  0  0  0  0  0  0  0  0  0
    6.7260   -7.1913    0.0000 C   0  0  0  0  0  0  0  0  0  0  0  0
    6.0116   -7.6037    0.0000 C   0  0  0  0  0  0  0  0  0  0  0  0
    5.2971   -7.1913    0.0000 C   0  0  0  0  0  0  0  0  0  0  0  0
    2.4392   -8.8413    0.0000 O   0  0  0  0  0  0  0  0  0  0  0  0
    3.8681   -8.8413    0.0000 C   0  0  0  0  0  0  0  0  0  0  0  0
    4.5826   -8.4288    0.0000 C   0  0  0  0  0  0  0  0  0  0  0  0
    4.5826   -7.6037    0.0000 C   0  0  0  0  0  0  0  0  0  0  0  0
    3.8681   -7.1913    0.0000 C   0  0  0  0  0  0  0  0  0  0  0  0
    3.1537   -7.6037    0.0000 C   0  0  0  0  0  0  0  0  0  0  0  0
    3.1537   -8.4288    0.0000 C   0  0  0  0  0  0  0  0  0  0  0  0
  4  1  1  0  0  0  0
  2  7  1  0  0  0  0
  3  2  2  0  0  0  0
  4  3  1  0  0  0  0
  5  4  2  0  0  0  0
  6  5  1  0  0  0  0
  7  6  2  0  0  0  0
  8  7  1  0  0  0  0
  9  8  1  0  0  0  0
 11  9  1  0  0  0  0
 12 10  2  0  0  0  0
 12 11  1  0  0  0  0
 13 12  1  0  0  0  0
 14 13  2  0  0  0  0
 18 14  1  0  0  0  0
 21 15  1  0  0  0  0
 16 21  1  0  0  0  0
 17 16  2  0  0  0  0
 18 17  1  0  0  0  0
 19 18  2  0  0  0  0
 20 19  1  0  0  0  0
 21 20  2  0  0  0  0
M  END
>  <cdx:fragmentId>
5

$$$$
