97446.cdx
  Mrv1902 05222410232D          

107119  0  0  0  0            999 V2000
    2.1124  -11.6219    0.0000 O   0  0  0  0  0  0  0  0  0  0  0  0
    5.7286  -14.4798    0.0000 O   0  0  0  0  0  0  0  0  0  0  0  0
    3.7486  -15.6229    0.0000 O   0  0  0  0  0  0  0  0  0  0  0  0
    2.7586  -10.4788    0.0000 O   0  0  0  0  0  0  0  0  0  0  0  0
    3.0886  -12.1935    0.0000 C   0  0  0  0  0  0  0  0  0  0  0  0
    2.7586  -11.6219    0.0000 C   0  0  0  0  0  0  0  0  0  0  0  0
    3.0886  -11.0503    0.0000 C   0  0  0  0  0  0  0  0  0  0  0  0
    3.7486  -11.0503    0.0000 C   0  0  0  0  0  0  0  0  0  0  0  0
    4.0786  -11.6219    0.0000 C   0  0  0  0  0  0  0  0  0  0  0  0
    3.7486  -12.1935    0.0000 C   0  0  0  0  0  0  0  0  0  0  0  0
    5.7286  -13.3366    0.0000 O   0  0  0  0  0  0  0  0  0  0  0  0
    3.7486  -13.3366    0.0000 O   0  0  0  0  0  0  0  0  0  0  0  0
    4.0786  -13.9082    0.0000 C   0  0  0  0  0  0  0  0  0  0  0  0
    3.7486  -14.4798    0.0000 C   0  0  0  0  0  0  0  0  0  0  0  0
    4.0786  -15.0514    0.0000 C   0  0  0  0  0  0  0  0  0  0  0  0
    4.7386  -15.0514    0.0000 C   0  0  0  0  0  0  0  0  0  0  0  0
    5.0686  -14.4798    0.0000 C   0  0  0  0  0  0  0  0  0  0  0  0
    4.7386  -13.9082    0.0000 C   0  0  0  0  0  0  0  0  0  0  0  0
    5.0686  -13.3366    0.0000 C   0  0  0  0  0  0  0  0  0  0  0  0
    4.7386  -12.7651    0.0000 C   0  0  0  0  0  0  0  0  0  0  0  0
    4.0786  -12.7651    0.0000 C   0  0  0  0  0  0  0  0  0  0  0  0
    5.0686  -12.1935    0.0000 O   0  0  0  0  0  0  0  0  0  0  0  0
    7.0486  -11.0503    0.0000 O   0  0  0  0  0  0  0  0  0  0  0  0
    7.7086  -12.1935    0.0000 O   0  0  0  0  0  0  0  0  0  0  0  0
    7.0486  -13.3366    0.0000 C   0  0  0  0  0  0  0  0  0  0  0  0
    6.7186  -12.7651    0.0000 C   0  0  1  0  0  0  0  0  0  0  0  0
    7.0486  -12.1935    0.0000 C   0  0  1  0  0  0  0  0  0  0  0  0
    6.7186  -11.6219    0.0000 C   0  0  2  0  0  0  0  0  0  0  0  0
    6.0586  -11.6219    0.0000 C   0  0  2  0  0  0  0  0  0  0  0  0
    5.7286  -12.1935    0.0000 C   0  0  1  0  0  0  0  0  0  0  0  0
    6.0586  -12.7651    0.0000 O   0  0  0  0  0  0  0  0  0  0  0  0
    5.7286  -11.0503    0.0000 O   0  0  0  0  0  0  0  0  0  0  0  0
    7.0486   -8.7640    0.0000 O   0  0  0  0  0  0  0  0  0  0  0  0
    5.7286   -8.7640    0.0000 O   0  0  0  0  0  0  0  0  0  0  0  0
    5.0686   -9.9072    0.0000 O   0  0  0  0  0  0  0  0  0  0  0  0
    6.0586  -10.4788    0.0000 C   0  0  1  0  0  0  0  0  0  0  0  0
    5.7286   -9.9072    0.0000 C   0  0  1  0  0  0  0  0  0  0  0  0
    6.0586   -9.3356    0.0000 C   0  0  2  0  0  0  0  0  0  0  0  0
    6.7186   -9.3356    0.0000 C   0  0  1  0  0  0  0  0  0  0  0  0
    7.0486   -9.9072    0.0000 C   0  0  2  0  0  0  0  0  0  0  0  0
    6.7186  -10.4788    0.0000 O   0  0  0  0  0  0  0  0  0  0  0  0
    7.7086   -9.9072    0.0000 C   0  0  0  0  0  0  0  0  0  0  0  0
    3.1420   -4.8265    0.0000 O   0  0  0  0  0  0  0  0  0  0  0  0
    1.9989   -2.8465    0.0000 O   0  0  0  0  0  0  0  0  0  0  0  0
    7.1431   -1.8565    0.0000 O   0  0  0  0  0  0  0  0  0  0  0  0
    5.4283   -2.1865    0.0000 C   0  0  0  0  0  0  0  0  0  0  0  0
    5.9999   -1.8565    0.0000 C   0  0  0  0  0  0  0  0  0  0  0  0
    6.5715   -2.1865    0.0000 C   0  0  0  0  0  0  0  0  0  0  0  0
    6.5715   -2.8465    0.0000 C   0  0  0  0  0  0  0  0  0  0  0  0
    5.9999   -3.1765    0.0000 C   0  0  0  0  0  0  0  0  0  0  0  0
    5.4283   -2.8465    0.0000 C   0  0  0  0  0  0  0  0  0  0  0  0
    4.2852   -4.8265    0.0000 O   0  0  0  0  0  0  0  0  0  0  0  0
    4.2852   -2.8465    0.0000 O   0  0  0  0  0  0  0  0  0  0  0  0
    3.7136   -3.1765    0.0000 C   0  0  0  0  0  0  0  0  0  0  0  0
    3.1420   -2.8465    0.0000 C   0  0  0  0  0  0  0  0  0  0  0  0
    2.5704   -3.1765    0.0000 C   0  0  0  0  0  0  0  0  0  0  0  0
    2.5704   -3.8365    0.0000 C   0  0  0  0  0  0  0  0  0  0  0  0
    3.1420   -4.1665    0.0000 C   0  0  0  0  0  0  0  0  0  0  0  0
    3.7136   -3.8365    0.0000 C   0  0  0  0  0  0  0  0  0  0  0  0
    4.2852   -4.1665    0.0000 C   0  0  0  0  0  0  0  0  0  0  0  0
    4.8568   -3.8365    0.0000 C   0  0  0  0  0  0  0  0  0  0  0  0
    4.8568   -3.1765    0.0000 C   0  0  0  0  0  0  0  0  0  0  0  0
    5.4283   -4.1665    0.0000 O   0  0  0  0  0  0  0  0  0  0  0  0
    6.5715   -6.1465    0.0000 O   0  0  0  0  0  0  0  0  0  0  0  0
    5.4283   -6.8065    0.0000 O   0  0  0  0  0  0  0  0  0  0  0  0
    4.2852   -6.1465    0.0000 C   0  0  0  0  0  0  0  0  0  0  0  0
    4.8568   -5.8165    0.0000 C   0  0  1  0  0  0  0  0  0  0  0  0
    5.4283   -6.1465    0.0000 C   0  0  1  0  0  0  0  0  0  0  0  0
    5.9999   -5.8165    0.0000 C   0  0  2  0  0  0  0  0  0  0  0  0
    5.9999   -5.1565    0.0000 C   0  0  2  0  0  0  0  0  0  0  0  0
    5.4283   -4.8265    0.0000 C   0  0  1  0  0  0  0  0  0  0  0  0
    4.8568   -5.1565    0.0000 O   0  0  0  0  0  0  0  0  0  0  0  0
    6.5715   -4.8265    0.0000 O   0  0  0  0  0  0  0  0  0  0  0  0
    8.8578   -6.1465    0.0000 O   0  0  0  0  0  0  0  0  0  0  0  0
    8.8578   -4.8265    0.0000 O   0  0  0  0  0  0  0  0  0  0  0  0
    7.7146   -4.1665    0.0000 O   0  0  0  0  0  0  0  0  0  0  0  0
    7.1431   -5.1565    0.0000 C   0  0  1  0  0  0  0  0  0  0  0  0
    7.7146   -4.8265    0.0000 C   0  0  1  0  0  0  0  0  0  0  0  0
    8.2862   -5.1565    0.0000 C   0  0  2  0  0  0  0  0  0  0  0  0
    8.2862   -5.8165    0.0000 C   0  0  1  0  0  0  0  0  0  0  0  0
    7.7146   -6.1465    0.0000 C   0  0  2  0  0  0  0  0  0  0  0  0
    7.1431   -5.8165    0.0000 O   0  0  0  0  0  0  0  0  0  0  0  0
    7.7146   -6.8065    0.0000 C   0  0  0  0  0  0  0  0  0  0  0  0
   11.9524   -9.9132    0.0000 O   0  0  0  0  0  0  0  0  0  0  0  0
   10.8093   -8.5932    0.0000 C   0  0  0  0  0  0  0  0  0  0  0  0
   11.3809   -8.9232    0.0000 C   0  0  0  0  0  0  0  0  0  0  0  0
   11.3809   -9.5832    0.0000 C   0  0  0  0  0  0  0  0  0  0  0  0
   10.8093   -9.9132    0.0000 C   0  0  0  0  0  0  0  0  0  0  0  0
   10.2377   -9.5832    0.0000 C   0  0  0  0  0  0  0  0  0  0  0  0
   10.2377   -8.9232    0.0000 C   0  0  0  0  0  0  0  0  0  0  0  0
   10.8153   -5.6694    0.0000 O   0  0  0  0  0  0  0  0  0  0  0  0
    9.4953   -6.8125    0.0000 C   0  0  0  0  0  0  0  0  0  0  0  0
    9.8253   -6.2410    0.0000 C   0  0  0  0  0  0  0  0  0  0  0  0
   10.4853   -6.2410    0.0000 C   0  0  0  0  0  0  0  0  0  0  0  0
   10.8153   -6.8125    0.0000 C   0  0  0  0  0  0  0  0  0  0  0  0
   10.4853   -7.3841    0.0000 C   0  0  0  0  0  0  0  0  0  0  0  0
    9.8253   -7.3841    0.0000 C   0  0  0  0  0  0  0  0  0  0  0  0
    8.0386   -9.3356    0.0000 O   0  0  0  0  0  0  0  0  0  0  0  0
    9.0286   -9.9072    0.0000 O   0  0  0  0  0  0  0  0  0  0  0  0
    8.6986   -9.3356    0.0000 C   0  0  0  0  0  0  0  0  0  0  0  0
    8.2862   -7.1365    0.0000 O   0  0  0  0  0  0  0  0  0  0  0  0
    7.7146   -8.1265    0.0000 O   0  0  0  0  0  0  0  0  0  0  0  0
    8.2862   -7.7965    0.0000 C   0  0  0  0  0  0  0  0  0  0  0  0
    9.4953   -7.9557    0.0000 C   0  0  1  0  0  0  0  0  0  0  0  0
    9.6661   -8.5932    0.0000 C   0  0  1  0  0  0  0  0  0  0  0  0
    9.0286   -8.7640    0.0000 C   0  0  2  0  0  0  0  0  0  0  0  0
    8.8578   -8.1265    0.0000 C   0  0  2  0  0  0  0  0  0  0  0  0
  6  1  1  0  0  0  0
 98 42  1  0  0  0  0
 40 42  1  1  0  0  0
 36 32  1  1  0  0  0
 29 32  1  6  0  0  0
 30 22  1  1  0  0  0
 22 20  1  0  0  0  0
 17  2  1  0  0  0  0
 15  3  1  0  0  0  0
 21 10  1  0  0  0  0
  7  4  1  0  0  0  0
 10  5  2  0  0  0  0
  6  5  1  0  0  0  0
  7  6  2  0  0  0  0
  8  7  1  0  0  0  0
  9  8  2  0  0  0  0
 10  9  1  0  0  0  0
 19 11  2  0  0  0  0
 21 12  1  0  0  0  0
 13 12  1  0  0  0  0
 18 13  2  0  0  0  0
 14 13  1  0  0  0  0
 15 14  2  0  0  0  0
 16 15  1  0  0  0  0
 17 16  2  0  0  0  0
 18 17  1  0  0  0  0
 19 18  1  0  0  0  0
 20 19  1  0  0  0  0
 21 20  2  0  0  0  0
 28 23  1  6  0  0  0
 27 24  1  1  0  0  0
 26 25  1  6  0  0  0
 31 26  1  0  0  0  0
 27 26  1  0  0  0  0
 28 27  1  0  0  0  0
 29 28  1  0  0  0  0
 30 29  1  0  0  0  0
 31 30  1  0  0  0  0
 39 33  1  6  0  0  0
 38 34  1  1  0  0  0
 37 35  1  6  0  0  0
 41 36  1  0  0  0  0
 37 36  1  0  0  0  0
 38 37  1  0  0  0  0
 39 38  1  0  0  0  0
 40 39  1  0  0  0  0
 41 40  1  0  0  0  0
101 83  1  0  0  0  0
 81 83  1  1  0  0  0
 77 73  1  1  0  0  0
 70 73  1  6  0  0  0
 71 63  1  1  0  0  0
 63 61  1  0  0  0  0
 58 43  1  0  0  0  0
 56 44  1  0  0  0  0
 62 51  1  0  0  0  0
 48 45  1  0  0  0  0
 51 46  2  0  0  0  0
 47 46  1  0  0  0  0
 48 47  2  0  0  0  0
 49 48  1  0  0  0  0
 50 49  2  0  0  0  0
 51 50  1  0  0  0  0
 60 52  2  0  0  0  0
 62 53  1  0  0  0  0
 54 53  1  0  0  0  0
 59 54  2  0  0  0  0
 55 54  1  0  0  0  0
 56 55  2  0  0  0  0
 57 56  1  0  0  0  0
 58 57  2  0  0  0  0
 59 58  1  0  0  0  0
 60 59  1  0  0  0  0
 61 60  1  0  0  0  0
 62 61  2  0  0  0  0
 69 64  1  6  0  0  0
 68 65  1  1  0  0  0
 67 66  1  6  0  0  0
 72 67  1  0  0  0  0
 68 67  1  0  0  0  0
 69 68  1  0  0  0  0
 70 69  1  0  0  0  0
 71 70  1  0  0  0  0
 72 71  1  0  0  0  0
 80 74  1  6  0  0  0
 79 75  1  1  0  0  0
 78 76  1  6  0  0  0
 82 77  1  0  0  0  0
 78 77  1  0  0  0  0
 79 78  1  0  0  0  0
 80 79  1  0  0  0  0
 81 80  1  0  0  0  0
 82 81  1  0  0  0  0
105 90  1  6  0  0  0
 87 84  1  0  0  0  0
 90 85  2  0  0  0  0
 86 85  1  0  0  0  0
 87 86  2  0  0  0  0
 88 87  1  0  0  0  0
 89 88  2  0  0  0  0
 90 89  1  0  0  0  0
104 97  1  1  0  0  0
 94 91  1  0  0  0  0
 97 92  2  0  0  0  0
 93 92  1  0  0  0  0
 94 93  2  0  0  0  0
 95 94  1  0  0  0  0
 96 95  2  0  0  0  0
 97 96  1  0  0  0  0
106100  1  1  0  0  0
100 98  1  0  0  0  0
100 99  2  0  0  0  0
107103  1  6  0  0  0
103101  1  0  0  0  0
103102  2  0  0  0  0
107104  1  0  0  0  0
105104  1  0  0  0  0
106105  1  0  0  0  0
107106  1  0  0  0  0
M  END
>  <cdx:fragmentId>
95

$$$$
