97441.cdx
  Mrv1902 05222410252D          

106118  0  0  0  0            999 V2000
    5.7286  -13.8198    0.0000 O   0  0  0  0  0  0  0  0  0  0  0  0
    3.7486  -14.9629    0.0000 O   0  0  0  0  0  0  0  0  0  0  0  0
    2.7586   -9.8188    0.0000 O   0  0  0  0  0  0  0  0  0  0  0  0
    3.0886  -11.5335    0.0000 C   0  0  0  0  0  0  0  0  0  0  0  0
    2.7586  -10.9619    0.0000 C   0  0  0  0  0  0  0  0  0  0  0  0
    3.0886  -10.3903    0.0000 C   0  0  0  0  0  0  0  0  0  0  0  0
    3.7486  -10.3903    0.0000 C   0  0  0  0  0  0  0  0  0  0  0  0
    4.0786  -10.9619    0.0000 C   0  0  0  0  0  0  0  0  0  0  0  0
    3.7486  -11.5335    0.0000 C   0  0  0  0  0  0  0  0  0  0  0  0
    5.7286  -12.6766    0.0000 O   0  0  0  0  0  0  0  0  0  0  0  0
    3.7486  -12.6766    0.0000 O   0  0  0  0  0  0  0  0  0  0  0  0
    4.0786  -13.2482    0.0000 C   0  0  0  0  0  0  0  0  0  0  0  0
    3.7486  -13.8198    0.0000 C   0  0  0  0  0  0  0  0  0  0  0  0
    4.0786  -14.3914    0.0000 C   0  0  0  0  0  0  0  0  0  0  0  0
    4.7386  -14.3914    0.0000 C   0  0  0  0  0  0  0  0  0  0  0  0
    5.0686  -13.8198    0.0000 C   0  0  0  0  0  0  0  0  0  0  0  0
    4.7386  -13.2482    0.0000 C   0  0  0  0  0  0  0  0  0  0  0  0
    5.0686  -12.6766    0.0000 C   0  0  0  0  0  0  0  0  0  0  0  0
    4.7386  -12.1051    0.0000 C   0  0  0  0  0  0  0  0  0  0  0  0
    4.0786  -12.1051    0.0000 C   0  0  0  0  0  0  0  0  0  0  0  0
    5.0686  -11.5335    0.0000 O   0  0  0  0  0  0  0  0  0  0  0  0
    7.0486  -10.3903    0.0000 O   0  0  0  0  0  0  0  0  0  0  0  0
    7.7086  -11.5335    0.0000 O   0  0  0  0  0  0  0  0  0  0  0  0
    7.0486  -12.6766    0.0000 C   0  0  0  0  0  0  0  0  0  0  0  0
    6.7186  -12.1051    0.0000 C   0  0  1  0  0  0  0  0  0  0  0  0
    7.0486  -11.5335    0.0000 C   0  0  1  0  0  0  0  0  0  0  0  0
    6.7186  -10.9619    0.0000 C   0  0  2  0  0  0  0  0  0  0  0  0
    6.0586  -10.9619    0.0000 C   0  0  2  0  0  0  0  0  0  0  0  0
    5.7286  -11.5335    0.0000 C   0  0  1  0  0  0  0  0  0  0  0  0
    6.0586  -12.1051    0.0000 O   0  0  0  0  0  0  0  0  0  0  0  0
    5.7286  -10.3903    0.0000 O   0  0  0  0  0  0  0  0  0  0  0  0
    7.0486   -8.1040    0.0000 O   0  0  0  0  0  0  0  0  0  0  0  0
    5.7286   -8.1040    0.0000 O   0  0  0  0  0  0  0  0  0  0  0  0
    5.0686   -9.2472    0.0000 O   0  0  0  0  0  0  0  0  0  0  0  0
    6.0586   -9.8188    0.0000 C   0  0  1  0  0  0  0  0  0  0  0  0
    5.7286   -9.2472    0.0000 C   0  0  1  0  0  0  0  0  0  0  0  0
    6.0586   -8.6756    0.0000 C   0  0  2  0  0  0  0  0  0  0  0  0
    6.7186   -8.6756    0.0000 C   0  0  1  0  0  0  0  0  0  0  0  0
    7.0486   -9.2472    0.0000 C   0  0  2  0  0  0  0  0  0  0  0  0
    6.7186   -9.8188    0.0000 O   0  0  0  0  0  0  0  0  0  0  0  0
    7.7086   -9.2472    0.0000 C   0  0  0  0  0  0  0  0  0  0  0  0
    3.1420   -4.1665    0.0000 O   0  0  0  0  0  0  0  0  0  0  0  0
    1.9989   -2.1865    0.0000 O   0  0  0  0  0  0  0  0  0  0  0  0
    7.1431   -1.1965    0.0000 O   0  0  0  0  0  0  0  0  0  0  0  0
    5.4283   -1.5265    0.0000 C   0  0  0  0  0  0  0  0  0  0  0  0
    5.9999   -1.1965    0.0000 C   0  0  0  0  0  0  0  0  0  0  0  0
    6.5715   -1.5265    0.0000 C   0  0  0  0  0  0  0  0  0  0  0  0
    6.5715   -2.1865    0.0000 C   0  0  0  0  0  0  0  0  0  0  0  0
    5.9999   -2.5165    0.0000 C   0  0  0  0  0  0  0  0  0  0  0  0
    5.4283   -2.1865    0.0000 C   0  0  0  0  0  0  0  0  0  0  0  0
    4.2852   -4.1665    0.0000 O   0  0  0  0  0  0  0  0  0  0  0  0
    4.2852   -2.1865    0.0000 O   0  0  0  0  0  0  0  0  0  0  0  0
    3.7136   -2.5165    0.0000 C   0  0  0  0  0  0  0  0  0  0  0  0
    3.1420   -2.1865    0.0000 C   0  0  0  0  0  0  0  0  0  0  0  0
    2.5704   -2.5165    0.0000 C   0  0  0  0  0  0  0  0  0  0  0  0
    2.5704   -3.1765    0.0000 C   0  0  0  0  0  0  0  0  0  0  0  0
    3.1420   -3.5065    0.0000 C   0  0  0  0  0  0  0  0  0  0  0  0
    3.7136   -3.1765    0.0000 C   0  0  0  0  0  0  0  0  0  0  0  0
    4.2852   -3.5065    0.0000 C   0  0  0  0  0  0  0  0  0  0  0  0
    4.8568   -3.1765    0.0000 C   0  0  0  0  0  0  0  0  0  0  0  0
    4.8568   -2.5165    0.0000 C   0  0  0  0  0  0  0  0  0  0  0  0
    5.4283   -3.5065    0.0000 O   0  0  0  0  0  0  0  0  0  0  0  0
    6.5715   -5.4865    0.0000 O   0  0  0  0  0  0  0  0  0  0  0  0
    5.4283   -6.1465    0.0000 O   0  0  0  0  0  0  0  0  0  0  0  0
    4.2852   -5.4865    0.0000 C   0  0  0  0  0  0  0  0  0  0  0  0
    4.8568   -5.1565    0.0000 C   0  0  1  0  0  0  0  0  0  0  0  0
    5.4283   -5.4865    0.0000 C   0  0  1  0  0  0  0  0  0  0  0  0
    5.9999   -5.1565    0.0000 C   0  0  2  0  0  0  0  0  0  0  0  0
    5.9999   -4.4965    0.0000 C   0  0  2  0  0  0  0  0  0  0  0  0
    5.4283   -4.1665    0.0000 C   0  0  1  0  0  0  0  0  0  0  0  0
    4.8568   -4.4965    0.0000 O   0  0  0  0  0  0  0  0  0  0  0  0
    6.5715   -4.1665    0.0000 O   0  0  0  0  0  0  0  0  0  0  0  0
    8.8578   -5.4865    0.0000 O   0  0  0  0  0  0  0  0  0  0  0  0
    8.8578   -4.1665    0.0000 O   0  0  0  0  0  0  0  0  0  0  0  0
    7.7146   -3.5065    0.0000 O   0  0  0  0  0  0  0  0  0  0  0  0
    7.1431   -4.4965    0.0000 C   0  0  1  0  0  0  0  0  0  0  0  0
    7.7146   -4.1665    0.0000 C   0  0  1  0  0  0  0  0  0  0  0  0
    8.2862   -4.4965    0.0000 C   0  0  2  0  0  0  0  0  0  0  0  0
    8.2862   -5.1565    0.0000 C   0  0  1  0  0  0  0  0  0  0  0  0
    7.7146   -5.4865    0.0000 C   0  0  2  0  0  0  0  0  0  0  0  0
    7.1431   -5.1565    0.0000 O   0  0  0  0  0  0  0  0  0  0  0  0
    7.7146   -6.1465    0.0000 C   0  0  0  0  0  0  0  0  0  0  0  0
   11.9524   -9.2532    0.0000 O   0  0  0  0  0  0  0  0  0  0  0  0
   10.8093   -7.9332    0.0000 C   0  0  0  0  0  0  0  0  0  0  0  0
   11.3809   -8.2632    0.0000 C   0  0  0  0  0  0  0  0  0  0  0  0
   11.3809   -8.9232    0.0000 C   0  0  0  0  0  0  0  0  0  0  0  0
   10.8093   -9.2532    0.0000 C   0  0  0  0  0  0  0  0  0  0  0  0
   10.2377   -8.9232    0.0000 C   0  0  0  0  0  0  0  0  0  0  0  0
   10.2377   -8.2632    0.0000 C   0  0  0  0  0  0  0  0  0  0  0  0
   10.8153   -5.0094    0.0000 O   0  0  0  0  0  0  0  0  0  0  0  0
    9.4953   -6.1525    0.0000 C   0  0  0  0  0  0  0  0  0  0  0  0
    9.8253   -5.5810    0.0000 C   0  0  0  0  0  0  0  0  0  0  0  0
   10.4853   -5.5810    0.0000 C   0  0  0  0  0  0  0  0  0  0  0  0
   10.8153   -6.1525    0.0000 C   0  0  0  0  0  0  0  0  0  0  0  0
   10.4853   -6.7241    0.0000 C   0  0  0  0  0  0  0  0  0  0  0  0
    9.8253   -6.7241    0.0000 C   0  0  0  0  0  0  0  0  0  0  0  0
    8.0386   -8.6756    0.0000 O   0  0  0  0  0  0  0  0  0  0  0  0
    9.0286   -9.2472    0.0000 O   0  0  0  0  0  0  0  0  0  0  0  0
    8.6986   -8.6756    0.0000 C   0  0  0  0  0  0  0  0  0  0  0  0
    8.2862   -6.4765    0.0000 O   0  0  0  0  0  0  0  0  0  0  0  0
    7.7146   -7.4665    0.0000 O   0  0  0  0  0  0  0  0  0  0  0  0
    8.2862   -7.1365    0.0000 C   0  0  0  0  0  0  0  0  0  0  0  0
    9.4953   -7.2957    0.0000 C   0  0  1  0  0  0  0  0  0  0  0  0
    9.6661   -7.9332    0.0000 C   0  0  2  0  0  0  0  0  0  0  0  0
    9.0286   -8.1040    0.0000 C   0  0  1  0  0  0  0  0  0  0  0  0
    8.8578   -7.4665    0.0000 C   0  0  2  0  0  0  0  0  0  0  0  0
 97 41  1  0  0  0  0
 39 41  1  1  0  0  0
 35 31  1  1  0  0  0
 28 31  1  6  0  0  0
 29 21  1  1  0  0  0
 21 19  1  0  0  0  0
 16  1  1  0  0  0  0
 14  2  1  0  0  0  0
 20  9  1  0  0  0  0
  6  3  1  0  0  0  0
  9  4  2  0  0  0  0
  5  4  1  0  0  0  0
  6  5  2  0  0  0  0
  7  6  1  0  0  0  0
  8  7  2  0  0  0  0
  9  8  1  0  0  0  0
 18 10  2  0  0  0  0
 20 11  1  0  0  0  0
 12 11  1  0  0  0  0
 17 12  2  0  0  0  0
 13 12  1  0  0  0  0
 14 13  2  0  0  0  0
 15 14  1  0  0  0  0
 16 15  2  0  0  0  0
 17 16  1  0  0  0  0
 18 17  1  0  0  0  0
 19 18  1  0  0  0  0
 20 19  2  0  0  0  0
 27 22  1  6  0  0  0
 26 23  1  1  0  0  0
 25 24  1  6  0  0  0
 30 25  1  0  0  0  0
 26 25  1  0  0  0  0
 27 26  1  0  0  0  0
 28 27  1  0  0  0  0
 29 28  1  0  0  0  0
 30 29  1  0  0  0  0
 38 32  1  6  0  0  0
 37 33  1  1  0  0  0
 36 34  1  6  0  0  0
 40 35  1  0  0  0  0
 36 35  1  0  0  0  0
 37 36  1  0  0  0  0
 38 37  1  0  0  0  0
 39 38  1  0  0  0  0
 40 39  1  0  0  0  0
100 82  1  0  0  0  0
 80 82  1  1  0  0  0
 76 72  1  1  0  0  0
 69 72  1  6  0  0  0
 70 62  1  1  0  0  0
 62 60  1  0  0  0  0
 57 42  1  0  0  0  0
 55 43  1  0  0  0  0
 61 50  1  0  0  0  0
 47 44  1  0  0  0  0
 50 45  2  0  0  0  0
 46 45  1  0  0  0  0
 47 46  2  0  0  0  0
 48 47  1  0  0  0  0
 49 48  2  0  0  0  0
 50 49  1  0  0  0  0
 59 51  2  0  0  0  0
 61 52  1  0  0  0  0
 53 52  1  0  0  0  0
 58 53  2  0  0  0  0
 54 53  1  0  0  0  0
 55 54  2  0  0  0  0
 56 55  1  0  0  0  0
 57 56  2  0  0  0  0
 58 57  1  0  0  0  0
 59 58  1  0  0  0  0
 60 59  1  0  0  0  0
 61 60  2  0  0  0  0
 68 63  1  6  0  0  0
 67 64  1  1  0  0  0
 66 65  1  6  0  0  0
 71 66  1  0  0  0  0
 67 66  1  0  0  0  0
 68 67  1  0  0  0  0
 69 68  1  0  0  0  0
 70 69  1  0  0  0  0
 71 70  1  0  0  0  0
 79 73  1  6  0  0  0
 78 74  1  1  0  0  0
 77 75  1  6  0  0  0
 81 76  1  0  0  0  0
 77 76  1  0  0  0  0
 78 77  1  0  0  0  0
 79 78  1  0  0  0  0
 80 79  1  0  0  0  0
 81 80  1  0  0  0  0
104 89  1  1  0  0  0
 86 83  1  0  0  0  0
 89 84  2  0  0  0  0
 85 84  1  0  0  0  0
 86 85  2  0  0  0  0
 87 86  1  0  0  0  0
 88 87  2  0  0  0  0
 89 88  1  0  0  0  0
103 96  1  1  0  0  0
 93 90  1  0  0  0  0
 96 91  2  0  0  0  0
 92 91  1  0  0  0  0
 93 92  2  0  0  0  0
 94 93  1  0  0  0  0
 95 94  2  0  0  0  0
 96 95  1  0  0  0  0
105 99  1  6  0  0  0
 99 97  1  0  0  0  0
 99 98  2  0  0  0  0
106102  1  6  0  0  0
102100  1  0  0  0  0
102101  2  0  0  0  0
106103  1  0  0  0  0
104103  1  0  0  0  0
105104  1  0  0  0  0
106105  1  0  0  0  0
M  END
>  <cdx:fragmentId>
95

$$$$
