97457.cdx
  Mrv1902 05222410252D          

 22 22  0  0  0  0            999 V2000
    5.1062   -6.9025    0.0000 C   0  0  0  0  0  0  0  0  0  0  0  0
    5.1062   -7.7275    0.0000 C   0  0  0  0  0  0  0  0  0  0  0  0
    5.8206   -8.1400    0.0000 C   0  0  0  0  0  0  0  0  0  0  0  0
    6.5351   -7.7275    0.0000 C   0  0  0  0  0  0  0  0  0  0  0  0
    6.5351   -6.9025    0.0000 C   0  0  1  0  0  0  0  0  0  0  0  0
    5.8206   -6.4900    0.0000 C   0  0  2  0  0  0  0  0  0  0  0  0
    7.2496   -8.1400    0.0000 C   0  0  0  0  0  0  0  0  0  0  0  0
    7.9641   -7.7275    0.0000 C   0  0  0  0  0  0  0  0  0  0  0  0
    7.9641   -6.9025    0.0000 C   0  0  0  0  0  0  0  0  0  0  0  0
    7.2496   -6.4900    0.0000 C   0  0  0  0  0  0  0  0  0  0  0  0
    6.2331   -5.7755    0.0000 C   0  0  0  0  0  0  0  0  0  0  0  0
    8.6785   -8.1400    0.0000 C   0  0  0  0  0  0  0  0  0  0  0  0
    8.6785   -8.9650    0.0000 O   0  0  0  0  0  0  0  0  0  0  0  0
    9.3930   -7.7275    0.0000 O   0  0  0  0  0  0  0  0  0  0  0  0
    9.3930   -6.9025    0.0000 C   0  0  0  0  0  0  0  0  0  0  0  0
    5.8206   -8.9650    0.0000 C   0  0  0  0  0  0  0  0  0  0  0  0
    6.5351   -9.3775    0.0000 C   0  0  0  0  0  0  0  0  0  0  0  0
    5.1062   -9.3775    0.0000 C   0  0  0  0  0  0  0  0  0  0  0  0
    5.8206   -9.7900    0.0000 O   0  0  0  0  0  0  0  0  0  0  0  0
    5.4081   -5.7755    0.0000 O   0  0  0  0  0  0  0  0  0  0  0  0
    6.5351   -6.0775    0.0000 H   0  0  0  0  0  0  0  0  0  0  0  0
    6.5351  -10.2025    0.0000 C   0  0  0  0  0  0  0  0  0  0  0  0
  1  2  1  0  0  0  0
  2  3  2  0  0  0  0
  4  5  1  0  0  0  0
  5  6  1  0  0  0  0
  6  1  1  0  0  0  0
  4  7  1  0  0  0  0
  7  8  1  0  0  0  0
  8  9  2  0  0  0  0
  9 10  1  0  0  0  0
 10  5  1  0  0  0  0
  6 11  1  0  0  0  0
  8 12  1  0  0  0  0
 12 13  2  0  0  0  0
 12 14  1  0  0  0  0
 14 15  1  0  0  0  0
  3 16  1  0  0  0  0
 16 17  1  0  0  0  0
 16 18  1  0  0  0  0
 16 19  1  0  0  0  0
  6 20  1  6  0  0  0
  5 21  1  6  0  0  0
 19 22  1  0  0  0  0
M  END
>  <cdx:fragmentId>
5

$$$$
