97450.cdx
  Mrv1902 05222410242D          

 31 34  0  0  0  0            999 V2000
    1.8337   -7.4663    0.0000 C   0  0  0  0  0  0  0  0  0  0  0  0
    1.8337   -8.2912    0.0000 C   0  0  0  0  0  0  0  0  0  0  0  0
    2.5481   -8.7037    0.0000 C   0  0  0  0  0  0  0  0  0  0  0  0
    3.2626   -8.2912    0.0000 C   0  0  0  0  0  0  0  0  0  0  0  0
    3.2626   -7.4663    0.0000 C   0  0  0  0  0  0  0  0  0  0  0  0
    2.5481   -7.0537    0.0000 C   0  0  0  0  0  0  0  0  0  0  0  0
    3.9771   -8.7037    0.0000 O   0  0  0  0  0  0  0  0  0  0  0  0
    4.6916   -8.2912    0.0000 C   0  0  0  0  0  0  0  0  0  0  0  0
    4.6916   -7.4663    0.0000 C   0  0  0  0  0  0  0  0  0  0  0  0
    3.9771   -7.0537    0.0000 C   0  0  0  0  0  0  0  0  0  0  0  0
    5.4060   -8.7037    0.0000 C   0  0  0  0  0  0  0  0  0  0  0  0
    6.1205   -8.2912    0.0000 C   0  0  0  0  0  0  0  0  0  0  0  0
    6.1205   -7.4663    0.0000 C   0  0  0  0  0  0  0  0  0  0  0  0
    5.4060   -7.0537    0.0000 C   0  0  0  0  0  0  0  0  0  0  0  0
    6.8350   -8.7037    0.0000 O   0  0  0  0  0  0  0  0  0  0  0  0
    7.5494   -8.2912    0.0000 C   0  0  0  0  0  0  0  0  0  0  0  0
    7.5494   -7.4663    0.0000 C   0  0  0  0  0  0  0  0  0  0  0  0
    6.8350   -7.0537    0.0000 C   0  0  0  0  0  0  0  0  0  0  0  0
    8.2639   -8.7037    0.0000 C   0  0  0  0  0  0  0  0  0  0  0  0
    8.9784   -8.2912    0.0000 C   0  0  0  0  0  0  0  0  0  0  0  0
    8.9784   -7.4663    0.0000 C   0  0  0  0  0  0  0  0  0  0  0  0
    8.2639   -7.0537    0.0000 C   0  0  0  0  0  0  0  0  0  0  0  0
   10.4073   -8.2912    0.0000 C   0  0  0  0  0  0  0  0  0  0  0  0
   10.4073   -7.4663    0.0000 C   0  0  0  0  0  0  0  0  0  0  0  0
    9.6929   -7.0537    0.0000 C   0  0  0  0  0  0  0  0  0  0  0  0
   11.1218   -8.7037    0.0000 C   0  0  0  0  0  0  0  0  0  0  0  0
   11.8363   -8.2912    0.0000 C   0  0  0  0  0  0  0  0  0  0  0  0
   11.8363   -7.4663    0.0000 C   0  0  0  0  0  0  0  0  0  0  0  0
   11.1218   -7.0537    0.0000 C   0  0  0  0  0  0  0  0  0  0  0  0
    1.1192   -8.7037    0.0000 O   0  0  0  0  0  0  0  0  0  0  0  0
   12.5507   -8.7037    0.0000 O   0  0  0  0  0  0  0  0  0  0  0  0
  1  2  2  0  0  0  0
  2  3  1  0  0  0  0
  3  4  2  0  0  0  0
  4  5  1  0  0  0  0
  5  6  2  0  0  0  0
  6  1  1  0  0  0  0
  7  8  1  0  0  0  0
  8  9  2  0  0  0  0
  9 10  1  0  0  0  0
 10  5  1  0  0  0  0
  8 11  1  0  0  0  0
 11 12  2  0  0  0  0
 12 13  1  0  0  0  0
 13 14  2  0  0  0  0
 14  9  1  0  0  0  0
 15 16  1  0  0  0  0
 16 17  2  0  0  0  0
 17 18  1  0  0  0  0
 18 13  1  0  0  0  0
 16 19  1  0  0  0  0
 19 20  2  0  0  0  0
 20 21  1  0  0  0  0
 21 22  2  0  0  0  0
 22 17  1  0  0  0  0
 23 24  2  0  0  0  0
 24 25  1  0  0  0  0
 25 21  1  0  0  0  0
 23 26  1  0  0  0  0
 26 27  2  0  0  0  0
 27 28  1  0  0  0  0
 28 29  2  0  0  0  0
 29 24  1  0  0  0  0
  2 30  1  0  0  0  0
 27 31  1  0  0  0  0
M  END
>  <cdx:fragmentId>
5

$$$$
