97459.cdx
  Mrv1902 05222410212D          

 20 22  0  0  0  0            999 V2000
    6.1328   -6.6962    0.0000 C   0  0  1  0  0  0  0  0  0  0  0  0
    6.1328   -7.5213    0.0000 C   0  0  1  0  0  0  0  0  0  0  0  0
    6.7778   -8.0356    0.0000 C   0  0  2  0  0  0  0  0  0  0  0  0
    7.5822   -7.8520    0.0000 C   0  0  0  0  0  0  0  0  0  0  0  0
    7.9401   -7.1088    0.0000 C   0  0  0  0  0  0  0  0  0  0  0  0
    7.5822   -6.3655    0.0000 C   0  0  2  0  0  0  0  0  0  0  0  0
    6.7778   -6.1819    0.0000 C   0  0  0  0  0  0  0  0  0  0  0  0
    8.7651   -7.1088    0.0000 C   0  0  0  0  0  0  0  0  0  0  0  0
    9.1776   -6.3943    0.0000 O   0  0  0  0  0  0  0  0  0  0  0  0
    9.1776   -7.8232    0.0000 O   0  0  0  0  0  0  0  0  0  0  0  0
    5.3482   -6.4413    0.0000 C   0  0  0  0  0  0  0  0  0  0  0  0
    4.8633   -7.1088    0.0000 C   0  0  0  0  0  0  0  0  0  0  0  0
    5.3482   -7.7762    0.0000 C   0  0  2  0  0  0  0  0  0  0  0  0
    5.0933   -8.5608    0.0000 C   0  0  0  0  0  0  0  0  0  0  0  0
    5.6453   -9.1739    0.0000 C   0  0  0  0  0  0  0  0  0  0  0  0
    4.2863   -8.7323    0.0000 C   0  0  0  0  0  0  0  0  0  0  0  0
    6.5943   -8.8399    0.0000 O   0  0  0  0  0  0  0  0  0  0  0  0
    6.7162   -6.9379    0.0000 O   0  0  0  0  0  0  0  0  0  0  0  0
    7.3686   -7.1623    0.0000 O   0  0  0  0  0  0  0  0  0  0  0  0
    6.0712   -5.8736    0.0000 C   0  0  0  0  0  0  0  0  0  0  0  0
  1  2  1  0  0  0  0
  2  3  1  0  0  0  0
  3  4  1  0  0  0  0
  4  5  2  0  0  0  0
  5  6  1  0  0  0  0
  6  7  1  0  0  0  0
  7  1  1  0  0  0  0
  5  8  1  0  0  0  0
  8  9  2  0  0  0  0
  8 10  1  0  0  0  0
  1 11  1  0  0  0  0
 11 12  1  0  0  0  0
 12 13  1  0  0  0  0
 13  2  1  0  0  0  0
 13 14  1  1  0  0  0
 14 15  1  0  0  0  0
 14 16  1  0  0  0  0
  3 17  1  6  0  0  0
  2 18  1  6  0  0  0
  6 19  1  6  0  0  0
 18 19  1  0  0  0  0
  1 20  1  1  0  0  0
M  END
>  <cdx:fragmentId>
5

$$$$
