97455.cdx
  Mrv1902 05222410252D          

 21 22  0  0  0  0            999 V2000
    6.7006   -7.2193    0.0000 C   0  0  0  0  0  0  0  0  0  0  0  0
    6.2881   -7.9337    0.0000 C   0  0  1  0  0  0  0  0  0  0  0  0
    6.7006   -8.6482    0.0000 C   0  0  0  0  0  0  0  0  0  0  0  0
    7.5256   -8.6482    0.0000 C   0  0  0  0  0  0  0  0  0  0  0  0
    7.9381   -7.9337    0.0000 C   0  0  0  0  0  0  0  0  0  0  0  0
    7.5256   -7.2193    0.0000 C   0  0  0  0  0  0  0  0  0  0  0  0
    8.7631   -7.9337    0.0000 C   0  0  0  0  0  0  0  0  0  0  0  0
    9.1756   -7.2193    0.0000 O   0  0  0  0  0  0  0  0  0  0  0  0
    9.1756   -8.6482    0.0000 O   0  0  0  0  0  0  0  0  0  0  0  0
    8.7631   -9.3627    0.0000 C   0  0  0  0  0  0  0  0  0  0  0  0
    5.4631   -7.9337    0.0000 C   0  0  2  0  0  0  0  0  0  0  0  0
    4.9782   -7.2663    0.0000 C   0  0  0  0  0  0  0  0  0  0  0  0
    4.1936   -7.5212    0.0000 C   0  0  0  0  0  0  0  0  0  0  0  0
    4.1936   -8.3462    0.0000 C   0  0  2  0  0  0  0  0  0  0  0  0
    4.9782   -8.6012    0.0000 O   0  0  0  0  0  0  0  0  0  0  0  0
    5.8377   -7.1987    0.0000 C   0  0  0  0  0  0  0  0  0  0  0  0
    5.8756   -8.6482    0.0000 H   0  0  0  0  0  0  0  0  0  0  0  0
    3.5262   -8.8312    0.0000 C   0  0  0  0  0  0  0  0  0  0  0  0
    3.6124   -9.6517    0.0000 C   0  0  0  0  0  0  0  0  0  0  0  0
    2.7725   -8.4956    0.0000 C   0  0  0  0  0  0  0  0  0  0  0  0
    2.8117   -9.2437    0.0000 O   0  0  0  0  0  0  0  0  0  0  0  0
  1  2  1  0  0  0  0
  2  3  1  0  0  0  0
  3  4  1  0  0  0  0
  4  5  1  0  0  0  0
  5  6  2  0  0  0  0
  6  1  1  0  0  0  0
  5  7  1  0  0  0  0
  7  8  2  0  0  0  0
  7  9  1  0  0  0  0
  9 10  1  0  0  0  0
  2 11  1  0  0  0  0
 11 12  1  0  0  0  0
 12 13  1  0  0  0  0
 13 14  1  0  0  0  0
 14 15  1  0  0  0  0
 11 15  1  6  0  0  0
 11 16  1  0  0  0  0
  2 17  1  6  0  0  0
 14 18  1  6  0  0  0
 18 19  1  0  0  0  0
 18 20  1  0  0  0  0
 18 21  1  0  0  0  0
M  END
>  <cdx:fragmentId>
5

$$$$
