97451.cdx
  Mrv1902 05222410242D          

 33 35  0  0  0  0            999 V2000
    3.2087   -6.6413    0.0000 C   0  0  0  0  0  0  0  0  0  0  0  0
    3.2087   -7.4663    0.0000 C   0  0  0  0  0  0  0  0  0  0  0  0
    3.9231   -7.8788    0.0000 C   0  0  0  0  0  0  0  0  0  0  0  0
    4.6376   -7.4663    0.0000 C   0  0  0  0  0  0  0  0  0  0  0  0
    4.6376   -6.6413    0.0000 C   0  0  0  0  0  0  0  0  0  0  0  0
    3.9231   -6.2287    0.0000 C   0  0  0  0  0  0  0  0  0  0  0  0
    5.4222   -7.7212    0.0000 N   0  0  0  0  0  0  0  0  0  0  0  0
    5.9072   -7.0537    0.0000 C   0  0  0  0  0  0  0  0  0  0  0  0
    5.4222   -6.3863    0.0000 C   0  0  0  0  0  0  0  0  0  0  0  0
    5.6772   -5.6017    0.0000 C   0  0  0  0  0  0  0  0  0  0  0  0
    6.4741   -5.3882    0.0000 C   0  0  0  0  0  0  0  0  0  0  0  0
    6.6876   -4.5913    0.0000 O   0  0  0  0  0  0  0  0  0  0  0  0
    7.0574   -5.9715    0.0000 N   0  0  0  0  0  0  0  0  0  0  0  0
    7.8543   -5.7580    0.0000 C   0  0  1  0  0  0  0  0  0  0  0  0
    8.4377   -6.3414    0.0000 C   0  0  0  0  0  0  0  0  0  0  0  0
    9.2346   -6.1278    0.0000 C   0  0  0  0  0  0  0  0  0  0  0  0
    9.8179   -6.7112    0.0000 C   0  0  0  0  0  0  0  0  0  0  0  0
    5.6772   -8.5058    0.0000 C   0  0  2  0  0  0  0  0  0  0  0  0
    5.1251   -9.1189    0.0000 O   0  0  0  0  0  0  0  0  0  0  0  0
    5.3801   -9.9035    0.0000 C   0  0  1  0  0  0  0  0  0  0  0  0
    6.1871  -10.0751    0.0000 C   0  0  2  0  0  0  0  0  0  0  0  0
    6.7391   -9.4620    0.0000 C   0  0  1  0  0  0  0  0  0  0  0  0
    6.4842   -8.6773    0.0000 C   0  0  1  0  0  0  0  0  0  0  0  0
    4.8281  -10.5166    0.0000 C   0  0  0  0  0  0  0  0  0  0  0  0
    5.0830  -11.3012    0.0000 O   0  0  0  0  0  0  0  0  0  0  0  0
    8.0678   -4.9611    0.0000 C   0  0  0  0  0  0  0  0  0  0  0  0
    7.0362   -8.0642    0.0000 O   0  0  0  0  0  0  0  0  0  0  0  0
    6.4420  -10.8597    0.0000 O   0  0  0  0  0  0  0  0  0  0  0  0
    7.5461   -9.6335    0.0000 O   0  0  0  0  0  0  0  0  0  0  0  0
    7.4845   -4.3777    0.0000 O   0  0  0  0  0  0  0  0  0  0  0  0
    8.8647   -4.7476    0.0000 O   0  0  0  0  0  0  0  0  0  0  0  0
   10.6148   -6.4977    0.0000 O   0  0  0  0  0  0  0  0  0  0  0  0
    9.6044   -7.5081    0.0000 O   0  0  0  0  0  0  0  0  0  0  0  0
  1  2  2  0  0  0  0
  2  3  1  0  0  0  0
  3  4  2  0  0  0  0
  4  5  1  0  0  0  0
  5  6  2  0  0  0  0
  6  1  1  0  0  0  0
  4  7  1  0  0  0  0
  7  8  1  0  0  0  0
  8  9  2  0  0  0  0
  9  5  1  0  0  0  0
  9 10  1  0  0  0  0
 10 11  1  0  0  0  0
 11 12  2  0  0  0  0
 11 13  1  0  0  0  0
 13 14  1  0  0  0  0
 14 15  1  0  0  0  0
 15 16  1  0  0  0  0
 16 17  1  0  0  0  0
 18  7  1  1  0  0  0
 18 19  1  0  0  0  0
 19 20  1  0  0  0  0
 20 21  1  0  0  0  0
 21 22  1  0  0  0  0
 22 23  1  0  0  0  0
 23 18  1  0  0  0  0
 20 24  1  1  0  0  0
 24 25  1  0  0  0  0
 14 26  1  6  0  0  0
 23 27  1  6  0  0  0
 21 28  1  6  0  0  0
 22 29  1  1  0  0  0
 26 30  1  0  0  0  0
 26 31  2  0  0  0  0
 17 32  1  0  0  0  0
 17 33  2  0  0  0  0
M  END
>  <cdx:fragmentId>
5

$$$$
