97464.cdx
  Mrv1902 05222410212D          

 16 16  0  0  0  0            999 V2000
    4.9504  -10.1475    0.0000 C   0  0  1  0  0  0  0  0  0  0  0  0
    4.9504  -10.9725    0.0000 C   0  0  0  0  0  0  0  0  0  0  0  0
    5.7350  -11.2274    0.0000 C   0  0  0  0  0  0  0  0  0  0  0  0
    6.2199  -10.5600    0.0000 C   0  0  1  0  0  0  0  0  0  0  0  0
    5.7350   -9.8926    0.0000 C   0  0  1  0  0  0  0  0  0  0  0  0
    4.2830   -9.6626    0.0000 O   0  0  0  0  0  0  0  0  0  0  0  0
    5.9900   -9.1079    0.0000 C   0  0  0  0  0  0  0  0  0  0  0  0
    7.0449  -10.5600    0.0000 C   0  0  0  0  0  0  0  0  0  0  0  0
    7.4574  -11.2745    0.0000 C   0  0  0  0  0  0  0  0  0  0  0  0
    8.2824  -11.2745    0.0000 O   0  0  0  0  0  0  0  0  0  0  0  0
    7.0449  -11.9889    0.0000 O   0  0  0  0  0  0  0  0  0  0  0  0
    6.7868   -8.8944    0.0000 C   0  0  0  0  0  0  0  0  0  0  0  0
    7.0004   -8.0975    0.0000 C   0  0  0  0  0  0  0  0  0  0  0  0
    6.5879   -7.3831    0.0000 C   0  0  0  0  0  0  0  0  0  0  0  0
    7.0004   -6.6686    0.0000 O   0  0  0  0  0  0  0  0  0  0  0  0
    5.7629   -7.3831    0.0000 C   0  0  0  0  0  0  0  0  0  0  0  0
  1  2  1  0  0  0  0
  2  3  1  0  0  0  0
  3  4  1  0  0  0  0
  4  5  1  0  0  0  0
  5  1  1  0  0  0  0
  1  6  1  6  0  0  0
  5  7  1  6  0  0  0
  4  8  1  1  0  0  0
  8  9  1  0  0  0  0
  9 10  1  0  0  0  0
  9 11  2  0  0  0  0
  7 12  1  0  0  0  0
 12 13  2  0  0  0  0
 13 14  1  0  0  0  0
 14 15  1  0  0  0  0
 14 16  1  0  0  0  0
M  END
>  <cdx:fragmentId>
5

$$$$
