97469.cdx
  Mrv1902 05222410252D          

 46 50  0  0  0  0            999 V2000
    3.6349   -7.8513    0.0000 O   0  0  0  0  0  0  0  0  0  0  0  0
    4.3494   -9.0887    0.0000 O   0  0  0  0  0  0  0  0  0  0  0  0
    5.0639   -8.6762    0.0000 C   0  0  2  0  0  0  0  0  0  0  0  0
    5.0639   -7.8513    0.0000 C   0  0  1  0  0  0  0  0  0  0  0  0
    4.3494   -7.4387    0.0000 C   0  0  0  0  0  0  0  0  0  0  0  0
    5.7783   -9.0887    0.0000 C   0  0  1  0  0  0  0  0  0  0  0  0
    6.4928   -8.6762    0.0000 C   0  0  2  0  0  0  0  0  0  0  0  0
    6.4928   -7.8513    0.0000 C   0  0  1  0  0  0  0  0  0  0  0  0
    5.7783   -7.4387    0.0000 O   0  0  0  0  0  0  0  0  0  0  0  0
    7.2073   -9.0887    0.0000 O   0  0  0  0  0  0  0  0  0  0  0  0
    7.9218   -8.6762    0.0000 C   0  0  0  0  0  0  0  0  0  0  0  0
    7.9218   -7.8513    0.0000 C   0  0  0  0  0  0  0  0  0  0  0  0
    7.2073   -7.4387    0.0000 O   0  0  0  0  0  0  0  0  0  0  0  0
    8.6362   -9.0887    0.0000 C   0  0  0  0  0  0  0  0  0  0  0  0
    9.3507   -8.6762    0.0000 C   0  0  0  0  0  0  0  0  0  0  0  0
    9.3507   -7.8513    0.0000 C   0  0  0  0  0  0  0  0  0  0  0  0
    8.6362   -7.4387    0.0000 C   0  0  0  0  0  0  0  0  0  0  0  0
   10.0652   -9.0887    0.0000 C   0  0  0  0  0  0  0  0  0  0  0  0
   10.7796   -8.6762    0.0000 C   0  0  0  0  0  0  0  0  0  0  0  0
   10.7796   -7.8513    0.0000 C   0  0  2  0  0  0  0  0  0  0  0  0
   10.0652   -7.4387    0.0000 O   0  0  0  0  0  0  0  0  0  0  0  0
   12.2086   -7.8513    0.0000 C   0  0  0  0  0  0  0  0  0  0  0  0
   11.4941   -7.4387    0.0000 C   0  0  0  0  0  0  0  0  0  0  0  0
   12.9231   -7.4387    0.0000 C   0  0  0  0  0  0  0  0  0  0  0  0
   12.9231   -6.6137    0.0000 C   0  0  0  0  0  0  0  0  0  0  0  0
   12.2086   -6.2012    0.0000 C   0  0  0  0  0  0  0  0  0  0  0  0
   11.4941   -6.6137    0.0000 C   0  0  0  0  0  0  0  0  0  0  0  0
   13.6375   -6.2012    0.0000 O   0  0  0  0  0  0  0  0  0  0  0  0
   10.0652   -9.9138    0.0000 O   0  0  0  0  0  0  0  0  0  0  0  0
    8.6362   -9.9138    0.0000 O   0  0  0  0  0  0  0  0  0  0  0  0
    5.7783   -9.9138    0.0000 O   0  0  0  0  0  0  0  0  0  0  0  0
    1.2196   -5.2701    0.0000 C   0  0  1  0  0  0  0  0  0  0  0  0
    0.8350   -6.0000    0.0000 C   0  0  0  0  0  0  0  0  0  0  0  0
    1.4104   -6.5913    0.0000 C   0  0  0  0  0  0  0  0  0  0  0  0
    2.1505   -6.2268    0.0000 C   0  0  1  0  0  0  0  0  0  0  0  0
    2.0326   -5.4103    0.0000 C   0  0  1  0  0  0  0  0  0  0  0  0
    0.8552   -4.5299    0.0000 O   0  0  0  0  0  0  0  0  0  0  0  0
    2.6239   -4.8350    0.0000 C   0  0  0  0  0  0  0  0  0  0  0  0
    2.8804   -6.6114    0.0000 C   0  0  0  0  0  0  0  0  0  0  0  0
    2.9123   -7.4358    0.0000 C   0  0  0  0  0  0  0  0  0  0  0  0
    2.2143   -7.8756    0.0000 O   0  0  0  0  0  0  0  0  0  0  0  0
    3.4285   -5.0176    0.0000 C   0  0  0  0  0  0  0  0  0  0  0  0
    3.9889   -4.4121    0.0000 C   0  0  0  0  0  0  0  0  0  0  0  0
    3.7447   -3.6240    0.0000 C   0  0  0  0  0  0  0  0  0  0  0  0
    4.3051   -3.0186    0.0000 C   0  0  0  0  0  0  0  0  0  0  0  0
    3.6726   -5.8056    0.0000 O   0  0  0  0  0  0  0  0  0  0  0  0
  3  2  1  6  0  0  0
  3  4  1  0  0  0  0
  4  5  1  1  0  0  0
  5  1  1  0  0  0  0
  3  6  1  0  0  0  0
  6  7  1  0  0  0  0
  7  8  1  0  0  0  0
  8  9  1  0  0  0  0
  9  4  1  0  0  0  0
  7 10  1  6  0  0  0
 11 12  2  0  0  0  0
 12 13  1  0  0  0  0
  8 13  1  1  0  0  0
 11 14  1  0  0  0  0
 14 15  2  0  0  0  0
 15 16  1  0  0  0  0
 16 17  2  0  0  0  0
 17 12  1  0  0  0  0
 15 18  1  0  0  0  0
 18 19  1  0  0  0  0
 19 20  1  0  0  0  0
 20 21  1  0  0  0  0
 21 16  1  0  0  0  0
 22 23  2  0  0  0  0
 20 23  1  6  0  0  0
 22 24  1  0  0  0  0
 24 25  2  0  0  0  0
 25 26  1  0  0  0  0
 26 27  2  0  0  0  0
 27 23  1  0  0  0  0
 25 28  1  0  0  0  0
 18 29  2  0  0  0  0
 14 30  1  0  0  0  0
  6 31  1  1  0  0  0
 32 33  1  0  0  0  0
 33 34  1  0  0  0  0
 34 35  1  0  0  0  0
 35 36  1  0  0  0  0
 36 32  1  0  0  0  0
 32 37  1  6  0  0  0
 36 38  1  6  0  0  0
 35 39  1  1  0  0  0
 39 40  1  0  0  0  0
 40 41  2  0  0  0  0
 38 42  1  0  0  0  0
 42 43  1  0  0  0  0
 43 44  2  0  0  0  0
 44 45  1  0  0  0  0
 40  1  1  0  0  0  0
 42 46  1  0  0  0  0
M  END
>  <cdx:fragmentId>
5

$$$$
