97462.cdx
  Mrv1902 05222410232D          

 48 53  0  0  0  0            999 V2000
    5.1749   -8.7037    0.0000 C   0  0  0  0  0  0  0  0  0  0  0  0
    5.1749   -9.5287    0.0000 C   0  0  0  0  0  0  0  0  0  0  0  0
    5.8894   -9.9413    0.0000 O   0  0  0  0  0  0  0  0  0  0  0  0
    6.6039   -9.5287    0.0000 C   0  0  1  0  0  0  0  0  0  0  0  0
    6.6039   -8.7037    0.0000 C   0  0  2  0  0  0  0  0  0  0  0  0
    5.8894   -8.2912    0.0000 O   0  0  0  0  0  0  0  0  0  0  0  0
    7.3183   -9.9413    0.0000 C   0  0  1  0  0  0  0  0  0  0  0  0
    8.0328   -9.5287    0.0000 C   0  0  1  0  0  0  0  0  0  0  0  0
    8.0328   -8.7037    0.0000 C   0  0  2  0  0  0  0  0  0  0  0  0
    7.3183   -8.2912    0.0000 C   0  0  0  0  0  0  0  0  0  0  0  0
    8.7473   -9.9413    0.0000 C   0  0  0  0  0  0  0  0  0  0  0  0
    9.4618   -9.5287    0.0000 C   0  0  0  0  0  0  0  0  0  0  0  0
    9.4618   -8.7037    0.0000 C   0  0  2  0  0  0  0  0  0  0  0  0
    8.7473   -8.2912    0.0000 C   0  0  2  0  0  0  0  0  0  0  0  0
   10.1762   -8.2912    0.0000 C   0  0  1  0  0  0  0  0  0  0  0  0
   10.1762   -7.4663    0.0000 C   0  0  0  0  0  0  0  0  0  0  0  0
    9.4618   -7.0537    0.0000 C   0  0  0  0  0  0  0  0  0  0  0  0
    8.7473   -7.4663    0.0000 C   0  0  0  0  0  0  0  0  0  0  0  0
   10.8907   -8.7037    0.0000 C   0  0  0  0  0  0  0  0  0  0  0  0
   11.6052   -8.2912    0.0000 C   0  0  0  0  0  0  0  0  0  0  0  0
   11.6052   -7.4663    0.0000 C   0  0  2  0  0  0  0  0  0  0  0  0
   10.8907   -7.0537    0.0000 C   0  0  1  0  0  0  0  0  0  0  0  0
   12.3196   -7.0537    0.0000 C   0  0  0  0  0  0  0  0  0  0  0  0
   12.3196   -6.2287    0.0000 C   0  0  0  0  0  0  0  0  0  0  0  0
   11.6052   -5.8163    0.0000 C   0  0  2  0  0  0  0  0  0  0  0  0
   10.8907   -6.2287    0.0000 C   0  0  2  0  0  0  0  0  0  0  0  0
   12.3196   -7.8788    0.0000 C   0  0  0  0  0  0  0  0  0  0  0  0
   13.0341   -7.4663    0.0000 O   0  0  0  0  0  0  0  0  0  0  0  0
   12.3196   -8.7037    0.0000 O   0  0  0  0  0  0  0  0  0  0  0  0
    4.4605   -9.9413    0.0000 O   0  0  0  0  0  0  0  0  0  0  0  0
    4.4605   -8.2912    0.0000 C   0  0  0  0  0  0  0  0  0  0  0  0
    3.7472   -8.7059    0.0000 C   0  0  0  0  0  0  0  0  0  0  0  0
    3.0315   -8.2956    0.0000 C   0  0  0  0  0  0  0  0  0  0  0  0
    2.3183   -8.7103    0.0000 C   0  0  0  0  0  0  0  0  0  0  0  0
    2.3208   -9.5353    0.0000 C   0  0  0  0  0  0  0  0  0  0  0  0
    3.0365   -9.9456    0.0000 C   0  0  0  0  0  0  0  0  0  0  0  0
    3.7497   -9.5309    0.0000 C   0  0  0  0  0  0  0  0  0  0  0  0
    1.6076   -9.9499    0.0000 O   0  0  0  0  0  0  0  0  0  0  0  0
   10.1762   -5.8163    0.0000 C   0  0  0  0  0  0  0  0  0  0  0  0
   10.8907   -7.8788    0.0000 H   0  0  0  0  0  0  0  0  0  0  0  0
    9.4618   -7.8788    0.0000 C   0  0  0  0  0  0  0  0  0  0  0  0
    8.0328   -7.8788    0.0000 C   0  0  0  0  0  0  0  0  0  0  0  0
    6.9058  -10.6557    0.0000 C   0  0  0  0  0  0  0  0  0  0  0  0
   11.6052   -4.9913    0.0000 C   0  0  0  0  0  0  0  0  0  0  0  0
   10.1762   -9.1162    0.0000 C   0  0  0  0  0  0  0  0  0  0  0  0
    8.7473   -9.1162    0.0000 H   0  0  0  0  0  0  0  0  0  0  0  0
    7.7308  -10.6557    0.0000 C   0  0  0  0  0  0  0  0  0  0  0  0
    8.0328  -10.3537    0.0000 H   0  0  0  0  0  0  0  0  0  0  0  0
  1  2  1  0  0  0  0
  2  3  1  0  0  0  0
  4  3  1  1  0  0  0
  4  5  1  0  0  0  0
  5  6  1  6  0  0  0
  4  7  1  0  0  0  0
  7  8  1  0  0  0  0
  8  9  1  0  0  0  0
  9 10  1  0  0  0  0
 10  5  1  0  0  0  0
  8 11  1  0  0  0  0
 11 12  1  0  0  0  0
 12 13  1  0  0  0  0
 13 14  1  0  0  0  0
 14  9  1  0  0  0  0
 13 15  1  0  0  0  0
 15 16  1  0  0  0  0
 16 17  2  0  0  0  0
 17 18  1  0  0  0  0
 18 14  1  0  0  0  0
 15 19  1  0  0  0  0
 19 20  1  0  0  0  0
 20 21  1  0  0  0  0
 21 22  1  0  0  0  0
 22 16  1  0  0  0  0
 21 23  1  0  0  0  0
 23 24  1  0  0  0  0
 24 25  1  0  0  0  0
 25 26  1  0  0  0  0
 26 22  1  0  0  0  0
 21 27  1  1  0  0  0
 27 28  1  0  0  0  0
 27 29  2  0  0  0  0
  2 30  2  0  0  0  0
  1 31  2  0  0  0  0
 31 32  1  0  0  0  0
 32 33  2  0  0  0  0
 33 34  1  0  0  0  0
 34 35  2  0  0  0  0
 35 36  1  0  0  0  0
 36 37  2  0  0  0  0
 37 32  1  0  0  0  0
 35 38  1  0  0  0  0
 26 39  1  1  0  0  0
 22 40  1  1  0  0  0
 13 41  1  1  0  0  0
  9 42  1  1  0  0  0
  7 43  1  1  0  0  0
 25 44  1  6  0  0  0
 15 45  1  6  0  0  0
 14 46  1  6  0  0  0
  7 47  1  6  0  0  0
  8 48  1  6  0  0  0
M  END
>  <cdx:fragmentId>
5

$$$$
