97461.cdx
  Mrv1902 05222410222D          

 48 53  0  0  0  0            999 V2000
   11.1770   -5.8644    0.0000 C   0  0  1  0  0  0  0  0  0  0  0  0
   11.8915   -5.4519    0.0000 C   0  0  1  0  0  0  0  0  0  0  0  0
   12.6059   -5.8644    0.0000 C   0  0  0  0  0  0  0  0  0  0  0  0
   12.6059   -6.6894    0.0000 C   0  0  0  0  0  0  0  0  0  0  0  0
   11.8915   -7.1019    0.0000 C   0  0  2  0  0  0  0  0  0  0  0  0
   11.8915   -7.9269    0.0000 C   0  0  0  0  0  0  0  0  0  0  0  0
   11.1770   -8.3394    0.0000 C   0  0  0  0  0  0  0  0  0  0  0  0
   10.4625   -7.9269    0.0000 C   0  0  1  0  0  0  0  0  0  0  0  0
    9.7480   -8.3394    0.0000 C   0  0  2  0  0  0  0  0  0  0  0  0
    9.7480   -9.1644    0.0000 C   0  0  0  0  0  0  0  0  0  0  0  0
    9.0336   -9.5769    0.0000 C   0  0  0  0  0  0  0  0  0  0  0  0
    8.3191   -9.1644    0.0000 C   0  0  1  0  0  0  0  0  0  0  0  0
    7.6046   -9.5769    0.0000 C   0  0  0  0  0  0  0  0  0  0  0  0
    6.8902   -9.1644    0.0000 C   0  0  2  0  0  0  0  0  0  0  0  0
    6.8902   -8.3394    0.0000 C   0  0  1  0  0  0  0  0  0  0  0  0
    7.6046   -7.9269    0.0000 C   0  0  0  0  0  0  0  0  0  0  0  0
    8.3191   -8.3394    0.0000 C   0  0  2  0  0  0  0  0  0  0  0  0
    9.0336   -7.9269    0.0000 C   0  0  1  0  0  0  0  0  0  0  0  0
    9.0336   -7.1019    0.0000 C   0  0  0  0  0  0  0  0  0  0  0  0
    9.7480   -6.6894    0.0000 C   0  0  0  0  0  0  0  0  0  0  0  0
   10.4625   -7.1019    0.0000 C   0  0  0  0  0  0  0  0  0  0  0  0
   11.1770   -6.6894    0.0000 C   0  0  2  0  0  0  0  0  0  0  0  0
   12.6059   -7.5144    0.0000 C   0  0  0  0  0  0  0  0  0  0  0  0
   12.6059   -8.3394    0.0000 O   0  0  0  0  0  0  0  0  0  0  0  0
   13.3204   -7.1019    0.0000 O   0  0  0  0  0  0  0  0  0  0  0  0
    8.3191   -7.5144    0.0000 C   0  0  0  0  0  0  0  0  0  0  0  0
    8.0171  -10.2913    0.0000 C   0  0  0  0  0  0  0  0  0  0  0  0
    7.1921  -10.2913    0.0000 C   0  0  0  0  0  0  0  0  0  0  0  0
    9.7480   -7.5144    0.0000 C   0  0  0  0  0  0  0  0  0  0  0  0
   10.4625   -8.7519    0.0000 C   0  0  0  0  0  0  0  0  0  0  0  0
   11.8915   -4.6269    0.0000 C   0  0  0  0  0  0  0  0  0  0  0  0
   10.4625   -5.4519    0.0000 C   0  0  0  0  0  0  0  0  0  0  0  0
    6.1757   -9.5769    0.0000 O   0  0  0  0  0  0  0  0  0  0  0  0
    5.4612   -9.1644    0.0000 C   0  0  0  0  0  0  0  0  0  0  0  0
    4.7468   -9.5769    0.0000 C   0  0  0  0  0  0  0  0  0  0  0  0
    4.0323   -9.1644    0.0000 C   0  0  0  0  0  0  0  0  0  0  0  0
    5.4612   -8.3394    0.0000 O   0  0  0  0  0  0  0  0  0  0  0  0
    3.3178   -9.5769    0.0000 C   0  0  0  0  0  0  0  0  0  0  0  0
    3.3178  -10.4019    0.0000 C   0  0  0  0  0  0  0  0  0  0  0  0
    2.6033  -10.8144    0.0000 C   0  0  0  0  0  0  0  0  0  0  0  0
    1.8889  -10.4019    0.0000 C   0  0  0  0  0  0  0  0  0  0  0  0
    1.8889   -9.5769    0.0000 C   0  0  0  0  0  0  0  0  0  0  0  0
    2.6033   -9.1644    0.0000 C   0  0  0  0  0  0  0  0  0  0  0  0
    1.1744  -10.8144    0.0000 O   0  0  0  0  0  0  0  0  0  0  0  0
    6.1757   -7.9269    0.0000 O   0  0  0  0  0  0  0  0  0  0  0  0
   11.1770   -7.5144    0.0000 H   0  0  0  0  0  0  0  0  0  0  0  0
    9.0336   -8.7519    0.0000 H   0  0  0  0  0  0  0  0  0  0  0  0
    8.3191   -9.9894    0.0000 H   0  0  0  0  0  0  0  0  0  0  0  0
  1  2  1  0  0  0  0
  2  3  1  0  0  0  0
  3  4  1  0  0  0  0
  4  5  1  0  0  0  0
  5  6  1  0  0  0  0
  6  7  1  0  0  0  0
  7  8  1  0  0  0  0
  8  9  1  0  0  0  0
  9 10  1  0  0  0  0
 10 11  1  0  0  0  0
 11 12  1  0  0  0  0
 12 13  1  0  0  0  0
 13 14  1  0  0  0  0
 14 15  1  0  0  0  0
 15 16  1  0  0  0  0
 16 17  1  0  0  0  0
 12 17  1  0  0  0  0
 17 18  1  0  0  0  0
  9 18  1  0  0  0  0
 18 19  1  0  0  0  0
 19 20  1  0  0  0  0
 20 21  2  0  0  0  0
  8 21  1  0  0  0  0
 21 22  1  0  0  0  0
  5 22  1  0  0  0  0
  1 22  1  0  0  0  0
 23 24  2  0  0  0  0
 23 25  1  0  0  0  0
  5 23  1  1  0  0  0
 17 26  1  1  0  0  0
 13 27  1  0  0  0  0
 13 28  1  0  0  0  0
  9 29  1  1  0  0  0
  8 30  1  6  0  0  0
  2 31  1  6  0  0  0
  1 32  1  1  0  0  0
 34 35  1  0  0  0  0
 35 36  2  0  0  0  0
 34 37  2  0  0  0  0
 38 39  1  0  0  0  0
 39 40  2  0  0  0  0
 40 41  1  0  0  0  0
 41 42  2  0  0  0  0
 42 43  1  0  0  0  0
 38 43  2  0  0  0  0
 41 44  1  0  0  0  0
 36 38  1  0  0  0  0
 33 34  1  0  0  0  0
 14 33  1  1  0  0  0
 15 45  1  6  0  0  0
 22 46  1  1  0  0  0
 18 47  1  6  0  0  0
 12 48  1  6  0  0  0
M  END
>  <cdx:fragmentId>
185

$$$$
