97460.cdx
  Mrv1902 05222410222D          

 20 22  0  0  0  0            999 V2000
    6.1328   -6.6962    0.0000 C   0  0  2  0  0  0  0  0  0  0  0  0
    6.1328   -7.5213    0.0000 C   0  0  2  0  0  0  0  0  0  0  0  0
    6.7778   -8.0356    0.0000 C   0  0  2  0  0  0  0  0  0  0  0  0
    7.5822   -7.8520    0.0000 C   0  0  0  0  0  0  0  0  0  0  0  0
    7.9401   -7.1088    0.0000 C   0  0  0  0  0  0  0  0  0  0  0  0
    7.5822   -6.3655    0.0000 C   0  0  2  0  0  0  0  0  0  0  0  0
    6.7778   -6.1819    0.0000 C   0  0  0  0  0  0  0  0  0  0  0  0
    8.7651   -7.1088    0.0000 C   0  0  0  0  0  0  0  0  0  0  0  0
    9.1776   -6.3943    0.0000 O   0  0  0  0  0  0  0  0  0  0  0  0
    9.1776   -7.8232    0.0000 O   0  0  0  0  0  0  0  0  0  0  0  0
    6.5943   -8.8399    0.0000 O   0  0  0  0  0  0  0  0  0  0  0  0
    6.0712   -5.8736    0.0000 C   0  0  0  0  0  0  0  0  0  0  0  0
    7.0811   -7.1913    0.0000 O   0  0  0  0  0  0  0  0  0  0  0  0
    5.4184   -6.2837    0.0000 C   0  0  0  0  0  0  0  0  0  0  0  0
    4.7039   -6.6962    0.0000 C   0  0  0  0  0  0  0  0  0  0  0  0
    4.7039   -7.5213    0.0000 C   0  0  1  0  0  0  0  0  0  0  0  0
    5.4184   -7.9337    0.0000 O   0  0  0  0  0  0  0  0  0  0  0  0
    3.9894   -7.9337    0.0000 C   0  0  0  0  0  0  0  0  0  0  0  0
    3.2750   -7.5213    0.0000 C   0  0  0  0  0  0  0  0  0  0  0  0
    3.9894   -8.7588    0.0000 C   0  0  0  0  0  0  0  0  0  0  0  0
  1  2  1  0  0  0  0
  2  3  1  0  0  0  0
  3  4  1  0  0  0  0
  4  5  2  0  0  0  0
  5  6  1  0  0  0  0
  6  7  1  0  0  0  0
  7  1  1  0  0  0  0
  5  8  1  0  0  0  0
  8  9  2  0  0  0  0
  8 10  1  0  0  0  0
  3 11  1  6  0  0  0
  1 12  1  1  0  0  0
  2 13  1  6  0  0  0
  6 13  1  6  0  0  0
  1 14  1  0  0  0  0
 14 15  1  0  0  0  0
 15 16  1  0  0  0  0
 16 17  1  0  0  0  0
 17  2  1  0  0  0  0
 16 18  1  1  0  0  0
 18 19  1  0  0  0  0
 18 20  1  0  0  0  0
M  END
>  <cdx:fragmentId>
5

$$$$
