97474.cdx
  Mrv1902 05222410222D          

 36 39  0  0  0  0            999 V2000
    4.5699   -7.3150    0.0000 C   0  0  0  0  0  0  0  0  0  0  0  0
    4.5699   -8.1400    0.0000 C   0  0  0  0  0  0  0  0  0  0  0  0
    5.2844   -8.5525    0.0000 C   0  0  0  0  0  0  0  0  0  0  0  0
    5.9989   -8.1400    0.0000 C   0  0  0  0  0  0  0  0  0  0  0  0
    5.9989   -7.3150    0.0000 C   0  0  0  0  0  0  0  0  0  0  0  0
    5.2844   -6.9025    0.0000 C   0  0  0  0  0  0  0  0  0  0  0  0
    6.7133   -8.5525    0.0000 C   0  0  0  0  0  0  0  0  0  0  0  0
    7.4278   -8.1400    0.0000 C   0  0  0  0  0  0  0  0  0  0  0  0
    7.4278   -7.3150    0.0000 C   0  0  0  0  0  0  0  0  0  0  0  0
    6.7133   -6.9025    0.0000 O   0  0  0  0  0  0  0  0  0  0  0  0
    8.1423   -6.9025    0.0000 C   0  0  0  0  0  0  0  0  0  0  0  0
    8.8568   -7.3150    0.0000 C   0  0  0  0  0  0  0  0  0  0  0  0
    9.5712   -6.9025    0.0000 C   0  0  0  0  0  0  0  0  0  0  0  0
    9.5712   -6.0775    0.0000 C   0  0  0  0  0  0  0  0  0  0  0  0
    8.8568   -5.6650    0.0000 C   0  0  0  0  0  0  0  0  0  0  0  0
    8.1423   -6.0775    0.0000 C   0  0  0  0  0  0  0  0  0  0  0  0
   10.2857   -5.6650    0.0000 O   0  0  0  0  0  0  0  0  0  0  0  0
    6.7133   -9.3775    0.0000 O   0  0  0  0  0  0  0  0  0  0  0  0
    3.8555   -6.9025    0.0000 O   0  0  0  0  0  0  0  0  0  0  0  0
    5.2844   -9.3775    0.0000 O   0  0  0  0  0  0  0  0  0  0  0  0
    8.1423   -8.5525    0.0000 O   0  0  0  0  0  0  0  0  0  0  0  0
   10.2857   -7.3150    0.0000 O   0  0  0  0  0  0  0  0  0  0  0  0
   10.2857   -8.1400    0.0000 C   0  0  0  0  0  0  0  0  0  0  0  0
    8.1423   -9.3775    0.0000 C   0  0  0  0  0  0  0  0  0  0  0  0
    7.4278   -9.7900    0.0000 O   0  0  0  0  0  0  0  0  0  0  0  0
    7.4278  -10.6150    0.0000 C   0  0  1  0  0  0  0  0  0  0  0  0
    8.1423  -11.0275    0.0000 C   0  0  2  0  0  0  0  0  0  0  0  0
    8.8568  -10.6150    0.0000 C   0  0  1  0  0  0  0  0  0  0  0  0
    8.8568   -9.7900    0.0000 C   0  0  1  0  0  0  0  0  0  0  0  0
    6.7133  -11.0275    0.0000 C   0  0  0  0  0  0  0  0  0  0  0  0
    9.5712  -11.0275    0.0000 O   0  0  0  0  0  0  0  0  0  0  0  0
    8.1423  -11.8525    0.0000 O   0  0  0  0  0  0  0  0  0  0  0  0
    9.5712   -9.3775    0.0000 O   0  0  0  0  0  0  0  0  0  0  0  0
    6.7133  -11.8525    0.0000 O   0  0  0  0  0  0  0  0  0  0  0  0
    5.2844   -6.0775    0.0000 O   0  0  0  0  0  0  0  0  0  0  0  0
    4.5699   -5.6650    0.0000 C   0  0  0  0  0  0  0  0  0  0  0  0
  1  2  2  0  0  0  0
  2  3  1  0  0  0  0
  3  4  2  0  0  0  0
  4  5  1  0  0  0  0
  5  6  2  0  0  0  0
  6  1  1  0  0  0  0
  4  7  1  0  0  0  0
  7  8  1  0  0  0  0
  8  9  2  0  0  0  0
  9 10  1  0  0  0  0
 10  5  1  0  0  0  0
  9 11  1  0  0  0  0
 11 12  2  0  0  0  0
 12 13  1  0  0  0  0
 13 14  2  0  0  0  0
 14 15  1  0  0  0  0
 15 16  2  0  0  0  0
 16 11  1  0  0  0  0
 14 17  1  0  0  0  0
  7 18  2  0  0  0  0
  1 19  1  0  0  0  0
  3 20  1  0  0  0  0
  8 21  1  0  0  0  0
 13 22  1  0  0  0  0
 22 23  1  0  0  0  0
 21 24  1  0  0  0  0
 24 25  1  0  0  0  0
 25 26  1  0  0  0  0
 26 27  1  0  0  0  0
 27 28  1  0  0  0  0
 28 29  1  0  0  0  0
 29 24  1  0  0  0  0
 26 30  1  1  0  0  0
 28 31  1  1  0  0  0
 27 32  1  6  0  0  0
 29 33  1  6  0  0  0
 30 34  1  0  0  0  0
  6 35  1  0  0  0  0
 35 36  1  0  0  0  0
M  END
>  <cdx:fragmentId>
5

$$$$
