97477.cdx
  Mrv1902 05222410222D          

 18 18  0  0  0  0            999 V2000
    4.8999   -7.6587    0.0000 C   0  0  0  0  0  0  0  0  0  0  0  0
    4.8999   -8.4838    0.0000 C   0  0  0  0  0  0  0  0  0  0  0  0
    5.6144   -8.8963    0.0000 C   0  0  0  0  0  0  0  0  0  0  0  0
    6.3289   -8.4838    0.0000 C   0  0  0  0  0  0  0  0  0  0  0  0
    6.3289   -7.6587    0.0000 C   0  0  2  0  0  0  0  0  0  0  0  0
    5.6144   -7.2462    0.0000 C   0  0  0  0  0  0  0  0  0  0  0  0
    4.1855   -8.8963    0.0000 O   0  0  0  0  0  0  0  0  0  0  0  0
    5.0310   -6.6629    0.0000 C   0  0  0  0  0  0  0  0  0  0  0  0
    6.1978   -6.6629    0.0000 C   0  0  0  0  0  0  0  0  0  0  0  0
    7.0433   -8.8963    0.0000 C   0  0  0  0  0  0  0  0  0  0  0  0
    7.0433   -7.2462    0.0000 C   0  0  0  0  0  0  0  0  0  0  0  0
    7.7578   -7.6587    0.0000 C   0  0  0  0  0  0  0  0  0  0  0  0
    8.4723   -7.2462    0.0000 C   0  0  2  0  0  0  0  0  0  0  0  0
    9.1868   -7.6587    0.0000 C   0  0  0  0  0  0  0  0  0  0  0  0
    9.9012   -7.2462    0.0000 O   0  0  0  0  0  0  0  0  0  0  0  0
    9.1868   -8.4837    0.0000 O   0  0  0  0  0  0  0  0  0  0  0  0
    8.4723   -6.4212    0.0000 O   0  0  0  0  0  0  0  0  0  0  0  0
   10.6157   -7.6587    0.0000 C   0  0  0  0  0  0  0  0  0  0  0  0
  1  2  1  0  0  0  0
  2  3  1  0  0  0  0
  3  4  2  0  0  0  0
  4  5  1  0  0  0  0
  5  6  1  0  0  0  0
  6  1  1  0  0  0  0
  2  7  2  0  0  0  0
  6  8  1  0  0  0  0
  6  9  1  0  0  0  0
  4 10  1  0  0  0  0
  5 11  1  6  0  0  0
 11 12  1  0  0  0  0
 12 13  1  0  0  0  0
 13 14  1  0  0  0  0
 14 15  1  0  0  0  0
 14 16  2  0  0  0  0
 13 17  1  1  0  0  0
 15 18  1  0  0  0  0
M  END
>  <cdx:fragmentId>
59

$$$$
