97475.cdx
  Mrv1902 05222410222D          

 33 36  0  0  0  0            999 V2000
    6.5216   -9.5235    0.0000 O   0  0  0  0  0  0  0  0  0  0  0  0
    5.0926   -7.0485    0.0000 O   0  0  0  0  0  0  0  0  0  0  0  0
   11.5229   -5.8110    0.0000 O   0  0  0  0  0  0  0  0  0  0  0  0
   12.2373   -7.0485    0.0000 C   0  0  0  0  0  0  0  0  0  0  0  0
   11.5229   -7.4610    0.0000 O   0  0  0  0  0  0  0  0  0  0  0  0
    9.3795   -6.2235    0.0000 C   0  0  0  0  0  0  0  0  0  0  0  0
   10.0939   -5.8110    0.0000 C   0  0  0  0  0  0  0  0  0  0  0  0
   10.8084   -6.2235    0.0000 C   0  0  0  0  0  0  0  0  0  0  0  0
   10.8084   -7.0485    0.0000 C   0  0  0  0  0  0  0  0  0  0  0  0
   10.0939   -7.4610    0.0000 C   0  0  0  0  0  0  0  0  0  0  0  0
    9.3795   -7.0485    0.0000 C   0  0  0  0  0  0  0  0  0  0  0  0
    7.9505   -9.5235    0.0000 O   0  0  0  0  0  0  0  0  0  0  0  0
    7.9505   -7.0485    0.0000 O   0  0  0  0  0  0  0  0  0  0  0  0
    7.2360   -7.4610    0.0000 C   0  0  0  0  0  0  0  0  0  0  0  0
    6.5216   -7.0485    0.0000 C   0  0  0  0  0  0  0  0  0  0  0  0
    5.8071   -7.4610    0.0000 C   0  0  0  0  0  0  0  0  0  0  0  0
    5.8071   -8.2860    0.0000 C   0  0  0  0  0  0  0  0  0  0  0  0
    6.5216   -8.6985    0.0000 C   0  0  0  0  0  0  0  0  0  0  0  0
    7.2360   -8.2860    0.0000 C   0  0  0  0  0  0  0  0  0  0  0  0
    7.9505   -8.6985    0.0000 C   0  0  0  0  0  0  0  0  0  0  0  0
    8.6650   -8.2860    0.0000 C   0  0  0  0  0  0  0  0  0  0  0  0
    8.6650   -7.4610    0.0000 C   0  0  0  0  0  0  0  0  0  0  0  0
    4.3782   -7.4610    0.0000 C   0  0  2  0  0  0  0  0  0  0  0  0
    3.6637   -7.0485    0.0000 O   0  0  0  0  0  0  0  0  0  0  0  0
    2.9492   -7.4610    0.0000 C   0  0  1  0  0  0  0  0  0  0  0  0
    2.9492   -8.2860    0.0000 C   0  0  2  0  0  0  0  0  0  0  0  0
    3.6637   -8.6985    0.0000 C   0  0  1  0  0  0  0  0  0  0  0  0
    4.3782   -8.2860    0.0000 C   0  0  1  0  0  0  0  0  0  0  0  0
    2.2347   -7.0485    0.0000 C   0  0  0  0  0  0  0  0  0  0  0  0
    3.6637   -9.5235    0.0000 O   0  0  0  0  0  0  0  0  0  0  0  0
    2.2347   -8.6985    0.0000 O   0  0  0  0  0  0  0  0  0  0  0  0
    5.0926   -8.6985    0.0000 O   0  0  0  0  0  0  0  0  0  0  0  0
    1.5203   -7.4610    0.0000 O   0  0  0  0  0  0  0  0  0  0  0  0
 18  1  1  0  0  0  0
 16  2  1  0  0  0  0
 22 11  1  0  0  0  0
  8  3  1  0  0  0  0
  9  5  1  0  0  0  0
  5  4  1  0  0  0  0
 11  6  2  0  0  0  0
  7  6  1  0  0  0  0
  8  7  2  0  0  0  0
  9  8  1  0  0  0  0
 10  9  2  0  0  0  0
 11 10  1  0  0  0  0
 20 12  2  0  0  0  0
 22 13  1  0  0  0  0
 14 13  1  0  0  0  0
 19 14  2  0  0  0  0
 15 14  1  0  0  0  0
 16 15  2  0  0  0  0
 17 16  1  0  0  0  0
 18 17  2  0  0  0  0
 19 18  1  0  0  0  0
 20 19  1  0  0  0  0
 21 20  1  0  0  0  0
 22 21  2  0  0  0  0
 23  2  1  1  0  0  0
 23 24  1  0  0  0  0
 24 25  1  0  0  0  0
 25 26  1  0  0  0  0
 26 27  1  0  0  0  0
 27 28  1  0  0  0  0
 28 23  1  0  0  0  0
 25 29  1  1  0  0  0
 27 30  1  1  0  0  0
 26 31  1  6  0  0  0
 28 32  1  6  0  0  0
 29 33  1  0  0  0  0
M  END
>  <cdx:fragmentId>
5

$$$$
