974703.cdx
  Mrv1902 05222410262D          

141153  0  0  0  0            999 V2000
   10.8080  -10.3125    0.0000 C   0  0  0  0  0  0  0  0  0  0  0  0
   10.8080  -11.1375    0.0000 C   0  0  1  0  0  0  0  0  0  0  0  0
   11.5225  -11.5500    0.0000 C   0  0  0  0  0  0  0  0  0  0  0  0
   12.2370  -11.1375    0.0000 C   0  0  1  0  0  0  0  0  0  0  0  0
   12.2370  -10.3125    0.0000 C   0  0  2  0  0  0  0  0  0  0  0  0
   11.5225   -9.9000    0.0000 C   0  0  0  0  0  0  0  0  0  0  0  0
   12.9514  -11.5500    0.0000 C   0  0  0  0  0  0  0  0  0  0  0  0
   13.6659  -11.1375    0.0000 C   0  0  0  0  0  0  0  0  0  0  0  0
   13.6659  -10.3125    0.0000 C   0  0  2  0  0  0  0  0  0  0  0  0
   12.9514   -9.9000    0.0000 C   0  0  2  0  0  0  0  0  0  0  0  0
   14.3804   -9.9000    0.0000 C   0  0  1  0  0  0  0  0  0  0  0  0
   14.3804   -9.0750    0.0000 C   0  0  0  0  0  0  0  0  0  0  0  0
   13.6659   -8.6625    0.0000 C   0  0  0  0  0  0  0  0  0  0  0  0
   12.9514   -9.0750    0.0000 C   0  0  0  0  0  0  0  0  0  0  0  0
   15.0949  -10.3125    0.0000 C   0  0  0  0  0  0  0  0  0  0  0  0
   15.8093   -9.9000    0.0000 C   0  0  2  0  0  0  0  0  0  0  0  0
   15.8093   -9.0750    0.0000 C   0  0  2  0  0  0  0  0  0  0  0  0
   15.0949   -8.6625    0.0000 C   0  0  1  0  0  0  0  0  0  0  0  0
   16.5238   -8.6625    0.0000 C   0  0  0  0  0  0  0  0  0  0  0  0
   16.5238   -7.8375    0.0000 C   0  0  0  0  0  0  0  0  0  0  0  0
   15.8093   -7.4250    0.0000 C   0  0  0  0  0  0  0  0  0  0  0  0
   15.0949   -7.8375    0.0000 C   0  0  0  0  0  0  0  0  0  0  0  0
   10.0936  -11.5500    0.0000 O   0  0  0  0  0  0  0  0  0  0  0  0
    9.3791  -11.1375    0.0000 C   0  0  2  0  0  0  0  0  0  0  0  0
    9.3791  -10.3125    0.0000 O   0  0  0  0  0  0  0  0  0  0  0  0
    8.6646   -9.9000    0.0000 C   0  0  1  0  0  0  0  0  0  0  0  0
    7.9501  -10.3125    0.0000 C   0  0  2  0  0  0  0  0  0  0  0  0
    7.9501  -11.1375    0.0000 C   0  0  1  0  0  0  0  0  0  0  0  0
    8.6646  -11.5500    0.0000 C   0  0  1  0  0  0  0  0  0  0  0  0
    8.6646   -9.0750    0.0000 C   0  0  0  0  0  0  0  0  0  0  0  0
    7.2357  -11.5500    0.0000 O   0  0  0  0  0  0  0  0  0  0  0  0
    8.6646  -12.3750    0.0000 O   0  0  0  0  0  0  0  0  0  0  0  0
    7.2357   -9.9000    0.0000 O   0  0  0  0  0  0  0  0  0  0  0  0
   11.1100  -12.2645    0.0000 C   0  0  0  0  0  0  0  0  0  0  0  0
   11.9350  -12.2645    0.0000 C   0  0  0  0  0  0  0  0  0  0  0  0
   12.2370   -9.4875    0.0000 C   0  0  0  0  0  0  0  0  0  0  0  0
   12.2370  -11.9625    0.0000 H   0  0  0  0  0  0  0  0  0  0  0  0
   12.9514  -10.7250    0.0000 H   0  0  0  0  0  0  0  0  0  0  0  0
   13.6659   -9.4875    0.0000 C   0  0  0  0  0  0  0  0  0  0  0  0
   14.3804  -10.7250    0.0000 C   0  0  0  0  0  0  0  0  0  0  0  0
   15.0949   -9.4875    0.0000 H   0  0  0  0  0  0  0  0  0  0  0  0
   15.8093  -10.7250    0.0000 O   0  0  0  0  0  0  0  0  0  0  0  0
   16.5238   -9.4875    0.0000 C   0  0  0  0  0  0  0  0  0  0  0  0
   17.2383   -9.0750    0.0000 O   0  0  0  0  0  0  0  0  0  0  0  0
   16.5238  -10.3125    0.0000 O   0  0  0  0  0  0  0  0  0  0  0  0
   15.3968   -6.7105    0.0000 C   0  0  0  0  0  0  0  0  0  0  0  0
   16.2218   -6.7105    0.0000 C   0  0  0  0  0  0  0  0  0  0  0  0
   17.9527   -9.4875    0.0000 C   0  0  2  0  0  0  0  0  0  0  0  0
   17.9527  -10.3125    0.0000 O   0  0  0  0  0  0  0  0  0  0  0  0
   18.6672  -10.7250    0.0000 C   0  0  1  0  0  0  0  0  0  0  0  0
   19.3817  -10.3125    0.0000 C   0  0  2  0  0  0  0  0  0  0  0  0
   19.3817   -9.4875    0.0000 C   0  0  1  0  0  0  0  0  0  0  0  0
   18.6672   -9.0750    0.0000 C   0  0  1  0  0  0  0  0  0  0  0  0
   18.6672   -8.2500    0.0000 O   0  0  0  0  0  0  0  0  0  0  0  0
   20.0962   -9.0750    0.0000 O   0  0  0  0  0  0  0  0  0  0  0  0
   20.0962  -10.7250    0.0000 O   0  0  0  0  0  0  0  0  0  0  0  0
   19.3817   -7.8375    0.0000 C   0  0  2  0  0  0  0  0  0  0  0  0
   20.0962   -8.2500    0.0000 O   0  0  0  0  0  0  0  0  0  0  0  0
   20.8106   -7.8375    0.0000 C   0  0  2  0  0  0  0  0  0  0  0  0
   20.8106   -7.0125    0.0000 C   0  0  1  0  0  0  0  0  0  0  0  0
   20.0962   -6.6000    0.0000 C   0  0  2  0  0  0  0  0  0  0  0  0
   19.3817   -7.0125    0.0000 C   0  0  1  0  0  0  0  0  0  0  0  0
   18.6672   -6.6000    0.0000 O   0  0  0  0  0  0  0  0  0  0  0  0
   20.0962   -5.7750    0.0000 O   0  0  0  0  0  0  0  0  0  0  0  0
   21.5251   -6.6000    0.0000 O   0  0  0  0  0  0  0  0  0  0  0  0
   21.5251   -8.2500    0.0000 C   0  0  0  0  0  0  0  0  0  0  0  0
   22.2396   -7.0125    0.0000 C   0  0  2  0  0  0  0  0  0  0  0  0
   22.2396   -7.8375    0.0000 O   0  0  0  0  0  0  0  0  0  0  0  0
   22.9540   -8.2500    0.0000 C   0  0  0  0  0  0  0  0  0  0  0  0
   23.6685   -7.8375    0.0000 C   0  0  2  0  0  0  0  0  0  0  0  0
   23.6685   -7.0125    0.0000 C   0  0  1  0  0  0  0  0  0  0  0  0
   22.9540   -6.6000    0.0000 C   0  0  1  0  0  0  0  0  0  0  0  0
   22.9540   -5.7750    0.0000 O   0  0  0  0  0  0  0  0  0  0  0  0
   24.3830   -8.2500    0.0000 O   0  0  0  0  0  0  0  0  0  0  0  0
   24.3830   -6.6000    0.0000 O   0  0  0  0  0  0  0  0  0  0  0  0
    7.9501   -8.6625    0.0000 O   0  0  0  0  0  0  0  0  0  0  0  0
    7.9501   -7.8375    0.0000 C   0  0  2  0  0  0  0  0  0  0  0  0
    8.6646   -7.4250    0.0000 O   0  0  0  0  0  0  0  0  0  0  0  0
    8.6646   -6.6000    0.0000 C   0  0  0  0  0  0  0  0  0  0  0  0
    7.9501   -6.1875    0.0000 C   0  0  1  0  0  0  0  0  0  0  0  0
    7.2357   -6.6000    0.0000 C   0  0  1  0  0  0  0  0  0  0  0  0
    7.2357   -7.4250    0.0000 C   0  0  1  0  0  0  0  0  0  0  0  0
    6.5212   -6.1875    0.0000 O   0  0  0  0  0  0  0  0  0  0  0  0
    7.9501   -5.3625    0.0000 O   0  0  0  0  0  0  0  0  0  0  0  0
    6.5212   -7.8375    0.0000 O   0  0  0  0  0  0  0  0  0  0  0  0
   25.0974   -7.0125    0.0000 C   0  0  2  0  0  0  0  0  0  0  0  0
    5.8067   -7.4250    0.0000 C   0  0  2  0  0  0  0  0  0  0  0  0
    5.8067   -6.6000    0.0000 O   0  0  0  0  0  0  0  0  0  0  0  0
    5.0923   -6.1875    0.0000 C   0  0  0  0  0  0  0  0  0  0  0  0
    4.3778   -6.6000    0.0000 C   0  0  2  0  0  0  0  0  0  0  0  0
    4.3778   -7.4250    0.0000 C   0  0  1  0  0  0  0  0  0  0  0  0
    5.0923   -7.8375    0.0000 C   0  0  1  0  0  0  0  0  0  0  0  0
    5.0923   -8.6625    0.0000 O   0  0  0  0  0  0  0  0  0  0  0  0
    3.6633   -7.8375    0.0000 O   0  0  0  0  0  0  0  0  0  0  0  0
    3.6633   -6.1875    0.0000 O   0  0  0  0  0  0  0  0  0  0  0  0
   18.6672  -11.5500    0.0000 C   0  0  0  0  0  0  0  0  0  0  0  0
   19.3817  -11.9625    0.0000 O   0  0  0  0  0  0  0  0  0  0  0  0
   25.0974   -7.8375    0.0000 O   0  0  0  0  0  0  0  0  0  0  0  0
   25.8119   -8.2500    0.0000 C   0  0  0  0  0  0  0  0  0  0  0  0
   26.5264   -7.8375    0.0000 C   0  0  2  0  0  0  0  0  0  0  0  0
   26.5264   -7.0125    0.0000 C   0  0  1  0  0  0  0  0  0  0  0  0
   25.8119   -6.6000    0.0000 C   0  0  1  0  0  0  0  0  0  0  0  0
   25.8119   -5.7750    0.0000 O   0  0  0  0  0  0  0  0  0  0  0  0
   27.2409   -6.6000    0.0000 O   0  0  0  0  0  0  0  0  0  0  0  0
   27.2409   -8.2500    0.0000 O   0  0  0  0  0  0  0  0  0  0  0  0
   19.3817  -12.7875    0.0000 C   0  0  2  0  0  0  0  0  0  0  0  0
   18.6672  -13.2000    0.0000 O   0  0  0  0  0  0  0  0  0  0  0  0
   18.6672  -14.0250    0.0000 C   0  0  2  0  0  0  0  0  0  0  0  0
   19.3817  -14.4375    0.0000 C   0  0  1  0  0  0  0  0  0  0  0  0
   20.0962  -14.0250    0.0000 C   0  0  2  0  0  0  0  0  0  0  0  0
   20.0962  -13.2000    0.0000 C   0  0  1  0  0  0  0  0  0  0  0  0
   19.3817  -15.2625    0.0000 O   0  0  0  0  0  0  0  0  0  0  0  0
   20.8106  -14.4375    0.0000 O   0  0  0  0  0  0  0  0  0  0  0  0
   20.8106  -12.7875    0.0000 O   0  0  0  0  0  0  0  0  0  0  0  0
   17.9527  -14.4375    0.0000 C   0  0  0  0  0  0  0  0  0  0  0  0
   21.5251  -13.2000    0.0000 C   0  0  0  0  0  0  0  0  0  0  0  0
   22.2396  -12.7875    0.0000 C   0  0  0  0  0  0  0  0  0  0  0  0
   21.5251  -14.0250    0.0000 O   0  0  0  0  0  0  0  0  0  0  0  0
   22.9540  -13.2000    0.0000 C   0  0  0  0  0  0  0  0  0  0  0  0
   22.2396  -11.9625    0.0000 C   0  0  0  0  0  0  0  0  0  0  0  0
   22.9540  -11.5500    0.0000 O   0  0  0  0  0  0  0  0  0  0  0  0
   23.6685  -12.7875    0.0000 C   0  0  0  0  0  0  0  0  0  0  0  0
   24.3830  -13.2000    0.0000 C   0  0  0  0  0  0  0  0  0  0  0  0
   25.0974  -12.7875    0.0000 C   0  0  0  0  0  0  0  0  0  0  0  0
   25.5099  -13.5020    0.0000 C   0  0  0  0  0  0  0  0  0  0  0  0
   24.6849  -12.0730    0.0000 C   0  0  0  0  0  0  0  0  0  0  0  0
   25.8119  -12.3750    0.0000 O   0  0  0  0  0  0  0  0  0  0  0  0
   26.3349  -13.5020    0.0000 C   0  0  0  0  0  0  0  0  0  0  0  0
   20.8106  -15.2625    0.0000 C   0  0  0  0  0  0  0  0  0  0  0  0
   21.5251  -15.6750    0.0000 C   0  0  0  0  0  0  0  0  0  0  0  0
   20.0962  -15.6750    0.0000 O   0  0  0  0  0  0  0  0  0  0  0  0
   22.2396  -15.2625    0.0000 C   0  0  0  0  0  0  0  0  0  0  0  0
   21.5251  -16.5000    0.0000 C   0  0  0  0  0  0  0  0  0  0  0  0
   22.2396  -16.9125    0.0000 C   0  0  0  0  0  0  0  0  0  0  0  0
   22.2396  -17.7375    0.0000 C   0  0  0  0  0  0  0  0  0  0  0  0
   22.9540  -18.1500    0.0000 C   0  0  0  0  0  0  0  0  0  0  0  0
   22.5415  -18.8645    0.0000 C   0  0  0  0  0  0  0  0  0  0  0  0
   23.6685  -18.5625    0.0000 O   0  0  0  0  0  0  0  0  0  0  0  0
   23.3665  -17.4355    0.0000 C   0  0  0  0  0  0  0  0  0  0  0  0
   22.9540  -15.6750    0.0000 O   0  0  0  0  0  0  0  0  0  0  0  0
   22.9540  -19.5789    0.0000 C   0  0  0  0  0  0  0  0  0  0  0  0
  1  2  1  0  0  0  0
  2  3  1  0  0  0  0
  3  4  1  0  0  0  0
  4  5  1  0  0  0  0
  5  6  1  0  0  0  0
  6  1  1  0  0  0  0
  4  7  1  0  0  0  0
  7  8  1  0  0  0  0
  8  9  1  0  0  0  0
  9 10  1  0  0  0  0
 10  5  1  0  0  0  0
  9 11  1  0  0  0  0
 11 12  1  0  0  0  0
 12 13  2  0  0  0  0
 13 14  1  0  0  0  0
 14 10  1  0  0  0  0
 11 15  1  0  0  0  0
 15 16  1  0  0  0  0
 16 17  1  0  0  0  0
 17 18  1  0  0  0  0
 18 12  1  0  0  0  0
 17 19  1  0  0  0  0
 19 20  1  0  0  0  0
 20 21  1  0  0  0  0
 21 22  1  0  0  0  0
 22 18  1  0  0  0  0
  2 23  1  1  0  0  0
 24 23  1  1  0  0  0
 24 25  1  0  0  0  0
 25 26  1  0  0  0  0
 26 27  1  0  0  0  0
 27 28  1  0  0  0  0
 28 29  1  0  0  0  0
 29 24  1  0  0  0  0
 26 30  1  1  0  0  0
 28 31  1  1  0  0  0
 29 32  1  6  0  0  0
 27 33  1  6  0  0  0
  3 34  1  0  0  0  0
  3 35  1  0  0  0  0
  5 36  1  1  0  0  0
  4 37  1  6  0  0  0
 10 38  1  6  0  0  0
  9 39  1  1  0  0  0
 11 40  1  6  0  0  0
 18 41  1  1  0  0  0
 16 42  1  6  0  0  0
 17 43  1  1  0  0  0
 43 44  1  0  0  0  0
 43 45  2  0  0  0  0
 21 46  1  0  0  0  0
 21 47  1  0  0  0  0
 48 44  1  1  0  0  0
 48 49  1  0  0  0  0
 49 50  1  0  0  0  0
 50 51  1  0  0  0  0
 51 52  1  0  0  0  0
 52 53  1  0  0  0  0
 53 48  1  0  0  0  0
 53 54  1  6  0  0  0
 52 55  1  1  0  0  0
 51 56  1  6  0  0  0
 57 54  1  1  0  0  0
 57 58  1  0  0  0  0
 58 59  1  0  0  0  0
 59 60  1  0  0  0  0
 60 61  1  0  0  0  0
 61 62  1  0  0  0  0
 62 57  1  0  0  0  0
 62 63  1  6  0  0  0
 61 64  1  6  0  0  0
 60 65  1  1  0  0  0
 59 66  1  6  0  0  0
 67 65  1  1  0  0  0
 67 68  1  0  0  0  0
 68 69  1  0  0  0  0
 69 70  1  0  0  0  0
 70 71  1  0  0  0  0
 71 72  1  0  0  0  0
 72 67  1  0  0  0  0
 72 73  1  6  0  0  0
 71 75  1  1  0  0  0
 70 74  1  6  0  0  0
 30 76  1  0  0  0  0
 77 76  1  1  0  0  0
 77 78  1  0  0  0  0
 78 79  1  0  0  0  0
 79 80  1  0  0  0  0
 80 81  1  0  0  0  0
 81 82  1  0  0  0  0
 82 77  1  0  0  0  0
 81 83  1  1  0  0  0
 80 84  1  1  0  0  0
 82 85  1  6  0  0  0
 86 75  1  1  0  0  0
 87 85  1  1  0  0  0
 87 88  1  0  0  0  0
 88 89  1  0  0  0  0
 89 90  1  0  0  0  0
 90 91  1  0  0  0  0
 91 92  1  0  0  0  0
 92 87  1  0  0  0  0
 92 93  1  6  0  0  0
 91 94  1  1  0  0  0
 90 95  1  6  0  0  0
 50 96  1  1  0  0  0
 96 97  1  0  0  0  0
 86 98  1  0  0  0  0
 98 99  1  0  0  0  0
 99100  1  0  0  0  0
100101  1  0  0  0  0
101102  1  0  0  0  0
102 86  1  0  0  0  0
102103  1  6  0  0  0
101104  1  1  0  0  0
100105  1  6  0  0  0
106 97  1  1  0  0  0
106107  1  0  0  0  0
107108  1  0  0  0  0
108109  1  0  0  0  0
109110  1  0  0  0  0
110111  1  0  0  0  0
111106  1  0  0  0  0
109112  1  1  0  0  0
110113  1  6  0  0  0
111114  1  6  0  0  0
108115  1  6  0  0  0
114116  1  0  0  0  0
116117  1  0  0  0  0
116118  2  0  0  0  0
117119  2  0  0  0  0
117120  1  0  0  0  0
120121  1  0  0  0  0
119122  1  0  0  0  0
122123  1  0  0  0  0
123124  1  0  0  0  0
124125  1  0  0  0  0
124126  1  0  0  0  0
124127  1  0  0  0  0
125128  2  0  0  0  0
113129  1  0  0  0  0
129130  1  0  0  0  0
129131  2  0  0  0  0
130132  1  0  0  0  0
130133  2  0  0  0  0
133134  1  0  0  0  0
134135  1  0  0  0  0
135136  1  0  0  0  0
136137  1  0  0  0  0
136138  1  0  0  0  0
136139  1  0  0  0  0
132140  1  0  0  0  0
137141  2  0  0  0  0
M  END
>  <cdx:fragmentId>
189

$$$$
