97471.cdx
  Mrv1902 05222410212D          

 38 41  0  0  0  0            999 V2000
   10.6316   -8.4785    0.0000 C   0  0  0  0  0  0  0  0  0  0  0  0
   10.6316   -9.3035    0.0000 C   0  0  0  0  0  0  0  0  0  0  0  0
   11.3460   -9.7160    0.0000 O   0  0  0  0  0  0  0  0  0  0  0  0
    9.9171   -9.7160    0.0000 C   0  0  0  0  0  0  0  0  0  0  0  0
    9.9171  -10.5410    0.0000 O   0  0  0  0  0  0  0  0  0  0  0  0
    9.2026   -9.3035    0.0000 C   0  0  0  0  0  0  0  0  0  0  0  0
    8.4881   -9.7160    0.0000 C   0  0  0  0  0  0  0  0  0  0  0  0
    8.4881  -10.5410    0.0000 O   0  0  0  0  0  0  0  0  0  0  0  0
    7.7737   -9.3035    0.0000 C   0  0  0  0  0  0  0  0  0  0  0  0
    7.7737   -8.4785    0.0000 C   0  0  0  0  0  0  0  0  0  0  0  0
    8.4881   -8.0660    0.0000 C   0  0  0  0  0  0  0  0  0  0  0  0
    9.2026   -8.4785    0.0000 C   0  0  0  0  0  0  0  0  0  0  0  0
    9.9171   -8.0660    0.0000 O   0  0  0  0  0  0  0  0  0  0  0  0
   11.3460   -8.0660    0.0000 C   0  0  0  0  0  0  0  0  0  0  0  0
   11.3460   -7.2410    0.0000 C   0  0  0  0  0  0  0  0  0  0  0  0
   12.0605   -6.8285    0.0000 C   0  0  0  0  0  0  0  0  0  0  0  0
   12.7750   -7.2410    0.0000 C   0  0  0  0  0  0  0  0  0  0  0  0
   13.4894   -6.8285    0.0000 O   0  0  0  0  0  0  0  0  0  0  0  0
   12.7750   -8.0660    0.0000 C   0  0  0  0  0  0  0  0  0  0  0  0
   12.0605   -8.4785    0.0000 C   0  0  0  0  0  0  0  0  0  0  0  0
    7.0592   -8.0660    0.0000 O   0  0  0  0  0  0  0  0  0  0  0  0
    6.3447   -8.4785    0.0000 C   0  0  0  0  0  0  0  0  0  0  0  0
    6.3447   -9.3035    0.0000 C   0  0  2  0  0  0  0  0  0  0  0  0
    7.0592   -9.7160    0.0000 O   0  0  0  0  0  0  0  0  0  0  0  0
    5.6303   -9.7160    0.0000 C   0  0  1  0  0  0  0  0  0  0  0  0
    5.6303  -10.5410    0.0000 O   0  0  0  0  0  0  0  0  0  0  0  0
    4.9158   -9.3035    0.0000 C   0  0  2  0  0  0  0  0  0  0  0  0
    4.2013   -9.7160    0.0000 O   0  0  0  0  0  0  0  0  0  0  0  0
    4.9158   -8.4785    0.0000 C   0  0  2  0  0  0  0  0  0  0  0  0
    5.6303   -8.0660    0.0000 O   0  0  0  0  0  0  0  0  0  0  0  0
    4.2013   -8.0660    0.0000 C   0  0  0  0  0  0  0  0  0  0  0  0
    3.4869   -8.4785    0.0000 O   0  0  0  0  0  0  0  0  0  0  0  0
    2.7724   -8.0660    0.0000 C   0  0  0  0  0  0  0  0  0  0  0  0
    2.0579   -8.4785    0.0000 C   0  0  0  0  0  0  0  0  0  0  0  0
    1.3434   -8.0660    0.0000 C   0  0  0  0  0  0  0  0  0  0  0  0
    0.6290   -8.4785    0.0000 O   0  0  0  0  0  0  0  0  0  0  0  0
    1.3434   -7.2410    0.0000 O   0  0  0  0  0  0  0  0  0  0  0  0
    2.7724   -7.2410    0.0000 O   0  0  0  0  0  0  0  0  0  0  0  0
  1  2  2  0  0  0  0
  2  3  1  0  0  0  0
  2  4  1  0  0  0  0
  4  5  2  0  0  0  0
  4  6  1  0  0  0  0
  6  7  1  0  0  0  0
  7  8  1  0  0  0  0
  7  9  2  0  0  0  0
  9 10  1  0  0  0  0
 10 11  2  0  0  0  0
 11 12  1  0  0  0  0
  6 12  2  0  0  0  0
 12 13  1  0  0  0  0
  1 13  1  0  0  0  0
  1 14  1  0  0  0  0
 14 15  1  0  0  0  0
 15 16  2  0  0  0  0
 16 17  1  0  0  0  0
 17 18  1  0  0  0  0
 17 19  2  0  0  0  0
 19 20  1  0  0  0  0
 14 20  2  0  0  0  0
 21 22  1  0  0  0  0
 22 23  1  0  0  0  0
 23 24  1  6  0  0  0
 23 25  1  0  0  0  0
 25 26  1  1  0  0  0
 25 27  1  0  0  0  0
 27 28  1  6  0  0  0
 27 29  1  0  0  0  0
 29 30  1  0  0  0  0
 29 31  1  1  0  0  0
 31 32  1  0  0  0  0
 22 30  1  0  0  0  0
 10 21  1  0  0  0  0
 32 33  1  0  0  0  0
 33 34  1  0  0  0  0
 34 35  1  0  0  0  0
 35 36  1  0  0  0  0
 35 37  2  0  0  0  0
 33 38  2  0  0  0  0
M  END
>  <cdx:fragmentId>
5

$$$$
