97472.cdx
  Mrv1902 05222410202D          

  9  9  0  0  0  0            999 V2000
    6.7404   -4.0972    0.0000 N   0  0  0  0  0  0  0  0  0  0  0  0
    6.0259   -4.5097    0.0000 C   0  0  0  0  0  0  0  0  0  0  0  0
    5.3115   -4.0972    0.0000 C   0  0  0  0  0  0  0  0  0  0  0  0
    4.5970   -4.5097    0.0000 C   0  0  0  0  0  0  0  0  0  0  0  0
    3.8825   -4.0972    0.0000 C   0  0  0  0  0  0  0  0  0  0  0  0
    3.8825   -3.2722    0.0000 C   0  0  0  0  0  0  0  0  0  0  0  0
    4.5970   -2.8597    0.0000 C   0  0  0  0  0  0  0  0  0  0  0  0
    5.3115   -3.2722    0.0000 C   0  0  0  0  0  0  0  0  0  0  0  0
    3.1680   -2.8597    0.0000 O   0  0  0  0  0  0  0  0  0  0  0  0
  2  3  1  0  0  0  0
  3  4  1  0  0  0  0
  4  5  2  0  0  0  0
  5  6  1  0  0  0  0
  6  7  2  0  0  0  0
  7  8  1  0  0  0  0
  3  8  2  0  0  0  0
  6  9  1  0  0  0  0
  1  2  1  0  0  0  0
M  END
>  <cdx:groupId>
29

>  <cdx:fragmentId>
7

$$$$
