97515.cdx
  Mrv1902 05222410222D          

 36 36  0  0  0  0            999 V2000
    3.9945   -7.6397    0.0000 O   0  0  0  0  0  0  0  0  0  0  0  0
    3.2800   -8.0522    0.0000 C   0  0  1  0  0  0  0  0  0  0  0  0
    3.2800   -8.8772    0.0000 C   0  0  2  0  0  0  0  0  0  0  0  0
    3.9945   -9.2897    0.0000 O   0  0  0  0  0  0  0  0  0  0  0  0
    2.5655   -9.2897    0.0000 C   0  0  1  0  0  0  0  0  0  0  0  0
    2.5655  -10.1147    0.0000 O   0  0  0  0  0  0  0  0  0  0  0  0
    1.8511   -8.8772    0.0000 C   0  0  1  0  0  0  0  0  0  0  0  0
    1.1366   -9.2897    0.0000 O   0  0  0  0  0  0  0  0  0  0  0  0
    1.8511   -8.0522    0.0000 C   0  0  2  0  0  0  0  0  0  0  0  0
    2.5655   -7.6397    0.0000 O   0  0  0  0  0  0  0  0  0  0  0  0
    1.1366   -7.6397    0.0000 C   0  0  0  0  0  0  0  0  0  0  0  0
    0.4221   -8.0522    0.0000 O   0  0  0  0  0  0  0  0  0  0  0  0
    4.7090   -8.0522    0.0000 C   0  0  0  0  0  0  0  0  0  0  0  0
    5.4234   -7.6397    0.0000 C   0  0  0  0  0  0  0  0  0  0  0  0
    5.4234   -6.8147    0.0000 O   0  0  0  0  0  0  0  0  0  0  0  0
    6.1379   -8.0522    0.0000 C   0  0  0  0  0  0  0  0  0  0  0  0
    6.8524   -7.6397    0.0000 O   0  0  0  0  0  0  0  0  0  0  0  0
    7.5668   -8.0522    0.0000 C   0  0  0  0  0  0  0  0  0  0  0  0
    8.2813   -7.6397    0.0000 C   0  0  0  0  0  0  0  0  0  0  0  0
    8.9958   -8.0522    0.0000 C   0  0  0  0  0  0  0  0  0  0  0  0
    9.7103   -7.6397    0.0000 C   0  0  0  0  0  0  0  0  0  0  0  0
   10.4247   -8.0522    0.0000 C   0  0  0  0  0  0  0  0  0  0  0  0
   11.1392   -7.6397    0.0000 C   0  0  0  0  0  0  0  0  0  0  0  0
   11.8537   -8.0522    0.0000 C   0  0  0  0  0  0  0  0  0  0  0  0
   12.5681   -7.6397    0.0000 C   0  0  0  0  0  0  0  0  0  0  0  0
   13.2826   -8.0522    0.0000 C   0  0  0  0  0  0  0  0  0  0  0  0
   13.9971   -7.6397    0.0000 C   0  0  0  0  0  0  0  0  0  0  0  0
   14.7115   -8.0522    0.0000 C   0  0  0  0  0  0  0  0  0  0  0  0
   15.4260   -7.6397    0.0000 C   0  0  0  0  0  0  0  0  0  0  0  0
   16.1405   -8.0522    0.0000 C   0  0  0  0  0  0  0  0  0  0  0  0
   16.8550   -7.6397    0.0000 C   0  0  0  0  0  0  0  0  0  0  0  0
   17.5694   -8.0522    0.0000 C   0  0  0  0  0  0  0  0  0  0  0  0
   18.2839   -7.6397    0.0000 C   0  0  0  0  0  0  0  0  0  0  0  0
   18.9984   -8.0522    0.0000 C   0  0  0  0  0  0  0  0  0  0  0  0
   19.7128   -7.6397    0.0000 C   0  0  0  0  0  0  0  0  0  0  0  0
    7.5668   -8.8772    0.0000 O   0  0  0  0  0  0  0  0  0  0  0  0
  2  1  1  1  0  0  0
  2  3  1  0  0  0  0
  3  4  1  6  0  0  0
  3  5  1  0  0  0  0
  5  6  1  1  0  0  0
  5  7  1  0  0  0  0
  7  8  1  1  0  0  0
  7  9  1  0  0  0  0
  9 10  1  0  0  0  0
  9 11  1  1  0  0  0
 11 12  1  0  0  0  0
  2 10  1  0  0  0  0
 13 14  1  0  0  0  0
 14 15  1  0  0  0  0
 14 16  1  0  0  0  0
 16 17  1  0  0  0  0
 18 19  1  0  0  0  0
 19 20  1  0  0  0  0
 20 21  1  0  0  0  0
 21 22  1  0  0  0  0
 22 23  1  0  0  0  0
 23 24  1  0  0  0  0
 24 25  1  0  0  0  0
 25 26  1  0  0  0  0
 26 27  2  0  0  0  0
 27 28  1  0  0  0  0
 28 29  1  0  0  0  0
 29 30  2  0  0  0  0
 30 31  1  0  0  0  0
 31 32  1  0  0  0  0
 32 33  2  0  0  0  0
 33 34  1  0  0  0  0
 34 35  1  0  0  0  0
 18 36  2  0  0  0  0
 17 18  1  0  0  0  0
  1 13  1  0  0  0  0
M  END
>  <cdx:fragmentId>
39

$$$$
