97525.cdx
  Mrv1902 05222410242D          

 15 16  0  0  0  0            999 V2000
   10.0504   -8.0396    0.0000 C   0  0  0  0  0  0  0  0  0  0  0  0
    9.3329   -7.6324    0.0000 O   0  0  0  0  0  0  0  0  0  0  0  0
    6.4935  -10.1287    0.0000 O   0  0  0  0  0  0  0  0  0  0  0  0
    7.9224  -10.1180    0.0000 O   0  0  0  0  0  0  0  0  0  0  0  0
    7.8978   -6.8181    0.0000 O   0  0  0  0  0  0  0  0  0  0  0  0
    7.1926   -8.0609    0.0000 C   0  0  0  0  0  0  0  0  0  0  0  0
    6.4751   -7.6537    0.0000 C   0  0  0  0  0  0  0  0  0  0  0  0
    5.7637   -8.0716    0.0000 C   0  0  0  0  0  0  0  0  0  0  0  0
    5.7699   -8.8965    0.0000 C   0  0  0  0  0  0  0  0  0  0  0  0
    6.4874   -9.3037    0.0000 C   0  0  0  0  0  0  0  0  0  0  0  0
    7.1988   -8.8859    0.0000 C   0  0  0  0  0  0  0  0  0  0  0  0
    7.9163   -9.2930    0.0000 C   0  0  0  0  0  0  0  0  0  0  0  0
    8.6277   -8.8752    0.0000 C   0  0  0  0  0  0  0  0  0  0  0  0
    8.6215   -8.0502    0.0000 C   0  0  0  0  0  0  0  0  0  0  0  0
    7.9040   -7.6431    0.0000 C   0  0  0  0  0  0  0  0  0  0  0  0
  2  1  1  0  0  0  0
 14  2  1  0  0  0  0
 10  3  1  0  0  0  0
 12  4  2  0  0  0  0
 15  5  2  0  0  0  0
 11  6  2  0  0  0  0
 15  6  1  0  0  0  0
  7  6  1  0  0  0  0
  8  7  2  0  0  0  0
  9  8  1  0  0  0  0
 10  9  2  0  0  0  0
 11 10  1  0  0  0  0
 12 11  1  0  0  0  0
 13 12  1  0  0  0  0
 14 13  2  0  0  0  0
 15 14  1  0  0  0  0
M  END
>  <cdx:fragmentId>
5

$$$$
