9754.cdx
  Mrv1902 05222410192D          

 47 48  0  0  0  0            999 V2000
    9.4907   -9.9814    0.0000 C   0  0  0  0  0  0  0  0  0  0  0  0
    9.4907   -9.1564    0.0000 C   0  0  0  0  0  0  0  0  0  0  0  0
   10.2052   -8.7439    0.0000 C   0  0  0  0  0  0  0  0  0  0  0  0
   10.2052   -7.9189    0.0000 C   0  0  0  0  0  0  0  0  0  0  0  0
   10.9197   -7.5064    0.0000 C   0  0  0  0  0  0  0  0  0  0  0  0
   10.9197   -6.6814    0.0000 C   0  0  0  0  0  0  0  0  0  0  0  0
   11.6342   -6.2689    0.0000 C   0  0  0  0  0  0  0  0  0  0  0  0
   11.6342   -5.4439    0.0000 C   0  0  0  0  0  0  0  0  0  0  0  0
   12.3486   -5.0314    0.0000 C   0  0  0  0  0  0  0  0  0  0  0  0
   10.2052  -10.3939    0.0000 O   0  0  0  0  0  0  0  0  0  0  0  0
    8.7763  -10.3939    0.0000 O   0  0  0  0  0  0  0  0  0  0  0  0
    8.7763  -11.2189    0.0000 C   0  0  0  0  0  0  0  0  0  0  0  0
    8.0618  -11.6314    0.0000 C   0  0  2  0  0  0  0  0  0  0  0  0
    8.0618  -12.4564    0.0000 C   0  0  0  0  0  0  0  0  0  0  0  0
    7.3473  -12.8689    0.0000 O   0  0  0  0  0  0  0  0  0  0  0  0
    6.6329  -14.1064    0.0000 O   0  0  0  0  0  0  0  0  0  0  0  0
    7.3473  -13.6939    0.0000 C   0  0  2  0  0  0  0  0  0  0  0  0
    8.0618  -14.1064    0.0000 C   0  0  1  0  0  0  0  0  0  0  0  0
    8.0618  -14.9314    0.0000 C   0  0  2  0  0  0  0  0  0  0  0  0
    7.3473  -15.3439    0.0000 C   0  0  2  0  0  0  0  0  0  0  0  0
    6.6329  -14.9314    0.0000 C   0  0  1  0  0  0  0  0  0  0  0  0
    5.9184  -15.3439    0.0000 C   0  0  0  0  0  0  0  0  0  0  0  0
    5.9184  -16.1689    0.0000 O   0  0  0  0  0  0  0  0  0  0  0  0
    7.3473  -16.1689    0.0000 O   0  0  0  0  0  0  0  0  0  0  0  0
    8.7763  -15.3439    0.0000 O   0  0  0  0  0  0  0  0  0  0  0  0
    8.7763  -13.6939    0.0000 O   0  0  0  0  0  0  0  0  0  0  0  0
    7.3473  -11.2189    0.0000 O   0  0  0  0  0  0  0  0  0  0  0  0
    5.9184  -17.8189    0.0000 O   0  0  0  0  0  0  0  0  0  0  0  0
    4.4894  -18.6439    0.0000 O   0  0  0  0  0  0  0  0  0  0  0  0
    3.0605  -17.8189    0.0000 O   0  0  0  0  0  0  0  0  0  0  0  0
    2.3460  -16.5814    0.0000 O   0  0  0  0  0  0  0  0  0  0  0  0
    3.0605  -16.1689    0.0000 C   0  0  0  0  0  0  0  0  0  0  0  0
    3.7750  -16.5814    0.0000 C   0  0  2  0  0  0  0  0  0  0  0  0
    3.7750  -17.4064    0.0000 C   0  0  1  0  0  0  0  0  0  0  0  0
    4.4894  -17.8189    0.0000 C   0  0  1  0  0  0  0  0  0  0  0  0
    5.2039  -17.4064    0.0000 C   0  0  2  0  0  0  0  0  0  0  0  0
    5.2039  -16.5814    0.0000 C   0  0  2  0  0  0  0  0  0  0  0  0
    4.4894  -16.1689    0.0000 O   0  0  0  0  0  0  0  0  0  0  0  0
   12.3486   -4.2064    0.0000 C   0  0  0  0  0  0  0  0  0  0  0  0
   11.6342   -3.7939    0.0000 C   0  0  0  0  0  0  0  0  0  0  0  0
   11.6342   -2.9689    0.0000 C   0  0  0  0  0  0  0  0  0  0  0  0
   10.9197   -2.5564    0.0000 C   0  0  0  0  0  0  0  0  0  0  0  0
   10.2052   -2.9689    0.0000 C   0  0  0  0  0  0  0  0  0  0  0  0
    9.4907   -2.5564    0.0000 C   0  0  0  0  0  0  0  0  0  0  0  0
    8.7763   -2.9689    0.0000 C   0  0  0  0  0  0  0  0  0  0  0  0
    8.0618   -2.5564    0.0000 C   0  0  0  0  0  0  0  0  0  0  0  0
    7.3473   -2.9689    0.0000 C   0  0  0  0  0  0  0  0  0  0  0  0
 37 23  1  6  0  0  0
 36 28  1  6  0  0  0
 35 29  1  1  0  0  0
 34 30  1  1  0  0  0
 33 32  1  1  0  0  0
 32 31  1  0  0  0  0
 38 33  1  0  0  0  0
 34 33  1  0  0  0  0
 35 34  1  0  0  0  0
 36 35  1  0  0  0  0
 37 36  1  0  0  0  0
 38 37  1  0  0  0  0
  1  2  1  0  0  0  0
  2  3  1  0  0  0  0
  3  4  1  0  0  0  0
  4  5  1  0  0  0  0
  5  6  1  0  0  0  0
  6  7  1  0  0  0  0
  7  8  1  0  0  0  0
  8  9  1  0  0  0  0
  1 10  2  0  0  0  0
  1 11  1  0  0  0  0
 12 13  1  0  0  0  0
 13 14  1  0  0  0  0
 16 17  1  0  0  0  0
 17 18  1  0  0  0  0
 18 19  1  0  0  0  0
 19 20  1  0  0  0  0
 20 21  1  0  0  0  0
 16 21  1  0  0  0  0
 22 23  1  0  0  0  0
 21 22  1  1  0  0  0
 20 24  1  1  0  0  0
 19 25  1  1  0  0  0
 18 26  1  6  0  0  0
 17 15  1  1  0  0  0
 14 15  1  0  0  0  0
 13 27  1  6  0  0  0
 11 12  1  0  0  0  0
  9 39  2  0  0  0  0
 39 40  1  0  0  0  0
 40 41  1  0  0  0  0
 41 42  2  0  0  0  0
 42 43  1  0  0  0  0
 43 44  1  0  0  0  0
 44 45  1  0  0  0  0
 45 46  1  0  0  0  0
 46 47  1  0  0  0  0
M  END
>  <cdx:groupId>
35404

>  <cdx:fragmentId>
35329

$$$$
