9975530.cdx
  Mrv1902 05222410272D          

 29 34  0  0  0  0            999 V2000
    8.3719   -5.0352    0.0000 C   0  0  2  0  0  0  0  0  0  0  0  0
    7.6574   -4.6227    0.0000 O   0  0  0  0  0  0  0  0  0  0  0  0
    6.9429   -5.0352    0.0000 C   0  0  0  0  0  0  0  0  0  0  0  0
    6.2285   -4.6227    0.0000 C   0  0  0  0  0  0  0  0  0  0  0  0
    5.5140   -5.0352    0.0000 C   0  0  0  0  0  0  0  0  0  0  0  0
    4.7294   -4.7803    0.0000 O   0  0  0  0  0  0  0  0  0  0  0  0
    4.2445   -5.4477    0.0000 C   0  0  0  0  0  0  0  0  0  0  0  0
    4.7294   -6.1152    0.0000 O   0  0  0  0  0  0  0  0  0  0  0  0
    5.5140   -5.8602    0.0000 C   0  0  0  0  0  0  0  0  0  0  0  0
    6.2285   -6.2727    0.0000 C   0  0  0  0  0  0  0  0  0  0  0  0
    6.9429   -5.8602    0.0000 C   0  0  0  0  0  0  0  0  0  0  0  0
    7.6574   -6.2727    0.0000 C   0  0  2  0  0  0  0  0  0  0  0  0
    7.6563   -7.0977    0.0000 C   0  0  2  0  0  0  0  0  0  0  0  0
    8.3709   -7.5100    0.0000 C   0  0  1  0  0  0  0  0  0  0  0  0
    9.0855   -7.0977    0.0000 C   0  0  0  0  0  0  0  0  0  0  0  0
    9.0864   -6.2727    0.0000 C   0  0  1  0  0  0  0  0  0  0  0  0
    9.8008   -5.8602    0.0000 C   0  0  0  0  0  0  0  0  0  0  0  0
    9.8008   -5.0352    0.0000 C   0  0  0  0  0  0  0  0  0  0  0  0
    9.0864   -4.6227    0.0000 C   0  0  0  0  0  0  0  0  0  0  0  0
    9.0564   -3.7982    0.0000 O   0  0  0  0  0  0  0  0  0  0  0  0
    8.2494   -3.6267    0.0000 C   0  0  0  0  0  0  0  0  0  0  0  0
    7.8870   -4.3678    0.0000 O   0  0  0  0  0  0  0  0  0  0  0  0
    8.3719   -5.8602    0.0000 C   0  0  1  0  0  0  0  0  0  0  0  0
   10.5153   -6.2727    0.0000 O   0  0  0  0  0  0  0  0  0  0  0  0
    8.3709   -8.3350    0.0000 C   0  0  0  0  0  0  0  0  0  0  0  0
    6.9419   -7.5102    0.0000 C   0  0  0  0  0  0  0  0  0  0  0  0
    6.9429   -6.6852    0.0000 H   0  0  0  0  0  0  0  0  0  0  0  0
    9.8008   -6.6852    0.0000 H   0  0  0  0  0  0  0  0  0  0  0  0
    8.3719   -6.6852    0.0000 H   0  0  0  0  0  0  0  0  0  0  0  0
  1  2  1  1  0  0  0
  2  3  1  0  0  0  0
  3  4  2  0  0  0  0
  4  5  1  0  0  0  0
  5  6  1  0  0  0  0
  6  7  1  0  0  0  0
  7  8  1  0  0  0  0
  8  9  1  0  0  0  0
  9 10  1  0  0  0  0
 10 11  2  0  0  0  0
 11 12  1  0  0  0  0
 12 13  1  0  0  0  0
 13 14  1  0  0  0  0
 14 15  1  0  0  0  0
 15 16  1  0  0  0  0
 16 17  1  0  0  0  0
 17 18  1  0  0  0  0
 18 19  2  0  0  0  0
 19 20  1  0  0  0  0
 20 21  1  0  0  0  0
 21 22  1  0  0  0  0
  1 22  1  6  0  0  0
  1 23  1  0  0  0  0
 23 12  1  0  0  0  0
  1 19  1  0  0  0  0
  3 11  1  0  0  0  0
  5  9  2  0  0  0  0
 16 23  1  0  0  0  0
 17 24  2  0  0  0  0
 14 25  1  1  0  0  0
 13 26  1  6  0  0  0
 12 27  1  6  0  0  0
 16 28  1  1  0  0  0
 23 29  1  1  0  0  0
M  END
>  <cdx:groupId>
94

>  <cdx:fragmentId>
5

$$$$
