975657.cdx
  Mrv1902 05222410272D          

 10 10  0  0  0  0            999 V2000
    7.2435  -10.7244    0.0000 O   0  0  0  0  0  0  0  0  0  0  0  0
    7.9580  -11.1369    0.0000 C   0  0  0  0  0  0  0  0  0  0  0  0
    7.9580  -11.9619    0.0000 C   0  0  1  0  0  0  0  0  0  0  0  0
    7.2435  -12.3744    0.0000 C   0  0  1  0  0  0  0  0  0  0  0  0
    6.5290  -11.9619    0.0000 C   0  0  1  0  0  0  0  0  0  0  0  0
    6.5290  -11.1369    0.0000 C   0  0  0  0  0  0  0  0  0  0  0  0
    8.6724  -10.7244    0.0000 O   0  0  0  0  0  0  0  0  0  0  0  0
    8.6724  -12.3744    0.0000 O   0  0  0  0  0  0  0  0  0  0  0  0
    7.2435  -13.1994    0.0000 O   0  0  0  0  0  0  0  0  0  0  0  0
    5.8146  -12.3744    0.0000 O   0  0  0  0  0  0  0  0  0  0  0  0
  1  2  1  0  0  0  0
  2  3  1  0  0  0  0
  3  4  1  0  0  0  0
  4  5  1  0  0  0  0
  5  6  1  0  0  0  0
  1  6  1  0  0  0  0
  2  7  1  0  0  0  0
  3  8  1  6  0  0  0
  4  9  1  6  0  0  0
  5 10  1  6  0  0  0
M  END
>  <cdx:fragmentId>
64241

$$$$
