97579.cdx
  Mrv1902 05222410262D          

 16 17  0  0  0  0            999 V2000
    7.3422   -5.6314    0.0000 C   0  0  0  0  0  0  0  0  0  0  0  0
    8.0567   -6.0439    0.0000 C   0  0  0  0  0  0  0  0  0  0  0  0
    8.7712   -5.6314    0.0000 C   0  0  0  0  0  0  0  0  0  0  0  0
    8.7712   -4.8064    0.0000 C   0  0  0  0  0  0  0  0  0  0  0  0
    8.0567   -4.3939    0.0000 C   0  0  0  0  0  0  0  0  0  0  0  0
    7.3422   -4.8064    0.0000 C   0  0  0  0  0  0  0  0  0  0  0  0
    6.6278   -6.0439    0.0000 C   0  0  0  0  0  0  0  0  0  0  0  0
    5.9133   -5.6314    0.0000 C   0  0  0  0  0  0  0  0  0  0  0  0
    5.1988   -6.0439    0.0000 C   0  0  0  0  0  0  0  0  0  0  0  0
    5.1988   -6.8689    0.0000 C   0  0  0  0  0  0  0  0  0  0  0  0
    5.9133   -7.2814    0.0000 C   0  0  0  0  0  0  0  0  0  0  0  0
    6.6278   -6.8689    0.0000 C   0  0  0  0  0  0  0  0  0  0  0  0
    4.4844   -7.2814    0.0000 O   0  0  0  0  0  0  0  0  0  0  0  0
    9.4856   -4.3939    0.0000 O   0  0  0  0  0  0  0  0  0  0  0  0
    4.4844   -5.6314    0.0000 O   0  0  0  0  0  0  0  0  0  0  0  0
    9.4856   -6.0439    0.0000 O   0  0  0  0  0  0  0  0  0  0  0  0
  1  2  1  0  0  0  0
  2  3  2  0  0  0  0
  3  4  1  0  0  0  0
  4  5  2  0  0  0  0
  5  6  1  0  0  0  0
  1  6  2  0  0  0  0
  7  8  1  0  0  0  0
  8  9  2  0  0  0  0
  9 10  1  0  0  0  0
 10 11  2  0  0  0  0
 11 12  1  0  0  0  0
  7 12  2  0  0  0  0
  1  7  1  0  0  0  0
 10 13  1  0  0  0  0
  4 14  1  0  0  0  0
  9 15  1  0  0  0  0
  3 16  1  0  0  0  0
M  END
>  <cdx:fragmentId>
17

$$$$
