976271.cdx
  Mrv1902 05222410242D          

 24 25  0  0  0  0            999 V2000
    6.7645   -9.2972    0.0000 C   0  0  0  0  0  0  0  0  0  0  0  0
    6.0501   -9.7097    0.0000 C   0  0  0  0  0  0  0  0  0  0  0  0
    5.3356   -9.2972    0.0000 C   0  0  0  0  0  0  0  0  0  0  0  0
    6.7645   -8.4722    0.0000 O   0  0  0  0  0  0  0  0  0  0  0  0
    7.4790   -9.7097    0.0000 N   0  0  0  0  0  0  0  0  0  0  0  0
    5.3356   -8.4722    0.0000 C   0  0  0  0  0  0  0  0  0  0  0  0
    4.6211   -8.0597    0.0000 C   0  0  0  0  0  0  0  0  0  0  0  0
    4.6211   -7.2347    0.0000 C   0  0  0  0  0  0  0  0  0  0  0  0
    5.3356   -6.8222    0.0000 C   0  0  0  0  0  0  0  0  0  0  0  0
    6.0501   -7.2347    0.0000 C   0  0  0  0  0  0  0  0  0  0  0  0
    6.0501   -8.0597    0.0000 C   0  0  0  0  0  0  0  0  0  0  0  0
    3.9067   -6.8222    0.0000 O   0  0  0  0  0  0  0  0  0  0  0  0
    3.1922   -7.2347    0.0000 C   0  0  0  0  0  0  0  0  0  0  0  0
    5.3356   -5.9972    0.0000 O   0  0  0  0  0  0  0  0  0  0  0  0
    8.1935   -9.2972    0.0000 C   0  0  0  0  0  0  0  0  0  0  0  0
    8.9080   -9.7097    0.0000 C   0  0  0  0  0  0  0  0  0  0  0  0
    9.6224   -9.2972    0.0000 C   0  0  0  0  0  0  0  0  0  0  0  0
    9.6224   -8.4722    0.0000 C   0  0  0  0  0  0  0  0  0  0  0  0
   10.3369   -8.0597    0.0000 C   0  0  0  0  0  0  0  0  0  0  0  0
   11.0514   -8.4722    0.0000 C   0  0  0  0  0  0  0  0  0  0  0  0
   11.0514   -9.2972    0.0000 C   0  0  0  0  0  0  0  0  0  0  0  0
   10.3369   -9.7097    0.0000 C   0  0  0  0  0  0  0  0  0  0  0  0
   11.7658   -8.0597    0.0000 O   0  0  0  0  0  0  0  0  0  0  0  0
    8.9080  -10.5347    0.0000 O   0  0  0  0  0  0  0  0  0  0  0  0
  1  2  1  0  0  0  0
  2  3  2  0  0  0  0
  1  4  2  0  0  0  0
  1  5  1  0  0  0  0
  6  7  1  0  0  0  0
  7  8  2  0  0  0  0
  8  9  1  0  0  0  0
  9 10  2  0  0  0  0
 10 11  1  0  0  0  0
  6 11  2  0  0  0  0
 12 13  1  0  0  0  0
  8 12  1  0  0  0  0
  9 14  1  0  0  0  0
  3  6  1  0  0  0  0
 15 16  1  0  0  0  0
 17 18  1  0  0  0  0
 18 19  2  0  0  0  0
 19 20  1  0  0  0  0
 20 21  2  0  0  0  0
 21 22  1  0  0  0  0
 17 22  2  0  0  0  0
 20 23  1  0  0  0  0
 16 17  1  0  0  0  0
 16 24  1  0  0  0  0
  5 15  1  0  0  0  0
M  END
>  <cdx:fragmentId>
48620

$$$$
