97625.cdx
  Mrv1902 05222410272D          

  6  5  0  0  0  0            999 V2000
    6.1702   -8.5094    0.0000 C   0  0  0  0  0  0  0  0  0  0  0  0
    6.8846   -8.9219    0.0000 C   0  0  0  0  0  0  0  0  0  0  0  0
    7.5991   -8.5094    0.0000 C   0  0  0  0  0  0  0  0  0  0  0  0
    8.3136   -8.9219    0.0000 C   0  0  0  0  0  0  0  0  0  0  0  0
    9.0280   -8.5094    0.0000 C   0  0  0  0  0  0  0  0  0  0  0  0
    5.4557   -8.0969    0.0000 N   0  0  0  0  0  0  0  0  0  0  0  0
  1  2  1  0  0  0  0
  2  3  1  0  0  0  0
  3  4  1  0  0  0  0
  4  5  2  0  0  0  0
  1  6  3  0  0  0  0
M  END
>  <cdx:fragmentId>
5

$$$$
