97637.cdx
  Mrv1902 05222410282D          

 29 30  0  0  0  0            999 V2000
    6.6737   -6.3800    0.0000 C   0  0  1  0  0  0  0  0  0  0  0  0
    6.6737   -7.2050    0.0000 C   0  0  2  0  0  0  0  0  0  0  0  0
    7.3881   -7.6175    0.0000 C   0  0  1  0  0  0  0  0  0  0  0  0
    8.1026   -7.2050    0.0000 O   0  0  0  0  0  0  0  0  0  0  0  0
    8.1026   -6.3800    0.0000 C   0  0  0  0  0  0  0  0  0  0  0  0
    7.3881   -5.9675    0.0000 C   0  0  0  0  0  0  0  0  0  0  0  0
    5.8891   -6.1251    0.0000 C   0  0  0  0  0  0  0  0  0  0  0  0
    5.4041   -6.7925    0.0000 C   0  0  1  0  0  0  0  0  0  0  0  0
    5.8891   -7.4599    0.0000 C   0  0  2  0  0  0  0  0  0  0  0  0
    7.3881   -5.1425    0.0000 C   0  0  0  0  0  0  0  0  0  0  0  0
    5.3057   -8.0433    0.0000 C   0  0  0  0  0  0  0  0  0  0  0  0
    4.5088   -7.8298    0.0000 Cl  0  0  0  0  0  0  0  0  0  0  0  0
    4.5791   -6.7925    0.0000 O   0  0  0  0  0  0  0  0  0  0  0  0
    6.6737   -5.5550    0.0000 O   0  0  0  0  0  0  0  0  0  0  0  0
    6.6737   -8.0300    0.0000 H   0  0  0  0  0  0  0  0  0  0  0  0
    7.3881   -8.4425    0.0000 O   0  0  0  0  0  0  0  0  0  0  0  0
    6.1026   -8.2568    0.0000 O   0  0  0  0  0  0  0  0  0  0  0  0
    8.1026   -8.8550    0.0000 C   0  0  0  0  0  0  0  0  0  0  0  0
    8.1026   -9.6800    0.0000 C   0  0  0  0  0  0  0  0  0  0  0  0
    8.8171  -10.0925    0.0000 C   0  0  0  0  0  0  0  0  0  0  0  0
    8.8171   -8.4425    0.0000 O   0  0  0  0  0  0  0  0  0  0  0  0
    8.8171  -10.9175    0.0000 C   0  0  0  0  0  0  0  0  0  0  0  0
    9.5316   -9.6800    0.0000 C   0  0  0  0  0  0  0  0  0  0  0  0
    8.8176   -3.4916    0.0000 C   0  0  0  0  0  0  0  0  0  0  0  0
    8.1031   -3.9041    0.0000 C   0  0  0  0  0  0  0  0  0  0  0  0
    8.1026   -4.7300    0.0000 O   0  0  0  0  0  0  0  0  0  0  0  0
    3.8665   -6.3768    0.0000 C   0  0  0  0  0  0  0  0  0  0  0  0
    3.8702   -5.5518    0.0000 O   0  0  0  0  0  0  0  0  0  0  0  0
    3.1502   -6.7861    0.0000 C   0  0  0  0  0  0  0  0  0  0  0  0
  1  2  1  0  0  0  0
  2  3  1  0  0  0  0
  3  4  1  0  0  0  0
  4  5  1  0  0  0  0
  5  6  2  0  0  0  0
  6  1  1  0  0  0  0
  1  7  1  0  0  0  0
  7  8  1  0  0  0  0
  8  9  1  0  0  0  0
  9  2  1  0  0  0  0
  6 10  1  0  0  0  0
 25 26  1  0  0  0  0
 10 26  1  0  0  0  0
  9 11  1  0  0  0  0
 11 12  1  0  0  0  0
  8 13  1  1  0  0  0
  1 14  1  1  0  0  0
  2 15  1  1  0  0  0
  3 16  1  1  0  0  0
  9 17  1  6  0  0  0
 16 18  1  0  0  0  0
 18 19  1  0  0  0  0
 19 20  1  0  0  0  0
 18 21  2  0  0  0  0
 20 22  1  0  0  0  0
 20 23  1  0  0  0  0
 25 24  1  0  0  0  0
 13 27  1  0  0  0  0
 27 28  2  0  0  0  0
 27 29  1  0  0  0  0
M  END
>  <cdx:fragmentId>
5

$$$$
