97636.cdx
  Mrv1902 05222410282D          

 37 38  0  0  0  0            999 V2000
    5.2987   -7.2600    0.0000 C   0  0  1  0  0  0  0  0  0  0  0  0
    5.2987   -8.0850    0.0000 C   0  0  2  0  0  0  0  0  0  0  0  0
    6.0131   -8.4975    0.0000 C   0  0  1  0  0  0  0  0  0  0  0  0
    6.7276   -8.0850    0.0000 O   0  0  0  0  0  0  0  0  0  0  0  0
    6.7276   -7.2600    0.0000 C   0  0  0  0  0  0  0  0  0  0  0  0
    6.0131   -6.8475    0.0000 C   0  0  0  0  0  0  0  0  0  0  0  0
    4.5141   -7.0051    0.0000 C   0  0  0  0  0  0  0  0  0  0  0  0
    4.0291   -7.6725    0.0000 C   0  0  1  0  0  0  0  0  0  0  0  0
    4.5141   -8.3399    0.0000 C   0  0  2  0  0  0  0  0  0  0  0  0
    6.0131   -6.0225    0.0000 C   0  0  0  0  0  0  0  0  0  0  0  0
    6.7276   -5.6100    0.0000 O   0  0  0  0  0  0  0  0  0  0  0  0
    3.9307   -8.9233    0.0000 C   0  0  0  0  0  0  0  0  0  0  0  0
    3.1338   -8.7098    0.0000 Cl  0  0  0  0  0  0  0  0  0  0  0  0
    3.2041   -7.6725    0.0000 O   0  0  0  0  0  0  0  0  0  0  0  0
    5.2987   -6.4350    0.0000 O   0  0  0  0  0  0  0  0  0  0  0  0
    5.2987   -8.9100    0.0000 H   0  0  0  0  0  0  0  0  0  0  0  0
    6.0131   -9.3225    0.0000 O   0  0  0  0  0  0  0  0  0  0  0  0
    4.7276   -9.1368    0.0000 O   0  0  0  0  0  0  0  0  0  0  0  0
    6.7276   -9.7350    0.0000 C   0  0  0  0  0  0  0  0  0  0  0  0
    6.7276  -10.5600    0.0000 C   0  0  0  0  0  0  0  0  0  0  0  0
    7.4421  -10.9725    0.0000 C   0  0  0  0  0  0  0  0  0  0  0  0
    7.4421   -9.3225    0.0000 O   0  0  0  0  0  0  0  0  0  0  0  0
    7.4421  -11.7975    0.0000 C   0  0  0  0  0  0  0  0  0  0  0  0
    8.1566  -10.5600    0.0000 C   0  0  0  0  0  0  0  0  0  0  0  0
    7.4431   -6.0225    0.0000 C   0  0  0  0  0  0  0  0  0  0  0  0
    8.1576   -5.6100    0.0000 C   0  0  1  0  0  0  0  0  0  0  0  0
    7.4431   -6.8475    0.0000 O   0  0  0  0  0  0  0  0  0  0  0  0
    8.8721   -6.0225    0.0000 C   0  0  0  0  0  0  0  0  0  0  0  0
    9.5866   -5.6100    0.0000 C   0  0  0  0  0  0  0  0  0  0  0  0
    8.8721   -6.8475    0.0000 C   0  0  0  0  0  0  0  0  0  0  0  0
    8.1576   -4.7850    0.0000 O   0  0  0  0  0  0  0  0  0  0  0  0
    8.8721   -4.3725    0.0000 C   0  0  0  0  0  0  0  0  0  0  0  0
    8.8721   -3.5475    0.0000 O   0  0  0  0  0  0  0  0  0  0  0  0
    9.5866   -4.7850    0.0000 C   0  0  0  0  0  0  0  0  0  0  0  0
   10.3010   -4.3725    0.0000 C   0  0  0  0  0  0  0  0  0  0  0  0
   11.0155   -4.7850    0.0000 C   0  0  0  0  0  0  0  0  0  0  0  0
   10.3010   -3.5475    0.0000 C   0  0  0  0  0  0  0  0  0  0  0  0
  1  2  1  0  0  0  0
  2  3  1  0  0  0  0
  3  4  1  0  0  0  0
  4  5  1  0  0  0  0
  5  6  2  0  0  0  0
  6  1  1  0  0  0  0
  1  7  1  0  0  0  0
  7  8  1  0  0  0  0
  8  9  1  0  0  0  0
  9  2  1  0  0  0  0
  6 10  1  0  0  0  0
 10 11  1  0  0  0  0
  9 12  1  0  0  0  0
 12 13  1  0  0  0  0
  8 14  1  1  0  0  0
  1 15  1  1  0  0  0
  2 16  1  1  0  0  0
  3 17  1  1  0  0  0
  9 18  1  6  0  0  0
 17 19  1  0  0  0  0
 19 20  1  0  0  0  0
 20 21  1  0  0  0  0
 19 22  2  0  0  0  0
 21 23  1  0  0  0  0
 21 24  1  0  0  0  0
 25 26  1  0  0  0  0
 25 27  2  0  0  0  0
 26 28  1  0  0  0  0
 28 29  1  0  0  0  0
 28 30  1  0  0  0  0
 26 31  1  6  0  0  0
 31 32  1  0  0  0  0
 32 33  2  0  0  0  0
 32 34  1  0  0  0  0
 34 35  1  0  0  0  0
 35 36  1  0  0  0  0
 35 37  1  0  0  0  0
 25 11  1  0  0  0  0
M  END
>  <cdx:fragmentId>
5

$$$$
