97642.cdx
  Mrv1902 05222410252D          

 25 26  0  0  0  0            999 V2000
    8.0006   -6.2425    0.0000 C   0  0  1  0  0  0  0  0  0  0  0  0
    8.0006   -7.0675    0.0000 C   0  0  2  0  0  0  0  0  0  0  0  0
    8.7150   -7.4800    0.0000 C   0  0  1  0  0  0  0  0  0  0  0  0
    9.4295   -7.0675    0.0000 O   0  0  0  0  0  0  0  0  0  0  0  0
    9.4295   -6.2425    0.0000 C   0  0  2  0  0  0  0  0  0  0  0  0
    8.7150   -5.8300    0.0000 C   0  0  0  0  0  0  0  0  0  0  0  0
    7.2159   -5.9876    0.0000 C   0  0  0  0  0  0  0  0  0  0  0  0
    6.7310   -6.6550    0.0000 C   0  0  1  0  0  0  0  0  0  0  0  0
    7.2159   -7.3224    0.0000 C   0  0  1  0  0  0  0  0  0  0  0  0
    5.9060   -6.6550    0.0000 O   0  0  0  0  0  0  0  0  0  0  0  0
    8.0006   -5.4175    0.0000 O   0  0  0  0  0  0  0  0  0  0  0  0
    8.0006   -7.8925    0.0000 H   0  0  0  0  0  0  0  0  0  0  0  0
    8.7150   -8.3050    0.0000 O   0  0  0  0  0  0  0  0  0  0  0  0
   10.1440   -5.8300    0.0000 O   0  0  0  0  0  0  0  0  0  0  0  0
    7.4295   -8.1193    0.0000 O   0  0  0  0  0  0  0  0  0  0  0  0
    6.6550   -7.8100    0.0000 C   0  0  0  0  0  0  0  0  0  0  0  0
    5.8581   -7.5965    0.0000 Cl  0  0  0  0  0  0  0  0  0  0  0  0
    5.1915   -6.2425    0.0000 C   0  0  0  0  0  0  0  0  0  0  0  0
    4.4771   -6.6550    0.0000 C   0  0  0  0  0  0  0  0  0  0  0  0
    5.1915   -5.4175    0.0000 O   0  0  0  0  0  0  0  0  0  0  0  0
    8.7150   -5.0050    0.0000 C   0  0  0  0  0  0  0  0  0  0  0  0
    9.1149   -9.0052    0.0000 C   0  0  0  0  0  0  0  0  0  0  0  0
    8.6997   -9.7181    0.0000 C   0  0  0  0  0  0  0  0  0  0  0  0
   10.8584   -6.2425    0.0000 C   0  0  0  0  0  0  0  0  0  0  0  0
   11.5729   -5.8300    0.0000 C   0  0  0  0  0  0  0  0  0  0  0  0
  1  2  1  0  0  0  0
  2  3  1  0  0  0  0
  3  4  1  0  0  0  0
  4  5  1  0  0  0  0
  5  6  1  0  0  0  0
  6  1  1  0  0  0  0
  1  7  1  0  0  0  0
  7  8  1  0  0  0  0
  8  9  1  0  0  0  0
  9  2  1  0  0  0  0
  8 10  1  1  0  0  0
  1 11  1  1  0  0  0
  2 12  1  1  0  0  0
  3 13  1  1  0  0  0
  5 14  1  6  0  0  0
  9 15  1  6  0  0  0
  9 16  1  0  0  0  0
 16 17  1  0  0  0  0
 10 18  1  0  0  0  0
 18 19  1  0  0  0  0
 18 20  2  0  0  0  0
  6 21  2  0  0  0  0
 22 23  1  0  0  0  0
 22 13  1  0  0  0  0
 14 24  1  0  0  0  0
 24 25  1  0  0  0  0
M  END
>  <cdx:fragmentId>
5

$$$$
