97640.cdx
  Mrv1902 05222410252D          

 28 29  0  0  0  0            999 V2000
    6.4812   -7.1088    0.0000 C   0  0  1  0  0  0  0  0  0  0  0  0
    6.4812   -7.9337    0.0000 C   0  0  2  0  0  0  0  0  0  0  0  0
    7.1956   -8.3462    0.0000 C   0  0  1  0  0  0  0  0  0  0  0  0
    7.9101   -7.9337    0.0000 O   0  0  0  0  0  0  0  0  0  0  0  0
    7.9101   -7.1088    0.0000 C   0  0  0  0  0  0  0  0  0  0  0  0
    7.1956   -6.6962    0.0000 C   0  0  0  0  0  0  0  0  0  0  0  0
    5.6966   -6.8538    0.0000 C   0  0  0  0  0  0  0  0  0  0  0  0
    5.2116   -7.5213    0.0000 C   0  0  1  0  0  0  0  0  0  0  0  0
    5.6966   -8.1887    0.0000 C   0  0  2  0  0  0  0  0  0  0  0  0
    7.1956   -5.8712    0.0000 C   0  0  0  0  0  0  0  0  0  0  0  0
    7.9101   -5.4588    0.0000 O   0  0  0  0  0  0  0  0  0  0  0  0
    5.1132   -8.7721    0.0000 C   0  0  0  0  0  0  0  0  0  0  0  0
    4.3163   -8.5585    0.0000 Cl  0  0  0  0  0  0  0  0  0  0  0  0
    4.3866   -7.5213    0.0000 O   0  0  0  0  0  0  0  0  0  0  0  0
    6.4812   -6.2837    0.0000 O   0  0  0  0  0  0  0  0  0  0  0  0
    6.4812   -8.7588    0.0000 H   0  0  0  0  0  0  0  0  0  0  0  0
    7.1956   -9.1713    0.0000 O   0  0  0  0  0  0  0  0  0  0  0  0
    5.9101   -8.9856    0.0000 O   0  0  0  0  0  0  0  0  0  0  0  0
    7.9101   -9.5838    0.0000 C   0  0  0  0  0  0  0  0  0  0  0  0
    7.9101  -10.4087    0.0000 C   0  0  0  0  0  0  0  0  0  0  0  0
    8.6246  -10.8212    0.0000 C   0  0  0  0  0  0  0  0  0  0  0  0
    8.6246   -9.1713    0.0000 O   0  0  0  0  0  0  0  0  0  0  0  0
    8.6246  -11.6463    0.0000 C   0  0  0  0  0  0  0  0  0  0  0  0
    9.3391  -10.4087    0.0000 C   0  0  0  0  0  0  0  0  0  0  0  0
    3.6704   -7.1118    0.0000 C   0  0  0  0  0  0  0  0  0  0  0  0
    3.6669   -6.2868    0.0000 O   0  0  0  0  0  0  0  0  0  0  0  0
    2.9577   -7.5273    0.0000 C   0  0  0  0  0  0  0  0  0  0  0  0
    7.9101   -4.6338    0.0000 C   0  0  0  0  0  0  0  0  0  0  0  0
  1  2  1  0  0  0  0
  2  3  1  0  0  0  0
  3  4  1  0  0  0  0
  4  5  1  0  0  0  0
  5  6  2  0  0  0  0
  6  1  1  0  0  0  0
  1  7  1  0  0  0  0
  7  8  1  0  0  0  0
  8  9  1  0  0  0  0
  9  2  1  0  0  0  0
  6 10  1  0  0  0  0
 10 11  1  0  0  0  0
  9 12  1  0  0  0  0
 12 13  1  0  0  0  0
  8 14  1  1  0  0  0
  1 15  1  1  0  0  0
  2 16  1  1  0  0  0
  3 17  1  1  0  0  0
  9 18  1  6  0  0  0
 17 19  1  0  0  0  0
 19 20  1  0  0  0  0
 20 21  1  0  0  0  0
 19 22  2  0  0  0  0
 21 23  1  0  0  0  0
 21 24  1  0  0  0  0
 14 25  1  0  0  0  0
 25 26  2  0  0  0  0
 25 27  1  0  0  0  0
 11 28  1  0  0  0  0
M  END
>  <cdx:fragmentId>
5

$$$$
