97641.cdx
  Mrv1902 05222410252D          

 12 12  0  0  0  0            999 V2000
    4.4377   -3.5758    0.0000 C   0  0  0  0  0  0  0  0  0  0  0  0
    4.4377   -2.7508    0.0000 C   0  0  0  0  0  0  0  0  0  0  0  0
    5.1521   -2.3383    0.0000 C   0  0  0  0  0  0  0  0  0  0  0  0
    5.8666   -2.7508    0.0000 C   0  0  0  0  0  0  0  0  0  0  0  0
    5.8666   -3.5758    0.0000 C   0  0  0  0  0  0  0  0  0  0  0  0
    5.1521   -3.9883    0.0000 C   0  0  0  0  0  0  0  0  0  0  0  0
    3.7232   -3.9883    0.0000 O   0  0  0  0  0  0  0  0  0  0  0  0
    6.5811   -2.3383    0.0000 O   0  0  0  0  0  0  0  0  0  0  0  0
    6.5811   -3.9883    0.0000 O   0  0  0  0  0  0  0  0  0  0  0  0
    7.2955   -3.5758    0.0000 C   0  0  0  0  0  0  0  0  0  0  0  0
    3.7232   -2.3383    0.0000 O   0  0  0  0  0  0  0  0  0  0  0  0
    3.0087   -2.7508    0.0000 C   0  0  0  0  0  0  0  0  0  0  0  0
  1  2  1  0  0  0  0
  2  3  2  0  0  0  0
  3  4  1  0  0  0  0
  4  5  2  0  0  0  0
  5  6  1  0  0  0  0
  1  6  2  0  0  0  0
  1  7  1  0  0  0  0
  4  8  1  0  0  0  0
  9 10  1  0  0  0  0
  5  9  1  0  0  0  0
 11 12  1  0  0  0  0
  2 11  1  0  0  0  0
M  END
>  <cdx:groupId>
38

>  <cdx:fragmentId>
5

$$$$
