97660.cdx
  Mrv1902 05222410232D          

 34 38  0  0  0  0            999 V2000
    9.4674   -9.3384    0.0000 C   0  0  0  0  0  0  0  0  0  0  0  0
   10.2744   -9.5099    0.0000 C   0  0  0  0  0  0  0  0  0  0  0  0
    8.9154   -9.9515    0.0000 O   0  0  0  0  0  0  0  0  0  0  0  0
    9.2125   -8.5538    0.0000 O   0  0  0  0  0  0  0  0  0  0  0  0
    8.4055   -8.3823    0.0000 C   0  0  0  0  0  0  0  0  0  0  0  0
    8.1506   -6.2628    0.0000 O   0  0  0  0  0  0  0  0  0  0  0  0
    8.6355   -6.9302    0.0000 C   0  0  2  0  0  0  0  0  0  0  0  0
    8.1506   -7.5976    0.0000 C   0  0  1  0  0  0  0  0  0  0  0  0
    7.3660   -7.3427    0.0000 C   0  0  0  0  0  0  0  0  0  0  0  0
    6.6515   -7.7552    0.0000 C   0  0  0  0  0  0  0  0  0  0  0  0
    5.9370   -7.3427    0.0000 C   0  0  0  0  0  0  0  0  0  0  0  0
    5.9370   -6.5177    0.0000 C   0  0  0  0  0  0  0  0  0  0  0  0
    6.6515   -6.1052    0.0000 C   0  0  0  0  0  0  0  0  0  0  0  0
    7.3660   -6.5177    0.0000 C   0  0  0  0  0  0  0  0  0  0  0  0
    5.2226   -6.1052    0.0000 C   0  0  0  0  0  0  0  0  0  0  0  0
    4.5081   -6.5177    0.0000 C   0  0  0  0  0  0  0  0  0  0  0  0
    4.5081   -7.3427    0.0000 C   0  0  0  0  0  0  0  0  0  0  0  0
    3.7936   -7.7552    0.0000 C   0  0  0  0  0  0  0  0  0  0  0  0
    3.7936   -8.5802    0.0000 C   0  0  0  0  0  0  0  0  0  0  0  0
    4.5081   -8.9927    0.0000 C   0  0  0  0  0  0  0  0  0  0  0  0
    5.2226   -8.5802    0.0000 C   0  0  0  0  0  0  0  0  0  0  0  0
    5.2226   -7.7552    0.0000 C   0  0  0  0  0  0  0  0  0  0  0  0
    5.9370   -8.9927    0.0000 O   0  0  0  0  0  0  0  0  0  0  0  0
    6.6515   -8.5802    0.0000 C   0  0  0  0  0  0  0  0  0  0  0  0
    9.4605   -6.9302    0.0000 C   0  0  0  0  0  0  0  0  0  0  0  0
    9.8730   -6.2157    0.0000 C   0  0  0  0  0  0  0  0  0  0  0  0
   10.6980   -6.2157    0.0000 C   0  0  0  0  0  0  0  0  0  0  0  0
   11.1105   -6.9302    0.0000 C   0  0  0  0  0  0  0  0  0  0  0  0
   10.6980   -7.6447    0.0000 C   0  0  0  0  0  0  0  0  0  0  0  0
    9.8730   -7.6447    0.0000 C   0  0  0  0  0  0  0  0  0  0  0  0
   11.1105   -5.5013    0.0000 O   0  0  0  0  0  0  0  0  0  0  0  0
   11.9355   -5.5013    0.0000 C   0  0  0  0  0  0  0  0  0  0  0  0
   11.9355   -6.9302    0.0000 O   0  0  0  0  0  0  0  0  0  0  0  0
    3.0791   -8.9927    0.0000 O   0  0  0  0  0  0  0  0  0  0  0  0
  1  2  1  0  0  0  0
  1  3  2  0  0  0  0
  1  4  1  0  0  0  0
  6  7  1  0  0  0  0
  7  8  1  0  0  0  0
  8  9  1  0  0  0  0
  9 10  1  0  0  0  0
 10 11  2  0  0  0  0
 11 12  1  0  0  0  0
 12 13  2  0  0  0  0
 13 14  1  0  0  0  0
  9 14  2  0  0  0  0
  6 14  1  0  0  0  0
 15 16  1  0  0  0  0
 16 17  1  0  0  0  0
 17 18  1  0  0  0  0
 18 19  2  0  0  0  0
 19 20  1  0  0  0  0
 20 21  2  0  0  0  0
 21 22  1  0  0  0  0
 17 22  2  0  0  0  0
 22 11  1  0  0  0  0
 15 12  1  0  0  0  0
 23 24  1  0  0  0  0
 21 23  1  0  0  0  0
 25 26  1  0  0  0  0
 26 27  2  0  0  0  0
 27 28  1  0  0  0  0
 28 29  2  0  0  0  0
 29 30  1  0  0  0  0
 25 30  2  0  0  0  0
 31 32  1  0  0  0  0
 27 31  1  0  0  0  0
 28 33  1  0  0  0  0
  7 25  1  1  0  0  0
 19 34  1  0  0  0  0
  8  5  1  6  0  0  0
  4  5  1  0  0  0  0
M  END
>  <cdx:fragmentId>
18289

$$$$
