97662.cdx
  Mrv1902 05222410222D          

 26 29  0  0  0  0            999 V2000
    7.7884   -5.5747    0.0000 C   0  0  0  0  0  0  0  0  0  0  0  0
    7.0739   -5.9872    0.0000 C   0  0  0  0  0  0  0  0  0  0  0  0
    6.3594   -5.5747    0.0000 C   0  0  0  0  0  0  0  0  0  0  0  0
    5.6449   -5.9872    0.0000 C   0  0  0  0  0  0  0  0  0  0  0  0
    5.6449   -6.8122    0.0000 C   0  0  0  0  0  0  0  0  0  0  0  0
    6.3594   -7.2247    0.0000 C   0  0  0  0  0  0  0  0  0  0  0  0
    7.0739   -6.8122    0.0000 C   0  0  0  0  0  0  0  0  0  0  0  0
    7.7884   -7.2247    0.0000 C   0  0  0  0  0  0  0  0  0  0  0  0
    8.5028   -6.8122    0.0000 C   0  0  0  0  0  0  0  0  0  0  0  0
    9.2168   -7.2256    0.0000 N   0  0  0  0  0  0  0  0  0  0  0  0
    9.9311   -6.8129    0.0000 C   0  0  0  0  0  0  0  0  0  0  0  0
    9.9314   -5.9879    0.0000 C   0  0  0  0  0  0  0  0  0  0  0  0
    9.2173   -5.5747    0.0000 C   0  0  0  0  0  0  0  0  0  0  0  0
    9.2173   -4.7497    0.0000 C   0  0  0  0  0  0  0  0  0  0  0  0
    8.5028   -4.3372    0.0000 C   0  0  0  0  0  0  0  0  0  0  0  0
    7.7884   -4.7497    0.0000 C   0  0  0  0  0  0  0  0  0  0  0  0
    8.5028   -5.9872    0.0000 C   0  0  0  0  0  0  0  0  0  0  0  0
    7.7884   -8.0497    0.0000 O   0  0  0  0  0  0  0  0  0  0  0  0
    7.0739   -4.3372    0.0000 O   0  0  0  0  0  0  0  0  0  0  0  0
    7.0739   -3.5122    0.0000 C   0  0  0  0  0  0  0  0  0  0  0  0
    8.5028   -3.5122    0.0000 O   0  0  0  0  0  0  0  0  0  0  0  0
    9.2173   -3.0997    0.0000 C   0  0  0  0  0  0  0  0  0  0  0  0
    4.9305   -7.2247    0.0000 O   0  0  0  0  0  0  0  0  0  0  0  0
    4.9305   -8.0497    0.0000 C   0  0  0  0  0  0  0  0  0  0  0  0
    4.9305   -5.5747    0.0000 O   0  0  0  0  0  0  0  0  0  0  0  0
    4.2160   -5.9872    0.0000 C   0  0  0  0  0  0  0  0  0  0  0  0
  1  2  1  0  0  0  0
  2  3  2  0  0  0  0
  3  4  1  0  0  0  0
  4  5  2  0  0  0  0
  5  6  1  0  0  0  0
  6  7  2  0  0  0  0
  7  8  1  0  0  0  0
  8  9  1  0  0  0  0
  9 10  2  0  0  0  0
 10 11  1  0  0  0  0
 11 12  2  0  0  0  0
 12 13  1  0  0  0  0
 13 14  2  0  0  0  0
 14 15  1  0  0  0  0
 15 16  2  0  0  0  0
  1 16  1  0  0  0  0
  1 17  2  0  0  0  0
 17  9  1  0  0  0  0
  2  7  1  0  0  0  0
 13 17  1  0  0  0  0
  8 18  2  0  0  0  0
 19 20  1  0  0  0  0
 16 19  1  0  0  0  0
 21 22  1  0  0  0  0
 15 21  1  0  0  0  0
 23 24  1  0  0  0  0
  5 23  1  0  0  0  0
 25 26  1  0  0  0  0
  4 25  1  0  0  0  0
M  END
>  <cdx:fragmentId>
5

$$$$
