97672.cdx
  Mrv1902 05222410212D          

 35 37  0  0  0  0            999 V2000
    9.8298  -12.8546    0.0000 C   0  0  0  0  0  0  0  0  0  0  0  0
    9.8298  -13.6796    0.0000 C   0  0  0  0  0  0  0  0  0  0  0  0
   10.5443  -14.0921    0.0000 C   0  0  0  0  0  0  0  0  0  0  0  0
   10.5443  -14.9171    0.0000 C   0  0  0  0  0  0  0  0  0  0  0  0
   10.5443  -12.4421    0.0000 O   0  0  0  0  0  0  0  0  0  0  0  0
    7.6163  -11.4595    0.0000 C   0  0  2  0  0  0  0  0  0  0  0  0
    7.7878  -12.2665    0.0000 O   0  0  0  0  0  0  0  0  0  0  0  0
    7.0032  -12.0115    0.0000 C   0  0  0  0  0  0  0  0  0  0  0  0
    8.4009  -12.0296    0.0000 H   0  0  0  0  0  0  0  0  0  0  0  0
   10.5443   -7.4921    0.0000 C   0  0  0  0  0  0  0  0  0  0  0  0
    9.1154   -7.4921    0.0000 O   0  0  0  0  0  0  0  0  0  0  0  0
    9.8298   -7.9046    0.0000 C   0  0  0  0  0  0  0  0  0  0  0  0
    9.8298   -8.7296    0.0000 O   0  0  0  0  0  0  0  0  0  0  0  0
    9.1154   -9.1421    0.0000 C   0  0  0  0  0  0  0  0  0  0  0  0
   11.2588  -13.6796    0.0000 C   0  0  0  0  0  0  0  0  0  0  0  0
    9.1154  -12.4421    0.0000 O   0  0  0  0  0  0  0  0  0  0  0  0
    7.1313  -10.7921    0.0000 C   0  0  2  0  0  0  0  0  0  0  0  0
    7.6163  -10.1246    0.0000 C   0  0  0  0  0  0  0  0  0  0  0  0
    9.8298  -11.2046    0.0000 O   0  0  0  0  0  0  0  0  0  0  0  0
    9.8298  -10.3796    0.0000 C   0  0  0  0  0  0  0  0  0  0  0  0
    9.1154   -9.9671    0.0000 C   0  0  0  0  0  0  0  0  0  0  0  0
    8.4009  -10.3796    0.0000 C   0  0  0  0  0  0  0  0  0  0  0  0
    8.4009  -11.2046    0.0000 C   0  0  2  0  0  0  0  0  0  0  0  0
    9.1154  -11.6171    0.0000 C   0  0  2  0  0  0  0  0  0  0  0  0
    6.3063  -10.7921    0.0000 O   0  0  0  0  0  0  0  0  0  0  0  0
    5.6337   -9.5314    0.0000 O   0  0  0  0  0  0  0  0  0  0  0  0
    4.8782  -10.7443    0.0000 C   0  0  0  0  0  0  0  0  0  0  0  0
    5.6061  -10.3559    0.0000 C   0  0  0  0  0  0  0  0  0  0  0  0
   10.5443   -6.6671    0.0000 C   0  0  0  0  0  0  0  0  0  0  0  0
   11.3693   -6.6671    0.0000 C   0  0  0  0  0  0  0  0  0  0  0  0
    9.7193   -6.6671    0.0000 C   0  0  0  0  0  0  0  0  0  0  0  0
   10.5443   -5.8421    0.0000 O   0  0  0  0  0  0  0  0  0  0  0  0
    9.8298   -5.4296    0.0000 C   0  0  0  0  0  0  0  0  0  0  0  0
    9.8298   -4.6046    0.0000 O   0  0  0  0  0  0  0  0  0  0  0  0
    9.1154   -5.8421    0.0000 C   0  0  0  0  0  0  0  0  0  0  0  0
 23  9  1  1  0  0  0
 17 25  1  1  0  0  0
 21 14  1  0  0  0  0
 14 13  1  0  0  0  0
 13 12  1  0  0  0  0
 12 10  1  0  0  0  0
 12 11  2  0  0  0  0
 24 16  1  1  0  0  0
 16  1  1  0  0  0  0
 22 18  2  0  0  0  0
 23  6  1  0  0  0  0
 17  6  1  0  0  0  0
 18 17  1  0  0  0  0
 24 19  1  0  0  0  0
 20 19  1  0  0  0  0
 21 20  2  0  0  0  0
 22 21  1  0  0  0  0
 23 22  1  0  0  0  0
 24 23  1  0  0  0  0
 28 25  1  0  0  0  0
 28 26  2  0  0  0  0
 28 27  1  0  0  0  0
  1  2  1  0  0  0  0
  2  3  1  0  0  0  0
  3  4  1  0  0  0  0
  1  5  2  0  0  0  0
  3 15  1  0  0  0  0
  7  8  1  0  0  0  0
  6  7  1  6  0  0  0
  6  8  1  0  0  0  0
 10 29  1  0  0  0  0
 29 30  1  0  0  0  0
 29 31  1  0  0  0  0
 29 32  1  0  0  0  0
 32 33  1  0  0  0  0
 33 34  2  0  0  0  0
 33 35  1  0  0  0  0
M  END
>  <cdx:fragmentId>
11516

$$$$
