97677.cdx
  Mrv1902 05222410222D          

 32 33  0  0  0  0            999 V2000
    6.9762   -8.3737    0.0000 C   0  0  1  0  0  0  0  0  0  0  0  0
    6.9762   -9.1987    0.0000 C   0  0  2  0  0  0  0  0  0  0  0  0
    7.6906   -9.6112    0.0000 C   0  0  1  0  0  0  0  0  0  0  0  0
    8.4051   -9.1987    0.0000 O   0  0  0  0  0  0  0  0  0  0  0  0
    8.4051   -8.3737    0.0000 C   0  0  0  0  0  0  0  0  0  0  0  0
    7.6906   -7.9612    0.0000 C   0  0  0  0  0  0  0  0  0  0  0  0
    6.1916   -8.1188    0.0000 C   0  0  0  0  0  0  0  0  0  0  0  0
    5.7066   -8.7862    0.0000 C   0  0  1  0  0  0  0  0  0  0  0  0
    6.1916   -9.4537    0.0000 C   0  0  0  0  0  0  0  0  0  0  0  0
    4.8816   -8.7862    0.0000 O   0  0  0  0  0  0  0  0  0  0  0  0
    7.6906   -7.1362    0.0000 C   0  0  0  0  0  0  0  0  0  0  0  0
    8.4051   -6.7237    0.0000 O   0  0  0  0  0  0  0  0  0  0  0  0
    7.6906  -10.4363    0.0000 O   0  0  0  0  0  0  0  0  0  0  0  0
    8.3811  -10.8711    0.0000 C   0  0  0  0  0  0  0  0  0  0  0  0
    8.3652  -11.6960    0.0000 C   0  0  0  0  0  0  0  0  0  0  0  0
    9.0716  -12.1222    0.0000 C   0  0  0  0  0  0  0  0  0  0  0  0
    9.0557  -12.9470    0.0000 C   0  0  0  0  0  0  0  0  0  0  0  0
    9.1034  -10.4725    0.0000 O   0  0  0  0  0  0  0  0  0  0  0  0
    9.7939  -11.7235    0.0000 C   0  0  0  0  0  0  0  0  0  0  0  0
    8.4114   -5.9080    0.0000 C   0  0  0  0  0  0  0  0  0  0  0  0
    9.1219   -5.4887    0.0000 C   0  0  0  0  0  0  0  0  0  0  0  0
    9.1140   -4.6638    0.0000 C   0  0  0  0  0  0  0  0  0  0  0  0
    9.8245   -4.2445    0.0000 C   0  0  0  0  0  0  0  0  0  0  0  0
    7.6930   -5.5024    0.0000 O   0  0  0  0  0  0  0  0  0  0  0  0
    8.3956   -4.2581    0.0000 C   0  0  0  0  0  0  0  0  0  0  0  0
    4.1591   -8.3880    0.0000 C   0  0  0  0  0  0  0  0  0  0  0  0
    4.1427   -7.5632    0.0000 O   0  0  0  0  0  0  0  0  0  0  0  0
    3.4530   -8.8146    0.0000 C   0  0  0  0  0  0  0  0  0  0  0  0
    5.9366  -10.2383    0.0000 C   0  0  0  0  0  0  0  0  0  0  0  0
    6.9762   -7.5488    0.0000 H   0  0  0  0  0  0  0  0  0  0  0  0
    6.9762  -10.0238    0.0000 H   0  0  0  0  0  0  0  0  0  0  0  0
    9.7621  -13.3732    0.0000 C   0  0  0  0  0  0  0  0  0  0  0  0
  1  2  1  0  0  0  0
  2  3  1  0  0  0  0
  3  4  1  0  0  0  0
  4  5  1  0  0  0  0
  5  6  2  0  0  0  0
  6  1  1  0  0  0  0
  1  7  1  0  0  0  0
  7  8  1  0  0  0  0
  8  9  1  0  0  0  0
  9  2  1  0  0  0  0
  8 10  1  1  0  0  0
  6 11  1  0  0  0  0
 11 12  1  0  0  0  0
  3 13  1  1  0  0  0
 14 15  1  0  0  0  0
 15 16  1  0  0  0  0
 16 17  1  0  0  0  0
 14 18  2  0  0  0  0
 16 19  1  0  0  0  0
 20 21  1  0  0  0  0
 21 22  1  0  0  0  0
 22 23  1  0  0  0  0
 20 24  2  0  0  0  0
 22 25  1  0  0  0  0
 20 12  1  0  0  0  0
 14 13  1  0  0  0  0
 10 26  1  0  0  0  0
 26 27  2  0  0  0  0
 26 28  1  0  0  0  0
  9 29  2  0  0  0  0
  1 30  1  1  0  0  0
  2 31  1  1  0  0  0
 17 32  1  0  0  0  0
M  END
>  <cdx:fragmentId>
5

$$$$
