97673.cdx
  Mrv1902 05222410212D          

 32 34  0  0  0  0            999 V2000
    8.6769   -5.4296    0.0000 C   0  0  0  0  0  0  0  0  0  0  0  0
   10.1059   -5.4296    0.0000 C   0  0  0  0  0  0  0  0  0  0  0  0
    9.3914   -5.8421    0.0000 C   0  0  0  0  0  0  0  0  0  0  0  0
    8.6769  -12.0296    0.0000 C   0  0  0  0  0  0  0  0  0  0  0  0
    8.6769  -12.8546    0.0000 C   0  0  0  0  0  0  0  0  0  0  0  0
    9.3914  -13.2671    0.0000 C   0  0  0  0  0  0  0  0  0  0  0  0
    9.3914  -14.0921    0.0000 C   0  0  0  0  0  0  0  0  0  0  0  0
    9.3914  -11.6171    0.0000 O   0  0  0  0  0  0  0  0  0  0  0  0
    6.4634  -10.6345    0.0000 C   0  0  2  0  0  0  0  0  0  0  0  0
    6.6349  -11.4415    0.0000 O   0  0  0  0  0  0  0  0  0  0  0  0
    5.8503  -11.1865    0.0000 C   0  0  0  0  0  0  0  0  0  0  0  0
    7.2480  -11.2046    0.0000 H   0  0  0  0  0  0  0  0  0  0  0  0
    9.3914   -6.6671    0.0000 C   0  0  0  0  0  0  0  0  0  0  0  0
    7.9625   -6.6671    0.0000 O   0  0  0  0  0  0  0  0  0  0  0  0
    8.6769   -7.0796    0.0000 C   0  0  0  0  0  0  0  0  0  0  0  0
    8.6769   -7.9046    0.0000 O   0  0  0  0  0  0  0  0  0  0  0  0
    7.9625   -8.3171    0.0000 C   0  0  0  0  0  0  0  0  0  0  0  0
   10.1059  -12.8546    0.0000 C   0  0  0  0  0  0  0  0  0  0  0  0
    7.9625  -11.6171    0.0000 O   0  0  0  0  0  0  0  0  0  0  0  0
    5.9784   -9.9671    0.0000 C   0  0  2  0  0  0  0  0  0  0  0  0
    6.4634   -9.2996    0.0000 C   0  0  0  0  0  0  0  0  0  0  0  0
    8.6769  -10.3796    0.0000 O   0  0  0  0  0  0  0  0  0  0  0  0
    8.6769   -9.5546    0.0000 C   0  0  0  0  0  0  0  0  0  0  0  0
    7.9625   -9.1421    0.0000 C   0  0  0  0  0  0  0  0  0  0  0  0
    7.2480   -9.5546    0.0000 C   0  0  2  0  0  0  0  0  0  0  0  0
    7.2480  -10.3796    0.0000 C   0  0  2  0  0  0  0  0  0  0  0  0
    7.9625  -10.7921    0.0000 C   0  0  2  0  0  0  0  0  0  0  0  0
    5.1534   -9.9671    0.0000 O   0  0  0  0  0  0  0  0  0  0  0  0
    4.4312   -9.5683    0.0000 C   0  0  0  0  0  0  0  0  0  0  0  0
    4.4154   -8.7435    0.0000 O   0  0  0  0  0  0  0  0  0  0  0  0
    3.7248   -9.9944    0.0000 C   0  0  0  0  0  0  0  0  0  0  0  0
    7.2480   -8.7296    0.0000 H   0  0  0  0  0  0  0  0  0  0  0  0
  3  1  1  0  0  0  0
  3  2  1  0  0  0  0
 13  3  1  0  0  0  0
 26 12  1  1  0  0  0
 20 28  1  1  0  0  0
 24 17  1  0  0  0  0
 17 16  1  0  0  0  0
 16 15  1  0  0  0  0
 15 13  1  0  0  0  0
 15 14  2  0  0  0  0
 27 19  1  1  0  0  0
 19  4  1  0  0  0  0
 25 21  1  0  0  0  0
 26  9  1  0  0  0  0
 20  9  1  0  0  0  0
 21 20  1  0  0  0  0
 27 22  1  0  0  0  0
 23 22  1  0  0  0  0
 24 23  2  0  0  0  0
 25 24  1  0  0  0  0
 26 25  1  0  0  0  0
 27 26  1  0  0  0  0
  4  5  1  0  0  0  0
  5  6  1  0  0  0  0
  6  7  1  0  0  0  0
  4  8  2  0  0  0  0
  6 18  1  0  0  0  0
 10 11  1  0  0  0  0
  9 10  1  6  0  0  0
  9 11  1  0  0  0  0
 28 29  1  0  0  0  0
 29 30  2  0  0  0  0
 29 31  1  0  0  0  0
 25 32  1  1  0  0  0
M  END
>  <cdx:fragmentId>
11516

$$$$
