97675.cdx
  Mrv1902 05222410232D          

 30 31  0  0  0  0            999 V2000
    6.9762   -8.3737    0.0000 C   0  0  0  0  0  0  0  0  0  0  0  0
    6.9762   -9.1987    0.0000 C   0  0  0  0  0  0  0  0  0  0  0  0
    8.4051   -8.3737    0.0000 C   0  0  0  0  0  0  0  0  0  0  0  0
    7.6906   -7.9612    0.0000 C   0  0  0  0  0  0  0  0  0  0  0  0
    6.1916   -8.1188    0.0000 C   0  0  0  0  0  0  0  0  0  0  0  0
    5.7066   -8.7862    0.0000 C   0  0  0  0  0  0  0  0  0  0  0  0
    6.1916   -9.4537    0.0000 C   0  0  0  0  0  0  0  0  0  0  0  0
    7.6906   -7.1362    0.0000 C   0  0  0  0  0  0  0  0  0  0  0  0
    8.4051   -6.7237    0.0000 O   0  0  0  0  0  0  0  0  0  0  0  0
    8.4051   -5.8988    0.0000 C   0  0  0  0  0  0  0  0  0  0  0  0
    9.1196   -5.4862    0.0000 C   0  0  0  0  0  0  0  0  0  0  0  0
    7.6906   -5.4863    0.0000 O   0  0  0  0  0  0  0  0  0  0  0  0
    9.1196   -4.6612    0.0000 C   0  0  0  0  0  0  0  0  0  0  0  0
    9.8341   -4.2487    0.0000 C   0  0  0  0  0  0  0  0  0  0  0  0
    8.4051   -4.2488    0.0000 C   0  0  0  0  0  0  0  0  0  0  0  0
    9.1196   -7.9612    0.0000 O   0  0  0  0  0  0  0  0  0  0  0  0
    5.4069   -9.7086    0.0000 O   0  0  0  0  0  0  0  0  0  0  0  0
    4.6874   -9.3050    0.0000 C   0  0  0  0  0  0  0  0  0  0  0  0
    3.9781   -9.7262    0.0000 C   0  0  0  0  0  0  0  0  0  0  0  0
    4.6773   -8.4800    0.0000 O   0  0  0  0  0  0  0  0  0  0  0  0
    6.1916  -10.2787    0.0000 C   0  0  0  0  0  0  0  0  0  0  0  0
    6.9762  -10.5336    0.0000 O   0  0  0  0  0  0  0  0  0  0  0  0
    7.4611   -9.8662    0.0000 C   0  0  0  0  0  0  0  0  0  0  0  0
    8.2861   -9.8662    0.0000 O   0  0  0  0  0  0  0  0  0  0  0  0
    8.6903  -10.5854    0.0000 C   0  0  0  0  0  0  0  0  0  0  0  0
    8.2696  -11.2950    0.0000 O   0  0  0  0  0  0  0  0  0  0  0  0
    9.5153  -10.5949    0.0000 C   0  0  0  0  0  0  0  0  0  0  0  0
    9.9195  -11.3141    0.0000 C   0  0  0  0  0  0  0  0  0  0  0  0
    9.4987  -12.0238    0.0000 C   0  0  0  0  0  0  0  0  0  0  0  0
   10.7444  -11.3237    0.0000 C   0  0  0  0  0  0  0  0  0  0  0  0
  1  2  1  0  0  0  0
  3  4  1  0  0  0  0
  4  1  2  0  0  0  0
  1  5  1  0  0  0  0
  5  6  2  0  0  0  0
  6  7  1  0  0  0  0
  7  2  1  0  0  0  0
  4  8  1  0  0  0  0
  8  9  1  0  0  0  0
  9 10  1  0  0  0  0
 10 11  1  0  0  0  0
 10 12  2  0  0  0  0
 11 13  1  0  0  0  0
 13 14  1  0  0  0  0
 13 15  1  0  0  0  0
  3 16  2  0  0  0  0
  7 17  1  0  0  0  0
 17 18  1  0  0  0  0
 18 19  1  0  0  0  0
 18 20  2  0  0  0  0
  7 21  1  0  0  0  0
 21 22  1  0  0  0  0
 22 23  1  0  0  0  0
 23  2  1  0  0  0  0
 23 24  1  0  0  0  0
 24 25  1  0  0  0  0
 25 26  2  0  0  0  0
 25 27  1  0  0  0  0
 27 28  1  0  0  0  0
 28 29  1  0  0  0  0
 28 30  1  0  0  0  0
M  END
>  <cdx:fragmentId>
5

$$$$
