97670.cdx
  Mrv1902 05222410212D          

 39 41  0  0  0  0            999 V2000
    9.8298  -12.8546    0.0000 C   0  0  0  0  0  0  0  0  0  0  0  0
    9.8298  -13.6796    0.0000 C   0  0  0  0  0  0  0  0  0  0  0  0
   10.5443  -14.0921    0.0000 C   0  0  0  0  0  0  0  0  0  0  0  0
   10.5443  -12.4421    0.0000 O   0  0  0  0  0  0  0  0  0  0  0  0
    7.6163  -11.4595    0.0000 C   0  0  2  0  0  0  0  0  0  0  0  0
    7.7878  -12.2665    0.0000 O   0  0  0  0  0  0  0  0  0  0  0  0
    7.0032  -12.0115    0.0000 C   0  0  0  0  0  0  0  0  0  0  0  0
    8.4009  -12.0296    0.0000 H   0  0  0  0  0  0  0  0  0  0  0  0
   10.5443   -7.4921    0.0000 C   0  0  0  0  0  0  0  0  0  0  0  0
    9.1154   -7.4921    0.0000 O   0  0  0  0  0  0  0  0  0  0  0  0
    9.8298   -7.9046    0.0000 C   0  0  0  0  0  0  0  0  0  0  0  0
    9.8298   -8.7296    0.0000 O   0  0  0  0  0  0  0  0  0  0  0  0
    9.1154   -9.1421    0.0000 C   0  0  0  0  0  0  0  0  0  0  0  0
   10.9568  -13.3776    0.0000 C   0  0  0  0  0  0  0  0  0  0  0  0
    9.1154  -12.4421    0.0000 O   0  0  0  0  0  0  0  0  0  0  0  0
    7.1313  -10.7921    0.0000 C   0  0  2  0  0  0  0  0  0  0  0  0
    7.6163  -10.1246    0.0000 C   0  0  0  0  0  0  0  0  0  0  0  0
    9.8298  -11.2046    0.0000 O   0  0  0  0  0  0  0  0  0  0  0  0
    9.8298  -10.3796    0.0000 C   0  0  0  0  0  0  0  0  0  0  0  0
    9.1154   -9.9671    0.0000 C   0  0  0  0  0  0  0  0  0  0  0  0
    8.4009  -10.3796    0.0000 C   0  0  0  0  0  0  0  0  0  0  0  0
    8.4009  -11.2046    0.0000 C   0  0  2  0  0  0  0  0  0  0  0  0
    9.1154  -11.6171    0.0000 C   0  0  2  0  0  0  0  0  0  0  0  0
    3.7530  -11.1151    0.0000 C   0  0  0  0  0  0  0  0  0  0  0  0
    6.3063  -10.7921    0.0000 O   0  0  0  0  0  0  0  0  0  0  0  0
    5.5817   -9.5605    0.0000 O   0  0  0  0  0  0  0  0  0  0  0  0
    4.5662   -9.6794    0.0000 C   0  0  0  0  0  0  0  0  0  0  0  0
    4.1596  -10.3973    0.0000 C   0  0  0  0  0  0  0  0  0  0  0  0
    4.8774  -10.8039    0.0000 C   0  0  0  0  0  0  0  0  0  0  0  0
    5.5885  -10.3855    0.0000 C   0  0  0  0  0  0  0  0  0  0  0  0
    3.4417   -9.9907    0.0000 O   0  0  0  0  0  0  0  0  0  0  0  0
    2.0128  -10.0025    0.0000 C   0  0  0  0  0  0  0  0  0  0  0  0
    2.7375  -11.2340    0.0000 O   0  0  0  0  0  0  0  0  0  0  0  0
    2.7307  -10.4091    0.0000 C   0  0  0  0  0  0  0  0  0  0  0  0
   10.1318  -14.8065    0.0000 C   0  0  0  0  0  0  0  0  0  0  0  0
   10.5443  -15.7421    0.0000 O   0  0  0  0  0  0  0  0  0  0  0  0
   11.9732  -15.7421    0.0000 C   0  0  0  0  0  0  0  0  0  0  0  0
   11.2588  -15.3296    0.0000 C   0  0  0  0  0  0  0  0  0  0  0  0
   11.2588  -14.5046    0.0000 O   0  0  0  0  0  0  0  0  0  0  0  0
 22  8  1  1  0  0  0
 16 25  1  1  0  0  0
 20 13  1  0  0  0  0
 13 12  1  0  0  0  0
 12 11  1  0  0  0  0
 11  9  1  0  0  0  0
 11 10  2  0  0  0  0
 23 15  1  1  0  0  0
 15  1  1  0  0  0  0
 21 17  2  0  0  0  0
 22  5  1  0  0  0  0
 16  5  1  0  0  0  0
 17 16  1  0  0  0  0
 23 18  1  0  0  0  0
 19 18  1  0  0  0  0
 20 19  2  0  0  0  0
 21 20  1  0  0  0  0
 22 21  1  0  0  0  0
 23 22  1  0  0  0  0
 28 24  1  0  0  0  0
 30 25  1  0  0  0  0
 30 26  2  0  0  0  0
 28 27  1  0  0  0  0
 29 28  1  0  0  0  0
 30 29  1  0  0  0  0
  1  2  1  0  0  0  0
  2  3  1  0  0  0  0
  1  4  2  0  0  0  0
  3 14  1  0  0  0  0
  6  7  1  0  0  0  0
  5  6  1  6  0  0  0
  5  7  1  0  0  0  0
 28 31  1  0  0  0  0
 34 32  1  0  0  0  0
 31 34  1  0  0  0  0
 34 33  2  0  0  0  0
  3 35  1  0  0  0  0
 38 36  2  0  0  0  0
  3 39  1  0  0  0  0
 38 37  1  0  0  0  0
 39 38  1  0  0  0  0
M  END
>  <cdx:fragmentId>
11516

$$$$
