97682.cdx
  Mrv1902 05222410252D          

 36 38  0  0  0  0            999 V2000
    8.6769  -12.0296    0.0000 C   0  0  0  0  0  0  0  0  0  0  0  0
    8.6769  -12.8546    0.0000 C   0  0  0  0  0  0  0  0  0  0  0  0
    9.3914  -11.6171    0.0000 O   0  0  0  0  0  0  0  0  0  0  0  0
    6.4634  -10.6345    0.0000 C   0  0  2  0  0  0  0  0  0  0  0  0
    6.6349  -11.4415    0.0000 O   0  0  0  0  0  0  0  0  0  0  0  0
    5.8503  -11.1865    0.0000 C   0  0  0  0  0  0  0  0  0  0  0  0
    7.2480  -11.2046    0.0000 H   0  0  0  0  0  0  0  0  0  0  0  0
    9.3914   -6.6671    0.0000 C   0  0  0  0  0  0  0  0  0  0  0  0
    7.9625   -6.6671    0.0000 O   0  0  0  0  0  0  0  0  0  0  0  0
    8.6769   -7.0796    0.0000 C   0  0  0  0  0  0  0  0  0  0  0  0
    8.6769   -7.9046    0.0000 O   0  0  0  0  0  0  0  0  0  0  0  0
    7.9625   -8.3171    0.0000 C   0  0  0  0  0  0  0  0  0  0  0  0
    7.9625  -11.6171    0.0000 O   0  0  0  0  0  0  0  0  0  0  0  0
    5.9784   -9.9671    0.0000 C   0  0  2  0  0  0  0  0  0  0  0  0
    6.4634   -9.2996    0.0000 C   0  0  0  0  0  0  0  0  0  0  0  0
    8.6769  -10.3796    0.0000 O   0  0  0  0  0  0  0  0  0  0  0  0
    8.6769   -9.5546    0.0000 C   0  0  0  0  0  0  0  0  0  0  0  0
    7.9625   -9.1421    0.0000 C   0  0  0  0  0  0  0  0  0  0  0  0
    7.2480   -9.5546    0.0000 C   0  0  2  0  0  0  0  0  0  0  0  0
    7.2480  -10.3796    0.0000 C   0  0  2  0  0  0  0  0  0  0  0  0
    7.9625  -10.7921    0.0000 C   0  0  2  0  0  0  0  0  0  0  0  0
    5.1534   -9.9671    0.0000 O   0  0  0  0  0  0  0  0  0  0  0  0
    4.4312   -9.5683    0.0000 C   0  0  0  0  0  0  0  0  0  0  0  0
    4.4154   -8.7435    0.0000 O   0  0  0  0  0  0  0  0  0  0  0  0
    3.7248   -9.9944    0.0000 C   0  0  0  0  0  0  0  0  0  0  0  0
    7.2480   -8.7296    0.0000 O   0  0  0  0  0  0  0  0  0  0  0  0
    3.0025   -9.5956    0.0000 C   0  0  0  0  0  0  0  0  0  0  0  0
    2.2961  -10.0217    0.0000 C   0  0  0  0  0  0  0  0  0  0  0  0
    2.9868   -8.7708    0.0000 C   0  0  0  0  0  0  0  0  0  0  0  0
    9.3914  -13.2671    0.0000 C   0  0  0  0  0  0  0  0  0  0  0  0
    9.3914  -14.0921    0.0000 C   0  0  0  0  0  0  0  0  0  0  0  0
   10.1059  -12.8546    0.0000 C   0  0  0  0  0  0  0  0  0  0  0  0
    7.9625  -14.0921    0.0000 C   0  0  0  0  0  0  0  0  0  0  0  0
    8.6769  -14.5046    0.0000 C   0  0  0  0  0  0  0  0  0  0  0  0
    7.2480  -14.5046    0.0000 O   0  0  0  0  0  0  0  0  0  0  0  0
    7.9625  -13.2671    0.0000 O   0  0  0  0  0  0  0  0  0  0  0  0
 20  7  1  1  0  0  0
 14 22  1  1  0  0  0
 18 12  1  0  0  0  0
 12 11  1  0  0  0  0
 11 10  1  0  0  0  0
 10  8  1  0  0  0  0
 10  9  2  0  0  0  0
 21 13  1  1  0  0  0
 13  1  1  0  0  0  0
 19 15  1  0  0  0  0
 20  4  1  0  0  0  0
 14  4  1  0  0  0  0
 15 14  1  0  0  0  0
 21 16  1  0  0  0  0
 17 16  1  0  0  0  0
 18 17  2  0  0  0  0
 19 18  1  0  0  0  0
 20 19  1  0  0  0  0
 21 20  1  0  0  0  0
  1  2  1  0  0  0  0
  1  3  2  0  0  0  0
  5  6  1  0  0  0  0
  4  5  1  6  0  0  0
  4  6  1  0  0  0  0
 22 23  1  0  0  0  0
 23 24  2  0  0  0  0
 23 25  1  0  0  0  0
 19 26  1  1  0  0  0
 25 27  1  0  0  0  0
 27 28  1  0  0  0  0
 27 29  1  0  0  0  0
  2 30  1  0  0  0  0
 30 31  1  0  0  0  0
 30 32  1  0  0  0  0
  2 36  1  0  0  0  0
 33 34  1  0  0  0  0
 36 33  1  0  0  0  0
 33 35  2  0  0  0  0
M  END
>  <cdx:fragmentId>
11516

$$$$
