97680.cdx
  Mrv1902 05222410252D          

 38 39  0  0  0  0            999 V2000
    7.1274   -7.1088    0.0000 C   0  0  0  0  0  0  0  0  0  0  0  0
    7.1274   -7.9337    0.0000 C   0  0  2  0  0  0  0  0  0  0  0  0
    7.8419   -8.3462    0.0000 C   0  0  1  0  0  0  0  0  0  0  0  0
    8.5564   -7.9337    0.0000 O   0  0  0  0  0  0  0  0  0  0  0  0
    8.5564   -7.1088    0.0000 C   0  0  0  0  0  0  0  0  0  0  0  0
    7.8419   -6.6962    0.0000 C   0  0  0  0  0  0  0  0  0  0  0  0
    6.3428   -6.8538    0.0000 C   0  0  0  0  0  0  0  0  0  0  0  0
    5.8579   -7.5213    0.0000 C   0  0  1  0  0  0  0  0  0  0  0  0
    6.3428   -8.1887    0.0000 C   0  0  1  0  0  0  0  0  0  0  0  0
    7.8419   -5.8712    0.0000 C   0  0  0  0  0  0  0  0  0  0  0  0
    8.5564   -2.9837    0.0000 C   0  0  0  0  0  0  0  0  0  0  0  0
    9.9853   -2.9837    0.0000 C   0  0  0  0  0  0  0  0  0  0  0  0
    9.2708   -3.3962    0.0000 C   0  0  0  0  0  0  0  0  0  0  0  0
    9.2708   -4.2212    0.0000 C   0  0  0  0  0  0  0  0  0  0  0  0
    7.8419   -4.2212    0.0000 O   0  0  0  0  0  0  0  0  0  0  0  0
    8.5564   -4.6337    0.0000 C   0  0  0  0  0  0  0  0  0  0  0  0
    8.5564   -5.4588    0.0000 O   0  0  0  0  0  0  0  0  0  0  0  0
    9.9927  -10.3958    0.0000 C   0  0  0  0  0  0  0  0  0  0  0  0
    9.2857  -11.6376    0.0000 C   0  0  0  0  0  0  0  0  0  0  0  0
    9.2808  -10.8126    0.0000 C   0  0  0  0  0  0  0  0  0  0  0  0
    8.5638  -10.4044    0.0000 C   0  0  0  0  0  0  0  0  0  0  0  0
    9.2708   -9.1626    0.0000 O   0  0  0  0  0  0  0  0  0  0  0  0
    8.5588   -9.5794    0.0000 C   0  0  0  0  0  0  0  0  0  0  0  0
    7.8419   -9.1713    0.0000 O   0  0  0  0  0  0  0  0  0  0  0  0
    6.5563   -8.9856    0.0000 O   0  0  0  0  0  0  0  0  0  0  0  0
    5.7594   -8.7721    0.0000 C   0  0  0  0  0  0  0  0  0  0  0  0
    2.8953   -6.2737    0.0000 C   0  0  0  0  0  0  0  0  0  0  0  0
    2.1750   -7.5079    0.0000 C   0  0  0  0  0  0  0  0  0  0  0  0
    2.8914   -7.0987    0.0000 C   0  0  0  0  0  0  0  0  0  0  0  0
    3.6040   -7.5146    0.0000 C   0  0  0  0  0  0  0  0  0  0  0  0
    4.3242   -6.2804    0.0000 O   0  0  0  0  0  0  0  0  0  0  0  0
    4.3203   -7.1054    0.0000 C   0  0  0  0  0  0  0  0  0  0  0  0
    5.0329   -7.5213    0.0000 O   0  0  0  0  0  0  0  0  0  0  0  0
    7.1274   -8.7588    0.0000 H   0  0  0  0  0  0  0  0  0  0  0  0
    4.9344   -8.7721    0.0000 O   0  0  0  0  0  0  0  0  0  0  0  0
    4.5219   -9.4865    0.0000 C   0  0  0  0  0  0  0  0  0  0  0  0
    3.6969   -9.4865    0.0000 C   0  0  0  0  0  0  0  0  0  0  0  0
    4.9344  -10.2010    0.0000 O   0  0  0  0  0  0  0  0  0  0  0  0
  1  2  1  0  0  0  0
  2  3  1  0  0  0  0
  3  4  1  0  0  0  0
  4  5  1  0  0  0  0
  5  6  2  0  0  0  0
  6  1  1  0  0  0  0
  1  7  2  0  0  0  0
  7  8  1  0  0  0  0
  8  9  1  0  0  0  0
  9  2  1  0  0  0  0
  6 10  1  0  0  0  0
 13 11  1  0  0  0  0
 10 17  1  0  0  0  0
 13 12  1  0  0  0  0
 14 13  1  0  0  0  0
 16 14  1  0  0  0  0
 16 15  2  0  0  0  0
 17 16  1  0  0  0  0
 20 18  1  0  0  0  0
  3 24  1  1  0  0  0
 20 19  1  0  0  0  0
 21 20  1  0  0  0  0
 23 21  1  0  0  0  0
 23 22  2  0  0  0  0
 24 23  1  0  0  0  0
  9 25  1  6  0  0  0
  9 26  1  1  0  0  0
 29 27  1  0  0  0  0
  8 33  1  1  0  0  0
 29 28  1  0  0  0  0
 30 29  1  0  0  0  0
 32 30  1  0  0  0  0
 32 31  2  0  0  0  0
 33 32  1  0  0  0  0
  2 34  1  1  0  0  0
 26 35  1  0  0  0  0
 35 36  1  0  0  0  0
 36 37  1  0  0  0  0
 36 38  2  0  0  0  0
M  END
>  <cdx:fragmentId>
5

$$$$
