9770.cdx
  Mrv1902 05222410272D          

 53 59  0  0  0  0            999 V2000
    5.9287   -5.9664    0.0000 O   0  0  0  0  0  0  0  0  0  0  0  0
    6.6608   -6.3919    0.0000 C   0  0  0  0  0  0  0  0  0  0  0  0
    6.6599   -7.2169    0.0000 C   0  0  0  0  0  0  0  0  0  0  0  0
    7.3740   -7.6302    0.0000 C   0  0  0  0  0  0  0  0  0  0  0  0
    7.3731   -8.4552    0.0000 C   0  0  0  0  0  0  0  0  0  0  0  0
    7.3757   -5.9802    0.0000 O   0  0  0  0  0  0  0  0  0  0  0  0
    5.3538   -4.4459    0.0000 C   0  0  2  0  0  0  0  0  0  0  0  0
    5.7139   -5.1882    0.0000 C   0  0  2  0  0  0  0  0  0  0  0  0
    5.3581   -5.9325    0.0000 C   0  0  1  0  0  0  0  0  0  0  0  0
    4.5543   -6.1185    0.0000 C   0  0  1  0  0  0  0  0  0  0  0  0
    3.9078   -5.6060    0.0000 C   0  0  1  0  0  0  0  0  0  0  0  0
    3.9054   -4.7810    0.0000 C   0  0  2  0  0  0  0  0  0  0  0  0
    4.5489   -4.2647    0.0000 C   0  0  2  0  0  0  0  0  0  0  0  0
    3.1946   -6.0205    0.0000 C   0  0  2  0  0  0  0  0  0  0  0  0
    2.4789   -5.6101    0.0000 C   0  0  0  0  0  0  0  0  0  0  0  0
    2.4765   -4.7851    0.0000 C   0  0  0  0  0  0  0  0  0  0  0  0
    3.1897   -4.3705    0.0000 C   0  0  2  0  0  0  0  0  0  0  0  0
    4.4726   -3.4432    0.0000 C   0  0  0  0  0  0  0  0  0  0  0  0
    5.2302   -3.1168    0.0000 C   0  0  1  0  0  0  0  0  0  0  0  0
    5.7748   -3.7365    0.0000 C   0  0  2  0  0  0  0  0  0  0  0  0
    3.1873   -3.5456    0.0000 O   0  0  0  0  0  0  0  0  0  0  0  0
    2.4762   -3.1274    0.0000 C   0  0  0  0  0  0  0  0  0  0  0  0
    3.1970   -6.8455    0.0000 C   0  0  0  0  0  0  0  0  0  0  0  0
    2.4837   -7.2601    0.0000 O   0  0  0  0  0  0  0  0  0  0  0  0
    2.4861   -8.0851    0.0000 C   0  0  0  0  0  0  0  0  0  0  0  0
    3.9050   -4.1250    0.0000 C   0  0  0  0  0  0  0  0  0  0  0  0
    3.1900   -5.1425    0.0000 N   0  0  0  0  0  0  0  0  0  0  0  0
    2.4750   -6.3250    0.0000 C   0  0  0  0  0  0  0  0  0  0  0  0
    6.5125   -4.9810    0.0000 C   0  0  2  0  0  0  0  0  0  0  0  0
    6.5450   -3.3000    0.0000 C   0  0  2  0  0  0  0  0  0  0  0  0
    7.2600   -3.7400    0.0000 O   0  0  0  0  0  0  0  0  0  0  0  0
    3.9012   -6.4309    0.0000 H   0  0  0  0  0  0  0  0  0  0  0  0
    3.9656   -3.6813    0.0000 H   0  0  0  0  0  0  0  0  0  0  0  0
    6.1787   -4.4525    0.0000 H   0  0  0  0  0  0  0  0  0  0  0  0
    5.2302   -2.2918    0.0000 O   0  0  0  0  0  0  0  0  0  0  0  0
    5.3581   -6.7575    0.0000 H   0  0  0  0  0  0  0  0  0  0  0  0
    2.0075   -5.1425    0.0000 C   0  0  0  0  0  0  0  0  0  0  0  0
    7.2595   -2.8875    0.0000 O   0  0  0  0  0  0  0  0  0  0  0  0
    7.2595   -2.0625    0.0000 C   0  0  0  0  0  0  0  0  0  0  0  0
    4.5543   -6.9435    0.0000 O   0  0  0  0  0  0  0  0  0  0  0  0
    3.8399   -7.3560    0.0000 C   0  0  0  0  0  0  0  0  0  0  0  0
    7.9745   -4.1525    0.0000 C   0  0  0  0  0  0  0  0  0  0  0  0
    8.6889   -3.7400    0.0000 C   0  0  0  0  0  0  0  0  0  0  0  0
    7.9745   -4.9775    0.0000 O   0  0  0  0  0  0  0  0  0  0  0  0
    9.4034   -4.1525    0.0000 C   0  0  0  0  0  0  0  0  0  0  0  0
   10.1179   -3.7400    0.0000 C   0  0  0  0  0  0  0  0  0  0  0  0
   10.1179   -2.9150    0.0000 C   0  0  0  0  0  0  0  0  0  0  0  0
    9.4034   -2.5025    0.0000 C   0  0  0  0  0  0  0  0  0  0  0  0
    8.6889   -2.9150    0.0000 C   0  0  0  0  0  0  0  0  0  0  0  0
    7.3093   -5.1946    0.0000 O   0  0  0  0  0  0  0  0  0  0  0  0
    8.0871   -8.8684    0.0000 O   0  0  0  0  0  0  0  0  0  0  0  0
    5.9450   -7.6286    0.0000 O   0  0  0  0  0  0  0  0  0  0  0  0
    6.6582   -8.8669    0.0000 O   0  0  0  0  0  0  0  0  0  0  0  0
  2  3  1  0  0  0  0
  3  4  1  0  0  0  0
  4  5  1  0  0  0  0
  2  6  2  0  0  0  0
  2  1  1  0  0  0  0
  7  8  1  0  0  0  0
  8  9  1  0  0  0  0
  9 10  1  0  0  0  0
 10 11  1  0  0  0  0
 11 12  1  0  0  0  0
 12 13  1  0  0  0  0
 13  7  1  0  0  0  0
 11 14  1  0  0  0  0
 14 15  1  0  0  0  0
 15 16  1  0  0  0  0
 16 17  1  0  0  0  0
 12 17  1  1  0  0  0
 13 18  1  0  0  0  0
 18 19  1  0  0  0  0
 19 20  1  0  0  0  0
 20  7  1  0  0  0  0
 17 21  1  6  0  0  0
 21 22  1  0  0  0  0
 14 23  1  1  0  0  0
 23 24  1  0  0  0  0
 24 25  1  0  0  0  0
 12 26  1  0  0  0  0
  9 26  1  0  0  0  0
 26 27  1  0  0  0  0
 27 28  1  0  0  0  0
 14 28  1  0  0  0  0
  8 29  1  0  0  0  0
 19 30  1  0  0  0  0
 30 29  1  0  0  0  0
 20 31  1  6  0  0  0
 11 32  1  1  0  0  0
 13 33  1  1  0  0  0
  7 34  1  1  0  0  0
 19 35  1  1  0  0  0
  9 36  1  6  0  0  0
 27 37  1  0  0  0  0
 30 38  1  1  0  0  0
 38 39  1  0  0  0  0
 10 40  1  6  0  0  0
 40 41  1  0  0  0  0
 31 42  1  0  0  0  0
 42 43  1  0  0  0  0
 42 44  2  0  0  0  0
 43 45  2  0  0  0  0
 45 46  1  0  0  0  0
 46 47  2  0  0  0  0
 47 48  1  0  0  0  0
 48 49  2  0  0  0  0
 49 43  1  0  0  0  0
 29 50  1  6  0  0  0
  8  1  1  1  0  0  0
  5 51  1  0  0  0  0
  3 52  1  0  0  0  0
  5 53  2  0  0  0  0
M  END
>  <cdx:fragmentId>
220

$$$$
