97718.cdx
  Mrv1902 05222410242D          

 67 73  0  0  0  0            999 V2000
    4.9387   -5.0314    0.0000 O   0  0  0  0  0  0  0  0  0  0  0  0
    5.6708   -5.4569    0.0000 C   0  0  0  0  0  0  0  0  0  0  0  0
    5.6699   -6.2819    0.0000 C   0  0  0  0  0  0  0  0  0  0  0  0
    6.3840   -6.6952    0.0000 C   0  0  0  0  0  0  0  0  0  0  0  0
    6.3831   -7.5202    0.0000 C   0  0  0  0  0  0  0  0  0  0  0  0
    7.0971   -7.9334    0.0000 C   0  0  0  0  0  0  0  0  0  0  0  0
    7.0962   -8.7584    0.0000 C   0  0  0  0  0  0  0  0  0  0  0  0
    7.8103   -9.1717    0.0000 C   0  0  0  0  0  0  0  0  0  0  0  0
    7.8094   -9.9967    0.0000 C   0  0  0  0  0  0  0  0  0  0  0  0
    8.5234  -10.4100    0.0000 C   0  0  0  0  0  0  0  0  0  0  0  0
    8.5225  -11.2350    0.0000 C   0  0  0  0  0  0  0  0  0  0  0  0
    6.3857   -5.0452    0.0000 O   0  0  0  0  0  0  0  0  0  0  0  0
    4.3638   -3.5109    0.0000 C   0  0  2  0  0  0  0  0  0  0  0  0
    4.7239   -4.2532    0.0000 C   0  0  2  0  0  0  0  0  0  0  0  0
    4.3681   -4.9975    0.0000 C   0  0  1  0  0  0  0  0  0  0  0  0
    3.5643   -5.1835    0.0000 C   0  0  1  0  0  0  0  0  0  0  0  0
    2.9178   -4.6710    0.0000 C   0  0  1  0  0  0  0  0  0  0  0  0
    2.9154   -3.8460    0.0000 C   0  0  2  0  0  0  0  0  0  0  0  0
    3.5589   -3.3297    0.0000 C   0  0  2  0  0  0  0  0  0  0  0  0
    2.2046   -5.0855    0.0000 C   0  0  2  0  0  0  0  0  0  0  0  0
    1.4889   -4.6751    0.0000 C   0  0  1  0  0  0  0  0  0  0  0  0
    1.4865   -3.8501    0.0000 C   0  0  0  0  0  0  0  0  0  0  0  0
    2.1997   -3.4355    0.0000 C   0  0  2  0  0  0  0  0  0  0  0  0
    3.4826   -2.5082    0.0000 C   0  0  0  0  0  0  0  0  0  0  0  0
    4.2402   -2.1818    0.0000 C   0  0  1  0  0  0  0  0  0  0  0  0
    4.7848   -2.8015    0.0000 C   0  0  2  0  0  0  0  0  0  0  0  0
    2.1973   -2.6106    0.0000 O   0  0  0  0  0  0  0  0  0  0  0  0
    1.4862   -2.1924    0.0000 C   0  0  0  0  0  0  0  0  0  0  0  0
    2.2070   -5.9105    0.0000 C   0  0  0  0  0  0  0  0  0  0  0  0
    1.4937   -6.3251    0.0000 O   0  0  0  0  0  0  0  0  0  0  0  0
    1.4961   -7.1501    0.0000 C   0  0  0  0  0  0  0  0  0  0  0  0
    2.9150   -3.1900    0.0000 C   0  0  0  0  0  0  0  0  0  0  0  0
    2.2000   -4.2075    0.0000 N   0  0  0  0  0  0  0  0  0  0  0  0
    1.4850   -5.3900    0.0000 C   0  0  0  0  0  0  0  0  0  0  0  0
    5.5225   -4.0460    0.0000 C   0  0  2  0  0  0  0  0  0  0  0  0
    5.5550   -2.3650    0.0000 C   0  0  2  0  0  0  0  0  0  0  0  0
    6.2700   -2.8050    0.0000 O   0  0  0  0  0  0  0  0  0  0  0  0
    2.9112   -5.4959    0.0000 H   0  0  0  0  0  0  0  0  0  0  0  0
    2.9756   -2.7463    0.0000 H   0  0  0  0  0  0  0  0  0  0  0  0
    5.1887   -3.5175    0.0000 H   0  0  0  0  0  0  0  0  0  0  0  0
    4.2402   -1.3568    0.0000 O   0  0  0  0  0  0  0  0  0  0  0  0
    4.3681   -5.8225    0.0000 H   0  0  0  0  0  0  0  0  0  0  0  0
    0.7744   -5.0876    0.0000 O   0  0  0  0  0  0  0  0  0  0  0  0
    1.0175   -4.2075    0.0000 C   0  0  0  0  0  0  0  0  0  0  0  0
    6.2695   -1.9525    0.0000 O   0  0  0  0  0  0  0  0  0  0  0  0
    6.2695   -1.1275    0.0000 C   0  0  0  0  0  0  0  0  0  0  0  0
    3.5643   -6.0085    0.0000 O   0  0  0  0  0  0  0  0  0  0  0  0
    2.8499   -6.4210    0.0000 C   0  0  0  0  0  0  0  0  0  0  0  0
    6.9845   -3.2175    0.0000 C   0  0  0  0  0  0  0  0  0  0  0  0
    7.6989   -2.8050    0.0000 C   0  0  0  0  0  0  0  0  0  0  0  0
    6.9845   -4.0425    0.0000 O   0  0  0  0  0  0  0  0  0  0  0  0
    8.4134   -3.2175    0.0000 C   0  0  0  0  0  0  0  0  0  0  0  0
    9.1279   -2.8050    0.0000 C   0  0  0  0  0  0  0  0  0  0  0  0
    9.1279   -1.9800    0.0000 C   0  0  0  0  0  0  0  0  0  0  0  0
    8.4134   -1.5675    0.0000 C   0  0  0  0  0  0  0  0  0  0  0  0
    7.6989   -1.9800    0.0000 C   0  0  0  0  0  0  0  0  0  0  0  0
    6.3193   -4.2596    0.0000 O   0  0  0  0  0  0  0  0  0  0  0  0
    9.2366  -11.6482    0.0000 C   0  0  0  0  0  0  0  0  0  0  0  0
    9.2357  -12.4732    0.0000 C   0  0  0  0  0  0  0  0  0  0  0  0
    9.9497  -12.8865    0.0000 C   0  0  0  0  0  0  0  0  0  0  0  0
    9.9488  -13.7115    0.0000 C   0  0  0  0  0  0  0  0  0  0  0  0
   10.6628  -14.1247    0.0000 C   0  0  0  0  0  0  0  0  0  0  0  0
   10.6620  -14.9497    0.0000 C   0  0  0  0  0  0  0  0  0  0  0  0
   11.3760  -15.3630    0.0000 C   0  0  0  0  0  0  0  0  0  0  0  0
   11.3751  -16.1880    0.0000 C   0  0  0  0  0  0  0  0  0  0  0  0
   12.0891  -16.6013    0.0000 C   0  0  0  0  0  0  0  0  0  0  0  0
   12.0883  -17.4263    0.0000 C   0  0  0  0  0  0  0  0  0  0  0  0
  2  3  1  0  0  0  0
  3  4  1  0  0  0  0
  4  5  1  0  0  0  0
  5  6  1  0  0  0  0
  6  7  1  0  0  0  0
  7  8  1  0  0  0  0
  8  9  1  0  0  0  0
  9 10  1  0  0  0  0
 10 11  1  0  0  0  0
  2 12  2  0  0  0  0
  2  1  1  0  0  0  0
 13 14  1  0  0  0  0
 14 15  1  0  0  0  0
 15 16  1  0  0  0  0
 16 17  1  0  0  0  0
 17 18  1  0  0  0  0
 18 19  1  0  0  0  0
 19 13  1  0  0  0  0
 17 20  1  0  0  0  0
 20 21  1  0  0  0  0
 21 22  1  0  0  0  0
 22 23  1  0  0  0  0
 18 23  1  1  0  0  0
 19 24  1  0  0  0  0
 24 25  1  0  0  0  0
 25 26  1  0  0  0  0
 26 13  1  0  0  0  0
 23 27  1  6  0  0  0
 27 28  1  0  0  0  0
 20 29  1  1  0  0  0
 29 30  1  0  0  0  0
 30 31  1  0  0  0  0
 18 32  1  0  0  0  0
 15 32  1  0  0  0  0
 32 33  1  0  0  0  0
 33 34  1  0  0  0  0
 20 34  1  0  0  0  0
 14 35  1  0  0  0  0
 25 36  1  0  0  0  0
 36 35  1  0  0  0  0
 26 37  1  6  0  0  0
 17 38  1  1  0  0  0
 19 39  1  1  0  0  0
 13 40  1  1  0  0  0
 25 41  1  1  0  0  0
 15 42  1  6  0  0  0
 21 43  1  6  0  0  0
 33 44  1  0  0  0  0
 36 45  1  1  0  0  0
 45 46  1  0  0  0  0
 16 47  1  6  0  0  0
 47 48  1  0  0  0  0
 37 49  1  0  0  0  0
 49 50  1  0  0  0  0
 49 51  2  0  0  0  0
 50 52  2  0  0  0  0
 52 53  1  0  0  0  0
 53 54  2  0  0  0  0
 54 55  1  0  0  0  0
 55 56  2  0  0  0  0
 56 50  1  0  0  0  0
 35 57  1  6  0  0  0
 14  1  1  1  0  0  0
 11 58  1  0  0  0  0
 58 59  1  0  0  0  0
 59 60  1  0  0  0  0
 60 61  1  0  0  0  0
 61 62  1  0  0  0  0
 62 63  1  0  0  0  0
 63 64  1  0  0  0  0
 64 65  1  0  0  0  0
 65 66  1  0  0  0  0
 66 67  1  0  0  0  0
M  END
>  <cdx:fragmentId>
220

$$$$
