977259.cdx
  Mrv1902 05222410182D          

 21 20  0  0  0  0            999 V2000
    3.3213   -9.1707    0.0000 C   0  0  0  0  0  0  0  0  0  0  0  0
    2.9088   -8.4563    0.0000 C   0  0  0  0  0  0  0  0  0  0  0  0
    3.6233   -8.0437    0.0000 C   0  0  0  0  0  0  0  0  0  0  0  0
    4.3378   -8.4563    0.0000 C   0  0  0  0  0  0  0  0  0  0  0  0
    5.0522   -8.0437    0.0000 C   0  0  0  0  0  0  0  0  0  0  0  0
    5.7667   -8.4563    0.0000 C   0  0  0  0  0  0  0  0  0  0  0  0
    6.4812   -8.0437    0.0000 C   0  0  0  0  0  0  0  0  0  0  0  0
    7.1956   -8.4563    0.0000 C   0  0  0  0  0  0  0  0  0  0  0  0
    7.9101   -8.0437    0.0000 C   0  0  0  0  0  0  0  0  0  0  0  0
    8.6246   -8.4563    0.0000 C   0  0  0  0  0  0  0  0  0  0  0  0
    9.3391   -8.0437    0.0000 C   0  0  0  0  0  0  0  0  0  0  0  0
   10.0535   -8.4563    0.0000 C   0  0  0  0  0  0  0  0  0  0  0  0
   10.7680   -8.0437    0.0000 C   0  0  0  0  0  0  0  0  0  0  0  0
   11.4825   -8.4563    0.0000 C   0  0  0  0  0  0  0  0  0  0  0  0
   12.1969   -8.0437    0.0000 C   0  0  0  0  0  0  0  0  0  0  0  0
   12.9114   -8.4563    0.0000 C   0  0  0  0  0  0  0  0  0  0  0  0
    2.1944   -8.8688    0.0000 C   0  0  0  0  0  0  0  0  0  0  0  0
    1.4799   -8.4562    0.0000 C   0  0  0  0  0  0  0  0  0  0  0  0
    2.4963   -7.7418    0.0000 C   0  0  0  0  0  0  0  0  0  0  0  0
    2.9088   -7.0273    0.0000 C   0  0  0  0  0  0  0  0  0  0  0  0
    2.9088   -9.8852    0.0000 C   0  0  0  0  0  0  0  0  0  0  0  0
  1  2  1  0  0  0  0
  2  3  1  0  0  0  0
  3  4  1  0  0  0  0
  4  5  1  0  0  0  0
  5  6  1  0  0  0  0
  6  7  1  0  0  0  0
  7  8  1  0  0  0  0
  8  9  1  0  0  0  0
  9 10  1  0  0  0  0
 10 11  1  0  0  0  0
 11 12  1  0  0  0  0
 12 13  1  0  0  0  0
 13 14  1  0  0  0  0
 14 15  1  0  0  0  0
 15 16  1  0  0  0  0
 17 18  1  0  0  0  0
  2 17  1  0  0  0  0
  2 19  1  0  0  0  0
 19 20  1  0  0  0  0
  1 21  1  0  0  0  0
M  END
>  <cdx:fragmentId>
5

$$$$
