85977274.cdx
  Mrv1902 05222410202D          

 19 18  0  0  0  0            999 V2000
    2.2670  -14.8830    0.0000 C   0  0  0  0  0  0  0  0  0  0  0  0
    2.9814  -15.2955    0.0000 C   0  0  0  0  0  0  0  0  0  0  0  0
    3.6959  -14.8830    0.0000 C   0  0  0  0  0  0  0  0  0  0  0  0
    4.4104  -15.2955    0.0000 C   0  0  0  0  0  0  0  0  0  0  0  0
    5.1248  -14.8830    0.0000 C   0  0  0  0  0  0  0  0  0  0  0  0
    5.8393  -14.4705    0.0000 C   0  0  0  0  0  0  0  0  0  0  0  0
    6.5538  -14.8830    0.0000 C   0  0  0  0  0  0  0  0  0  0  0  0
    7.2682  -14.4705    0.0000 C   0  0  0  0  0  0  0  0  0  0  0  0
    7.9827  -14.8830    0.0000 C   0  0  0  0  0  0  0  0  0  0  0  0
    8.6972  -14.4705    0.0000 C   0  0  0  0  0  0  0  0  0  0  0  0
    9.4117  -14.8830    0.0000 C   0  0  0  0  0  0  0  0  0  0  0  0
   10.1261  -14.4705    0.0000 C   0  0  0  0  0  0  0  0  0  0  0  0
   10.8406  -14.8830    0.0000 C   0  0  0  0  0  0  0  0  0  0  0  0
   11.5551  -14.4705    0.0000 C   0  0  0  0  0  0  0  0  0  0  0  0
   12.2695  -14.8830    0.0000 C   0  0  0  0  0  0  0  0  0  0  0  0
    4.7123  -14.1685    0.0000 C   0  0  0  0  0  0  0  0  0  0  0  0
    3.8873  -14.1685    0.0000 C   0  0  0  0  0  0  0  0  0  0  0  0
    5.5373  -15.5975    0.0000 C   0  0  0  0  0  0  0  0  0  0  0  0
    6.3623  -15.5975    0.0000 C   0  0  0  0  0  0  0  0  0  0  0  0
  1  2  1  0  0  0  0
  2  3  1  0  0  0  0
  3  4  1  0  0  0  0
  4  5  1  0  0  0  0
  5  6  1  0  0  0  0
  6  7  1  0  0  0  0
  7  8  1  0  0  0  0
  8  9  1  0  0  0  0
  9 10  1  0  0  0  0
 10 11  1  0  0  0  0
 11 12  1  0  0  0  0
 12 13  1  0  0  0  0
 13 14  1  0  0  0  0
 14 15  1  0  0  0  0
 16 17  1  0  0  0  0
  5 16  1  0  0  0  0
 18 19  1  0  0  0  0
  5 18  1  0  0  0  0
M  END
>  <cdx:groupId>
209340

>  <cdx:fragmentId>
209287

$$$$
