97747.cdx
  Mrv1902 05222410262D          

 18 18  0  0  0  0            999 V2000
   12.6264   -3.1479    0.0000 C   0  0  0  0  0  0  0  0  0  0  0  0
   11.9119   -3.5604    0.0000 C   0  0  0  0  0  0  0  0  0  0  0  0
   11.1974   -3.1479    0.0000 C   0  0  0  0  0  0  0  0  0  0  0  0
   10.4829   -3.5604    0.0000 C   0  0  0  0  0  0  0  0  0  0  0  0
    9.7685   -3.1479    0.0000 C   0  0  0  0  0  0  0  0  0  0  0  0
    9.0540   -3.5604    0.0000 C   0  0  0  0  0  0  0  0  0  0  0  0
    8.3395   -3.1479    0.0000 C   0  0  0  0  0  0  0  0  0  0  0  0
    7.6251   -3.5604    0.0000 C   0  0  0  0  0  0  0  0  0  0  0  0
    6.9106   -3.1479    0.0000 C   0  0  0  0  0  0  0  0  0  0  0  0
    6.1961   -3.5604    0.0000 C   0  0  0  0  0  0  0  0  0  0  0  0
    5.4817   -3.1479    0.0000 C   0  0  0  0  0  0  0  0  0  0  0  0
    4.7672   -3.5604    0.0000 C   0  0  0  0  0  0  0  0  0  0  0  0
    1.9265   -2.9566    0.0000 O   0  0  0  0  0  0  0  0  0  0  0  0
    4.0527   -3.1479    0.0000 C   0  0  0  0  0  0  0  0  0  0  0  0
    3.9665   -2.3274    0.0000 C   0  0  0  0  0  0  0  0  0  0  0  0
    3.1595   -2.1559    0.0000 C   0  0  0  0  0  0  0  0  0  0  0  0
    2.7470   -2.8703    0.0000 C   0  0  0  0  0  0  0  0  0  0  0  0
    3.2990   -3.4834    0.0000 O   0  0  0  0  0  0  0  0  0  0  0  0
 14 12  1  0  0  0  0
  2  1  1  0  0  0  0
  3  2  1  0  0  0  0
  4  3  1  0  0  0  0
  5  4  1  0  0  0  0
  6  5  1  0  0  0  0
  7  6  1  0  0  0  0
  8  7  1  0  0  0  0
  9  8  1  0  0  0  0
 10  9  1  0  0  0  0
 11 10  1  0  0  0  0
 12 11  1  0  0  0  0
 17 13  2  0  0  0  0
 18 14  1  0  0  0  0
 15 14  1  0  0  0  0
 16 15  1  0  0  0  0
 17 16  1  0  0  0  0
 18 17  1  0  0  0  0
M  END
>  <cdx:groupId>
56

>  <cdx:fragmentId>
17

$$$$
