9977571.cdx
  Mrv1902 05222410232D          

 28 29  0  0  0  0            999 V2000
    6.5290  -12.3084    0.0000 C   0  0  0  0  0  0  0  0  0  0  0  0
    5.8146  -12.7209    0.0000 C   0  0  0  0  0  0  0  0  0  0  0  0
    5.1001  -12.3084    0.0000 C   0  0  0  0  0  0  0  0  0  0  0  0
    6.5290  -11.4834    0.0000 O   0  0  0  0  0  0  0  0  0  0  0  0
    7.2435  -12.7209    0.0000 O   0  0  0  0  0  0  0  0  0  0  0  0
    4.3856  -12.7209    0.0000 C   0  0  0  0  0  0  0  0  0  0  0  0
    3.6711  -12.3084    0.0000 C   0  0  0  0  0  0  0  0  0  0  0  0
    2.9567  -12.7209    0.0000 C   0  0  0  0  0  0  0  0  0  0  0  0
    2.9567  -13.5459    0.0000 C   0  0  0  0  0  0  0  0  0  0  0  0
    3.6711  -13.9584    0.0000 C   0  0  0  0  0  0  0  0  0  0  0  0
    4.3856  -13.5459    0.0000 C   0  0  0  0  0  0  0  0  0  0  0  0
    2.2422  -13.9584    0.0000 O   0  0  0  0  0  0  0  0  0  0  0  0
    1.5277  -13.5459    0.0000 C   0  0  0  0  0  0  0  0  0  0  0  0
    2.2422  -12.3084    0.0000 O   0  0  0  0  0  0  0  0  0  0  0  0
    1.5277  -12.7209    0.0000 C   0  0  0  0  0  0  0  0  0  0  0  0
    7.9580  -12.3084    0.0000 C   0  0  0  0  0  0  0  0  0  0  0  0
    8.6724  -12.7209    0.0000 C   0  0  0  0  0  0  0  0  0  0  0  0
    9.3869  -12.3084    0.0000 C   0  0  0  0  0  0  0  0  0  0  0  0
   10.1014  -12.7209    0.0000 C   0  0  0  0  0  0  0  0  0  0  0  0
   10.8159  -12.3084    0.0000 C   0  0  0  0  0  0  0  0  0  0  0  0
   11.5303  -12.7209    0.0000 C   0  0  0  0  0  0  0  0  0  0  0  0
   11.5303  -13.5459    0.0000 C   0  0  0  0  0  0  0  0  0  0  0  0
   10.8159  -13.9584    0.0000 C   0  0  0  0  0  0  0  0  0  0  0  0
   10.1014  -13.5459    0.0000 C   0  0  0  0  0  0  0  0  0  0  0  0
   12.2448  -13.9584    0.0000 O   0  0  0  0  0  0  0  0  0  0  0  0
   12.9593  -13.5459    0.0000 C   0  0  0  0  0  0  0  0  0  0  0  0
   12.2448  -12.3084    0.0000 O   0  0  0  0  0  0  0  0  0  0  0  0
   12.9593  -12.7209    0.0000 C   0  0  0  0  0  0  0  0  0  0  0  0
  1  2  1  0  0  0  0
  2  3  1  0  0  0  0
  1  4  2  0  0  0  0
  1  5  1  0  0  0  0
  6  7  1  0  0  0  0
  7  8  2  0  0  0  0
  8  9  1  0  0  0  0
  9 10  2  0  0  0  0
 10 11  1  0  0  0  0
  6 11  2  0  0  0  0
 12 13  1  0  0  0  0
  9 12  1  0  0  0  0
 14 15  1  0  0  0  0
  8 14  1  0  0  0  0
  3  6  1  0  0  0  0
 16 17  1  0  0  0  0
 17 18  1  0  0  0  0
 19 20  1  0  0  0  0
 20 21  2  0  0  0  0
 21 22  1  0  0  0  0
 22 23  2  0  0  0  0
 23 24  1  0  0  0  0
 19 24  2  0  0  0  0
 25 26  1  0  0  0  0
 22 25  1  0  0  0  0
 27 28  1  0  0  0  0
 21 27  1  0  0  0  0
 18 19  1  0  0  0  0
  5 16  1  0  0  0  0
M  END
>  <cdx:groupId>
34018

>  <cdx:fragmentId>
33946

$$$$
