97755.cdx
  Mrv1902 05222410272D          

 45 49  0  0  0  0            999 V2000
    9.1595   -7.3510    0.0000 O   0  0  0  0  0  0  0  0  0  0  0  0
    6.3016   -8.1760    0.0000 O   0  0  0  0  0  0  0  0  0  0  0  0
    4.8726   -5.7010    0.0000 O   0  0  0  0  0  0  0  0  0  0  0  0
   11.3029   -4.4635    0.0000 O   0  0  0  0  0  0  0  0  0  0  0  0
    9.1595   -4.8760    0.0000 C   0  0  0  0  0  0  0  0  0  0  0  0
    9.8739   -4.4635    0.0000 C   0  0  0  0  0  0  0  0  0  0  0  0
   10.5884   -4.8760    0.0000 C   0  0  0  0  0  0  0  0  0  0  0  0
   10.5884   -5.7010    0.0000 C   0  0  0  0  0  0  0  0  0  0  0  0
    9.8739   -6.1135    0.0000 C   0  0  0  0  0  0  0  0  0  0  0  0
    9.1595   -5.7010    0.0000 C   0  0  0  0  0  0  0  0  0  0  0  0
    7.7305   -8.1760    0.0000 O   0  0  0  0  0  0  0  0  0  0  0  0
    7.7305   -5.7010    0.0000 O   0  0  0  0  0  0  0  0  0  0  0  0
    7.0160   -6.1135    0.0000 C   0  0  0  0  0  0  0  0  0  0  0  0
    6.3016   -5.7010    0.0000 C   0  0  0  0  0  0  0  0  0  0  0  0
    5.5871   -6.1135    0.0000 C   0  0  0  0  0  0  0  0  0  0  0  0
    5.5871   -6.9385    0.0000 C   0  0  0  0  0  0  0  0  0  0  0  0
    6.3016   -7.3510    0.0000 C   0  0  0  0  0  0  0  0  0  0  0  0
    7.0160   -6.9385    0.0000 C   0  0  0  0  0  0  0  0  0  0  0  0
    7.7305   -7.3510    0.0000 C   0  0  0  0  0  0  0  0  0  0  0  0
    8.4450   -6.9385    0.0000 C   0  0  0  0  0  0  0  0  0  0  0  0
    8.4450   -6.1135    0.0000 C   0  0  0  0  0  0  0  0  0  0  0  0
    8.4410   -9.4110    0.0000 C   0  0  2  0  0  0  0  0  0  0  0  0
    9.1571   -9.8208    0.0000 C   0  0  2  0  0  0  0  0  0  0  0  0
    9.8700   -9.4055    0.0000 C   0  0  1  0  0  0  0  0  0  0  0  0
    9.8668   -8.5806    0.0000 C   0  0  2  0  0  0  0  0  0  0  0  0
    9.1507   -8.1708    0.0000 C   0  0  1  0  0  0  0  0  0  0  0  0
    8.4379   -8.5861    0.0000 O   0  0  0  0  0  0  0  0  0  0  0  0
    7.7282   -9.8263    0.0000 C   0  0  0  0  0  0  0  0  0  0  0  0
   10.5860   -9.8153    0.0000 O   0  0  0  0  0  0  0  0  0  0  0  0
    9.1603  -10.6458    0.0000 O   0  0  0  0  0  0  0  0  0  0  0  0
   10.5797   -8.1653    0.0000 O   0  0  0  0  0  0  0  0  0  0  0  0
    7.7313  -10.6513    0.0000 O   0  0  0  0  0  0  0  0  0  0  0  0
    2.7272   -6.1135    0.0000 C   0  0  2  0  0  0  0  0  0  0  0  0
    2.7272   -6.9385    0.0000 C   0  0  2  0  0  0  0  0  0  0  0  0
    3.4416   -7.3510    0.0000 C   0  0  1  0  0  0  0  0  0  0  0  0
    4.1561   -6.9385    0.0000 C   0  0  2  0  0  0  0  0  0  0  0  0
    4.1561   -6.1135    0.0000 C   0  0  1  0  0  0  0  0  0  0  0  0
    3.4416   -5.7010    0.0000 O   0  0  0  0  0  0  0  0  0  0  0  0
    2.0127   -5.7010    0.0000 C   0  0  0  0  0  0  0  0  0  0  0  0
    3.4416   -8.1760    0.0000 O   0  0  0  0  0  0  0  0  0  0  0  0
    2.0127   -7.3510    0.0000 O   0  0  0  0  0  0  0  0  0  0  0  0
    4.8706   -7.3510    0.0000 O   0  0  0  0  0  0  0  0  0  0  0  0
    1.2982   -6.1135    0.0000 O   0  0  0  0  0  0  0  0  0  0  0  0
    9.8739   -3.6385    0.0000 O   0  0  0  0  0  0  0  0  0  0  0  0
   10.5884   -3.2260    0.0000 C   0  0  0  0  0  0  0  0  0  0  0  0
 20  1  1  0  0  0  0
 17  2  1  0  0  0  0
 15  3  1  0  0  0  0
 21 10  1  0  0  0  0
  7  4  1  0  0  0  0
 10  5  2  0  0  0  0
  6  5  1  0  0  0  0
  7  6  2  0  0  0  0
  8  7  1  0  0  0  0
  9  8  2  0  0  0  0
 10  9  1  0  0  0  0
 19 11  2  0  0  0  0
 21 12  1  0  0  0  0
 13 12  1  0  0  0  0
 18 13  2  0  0  0  0
 14 13  1  0  0  0  0
 15 14  2  0  0  0  0
 16 15  1  0  0  0  0
 17 16  2  0  0  0  0
 18 17  1  0  0  0  0
 19 18  1  0  0  0  0
 20 19  1  0  0  0  0
 21 20  2  0  0  0  0
 22 23  1  0  0  0  0
 23 24  1  0  0  0  0
 24 25  1  0  0  0  0
 25 26  1  0  0  0  0
 26 27  1  0  0  0  0
 27 22  1  0  0  0  0
 22 28  1  1  0  0  0
 24 29  1  1  0  0  0
 23 30  1  6  0  0  0
 25 31  1  6  0  0  0
 28 32  1  0  0  0  0
 33 34  1  0  0  0  0
 34 35  1  0  0  0  0
 35 36  1  0  0  0  0
 36 37  1  0  0  0  0
 37 38  1  0  0  0  0
 38 33  1  0  0  0  0
 33 39  1  1  0  0  0
 35 40  1  1  0  0  0
 34 41  1  6  0  0  0
 36 42  1  6  0  0  0
 39 43  1  0  0  0  0
 26  1  1  1  0  0  0
 37  3  1  1  0  0  0
  6 44  1  0  0  0  0
 44 45  1  0  0  0  0
M  END
>  <cdx:fragmentId>
5

$$$$
