97756.cdx
  Mrv1902 05222410282D          

 23 24  0  0  0  0            999 V2000
    7.7499   -9.2410    0.0000 O   0  0  0  0  0  0  0  0  0  0  0  0
    7.0274  -11.2997    0.0000 C   0  0  2  0  0  0  0  0  0  0  0  0
    7.7426  -11.7108    0.0000 C   0  0  2  0  0  0  0  0  0  0  0  0
    8.4563  -11.2970    0.0000 C   0  0  1  0  0  0  0  0  0  0  0  0
    8.4548  -10.4720    0.0000 C   0  0  2  0  0  0  0  0  0  0  0  0
    7.7395  -10.0608    0.0000 C   0  0  1  0  0  0  0  0  0  0  0  0
    7.0258  -10.4747    0.0000 O   0  0  0  0  0  0  0  0  0  0  0  0
    6.3137  -11.7135    0.0000 C   0  0  0  0  0  0  0  0  0  0  0  0
    9.1716  -11.7081    0.0000 O   0  0  0  0  0  0  0  0  0  0  0  0
    7.7442  -12.5358    0.0000 O   0  0  0  0  0  0  0  0  0  0  0  0
    9.1685  -10.0581    0.0000 O   0  0  0  0  0  0  0  0  0  0  0  0
    6.3153  -12.5385    0.0000 O   0  0  0  0  0  0  0  0  0  0  0  0
    7.0302   -8.8385    0.0000 C   0  0  0  0  0  0  0  0  0  0  0  0
    6.3194   -9.2573    0.0000 C   0  0  0  0  0  0  0  0  0  0  0  0
    7.0229   -8.0135    0.0000 O   0  0  0  0  0  0  0  0  0  0  0  0
    5.6013   -8.8511    0.0000 C   0  0  0  0  0  0  0  0  0  0  0  0
    4.8906   -9.2700    0.0000 C   0  0  0  0  0  0  0  0  0  0  0  0
    4.1725   -8.8638    0.0000 C   0  0  0  0  0  0  0  0  0  0  0  0
    3.4617   -9.2826    0.0000 C   0  0  0  0  0  0  0  0  0  0  0  0
    3.4690  -10.1076    0.0000 C   0  0  0  0  0  0  0  0  0  0  0  0
    4.1871  -10.5137    0.0000 C   0  0  0  0  0  0  0  0  0  0  0  0
    4.8979  -10.0949    0.0000 C   0  0  0  0  0  0  0  0  0  0  0  0
    2.7582  -10.5264    0.0000 O   0  0  0  0  0  0  0  0  0  0  0  0
  2  3  1  0  0  0  0
  3  4  1  0  0  0  0
  4  5  1  0  0  0  0
  5  6  1  0  0  0  0
  6  7  1  0  0  0  0
  7  2  1  0  0  0  0
  2  8  1  1  0  0  0
  4  9  1  1  0  0  0
  3 10  1  6  0  0  0
  5 11  1  6  0  0  0
  8 12  1  0  0  0  0
  6  1  1  1  0  0  0
 13 14  1  0  0  0  0
 13 15  2  0  0  0  0
 14 16  2  0  0  0  0
 16 17  1  0  0  0  0
 17 18  2  0  0  0  0
 18 19  1  0  0  0  0
 19 20  2  0  0  0  0
 20 21  1  0  0  0  0
 21 22  2  0  0  0  0
 22 17  1  0  0  0  0
 20 23  1  0  0  0  0
 13  1  1  0  0  0  0
M  END
>  <cdx:fragmentId>
5

$$$$
