97768.cdx
  Mrv1902 05222410272D          

 10 10  0  0  0  0            999 V2000
    7.8725   -8.8688    0.0000 C   0  0  0  0  0  0  0  0  0  0  0  0
    7.1580   -9.2813    0.0000 C   0  0  0  0  0  0  0  0  0  0  0  0
    6.4435   -8.8688    0.0000 C   0  0  0  0  0  0  0  0  0  0  0  0
    6.4435   -8.0437    0.0000 C   0  0  0  0  0  0  0  0  0  0  0  0
    7.1580   -7.6313    0.0000 C   0  0  0  0  0  0  0  0  0  0  0  0
    7.8725   -8.0437    0.0000 C   0  0  0  0  0  0  0  0  0  0  0  0
    8.5869   -9.2813    0.0000 C   0  0  0  0  0  0  0  0  0  0  0  0
    9.3014   -8.8688    0.0000 O   0  0  0  0  0  0  0  0  0  0  0  0
    5.7290   -7.6313    0.0000 C   0  0  0  0  0  0  0  0  0  0  0  0
    5.0146   -8.0437    0.0000 C   0  0  0  0  0  0  0  0  0  0  0  0
  1  2  1  0  0  0  0
  2  3  2  0  0  0  0
  3  4  1  0  0  0  0
  4  5  2  0  0  0  0
  5  6  1  0  0  0  0
  1  6  2  0  0  0  0
  7  8  2  0  0  0  0
  1  7  1  0  0  0  0
  9 10  1  0  0  0  0
  4  9  1  0  0  0  0
M  END
>  <cdx:fragmentId>
5

$$$$
