97767.cdx
  Mrv1902 05222410182D          

  7  6  0  0  0  0            999 V2000
    6.1702   -8.7180    0.0000 C   0  0  0  0  0  0  0  0  0  0  0  0
    6.8846   -9.1305    0.0000 C   0  0  0  0  0  0  0  0  0  0  0  0
    7.5991   -8.7180    0.0000 C   0  0  0  0  0  0  0  0  0  0  0  0
    8.3136   -9.1305    0.0000 C   0  0  0  0  0  0  0  0  0  0  0  0
    9.0280   -8.7180    0.0000 C   0  0  0  0  0  0  0  0  0  0  0  0
    5.4557   -8.3055    0.0000 N   0  0  0  0  0  0  0  0  0  0  0  0
    7.5991   -7.8930    0.0000 O   0  0  0  0  0  0  0  0  0  0  0  0
  1  2  1  0  0  0  0
  2  3  1  0  0  0  0
  3  4  1  0  0  0  0
  4  5  2  0  0  0  0
  1  6  3  0  0  0  0
  3  7  1  0  0  0  0
M  END
>  <cdx:fragmentId>
5

$$$$
