97764.cdx
  Mrv1902 05222410182D          

  8  7  0  0  0  0            999 V2000
    7.2381   -8.8772    0.0000 C   0  0  0  0  0  0  0  0  0  0  0  0
    7.9525   -8.4647    0.0000 C   0  0  0  0  0  0  0  0  0  0  0  0
    8.6670   -8.8772    0.0000 C   0  0  0  0  0  0  0  0  0  0  0  0
    9.3815   -8.4647    0.0000 C   0  0  0  0  0  0  0  0  0  0  0  0
    7.9525   -7.6397    0.0000 O   0  0  0  0  0  0  0  0  0  0  0  0
    6.5236   -8.4647    0.0000 N   0  0  0  0  0  0  0  0  0  0  0  0
    5.8091   -8.8772    0.0000 C   0  0  0  0  0  0  0  0  0  0  0  0
    5.0947   -9.2897    0.0000 S   0  0  0  0  0  0  0  0  0  0  0  0
  1  2  1  0  0  0  0
  2  3  1  0  0  0  0
  3  4  2  0  0  0  0
  2  5  1  0  0  0  0
  6  7  2  0  0  0  0
  7  8  2  0  0  0  0
  1  6  1  0  0  0  0
M  END
>  <cdx:fragmentId>
5

$$$$
