97769.cdx
  Mrv1902 05222410272D          

  8  8  0  0  0  0            999 V2000
    7.1614   -8.8688    0.0000 C   0  0  0  0  0  0  0  0  0  0  0  0
    6.4470   -9.2813    0.0000 C   0  0  0  0  0  0  0  0  0  0  0  0
    5.7325   -8.8688    0.0000 C   0  0  0  0  0  0  0  0  0  0  0  0
    5.7325   -8.0437    0.0000 C   0  0  0  0  0  0  0  0  0  0  0  0
    6.4470   -7.6313    0.0000 C   0  0  0  0  0  0  0  0  0  0  0  0
    7.1614   -8.0437    0.0000 C   0  0  0  0  0  0  0  0  0  0  0  0
    7.8759   -9.2813    0.0000 C   0  0  0  0  0  0  0  0  0  0  0  0
    8.5904   -8.8688    0.0000 O   0  0  0  0  0  0  0  0  0  0  0  0
  1  2  1  0  0  0  0
  2  3  2  0  0  0  0
  3  4  1  0  0  0  0
  4  5  2  0  0  0  0
  5  6  1  0  0  0  0
  1  6  2  0  0  0  0
  7  8  2  0  0  0  0
  1  7  1  0  0  0  0
M  END
>  <cdx:fragmentId>
5

$$$$
