97763.cdx
  Mrv1902 05222410202D          

  8  8  0  0  0  0            999 V2000
    8.0614   -8.6988    0.0000 C   0  0  0  0  0  0  0  0  0  0  0  0
    7.3469   -9.1113    0.0000 C   0  0  0  0  0  0  0  0  0  0  0  0
    6.6325   -8.6988    0.0000 C   0  0  0  0  0  0  0  0  0  0  0  0
    5.8788   -9.0343    0.0000 C   0  0  0  0  0  0  0  0  0  0  0  0
    5.3268   -8.4212    0.0000 C   0  0  0  0  0  0  0  0  0  0  0  0
    5.7393   -7.7068    0.0000 C   0  0  0  0  0  0  0  0  0  0  0  0
    6.5462   -7.8783    0.0000 C   0  0  0  0  0  0  0  0  0  0  0  0
    8.7759   -9.1113    0.0000 O   0  0  0  0  0  0  0  0  0  0  0  0
  1  2  1  0  0  0  0
  3  4  1  0  0  0  0
  4  5  1  0  0  0  0
  5  6  1  0  0  0  0
  6  7  1  0  0  0  0
  3  7  1  0  0  0  0
  2  3  1  0  0  0  0
  1  8  1  0  0  0  0
M  END
>  <cdx:fragmentId>
9

$$$$
