97765.cdx
  Mrv1902 05222410192D          

 18 17  0  0  0  0            999 V2000
   12.0476   -9.0671    0.0000 C   0  0  0  0  0  0  0  0  0  0  0  0
   11.3331   -8.6546    0.0000 C   0  0  0  0  0  0  0  0  0  0  0  0
   10.6187   -9.0671    0.0000 C   0  0  0  0  0  0  0  0  0  0  0  0
    9.9042   -8.6546    0.0000 C   0  0  0  0  0  0  0  0  0  0  0  0
    9.1897   -9.0671    0.0000 C   0  0  0  0  0  0  0  0  0  0  0  0
    8.4753   -8.6546    0.0000 C   0  0  0  0  0  0  0  0  0  0  0  0
    7.7608   -9.0671    0.0000 C   0  0  0  0  0  0  0  0  0  0  0  0
    7.0463   -8.6546    0.0000 C   0  0  0  0  0  0  0  0  0  0  0  0
    6.3318   -9.0671    0.0000 C   0  0  0  0  0  0  0  0  0  0  0  0
    5.6174   -8.6546    0.0000 C   0  0  0  0  0  0  0  0  0  0  0  0
    4.9029   -9.0671    0.0000 C   0  0  0  0  0  0  0  0  0  0  0  0
    4.1884   -8.6546    0.0000 C   0  0  0  0  0  0  0  0  0  0  0  0
    3.4740   -9.0671    0.0000 C   0  0  0  0  0  0  0  0  0  0  0  0
    2.7595   -8.6546    0.0000 C   0  0  0  0  0  0  0  0  0  0  0  0
    2.0450   -9.0671    0.0000 C   0  0  0  0  0  0  0  0  0  0  0  0
    1.3305   -8.6546    0.0000 C   0  0  0  0  0  0  0  0  0  0  0  0
   12.7621   -8.6546    0.0000 O   0  0  0  0  0  0  0  0  0  0  0  0
   11.3331   -7.8296    0.0000 C   0  0  0  0  0  0  0  0  0  0  0  0
  1  2  1  0  0  0  0
  2  3  1  0  0  0  0
  3  4  1  0  0  0  0
  4  5  1  0  0  0  0
  5  6  1  0  0  0  0
  6  7  1  0  0  0  0
  7  8  1  0  0  0  0
  8  9  1  0  0  0  0
  9 10  1  0  0  0  0
 10 11  1  0  0  0  0
 11 12  1  0  0  0  0
 12 13  1  0  0  0  0
 13 14  1  0  0  0  0
 14 15  1  0  0  0  0
 15 16  1  0  0  0  0
  1 17  1  0  0  0  0
  2 18  1  0  0  0  0
M  END
>  <cdx:fragmentId>
5

$$$$
