97774.cdx
  Mrv1902 05222410202D          

  3  2  0  0  0  0            999 V2000
    7.1880   -8.4647    0.0000 C   0  0  0  0  0  0  0  0  0  0  0  0
    8.0130   -8.4647    0.0000 O   0  0  0  0  0  0  0  0  0  0  0  0
    6.3630   -8.4647    0.0000 S   0  0  0  0  0  0  0  0  0  0  0  0
  1  2  2  0  0  0  0
  1  3  2  0  0  0  0
M  END
>  <cdx:fragmentId>
5

$$$$
