97779.cdx
  Mrv1902 05222410262D          

  8  7  0  0  0  0            999 V2000
    5.4557   -8.5094    0.0000 C   0  0  0  0  0  0  0  0  0  0  0  0
    6.1702   -8.9219    0.0000 C   0  0  0  0  0  0  0  0  0  0  0  0
    6.8846   -8.5094    0.0000 C   0  0  0  0  0  0  0  0  0  0  0  0
    7.5991   -8.9219    0.0000 C   0  0  0  0  0  0  0  0  0  0  0  0
    8.3136   -8.5094    0.0000 C   0  0  0  0  0  0  0  0  0  0  0  0
    9.0280   -8.9219    0.0000 C   0  0  0  0  0  0  0  0  0  0  0  0
    9.7425   -8.5094    0.0000 C   0  0  0  0  0  0  0  0  0  0  0  0
    4.7412   -8.0969    0.0000 N   0  0  0  0  0  0  0  0  0  0  0  0
  1  2  1  0  0  0  0
  2  3  1  0  0  0  0
  3  4  1  0  0  0  0
  4  5  1  0  0  0  0
  5  6  1  0  0  0  0
  6  7  1  0  0  0  0
  1  8  3  0  0  0  0
M  END
>  <cdx:fragmentId>
5

$$$$
