97776.cdx
  Mrv1902 05222410202D          

  6  5  0  0  0  0            999 V2000
    6.6305   -8.8197    0.0000 C   0  0  0  0  0  0  0  0  0  0  0  0
    7.3450   -9.2322    0.0000 C   0  0  0  0  0  0  0  0  0  0  0  0
    8.0595   -8.8197    0.0000 C   0  0  0  0  0  0  0  0  0  0  0  0
    8.0595   -7.9947    0.0000 C   0  0  0  0  0  0  0  0  0  0  0  0
    8.7739   -7.5822    0.0000 C   0  0  0  0  0  0  0  0  0  0  0  0
    5.9160   -9.2322    0.0000 O   0  0  0  0  0  0  0  0  0  0  0  0
  1  2  1  0  0  0  0
  2  3  2  0  0  0  0
  3  4  1  0  0  0  0
  4  5  1  0  0  0  0
  1  6  1  0  0  0  0
M  END
>  <cdx:fragmentId>
5

$$$$
