97777.cdx
  Mrv1902 05222410202D          

  6  6  0  0  0  0            999 V2000
    7.3337   -8.3080    0.0000 C   0  0  0  0  0  0  0  0  0  0  0  0
    7.0788   -9.0926    0.0000 C   0  0  0  0  0  0  0  0  0  0  0  0
    6.2538   -9.0926    0.0000 C   0  0  0  0  0  0  0  0  0  0  0  0
    5.9988   -8.3080    0.0000 C   0  0  0  0  0  0  0  0  0  0  0  0
    6.6663   -7.8231    0.0000 C   0  0  0  0  0  0  0  0  0  0  0  0
    8.1183   -8.0531    0.0000 S   0  0  0  0  0  0  0  0  0  0  0  0
  1  2  1  0  0  0  0
  2  3  1  0  0  0  0
  3  4  1  0  0  0  0
  4  5  1  0  0  0  0
  1  5  1  0  0  0  0
  1  6  1  0  0  0  0
M  END
>  <cdx:fragmentId>
5

$$$$
