9777.cdx
  Mrv1902 05222410262D          

 13 12  0  0  0  0            999 V2000
    8.0310   -5.2959    0.0000 C   0  0  0  0  0  0  0  0  0  0  0  0
    7.3165   -5.7084    0.0000 C   0  0  0  0  0  0  0  0  0  0  0  0
    6.6020   -5.2959    0.0000 C   0  0  0  0  0  0  0  0  0  0  0  0
    5.8876   -5.7084    0.0000 C   0  0  0  0  0  0  0  0  0  0  0  0
    8.0310   -4.4709    0.0000 O   0  0  0  0  0  0  0  0  0  0  0  0
    8.7454   -5.7084    0.0000 O   0  0  0  0  0  0  0  0  0  0  0  0
    5.1731   -6.1209    0.0000 F   0  0  0  0  0  0  0  0  0  0  0  0
    5.8876   -6.5334    0.0000 F   0  0  0  0  0  0  0  0  0  0  0  0
    5.1731   -5.2959    0.0000 F   0  0  0  0  0  0  0  0  0  0  0  0
    7.0145   -4.5815    0.0000 F   0  0  0  0  0  0  0  0  0  0  0  0
    6.1895   -4.5815    0.0000 F   0  0  0  0  0  0  0  0  0  0  0  0
    6.9040   -6.4229    0.0000 F   0  0  0  0  0  0  0  0  0  0  0  0
    7.7290   -6.4229    0.0000 F   0  0  0  0  0  0  0  0  0  0  0  0
  1  2  1  0  0  0  0
  2  3  1  0  0  0  0
  3  4  1  0  0  0  0
  1  5  2  0  0  0  0
  1  6  1  0  0  0  0
  4  7  1  0  0  0  0
  4  8  1  0  0  0  0
  4  9  1  0  0  0  0
  3 10  1  0  0  0  0
  3 11  1  0  0  0  0
  2 12  1  0  0  0  0
  2 13  1  0  0  0  0
M  END
>  <cdx:fragmentId>
5

$$$$
