97775.cdx
  Mrv1902 05222410192D          

 10  9  0  0  0  0            999 V2000
    5.1147   -8.0779    0.0000 C   0  0  0  0  0  0  0  0  0  0  0  0
    5.1147   -8.9029    0.0000 C   0  0  0  0  0  0  0  0  0  0  0  0
    5.8291   -9.3154    0.0000 C   0  0  0  0  0  0  0  0  0  0  0  0
    6.5436   -8.9029    0.0000 C   0  0  0  0  0  0  0  0  0  0  0  0
    7.2581   -9.3154    0.0000 C   0  0  0  0  0  0  0  0  0  0  0  0
    7.9725   -8.9029    0.0000 C   0  0  0  0  0  0  0  0  0  0  0  0
    8.6870   -9.3154    0.0000 C   0  0  0  0  0  0  0  0  0  0  0  0
    9.4015   -8.9029    0.0000 C   0  0  0  0  0  0  0  0  0  0  0  0
   10.1159   -9.3154    0.0000 C   0  0  0  0  0  0  0  0  0  0  0  0
    4.4002   -7.6654    0.0000 O   0  0  0  0  0  0  0  0  0  0  0  0
  1  2  1  0  0  0  0
  2  3  2  0  0  0  0
  3  4  1  0  0  0  0
  4  5  1  0  0  0  0
  5  6  1  0  0  0  0
  6  7  2  0  0  0  0
  7  8  1  0  0  0  0
  8  9  1  0  0  0  0
  1 10  2  0  0  0  0
M  END
>  <cdx:fragmentId>
5

$$$$
