97770.cdx
  Mrv1902 05222410182D          

  5  4  0  0  0  0            999 V2000
    6.5188   -8.2219    0.0000 C   0  0  0  0  0  0  0  0  0  0  0  0
    7.2333   -8.6344    0.0000 C   0  0  0  0  0  0  0  0  0  0  0  0
    7.9478   -8.2219    0.0000 C   0  0  0  0  0  0  0  0  0  0  0  0
    8.6623   -8.6344    0.0000 C   0  0  0  0  0  0  0  0  0  0  0  0
    5.8044   -8.6344    0.0000 O   0  0  0  0  0  0  0  0  0  0  0  0
  1  2  1  0  0  0  0
  2  3  2  0  0  0  0
  3  4  1  0  0  0  0
  1  5  2  0  0  0  0
M  END
>  <cdx:fragmentId>
5

$$$$
