97787.cdx
  Mrv1902 05222410272D          

  8  7  0  0  0  0            999 V2000
    6.8808   -8.4661    0.0000 C   0  0  0  0  0  0  0  0  0  0  0  0
    7.5953   -8.8786    0.0000 C   0  0  0  0  0  0  0  0  0  0  0  0
    8.3098   -8.4661    0.0000 C   0  0  0  0  0  0  0  0  0  0  0  0
    9.0242   -8.8786    0.0000 C   0  0  0  0  0  0  0  0  0  0  0  0
    9.7387   -8.4661    0.0000 C   0  0  0  0  0  0  0  0  0  0  0  0
    6.1664   -8.8786    0.0000 N   0  0  0  0  0  0  0  0  0  0  0  0
    5.4519   -8.4661    0.0000 C   0  0  0  0  0  0  0  0  0  0  0  0
    4.7374   -8.0536    0.0000 S   0  0  0  0  0  0  0  0  0  0  0  0
  1  2  1  0  0  0  0
  2  3  1  0  0  0  0
  3  4  1  0  0  0  0
  4  5  1  0  0  0  0
  6  7  2  0  0  0  0
  7  8  2  0  0  0  0
  1  6  1  0  0  0  0
M  END
>  <cdx:fragmentId>
5

$$$$
