97785.cdx
  Mrv1902 05222410262D          

  9  8  0  0  0  0            999 V2000
    5.0984   -8.5094    0.0000 C   0  0  0  0  0  0  0  0  0  0  0  0
    5.8129   -8.9219    0.0000 C   0  0  0  0  0  0  0  0  0  0  0  0
    6.5274   -8.5094    0.0000 C   0  0  0  0  0  0  0  0  0  0  0  0
    7.2419   -8.9219    0.0000 C   0  0  0  0  0  0  0  0  0  0  0  0
    7.9563   -8.5094    0.0000 C   0  0  0  0  0  0  0  0  0  0  0  0
    8.6708   -8.9219    0.0000 C   0  0  0  0  0  0  0  0  0  0  0  0
    9.3853   -8.5094    0.0000 C   0  0  0  0  0  0  0  0  0  0  0  0
   10.0997   -8.9219    0.0000 C   0  0  0  0  0  0  0  0  0  0  0  0
    4.3840   -8.0969    0.0000 N   0  0  0  0  0  0  0  0  0  0  0  0
  1  2  1  0  0  0  0
  2  3  1  0  0  0  0
  3  4  1  0  0  0  0
  4  5  1  0  0  0  0
  5  6  1  0  0  0  0
  6  7  1  0  0  0  0
  7  8  1  0  0  0  0
  1  9  3  0  0  0  0
M  END
>  <cdx:fragmentId>
5

$$$$
