97780.cdx
  Mrv1902 05222410272D          

  9  8  0  0  0  0            999 V2000
    7.8677   -8.4661    0.0000 C   0  0  0  0  0  0  0  0  0  0  0  0
    7.1532   -8.8786    0.0000 C   0  0  0  0  0  0  0  0  0  0  0  0
    6.4388   -8.4661    0.0000 C   0  0  0  0  0  0  0  0  0  0  0  0
    5.7243   -8.8786    0.0000 C   0  0  0  0  0  0  0  0  0  0  0  0
    5.0098   -8.4661    0.0000 C   0  0  0  0  0  0  0  0  0  0  0  0
    4.2953   -8.8786    0.0000 C   0  0  0  0  0  0  0  0  0  0  0  0
    8.5822   -8.8786    0.0000 N   0  0  0  0  0  0  0  0  0  0  0  0
    9.2966   -8.4661    0.0000 C   0  0  0  0  0  0  0  0  0  0  0  0
   10.0111   -8.0536    0.0000 S   0  0  0  0  0  0  0  0  0  0  0  0
  1  2  1  0  0  0  0
  2  3  1  0  0  0  0
  3  4  1  0  0  0  0
  4  5  1  0  0  0  0
  5  6  1  0  0  0  0
  7  8  2  0  0  0  0
  8  9  2  0  0  0  0
  1  7  1  0  0  0  0
M  END
>  <cdx:fragmentId>
5

$$$$
