97782.cdx
  Mrv1902 05222410272D          

  4  3  0  0  0  0            999 V2000
    8.3136   -8.4661    0.0000 C   0  0  0  0  0  0  0  0  0  0  0  0
    7.5991   -8.0536    0.0000 S   0  0  0  0  0  0  0  0  0  0  0  0
    6.8846   -8.4661    0.0000 C   0  0  0  0  0  0  0  0  0  0  0  0
    6.1702   -8.8786    0.0000 N   0  0  0  0  0  0  0  0  0  0  0  0
  2  3  1  0  0  0  0
  3  4  3  0  0  0  0
  1  2  1  0  0  0  0
M  END
>  <cdx:fragmentId>
7

$$$$
