97784.cdx
  Mrv1902 05222410262D          

 10  9  0  0  0  0            999 V2000
    9.6963   -8.6710    0.0000 C   0  0  0  0  0  0  0  0  0  0  0  0
    8.9818   -8.2585    0.0000 C   0  0  0  0  0  0  0  0  0  0  0  0
    8.2674   -8.6710    0.0000 C   0  0  0  0  0  0  0  0  0  0  0  0
    7.5529   -8.2585    0.0000 C   0  0  0  0  0  0  0  0  0  0  0  0
    6.8384   -8.6710    0.0000 C   0  0  0  0  0  0  0  0  0  0  0  0
    6.1239   -8.2585    0.0000 C   0  0  0  0  0  0  0  0  0  0  0  0
    5.4095   -8.6710    0.0000 C   0  0  0  0  0  0  0  0  0  0  0  0
    4.6950   -8.2585    0.0000 C   0  0  0  0  0  0  0  0  0  0  0  0
    8.9818   -7.4335    0.0000 O   0  0  0  0  0  0  0  0  0  0  0  0
    6.8384   -9.4960    0.0000 O   0  0  0  0  0  0  0  0  0  0  0  0
  1  2  1  0  0  0  0
  2  3  1  0  0  0  0
  3  4  1  0  0  0  0
  4  5  1  0  0  0  0
  5  6  1  0  0  0  0
  6  7  1  0  0  0  0
  7  8  1  0  0  0  0
  2  9  2  0  0  0  0
  5 10  2  0  0  0  0
M  END
>  <cdx:fragmentId>
5

$$$$
