97798.cdx
  Mrv1902 05222410182D          

 37 40  0  0  0  0            999 V2000
    4.5768  -10.0501    0.0000 C   0  0  0  0  0  0  0  0  0  0  0  0
    5.2913  -11.2876    0.0000 C   0  0  0  0  0  0  0  0  0  0  0  0
    6.0057  -10.8751    0.0000 C   0  0  1  0  0  0  0  0  0  0  0  0
    6.0057  -10.0501    0.0000 C   0  0  2  0  0  0  0  0  0  0  0  0
    5.2913   -9.6376    0.0000 C   0  0  0  0  0  0  0  0  0  0  0  0
    6.7202  -11.2876    0.0000 C   0  0  0  0  0  0  0  0  0  0  0  0
    7.4347  -10.8751    0.0000 C   0  0  0  0  0  0  0  0  0  0  0  0
    7.4347  -10.0501    0.0000 C   0  0  2  0  0  0  0  0  0  0  0  0
    6.7202   -9.6376    0.0000 C   0  0  1  0  0  0  0  0  0  0  0  0
    8.1492   -9.6376    0.0000 C   0  0  1  0  0  0  0  0  0  0  0  0
    8.1492   -8.8126    0.0000 C   0  0  0  0  0  0  0  0  0  0  0  0
    7.4347   -8.4001    0.0000 C   0  0  0  0  0  0  0  0  0  0  0  0
    6.7202   -8.8126    0.0000 C   0  0  0  0  0  0  0  0  0  0  0  0
    8.8636  -10.0501    0.0000 C   0  0  0  0  0  0  0  0  0  0  0  0
    9.5781   -9.6376    0.0000 C   0  0  0  0  0  0  0  0  0  0  0  0
    9.5781   -8.8126    0.0000 C   0  0  2  0  0  0  0  0  0  0  0  0
    8.8636   -8.4001    0.0000 C   0  0  1  0  0  0  0  0  0  0  0  0
   10.2926   -8.4001    0.0000 C   0  0  0  0  0  0  0  0  0  0  0  0
   10.2926   -7.5751    0.0000 C   0  0  0  0  0  0  0  0  0  0  0  0
    9.5781   -7.1626    0.0000 C   0  0  2  0  0  0  0  0  0  0  0  0
    8.8636   -7.5751    0.0000 C   0  0  2  0  0  0  0  0  0  0  0  0
    4.8788  -12.0021    0.0000 C   0  0  0  0  0  0  0  0  0  0  0  0
    5.7038  -12.0021    0.0000 C   0  0  0  0  0  0  0  0  0  0  0  0
    3.8623   -9.6376    0.0000 O   0  0  0  0  0  0  0  0  0  0  0  0
    4.5768  -10.8751    0.0000 O   0  0  0  0  0  0  0  0  0  0  0  0
   10.2926   -9.2251    0.0000 C   0  0  0  0  0  0  0  0  0  0  0  0
   11.0070   -8.8126    0.0000 O   0  0  0  0  0  0  0  0  0  0  0  0
   10.2926  -10.0501    0.0000 O   0  0  0  0  0  0  0  0  0  0  0  0
    9.5781   -6.3376    0.0000 C   0  0  0  0  0  0  0  0  0  0  0  0
    8.8636   -6.7501    0.0000 H   0  0  0  0  0  0  0  0  0  0  0  0
    8.1492  -10.4626    0.0000 C   0  0  0  0  0  0  0  0  0  0  0  0
    6.0057  -11.7001    0.0000 H   0  0  0  0  0  0  0  0  0  0  0  0
    6.0057   -9.2251    0.0000 C   0  0  0  0  0  0  0  0  0  0  0  0
    6.7202  -10.4626    0.0000 H   0  0  0  0  0  0  0  0  0  0  0  0
    7.4347   -9.2251    0.0000 C   0  0  0  0  0  0  0  0  0  0  0  0
    8.8636   -9.2251    0.0000 H   0  0  0  0  0  0  0  0  0  0  0  0
    8.1492   -7.1626    0.0000 C   0  0  0  0  0  0  0  0  0  0  0  0
  2  3  1  0  0  0  0
  3  4  1  0  0  0  0
  4  5  1  0  0  0  0
  5  1  1  0  0  0  0
  3  6  1  0  0  0  0
  6  7  1  0  0  0  0
  7  8  1  0  0  0  0
  8  9  1  0  0  0  0
  9  4  1  0  0  0  0
  8 10  1  0  0  0  0
 10 11  1  0  0  0  0
 11 12  2  0  0  0  0
 12 13  1  0  0  0  0
 13  9  1  0  0  0  0
 10 14  1  0  0  0  0
 14 15  1  0  0  0  0
 15 16  1  0  0  0  0
 16 17  1  0  0  0  0
 17 11  1  0  0  0  0
 16 18  1  0  0  0  0
 18 19  1  0  0  0  0
 19 20  1  0  0  0  0
 20 21  1  0  0  0  0
 21 17  1  0  0  0  0
  2 22  1  0  0  0  0
  2 23  1  0  0  0  0
  1 24  2  0  0  0  0
  1 25  1  0  0  0  0
 16 26  1  1  0  0  0
 26 27  2  0  0  0  0
 26 28  1  0  0  0  0
 20 29  1  6  0  0  0
 21 30  1  6  0  0  0
 10 31  1  6  0  0  0
  3 32  1  6  0  0  0
  4 33  1  1  0  0  0
  9 34  1  1  0  0  0
  8 35  1  1  0  0  0
 17 36  1  1  0  0  0
 21 37  1  1  0  0  0
M  END
>  <cdx:fragmentId>
5

$$$$
