97795.cdx
  Mrv1902 05222410282D          

 24 26  0  0  0  0            999 V2000
    2.7549   -7.6587    0.0000 C   0  0  0  0  0  0  0  0  0  0  0  0
    2.7549   -8.4838    0.0000 C   0  0  0  0  0  0  0  0  0  0  0  0
    3.4694   -8.8963    0.0000 C   0  0  0  0  0  0  0  0  0  0  0  0
    4.1839   -8.4838    0.0000 C   0  0  0  0  0  0  0  0  0  0  0  0
    4.1839   -7.6587    0.0000 C   0  0  0  0  0  0  0  0  0  0  0  0
    3.4694   -7.2462    0.0000 C   0  0  0  0  0  0  0  0  0  0  0  0
    2.0405   -8.8963    0.0000 O   0  0  0  0  0  0  0  0  0  0  0  0
    4.8983   -7.2462    0.0000 C   0  0  0  0  0  0  0  0  0  0  0  0
    5.6128   -7.6587    0.0000 C   0  0  0  0  0  0  0  0  0  0  0  0
    4.8983   -6.4213    0.0000 O   0  0  0  0  0  0  0  0  0  0  0  0
    6.3273   -7.2462    0.0000 C   0  0  0  0  0  0  0  0  0  0  0  0
    7.0418   -7.6587    0.0000 C   0  0  0  0  0  0  0  0  0  0  0  0
    7.7562   -7.2462    0.0000 C   0  0  0  0  0  0  0  0  0  0  0  0
    8.4707   -7.6587    0.0000 C   0  0  0  0  0  0  0  0  0  0  0  0
    7.7562   -6.4213    0.0000 O   0  0  0  0  0  0  0  0  0  0  0  0
    9.1852   -7.2462    0.0000 C   0  0  0  0  0  0  0  0  0  0  0  0
    9.8996   -7.6587    0.0000 C   0  0  0  0  0  0  0  0  0  0  0  0
    9.8996   -8.4838    0.0000 C   0  0  0  0  0  0  0  0  0  0  0  0
   10.6141   -8.8963    0.0000 C   0  0  0  0  0  0  0  0  0  0  0  0
   11.3286   -8.4838    0.0000 C   0  0  0  0  0  0  0  0  0  0  0  0
   11.3286   -7.6587    0.0000 C   0  0  0  0  0  0  0  0  0  0  0  0
   10.6141   -7.2462    0.0000 C   0  0  0  0  0  0  0  0  0  0  0  0
   12.0431   -8.8962    0.0000 O   0  0  0  0  0  0  0  0  0  0  0  0
    6.3273   -8.0713    0.0000 O   0  0  0  0  0  0  0  0  0  0  0  0
  1  2  2  0  0  0  0
  2  3  1  0  0  0  0
  3  4  2  0  0  0  0
  4  5  1  0  0  0  0
  5  6  2  0  0  0  0
  6  1  1  0  0  0  0
  2  7  1  0  0  0  0
  5  8  1  0  0  0  0
  8  9  1  0  0  0  0
  8 10  2  0  0  0  0
  9 11  1  0  0  0  0
 11 12  1  0  0  0  0
 12 13  1  0  0  0  0
 13 14  1  0  0  0  0
 13 15  1  0  0  0  0
 14 16  1  0  0  0  0
 16 17  1  0  0  0  0
 17 18  2  0  0  0  0
 18 19  1  0  0  0  0
 19 20  2  0  0  0  0
 20 21  1  0  0  0  0
 21 22  2  0  0  0  0
 22 17  1  0  0  0  0
 20 23  1  0  0  0  0
  9 24  1  0  0  0  0
 24 11  1  0  0  0  0
M  END
>  <cdx:fragmentId>
5

$$$$
