97799.cdx
  Mrv1902 05222410182D          

 38 41  0  0  0  0            999 V2000
    4.5768  -10.0501    0.0000 C   0  0  0  0  0  0  0  0  0  0  0  0
    5.2913  -11.2876    0.0000 C   0  0  0  0  0  0  0  0  0  0  0  0
    6.0057  -10.8751    0.0000 C   0  0  1  0  0  0  0  0  0  0  0  0
    6.0057  -10.0501    0.0000 C   0  0  2  0  0  0  0  0  0  0  0  0
    5.2913   -9.6376    0.0000 C   0  0  0  0  0  0  0  0  0  0  0  0
    6.7202  -11.2876    0.0000 C   0  0  0  0  0  0  0  0  0  0  0  0
    7.4347  -10.8751    0.0000 C   0  0  0  0  0  0  0  0  0  0  0  0
    7.4347  -10.0501    0.0000 C   0  0  2  0  0  0  0  0  0  0  0  0
    6.7202   -9.6376    0.0000 C   0  0  2  0  0  0  0  0  0  0  0  0
    8.1492   -9.6376    0.0000 C   0  0  1  0  0  0  0  0  0  0  0  0
    8.1492   -8.8126    0.0000 C   0  0  2  0  0  0  0  0  0  0  0  0
    7.4347   -8.4001    0.0000 C   0  0  0  0  0  0  0  0  0  0  0  0
    6.7202   -8.8126    0.0000 C   0  0  0  0  0  0  0  0  0  0  0  0
    8.8636  -10.0501    0.0000 C   0  0  0  0  0  0  0  0  0  0  0  0
    9.5781   -9.6376    0.0000 C   0  0  0  0  0  0  0  0  0  0  0  0
    9.5781   -8.8126    0.0000 C   0  0  1  0  0  0  0  0  0  0  0  0
    8.8636   -8.4001    0.0000 C   0  0  2  0  0  0  0  0  0  0  0  0
    3.8623   -9.6376    0.0000 C   0  0  0  0  0  0  0  0  0  0  0  0
   10.2926   -9.2251    0.0000 C   0  0  0  0  0  0  0  0  0  0  0  0
   11.0070   -8.8126    0.0000 O   0  0  0  0  0  0  0  0  0  0  0  0
   10.2926  -10.0501    0.0000 O   0  0  0  0  0  0  0  0  0  0  0  0
    8.1492  -10.4626    0.0000 C   0  0  0  0  0  0  0  0  0  0  0  0
    6.0057  -11.7001    0.0000 H   0  0  0  0  0  0  0  0  0  0  0  0
    6.0057   -9.2251    0.0000 C   0  0  0  0  0  0  0  0  0  0  0  0
    6.7202  -10.4626    0.0000 H   0  0  0  0  0  0  0  0  0  0  0  0
    7.4347   -9.2251    0.0000 C   0  0  0  0  0  0  0  0  0  0  0  0
    8.8636   -9.2251    0.0000 H   0  0  0  0  0  0  0  0  0  0  0  0
    3.1479  -10.0501    0.0000 O   0  0  0  0  0  0  0  0  0  0  0  0
    3.8623   -8.8126    0.0000 O   0  0  0  0  0  0  0  0  0  0  0  0
    4.5768  -10.8751    0.0000 C   0  0  0  0  0  0  0  0  0  0  0  0
    5.2913  -12.1126    0.0000 C   0  0  0  0  0  0  0  0  0  0  0  0
    8.1492   -7.9876    0.0000 H   0  0  0  0  0  0  0  0  0  0  0  0
   10.1912   -8.2606    0.0000 C   0  0  0  0  0  0  0  0  0  0  0  0
    9.8556   -7.5069    0.0000 C   0  0  0  0  0  0  0  0  0  0  0  0
    9.0352   -7.5932    0.0000 C   0  0  1  0  0  0  0  0  0  0  0  0
    8.4831   -6.9801    0.0000 C   0  0  0  0  0  0  0  0  0  0  0  0
    8.7381   -6.1955    0.0000 C   0  0  0  0  0  0  0  0  0  0  0  0
    7.6762   -7.1516    0.0000 C   0  0  0  0  0  0  0  0  0  0  0  0
  2  3  1  0  0  0  0
  3  4  1  0  0  0  0
  4  5  1  0  0  0  0
  5  1  1  0  0  0  0
  3  6  1  0  0  0  0
  6  7  1  0  0  0  0
  7  8  1  0  0  0  0
  8  9  1  0  0  0  0
  9  4  1  0  0  0  0
  8 10  1  0  0  0  0
 10 11  1  0  0  0  0
 11 12  1  0  0  0  0
 12 13  1  0  0  0  0
 13  9  1  0  0  0  0
 10 14  1  0  0  0  0
 14 15  1  0  0  0  0
 15 16  1  0  0  0  0
 16 17  1  0  0  0  0
 17 11  1  0  0  0  0
  1 18  1  0  0  0  0
 16 19  1  1  0  0  0
 19 20  2  0  0  0  0
 19 21  1  0  0  0  0
 10 22  1  6  0  0  0
  3 23  1  6  0  0  0
  4 24  1  1  0  0  0
  9 25  1  6  0  0  0
  8 26  1  1  0  0  0
 17 27  1  6  0  0  0
 18 28  1  0  0  0  0
 18 29  2  0  0  0  0
  2 30  1  0  0  0  0
  2 31  1  0  0  0  0
 11 32  1  1  0  0  0
 16 33  1  0  0  0  0
 33 34  1  0  0  0  0
 34 35  1  0  0  0  0
 35 17  1  0  0  0  0
 35 36  1  6  0  0  0
 36 37  2  0  0  0  0
 36 38  1  0  0  0  0
M  END
>  <cdx:fragmentId>
5

$$$$
