97797.cdx
  Mrv1902 05222410272D          

 33 36  0  0  0  0            999 V2000
   11.5520   -7.3647    0.0000 O   0  0  0  0  0  0  0  0  0  0  0  0
   11.5520   -5.7147    0.0000 O   0  0  0  0  0  0  0  0  0  0  0  0
    9.4086   -6.1272    0.0000 C   0  0  0  0  0  0  0  0  0  0  0  0
   10.1231   -5.7147    0.0000 C   0  0  0  0  0  0  0  0  0  0  0  0
   10.8375   -6.1272    0.0000 C   0  0  0  0  0  0  0  0  0  0  0  0
   10.8375   -6.9522    0.0000 C   0  0  0  0  0  0  0  0  0  0  0  0
   10.1231   -7.3647    0.0000 C   0  0  0  0  0  0  0  0  0  0  0  0
    9.4086   -6.9522    0.0000 C   0  0  0  0  0  0  0  0  0  0  0  0
    6.5507   -9.4272    0.0000 O   0  0  0  0  0  0  0  0  0  0  0  0
    5.1218   -6.9522    0.0000 O   0  0  0  0  0  0  0  0  0  0  0  0
    7.9797   -9.4272    0.0000 O   0  0  0  0  0  0  0  0  0  0  0  0
    7.9797   -6.9522    0.0000 O   0  0  0  0  0  0  0  0  0  0  0  0
    7.2652   -7.3647    0.0000 C   0  0  0  0  0  0  0  0  0  0  0  0
    6.5507   -6.9522    0.0000 C   0  0  0  0  0  0  0  0  0  0  0  0
    5.8363   -7.3647    0.0000 C   0  0  0  0  0  0  0  0  0  0  0  0
    5.8363   -8.1897    0.0000 C   0  0  0  0  0  0  0  0  0  0  0  0
    6.5507   -8.6022    0.0000 C   0  0  0  0  0  0  0  0  0  0  0  0
    7.2652   -8.1897    0.0000 C   0  0  0  0  0  0  0  0  0  0  0  0
    7.9797   -8.6022    0.0000 C   0  0  0  0  0  0  0  0  0  0  0  0
    8.6941   -8.1897    0.0000 C   0  0  0  0  0  0  0  0  0  0  0  0
    8.6941   -7.3647    0.0000 C   0  0  0  0  0  0  0  0  0  0  0  0
   12.2665   -6.1272    0.0000 C   0  0  0  0  0  0  0  0  0  0  0  0
    4.4073   -7.3647    0.0000 C   0  0  0  0  0  0  0  0  0  0  0  0
    3.6928   -6.9522    0.0000 O   0  0  0  0  0  0  0  0  0  0  0  0
    2.9784   -7.3647    0.0000 C   0  0  1  0  0  0  0  0  0  0  0  0
    2.9784   -8.1897    0.0000 C   0  0  2  0  0  0  0  0  0  0  0  0
    3.6928   -8.6022    0.0000 C   0  0  1  0  0  0  0  0  0  0  0  0
    4.4073   -8.1897    0.0000 C   0  0  1  0  0  0  0  0  0  0  0  0
    3.6928   -9.4272    0.0000 O   0  0  0  0  0  0  0  0  0  0  0  0
    2.2639   -6.9522    0.0000 C   0  0  0  0  0  0  0  0  0  0  0  0
    2.2639   -8.6022    0.0000 O   0  0  0  0  0  0  0  0  0  0  0  0
    5.1218   -8.6022    0.0000 O   0  0  0  0  0  0  0  0  0  0  0  0
    1.5494   -7.3647    0.0000 O   0  0  0  0  0  0  0  0  0  0  0  0
 21  8  1  0  0  0  0
  6  1  1  0  0  0  0
  5  2  1  0  0  0  0
  8  3  2  0  0  0  0
  4  3  1  0  0  0  0
  5  4  2  0  0  0  0
  6  5  1  0  0  0  0
  7  6  2  0  0  0  0
  8  7  1  0  0  0  0
 17  9  1  0  0  0  0
 15 10  1  0  0  0  0
 19 11  2  0  0  0  0
 21 12  1  0  0  0  0
 13 12  1  0  0  0  0
 18 13  2  0  0  0  0
 14 13  1  0  0  0  0
 15 14  2  0  0  0  0
 16 15  1  0  0  0  0
 17 16  2  0  0  0  0
 18 17  1  0  0  0  0
 19 18  1  0  0  0  0
 20 19  1  0  0  0  0
 21 20  2  0  0  0  0
  2 22  1  0  0  0  0
 10 23  1  0  0  0  0
 23 24  1  0  0  0  0
 24 25  1  0  0  0  0
 25 26  1  0  0  0  0
 26 27  1  0  0  0  0
 27 28  1  0  0  0  0
 28 23  1  0  0  0  0
 27 29  1  1  0  0  0
 25 30  1  1  0  0  0
 26 31  1  6  0  0  0
 28 32  1  6  0  0  0
 30 33  1  0  0  0  0
M  END
>  <cdx:fragmentId>
5

$$$$
