97790.cdx
  Mrv1902 05222410262D          

  7  6  0  0  0  0            999 V2000
    5.0522   -8.6625    0.0000 C   0  0  0  0  0  0  0  0  0  0  0  0
    5.7667   -8.2500    0.0000 C   0  0  0  0  0  0  0  0  0  0  0  0
    6.4812   -8.6625    0.0000 C   0  0  0  0  0  0  0  0  0  0  0  0
    7.1956   -8.2500    0.0000 C   0  0  0  0  0  0  0  0  0  0  0  0
    7.9101   -8.6625    0.0000 C   0  0  0  0  0  0  0  0  0  0  0  0
    8.6246   -8.2500    0.0000 C   0  0  0  0  0  0  0  0  0  0  0  0
    9.3391   -8.6625    0.0000 C   0  0  0  0  0  0  0  0  0  0  0  0
  1  2  2  0  0  0  0
  2  3  1  0  0  0  0
  3  4  1  0  0  0  0
  4  5  1  0  0  0  0
  5  6  2  0  0  0  0
  6  7  1  0  0  0  0
M  END
>  <cdx:fragmentId>
5

$$$$
