9779.cdx
  Mrv1902 05222410192D          

 77 86  0  0  0  0            999 V2000
   15.8090   -9.2119    0.0000 C   0  0  1  0  0  0  0  0  0  0  0  0
   16.5234   -8.7994    0.0000 C   0  0  2  0  0  0  0  0  0  0  0  0
   17.3080   -9.0544    0.0000 C   0  0  0  0  0  0  0  0  0  0  0  0
   17.7930   -8.3869    0.0000 C   0  0  2  0  0  0  0  0  0  0  0  0
   18.5776   -8.1320    0.0000 O   0  0  0  0  0  0  0  0  0  0  0  0
   18.5776   -7.3070    0.0000 C   0  0  2  0  0  0  0  0  0  0  0  0
   17.7930   -7.0520    0.0000 C   0  0  2  0  0  0  0  0  0  0  0  0
   17.3080   -7.7195    0.0000 C   0  0  2  0  0  0  0  0  0  0  0  0
   16.5234   -7.9744    0.0000 C   0  0  1  0  0  0  0  0  0  0  0  0
   15.8090   -7.5619    0.0000 C   0  0  0  0  0  0  0  0  0  0  0  0
   15.0945   -7.9744    0.0000 C   0  0  0  0  0  0  0  0  0  0  0  0
   15.0945   -8.7994    0.0000 C   0  0  2  0  0  0  0  0  0  0  0  0
   14.3800   -9.2119    0.0000 C   0  0  1  0  0  0  0  0  0  0  0  0
   13.6655   -8.7994    0.0000 C   0  0  1  0  0  0  0  0  0  0  0  0
   12.9511   -9.2119    0.0000 C   0  0  0  0  0  0  0  0  0  0  0  0
   12.9511  -10.0369    0.0000 C   0  0  1  0  0  0  0  0  0  0  0  0
   13.6655  -10.4494    0.0000 C   0  0  0  0  0  0  0  0  0  0  0  0
   14.3800  -10.0369    0.0000 C   0  0  0  0  0  0  0  0  0  0  0  0
   15.0945  -10.4494    0.0000 C   0  0  0  0  0  0  0  0  0  0  0  0
   15.8090  -10.0369    0.0000 C   0  0  0  0  0  0  0  0  0  0  0  0
   18.4914   -6.4865    0.0000 O   0  0  0  0  0  0  0  0  0  0  0  0
   19.3313   -7.6425    0.0000 C   0  0  0  0  0  0  0  0  0  0  0  0
   19.9987   -7.1576    0.0000 C   0  0  0  0  0  0  0  0  0  0  0  0
   19.9125   -6.3371    0.0000 C   0  0  2  0  0  0  0  0  0  0  0  0
   19.1588   -6.0016    0.0000 C   0  0  0  0  0  0  0  0  0  0  0  0
   14.3800   -8.3869    0.0000 C   0  0  0  0  0  0  0  0  0  0  0  0
   16.5234   -7.1494    0.0000 C   0  0  0  0  0  0  0  0  0  0  0  0
   17.5380   -6.2674    0.0000 C   0  0  0  0  0  0  0  0  0  0  0  0
   20.5799   -5.8522    0.0000 C   0  0  0  0  0  0  0  0  0  0  0  0
   15.8090   -8.3869    0.0000 H   0  0  0  0  0  0  0  0  0  0  0  0
   16.5234   -9.6244    0.0000 H   0  0  0  0  0  0  0  0  0  0  0  0
   18.2779   -9.0544    0.0000 H   0  0  0  0  0  0  0  0  0  0  0  0
   16.9464   -6.9780    0.0000 H   0  0  0  0  0  0  0  0  0  0  0  0
   15.0945   -9.6244    0.0000 H   0  0  0  0  0  0  0  0  0  0  0  0
   12.2366  -10.4494    0.0000 O   0  0  0  0  0  0  0  0  0  0  0  0
   11.5221  -10.0369    0.0000 C   0  0  2  0  0  0  0  0  0  0  0  0
   11.5221   -9.2119    0.0000 O   0  0  0  0  0  0  0  0  0  0  0  0
   10.8077   -8.7994    0.0000 C   0  0  1  0  0  0  0  0  0  0  0  0
   10.0932   -9.2119    0.0000 C   0  0  2  0  0  0  0  0  0  0  0  0
   10.0932  -10.0369    0.0000 C   0  0  1  0  0  0  0  0  0  0  0  0
   10.8077  -10.4494    0.0000 C   0  0  1  0  0  0  0  0  0  0  0  0
   10.8077   -7.9744    0.0000 C   0  0  0  0  0  0  0  0  0  0  0  0
    9.3787  -10.4494    0.0000 O   0  0  0  0  0  0  0  0  0  0  0  0
   10.8077  -11.2744    0.0000 O   0  0  0  0  0  0  0  0  0  0  0  0
    9.3787   -8.7994    0.0000 O   0  0  0  0  0  0  0  0  0  0  0  0
   10.0932   -7.5619    0.0000 O   0  0  0  0  0  0  0  0  0  0  0  0
   13.6655   -7.9744    0.0000 O   0  0  0  0  0  0  0  0  0  0  0  0
    8.5537   -8.7952    0.0000 C   0  0  2  0  0  0  0  0  0  0  0  0
    8.1449   -8.0786    0.0000 O   0  0  0  0  0  0  0  0  0  0  0  0
    7.3199   -8.0743    0.0000 C   0  0  2  0  0  0  0  0  0  0  0  0
    6.9037   -8.7866    0.0000 C   0  0  1  0  0  0  0  0  0  0  0  0
    7.3125   -9.5032    0.0000 C   0  0  2  0  0  0  0  0  0  0  0  0
    8.1375   -9.5075    0.0000 C   0  0  1  0  0  0  0  0  0  0  0  0
    6.8963  -10.2155    0.0000 O   0  0  0  0  0  0  0  0  0  0  0  0
    8.5463  -10.2241    0.0000 O   0  0  0  0  0  0  0  0  0  0  0  0
    6.0788   -8.7823    0.0000 O   0  0  0  0  0  0  0  0  0  0  0  0
   10.0932  -11.6869    0.0000 C   0  0  2  0  0  0  0  0  0  0  0  0
    9.3787  -11.2744    0.0000 O   0  0  0  0  0  0  0  0  0  0  0  0
    8.6642  -11.6869    0.0000 C   0  0  2  0  0  0  0  0  0  0  0  0
    8.6642  -12.5119    0.0000 C   0  0  1  0  0  0  0  0  0  0  0  0
    9.3787  -12.9244    0.0000 C   0  0  2  0  0  0  0  0  0  0  0  0
   10.0932  -12.5119    0.0000 C   0  0  1  0  0  0  0  0  0  0  0  0
    7.9498  -12.9244    0.0000 O   0  0  0  0  0  0  0  0  0  0  0  0
    9.3787  -13.7494    0.0000 O   0  0  0  0  0  0  0  0  0  0  0  0
   10.8077  -12.9244    0.0000 O   0  0  0  0  0  0  0  0  0  0  0  0
    7.9498  -11.2744    0.0000 C   0  0  0  0  0  0  0  0  0  0  0  0
    6.9112   -7.3577    0.0000 C   0  0  0  0  0  0  0  0  0  0  0  0
    5.3683   -8.3630    0.0000 C   0  0  2  0  0  0  0  0  0  0  0  0
    5.3783   -7.5381    0.0000 O   0  0  0  0  0  0  0  0  0  0  0  0
    4.6689   -7.1169    0.0000 C   0  0  2  0  0  0  0  0  0  0  0  0
    3.9494   -7.5318    0.0000 C   0  0  1  0  0  0  0  0  0  0  0  0
    3.9458   -8.3568    0.0000 C   0  0  2  0  0  0  0  0  0  0  0  0
    4.6616   -8.7779    0.0000 C   0  0  1  0  0  0  0  0  0  0  0  0
    3.2360   -7.1175    0.0000 O   0  0  0  0  0  0  0  0  0  0  0  0
    4.6741   -6.2919    0.0000 C   0  0  0  0  0  0  0  0  0  0  0  0
    3.2287   -8.7647    0.0000 O   0  0  0  0  0  0  0  0  0  0  0  0
    4.6612   -9.6029    0.0000 O   0  0  0  0  0  0  0  0  0  0  0  0
  1  2  1  0  0  0  0
  2  3  1  0  0  0  0
  3  4  1  0  0  0  0
  4  5  1  0  0  0  0
  6  5  1  6  0  0  0
  6  7  1  0  0  0  0
  7  8  1  0  0  0  0
  8  9  1  0  0  0  0
  9 10  1  0  0  0  0
 10 11  1  0  0  0  0
 11 12  1  0  0  0  0
 12 13  1  0  0  0  0
 13 14  1  0  0  0  0
 14 15  1  0  0  0  0
 15 16  1  0  0  0  0
 16 17  1  0  0  0  0
 17 18  1  0  0  0  0
 18 19  2  0  0  0  0
 19 20  1  0  0  0  0
  1 20  1  0  0  0  0
  1 12  1  0  0  0  0
 13 18  1  0  0  0  0
  2  9  1  0  0  0  0
  4  8  1  0  0  0  0
 22 23  1  0  0  0  0
 23 24  1  0  0  0  0
 24 25  1  0  0  0  0
 21 25  1  0  0  0  0
  6 21  1  0  0  0  0
  6 22  1  0  0  0  0
 13 26  1  1  0  0  0
  9 27  1  1  0  0  0
  7 28  1  6  0  0  0
 24 29  1  6  0  0  0
 16 35  1  1  0  0  0
  1 30  1  1  0  0  0
  2 31  1  6  0  0  0
  4 32  1  6  0  0  0
  8 33  1  6  0  0  0
 12 34  1  6  0  0  0
 36 35  1  1  0  0  0
 36 37  1  0  0  0  0
 37 38  1  0  0  0  0
 38 39  1  0  0  0  0
 39 40  1  0  0  0  0
 40 41  1  0  0  0  0
 41 36  1  0  0  0  0
 38 42  1  1  0  0  0
 40 43  1  1  0  0  0
 41 44  1  6  0  0  0
 39 45  1  6  0  0  0
 42 46  1  0  0  0  0
 14 47  1  1  0  0  0
 48 45  1  1  0  0  0
 48 49  1  0  0  0  0
 49 50  1  0  0  0  0
 50 51  1  0  0  0  0
 51 52  1  0  0  0  0
 52 53  1  0  0  0  0
 53 48  1  0  0  0  0
 52 54  1  6  0  0  0
 53 55  1  6  0  0  0
 51 56  1  1  0  0  0
 57 44  1  1  0  0  0
 57 58  1  0  0  0  0
 58 59  1  0  0  0  0
 59 60  1  0  0  0  0
 60 61  1  0  0  0  0
 61 62  1  0  0  0  0
 62 57  1  0  0  0  0
 60 63  1  1  0  0  0
 61 64  1  6  0  0  0
 62 65  1  6  0  0  0
 59 66  1  6  0  0  0
 50 67  1  6  0  0  0
 68 56  1  1  0  0  0
 68 69  1  0  0  0  0
 69 70  1  0  0  0  0
 70 71  1  0  0  0  0
 71 72  1  0  0  0  0
 72 73  1  0  0  0  0
 73 68  1  0  0  0  0
 71 74  1  1  0  0  0
 70 75  1  6  0  0  0
 72 76  1  6  0  0  0
 73 77  1  6  0  0  0
M  END
>  <cdx:fragmentId>
198565

$$$$
