97794.cdx
  Mrv1902 05222410282D          

  6  5  0  0  0  0            999 V2000
    6.1616   -8.2224    0.0000 C   0  0  0  0  0  0  0  0  0  0  0  0
    6.8761   -8.6349    0.0000 C   0  0  0  0  0  0  0  0  0  0  0  0
    7.5905   -8.2224    0.0000 C   0  0  0  0  0  0  0  0  0  0  0  0
    8.3050   -8.6349    0.0000 C   0  0  0  0  0  0  0  0  0  0  0  0
    9.0195   -8.2224    0.0000 C   0  0  0  0  0  0  0  0  0  0  0  0
    5.4471   -8.6349    0.0000 O   0  0  0  0  0  0  0  0  0  0  0  0
  1  2  1  0  0  0  0
  2  3  2  0  0  0  0
  3  4  1  0  0  0  0
  4  5  1  0  0  0  0
  1  6  2  0  0  0  0
M  END
>  <cdx:fragmentId>
5

$$$$
