978.cdx
  Mrv1902 05222410212D          

 10 10  0  0  0  0            999 V2000
    8.5502   -6.1993    0.0000 C   0  0  0  0  0  0  0  0  0  0  0  0
    7.8358   -6.6118    0.0000 C   0  0  0  0  0  0  0  0  0  0  0  0
    7.1213   -6.1993    0.0000 C   0  0  0  0  0  0  0  0  0  0  0  0
    6.4068   -6.6118    0.0000 C   0  0  0  0  0  0  0  0  0  0  0  0
    6.4068   -7.4368    0.0000 C   0  0  0  0  0  0  0  0  0  0  0  0
    7.1213   -7.8493    0.0000 C   0  0  0  0  0  0  0  0  0  0  0  0
    7.8358   -7.4368    0.0000 C   0  0  0  0  0  0  0  0  0  0  0  0
    8.5502   -5.3743    0.0000 O   0  0  0  0  0  0  0  0  0  0  0  0
    9.2647   -6.6118    0.0000 O   0  0  0  0  0  0  0  0  0  0  0  0
    5.6923   -7.8493    0.0000 N   0  0  0  0  0  0  0  0  0  0  0  0
  1  2  1  0  0  0  0
  2  3  1  0  0  0  0
  3  4  2  0  0  0  0
  4  5  1  0  0  0  0
  5  6  2  0  0  0  0
  6  7  1  0  0  0  0
  2  7  2  0  0  0  0
  1  8  2  0  0  0  0
  1  9  1  0  0  0  0
  5 10  1  0  0  0  0
M  END
>  <cdx:groupId>
32

>  <cdx:fragmentId>
5

$$$$
