97805.cdx
  Mrv1902 05222410282D          

 49 54  0  0  0  0            999 V2000
   10.9367   -6.8633    0.0000 C   0  0  1  0  0  0  0  0  0  0  0  0
   11.6511   -7.2758    0.0000 C   0  0  1  0  0  0  0  0  0  0  0  0
   11.6511   -8.1008    0.0000 C   0  0  0  0  0  0  0  0  0  0  0  0
   10.9367   -8.5133    0.0000 C   0  0  0  0  0  0  0  0  0  0  0  0
   10.2222   -8.1008    0.0000 C   0  0  1  0  0  0  0  0  0  0  0  0
    9.5077   -8.5133    0.0000 C   0  0  2  0  0  0  0  0  0  0  0  0
    9.5077   -9.3383    0.0000 C   0  0  0  0  0  0  0  0  0  0  0  0
    8.7932   -9.7508    0.0000 C   0  0  0  0  0  0  0  0  0  0  0  0
    8.0788   -9.3383    0.0000 C   0  0  1  0  0  0  0  0  0  0  0  0
    7.3643   -9.7508    0.0000 C   0  0  0  0  0  0  0  0  0  0  0  0
    6.6498   -9.3383    0.0000 C   0  0  2  0  0  0  0  0  0  0  0  0
    6.6498   -8.5133    0.0000 C   0  0  1  0  0  0  0  0  0  0  0  0
    7.3643   -8.1008    0.0000 C   0  0  0  0  0  0  0  0  0  0  0  0
    8.0788   -8.5133    0.0000 C   0  0  2  0  0  0  0  0  0  0  0  0
    8.7932   -8.1008    0.0000 C   0  0  1  0  0  0  0  0  0  0  0  0
    8.7932   -7.2758    0.0000 C   0  0  0  0  0  0  0  0  0  0  0  0
    9.5077   -6.8633    0.0000 C   0  0  0  0  0  0  0  0  0  0  0  0
   10.2222   -7.2758    0.0000 C   0  0  2  0  0  0  0  0  0  0  0  0
   12.2642   -6.7238    0.0000 C   0  0  0  0  0  0  0  0  0  0  0  0
   11.9287   -5.9701    0.0000 C   0  0  0  0  0  0  0  0  0  0  0  0
   11.1082   -6.0563    0.0000 C   0  0  1  0  0  0  0  0  0  0  0  0
   12.4048   -7.6114    0.0000 C   0  0  0  0  0  0  0  0  0  0  0  0
   12.4048   -8.4364    0.0000 O   0  0  0  0  0  0  0  0  0  0  0  0
   12.9882   -7.0280    0.0000 O   0  0  0  0  0  0  0  0  0  0  0  0
   10.8111   -4.6586    0.0000 C   0  0  0  0  0  0  0  0  0  0  0  0
   10.5561   -5.4433    0.0000 C   0  0  0  0  0  0  0  0  0  0  0  0
    9.7492   -5.6148    0.0000 C   0  0  0  0  0  0  0  0  0  0  0  0
    8.0788   -7.6883    0.0000 C   0  0  0  0  0  0  0  0  0  0  0  0
    7.7768  -10.4653    0.0000 C   0  0  0  0  0  0  0  0  0  0  0  0
    6.9518  -10.4653    0.0000 C   0  0  0  0  0  0  0  0  0  0  0  0
    9.5077   -7.6883    0.0000 C   0  0  0  0  0  0  0  0  0  0  0  0
   10.2222   -8.9258    0.0000 C   0  0  0  0  0  0  0  0  0  0  0  0
    5.9354   -8.1008    0.0000 O   0  0  0  0  0  0  0  0  0  0  0  0
    5.2209   -8.5133    0.0000 C   0  0  0  0  0  0  0  0  0  0  0  0
    4.5064   -8.1008    0.0000 C   0  0  0  0  0  0  0  0  0  0  0  0
    5.2209   -9.3383    0.0000 O   0  0  0  0  0  0  0  0  0  0  0  0
    5.9354   -9.7508    0.0000 O   0  0  0  0  0  0  0  0  0  0  0  0
    8.0788  -10.1633    0.0000 H   0  0  0  0  0  0  0  0  0  0  0  0
    8.7932   -8.9258    0.0000 H   0  0  0  0  0  0  0  0  0  0  0  0
   10.2222   -6.4508    0.0000 H   0  0  0  0  0  0  0  0  0  0  0  0
   10.9367   -7.6883    0.0000 H   0  0  0  0  0  0  0  0  0  0  0  0
    0.9171   -6.8930    0.0000 O   0  0  0  0  0  0  0  0  0  0  0  0
    2.3631   -8.5281    0.0000 C   0  0  0  0  0  0  0  0  0  0  0  0
    1.6444   -8.1230    0.0000 C   0  0  0  0  0  0  0  0  0  0  0  0
    1.6358   -7.2981    0.0000 C   0  0  0  0  0  0  0  0  0  0  0  0
    2.3460   -6.8782    0.0000 C   0  0  0  0  0  0  0  0  0  0  0  0
    3.0647   -7.2833    0.0000 C   0  0  0  0  0  0  0  0  0  0  0  0
    3.0732   -8.1082    0.0000 C   0  0  0  0  0  0  0  0  0  0  0  0
    3.7919   -8.5133    0.0000 C   0  0  0  0  0  0  0  0  0  0  0  0
 49 48  1  0  0  0  0
 45 42  1  0  0  0  0
 48 43  2  0  0  0  0
 44 43  1  0  0  0  0
 45 44  2  0  0  0  0
 46 45  1  0  0  0  0
 47 46  2  0  0  0  0
 48 47  1  0  0  0  0
  1  2  1  0  0  0  0
  2  3  1  0  0  0  0
  3  4  1  0  0  0  0
  4  5  1  0  0  0  0
  5  6  1  0  0  0  0
  6  7  1  0  0  0  0
  7  8  1  0  0  0  0
  8  9  1  0  0  0  0
  9 10  1  0  0  0  0
 10 11  1  0  0  0  0
 11 12  1  0  0  0  0
 12 13  1  0  0  0  0
 13 14  1  0  0  0  0
  9 14  1  0  0  0  0
 14 15  1  0  0  0  0
  6 15  1  0  0  0  0
 15 16  1  0  0  0  0
 16 17  1  0  0  0  0
 17 18  1  0  0  0  0
  5 18  1  0  0  0  0
  1 18  1  0  0  0  0
 19 20  1  0  0  0  0
 20 21  1  0  0  0  0
 21  1  1  0  0  0  0
 19  2  1  0  0  0  0
 22 23  2  0  0  0  0
 22 24  1  0  0  0  0
  2 22  1  1  0  0  0
 25 26  2  0  0  0  0
 26 27  1  0  0  0  0
 21 26  1  6  0  0  0
 14 28  1  1  0  0  0
 10 29  1  0  0  0  0
 10 30  1  0  0  0  0
  6 31  1  1  0  0  0
  5 32  1  6  0  0  0
 34 35  1  0  0  0  0
 35 49  2  0  0  0  0
 34 36  2  0  0  0  0
 33 34  1  0  0  0  0
 12 33  1  6  0  0  0
 11 37  1  1  0  0  0
  9 38  1  6  0  0  0
 15 39  1  6  0  0  0
 18 40  1  1  0  0  0
  1 41  1  6  0  0  0
M  END
>  <cdx:fragmentId>
5

$$$$
