97808.cdx
  Mrv1902 05222410182D          

 40 44  0  0  0  0            999 V2000
    8.7447   -5.7641    0.0000 C   0  0  0  0  0  0  0  0  0  0  0  0
    8.4535   -6.5360    0.0000 C   0  0  0  0  0  0  0  0  0  0  0  0
    4.9484   -8.5868    0.0000 C   0  0  0  0  0  0  0  0  0  0  0  0
    5.4968   -7.9705    0.0000 O   0  0  0  0  0  0  0  0  0  0  0  0
    5.9845  -11.2702    0.0000 H   0  0  0  0  0  0  0  0  0  0  0  0
    6.6918  -10.0286    0.0000 H   0  0  0  0  0  0  0  0  0  0  0  0
    8.1443   -7.5456    0.0000 H   0  0  0  0  0  0  0  0  0  0  0  0
    8.8280   -8.7787    0.0000 H   0  0  0  0  0  0  0  0  0  0  0  0
    3.9018  -10.0449    0.0000 O   0  0  0  0  0  0  0  0  0  0  0  0
    7.4370   -8.7872    0.0000 C   0  0  0  0  0  0  0  0  0  0  0  0
    8.1207  -10.0203    0.0000 C   0  0  0  0  0  0  0  0  0  0  0  0
    6.0081   -8.7955    0.0000 C   0  0  0  0  0  0  0  0  0  0  0  0
    5.3917  -11.5108    0.0000 C   0  0  0  0  0  0  0  0  0  0  0  0
    4.6057  -11.2604    0.0000 C   0  0  0  0  0  0  0  0  0  0  0  0
    7.6394   -6.6698    0.0000 C   0  0  0  0  0  0  0  0  0  0  0  0
    4.1404   -8.4199    0.0000 O   0  0  0  0  0  0  0  0  0  0  0  0
   10.9793   -8.2046    0.0000 O   0  0  0  0  0  0  0  0  0  0  0  0
   10.4056   -9.5134    0.0000 O   0  0  0  0  0  0  0  0  0  0  0  0
   10.3147   -8.6934    0.0000 C   0  0  0  0  0  0  0  0  0  0  0  0
    7.4276  -10.4371    0.0000 C   0  0  0  0  0  0  0  0  0  0  0  0
    6.7155  -10.8537    0.0000 C   0  0  0  0  0  0  0  0  0  0  0  0
    5.9987  -10.4453    0.0000 C   0  0  1  0  0  0  0  0  0  0  0  0
    5.2156  -10.7048    0.0000 C   0  0  0  0  0  0  0  0  0  0  0  0
    4.7268  -10.0402    0.0000 C   0  0  2  0  0  0  0  0  0  0  0  0
    5.2078   -9.3699    0.0000 C   0  0  2  0  0  0  0  0  0  0  0  0
    5.9939   -9.6203    0.0000 C   0  0  1  0  0  0  0  0  0  0  0  0
    6.7060   -9.2037    0.0000 C   0  0  1  0  0  0  0  0  0  0  0  0
    6.7012   -8.3787    0.0000 C   0  0  0  0  0  0  0  0  0  0  0  0
    7.4133   -7.9621    0.0000 C   0  0  0  0  0  0  0  0  0  0  0  0
    8.1301   -8.3705    0.0000 C   0  0  2  0  0  0  0  0  0  0  0  0
    8.8422   -7.9538    0.0000 C   0  0  1  0  0  0  0  0  0  0  0  0
    9.0091   -7.1459    0.0000 C   0  0  1  0  0  0  0  0  0  0  0  0
    9.8290   -7.0549    0.0000 C   0  0  0  0  0  0  0  0  0  0  0  0
   10.1689   -7.8066    0.0000 C   0  0  0  0  0  0  0  0  0  0  0  0
    9.5591   -8.3622    0.0000 C   0  0  1  0  0  0  0  0  0  0  0  0
    9.5638   -9.1872    0.0000 C   0  0  0  0  0  0  0  0  0  0  0  0
    8.8518   -9.6038    0.0000 C   0  0  0  0  0  0  0  0  0  0  0  0
    8.1349   -9.1954    0.0000 C   0  0  2  0  0  0  0  0  0  0  0  0
    7.4228   -9.6121    0.0000 C   0  0  1  0  0  0  0  0  0  0  0  0
    3.9269   -7.6231    0.0000 C   0  0  0  0  0  0  0  0  0  0  0  0
 22  5  1  6  0  0  0
 27  6  1  6  0  0  0
 30  7  1  1  0  0  0
 31  8  1  6  0  0  0
 24  9  1  1  0  0  0
 39 10  1  1  0  0  0
 38 11  1  6  0  0  0
 26 12  1  1  0  0  0
 23 13  1  0  0  0  0
 23 14  1  0  0  0  0
 32  2  1  6  0  0  0
 25  3  1  1  0  0  0
 35 19  1  1  0  0  0
 19 17  1  0  0  0  0
 19 18  2  0  0  0  0
 35 31  1  0  0  0  0
 38 30  1  0  0  0  0
 26 22  1  0  0  0  0
 39 27  1  0  0  0  0
 39 20  1  0  0  0  0
 21 20  1  0  0  0  0
 22 21  1  0  0  0  0
 23 22  1  0  0  0  0
 24 23  1  0  0  0  0
 25 24  1  0  0  0  0
 26 25  1  0  0  0  0
 27 26  1  0  0  0  0
 28 27  1  0  0  0  0
 29 28  1  0  0  0  0
 30 29  1  0  0  0  0
 31 30  1  0  0  0  0
 32 31  1  0  0  0  0
 33 32  1  0  0  0  0
 34 33  1  0  0  0  0
 35 34  1  0  0  0  0
 36 35  1  0  0  0  0
 37 36  1  0  0  0  0
 38 37  1  0  0  0  0
 39 38  1  0  0  0  0
  1  2  2  0  0  0  0
  2 15  1  0  0  0  0
  3  4  2  0  0  0  0
  3 16  1  0  0  0  0
 16 40  1  0  0  0  0
M  END
>  <cdx:fragmentId>
144339

$$$$
