97809.cdx
  Mrv1902 05222410182D          

 38 42  0  0  0  0            999 V2000
    4.7006   -8.5789    0.0000 C   0  0  2  0  0  0  0  0  0  0  0  0
    5.4150   -9.8164    0.0000 C   0  0  1  0  0  0  0  0  0  0  0  0
    6.1295   -9.4039    0.0000 C   0  0  1  0  0  0  0  0  0  0  0  0
    6.1295   -8.5789    0.0000 C   0  0  2  0  0  0  0  0  0  0  0  0
    5.4150   -8.1664    0.0000 C   0  0  0  0  0  0  0  0  0  0  0  0
    6.8440   -9.8164    0.0000 C   0  0  0  0  0  0  0  0  0  0  0  0
    7.5584   -9.4039    0.0000 C   0  0  0  0  0  0  0  0  0  0  0  0
    7.5584   -8.5789    0.0000 C   0  0  2  0  0  0  0  0  0  0  0  0
    6.8440   -8.1664    0.0000 C   0  0  2  0  0  0  0  0  0  0  0  0
    8.2729   -8.1664    0.0000 C   0  0  1  0  0  0  0  0  0  0  0  0
    8.2729   -7.3414    0.0000 C   0  0  0  0  0  0  0  0  0  0  0  0
    7.5584   -6.9289    0.0000 C   0  0  0  0  0  0  0  0  0  0  0  0
    6.8440   -7.3414    0.0000 C   0  0  0  0  0  0  0  0  0  0  0  0
    8.9874   -8.5789    0.0000 C   0  0  0  0  0  0  0  0  0  0  0  0
    9.7019   -8.1664    0.0000 C   0  0  0  0  0  0  0  0  0  0  0  0
    9.7019   -7.3414    0.0000 C   0  0  2  0  0  0  0  0  0  0  0  0
    8.9874   -6.9289    0.0000 C   0  0  1  0  0  0  0  0  0  0  0  0
   10.4163   -6.9289    0.0000 C   0  0  0  0  0  0  0  0  0  0  0  0
   10.4163   -6.1039    0.0000 C   0  0  0  0  0  0  0  0  0  0  0  0
    8.9874   -6.1039    0.0000 C   0  0  2  0  0  0  0  0  0  0  0  0
    3.9861   -8.1664    0.0000 O   0  0  0  0  0  0  0  0  0  0  0  0
   10.4163   -7.7539    0.0000 C   0  0  0  0  0  0  0  0  0  0  0  0
   11.1308   -7.3414    0.0000 O   0  0  0  0  0  0  0  0  0  0  0  0
   10.4163   -8.5789    0.0000 O   0  0  0  0  0  0  0  0  0  0  0  0
    8.2729   -8.9914    0.0000 C   0  0  0  0  0  0  0  0  0  0  0  0
    6.1295   -7.7539    0.0000 C   0  0  0  0  0  0  0  0  0  0  0  0
    7.5584   -7.7539    0.0000 C   0  0  0  0  0  0  0  0  0  0  0  0
    4.7006   -9.4039    0.0000 C   0  0  1  0  0  0  0  0  0  0  0  0
    5.8275  -10.5309    0.0000 C   0  0  0  0  0  0  0  0  0  0  0  0
    3.9861   -9.8164    0.0000 O   0  0  0  0  0  0  0  0  0  0  0  0
    5.0025  -10.5309    0.0000 C   0  0  0  0  0  0  0  0  0  0  0  0
    6.1295  -10.2289    0.0000 H   0  0  0  0  0  0  0  0  0  0  0  0
    6.8440   -8.9914    0.0000 H   0  0  0  0  0  0  0  0  0  0  0  0
    8.9874   -7.7539    0.0000 H   0  0  0  0  0  0  0  0  0  0  0  0
    9.7019   -5.6914    0.0000 C   0  0  2  0  0  0  0  0  0  0  0  0
    8.2729   -5.6914    0.0000 C   0  0  0  0  0  0  0  0  0  0  0  0
    9.7019   -4.8664    0.0000 C   0  0  0  0  0  0  0  0  0  0  0  0
    8.9874   -5.2789    0.0000 O   0  0  0  0  0  0  0  0  0  0  0  0
  2  3  1  0  0  0  0
  3  4  1  0  0  0  0
  4  5  1  0  0  0  0
  5  1  1  0  0  0  0
  3  6  1  0  0  0  0
  6  7  1  0  0  0  0
  7  8  1  0  0  0  0
  8  9  1  0  0  0  0
  9  4  1  0  0  0  0
  8 10  1  0  0  0  0
 10 11  1  0  0  0  0
 11 12  2  0  0  0  0
 12 13  1  0  0  0  0
 13  9  1  0  0  0  0
 10 14  1  0  0  0  0
 14 15  1  0  0  0  0
 15 16  1  0  0  0  0
 16 17  1  0  0  0  0
 17 11  1  0  0  0  0
 16 18  1  0  0  0  0
 18 19  1  0  0  0  0
 20 17  1  0  0  0  0
  1 21  1  1  0  0  0
 16 22  1  1  0  0  0
 22 23  2  0  0  0  0
 22 24  1  0  0  0  0
 10 25  1  6  0  0  0
  4 26  1  1  0  0  0
  8 27  1  1  0  0  0
  2 28  1  0  0  0  0
  1 28  1  0  0  0  0
  2 29  1  6  0  0  0
 28 30  1  1  0  0  0
  2 31  1  1  0  0  0
  3 32  1  6  0  0  0
  9 33  1  6  0  0  0
 17 34  1  1  0  0  0
 20 35  1  0  0  0  0
 35 19  1  0  0  0  0
 20 36  1  1  0  0  0
 35 37  1  6  0  0  0
 20 38  1  6  0  0  0
M  END
>  <cdx:fragmentId>
5

$$$$
