97802.cdx
  Mrv1902 05222410272D          

 48 53  0  0  0  0            999 V2000
    1.7501   -9.6701    0.0000 C   0  0  0  0  0  0  0  0  0  0  0  0
    1.7508  -10.4951    0.0000 C   0  0  0  0  0  0  0  0  0  0  0  0
    6.0369   -9.6662    0.0000 O   0  0  0  0  0  0  0  0  0  0  0  0
    2.4656  -10.9070    0.0000 C   0  0  0  0  0  0  0  0  0  0  0  0
    3.1797  -10.4938    0.0000 C   0  0  0  0  0  0  0  0  0  0  0  0
    4.6079   -9.6675    0.0000 C   0  0  0  0  0  0  0  0  0  0  0  0
    5.3220   -9.2544    0.0000 C   0  0  0  0  0  0  0  0  0  0  0  0
    5.3213   -8.4294    0.0000 O   0  0  0  0  0  0  0  0  0  0  0  0
    3.1790   -9.6688    0.0000 C   0  0  0  0  0  0  0  0  0  0  0  0
    2.4642   -9.2570    0.0000 C   0  0  0  0  0  0  0  0  0  0  0  0
    3.8931   -9.2557    0.0000 C   0  0  0  0  0  0  0  0  0  0  0  0
    6.7514   -9.2538    0.0000 C   0  0  1  0  0  0  0  0  0  0  0  0
    6.7514   -8.4288    0.0000 C   0  0  2  0  0  0  0  0  0  0  0  0
    6.0369   -8.0162    0.0000 O   0  0  0  0  0  0  0  0  0  0  0  0
    7.4658   -9.6662    0.0000 C   0  0  0  0  0  0  0  0  0  0  0  0
    8.1803   -9.2538    0.0000 C   0  0  1  0  0  0  0  0  0  0  0  0
    8.1803   -8.4288    0.0000 C   0  0  2  0  0  0  0  0  0  0  0  0
    7.4658   -8.0162    0.0000 C   0  0  0  0  0  0  0  0  0  0  0  0
    8.8948   -9.6662    0.0000 C   0  0  0  0  0  0  0  0  0  0  0  0
    9.6092   -9.2538    0.0000 C   0  0  0  0  0  0  0  0  0  0  0  0
    9.6092   -8.4288    0.0000 C   0  0  2  0  0  0  0  0  0  0  0  0
    8.8948   -8.0162    0.0000 C   0  0  2  0  0  0  0  0  0  0  0  0
   10.3237   -8.0162    0.0000 C   0  0  1  0  0  0  0  0  0  0  0  0
   10.3237   -7.1913    0.0000 C   0  0  0  0  0  0  0  0  0  0  0  0
    9.6092   -6.7788    0.0000 C   0  0  0  0  0  0  0  0  0  0  0  0
    8.8948   -7.1913    0.0000 C   0  0  0  0  0  0  0  0  0  0  0  0
   11.0382   -8.4288    0.0000 C   0  0  0  0  0  0  0  0  0  0  0  0
   11.7527   -8.0162    0.0000 C   0  0  0  0  0  0  0  0  0  0  0  0
   11.7527   -7.1913    0.0000 C   0  0  2  0  0  0  0  0  0  0  0  0
   11.0382   -6.7788    0.0000 C   0  0  1  0  0  0  0  0  0  0  0  0
   12.4671   -6.7788    0.0000 C   0  0  0  0  0  0  0  0  0  0  0  0
   12.4671   -5.9538    0.0000 C   0  0  0  0  0  0  0  0  0  0  0  0
   11.7527   -5.5413    0.0000 C   0  0  0  0  0  0  0  0  0  0  0  0
   11.0382   -5.9538    0.0000 C   0  0  0  0  0  0  0  0  0  0  0  0
    1.0367  -10.9083    0.0000 O   0  0  0  0  0  0  0  0  0  0  0  0
   12.4671   -7.6037    0.0000 C   0  0  0  0  0  0  0  0  0  0  0  0
   13.1816   -7.1913    0.0000 O   0  0  0  0  0  0  0  0  0  0  0  0
   12.4671   -8.4288    0.0000 O   0  0  0  0  0  0  0  0  0  0  0  0
    7.0533  -10.3807    0.0000 C   0  0  0  0  0  0  0  0  0  0  0  0
    8.1803   -7.6037    0.0000 C   0  0  0  0  0  0  0  0  0  0  0  0
    9.6092   -7.6037    0.0000 C   0  0  0  0  0  0  0  0  0  0  0  0
   11.0382   -7.6037    0.0000 H   0  0  0  0  0  0  0  0  0  0  0  0
   11.3402   -4.8268    0.0000 C   0  0  0  0  0  0  0  0  0  0  0  0
    7.8783  -10.3807    0.0000 C   0  0  0  0  0  0  0  0  0  0  0  0
    8.1803  -10.0787    0.0000 H   0  0  0  0  0  0  0  0  0  0  0  0
    8.8948   -8.8413    0.0000 H   0  0  0  0  0  0  0  0  0  0  0  0
   10.3237   -8.8413    0.0000 C   0  0  0  0  0  0  0  0  0  0  0  0
   12.1652   -4.8268    0.0000 C   0  0  0  0  0  0  0  0  0  0  0  0
  7  3  1  0  0  0  0
  6 11  2  0  0  0  0
  7  6  1  0  0  0  0
  8  7  2  0  0  0  0
  1  2  2  0  0  0  0
  2  4  1  0  0  0  0
  4  5  2  0  0  0  0
  5  9  1  0  0  0  0
  9 10  2  0  0  0  0
 10  1  1  0  0  0  0
 11  9  1  0  0  0  0
 12  3  1  1  0  0  0
 12 13  1  0  0  0  0
 13 14  1  6  0  0  0
 12 15  1  0  0  0  0
 15 16  1  0  0  0  0
 16 17  1  0  0  0  0
 17 18  1  0  0  0  0
 18 13  1  0  0  0  0
 16 19  1  0  0  0  0
 19 20  1  0  0  0  0
 20 21  1  0  0  0  0
 21 22  1  0  0  0  0
 22 17  1  0  0  0  0
 21 23  1  0  0  0  0
 23 24  1  0  0  0  0
 24 25  2  0  0  0  0
 25 26  1  0  0  0  0
 26 22  1  0  0  0  0
 23 27  1  0  0  0  0
 27 28  1  0  0  0  0
 28 29  1  0  0  0  0
 29 30  1  0  0  0  0
 30 24  1  0  0  0  0
 29 31  1  0  0  0  0
 31 32  1  0  0  0  0
 32 33  1  0  0  0  0
 33 34  1  0  0  0  0
 34 30  1  0  0  0  0
  2 35  1  0  0  0  0
 29 36  1  1  0  0  0
 36 37  1  0  0  0  0
 36 38  2  0  0  0  0
 15 39  1  0  0  0  0
 17 40  1  1  0  0  0
 21 41  1  1  0  0  0
 30 42  1  1  0  0  0
 33 43  1  0  0  0  0
 15 44  1  0  0  0  0
 16 45  1  6  0  0  0
 22 46  1  6  0  0  0
 23 47  1  6  0  0  0
 33 48  1  0  0  0  0
M  END
>  <cdx:fragmentId>
267

$$$$
