97803.cdx
  Mrv1902 05222410272D          

 48 53  0  0  0  0            999 V2000
    6.1581   -9.5414    0.0000 C   0  0  1  0  0  0  0  0  0  0  0  0
    6.8725  -10.7789    0.0000 C   0  0  2  0  0  0  0  0  0  0  0  0
    7.5870  -10.3664    0.0000 C   0  0  1  0  0  0  0  0  0  0  0  0
    7.5870   -9.5414    0.0000 C   0  0  2  0  0  0  0  0  0  0  0  0
    6.8725   -9.1289    0.0000 C   0  0  0  0  0  0  0  0  0  0  0  0
    8.3015  -10.7789    0.0000 C   0  0  0  0  0  0  0  0  0  0  0  0
    9.0159  -10.3664    0.0000 C   0  0  0  0  0  0  0  0  0  0  0  0
    9.0159   -9.5414    0.0000 C   0  0  2  0  0  0  0  0  0  0  0  0
    8.3015   -9.1289    0.0000 C   0  0  2  0  0  0  0  0  0  0  0  0
    9.7304   -9.1289    0.0000 C   0  0  1  0  0  0  0  0  0  0  0  0
    9.7304   -8.3039    0.0000 C   0  0  0  0  0  0  0  0  0  0  0  0
    9.0159   -7.8914    0.0000 C   0  0  0  0  0  0  0  0  0  0  0  0
    8.3015   -8.3039    0.0000 C   0  0  0  0  0  0  0  0  0  0  0  0
   10.4449   -9.5414    0.0000 C   0  0  0  0  0  0  0  0  0  0  0  0
   11.1594   -9.1289    0.0000 C   0  0  0  0  0  0  0  0  0  0  0  0
   11.1594   -8.3039    0.0000 C   0  0  2  0  0  0  0  0  0  0  0  0
   10.4449   -7.8914    0.0000 C   0  0  1  0  0  0  0  0  0  0  0  0
   11.8738   -7.8914    0.0000 C   0  0  0  0  0  0  0  0  0  0  0  0
   11.8738   -7.0664    0.0000 C   0  0  0  0  0  0  0  0  0  0  0  0
   10.4449   -7.0664    0.0000 C   0  0  0  0  0  0  0  0  0  0  0  0
    5.4436   -9.1289    0.0000 O   0  0  0  0  0  0  0  0  0  0  0  0
   11.8738   -8.7164    0.0000 C   0  0  0  0  0  0  0  0  0  0  0  0
   12.5883   -8.3039    0.0000 O   0  0  0  0  0  0  0  0  0  0  0  0
   11.8738   -9.5414    0.0000 O   0  0  0  0  0  0  0  0  0  0  0  0
    9.7304   -9.9539    0.0000 C   0  0  0  0  0  0  0  0  0  0  0  0
    7.5870  -11.1914    0.0000 H   0  0  0  0  0  0  0  0  0  0  0  0
    7.5870   -8.7164    0.0000 C   0  0  0  0  0  0  0  0  0  0  0  0
    8.3015   -9.9539    0.0000 H   0  0  0  0  0  0  0  0  0  0  0  0
    9.0159   -8.7164    0.0000 C   0  0  0  0  0  0  0  0  0  0  0  0
   10.4449   -8.7164    0.0000 H   0  0  0  0  0  0  0  0  0  0  0  0
    6.1581  -10.3664    0.0000 C   0  0  1  0  0  0  0  0  0  0  0  0
    5.4436  -10.7789    0.0000 O   0  0  0  0  0  0  0  0  0  0  0  0
   11.1594   -6.6539    0.0000 C   0  0  1  0  0  0  0  0  0  0  0  0
    6.4600  -11.4934    0.0000 C   0  0  0  0  0  0  0  0  0  0  0  0
   11.5719   -5.9394    0.0000 C   0  0  0  0  0  0  0  0  0  0  0  0
    7.2850  -11.4934    0.0000 C   0  0  0  0  0  0  0  0  0  0  0  0
   10.7469   -5.9394    0.0000 C   0  0  0  0  0  0  0  0  0  0  0  0
    3.2867  -11.9889    0.0000 C   0  0  0  0  0  0  0  0  0  0  0  0
    4.0028  -11.5792    0.0000 C   0  0  0  0  0  0  0  0  0  0  0  0
    4.0061  -10.7542    0.0000 C   0  0  0  0  0  0  0  0  0  0  0  0
    3.2932  -10.3389    0.0000 C   0  0  0  0  0  0  0  0  0  0  0  0
    2.5771  -10.7486    0.0000 C   0  0  0  0  0  0  0  0  0  0  0  0
    2.5739  -11.5736    0.0000 C   0  0  0  0  0  0  0  0  0  0  0  0
    3.2835  -12.8139    0.0000 O   0  0  0  0  0  0  0  0  0  0  0  0
    3.2965   -9.5139    0.0000 C   0  0  0  0  0  0  0  0  0  0  0  0
    4.0109   -9.1014    0.0000 C   0  0  0  0  0  0  0  0  0  0  0  0
    4.7254   -9.5139    0.0000 C   0  0  0  0  0  0  0  0  0  0  0  0
    4.7254  -10.3389    0.0000 O   0  0  0  0  0  0  0  0  0  0  0  0
  2  3  1  0  0  0  0
  3  4  1  0  0  0  0
  4  5  1  0  0  0  0
  5  1  1  0  0  0  0
  3  6  1  0  0  0  0
  6  7  1  0  0  0  0
  7  8  1  0  0  0  0
  8  9  1  0  0  0  0
  9  4  1  0  0  0  0
  8 10  1  0  0  0  0
 10 11  1  0  0  0  0
 11 12  2  0  0  0  0
 12 13  1  0  0  0  0
 13  9  1  0  0  0  0
 10 14  1  0  0  0  0
 14 15  1  0  0  0  0
 15 16  1  0  0  0  0
 16 17  1  0  0  0  0
 17 11  1  0  0  0  0
 16 18  1  0  0  0  0
 18 19  1  0  0  0  0
 20 17  1  0  0  0  0
  1 21  1  6  0  0  0
 16 22  1  1  0  0  0
 22 23  2  0  0  0  0
 22 24  1  0  0  0  0
 10 25  1  6  0  0  0
  3 26  1  6  0  0  0
  4 27  1  1  0  0  0
  9 28  1  6  0  0  0
  8 29  1  1  0  0  0
 17 30  1  1  0  0  0
  2 31  1  0  0  0  0
  1 31  1  0  0  0  0
 31 32  1  1  0  0  0
 20 33  1  0  0  0  0
 19 33  1  0  0  0  0
  2 34  1  1  0  0  0
 33 35  1  1  0  0  0
  2 36  1  6  0  0  0
 33 37  1  6  0  0  0
 38 39  2  0  0  0  0
 39 40  1  0  0  0  0
 40 41  2  0  0  0  0
 41 42  1  0  0  0  0
 42 43  2  0  0  0  0
 43 38  1  0  0  0  0
 38 44  1  0  0  0  0
 41 45  1  0  0  0  0
 45 46  2  0  0  0  0
 46 47  1  0  0  0  0
 47 48  2  0  0  0  0
 47 21  1  0  0  0  0
M  END
>  <cdx:fragmentId>
5

$$$$
