97804.cdx
  Mrv1902 05222410282D          

 39 43  0  0  0  0            999 V2000
    4.5768  -10.0501    0.0000 C   0  0  1  0  0  0  0  0  0  0  0  0
    5.2913  -11.2876    0.0000 C   0  0  0  0  0  0  0  0  0  0  0  0
    6.0057  -10.8751    0.0000 C   0  0  1  0  0  0  0  0  0  0  0  0
    6.0057  -10.0501    0.0000 C   0  0  2  0  0  0  0  0  0  0  0  0
    5.2913   -9.6376    0.0000 C   0  0  0  0  0  0  0  0  0  0  0  0
    6.7202  -11.2876    0.0000 C   0  0  0  0  0  0  0  0  0  0  0  0
    7.4347  -10.8751    0.0000 C   0  0  0  0  0  0  0  0  0  0  0  0
    7.4347  -10.0501    0.0000 C   0  0  2  0  0  0  0  0  0  0  0  0
    6.7202   -9.6376    0.0000 C   0  0  2  0  0  0  0  0  0  0  0  0
    8.1492   -9.6376    0.0000 C   0  0  1  0  0  0  0  0  0  0  0  0
    8.1492   -8.8126    0.0000 C   0  0  2  0  0  0  0  0  0  0  0  0
    7.4347   -8.4001    0.0000 C   0  0  0  0  0  0  0  0  0  0  0  0
    6.7202   -8.8126    0.0000 C   0  0  0  0  0  0  0  0  0  0  0  0
    8.8636  -10.0501    0.0000 C   0  0  0  0  0  0  0  0  0  0  0  0
    9.5781   -9.6376    0.0000 C   0  0  0  0  0  0  0  0  0  0  0  0
    9.5781   -8.8126    0.0000 C   0  0  1  0  0  0  0  0  0  0  0  0
    8.8636   -8.4001    0.0000 C   0  0  2  0  0  0  0  0  0  0  0  0
    3.8623   -9.6376    0.0000 O   0  0  0  0  0  0  0  0  0  0  0  0
   10.2926   -9.2251    0.0000 C   0  0  0  0  0  0  0  0  0  0  0  0
   11.0070   -8.8126    0.0000 O   0  0  0  0  0  0  0  0  0  0  0  0
   10.2926  -10.0501    0.0000 O   0  0  0  0  0  0  0  0  0  0  0  0
    8.1492  -10.4626    0.0000 C   0  0  0  0  0  0  0  0  0  0  0  0
    6.0057   -9.2251    0.0000 C   0  0  0  0  0  0  0  0  0  0  0  0
    7.4347   -9.2251    0.0000 C   0  0  0  0  0  0  0  0  0  0  0  0
    4.5768  -10.8751    0.0000 C   0  0  1  0  0  0  0  0  0  0  0  0
    8.1492   -7.9876    0.0000 H   0  0  0  0  0  0  0  0  0  0  0  0
    5.7038  -12.0021    0.0000 C   0  0  0  0  0  0  0  0  0  0  0  0
    3.8623  -11.2876    0.0000 O   0  0  0  0  0  0  0  0  0  0  0  0
    4.8788  -12.0021    0.0000 C   0  0  0  0  0  0  0  0  0  0  0  0
   10.1912   -8.2606    0.0000 C   0  0  0  0  0  0  0  0  0  0  0  0
    9.8556   -7.5069    0.0000 C   0  0  0  0  0  0  0  0  0  0  0  0
    9.0352   -7.5932    0.0000 C   0  0  1  0  0  0  0  0  0  0  0  0
    8.4831   -6.9801    0.0000 C   0  0  0  0  0  0  0  0  0  0  0  0
    8.7381   -6.1955    0.0000 C   0  0  0  0  0  0  0  0  0  0  0  0
    7.6762   -7.1516    0.0000 C   0  0  0  0  0  0  0  0  0  0  0  0
    7.9311   -6.3670    0.0000 O   0  0  0  0  0  0  0  0  0  0  0  0
    8.8636   -9.2251    0.0000 H   0  0  0  0  0  0  0  0  0  0  0  0
    6.7202  -10.4626    0.0000 H   0  0  0  0  0  0  0  0  0  0  0  0
    6.0057  -11.7001    0.0000 H   0  0  0  0  0  0  0  0  0  0  0  0
  2  3  1  0  0  0  0
  3  4  1  0  0  0  0
  4  5  1  0  0  0  0
  5  1  1  0  0  0  0
  3  6  1  0  0  0  0
  6  7  1  0  0  0  0
  7  8  1  0  0  0  0
  8  9  1  0  0  0  0
  9  4  1  0  0  0  0
  8 10  1  0  0  0  0
 10 11  1  0  0  0  0
 11 12  1  0  0  0  0
 12 13  1  0  0  0  0
 13  9  1  0  0  0  0
 10 14  1  0  0  0  0
 14 15  1  0  0  0  0
 15 16  1  0  0  0  0
 16 17  1  0  0  0  0
 17 11  1  0  0  0  0
  1 18  1  6  0  0  0
 16 19  1  1  0  0  0
 19 20  2  0  0  0  0
 19 21  1  0  0  0  0
 10 22  1  6  0  0  0
  4 23  1  1  0  0  0
  8 24  1  1  0  0  0
  2 25  1  0  0  0  0
 11 26  1  1  0  0  0
  1 25  1  0  0  0  0
  2 27  1  0  0  0  0
 25 28  1  1  0  0  0
  2 29  1  0  0  0  0
 16 30  1  0  0  0  0
 30 31  1  0  0  0  0
 31 32  1  0  0  0  0
 32 17  1  0  0  0  0
 32 33  1  6  0  0  0
 33 34  1  0  0  0  0
 33 35  1  0  0  0  0
 33 36  1  0  0  0  0
 17 37  1  6  0  0  0
  9 38  1  6  0  0  0
  3 39  1  6  0  0  0
M  END
>  <cdx:fragmentId>
5

$$$$
