97807.cdx
  Mrv1902 05222410272D          

 38 42  0  0  0  0            999 V2000
    4.7006   -8.5789    0.0000 C   0  0  0  0  0  0  0  0  0  0  0  0
    5.4150   -9.8164    0.0000 C   0  0  1  0  0  0  0  0  0  0  0  0
    6.1295   -9.4039    0.0000 C   0  0  1  0  0  0  0  0  0  0  0  0
    6.1295   -8.5789    0.0000 C   0  0  2  0  0  0  0  0  0  0  0  0
    5.4150   -8.1664    0.0000 C   0  0  0  0  0  0  0  0  0  0  0  0
    6.8440   -9.8164    0.0000 C   0  0  0  0  0  0  0  0  0  0  0  0
    7.5584   -9.4039    0.0000 C   0  0  0  0  0  0  0  0  0  0  0  0
    7.5584   -8.5789    0.0000 C   0  0  2  0  0  0  0  0  0  0  0  0
    6.8440   -8.1664    0.0000 C   0  0  2  0  0  0  0  0  0  0  0  0
    8.2729   -8.1664    0.0000 C   0  0  1  0  0  0  0  0  0  0  0  0
    8.2729   -7.3414    0.0000 C   0  0  2  0  0  0  0  0  0  0  0  0
    7.5584   -6.9289    0.0000 C   0  0  0  0  0  0  0  0  0  0  0  0
    6.8440   -7.3414    0.0000 C   0  0  0  0  0  0  0  0  0  0  0  0
    8.9874   -8.5789    0.0000 C   0  0  0  0  0  0  0  0  0  0  0  0
    9.7019   -8.1664    0.0000 C   0  0  0  0  0  0  0  0  0  0  0  0
    9.7019   -7.3414    0.0000 C   0  0  1  0  0  0  0  0  0  0  0  0
    8.9874   -6.9289    0.0000 C   0  0  2  0  0  0  0  0  0  0  0  0
   11.1308   -7.3414    0.0000 O   0  0  0  0  0  0  0  0  0  0  0  0
   10.4163   -8.5789    0.0000 O   0  0  0  0  0  0  0  0  0  0  0  0
   10.4163   -7.7539    0.0000 C   0  0  0  0  0  0  0  0  0  0  0  0
    8.2729   -8.9914    0.0000 C   0  0  0  0  0  0  0  0  0  0  0  0
    6.1295   -7.7539    0.0000 C   0  0  0  0  0  0  0  0  0  0  0  0
    7.5584   -7.7539    0.0000 C   0  0  0  0  0  0  0  0  0  0  0  0
    4.7006   -9.4039    0.0000 C   0  0  1  0  0  0  0  0  0  0  0  0
    8.2729   -6.5164    0.0000 H   0  0  0  0  0  0  0  0  0  0  0  0
    5.8275  -10.5309    0.0000 C   0  0  0  0  0  0  0  0  0  0  0  0
    3.9861   -9.8164    0.0000 O   0  0  0  0  0  0  0  0  0  0  0  0
    5.0025  -10.5309    0.0000 C   0  0  0  0  0  0  0  0  0  0  0  0
    6.1295  -10.2289    0.0000 H   0  0  0  0  0  0  0  0  0  0  0  0
    6.8440   -8.9914    0.0000 H   0  0  0  0  0  0  0  0  0  0  0  0
    8.9874   -7.7539    0.0000 H   0  0  0  0  0  0  0  0  0  0  0  0
   10.3149   -6.7894    0.0000 C   0  0  0  0  0  0  0  0  0  0  0  0
    9.9794   -6.0357    0.0000 C   0  0  0  0  0  0  0  0  0  0  0  0
    9.1589   -6.1219    0.0000 C   0  0  1  0  0  0  0  0  0  0  0  0
    8.6069   -5.5088    0.0000 C   0  0  0  0  0  0  0  0  0  0  0  0
    8.8618   -4.7242    0.0000 C   0  0  0  0  0  0  0  0  0  0  0  0
    7.7999   -5.6804    0.0000 C   0  0  0  0  0  0  0  0  0  0  0  0
    7.2479   -5.0673    0.0000 O   0  0  0  0  0  0  0  0  0  0  0  0
  2  3  1  0  0  0  0
  3  4  1  0  0  0  0
  4  5  1  0  0  0  0
  5  1  1  0  0  0  0
  3  6  1  0  0  0  0
  6  7  1  0  0  0  0
  7  8  1  0  0  0  0
  8  9  1  0  0  0  0
  9  4  1  0  0  0  0
  8 10  1  0  0  0  0
 10 11  1  0  0  0  0
 11 12  1  0  0  0  0
 12 13  1  0  0  0  0
 13  9  1  0  0  0  0
 10 14  1  0  0  0  0
 14 15  1  0  0  0  0
 15 16  1  0  0  0  0
 16 17  1  0  0  0  0
 17 11  1  0  0  0  0
 20 18  1  0  0  0  0
 16 20  1  1  0  0  0
 20 19  2  0  0  0  0
 10 21  1  6  0  0  0
  4 22  1  1  0  0  0
  8 23  1  1  0  0  0
  2 24  1  0  0  0  0
 11 25  1  1  0  0  0
  1 24  1  0  0  0  0
  2 26  1  6  0  0  0
 24 27  1  1  0  0  0
  2 28  1  1  0  0  0
  3 29  1  6  0  0  0
  9 30  1  6  0  0  0
 17 31  1  6  0  0  0
 16 32  1  0  0  0  0
 32 33  1  0  0  0  0
 33 34  1  0  0  0  0
 34 17  1  0  0  0  0
 34 35  1  6  0  0  0
 35 36  2  0  0  0  0
 35 37  1  0  0  0  0
 37 38  1  0  0  0  0
M  END
>  <cdx:fragmentId>
5

$$$$
