97800.cdx
  Mrv1902 05222410262D          

 38 42  0  0  0  0            999 V2000
    4.5218  -10.9714    0.0000 C   0  0  1  0  0  0  0  0  0  0  0  0
    5.2363  -12.2089    0.0000 C   0  0  0  0  0  0  0  0  0  0  0  0
    5.9507  -11.7964    0.0000 C   0  0  1  0  0  0  0  0  0  0  0  0
    5.9507  -10.9714    0.0000 C   0  0  2  0  0  0  0  0  0  0  0  0
    5.2363  -10.5589    0.0000 C   0  0  0  0  0  0  0  0  0  0  0  0
    6.6652  -12.2089    0.0000 C   0  0  0  0  0  0  0  0  0  0  0  0
    7.3797  -11.7964    0.0000 C   0  0  0  0  0  0  0  0  0  0  0  0
    7.3797  -10.9714    0.0000 C   0  0  2  0  0  0  0  0  0  0  0  0
    6.6652  -10.5589    0.0000 C   0  0  2  0  0  0  0  0  0  0  0  0
    8.0942  -10.5589    0.0000 C   0  0  1  0  0  0  0  0  0  0  0  0
    8.0942   -9.7339    0.0000 C   0  0  0  0  0  0  0  0  0  0  0  0
    7.3797   -9.3214    0.0000 C   0  0  0  0  0  0  0  0  0  0  0  0
    6.6652   -9.7339    0.0000 C   0  0  0  0  0  0  0  0  0  0  0  0
    8.8086  -10.9714    0.0000 C   0  0  0  0  0  0  0  0  0  0  0  0
    9.5231  -10.5589    0.0000 C   0  0  0  0  0  0  0  0  0  0  0  0
    9.5231   -9.7339    0.0000 C   0  0  2  0  0  0  0  0  0  0  0  0
    8.8086   -9.3214    0.0000 C   0  0  1  0  0  0  0  0  0  0  0  0
   10.2376   -9.3214    0.0000 C   0  0  0  0  0  0  0  0  0  0  0  0
   10.2376   -8.4964    0.0000 C   0  0  0  0  0  0  0  0  0  0  0  0
    8.8086   -8.4964    0.0000 C   0  0  0  0  0  0  0  0  0  0  0  0
    3.8073  -10.5589    0.0000 O   0  0  0  0  0  0  0  0  0  0  0  0
   10.2376  -10.1464    0.0000 C   0  0  0  0  0  0  0  0  0  0  0  0
   10.9520   -9.7339    0.0000 O   0  0  0  0  0  0  0  0  0  0  0  0
   10.2376  -10.9714    0.0000 O   0  0  0  0  0  0  0  0  0  0  0  0
    8.0942  -11.3839    0.0000 C   0  0  0  0  0  0  0  0  0  0  0  0
    5.9507  -12.6214    0.0000 H   0  0  0  0  0  0  0  0  0  0  0  0
    5.9507  -10.1464    0.0000 C   0  0  0  0  0  0  0  0  0  0  0  0
    6.6652  -11.3839    0.0000 H   0  0  0  0  0  0  0  0  0  0  0  0
    7.3797  -10.1464    0.0000 C   0  0  0  0  0  0  0  0  0  0  0  0
    8.8086  -10.1464    0.0000 H   0  0  0  0  0  0  0  0  0  0  0  0
    4.5218  -11.7964    0.0000 C   0  0  1  0  0  0  0  0  0  0  0  0
    3.8073  -12.2089    0.0000 O   0  0  0  0  0  0  0  0  0  0  0  0
    5.9507   -9.3214    0.0000 O   0  0  0  0  0  0  0  0  0  0  0  0
    9.5231   -8.0839    0.0000 C   0  0  0  0  0  0  0  0  0  0  0  0
    4.8238  -12.9234    0.0000 C   0  0  0  0  0  0  0  0  0  0  0  0
    9.9356   -7.3694    0.0000 C   0  0  0  0  0  0  0  0  0  0  0  0
    5.6488  -12.9234    0.0000 C   0  0  0  0  0  0  0  0  0  0  0  0
    9.1106   -7.3694    0.0000 C   0  0  0  0  0  0  0  0  0  0  0  0
  2  3  1  0  0  0  0
  3  4  1  0  0  0  0
  4  5  1  0  0  0  0
  5  1  1  0  0  0  0
  3  6  1  0  0  0  0
  6  7  1  0  0  0  0
  7  8  1  0  0  0  0
  8  9  1  0  0  0  0
  9  4  1  0  0  0  0
  8 10  1  0  0  0  0
 10 11  1  0  0  0  0
 11 12  2  0  0  0  0
 12 13  1  0  0  0  0
 13  9  1  0  0  0  0
 10 14  1  0  0  0  0
 14 15  1  0  0  0  0
 15 16  1  0  0  0  0
 16 17  1  0  0  0  0
 17 11  1  0  0  0  0
 16 18  1  0  0  0  0
 18 19  1  0  0  0  0
 20 17  1  0  0  0  0
  1 21  1  6  0  0  0
 16 22  1  1  0  0  0
 22 23  2  0  0  0  0
 22 24  1  0  0  0  0
 10 25  1  6  0  0  0
  3 26  1  6  0  0  0
  4 27  1  1  0  0  0
  9 28  1  6  0  0  0
  8 29  1  1  0  0  0
 17 30  1  1  0  0  0
  2 31  1  0  0  0  0
  1 31  1  0  0  0  0
 31 32  1  1  0  0  0
 13 33  2  0  0  0  0
 20 34  1  0  0  0  0
 19 34  1  0  0  0  0
  2 35  1  0  0  0  0
 34 36  1  0  0  0  0
  2 37  1  0  0  0  0
 34 38  1  0  0  0  0
M  END
>  <cdx:fragmentId>
5

$$$$
