97801.cdx
  Mrv1902 05222410262D          

 48 53  0  0  0  0            999 V2000
    7.1618   -9.9264    0.0000 C   0  0  1  0  0  0  0  0  0  0  0  0
    7.8763  -11.1639    0.0000 C   0  0  0  0  0  0  0  0  0  0  0  0
    8.5907  -10.7514    0.0000 C   0  0  1  0  0  0  0  0  0  0  0  0
    8.5907   -9.9264    0.0000 C   0  0  2  0  0  0  0  0  0  0  0  0
    7.8763   -9.5139    0.0000 C   0  0  0  0  0  0  0  0  0  0  0  0
    9.3052  -11.1639    0.0000 C   0  0  0  0  0  0  0  0  0  0  0  0
   10.0197  -10.7514    0.0000 C   0  0  0  0  0  0  0  0  0  0  0  0
   10.0197   -9.9264    0.0000 C   0  0  2  0  0  0  0  0  0  0  0  0
    9.3052   -9.5139    0.0000 C   0  0  2  0  0  0  0  0  0  0  0  0
   10.7342   -9.5139    0.0000 C   0  0  1  0  0  0  0  0  0  0  0  0
   10.7342   -8.6889    0.0000 C   0  0  0  0  0  0  0  0  0  0  0  0
   10.0197   -8.2764    0.0000 C   0  0  0  0  0  0  0  0  0  0  0  0
    9.3052   -8.6889    0.0000 C   0  0  0  0  0  0  0  0  0  0  0  0
   11.4486   -9.9264    0.0000 C   0  0  0  0  0  0  0  0  0  0  0  0
   12.1631   -9.5139    0.0000 C   0  0  0  0  0  0  0  0  0  0  0  0
   12.1631   -8.6889    0.0000 C   0  0  2  0  0  0  0  0  0  0  0  0
   11.4486   -8.2764    0.0000 C   0  0  1  0  0  0  0  0  0  0  0  0
   12.8776   -8.2764    0.0000 C   0  0  0  0  0  0  0  0  0  0  0  0
   12.8776   -7.4514    0.0000 C   0  0  0  0  0  0  0  0  0  0  0  0
   11.4486   -7.4514    0.0000 C   0  0  0  0  0  0  0  0  0  0  0  0
    6.4473   -9.5139    0.0000 O   0  0  0  0  0  0  0  0  0  0  0  0
   12.8776   -9.1014    0.0000 C   0  0  0  0  0  0  0  0  0  0  0  0
   13.5920   -8.6889    0.0000 O   0  0  0  0  0  0  0  0  0  0  0  0
   12.8776   -9.9264    0.0000 O   0  0  0  0  0  0  0  0  0  0  0  0
   10.7342  -10.3389    0.0000 C   0  0  0  0  0  0  0  0  0  0  0  0
    8.5907  -11.5764    0.0000 H   0  0  0  0  0  0  0  0  0  0  0  0
    8.5907   -9.1014    0.0000 C   0  0  0  0  0  0  0  0  0  0  0  0
    9.3052  -10.3389    0.0000 H   0  0  0  0  0  0  0  0  0  0  0  0
   10.0197   -9.1014    0.0000 C   0  0  0  0  0  0  0  0  0  0  0  0
   11.4486   -9.1014    0.0000 H   0  0  0  0  0  0  0  0  0  0  0  0
    7.1618  -10.7514    0.0000 C   0  0  1  0  0  0  0  0  0  0  0  0
    6.4473  -11.1639    0.0000 O   0  0  0  0  0  0  0  0  0  0  0  0
   12.1631   -7.0389    0.0000 C   0  0  0  0  0  0  0  0  0  0  0  0
    7.4638  -11.8784    0.0000 C   0  0  0  0  0  0  0  0  0  0  0  0
   12.5756   -6.3244    0.0000 C   0  0  0  0  0  0  0  0  0  0  0  0
    8.2888  -11.8784    0.0000 C   0  0  0  0  0  0  0  0  0  0  0  0
   11.7506   -6.3244    0.0000 C   0  0  0  0  0  0  0  0  0  0  0  0
    5.7329   -9.9264    0.0000 C   0  0  0  0  0  0  0  0  0  0  0  0
    5.0184   -9.5139    0.0000 C   0  0  0  0  0  0  0  0  0  0  0  0
    5.7329  -10.7514    0.0000 O   0  0  0  0  0  0  0  0  0  0  0  0
    4.3039   -9.9264    0.0000 C   0  0  0  0  0  0  0  0  0  0  0  0
    3.5894   -9.5139    0.0000 C   0  0  0  0  0  0  0  0  0  0  0  0
    3.5894   -8.6889    0.0000 C   0  0  0  0  0  0  0  0  0  0  0  0
    2.8750   -8.2764    0.0000 C   0  0  0  0  0  0  0  0  0  0  0  0
    2.1605   -8.6889    0.0000 C   0  0  0  0  0  0  0  0  0  0  0  0
    2.1605   -9.5139    0.0000 C   0  0  0  0  0  0  0  0  0  0  0  0
    2.8750   -9.9264    0.0000 C   0  0  0  0  0  0  0  0  0  0  0  0
    1.4460   -8.2764    0.0000 O   0  0  0  0  0  0  0  0  0  0  0  0
  2  3  1  0  0  0  0
  3  4  1  0  0  0  0
  4  5  1  0  0  0  0
  5  1  1  0  0  0  0
  3  6  1  0  0  0  0
  6  7  1  0  0  0  0
  7  8  1  0  0  0  0
  8  9  1  0  0  0  0
  9  4  1  0  0  0  0
  8 10  1  0  0  0  0
 10 11  1  0  0  0  0
 11 12  2  0  0  0  0
 12 13  1  0  0  0  0
 13  9  1  0  0  0  0
 10 14  1  0  0  0  0
 14 15  1  0  0  0  0
 15 16  1  0  0  0  0
 16 17  1  0  0  0  0
 17 11  1  0  0  0  0
 16 18  1  0  0  0  0
 18 19  1  0  0  0  0
 20 17  1  0  0  0  0
  1 21  1  6  0  0  0
 16 22  1  1  0  0  0
 22 23  2  0  0  0  0
 22 24  1  0  0  0  0
 10 25  1  6  0  0  0
  3 26  1  6  0  0  0
  4 27  1  1  0  0  0
  9 28  1  6  0  0  0
  8 29  1  1  0  0  0
 17 30  1  1  0  0  0
  2 31  1  0  0  0  0
  1 31  1  0  0  0  0
 31 32  1  1  0  0  0
 20 33  1  0  0  0  0
 19 33  1  0  0  0  0
  2 34  1  0  0  0  0
 33 35  1  0  0  0  0
  2 36  1  0  0  0  0
 33 37  1  0  0  0  0
 21 38  1  0  0  0  0
 38 39  1  0  0  0  0
 38 40  2  0  0  0  0
 39 41  2  0  0  0  0
 41 42  1  0  0  0  0
 42 43  2  0  0  0  0
 43 44  1  0  0  0  0
 44 45  2  0  0  0  0
 45 46  1  0  0  0  0
 46 47  2  0  0  0  0
 47 42  1  0  0  0  0
 45 48  1  0  0  0  0
M  END
>  <cdx:fragmentId>
5

$$$$
