9780.cdx
  Mrv1902 05222410182D          

 68 76  0  0  0  0            999 V2000
   15.8090   -9.4594    0.0000 C   0  0  1  0  0  0  0  0  0  0  0  0
   16.5234   -9.0469    0.0000 C   0  0  2  0  0  0  0  0  0  0  0  0
   17.3080   -9.3019    0.0000 C   0  0  0  0  0  0  0  0  0  0  0  0
   17.7930   -8.6344    0.0000 C   0  0  2  0  0  0  0  0  0  0  0  0
   18.5776   -8.3795    0.0000 O   0  0  0  0  0  0  0  0  0  0  0  0
   18.5776   -7.5545    0.0000 C   0  0  2  0  0  0  0  0  0  0  0  0
   17.7930   -7.2995    0.0000 C   0  0  2  0  0  0  0  0  0  0  0  0
   17.3080   -7.9670    0.0000 C   0  0  2  0  0  0  0  0  0  0  0  0
   16.5234   -8.2219    0.0000 C   0  0  1  0  0  0  0  0  0  0  0  0
   15.8090   -7.8094    0.0000 C   0  0  0  0  0  0  0  0  0  0  0  0
   15.0945   -8.2219    0.0000 C   0  0  0  0  0  0  0  0  0  0  0  0
   15.0945   -9.0469    0.0000 C   0  0  2  0  0  0  0  0  0  0  0  0
   14.3800   -9.4594    0.0000 C   0  0  1  0  0  0  0  0  0  0  0  0
   13.6655   -9.0469    0.0000 C   0  0  1  0  0  0  0  0  0  0  0  0
   12.9511   -9.4594    0.0000 C   0  0  0  0  0  0  0  0  0  0  0  0
   12.9511  -10.2844    0.0000 C   0  0  1  0  0  0  0  0  0  0  0  0
   13.6655  -10.6969    0.0000 C   0  0  0  0  0  0  0  0  0  0  0  0
   14.3800  -10.2844    0.0000 C   0  0  0  0  0  0  0  0  0  0  0  0
   15.0945  -10.6969    0.0000 C   0  0  0  0  0  0  0  0  0  0  0  0
   15.8090  -10.2844    0.0000 C   0  0  0  0  0  0  0  0  0  0  0  0
   18.4914   -6.7340    0.0000 O   0  0  0  0  0  0  0  0  0  0  0  0
   19.3313   -7.8900    0.0000 C   0  0  0  0  0  0  0  0  0  0  0  0
   19.9987   -7.4051    0.0000 C   0  0  0  0  0  0  0  0  0  0  0  0
   19.9125   -6.5846    0.0000 C   0  0  2  0  0  0  0  0  0  0  0  0
   19.1588   -6.2491    0.0000 C   0  0  0  0  0  0  0  0  0  0  0  0
   14.3800   -8.6344    0.0000 C   0  0  0  0  0  0  0  0  0  0  0  0
   16.5234   -7.3969    0.0000 C   0  0  0  0  0  0  0  0  0  0  0  0
   17.5380   -6.5149    0.0000 C   0  0  0  0  0  0  0  0  0  0  0  0
   20.5799   -6.0997    0.0000 C   0  0  0  0  0  0  0  0  0  0  0  0
   15.8090   -8.6344    0.0000 H   0  0  0  0  0  0  0  0  0  0  0  0
   16.5234   -9.8719    0.0000 H   0  0  0  0  0  0  0  0  0  0  0  0
   18.2779   -9.3019    0.0000 H   0  0  0  0  0  0  0  0  0  0  0  0
   16.9464   -7.2255    0.0000 H   0  0  0  0  0  0  0  0  0  0  0  0
   15.0945   -9.8719    0.0000 H   0  0  0  0  0  0  0  0  0  0  0  0
   12.2366  -10.6969    0.0000 O   0  0  0  0  0  0  0  0  0  0  0  0
   11.5221  -10.2844    0.0000 C   0  0  2  0  0  0  0  0  0  0  0  0
   11.5221   -9.4594    0.0000 O   0  0  0  0  0  0  0  0  0  0  0  0
   10.8077   -9.0469    0.0000 C   0  0  1  0  0  0  0  0  0  0  0  0
   10.0932   -9.4594    0.0000 C   0  0  2  0  0  0  0  0  0  0  0  0
   10.0932  -10.2844    0.0000 C   0  0  1  0  0  0  0  0  0  0  0  0
   10.8077  -10.6969    0.0000 C   0  0  1  0  0  0  0  0  0  0  0  0
   10.8077   -8.2219    0.0000 C   0  0  0  0  0  0  0  0  0  0  0  0
    9.3787  -10.6969    0.0000 O   0  0  0  0  0  0  0  0  0  0  0  0
   10.8077  -11.5219    0.0000 O   0  0  0  0  0  0  0  0  0  0  0  0
    9.3787   -9.0469    0.0000 O   0  0  0  0  0  0  0  0  0  0  0  0
   10.0932   -7.8094    0.0000 O   0  0  0  0  0  0  0  0  0  0  0  0
   13.6655   -8.2219    0.0000 O   0  0  0  0  0  0  0  0  0  0  0  0
   10.3907  -12.2338    0.0000 C   0  0  2  0  0  0  0  0  0  0  0  0
    9.5657  -12.2286    0.0000 O   0  0  0  0  0  0  0  0  0  0  0  0
    9.1487  -12.9405    0.0000 C   0  0  2  0  0  0  0  0  0  0  0  0
    9.5567  -13.6575    0.0000 C   0  0  1  0  0  0  0  0  0  0  0  0
   10.3817  -13.6627    0.0000 C   0  0  2  0  0  0  0  0  0  0  0  0
   10.7987  -12.9508    0.0000 C   0  0  1  0  0  0  0  0  0  0  0  0
    9.1397  -14.3694    0.0000 O   0  0  0  0  0  0  0  0  0  0  0  0
   10.7897  -14.3798    0.0000 O   0  0  0  0  0  0  0  0  0  0  0  0
   11.6237  -12.9560    0.0000 O   0  0  0  0  0  0  0  0  0  0  0  0
    8.3237  -12.9353    0.0000 C   0  0  0  0  0  0  0  0  0  0  0  0
    8.6642  -10.2844    0.0000 C   0  0  2  0  0  0  0  0  0  0  0  0
    8.6642   -9.4594    0.0000 O   0  0  0  0  0  0  0  0  0  0  0  0
    7.9498   -9.0469    0.0000 C   0  0  1  0  0  0  0  0  0  0  0  0
    7.2353   -9.4594    0.0000 C   0  0  2  0  0  0  0  0  0  0  0  0
    7.2353  -10.2844    0.0000 C   0  0  1  0  0  0  0  0  0  0  0  0
    7.9498  -10.6969    0.0000 C   0  0  1  0  0  0  0  0  0  0  0  0
    7.9498   -8.2219    0.0000 C   0  0  0  0  0  0  0  0  0  0  0  0
    6.5208  -10.6969    0.0000 O   0  0  0  0  0  0  0  0  0  0  0  0
    6.5208   -9.0469    0.0000 O   0  0  0  0  0  0  0  0  0  0  0  0
    7.9498  -11.5219    0.0000 O   0  0  0  0  0  0  0  0  0  0  0  0
    7.2353   -7.8094    0.0000 O   0  0  0  0  0  0  0  0  0  0  0  0
  1  2  1  0  0  0  0
  2  3  1  0  0  0  0
  3  4  1  0  0  0  0
  4  5  1  0  0  0  0
  6  5  1  6  0  0  0
  6  7  1  0  0  0  0
  7  8  1  0  0  0  0
  8  9  1  0  0  0  0
  9 10  1  0  0  0  0
 10 11  1  0  0  0  0
 11 12  1  0  0  0  0
 12 13  1  0  0  0  0
 13 14  1  0  0  0  0
 14 15  1  0  0  0  0
 15 16  1  0  0  0  0
 16 17  1  0  0  0  0
 17 18  1  0  0  0  0
 18 19  2  0  0  0  0
 19 20  1  0  0  0  0
  1 20  1  0  0  0  0
  1 12  1  0  0  0  0
 13 18  1  0  0  0  0
  2  9  1  0  0  0  0
  4  8  1  0  0  0  0
 22 23  1  0  0  0  0
 23 24  1  0  0  0  0
 24 25  1  0  0  0  0
 21 25  1  0  0  0  0
  6 21  1  0  0  0  0
  6 22  1  0  0  0  0
 13 26  1  1  0  0  0
  9 27  1  1  0  0  0
  7 28  1  6  0  0  0
 24 29  1  6  0  0  0
 16 35  1  1  0  0  0
  1 30  1  1  0  0  0
  2 31  1  6  0  0  0
  4 32  1  6  0  0  0
  8 33  1  6  0  0  0
 12 34  1  6  0  0  0
 36 35  1  1  0  0  0
 36 37  1  0  0  0  0
 37 38  1  0  0  0  0
 38 39  1  0  0  0  0
 39 40  1  0  0  0  0
 40 41  1  0  0  0  0
 41 36  1  0  0  0  0
 38 42  1  1  0  0  0
 40 43  1  1  0  0  0
 41 44  1  6  0  0  0
 39 45  1  6  0  0  0
 42 46  1  0  0  0  0
 14 47  1  1  0  0  0
 48 44  1  1  0  0  0
 48 49  1  0  0  0  0
 49 50  1  0  0  0  0
 50 51  1  0  0  0  0
 51 52  1  0  0  0  0
 52 53  1  0  0  0  0
 53 48  1  0  0  0  0
 51 54  1  1  0  0  0
 52 55  1  6  0  0  0
 53 56  1  6  0  0  0
 50 57  1  6  0  0  0
 58 43  1  1  0  0  0
 58 59  1  0  0  0  0
 59 60  1  0  0  0  0
 60 61  1  0  0  0  0
 61 62  1  0  0  0  0
 62 63  1  0  0  0  0
 63 58  1  0  0  0  0
 60 64  1  1  0  0  0
 62 65  1  1  0  0  0
 61 66  1  6  0  0  0
 63 67  1  6  0  0  0
 64 68  1  0  0  0  0
M  END
>  <cdx:fragmentId>
198565

$$$$
