97818.cdx
  Mrv1902 05222410202D          

 42 48  0  0  0  0            999 V2000
    6.2930   -7.2684    0.0000 C   0  0  2  0  0  0  0  0  0  0  0  0
    6.2888   -7.9284    0.0000 C   0  0  1  0  0  0  0  0  0  0  0  0
    5.7152   -8.2548    0.0000 C   0  0  2  0  0  0  0  0  0  0  0  0
    5.1457   -7.9212    0.0000 C   0  0  0  0  0  0  0  0  0  0  0  0
    4.5720   -8.2476    0.0000 C   0  0  0  0  0  0  0  0  0  0  0  0
    4.0025   -7.9140    0.0000 C   0  0  0  0  0  0  0  0  0  0  0  0
    4.0067   -7.2540    0.0000 C   0  0  0  0  0  0  0  0  0  0  0  0
    4.5803   -6.9276    0.0000 C   0  0  0  0  0  0  0  0  0  0  0  0
    5.1498   -7.2612    0.0000 C   0  0  0  0  0  0  0  0  0  0  0  0
    5.7235   -6.9348    0.0000 O   0  0  0  0  0  0  0  0  0  0  0  0
    6.8583   -8.2620    0.0000 O   0  0  0  0  0  0  0  0  0  0  0  0
    4.5679   -8.9076    0.0000 O   0  0  0  0  0  0  0  0  0  0  0  0
    3.4372   -6.9204    0.0000 O   0  0  0  0  0  0  0  0  0  0  0  0
    6.8666   -6.9420    0.0000 C   0  0  0  0  0  0  0  0  0  0  0  0
    7.4361   -7.2756    0.0000 C   0  0  0  0  0  0  0  0  0  0  0  0
    8.0097   -6.9492    0.0000 C   0  0  0  0  0  0  0  0  0  0  0  0
    8.0139   -6.2892    0.0000 C   0  0  0  0  0  0  0  0  0  0  0  0
    7.4444   -5.9556    0.0000 C   0  0  0  0  0  0  0  0  0  0  0  0
    6.8707   -6.2820    0.0000 C   0  0  0  0  0  0  0  0  0  0  0  0
    8.5875   -5.9628    0.0000 O   0  0  0  0  0  0  0  0  0  0  0  0
    7.4414   -5.2534    0.0000 O   0  0  0  0  0  0  0  0  0  0  0  0
    8.5437  -10.5650    0.0000 C   0  0  2  0  0  0  0  0  0  0  0  0
    7.9668  -10.8858    0.0000 C   0  0  2  0  0  0  0  0  0  0  0  0
    7.4007  -10.5466    0.0000 C   0  0  0  0  0  0  0  0  0  0  0  0
    7.4113   -9.8867    0.0000 C   0  0  0  0  0  0  0  0  0  0  0  0
    6.8451   -9.5475    0.0000 C   0  0  0  0  0  0  0  0  0  0  0  0
    6.8557   -8.8876    0.0000 C   0  0  0  0  0  0  0  0  0  0  0  0
    7.4325   -8.5669    0.0000 C   0  0  0  0  0  0  0  0  0  0  0  0
    7.9987   -8.9060    0.0000 C   0  0  0  0  0  0  0  0  0  0  0  0
    7.9881   -9.5659    0.0000 C   0  0  0  0  0  0  0  0  0  0  0  0
    8.5543   -9.9051    0.0000 O   0  0  0  0  0  0  0  0  0  0  0  0
    7.9562  -11.5457    0.0000 O   0  0  0  0  0  0  0  0  0  0  0  0
    6.2683   -9.8683    0.0000 O   0  0  0  0  0  0  0  0  0  0  0  0
    7.4432   -7.9070    0.0000 O   0  0  0  0  0  0  0  0  0  0  0  0
    9.1098  -10.9042    0.0000 C   0  0  0  0  0  0  0  0  0  0  0  0
    9.0992  -11.5641    0.0000 C   0  0  0  0  0  0  0  0  0  0  0  0
    9.6654  -11.9033    0.0000 C   0  0  0  0  0  0  0  0  0  0  0  0
   10.2422  -11.5825    0.0000 C   0  0  0  0  0  0  0  0  0  0  0  0
   10.2528  -10.9226    0.0000 C   0  0  0  0  0  0  0  0  0  0  0  0
    9.6867  -10.5834    0.0000 C   0  0  0  0  0  0  0  0  0  0  0  0
   10.8084  -11.9217    0.0000 O   0  0  0  0  0  0  0  0  0  0  0  0
   10.8630  -10.5749    0.0000 O   0  0  0  0  0  0  0  0  0  0  0  0
  1  2  1  0  0  0  0
  2  3  1  0  0  0  0
  3  4  1  0  0  0  0
  4  5  1  0  0  0  0
  5  6  2  0  0  0  0
  6  7  1  0  0  0  0
  7  8  2  0  0  0  0
  8  9  1  0  0  0  0
  4  9  2  0  0  0  0
  9 10  1  0  0  0  0
  1 10  1  0  0  0  0
  2 11  1  6  0  0  0
  5 12  1  0  0  0  0
  7 13  1  0  0  0  0
 14 15  1  0  0  0  0
 15 16  2  0  0  0  0
 16 17  1  0  0  0  0
 17 18  2  0  0  0  0
 18 19  1  0  0  0  0
 14 19  2  0  0  0  0
 17 20  1  0  0  0  0
  1 14  1  6  0  0  0
 18 21  1  0  0  0  0
 22 23  1  0  0  0  0
 23 24  1  0  0  0  0
 24 25  1  0  0  0  0
 25 26  1  0  0  0  0
 26 27  2  0  0  0  0
 27 28  1  0  0  0  0
 28 29  2  0  0  0  0
 29 30  1  0  0  0  0
 25 30  2  0  0  0  0
 30 31  1  0  0  0  0
 22 31  1  0  0  0  0
 23 32  1  1  0  0  0
 26 33  1  0  0  0  0
 28 34  1  0  0  0  0
 35 36  1  0  0  0  0
 36 37  2  0  0  0  0
 37 38  1  0  0  0  0
 38 39  2  0  0  0  0
 39 40  1  0  0  0  0
 35 40  2  0  0  0  0
 38 41  1  0  0  0  0
 22 35  1  6  0  0  0
 39 42  1  0  0  0  0
  1 34  1  1  0  0  0
  3 27  1  1  0  0  0
M  END
>  <cdx:fragmentId>
420

$$$$
