978153.cdx
  Mrv1902 05222410202D          

 20 20  0  0  0  0            999 V2000
    6.3970   -7.5350    0.0000 C   0  0  2  0  0  0  0  0  0  0  0  0
    6.3970   -8.3600    0.0000 C   0  0  0  0  0  0  0  0  0  0  0  0
    7.1115   -8.7725    0.0000 C   0  0  1  0  0  0  0  0  0  0  0  0
    7.8260   -8.3600    0.0000 C   0  0  0  0  0  0  0  0  0  0  0  0
    7.8260   -7.5350    0.0000 C   0  0  0  0  0  0  0  0  0  0  0  0
    7.1115   -7.1225    0.0000 C   0  0  2  0  0  0  0  0  0  0  0  0
    5.6826   -7.1225    0.0000 C   0  0  0  0  0  0  0  0  0  0  0  0
    4.9681   -7.5350    0.0000 C   0  0  0  0  0  0  0  0  0  0  0  0
    5.6826   -6.2975    0.0000 C   0  0  0  0  0  0  0  0  0  0  0  0
    6.6990   -6.4080    0.0000 C   0  0  0  0  0  0  0  0  0  0  0  0
    7.5240   -6.4080    0.0000 C   0  0  0  0  0  0  0  0  0  0  0  0
    8.3490   -6.4080    0.0000 C   0  0  0  0  0  0  0  0  0  0  0  0
    7.1115   -9.5975    0.0000 C   0  0  0  0  0  0  0  0  0  0  0  0
    7.1115  -10.4225    0.0000 O   0  0  0  0  0  0  0  0  0  0  0  0
    7.9365   -9.5975    0.0000 C   0  0  0  0  0  0  0  0  0  0  0  0
    6.2865   -9.5975    0.0000 C   0  0  0  0  0  0  0  0  0  0  0  0
    7.8260   -9.1850    0.0000 H   0  0  0  0  0  0  0  0  0  0  0  0
    7.8260  -10.8350    0.0000 C   0  0  0  0  0  0  0  0  0  0  0  0
    7.8260  -11.6600    0.0000 O   0  0  0  0  0  0  0  0  0  0  0  0
    8.5404  -10.4225    0.0000 C   0  0  0  0  0  0  0  0  0  0  0  0
  1  2  1  0  0  0  0
  2  3  1  0  0  0  0
  3  4  1  0  0  0  0
  4  5  1  0  0  0  0
  5  6  1  0  0  0  0
  6  1  1  0  0  0  0
  1  7  1  1  0  0  0
  7  8  1  0  0  0  0
  7  9  2  0  0  0  0
  6 10  1  1  0  0  0
  6 11  1  0  0  0  0
 11 12  2  0  0  0  0
  3 13  1  0  0  0  0
 13 14  1  0  0  0  0
 13 15  1  0  0  0  0
 13 16  1  0  0  0  0
  3 17  1  6  0  0  0
 14 18  1  0  0  0  0
 18 19  2  0  0  0  0
 18 20  1  0  0  0  0
M  END
>  <cdx:fragmentId>
56

$$$$
