97814.cdx
  Mrv1902 05222410262D          

 63 72  0  0  0  0            999 V2000
    9.3380   -7.0623    0.0000 C   0  0  2  0  0  0  0  0  0  0  0  0
    8.7665   -7.3924    0.0000 C   0  0  1  0  0  0  0  0  0  0  0  0
    8.1949   -7.0626    0.0000 C   0  0  2  0  0  0  0  0  0  0  0  0
    8.1947   -6.4026    0.0000 C   0  0  0  0  0  0  0  0  0  0  0  0
    7.6231   -6.0727    0.0000 C   0  0  0  0  0  0  0  0  0  0  0  0
    7.6230   -5.4127    0.0000 C   0  0  0  0  0  0  0  0  0  0  0  0
    8.1945   -5.0826    0.0000 C   0  0  0  0  0  0  0  0  0  0  0  0
    8.7661   -5.4124    0.0000 C   0  0  0  0  0  0  0  0  0  0  0  0
    8.7663   -6.0724    0.0000 C   0  0  0  0  0  0  0  0  0  0  0  0
    9.3379   -6.4023    0.0000 O   0  0  0  0  0  0  0  0  0  0  0  0
    8.7666   -8.0524    0.0000 O   0  0  0  0  0  0  0  0  0  0  0  0
    7.0516   -6.4028    0.0000 O   0  0  0  0  0  0  0  0  0  0  0  0
    8.1944   -4.4226    0.0000 O   0  0  0  0  0  0  0  0  0  0  0  0
    9.9097   -7.3922    0.0000 C   0  0  0  0  0  0  0  0  0  0  0  0
    9.9098   -8.0522    0.0000 C   0  0  0  0  0  0  0  0  0  0  0  0
   10.4814   -8.3821    0.0000 C   0  0  0  0  0  0  0  0  0  0  0  0
   11.0529   -8.0520    0.0000 C   0  0  0  0  0  0  0  0  0  0  0  0
   11.0528   -7.3920    0.0000 C   0  0  0  0  0  0  0  0  0  0  0  0
   10.4812   -7.0621    0.0000 C   0  0  0  0  0  0  0  0  0  0  0  0
   11.6246   -8.3819    0.0000 O   0  0  0  0  0  0  0  0  0  0  0  0
   11.6572   -7.0344    0.0000 O   0  0  0  0  0  0  0  0  0  0  0  0
    5.2908   -6.0283    0.0000 C   0  0  2  0  0  0  0  0  0  0  0  0
    5.2897   -6.6883    0.0000 C   0  0  1  0  0  0  0  0  0  0  0  0
    4.7176   -7.0173    0.0000 C   0  0  2  0  0  0  0  0  0  0  0  0
    4.1466   -6.6864    0.0000 C   0  0  0  0  0  0  0  0  0  0  0  0
    3.5745   -7.0154    0.0000 C   0  0  0  0  0  0  0  0  0  0  0  0
    3.0034   -6.6845    0.0000 C   0  0  0  0  0  0  0  0  0  0  0  0
    3.0045   -6.0245    0.0000 C   0  0  0  0  0  0  0  0  0  0  0  0
    3.5766   -5.6954    0.0000 C   0  0  0  0  0  0  0  0  0  0  0  0
    4.1477   -6.0264    0.0000 C   0  0  0  0  0  0  0  0  0  0  0  0
    4.7198   -5.6973    0.0000 O   0  0  0  0  0  0  0  0  0  0  0  0
    5.8608   -7.0192    0.0000 O   0  0  0  0  0  0  0  0  0  0  0  0
    3.5734   -7.6754    0.0000 O   0  0  0  0  0  0  0  0  0  0  0  0
    2.4335   -5.6935    0.0000 O   0  0  0  0  0  0  0  0  0  0  0  0
    5.8630   -5.6992    0.0000 C   0  0  0  0  0  0  0  0  0  0  0  0
    6.4340   -6.0302    0.0000 C   0  0  0  0  0  0  0  0  0  0  0  0
    7.0061   -5.7011    0.0000 C   0  0  0  0  0  0  0  0  0  0  0  0
    7.0072   -5.0411    0.0000 C   0  0  0  0  0  0  0  0  0  0  0  0
    6.4362   -4.7102    0.0000 C   0  0  0  0  0  0  0  0  0  0  0  0
    5.8641   -5.0392    0.0000 C   0  0  0  0  0  0  0  0  0  0  0  0
    7.5793   -4.7121    0.0000 O   0  0  0  0  0  0  0  0  0  0  0  0
    6.4300   -4.0079    0.0000 O   0  0  0  0  0  0  0  0  0  0  0  0
    7.8118   -9.3723    0.0000 C   0  0  2  0  0  0  0  0  0  0  0  0
    7.2403   -9.7024    0.0000 C   0  0  2  0  0  0  0  0  0  0  0  0
    6.6686   -9.3726    0.0000 C   0  0  0  0  0  0  0  0  0  0  0  0
    6.6685   -8.7126    0.0000 C   0  0  0  0  0  0  0  0  0  0  0  0
    6.0969   -8.3827    0.0000 C   0  0  0  0  0  0  0  0  0  0  0  0
    6.0967   -7.7227    0.0000 C   0  0  0  0  0  0  0  0  0  0  0  0
    6.6682   -7.3926    0.0000 C   0  0  0  0  0  0  0  0  0  0  0  0
    7.2399   -7.7224    0.0000 C   0  0  0  0  0  0  0  0  0  0  0  0
    7.2400   -8.3824    0.0000 C   0  0  0  0  0  0  0  0  0  0  0  0
    7.8116   -8.7123    0.0000 O   0  0  0  0  0  0  0  0  0  0  0  0
    7.2404  -10.3624    0.0000 O   0  0  0  0  0  0  0  0  0  0  0  0
    5.5253   -8.7128    0.0000 O   0  0  0  0  0  0  0  0  0  0  0  0
    6.6681   -6.7326    0.0000 O   0  0  0  0  0  0  0  0  0  0  0  0
    8.3834   -9.7022    0.0000 C   0  0  0  0  0  0  0  0  0  0  0  0
    8.3835  -10.3622    0.0000 C   0  0  0  0  0  0  0  0  0  0  0  0
    8.9552  -10.6921    0.0000 C   0  0  0  0  0  0  0  0  0  0  0  0
    9.5267  -10.3620    0.0000 C   0  0  0  0  0  0  0  0  0  0  0  0
    9.5266   -9.7020    0.0000 C   0  0  0  0  0  0  0  0  0  0  0  0
    8.9549   -9.3721    0.0000 C   0  0  0  0  0  0  0  0  0  0  0  0
   10.0983  -10.6919    0.0000 O   0  0  0  0  0  0  0  0  0  0  0  0
   10.1310   -9.3444    0.0000 O   0  0  0  0  0  0  0  0  0  0  0  0
  1  2  1  0  0  0  0
  2  3  1  0  0  0  0
  3  4  1  0  0  0  0
  4  5  1  0  0  0  0
  5  6  2  0  0  0  0
  6  7  1  0  0  0  0
  7  8  2  0  0  0  0
  8  9  1  0  0  0  0
  4  9  2  0  0  0  0
  9 10  1  0  0  0  0
  1 10  1  0  0  0  0
  2 11  1  6  0  0  0
  5 12  1  0  0  0  0
  7 13  1  0  0  0  0
 14 15  1  0  0  0  0
 15 16  2  0  0  0  0
 16 17  1  0  0  0  0
 17 18  2  0  0  0  0
 18 19  1  0  0  0  0
 14 19  2  0  0  0  0
 17 20  1  0  0  0  0
  1 14  1  6  0  0  0
 18 21  1  0  0  0  0
 22 23  1  0  0  0  0
 23 24  1  0  0  0  0
 24 25  1  0  0  0  0
 25 26  1  0  0  0  0
 26 27  2  0  0  0  0
 27 28  1  0  0  0  0
 28 29  2  0  0  0  0
 29 30  1  0  0  0  0
 25 30  2  0  0  0  0
 30 31  1  0  0  0  0
 22 31  1  0  0  0  0
 23 32  1  6  0  0  0
 26 33  1  0  0  0  0
 28 34  1  0  0  0  0
 35 36  1  0  0  0  0
 36 37  2  0  0  0  0
 37 38  1  0  0  0  0
 38 39  2  0  0  0  0
 39 40  1  0  0  0  0
 35 40  2  0  0  0  0
 38 41  1  0  0  0  0
 22 35  1  6  0  0  0
 39 42  1  0  0  0  0
 43 44  1  0  0  0  0
 44 45  1  0  0  0  0
 45 46  1  0  0  0  0
 46 47  1  0  0  0  0
 47 48  2  0  0  0  0
 48 49  1  0  0  0  0
 49 50  2  0  0  0  0
 50 51  1  0  0  0  0
 46 51  2  0  0  0  0
 51 52  1  0  0  0  0
 43 52  1  0  0  0  0
 44 53  1  1  0  0  0
 47 54  1  0  0  0  0
 49 55  1  0  0  0  0
 56 57  1  0  0  0  0
 57 58  2  0  0  0  0
 58 59  1  0  0  0  0
 59 60  2  0  0  0  0
 60 61  1  0  0  0  0
 56 61  2  0  0  0  0
 59 62  1  0  0  0  0
 43 56  1  6  0  0  0
 60 63  1  0  0  0  0
 22 55  1  1  0  0  0
 24 48  1  1  0  0  0
  3 50  1  1  0  0  0
M  END
>  <cdx:fragmentId>
275

$$$$
