97815.cdx
  Mrv1902 05222410262D          

 63 72  0  0  0  0            999 V2000
    6.6780   -5.3434    0.0000 C   0  0  2  0  0  0  0  0  0  0  0  0
    6.6738   -6.0034    0.0000 C   0  0  1  0  0  0  0  0  0  0  0  0
    6.1002   -6.3298    0.0000 C   0  0  2  0  0  0  0  0  0  0  0  0
    5.5307   -5.9962    0.0000 C   0  0  0  0  0  0  0  0  0  0  0  0
    4.9570   -6.3226    0.0000 C   0  0  0  0  0  0  0  0  0  0  0  0
    4.3875   -5.9890    0.0000 C   0  0  0  0  0  0  0  0  0  0  0  0
    4.3917   -5.3290    0.0000 C   0  0  0  0  0  0  0  0  0  0  0  0
    4.9653   -5.0026    0.0000 C   0  0  0  0  0  0  0  0  0  0  0  0
    5.5348   -5.3362    0.0000 C   0  0  0  0  0  0  0  0  0  0  0  0
    6.1085   -5.0098    0.0000 O   0  0  0  0  0  0  0  0  0  0  0  0
    7.2433   -6.3370    0.0000 O   0  0  0  0  0  0  0  0  0  0  0  0
    4.9529   -6.9826    0.0000 O   0  0  0  0  0  0  0  0  0  0  0  0
    3.8222   -4.9954    0.0000 O   0  0  0  0  0  0  0  0  0  0  0  0
    7.2516   -5.0170    0.0000 C   0  0  0  0  0  0  0  0  0  0  0  0
    7.8211   -5.3506    0.0000 C   0  0  0  0  0  0  0  0  0  0  0  0
    8.3947   -5.0242    0.0000 C   0  0  0  0  0  0  0  0  0  0  0  0
    8.3989   -4.3642    0.0000 C   0  0  0  0  0  0  0  0  0  0  0  0
    7.8294   -4.0306    0.0000 C   0  0  0  0  0  0  0  0  0  0  0  0
    7.2557   -4.3570    0.0000 C   0  0  0  0  0  0  0  0  0  0  0  0
    8.9725   -4.0378    0.0000 O   0  0  0  0  0  0  0  0  0  0  0  0
    7.8264   -3.3284    0.0000 O   0  0  0  0  0  0  0  0  0  0  0  0
    9.1043   -8.6848    0.0000 C   0  0  2  0  0  0  0  0  0  0  0  0
    8.5328   -9.0149    0.0000 C   0  0  1  0  0  0  0  0  0  0  0  0
    7.9611   -8.6851    0.0000 C   0  0  2  0  0  0  0  0  0  0  0  0
    7.9610   -8.0251    0.0000 C   0  0  0  0  0  0  0  0  0  0  0  0
    7.3894   -7.6952    0.0000 C   0  0  0  0  0  0  0  0  0  0  0  0
    7.3892   -7.0352    0.0000 C   0  0  0  0  0  0  0  0  0  0  0  0
    7.9607   -6.7051    0.0000 C   0  0  0  0  0  0  0  0  0  0  0  0
    8.5324   -7.0349    0.0000 C   0  0  0  0  0  0  0  0  0  0  0  0
    8.5325   -7.6949    0.0000 C   0  0  0  0  0  0  0  0  0  0  0  0
    9.1041   -8.0248    0.0000 O   0  0  0  0  0  0  0  0  0  0  0  0
    8.5329   -9.6749    0.0000 O   0  0  0  0  0  0  0  0  0  0  0  0
    6.8178   -8.0253    0.0000 O   0  0  0  0  0  0  0  0  0  0  0  0
    7.9606   -6.0451    0.0000 O   0  0  0  0  0  0  0  0  0  0  0  0
    9.6759   -9.0147    0.0000 C   0  0  0  0  0  0  0  0  0  0  0  0
    9.6760   -9.6747    0.0000 C   0  0  0  0  0  0  0  0  0  0  0  0
   10.2477  -10.0046    0.0000 C   0  0  0  0  0  0  0  0  0  0  0  0
   10.8192   -9.6745    0.0000 C   0  0  0  0  0  0  0  0  0  0  0  0
   10.8191   -9.0145    0.0000 C   0  0  0  0  0  0  0  0  0  0  0  0
   10.2474   -8.6846    0.0000 C   0  0  0  0  0  0  0  0  0  0  0  0
   11.3908  -10.0044    0.0000 O   0  0  0  0  0  0  0  0  0  0  0  0
   11.4235   -8.6569    0.0000 O   0  0  0  0  0  0  0  0  0  0  0  0
    4.7553   -9.9769    0.0000 C   0  0  2  0  0  0  0  0  0  0  0  0
    4.7562   -9.3169    0.0000 C   0  0  1  0  0  0  0  0  0  0  0  0
    5.3282   -8.9877    0.0000 C   0  0  0  0  0  0  0  0  0  0  0  0
    5.8993   -9.3184    0.0000 C   0  0  0  0  0  0  0  0  0  0  0  0
    6.4713   -8.9891    0.0000 C   0  0  0  0  0  0  0  0  0  0  0  0
    7.0425   -9.3199    0.0000 C   0  0  0  0  0  0  0  0  0  0  0  0
    7.0416   -9.9799    0.0000 C   0  0  0  0  0  0  0  0  0  0  0  0
    6.4696  -10.3091    0.0000 C   0  0  0  0  0  0  0  0  0  0  0  0
    5.8985   -9.9784    0.0000 C   0  0  0  0  0  0  0  0  0  0  0  0
    5.3265  -10.3077    0.0000 O   0  0  0  0  0  0  0  0  0  0  0  0
    4.1850   -8.9862    0.0000 O   0  0  0  0  0  0  0  0  0  0  0  0
    6.4722   -8.3291    0.0000 O   0  0  0  0  0  0  0  0  0  0  0  0
    7.6128  -10.3106    0.0000 O   0  0  0  0  0  0  0  0  0  0  0  0
    4.1833  -10.3062    0.0000 C   0  0  0  0  0  0  0  0  0  0  0  0
    3.6122   -9.9755    0.0000 C   0  0  0  0  0  0  0  0  0  0  0  0
    3.0402  -10.3047    0.0000 C   0  0  0  0  0  0  0  0  0  0  0  0
    3.0393  -10.9647    0.0000 C   0  0  0  0  0  0  0  0  0  0  0  0
    3.6105  -11.2955    0.0000 C   0  0  0  0  0  0  0  0  0  0  0  0
    4.1825  -10.9662    0.0000 C   0  0  0  0  0  0  0  0  0  0  0  0
    2.4673  -11.2940    0.0000 O   0  0  0  0  0  0  0  0  0  0  0  0
    3.6170  -11.9977    0.0000 O   0  0  0  0  0  0  0  0  0  0  0  0
  1  2  1  0  0  0  0
  2  3  1  0  0  0  0
  3  4  1  0  0  0  0
  4  5  1  0  0  0  0
  5  6  2  0  0  0  0
  6  7  1  0  0  0  0
  7  8  2  0  0  0  0
  8  9  1  0  0  0  0
  4  9  2  0  0  0  0
  9 10  1  0  0  0  0
  1 10  1  0  0  0  0
  2 11  1  6  0  0  0
  5 12  1  0  0  0  0
  7 13  1  0  0  0  0
 14 15  1  0  0  0  0
 15 16  2  0  0  0  0
 16 17  1  0  0  0  0
 17 18  2  0  0  0  0
 18 19  1  0  0  0  0
 14 19  2  0  0  0  0
 17 20  1  0  0  0  0
  1 14  1  6  0  0  0
 18 21  1  0  0  0  0
 22 23  1  0  0  0  0
 23 24  1  0  0  0  0
 24 25  1  0  0  0  0
 25 26  1  0  0  0  0
 26 27  2  0  0  0  0
 27 28  1  0  0  0  0
 28 29  2  0  0  0  0
 29 30  1  0  0  0  0
 25 30  2  0  0  0  0
 30 31  1  0  0  0  0
 22 31  1  0  0  0  0
 23 32  1  6  0  0  0
 26 33  1  0  0  0  0
 28 34  1  0  0  0  0
 35 36  1  0  0  0  0
 36 37  2  0  0  0  0
 37 38  1  0  0  0  0
 38 39  2  0  0  0  0
 39 40  1  0  0  0  0
 35 40  2  0  0  0  0
 38 41  1  0  0  0  0
 22 35  1  6  0  0  0
 39 42  1  0  0  0  0
 43 44  1  0  0  0  0
 44 45  1  0  0  0  0
 45 46  1  0  0  0  0
 46 47  1  0  0  0  0
 47 48  2  0  0  0  0
 48 49  1  0  0  0  0
 49 50  2  0  0  0  0
 50 51  1  0  0  0  0
 46 51  2  0  0  0  0
 51 52  1  0  0  0  0
 43 52  1  0  0  0  0
 44 53  1  6  0  0  0
 47 54  1  0  0  0  0
 49 55  1  0  0  0  0
 56 57  1  0  0  0  0
 57 58  2  0  0  0  0
 58 59  1  0  0  0  0
 59 60  2  0  0  0  0
 60 61  1  0  0  0  0
 56 61  2  0  0  0  0
 59 62  1  0  0  0  0
 43 56  1  6  0  0  0
 60 63  1  0  0  0  0
  1 34  1  1  0  0  0
  3 27  1  1  0  0  0
 24 48  1  1  0  0  0
M  END
>  <cdx:fragmentId>
230

$$$$
