97813.cdx
  Mrv1902 05222410272D          

 84 96  0  0  0  0            999 V2000
    5.6011   -4.2329    0.0000 C   0  0  2  0  0  0  0  0  0  0  0  0
    5.5966   -4.8929    0.0000 C   0  0  1  0  0  0  0  0  0  0  0  0
    5.0228   -5.2190    0.0000 C   0  0  2  0  0  0  0  0  0  0  0  0
    4.4535   -4.8850    0.0000 C   0  0  0  0  0  0  0  0  0  0  0  0
    3.8796   -5.2111    0.0000 C   0  0  0  0  0  0  0  0  0  0  0  0
    3.3104   -4.8772    0.0000 C   0  0  0  0  0  0  0  0  0  0  0  0
    3.3149   -4.2172    0.0000 C   0  0  0  0  0  0  0  0  0  0  0  0
    3.8887   -3.8911    0.0000 C   0  0  0  0  0  0  0  0  0  0  0  0
    4.4580   -4.2251    0.0000 C   0  0  0  0  0  0  0  0  0  0  0  0
    5.0318   -3.8990    0.0000 O   0  0  0  0  0  0  0  0  0  0  0  0
    6.1659   -5.2268    0.0000 O   0  0  0  0  0  0  0  0  0  0  0  0
    3.8751   -5.8711    0.0000 O   0  0  0  0  0  0  0  0  0  0  0  0
    2.7456   -3.8833    0.0000 O   0  0  0  0  0  0  0  0  0  0  0  0
    6.1750   -3.9069    0.0000 C   0  0  0  0  0  0  0  0  0  0  0  0
    6.7443   -4.2408    0.0000 C   0  0  0  0  0  0  0  0  0  0  0  0
    7.3181   -3.9147    0.0000 C   0  0  0  0  0  0  0  0  0  0  0  0
    7.3226   -3.2547    0.0000 C   0  0  0  0  0  0  0  0  0  0  0  0
    6.7533   -2.9208    0.0000 C   0  0  0  0  0  0  0  0  0  0  0  0
    6.1795   -3.2469    0.0000 C   0  0  0  0  0  0  0  0  0  0  0  0
    7.8965   -2.9287    0.0000 O   0  0  0  0  0  0  0  0  0  0  0  0
    5.5988   -7.5045    0.0000 C   0  0  2  0  0  0  0  0  0  0  0  0
    6.1616   -7.8493    0.0000 C   0  0  1  0  0  0  0  0  0  0  0  0
    6.7416   -7.5343    0.0000 C   0  0  1  0  0  0  0  0  0  0  0  0
    6.7588   -6.8745    0.0000 C   0  0  0  0  0  0  0  0  0  0  0  0
    7.3388   -6.5595    0.0000 C   0  0  0  0  0  0  0  0  0  0  0  0
    7.3560   -5.8998    0.0000 C   0  0  0  0  0  0  0  0  0  0  0  0
    6.7932   -5.5550    0.0000 C   0  0  0  0  0  0  0  0  0  0  0  0
    6.2132   -5.8700    0.0000 C   0  0  0  0  0  0  0  0  0  0  0  0
    6.1960   -6.5297    0.0000 C   0  0  0  0  0  0  0  0  0  0  0  0
    5.6160   -6.8447    0.0000 O   0  0  0  0  0  0  0  0  0  0  0  0
    6.1444   -8.5091    0.0000 O   0  0  0  0  0  0  0  0  0  0  0  0
    7.9016   -6.9043    0.0000 O   0  0  0  0  0  0  0  0  0  0  0  0
    5.0189   -7.8195    0.0000 C   0  0  0  0  0  0  0  0  0  0  0  0
    5.0017   -8.4793    0.0000 C   0  0  0  0  0  0  0  0  0  0  0  0
    4.4217   -8.7943    0.0000 C   0  0  0  0  0  0  0  0  0  0  0  0
    3.8589   -8.4495    0.0000 C   0  0  0  0  0  0  0  0  0  0  0  0
    3.8761   -7.7897    0.0000 C   0  0  0  0  0  0  0  0  0  0  0  0
    4.4561   -7.4747    0.0000 C   0  0  0  0  0  0  0  0  0  0  0  0
    3.2789   -8.7645    0.0000 O   0  0  0  0  0  0  0  0  0  0  0  0
    7.0758   -9.7947    0.0000 C   0  0  2  0  0  0  0  0  0  0  0  0
    7.6424  -10.1333    0.0000 C   0  0  2  0  0  0  0  0  0  0  0  0
    8.2189   -9.8120    0.0000 C   0  0  0  0  0  0  0  0  0  0  0  0
    8.2288   -9.1520    0.0000 C   0  0  0  0  0  0  0  0  0  0  0  0
    8.8054   -8.8307    0.0000 C   0  0  0  0  0  0  0  0  0  0  0  0
    8.8153   -8.1708    0.0000 C   0  0  0  0  0  0  0  0  0  0  0  0
    8.2488   -7.8322    0.0000 C   0  0  0  0  0  0  0  0  0  0  0  0
    7.6723   -8.1535    0.0000 C   0  0  0  0  0  0  0  0  0  0  0  0
    7.6623   -8.8134    0.0000 C   0  0  0  0  0  0  0  0  0  0  0  0
    7.0858   -9.1347    0.0000 O   0  0  0  0  0  0  0  0  0  0  0  0
    7.6324  -10.7932    0.0000 O   0  0  0  0  0  0  0  0  0  0  0  0
    9.3719   -9.1693    0.0000 O   0  0  0  0  0  0  0  0  0  0  0  0
    8.2588   -7.1723    0.0000 O   0  0  0  0  0  0  0  0  0  0  0  0
    6.4993  -10.1160    0.0000 C   0  0  0  0  0  0  0  0  0  0  0  0
    6.4893  -10.7759    0.0000 C   0  0  0  0  0  0  0  0  0  0  0  0
    5.9128  -11.0972    0.0000 C   0  0  0  0  0  0  0  0  0  0  0  0
    5.3463  -10.7586    0.0000 C   0  0  0  0  0  0  0  0  0  0  0  0
    5.3563  -10.0987    0.0000 C   0  0  0  0  0  0  0  0  0  0  0  0
    5.9328   -9.7774    0.0000 C   0  0  0  0  0  0  0  0  0  0  0  0
    4.7698  -11.0799    0.0000 O   0  0  0  0  0  0  0  0  0  0  0  0
    9.5992   -5.1209    0.0000 C   0  0  2  0  0  0  0  0  0  0  0  0
    9.0277   -5.4510    0.0000 C   0  0  2  0  0  0  0  0  0  0  0  0
    8.4561   -5.1211    0.0000 C   0  0  1  0  0  0  0  0  0  0  0  0
    8.4560   -4.4611    0.0000 C   0  0  0  0  0  0  0  0  0  0  0  0
    7.8843   -4.1313    0.0000 C   0  0  0  0  0  0  0  0  0  0  0  0
    7.8842   -3.4713    0.0000 C   0  0  0  0  0  0  0  0  0  0  0  0
    8.4557   -3.1411    0.0000 C   0  0  0  0  0  0  0  0  0  0  0  0
    9.0273   -3.4710    0.0000 C   0  0  0  0  0  0  0  0  0  0  0  0
    9.0275   -4.1310    0.0000 C   0  0  0  0  0  0  0  0  0  0  0  0
    9.5991   -4.4609    0.0000 O   0  0  0  0  0  0  0  0  0  0  0  0
    9.0278   -6.1110    0.0000 O   0  0  0  0  0  0  0  0  0  0  0  0
    7.3128   -4.4614    0.0000 O   0  0  0  0  0  0  0  0  0  0  0  0
    8.4556   -2.4811    0.0000 O   0  0  0  0  0  0  0  0  0  0  0  0
   10.1709   -5.4508    0.0000 C   0  0  0  0  0  0  0  0  0  0  0  0
   10.1710   -6.1108    0.0000 C   0  0  0  0  0  0  0  0  0  0  0  0
   10.7426   -6.4407    0.0000 C   0  0  0  0  0  0  0  0  0  0  0  0
   11.3142   -6.1106    0.0000 C   0  0  0  0  0  0  0  0  0  0  0  0
   11.3140   -5.4506    0.0000 C   0  0  0  0  0  0  0  0  0  0  0  0
   10.7424   -5.1207    0.0000 C   0  0  0  0  0  0  0  0  0  0  0  0
   11.8858   -6.4405    0.0000 O   0  0  0  0  0  0  0  0  0  0  0  0
    6.8010   -4.9503    0.0000 O   0  0  0  0  0  0  0  0  0  0  0  0
    6.7453   -2.2196    0.0000 O   0  0  0  0  0  0  0  0  0  0  0  0
   11.9184   -5.0930    0.0000 O   0  0  0  0  0  0  0  0  0  0  0  0
    4.7582   -9.7442    0.0000 O   0  0  0  0  0  0  0  0  0  0  0  0
    3.2414   -7.4825    0.0000 O   0  0  0  0  0  0  0  0  0  0  0  0
  1  2  1  0  0  0  0
  2  3  1  0  0  0  0
  3  4  1  0  0  0  0
  4  5  1  0  0  0  0
  5  6  2  0  0  0  0
  6  7  1  0  0  0  0
  7  8  2  0  0  0  0
  8  9  1  0  0  0  0
  4  9  2  0  0  0  0
  9 10  1  0  0  0  0
  1 10  1  0  0  0  0
  2 11  1  6  0  0  0
  5 12  1  0  0  0  0
  7 13  1  0  0  0  0
 14 15  1  0  0  0  0
 15 16  2  0  0  0  0
 16 17  1  0  0  0  0
 17 18  2  0  0  0  0
 18 19  1  0  0  0  0
 14 19  2  0  0  0  0
 17 20  1  0  0  0  0
  1 14  1  6  0  0  0
 21 22  1  0  0  0  0
 22 23  1  0  0  0  0
 23 24  1  0  0  0  0
 24 25  1  0  0  0  0
 25 26  2  0  0  0  0
 26 27  1  0  0  0  0
 27 28  2  0  0  0  0
 28 29  1  0  0  0  0
 24 29  2  0  0  0  0
 29 30  1  0  0  0  0
 21 30  1  0  0  0  0
 22 31  1  1  0  0  0
 25 32  1  0  0  0  0
 33 34  1  0  0  0  0
 34 35  2  0  0  0  0
 35 36  1  0  0  0  0
 36 37  2  0  0  0  0
 37 38  1  0  0  0  0
 33 38  2  0  0  0  0
 36 39  1  0  0  0  0
 21 33  1  1  0  0  0
 40 41  1  0  0  0  0
 41 42  1  0  0  0  0
 42 43  1  0  0  0  0
 43 44  1  0  0  0  0
 44 45  2  0  0  0  0
 45 46  1  0  0  0  0
 46 47  2  0  0  0  0
 47 48  1  0  0  0  0
 43 48  2  0  0  0  0
 48 49  1  0  0  0  0
 40 49  1  0  0  0  0
 41 50  1  6  0  0  0
 44 51  1  0  0  0  0
 46 52  1  0  0  0  0
 53 54  1  0  0  0  0
 54 55  2  0  0  0  0
 55 56  1  0  0  0  0
 56 57  2  0  0  0  0
 57 58  1  0  0  0  0
 53 58  2  0  0  0  0
 56 59  1  0  0  0  0
 40 53  1  1  0  0  0
 60 61  1  0  0  0  0
 61 62  1  0  0  0  0
 62 63  1  0  0  0  0
 63 64  1  0  0  0  0
 64 65  2  0  0  0  0
 65 66  1  0  0  0  0
 66 67  2  0  0  0  0
 67 68  1  0  0  0  0
 63 68  2  0  0  0  0
 68 69  1  0  0  0  0
 60 69  1  0  0  0  0
 61 70  1  1  0  0  0
 64 71  1  0  0  0  0
 66 72  1  0  0  0  0
 73 74  1  0  0  0  0
 74 75  2  0  0  0  0
 75 76  1  0  0  0  0
 76 77  2  0  0  0  0
 77 78  1  0  0  0  0
 73 78  2  0  0  0  0
 76 79  1  0  0  0  0
 60 73  1  6  0  0  0
 27 80  1  0  0  0  0
 23 47  1  1  0  0  0
 62 26  1  6  0  0  0
  1 80  1  1  0  0  0
  3 28  1  1  0  0  0
 18 81  1  0  0  0  0
 77 82  1  0  0  0  0
 57 83  1  0  0  0  0
 37 84  1  0  0  0  0
M  END
>  <cdx:fragmentId>
113

$$$$
