97825.cdx
  Mrv1902 05222410202D          

 35 38  0  0  0  0            999 V2000
    5.6149   -8.3462    0.0000 C   0  0  0  0  0  0  0  0  0  0  0  0
    5.6149   -9.1713    0.0000 C   0  0  0  0  0  0  0  0  0  0  0  0
    6.3294   -9.5838    0.0000 C   0  0  0  0  0  0  0  0  0  0  0  0
    7.0439   -9.1713    0.0000 C   0  0  0  0  0  0  0  0  0  0  0  0
    7.0439   -8.3462    0.0000 C   0  0  0  0  0  0  0  0  0  0  0  0
    6.3294   -7.9337    0.0000 C   0  0  0  0  0  0  0  0  0  0  0  0
    7.7583   -9.5838    0.0000 C   0  0  0  0  0  0  0  0  0  0  0  0
    8.4728   -9.1713    0.0000 O   0  0  0  0  0  0  0  0  0  0  0  0
    8.4728   -8.3462    0.0000 C   0  0  2  0  0  0  0  0  0  0  0  0
    7.7583   -7.9337    0.0000 C   0  0  2  0  0  0  0  0  0  0  0  0
    9.1873   -7.9337    0.0000 C   0  0  0  0  0  0  0  0  0  0  0  0
    9.9018   -8.3462    0.0000 C   0  0  0  0  0  0  0  0  0  0  0  0
   10.6162   -7.9337    0.0000 C   0  0  0  0  0  0  0  0  0  0  0  0
   11.3307   -8.3462    0.0000 C   0  0  0  0  0  0  0  0  0  0  0  0
   12.0452   -7.9337    0.0000 C   0  0  0  0  0  0  0  0  0  0  0  0
   12.0452   -7.1088    0.0000 C   0  0  0  0  0  0  0  0  0  0  0  0
   11.3307   -6.6962    0.0000 C   0  0  0  0  0  0  0  0  0  0  0  0
   10.6162   -7.1088    0.0000 C   0  0  0  0  0  0  0  0  0  0  0  0
   12.7596   -6.6962    0.0000 O   0  0  0  0  0  0  0  0  0  0  0  0
    4.9005   -7.9337    0.0000 O   0  0  0  0  0  0  0  0  0  0  0  0
    6.3294  -10.4087    0.0000 O   0  0  0  0  0  0  0  0  0  0  0  0
    7.7583  -10.4087    0.0000 O   0  0  0  0  0  0  0  0  0  0  0  0
    7.7583   -7.1088    0.0000 O   0  0  0  0  0  0  0  0  0  0  0  0
   12.7596   -5.8712    0.0000 C   0  0  0  0  0  0  0  0  0  0  0  0
    4.1860   -8.3462    0.0000 C   0  0  2  0  0  0  0  0  0  0  0  0
    3.4715   -7.9337    0.0000 O   0  0  0  0  0  0  0  0  0  0  0  0
    2.7570   -8.3462    0.0000 C   0  0  1  0  0  0  0  0  0  0  0  0
    2.7570   -9.1713    0.0000 C   0  0  2  0  0  0  0  0  0  0  0  0
    3.4715   -9.5838    0.0000 C   0  0  1  0  0  0  0  0  0  0  0  0
    4.1860   -9.1713    0.0000 C   0  0  1  0  0  0  0  0  0  0  0  0
    2.0426   -7.9337    0.0000 C   0  0  0  0  0  0  0  0  0  0  0  0
    3.4715  -10.4087    0.0000 O   0  0  0  0  0  0  0  0  0  0  0  0
    2.0426   -9.5838    0.0000 O   0  0  0  0  0  0  0  0  0  0  0  0
    4.9005   -9.5838    0.0000 O   0  0  0  0  0  0  0  0  0  0  0  0
    2.0426   -7.1088    0.0000 O   0  0  0  0  0  0  0  0  0  0  0  0
  1  2  2  0  0  0  0
  2  3  1  0  0  0  0
  3  4  2  0  0  0  0
  4  5  1  0  0  0  0
  5  6  2  0  0  0  0
  6  1  1  0  0  0  0
  4  7  1  0  0  0  0
  7  8  1  0  0  0  0
  8  9  1  0  0  0  0
  9 10  1  0  0  0  0
 10  5  1  0  0  0  0
  9 11  1  6  0  0  0
 11 12  1  0  0  0  0
 12 13  1  0  0  0  0
 13 14  2  0  0  0  0
 14 15  1  0  0  0  0
 15 16  2  0  0  0  0
 16 17  1  0  0  0  0
 17 18  2  0  0  0  0
 18 13  1  0  0  0  0
 16 19  1  0  0  0  0
  1 20  1  0  0  0  0
  3 21  1  0  0  0  0
  7 22  2  0  0  0  0
 10 23  1  1  0  0  0
 19 24  1  0  0  0  0
 25 20  1  1  0  0  0
 25 26  1  0  0  0  0
 26 27  1  0  0  0  0
 27 28  1  0  0  0  0
 28 29  1  0  0  0  0
 29 30  1  0  0  0  0
 30 25  1  0  0  0  0
 27 31  1  1  0  0  0
 29 32  1  1  0  0  0
 28 33  1  6  0  0  0
 30 34  1  6  0  0  0
 31 35  1  0  0  0  0
M  END
>  <cdx:fragmentId>
5

$$$$
