97827.cdx
  Mrv1902 05222410192D          

 34 37  0  0  0  0            999 V2000
    2.4249   -8.3875    0.0000 C   0  0  0  0  0  0  0  0  0  0  0  0
    2.4249   -9.2125    0.0000 C   0  0  0  0  0  0  0  0  0  0  0  0
    3.1394   -9.6250    0.0000 C   0  0  0  0  0  0  0  0  0  0  0  0
    3.8539   -9.2125    0.0000 C   0  0  0  0  0  0  0  0  0  0  0  0
    3.8539   -8.3875    0.0000 C   0  0  0  0  0  0  0  0  0  0  0  0
    3.1394   -7.9750    0.0000 C   0  0  0  0  0  0  0  0  0  0  0  0
    4.5683   -9.6250    0.0000 C   0  0  0  0  0  0  0  0  0  0  0  0
    5.2828   -9.2125    0.0000 O   0  0  0  0  0  0  0  0  0  0  0  0
    5.2828   -8.3875    0.0000 C   0  0  2  0  0  0  0  0  0  0  0  0
    4.5683   -7.9750    0.0000 C   0  0  1  0  0  0  0  0  0  0  0  0
    5.9973   -7.9750    0.0000 C   0  0  0  0  0  0  0  0  0  0  0  0
    6.7118   -8.3875    0.0000 C   0  0  0  0  0  0  0  0  0  0  0  0
    7.4262   -7.9750    0.0000 C   0  0  0  0  0  0  0  0  0  0  0  0
    8.1407   -8.3875    0.0000 C   0  0  0  0  0  0  0  0  0  0  0  0
    8.8552   -7.9750    0.0000 C   0  0  0  0  0  0  0  0  0  0  0  0
    8.8552   -7.1500    0.0000 C   0  0  0  0  0  0  0  0  0  0  0  0
    8.1407   -6.7375    0.0000 C   0  0  0  0  0  0  0  0  0  0  0  0
    7.4262   -7.1500    0.0000 C   0  0  0  0  0  0  0  0  0  0  0  0
    9.5696   -6.7375    0.0000 O   0  0  0  0  0  0  0  0  0  0  0  0
    1.7105   -7.9750    0.0000 O   0  0  0  0  0  0  0  0  0  0  0  0
    3.1394  -10.4500    0.0000 O   0  0  0  0  0  0  0  0  0  0  0  0
    4.5683  -10.4500    0.0000 O   0  0  0  0  0  0  0  0  0  0  0  0
    4.5683   -7.1500    0.0000 H   0  0  0  0  0  0  0  0  0  0  0  0
   10.2981   -7.1580    0.0000 C   0  0  2  0  0  0  0  0  0  0  0  0
   10.3062   -7.9829    0.0000 O   0  0  0  0  0  0  0  0  0  0  0  0
   11.0248   -8.3883    0.0000 C   0  0  1  0  0  0  0  0  0  0  0  0
   11.7351   -7.9688    0.0000 C   0  0  2  0  0  0  0  0  0  0  0  0
   11.7270   -7.1438    0.0000 C   0  0  1  0  0  0  0  0  0  0  0  0
   11.0084   -6.7384    0.0000 C   0  0  1  0  0  0  0  0  0  0  0  0
   11.0329   -9.2133    0.0000 C   0  0  0  0  0  0  0  0  0  0  0  0
   12.4373   -6.7243    0.0000 O   0  0  0  0  0  0  0  0  0  0  0  0
   12.4536   -8.3742    0.0000 O   0  0  0  0  0  0  0  0  0  0  0  0
   11.0003   -5.9135    0.0000 O   0  0  0  0  0  0  0  0  0  0  0  0
   10.3226   -9.6328    0.0000 O   0  0  0  0  0  0  0  0  0  0  0  0
  1  2  2  0  0  0  0
  2  3  1  0  0  0  0
  3  4  2  0  0  0  0
  4  5  1  0  0  0  0
  5  6  2  0  0  0  0
  6  1  1  0  0  0  0
  4  7  1  0  0  0  0
  7  8  1  0  0  0  0
  8  9  1  0  0  0  0
  9 10  1  0  0  0  0
 10  5  1  0  0  0  0
  9 11  1  6  0  0  0
 11 12  1  0  0  0  0
 12 13  1  0  0  0  0
 13 14  2  0  0  0  0
 14 15  1  0  0  0  0
 15 16  2  0  0  0  0
 16 17  1  0  0  0  0
 17 18  2  0  0  0  0
 18 13  1  0  0  0  0
 16 19  1  0  0  0  0
  1 20  1  0  0  0  0
  3 21  1  0  0  0  0
  7 22  2  0  0  0  0
 10 23  1  1  0  0  0
 24 25  1  0  0  0  0
 25 26  1  0  0  0  0
 26 27  1  0  0  0  0
 27 28  1  0  0  0  0
 28 29  1  0  0  0  0
 29 24  1  0  0  0  0
 26 30  1  1  0  0  0
 28 31  1  1  0  0  0
 27 32  1  6  0  0  0
 29 33  1  6  0  0  0
 30 34  1  0  0  0  0
 24 19  1  1  0  0  0
M  END
>  <cdx:fragmentId>
5

$$$$
