97824.cdx
  Mrv1902 05222410202D          

 44 48  0  0  0  0            999 V2000
    6.8524   -8.1400    0.0000 C   0  0  0  0  0  0  0  0  0  0  0  0
    6.8524   -8.9650    0.0000 C   0  0  0  0  0  0  0  0  0  0  0  0
    7.5669   -9.3775    0.0000 C   0  0  0  0  0  0  0  0  0  0  0  0
    8.2814   -8.9650    0.0000 C   0  0  0  0  0  0  0  0  0  0  0  0
    8.2814   -8.1400    0.0000 C   0  0  0  0  0  0  0  0  0  0  0  0
    7.5669   -7.7275    0.0000 C   0  0  0  0  0  0  0  0  0  0  0  0
    8.9958   -9.3775    0.0000 C   0  0  0  0  0  0  0  0  0  0  0  0
    9.7103   -8.9650    0.0000 O   0  0  0  0  0  0  0  0  0  0  0  0
    9.7103   -8.1400    0.0000 C   0  0  2  0  0  0  0  0  0  0  0  0
    8.9958   -7.7275    0.0000 C   0  0  1  0  0  0  0  0  0  0  0  0
   10.4248   -7.7275    0.0000 C   0  0  0  0  0  0  0  0  0  0  0  0
   11.1393   -8.1400    0.0000 C   0  0  0  0  0  0  0  0  0  0  0  0
   11.8537   -7.7275    0.0000 C   0  0  0  0  0  0  0  0  0  0  0  0
   12.5682   -8.1400    0.0000 C   0  0  0  0  0  0  0  0  0  0  0  0
   13.2827   -7.7275    0.0000 C   0  0  0  0  0  0  0  0  0  0  0  0
   13.2827   -6.9025    0.0000 C   0  0  0  0  0  0  0  0  0  0  0  0
   12.5682   -6.4900    0.0000 C   0  0  0  0  0  0  0  0  0  0  0  0
   11.8537   -6.9025    0.0000 C   0  0  0  0  0  0  0  0  0  0  0  0
   13.9971   -6.4900    0.0000 O   0  0  0  0  0  0  0  0  0  0  0  0
    6.1380   -7.7275    0.0000 O   0  0  0  0  0  0  0  0  0  0  0  0
    7.5669  -10.2025    0.0000 O   0  0  0  0  0  0  0  0  0  0  0  0
    8.9958  -10.2025    0.0000 O   0  0  0  0  0  0  0  0  0  0  0  0
    8.9958   -6.9025    0.0000 H   0  0  0  0  0  0  0  0  0  0  0  0
   13.9971   -5.6650    0.0000 C   0  0  0  0  0  0  0  0  0  0  0  0
    5.4235   -8.1400    0.0000 C   0  0  2  0  0  0  0  0  0  0  0  0
    4.7090   -7.7275    0.0000 O   0  0  0  0  0  0  0  0  0  0  0  0
    3.9945   -8.1400    0.0000 C   0  0  1  0  0  0  0  0  0  0  0  0
    3.9945   -8.9650    0.0000 C   0  0  2  0  0  0  0  0  0  0  0  0
    4.7090   -9.3775    0.0000 C   0  0  1  0  0  0  0  0  0  0  0  0
    5.4235   -8.9650    0.0000 C   0  0  1  0  0  0  0  0  0  0  0  0
    3.2801   -7.7275    0.0000 C   0  0  0  0  0  0  0  0  0  0  0  0
    4.7090  -10.2025    0.0000 O   0  0  0  0  0  0  0  0  0  0  0  0
    3.2801   -9.3775    0.0000 O   0  0  0  0  0  0  0  0  0  0  0  0
    6.1380   -9.3775    0.0000 O   0  0  0  0  0  0  0  0  0  0  0  0
    3.2801   -6.9025    0.0000 O   0  0  0  0  0  0  0  0  0  0  0  0
    2.5656   -6.4900    0.0000 C   0  0  2  0  0  0  0  0  0  0  0  0
    2.4794   -5.6695    0.0000 O   0  0  0  0  0  0  0  0  0  0  0  0
    1.6724   -5.4980    0.0000 C   0  0  1  0  0  0  0  0  0  0  0  0
    1.2599   -6.2125    0.0000 C   0  0  2  0  0  0  0  0  0  0  0  0
    1.8119   -6.8256    0.0000 C   0  0  2  0  0  0  0  0  0  0  0  0
    1.6404   -7.6325    0.0000 O   0  0  0  0  0  0  0  0  0  0  0  0
    1.3368   -4.7443    0.0000 C   0  0  0  0  0  0  0  0  0  0  0  0
    0.4394   -6.2987    0.0000 O   0  0  0  0  0  0  0  0  0  0  0  0
    1.8218   -4.0769    0.0000 O   0  0  0  0  0  0  0  0  0  0  0  0
  1  2  2  0  0  0  0
  2  3  1  0  0  0  0
  3  4  2  0  0  0  0
  4  5  1  0  0  0  0
  5  6  2  0  0  0  0
  6  1  1  0  0  0  0
  4  7  1  0  0  0  0
  7  8  1  0  0  0  0
  8  9  1  0  0  0  0
  9 10  1  0  0  0  0
 10  5  1  0  0  0  0
  9 11  1  6  0  0  0
 11 12  1  0  0  0  0
 12 13  1  0  0  0  0
 13 14  2  0  0  0  0
 14 15  1  0  0  0  0
 15 16  2  0  0  0  0
 16 17  1  0  0  0  0
 17 18  2  0  0  0  0
 18 13  1  0  0  0  0
 16 19  1  0  0  0  0
  1 20  1  0  0  0  0
  3 21  1  0  0  0  0
  7 22  2  0  0  0  0
 10 23  1  1  0  0  0
 19 24  1  0  0  0  0
 25 20  1  1  0  0  0
 25 26  1  0  0  0  0
 26 27  1  0  0  0  0
 27 28  1  0  0  0  0
 28 29  1  0  0  0  0
 29 30  1  0  0  0  0
 30 25  1  0  0  0  0
 27 31  1  1  0  0  0
 29 32  1  1  0  0  0
 28 33  1  6  0  0  0
 30 34  1  6  0  0  0
 31 35  1  0  0  0  0
 36 35  1  1  0  0  0
 36 37  1  0  0  0  0
 37 38  1  0  0  0  0
 38 39  1  0  0  0  0
 39 40  1  0  0  0  0
 40 36  1  0  0  0  0
 40 41  1  1  0  0  0
 38 42  1  1  0  0  0
 39 43  1  6  0  0  0
 42 44  1  0  0  0  0
M  END
>  <cdx:fragmentId>
5

$$$$
