97823.cdx
  Mrv1902 05222410192D          

 36 39  0  0  0  0            999 V2000
    4.8037   -7.7963    0.0000 C   0  0  0  0  0  0  0  0  0  0  0  0
    4.8037   -8.6212    0.0000 C   0  0  0  0  0  0  0  0  0  0  0  0
    5.5181   -9.0337    0.0000 C   0  0  0  0  0  0  0  0  0  0  0  0
    6.2326   -8.6212    0.0000 C   0  0  0  0  0  0  0  0  0  0  0  0
    6.2326   -7.7963    0.0000 C   0  0  0  0  0  0  0  0  0  0  0  0
    5.5181   -7.3838    0.0000 C   0  0  0  0  0  0  0  0  0  0  0  0
    5.5181   -9.8588    0.0000 O   0  0  0  0  0  0  0  0  0  0  0  0
    6.2326  -10.2713    0.0000 C   0  0  0  0  0  0  0  0  0  0  0  0
    6.9471   -9.8588    0.0000 C   0  0  0  0  0  0  0  0  0  0  0  0
    6.9471   -9.0337    0.0000 C   0  0  0  0  0  0  0  0  0  0  0  0
    6.2326  -11.0962    0.0000 C   0  0  0  0  0  0  0  0  0  0  0  0
    6.9471  -11.5087    0.0000 C   0  0  0  0  0  0  0  0  0  0  0  0
    7.6616  -11.0962    0.0000 C   0  0  0  0  0  0  0  0  0  0  0  0
    7.6616  -10.2713    0.0000 C   0  0  0  0  0  0  0  0  0  0  0  0
    8.3760  -11.5087    0.0000 C   0  0  0  0  0  0  0  0  0  0  0  0
    9.0905  -11.0962    0.0000 C   0  0  2  0  0  0  0  0  0  0  0  0
    9.0905  -10.2713    0.0000 C   0  0  2  0  0  0  0  0  0  0  0  0
    8.3760   -9.8588    0.0000 O   0  0  0  0  0  0  0  0  0  0  0  0
    9.8050  -11.5087    0.0000 O   0  0  0  0  0  0  0  0  0  0  0  0
   10.5194  -10.2713    0.0000 C   0  0  0  0  0  0  0  0  0  0  0  0
    9.8050   -9.8588    0.0000 C   0  0  0  0  0  0  0  0  0  0  0  0
   11.2339   -9.8588    0.0000 C   0  0  0  0  0  0  0  0  0  0  0  0
   11.2339   -9.0337    0.0000 C   0  0  0  0  0  0  0  0  0  0  0  0
   10.5194   -8.6212    0.0000 C   0  0  0  0  0  0  0  0  0  0  0  0
    9.8050   -9.0337    0.0000 C   0  0  0  0  0  0  0  0  0  0  0  0
   10.5194   -7.7963    0.0000 O   0  0  0  0  0  0  0  0  0  0  0  0
   11.9484   -8.6212    0.0000 O   0  0  0  0  0  0  0  0  0  0  0  0
    6.9471  -12.3338    0.0000 O   0  0  0  0  0  0  0  0  0  0  0  0
    5.5181  -10.6837    0.0000 O   0  0  0  0  0  0  0  0  0  0  0  0
    4.0892   -7.3838    0.0000 O   0  0  0  0  0  0  0  0  0  0  0  0
    3.3747   -7.7963    0.0000 C   0  0  0  0  0  0  0  0  0  0  0  0
    5.5181   -6.5587    0.0000 C   0  0  0  0  0  0  0  0  0  0  0  0
    6.9471   -7.3838    0.0000 O   0  0  0  0  0  0  0  0  0  0  0  0
    4.1071   -9.0336    0.0000 C   0  0  0  0  0  0  0  0  0  0  0  0
    4.1091   -9.8586    0.0000 C   0  0  0  0  0  0  0  0  0  0  0  0
    3.3916   -8.6229    0.0000 O   0  0  0  0  0  0  0  0  0  0  0  0
  1  2  2  0  0  0  0
  2  3  1  0  0  0  0
  3  4  2  0  0  0  0
  4  5  1  0  0  0  0
  5  6  2  0  0  0  0
  6  1  1  0  0  0  0
  3  7  1  0  0  0  0
  8  9  2  0  0  0  0
  9 10  1  0  0  0  0
 10  4  1  0  0  0  0
  8 11  1  0  0  0  0
 11 12  2  0  0  0  0
 12 13  1  0  0  0  0
 13 14  2  0  0  0  0
 14  9  1  0  0  0  0
 13 15  1  0  0  0  0
 15 16  1  0  0  0  0
 16 17  1  0  0  0  0
 17 18  1  0  0  0  0
 18 14  1  0  0  0  0
 16 19  1  6  0  0  0
 20 21  2  0  0  0  0
 17 21  1  6  0  0  0
 20 22  1  0  0  0  0
 22 23  2  0  0  0  0
 23 24  1  0  0  0  0
 24 25  2  0  0  0  0
 25 21  1  0  0  0  0
 24 26  1  0  0  0  0
 23 27  1  0  0  0  0
 12 28  1  0  0  0  0
  8 29  1  0  0  0  0
  1 30  1  0  0  0  0
 30 31  1  0  0  0  0
  6 32  1  0  0  0  0
  5 33  1  0  0  0  0
 34 35  1  0  0  0  0
 34 36  2  0  0  0  0
 34  2  1  0  0  0  0
M  END
>  <cdx:fragmentId>
5

$$$$
