97838.cdx
  Mrv1902 05222410282D          

 25 28  0  0  0  0            999 V2000
    6.5080   -7.5086    0.0000 C   0  0  0  0  0  0  0  0  0  0  0  0
    5.6830   -7.5086    0.0000 C   0  0  2  0  0  0  0  0  0  0  0  0
    5.2705   -6.7941    0.0000 C   0  0  0  0  0  0  0  0  0  0  0  0
    6.9205   -6.7941    0.0000 O   0  0  0  0  0  0  0  0  0  0  0  0
    6.9205   -8.2231    0.0000 O   0  0  0  0  0  0  0  0  0  0  0  0
    5.2705   -8.2231    0.0000 C   0  0  0  0  0  0  0  0  0  0  0  0
    5.6830   -8.9375    0.0000 C   0  0  0  0  0  0  0  0  0  0  0  0
    5.2705   -9.6520    0.0000 C   0  0  0  0  0  0  0  0  0  0  0  0
    4.4455   -9.6520    0.0000 C   0  0  0  0  0  0  0  0  0  0  0  0
    4.0330   -8.9375    0.0000 C   0  0  0  0  0  0  0  0  0  0  0  0
    4.4455   -8.2231    0.0000 C   0  0  0  0  0  0  0  0  0  0  0  0
    4.4455   -6.7941    0.0000 O   0  0  0  0  0  0  0  0  0  0  0  0
    9.0913   -9.9543    0.0000 H   0  0  0  0  0  0  0  0  0  0  0  0
    9.0913   -6.4919    0.0000 H   0  0  0  0  0  0  0  0  0  0  0  0
    8.3731   -8.2240    0.0000 N   0  3  0  0  0  0  0  0  0  0  0  0
    8.1034   -7.4798    0.0000 C   0  0  0  0  0  0  0  0  0  0  0  0
    7.7455   -8.2231    0.0000 C   0  0  0  0  0  0  0  0  0  0  0  0
    8.1034   -8.9664    0.0000 C   0  0  0  0  0  0  0  0  0  0  0  0
    8.9078   -9.1500    0.0000 C   0  0  2  0  0  0  0  0  0  0  0  0
    9.5528   -8.6356    0.0000 C   0  0  2  0  0  0  0  0  0  0  0  0
   10.2672   -8.2231    0.0000 O   0  0  0  0  0  0  0  0  0  0  0  0
    9.5528   -7.8106    0.0000 C   0  0  2  0  0  0  0  0  0  0  0  0
    8.9078   -7.2962    0.0000 C   0  0  1  0  0  0  0  0  0  0  0  0
    7.6587   -7.8115    0.0000 C   0  0  0  0  0  0  0  0  0  0  0  0
    7.6587   -8.6365    0.0000 C   0  0  0  0  0  0  0  0  0  0  0  0
 19 13  1  6  0  0  0
 23 14  1  6  0  0  0
  5 17  1  0  0  0  0
 22 20  1  0  0  0  0
 19 15  1  0  0  0  0
 23 15  1  0  0  0  0
 23 16  1  0  0  0  0
 17 16  1  0  0  0  0
 18 17  1  0  0  0  0
 19 18  1  0  0  0  0
 20 19  1  0  0  0  0
 20 21  1  1  0  0  0
 22 21  1  1  0  0  0
 23 22  1  0  0  0  0
  1  2  1  0  0  0  0
  2  3  1  1  0  0  0
  1  4  2  0  0  0  0
  1  5  1  0  0  0  0
  6  7  1  0  0  0  0
  7  8  2  0  0  0  0
  8  9  1  0  0  0  0
  9 10  2  0  0  0  0
 10 11  1  0  0  0  0
  6 11  2  0  0  0  0
  2  6  1  0  0  0  0
  3 12  1  0  0  0  0
 15 24  1  0  0  0  0
 15 25  1  0  0  0  0
M  CHG  1  15   1
M  END
>  <cdx:fragmentId>
29

$$$$
