97835.cdx
  Mrv1902 05222410182D          

 31 35  0  0  0  0            999 V2000
    9.8862   -8.2225    0.0000 C   0  0  0  0  0  0  0  0  0  0  0  0
    8.4737   -4.0918    0.0000 H   0  0  0  0  0  0  0  0  0  0  0  0
    7.0464   -6.5611    0.0000 H   0  0  0  0  0  0  0  0  0  0  0  0
    8.4639   -6.5668    0.0000 H   0  0  0  0  0  0  0  0  0  0  0  0
    9.1899   -3.6822    0.0000 C   0  0  0  0  0  0  0  0  0  0  0  0
    9.8895   -7.3975    0.0000 O   0  0  0  0  0  0  0  0  0  0  0  0
    8.4606   -7.3918    0.0000 O   0  0  0  0  0  0  0  0  0  0  0  0
    9.1767   -6.9822    0.0000 C   0  0  0  0  0  0  0  0  0  0  0  0
    9.8994   -4.9225    0.0000 O   0  0  0  0  0  0  0  0  0  0  0  0
    9.8961   -5.7475    0.0000 C   0  0  0  0  0  0  0  0  0  0  0  0
    9.1800   -6.1572    0.0000 C   0  0  0  0  0  0  0  0  0  0  0  0
    9.1866   -4.5072    0.0000 C   0  0  2  0  0  0  0  0  0  0  0  0
    7.0382   -5.7361    0.0000 C   0  0  2  0  0  0  0  0  0  0  0  0
    7.7510   -6.1515    0.0000 C   0  0  0  0  0  0  0  0  0  0  0  0
    8.4672   -5.7418    0.0000 C   0  0  1  0  0  0  0  0  0  0  0  0
    8.4705   -4.9168    0.0000 C   0  0  2  0  0  0  0  0  0  0  0  0
    7.7576   -4.5015    0.0000 C   0  0  0  0  0  0  0  0  0  0  0  0
    7.0415   -4.9111    0.0000 N   0  0  0  0  0  0  0  0  0  0  0  0
    6.2579   -4.6531    0.0000 C   0  0  0  0  0  0  0  0  0  0  0  0
    5.7703   -5.3186    0.0000 C   0  0  0  0  0  0  0  0  0  0  0  0
    6.2526   -5.9879    0.0000 C   0  0  1  0  0  0  0  0  0  0  0  0
    5.4670   -6.2397    0.0000 C   0  0  0  0  0  0  0  0  0  0  0  0
    5.4637   -7.0647    0.0000 N   0  0  0  0  0  0  0  0  0  0  0  0
    6.2473   -7.3228    0.0000 C   0  0  0  0  0  0  0  0  0  0  0  0
    6.7348   -6.6573    0.0000 C   0  0  0  0  0  0  0  0  0  0  0  0
    6.5798   -8.0778    0.0000 C   0  0  0  0  0  0  0  0  0  0  0  0
    7.3999   -8.1673    0.0000 C   0  0  0  0  0  0  0  0  0  0  0  0
    7.8875   -7.5018    0.0000 C   0  0  0  0  0  0  0  0  0  0  0  0
    7.5550   -6.7468    0.0000 C   0  0  0  0  0  0  0  0  0  0  0  0
    4.8015   -5.7521    0.0000 O   0  0  0  0  0  0  0  0  0  0  0  0
    9.1717   -8.6350    0.0000 C   0  0  0  0  0  0  0  0  0  0  0  0
  6  1  1  0  0  0  0
 16  2  1  1  0  0  0
 13  3  1  6  0  0  0
 15  4  1  6  0  0  0
 12  5  1  6  0  0  0
 11  8  1  0  0  0  0
  8  6  1  0  0  0  0
  8  7  2  0  0  0  0
 11 15  1  0  0  0  0
 12 16  1  0  0  0  0
 12  9  1  0  0  0  0
 10  9  1  0  0  0  0
 11 10  2  0  0  0  0
 18 13  1  0  0  0  0
 21 13  1  0  0  0  0
 14 13  1  0  0  0  0
 15 14  1  0  0  0  0
 16 15  1  0  0  0  0
 17 16  1  0  0  0  0
 18 17  1  0  0  0  0
 19 18  1  0  0  0  0
 20 19  1  0  0  0  0
 21 20  1  1  0  0  0
 21 22  1  0  0  0  0
 22 23  1  0  0  0  0
 23 24  1  0  0  0  0
 24 25  2  0  0  0  0
 25 21  1  0  0  0  0
 24 26  1  0  0  0  0
 26 27  2  0  0  0  0
 27 28  1  0  0  0  0
 28 29  2  0  0  0  0
 29 25  1  0  0  0  0
 22 30  2  0  0  0  0
  1 31  1  0  0  0  0
M  END
>  <cdx:fragmentId>
1978

$$$$
