97834.cdx
  Mrv1902 05222410182D          

 29 31  0  0  0  0            999 V2000
    7.8105   -6.7925    0.0000 N   0  0  0  0  0  0  0  0  0  0  0  0
    7.8105   -7.6175    0.0000 C   0  0  0  0  0  0  0  0  0  0  0  0
    8.5250   -8.0300    0.0000 C   0  0  0  0  0  0  0  0  0  0  0  0
    9.2395   -7.6175    0.0000 C   0  0  1  0  0  0  0  0  0  0  0  0
    9.2395   -6.7925    0.0000 C   0  0  2  0  0  0  0  0  0  0  0  0
    8.5250   -6.3800    0.0000 C   0  0  0  0  0  0  0  0  0  0  0  0
    9.9539   -8.0300    0.0000 C   0  0  0  0  0  0  0  0  0  0  0  0
   10.6684   -7.6175    0.0000 C   0  0  0  0  0  0  0  0  0  0  0  0
   10.6684   -6.7925    0.0000 O   0  0  0  0  0  0  0  0  0  0  0  0
    9.9539   -6.3800    0.0000 C   0  0  1  0  0  0  0  0  0  0  0  0
    9.9539   -5.5550    0.0000 C   0  0  0  0  0  0  0  0  0  0  0  0
    9.2395   -5.9675    0.0000 H   0  0  0  0  0  0  0  0  0  0  0  0
    9.2395   -8.4425    0.0000 H   0  0  0  0  0  0  0  0  0  0  0  0
    7.0961   -8.0300    0.0000 O   0  0  0  0  0  0  0  0  0  0  0  0
    7.0961   -6.3800    0.0000 C   0  0  0  0  0  0  0  0  0  0  0  0
    6.3816   -6.7925    0.0000 C   0  0  0  0  0  0  0  0  0  0  0  0
   10.6684  -10.0925    0.0000 C   0  0  0  0  0  0  0  0  0  0  0  0
   10.6684   -9.2675    0.0000 O   0  0  0  0  0  0  0  0  0  0  0  0
    9.2395   -9.2675    0.0000 O   0  0  0  0  0  0  0  0  0  0  0  0
    9.9539   -8.8550    0.0000 C   0  0  0  0  0  0  0  0  0  0  0  0
    5.6671   -6.3800    0.0000 C   0  0  0  0  0  0  0  0  0  0  0  0
    4.9526   -6.7925    0.0000 C   0  0  0  0  0  0  0  0  0  0  0  0
    5.6671   -5.5550    0.0000 O   0  0  0  0  0  0  0  0  0  0  0  0
    4.2382   -6.3800    0.0000 C   0  0  0  0  0  0  0  0  0  0  0  0
    3.5237   -6.7925    0.0000 C   0  0  0  0  0  0  0  0  0  0  0  0
    3.5237   -7.6175    0.0000 C   0  0  0  0  0  0  0  0  0  0  0  0
    4.2382   -8.0300    0.0000 C   0  0  0  0  0  0  0  0  0  0  0  0
    4.9526   -7.6175    0.0000 C   0  0  0  0  0  0  0  0  0  0  0  0
    5.6671   -8.0300    0.0000 N   0  0  0  0  0  0  0  0  0  0  0  0
  1  2  1  0  0  0  0
  2  3  1  0  0  0  0
  3  4  1  0  0  0  0
  4  5  1  0  0  0  0
  5  6  1  0  0  0  0
  6  1  1  0  0  0  0
  4  7  1  0  0  0  0
  7  8  2  0  0  0  0
  8  9  1  0  0  0  0
  9 10  1  0  0  0  0
 10  5  1  0  0  0  0
 18 17  1  0  0  0  0
  7 20  1  0  0  0  0
 10 11  1  6  0  0  0
  5 12  1  1  0  0  0
  4 13  1  6  0  0  0
  2 14  2  0  0  0  0
  1 15  1  0  0  0  0
 15 16  1  0  0  0  0
 20 18  1  0  0  0  0
 20 19  2  0  0  0  0
 16 21  1  0  0  0  0
 21 22  1  0  0  0  0
 21 23  2  0  0  0  0
 22 24  2  0  0  0  0
 24 25  1  0  0  0  0
 25 26  2  0  0  0  0
 26 27  1  0  0  0  0
 27 28  2  0  0  0  0
 28 22  1  0  0  0  0
 28 29  1  0  0  0  0
M  END
>  <cdx:fragmentId>
40

$$$$
