97830.cdx
  Mrv1902 05222410202D          

 28 30  0  0  0  0            999 V2000
    5.4362   -6.7788    0.0000 C   0  0  0  0  0  0  0  0  0  0  0  0
    5.4362   -7.6037    0.0000 C   0  0  0  0  0  0  0  0  0  0  0  0
    6.1506   -8.0162    0.0000 C   0  0  0  0  0  0  0  0  0  0  0  0
    6.8651   -7.6037    0.0000 C   0  0  0  0  0  0  0  0  0  0  0  0
    6.8651   -6.7788    0.0000 C   0  0  0  0  0  0  0  0  0  0  0  0
    6.1506   -6.3662    0.0000 C   0  0  0  0  0  0  0  0  0  0  0  0
    7.5796   -8.0162    0.0000 C   0  0  0  0  0  0  0  0  0  0  0  0
    8.2941   -7.6037    0.0000 C   0  0  0  0  0  0  0  0  0  0  0  0
    8.2941   -6.7788    0.0000 C   0  0  0  0  0  0  0  0  0  0  0  0
    7.5796   -6.3662    0.0000 O   0  0  0  0  0  0  0  0  0  0  0  0
    4.7217   -6.3662    0.0000 O   0  0  0  0  0  0  0  0  0  0  0  0
    6.1506   -8.8413    0.0000 O   0  0  0  0  0  0  0  0  0  0  0  0
    7.5796   -8.8413    0.0000 O   0  0  0  0  0  0  0  0  0  0  0  0
    9.0085   -6.3662    0.0000 C   0  0  0  0  0  0  0  0  0  0  0  0
    3.9914   -6.7735    0.0000 C   0  0  2  0  0  0  0  0  0  0  0  0
    3.2769   -6.3610    0.0000 O   0  0  0  0  0  0  0  0  0  0  0  0
    2.5624   -6.7735    0.0000 C   0  0  1  0  0  0  0  0  0  0  0  0
    2.5624   -7.5985    0.0000 C   0  0  2  0  0  0  0  0  0  0  0  0
    3.2769   -8.0110    0.0000 C   0  0  1  0  0  0  0  0  0  0  0  0
    3.9914   -7.5985    0.0000 C   0  0  1  0  0  0  0  0  0  0  0  0
    1.8480   -6.3610    0.0000 C   0  0  0  0  0  0  0  0  0  0  0  0
    3.2769   -8.8360    0.0000 O   0  0  0  0  0  0  0  0  0  0  0  0
    1.8480   -8.0110    0.0000 O   0  0  0  0  0  0  0  0  0  0  0  0
    4.7058   -8.0110    0.0000 O   0  0  0  0  0  0  0  0  0  0  0  0
    1.8480   -5.5360    0.0000 O   0  0  0  0  0  0  0  0  0  0  0  0
    9.7230   -6.7788    0.0000 C   0  0  0  0  0  0  0  0  0  0  0  0
   10.4375   -6.3662    0.0000 C   0  0  0  0  0  0  0  0  0  0  0  0
    9.0085   -5.5413    0.0000 C   0  0  0  0  0  0  0  0  0  0  0  0
  1  2  2  0  0  0  0
  2  3  1  0  0  0  0
  3  4  2  0  0  0  0
  4  5  1  0  0  0  0
  5  6  2  0  0  0  0
  6  1  1  0  0  0  0
  4  7  1  0  0  0  0
  7  8  1  0  0  0  0
  8  9  2  0  0  0  0
  9 10  1  0  0  0  0
 10  5  1  0  0  0  0
  1 11  1  0  0  0  0
  3 12  1  0  0  0  0
  7 13  2  0  0  0  0
  9 14  1  0  0  0  0
 15 16  1  0  0  0  0
 16 17  1  0  0  0  0
 17 18  1  0  0  0  0
 18 19  1  0  0  0  0
 19 20  1  0  0  0  0
 20 15  1  0  0  0  0
 17 21  1  1  0  0  0
 19 22  1  1  0  0  0
 18 23  1  6  0  0  0
 20 24  1  6  0  0  0
 21 25  1  0  0  0  0
 15 11  1  1  0  0  0
 14 26  1  0  0  0  0
 26 27  1  0  0  0  0
 14 28  1  0  0  0  0
M  END
>  <cdx:fragmentId>
5

$$$$
