97833.cdx
  Mrv1902 05222410192D          

 32 35  0  0  0  0            999 V2000
    4.5562   -6.0912    0.0000 C   0  0  0  0  0  0  0  0  0  0  0  0
    4.5562   -6.9162    0.0000 C   0  0  0  0  0  0  0  0  0  0  0  0
    5.2706   -7.3287    0.0000 C   0  0  0  0  0  0  0  0  0  0  0  0
    5.9851   -6.9162    0.0000 C   0  0  0  0  0  0  0  0  0  0  0  0
    5.9851   -6.0912    0.0000 C   0  0  0  0  0  0  0  0  0  0  0  0
    5.2706   -5.6788    0.0000 C   0  0  0  0  0  0  0  0  0  0  0  0
    6.6996   -7.3287    0.0000 C   0  0  0  0  0  0  0  0  0  0  0  0
    7.4141   -6.9162    0.0000 C   0  0  1  0  0  0  0  0  0  0  0  0
    7.4141   -6.0912    0.0000 C   0  0  2  0  0  0  0  0  0  0  0  0
    6.6996   -5.6788    0.0000 O   0  0  0  0  0  0  0  0  0  0  0  0
    8.1285   -7.3287    0.0000 O   0  0  0  0  0  0  0  0  0  0  0  0
    8.8430   -6.0912    0.0000 C   0  0  0  0  0  0  0  0  0  0  0  0
    8.1285   -5.6788    0.0000 C   0  0  0  0  0  0  0  0  0  0  0  0
    9.5575   -5.6788    0.0000 C   0  0  0  0  0  0  0  0  0  0  0  0
    9.5575   -4.8538    0.0000 C   0  0  0  0  0  0  0  0  0  0  0  0
    8.8430   -4.4412    0.0000 C   0  0  0  0  0  0  0  0  0  0  0  0
    8.1285   -4.8538    0.0000 C   0  0  0  0  0  0  0  0  0  0  0  0
    3.8417   -5.6788    0.0000 O   0  0  0  0  0  0  0  0  0  0  0  0
    5.2706   -8.1538    0.0000 O   0  0  0  0  0  0  0  0  0  0  0  0
    6.6996   -8.1538    0.0000 O   0  0  0  0  0  0  0  0  0  0  0  0
   10.2719   -4.4412    0.0000 O   0  0  0  0  0  0  0  0  0  0  0  0
    8.1250   -8.1442    0.0000 C   0  0  0  0  0  0  0  0  0  0  0  0
    7.4101   -8.5561    0.0000 O   0  0  0  0  0  0  0  0  0  0  0  0
    7.4094   -9.3811    0.0000 C   0  0  0  0  0  0  0  0  0  0  0  0
    8.1235   -9.7942    0.0000 C   0  0  0  0  0  0  0  0  0  0  0  0
    8.8383   -9.3824    0.0000 C   0  0  0  0  0  0  0  0  0  0  0  0
    8.8391   -8.5574    0.0000 C   0  0  0  0  0  0  0  0  0  0  0  0
    6.6946   -9.7930    0.0000 C   0  0  0  0  0  0  0  0  0  0  0  0
    9.5525   -9.7955    0.0000 O   0  0  0  0  0  0  0  0  0  0  0  0
    8.1228  -10.6192    0.0000 O   0  0  0  0  0  0  0  0  0  0  0  0
    9.5539   -8.1455    0.0000 O   0  0  0  0  0  0  0  0  0  0  0  0
    6.6938  -10.6180    0.0000 O   0  0  0  0  0  0  0  0  0  0  0  0
  1  2  2  0  0  0  0
  2  3  1  0  0  0  0
  3  4  2  0  0  0  0
  4  5  1  0  0  0  0
  5  6  2  0  0  0  0
  6  1  1  0  0  0  0
  4  7  1  0  0  0  0
  7  8  1  0  0  0  0
  8  9  1  0  0  0  0
  9 10  1  0  0  0  0
 10  5  1  0  0  0  0
  8 11  1  1  0  0  0
 12 13  2  0  0  0  0
  9 13  1  6  0  0  0
 12 14  1  0  0  0  0
 14 15  2  0  0  0  0
 15 16  1  0  0  0  0
 16 17  2  0  0  0  0
 17 13  1  0  0  0  0
  1 18  1  0  0  0  0
  3 19  1  0  0  0  0
  7 20  2  0  0  0  0
 15 21  1  0  0  0  0
 22 23  1  0  0  0  0
 23 24  1  0  0  0  0
 24 25  1  0  0  0  0
 25 26  1  0  0  0  0
 26 27  1  0  0  0  0
 27 22  1  0  0  0  0
 24 28  1  0  0  0  0
 26 29  1  0  0  0  0
 25 30  1  0  0  0  0
 27 31  1  0  0  0  0
 22 11  1  0  0  0  0
 28 32  1  0  0  0  0
M  END
>  <cdx:fragmentId>
5

$$$$
