97839.cdx
  Mrv1902 05222410282D          

 24 27  0  0  0  0            999 V2000
    7.7455   -8.5299    0.0000 C   0  0  0  0  0  0  0  0  0  0  0  0
    8.1034   -9.2732    0.0000 C   0  0  0  0  0  0  0  0  0  0  0  0
    8.9078   -9.4568    0.0000 C   0  0  2  0  0  0  0  0  0  0  0  0
    9.0913  -10.2611    0.0000 H   0  0  0  0  0  0  0  0  0  0  0  0
    8.1034   -7.7866    0.0000 C   0  0  0  0  0  0  0  0  0  0  0  0
    8.9078   -7.6030    0.0000 C   0  0  1  0  0  0  0  0  0  0  0  0
    9.0913   -6.7987    0.0000 H   0  0  0  0  0  0  0  0  0  0  0  0
    9.5528   -8.1174    0.0000 C   0  0  0  0  0  0  0  0  0  0  0  0
    9.5528   -8.9424    0.0000 C   0  0  0  0  0  0  0  0  0  0  0  0
    8.3731   -8.5309    0.0000 N   0  0  0  0  0  0  0  0  0  0  0  0
    7.5979   -8.2487    0.0000 C   0  0  0  0  0  0  0  0  0  0  0  0
   10.2672   -8.5299    0.0000 O   0  0  0  0  0  0  0  0  0  0  0  0
    6.9205   -8.5299    0.0000 O   0  0  0  0  0  0  0  0  0  0  0  0
    6.5080   -7.8155    0.0000 C   0  0  0  0  0  0  0  0  0  0  0  0
    5.6830   -7.8155    0.0000 C   0  0  0  0  0  0  0  0  0  0  0  0
    5.2705   -7.1010    0.0000 C   0  0  0  0  0  0  0  0  0  0  0  0
    4.4455   -7.1010    0.0000 O   0  0  0  0  0  0  0  0  0  0  0  0
    5.2705   -8.5299    0.0000 C   0  0  0  0  0  0  0  0  0  0  0  0
    5.6830   -9.2444    0.0000 C   0  0  0  0  0  0  0  0  0  0  0  0
    5.2705   -9.9589    0.0000 C   0  0  0  0  0  0  0  0  0  0  0  0
    4.4455   -9.9589    0.0000 C   0  0  0  0  0  0  0  0  0  0  0  0
    4.0330   -9.2444    0.0000 C   0  0  0  0  0  0  0  0  0  0  0  0
    4.4455   -8.5299    0.0000 C   0  0  0  0  0  0  0  0  0  0  0  0
    6.9205   -7.1010    0.0000 O   0  0  0  0  0  0  0  0  0  0  0  0
  1  2  1  0  0  0  0
  2  3  1  0  0  0  0
  3  4  1  6  0  0  0
  1  5  1  0  0  0  0
  5  6  1  0  0  0  0
  6  7  1  6  0  0  0
  6  8  1  0  0  0  0
  8  9  1  0  0  0  0
  3  9  1  0  0  0  0
  6 10  1  0  0  0  0
  3 10  1  0  0  0  0
 10 11  1  0  0  0  0
  8 12  1  0  0  0  0
  9 12  1  0  0  0  0
 14 15  1  0  0  0  0
 15 16  1  0  0  0  0
 16 17  1  0  0  0  0
 15 18  1  0  0  0  0
 18 19  1  0  0  0  0
 19 20  2  0  0  0  0
 20 21  1  0  0  0  0
 21 22  2  0  0  0  0
 22 23  1  0  0  0  0
 18 23  2  0  0  0  0
 14 24  2  0  0  0  0
 13 14  1  0  0  0  0
  1 13  1  0  0  0  0
M  END
>  <cdx:fragmentId>
5

$$$$
