97831.cdx
  Mrv1902 05222410202D          

 38 40  0  0  0  0            999 V2000
    8.7774   -8.1675    0.0000 C   0  0  0  0  0  0  0  0  0  0  0  0
    8.7774   -8.9925    0.0000 C   0  0  0  0  0  0  0  0  0  0  0  0
    9.4919   -9.4050    0.0000 C   0  0  0  0  0  0  0  0  0  0  0  0
   10.2064   -8.9925    0.0000 C   0  0  0  0  0  0  0  0  0  0  0  0
   10.2064   -8.1675    0.0000 C   0  0  0  0  0  0  0  0  0  0  0  0
    9.4919   -7.7550    0.0000 C   0  0  0  0  0  0  0  0  0  0  0  0
   10.9208   -9.4050    0.0000 C   0  0  0  0  0  0  0  0  0  0  0  0
   11.6353   -8.9925    0.0000 C   0  0  0  0  0  0  0  0  0  0  0  0
   11.6353   -8.1675    0.0000 C   0  0  0  0  0  0  0  0  0  0  0  0
   10.9208   -7.7550    0.0000 O   0  0  0  0  0  0  0  0  0  0  0  0
    8.0630   -7.7550    0.0000 O   0  0  0  0  0  0  0  0  0  0  0  0
    9.4919  -10.2300    0.0000 O   0  0  0  0  0  0  0  0  0  0  0  0
   10.9208  -10.2300    0.0000 O   0  0  0  0  0  0  0  0  0  0  0  0
   12.3498   -7.7550    0.0000 C   0  0  0  0  0  0  0  0  0  0  0  0
    7.3326   -8.1622    0.0000 C   0  0  2  0  0  0  0  0  0  0  0  0
    6.6181   -7.7497    0.0000 O   0  0  0  0  0  0  0  0  0  0  0  0
    5.9037   -8.1622    0.0000 C   0  0  1  0  0  0  0  0  0  0  0  0
    5.9037   -8.9872    0.0000 C   0  0  2  0  0  0  0  0  0  0  0  0
    6.6181   -9.3997    0.0000 C   0  0  1  0  0  0  0  0  0  0  0  0
    7.3326   -8.9872    0.0000 C   0  0  1  0  0  0  0  0  0  0  0  0
    5.1892   -7.7497    0.0000 C   0  0  0  0  0  0  0  0  0  0  0  0
    6.6181  -10.2247    0.0000 O   0  0  0  0  0  0  0  0  0  0  0  0
    5.1892   -9.3997    0.0000 O   0  0  0  0  0  0  0  0  0  0  0  0
    8.0471   -9.3997    0.0000 O   0  0  0  0  0  0  0  0  0  0  0  0
    5.1892   -6.9247    0.0000 O   0  0  0  0  0  0  0  0  0  0  0  0
   13.0643   -8.1675    0.0000 C   0  0  0  0  0  0  0  0  0  0  0  0
   13.7787   -7.7550    0.0000 C   0  0  0  0  0  0  0  0  0  0  0  0
   12.3498   -6.9300    0.0000 C   0  0  0  0  0  0  0  0  0  0  0  0
    2.3694   -6.9300    0.0000 C   0  0  0  0  0  0  0  0  0  0  0  0
    3.0839   -6.5175    0.0000 C   0  0  2  0  0  0  0  0  0  0  0  0
    1.6549   -6.5175    0.0000 C   0  0  0  0  0  0  0  0  0  0  0  0
    0.9405   -6.9300    0.0000 O   0  0  0  0  0  0  0  0  0  0  0  0
    1.6549   -5.6925    0.0000 O   0  0  0  0  0  0  0  0  0  0  0  0
    3.7983   -6.9300    0.0000 C   0  0  0  0  0  0  0  0  0  0  0  0
    4.5128   -6.5175    0.0000 C   0  0  0  0  0  0  0  0  0  0  0  0
    4.5128   -5.6925    0.0000 O   0  0  0  0  0  0  0  0  0  0  0  0
    3.4964   -5.8030    0.0000 C   0  0  0  0  0  0  0  0  0  0  0  0
    2.6714   -5.8030    0.0000 O   0  0  0  0  0  0  0  0  0  0  0  0
  1  2  2  0  0  0  0
  2  3  1  0  0  0  0
  3  4  2  0  0  0  0
  4  5  1  0  0  0  0
  5  6  2  0  0  0  0
  6  1  1  0  0  0  0
  4  7  1  0  0  0  0
  7  8  1  0  0  0  0
  8  9  2  0  0  0  0
  9 10  1  0  0  0  0
 10  5  1  0  0  0  0
  1 11  1  0  0  0  0
  3 12  1  0  0  0  0
  7 13  2  0  0  0  0
  9 14  1  0  0  0  0
 15 16  1  0  0  0  0
 16 17  1  0  0  0  0
 17 18  1  0  0  0  0
 18 19  1  0  0  0  0
 19 20  1  0  0  0  0
 20 15  1  0  0  0  0
 17 21  1  1  0  0  0
 19 22  1  1  0  0  0
 18 23  1  6  0  0  0
 20 24  1  6  0  0  0
 21 25  1  0  0  0  0
 15 11  1  1  0  0  0
 14 26  1  0  0  0  0
 26 27  1  0  0  0  0
 14 28  1  0  0  0  0
 29 30  1  0  0  0  0
 29 31  1  0  0  0  0
 31 32  1  0  0  0  0
 31 33  2  0  0  0  0
 30 34  1  0  0  0  0
 34 35  1  0  0  0  0
 35 36  2  0  0  0  0
 30 37  1  1  0  0  0
 30 38  1  6  0  0  0
 35 25  1  0  0  0  0
M  END
>  <cdx:fragmentId>
5

$$$$
