97836-￬ﾋﾜ￬ﾞﾑ.cdx
  Mrv1902 05222410192D          

 27 29  0  0  0  0            999 V2000
    4.7212   -7.9750    0.0000 C   0  0  0  0  0  0  0  0  0  0  0  0
    4.7212   -8.8000    0.0000 C   0  0  0  0  0  0  0  0  0  0  0  0
    5.4356   -9.2125    0.0000 C   0  0  0  0  0  0  0  0  0  0  0  0
    6.1501   -8.8000    0.0000 C   0  0  0  0  0  0  0  0  0  0  0  0
    6.1501   -7.9750    0.0000 C   0  0  0  0  0  0  0  0  0  0  0  0
    5.4356   -7.5625    0.0000 C   0  0  0  0  0  0  0  0  0  0  0  0
    6.8646   -9.2125    0.0000 C   0  0  0  0  0  0  0  0  0  0  0  0
    7.5791   -8.8000    0.0000 C   0  0  0  0  0  0  0  0  0  0  0  0
    7.5791   -7.9750    0.0000 C   0  0  0  0  0  0  0  0  0  0  0  0
    6.8646   -7.5625    0.0000 O   0  0  0  0  0  0  0  0  0  0  0  0
    8.2935   -9.2125    0.0000 O   0  0  0  0  0  0  0  0  0  0  0  0
    9.0080   -7.9750    0.0000 C   0  0  0  0  0  0  0  0  0  0  0  0
    8.2935   -7.5625    0.0000 C   0  0  0  0  0  0  0  0  0  0  0  0
    9.7225   -7.5625    0.0000 C   0  0  0  0  0  0  0  0  0  0  0  0
    9.7225   -6.7375    0.0000 C   0  0  0  0  0  0  0  0  0  0  0  0
    9.0080   -6.3250    0.0000 C   0  0  0  0  0  0  0  0  0  0  0  0
    8.2935   -6.7375    0.0000 C   0  0  0  0  0  0  0  0  0  0  0  0
    9.0080   -5.5000    0.0000 O   0  0  0  0  0  0  0  0  0  0  0  0
   10.4369   -6.3250    0.0000 O   0  0  0  0  0  0  0  0  0  0  0  0
    6.8646  -10.0375    0.0000 O   0  0  0  0  0  0  0  0  0  0  0  0
    4.0067   -7.5625    0.0000 O   0  0  0  0  0  0  0  0  0  0  0  0
    3.2922   -7.9750    0.0000 C   0  0  0  0  0  0  0  0  0  0  0  0
    4.0067   -9.2125    0.0000 O   0  0  0  0  0  0  0  0  0  0  0  0
    4.0067  -10.0375    0.0000 C   0  0  0  0  0  0  0  0  0  0  0  0
    5.4356  -10.0375    0.0000 O   0  0  0  0  0  0  0  0  0  0  0  0
    8.2935  -10.0375    0.0000 C   0  0  0  0  0  0  0  0  0  0  0  0
    8.2935   -5.0875    0.0000 C   0  0  0  0  0  0  0  0  0  0  0  0
  1  2  2  0  0  0  0
  2  3  1  0  0  0  0
  3  4  2  0  0  0  0
  4  5  1  0  0  0  0
  5  6  2  0  0  0  0
  6  1  1  0  0  0  0
  4  7  1  0  0  0  0
  7  8  1  0  0  0  0
  8  9  2  0  0  0  0
  9 10  1  0  0  0  0
 10  5  1  0  0  0  0
  8 11  1  0  0  0  0
 12 13  2  0  0  0  0
 13  9  1  0  0  0  0
 12 14  1  0  0  0  0
 14 15  2  0  0  0  0
 15 16  1  0  0  0  0
 16 17  2  0  0  0  0
 17 13  1  0  0  0  0
 16 18  1  0  0  0  0
 15 19  1  0  0  0  0
  7 20  2  0  0  0  0
  1 21  1  0  0  0  0
 21 22  1  0  0  0  0
  2 23  1  0  0  0  0
 23 24  1  0  0  0  0
  3 25  1  0  0  0  0
 11 26  1  0  0  0  0
 18 27  1  0  0  0  0
M  END
>  <cdx:fragmentId>
5

$$$$
