97846.cdx
  Mrv1902 05222410232D          

 31 33  0  0  0  0            999 V2000
    8.4753   -8.6710    0.0000 C   0  0  0  0  0  0  0  0  0  0  0  0
    8.4753   -7.8460    0.0000 C   0  0  0  0  0  0  0  0  0  0  0  0
    7.7608   -7.4335    0.0000 C   0  0  0  0  0  0  0  0  0  0  0  0
    7.0463   -7.8460    0.0000 C   0  0  0  0  0  0  0  0  0  0  0  0
    6.3318   -7.4335    0.0000 C   0  0  0  0  0  0  0  0  0  0  0  0
    5.6174   -7.8460    0.0000 C   0  0  0  0  0  0  0  0  0  0  0  0
    5.6174   -8.6710    0.0000 C   0  0  0  0  0  0  0  0  0  0  0  0
    6.3318   -9.0835    0.0000 C   0  0  0  0  0  0  0  0  0  0  0  0
    7.0463   -8.6710    0.0000 C   0  0  0  0  0  0  0  0  0  0  0  0
    7.7608   -9.0835    0.0000 O   0  0  0  0  0  0  0  0  0  0  0  0
    7.7608   -6.6085    0.0000 O   0  0  0  0  0  0  0  0  0  0  0  0
    4.9029   -7.4335    0.0000 C   0  0  0  0  0  0  0  0  0  0  0  0
    4.1884   -7.8460    0.0000 C   0  0  0  0  0  0  0  0  0  0  0  0
    3.4740   -7.4335    0.0000 C   0  0  0  0  0  0  0  0  0  0  0  0
    3.4740   -6.6085    0.0000 C   0  0  0  0  0  0  0  0  0  0  0  0
    2.7595   -7.8460    0.0000 C   0  0  0  0  0  0  0  0  0  0  0  0
    9.1897   -7.4335    0.0000 C   0  0  0  0  0  0  0  0  0  0  0  0
    9.9042   -7.8460    0.0000 C   0  0  0  0  0  0  0  0  0  0  0  0
   10.6187   -7.4335    0.0000 C   0  0  0  0  0  0  0  0  0  0  0  0
   10.6187   -6.6085    0.0000 C   0  0  0  0  0  0  0  0  0  0  0  0
   11.3331   -7.8460    0.0000 C   0  0  0  0  0  0  0  0  0  0  0  0
    4.9029   -9.0835    0.0000 O   0  0  0  0  0  0  0  0  0  0  0  0
    6.3318   -6.6085    0.0000 O   0  0  0  0  0  0  0  0  0  0  0  0
    9.1897   -9.0835    0.0000 C   0  0  0  0  0  0  0  0  0  0  0  0
    9.1897   -9.9085    0.0000 C   0  0  0  0  0  0  0  0  0  0  0  0
    9.9042  -10.3210    0.0000 C   0  0  0  0  0  0  0  0  0  0  0  0
   10.6187   -9.9085    0.0000 C   0  0  0  0  0  0  0  0  0  0  0  0
   10.6187   -9.0835    0.0000 C   0  0  0  0  0  0  0  0  0  0  0  0
    9.9042   -8.6710    0.0000 C   0  0  0  0  0  0  0  0  0  0  0  0
   11.3331  -10.3210    0.0000 O   0  0  0  0  0  0  0  0  0  0  0  0
    8.4753  -10.3210    0.0000 O   0  0  0  0  0  0  0  0  0  0  0  0
  1  2  2  0  0  0  0
  2  3  1  0  0  0  0
  3  4  1  0  0  0  0
  4  5  1  0  0  0  0
  5  6  2  0  0  0  0
  6  7  1  0  0  0  0
  7  8  2  0  0  0  0
  8  9  1  0  0  0  0
  4  9  2  0  0  0  0
  9 10  1  0  0  0  0
  1 10  1  0  0  0  0
  3 11  2  0  0  0  0
 12 13  1  0  0  0  0
 13 14  2  0  0  0  0
 14 15  1  0  0  0  0
 14 16  1  0  0  0  0
  6 12  1  0  0  0  0
 17 18  1  0  0  0  0
 18 19  2  0  0  0  0
 19 20  1  0  0  0  0
 19 21  1  0  0  0  0
  2 17  1  0  0  0  0
  7 22  1  0  0  0  0
  5 23  1  0  0  0  0
 24 25  1  0  0  0  0
 25 26  2  0  0  0  0
 26 27  1  0  0  0  0
 27 28  2  0  0  0  0
 28 29  1  0  0  0  0
 24 29  2  0  0  0  0
 27 30  1  0  0  0  0
 25 31  1  0  0  0  0
  1 24  1  0  0  0  0
M  END
>  <cdx:fragmentId>
5

$$$$
