97842.cdx
  Mrv1902 05222410212D          

 32 36  0  0  0  0            999 V2000
    9.8168   -8.3399    0.0000 C   0  0  0  0  0  0  0  0  0  0  0  0
    8.4292   -4.2008    0.0000 H   0  0  0  0  0  0  0  0  0  0  0  0
    6.9870   -6.6614    0.0000 H   0  0  0  0  0  0  0  0  0  0  0  0
    8.4044   -6.6757    0.0000 H   0  0  0  0  0  0  0  0  0  0  0  0
    9.1478   -3.7955    0.0000 C   0  0  0  0  0  0  0  0  0  0  0  0
    9.8250   -7.5149    0.0000 O   0  0  0  0  0  0  0  0  0  0  0  0
    8.3962   -7.5006    0.0000 O   0  0  0  0  0  0  0  0  0  0  0  0
    9.1147   -7.0953    0.0000 C   0  0  0  0  0  0  0  0  0  0  0  0
    9.8498   -5.0401    0.0000 O   0  0  0  0  0  0  0  0  0  0  0  0
    9.8416   -5.8650    0.0000 C   0  0  0  0  0  0  0  0  0  0  0  0
    9.1230   -6.2703    0.0000 C   0  0  0  0  0  0  0  0  0  0  0  0
    9.1395   -4.6204    0.0000 C   0  0  2  0  0  0  0  0  0  0  0  0
    6.9838   -5.8364    0.0000 C   0  0  2  0  0  0  0  0  0  0  0  0
    7.6941   -6.2560    0.0000 C   0  0  0  0  0  0  0  0  0  0  0  0
    8.4127   -5.8507    0.0000 C   0  0  1  0  0  0  0  0  0  0  0  0
    8.4209   -5.0258    0.0000 C   0  0  2  0  0  0  0  0  0  0  0  0
    7.7106   -4.6061    0.0000 C   0  0  0  0  0  0  0  0  0  0  0  0
    6.9921   -5.0115    0.0000 N   0  3  0  0  0  0  0  0  0  0  0  0
    6.2100   -4.7487    0.0000 C   0  0  0  0  0  0  0  0  0  0  0  0
    5.7185   -5.4112    0.0000 C   0  0  0  0  0  0  0  0  0  0  0  0
    6.1967   -6.0835    0.0000 C   0  0  2  0  0  0  0  0  0  0  0  0
    5.4095   -6.3306    0.0000 C   0  0  0  0  0  0  0  0  0  0  0  0
    5.4013   -7.1555    0.0000 N   0  0  0  0  0  0  0  0  0  0  0  0
    6.1833   -7.4183    0.0000 C   0  0  0  0  0  0  0  0  0  0  0  0
    6.6749   -6.7557    0.0000 C   0  0  0  0  0  0  0  0  0  0  0  0
    6.5113   -8.1753    0.0000 C   0  0  0  0  0  0  0  0  0  0  0  0
    7.3309   -8.2697    0.0000 C   0  0  0  0  0  0  0  0  0  0  0  0
    7.8225   -7.6072    0.0000 C   0  0  0  0  0  0  0  0  0  0  0  0
    7.4945   -6.8502    0.0000 C   0  0  0  0  0  0  0  0  0  0  0  0
    4.7470   -5.8390    0.0000 O   0  0  0  0  0  0  0  0  0  0  0  0
    9.1023   -8.7524    0.0000 C   0  0  0  0  0  0  0  0  0  0  0  0
    6.9889   -4.1865    0.0000 O   0  5  0  0  0  0  0  0  0  0  0  0
  6  1  1  0  0  0  0
 16  2  1  1  0  0  0
 13  3  1  6  0  0  0
 15  4  1  6  0  0  0
 12  5  1  6  0  0  0
 11  8  1  0  0  0  0
  8  6  1  0  0  0  0
  8  7  2  0  0  0  0
 11 15  1  0  0  0  0
 12 16  1  0  0  0  0
 12  9  1  0  0  0  0
 10  9  1  0  0  0  0
 11 10  2  0  0  0  0
 18 13  1  0  0  0  0
 21 13  1  0  0  0  0
 14 13  1  0  0  0  0
 15 14  1  0  0  0  0
 16 15  1  0  0  0  0
 17 16  1  0  0  0  0
 18 17  1  0  0  0  0
 19 18  1  0  0  0  0
 20 19  1  0  0  0  0
 21 20  1  6  0  0  0
 21 22  1  0  0  0  0
 22 23  1  0  0  0  0
 23 24  1  0  0  0  0
 24 25  2  0  0  0  0
 25 21  1  0  0  0  0
 24 26  1  0  0  0  0
 26 27  2  0  0  0  0
 27 28  1  0  0  0  0
 28 29  2  0  0  0  0
 29 25  1  0  0  0  0
 22 30  2  0  0  0  0
  1 31  1  0  0  0  0
 18 32  1  0  0  0  0
M  CHG  2  18   1  32  -1
M  END
>  <cdx:fragmentId>
1978

$$$$
