97849.cdx
  Mrv1902 05222410242D          

 31 34  0  0  0  0            999 V2000
    9.6793   -8.5670    0.0000 C   0  0  0  0  0  0  0  0  0  0  0  0
    8.3436   -4.4109    0.0000 H   0  0  0  0  0  0  0  0  0  0  0  0
    8.2879   -6.8852    0.0000 H   0  0  0  0  0  0  0  0  0  0  0  0
    9.0672   -4.0146    0.0000 C   0  0  0  0  0  0  0  0  0  0  0  0
    9.6979   -7.7422    0.0000 O   0  0  0  0  0  0  0  0  0  0  0  0
    8.2693   -7.7100    0.0000 O   0  0  0  0  0  0  0  0  0  0  0  0
    8.9929   -7.3137    0.0000 C   0  0  0  0  0  0  0  0  0  0  0  0
    9.7536   -5.2678    0.0000 O   0  0  0  0  0  0  0  0  0  0  0  0
    9.7350   -6.0926    0.0000 C   0  0  0  0  0  0  0  0  0  0  0  0
    9.0115   -6.4889    0.0000 C   0  0  0  0  0  0  0  0  0  0  0  0
    9.0486   -4.8393    0.0000 C   0  0  2  0  0  0  0  0  0  0  0  0
    6.8779   -6.0282    0.0000 C   0  0  0  0  0  0  0  0  0  0  0  0
    7.5829   -6.4567    0.0000 C   0  0  0  0  0  0  0  0  0  0  0  0
    8.3065   -6.0604    0.0000 C   0  0  1  0  0  0  0  0  0  0  0  0
    8.3250   -5.2356    0.0000 C   0  0  2  0  0  0  0  0  0  0  0  0
    7.6201   -4.8072    0.0000 C   0  0  0  0  0  0  0  0  0  0  0  0
    6.8965   -5.2035    0.0000 N   0  0  0  0  0  0  0  0  0  0  0  0
    5.4794   -5.1843    0.0000 C   0  0  0  0  0  0  0  0  0  0  0  0
    6.7949   -6.6967    0.0000 O   0  0  0  0  0  0  0  0  0  0  0  0
    3.9936   -5.8461    0.0000 C   0  0  0  0  0  0  0  0  0  0  0  0
    3.2754   -6.2520    0.0000 C   0  0  0  0  0  0  0  0  0  0  0  0
    3.2678   -7.0770    0.0000 C   0  0  0  0  0  0  0  0  0  0  0  0
    3.9785   -7.4960    0.0000 C   0  0  0  0  0  0  0  0  0  0  0  0
    4.7042   -6.2651    0.0000 C   0  0  0  0  0  0  0  0  0  0  0  0
    4.6967   -7.0900    0.0000 C   0  0  0  0  0  0  0  0  0  0  0  0
    5.4790   -7.3522    0.0000 N   0  0  0  0  0  0  0  0  0  0  0  0
    5.9700   -6.6892    0.0000 C   0  0  0  0  0  0  0  0  0  0  0  0
    5.4912   -6.0173    0.0000 C   0  0  2  0  0  0  0  0  0  0  0  0
    6.2056   -5.6048    0.0000 O   0  0  0  0  0  0  0  0  0  0  0  0
    6.1543   -6.4245    0.0000 O   0  0  0  0  0  0  0  0  0  0  0  0
    6.1915   -4.7750    0.0000 C   0  0  0  0  0  0  0  0  0  0  0  0
  5  1  1  0  0  0  0
 15  2  1  1  0  0  0
 14  3  1  6  0  0  0
 11  4  1  6  0  0  0
 10  7  1  0  0  0  0
  7  5  1  0  0  0  0
  7  6  2  0  0  0  0
 10 14  1  0  0  0  0
 11 15  1  0  0  0  0
 11  8  1  0  0  0  0
  9  8  1  0  0  0  0
 10  9  2  0  0  0  0
 17 12  1  0  0  0  0
 13 12  1  0  0  0  0
 14 13  1  0  0  0  0
 15 14  1  0  0  0  0
 16 15  1  0  0  0  0
 17 16  1  0  0  0  0
 27 19  2  0  0  0  0
 20 24  1  0  0  0  0
 21 20  2  0  0  0  0
 22 21  1  0  0  0  0
 23 22  2  0  0  0  0
 25 23  1  0  0  0  0
 24 28  1  0  0  0  0
 25 24  2  0  0  0  0
 26 25  1  0  0  0  0
 27 26  1  0  0  0  0
 28 27  1  0  0  0  0
 28 18  1  1  0  0  0
 28 29  1  6  0  0  0
 12 30  2  0  0  0  0
 17 31  1  0  0  0  0
 18 31  1  0  0  0  0
M  END
>  <cdx:fragmentId>
1978

$$$$
