97844.cdx
  Mrv1902 05222410222D          

 13 13  0  0  0  0            999 V2000
    6.4846   -8.0993    0.0000 C   0  0  0  0  0  0  0  0  0  0  0  0
    5.7701   -8.5118    0.0000 C   0  0  0  0  0  0  0  0  0  0  0  0
    5.7701   -9.3368    0.0000 C   0  0  0  0  0  0  0  0  0  0  0  0
    5.0557   -9.7493    0.0000 C   0  0  0  0  0  0  0  0  0  0  0  0
    4.3412   -9.3368    0.0000 C   0  0  0  0  0  0  0  0  0  0  0  0
    4.3412   -8.5118    0.0000 C   0  0  0  0  0  0  0  0  0  0  0  0
    5.0557   -8.0993    0.0000 C   0  0  0  0  0  0  0  0  0  0  0  0
    6.4846   -7.2743    0.0000 O   0  0  0  0  0  0  0  0  0  0  0  0
    7.1991   -8.5118    0.0000 O   0  0  0  0  0  0  0  0  0  0  0  0
    7.9136   -8.0993    0.0000 C   0  0  0  0  0  0  0  0  0  0  0  0
    8.6280   -8.5118    0.0000 C   0  0  0  0  0  0  0  0  0  0  0  0
    9.3425   -8.0993    0.0000 C   0  0  0  0  0  0  0  0  0  0  0  0
   10.0570   -8.5118    0.0000 C   0  0  0  0  0  0  0  0  0  0  0  0
  1  2  1  0  0  0  0
  2  3  1  0  0  0  0
  3  4  2  0  0  0  0
  4  5  1  0  0  0  0
  5  6  2  0  0  0  0
  6  7  1  0  0  0  0
  2  7  2  0  0  0  0
  1  8  2  0  0  0  0
  1  9  1  0  0  0  0
 10 11  1  0  0  0  0
 11 12  1  0  0  0  0
 12 13  1  0  0  0  0
  9 10  1  0  0  0  0
M  END
>  <cdx:fragmentId>
5

$$$$
