97845.cdx
  Mrv1902 05222410222D          

 14 15  0  0  0  0            999 V2000
    8.9240   -7.2988    0.0000 C   0  0  0  0  0  0  0  0  0  0  0  0
    8.9282   -8.1237    0.0000 C   0  0  0  0  0  0  0  0  0  0  0  0
    8.2159   -8.5399    0.0000 C   0  0  0  0  0  0  0  0  0  0  0  0
    7.4993   -8.1310    0.0000 C   0  0  0  0  0  0  0  0  0  0  0  0
    6.7869   -8.5471    0.0000 C   0  0  0  0  0  0  0  0  0  0  0  0
    6.0704   -8.1383    0.0000 C   0  0  0  0  0  0  0  0  0  0  0  0
    6.0662   -7.3133    0.0000 C   0  0  0  0  0  0  0  0  0  0  0  0
    6.7785   -6.8972    0.0000 C   0  0  0  0  0  0  0  0  0  0  0  0
    7.4951   -7.3060    0.0000 C   0  0  0  0  0  0  0  0  0  0  0  0
    8.2075   -6.8899    0.0000 O   0  0  0  0  0  0  0  0  0  0  0  0
    9.6364   -6.8826    0.0000 O   0  0  0  0  0  0  0  0  0  0  0  0
    5.3496   -6.9044    0.0000 O   0  0  0  0  0  0  0  0  0  0  0  0
    6.7911   -9.3721    0.0000 O   0  0  0  0  0  0  0  0  0  0  0  0
    4.6372   -7.3206    0.0000 C   0  0  0  0  0  0  0  0  0  0  0  0
  1  2  1  0  0  0  0
  2  3  2  0  0  0  0
  3  4  1  0  0  0  0
  4  5  1  0  0  0  0
  5  6  2  0  0  0  0
  6  7  1  0  0  0  0
  7  8  2  0  0  0  0
  8  9  1  0  0  0  0
  4  9  2  0  0  0  0
  9 10  1  0  0  0  0
  1 10  1  0  0  0  0
  1 11  2  0  0  0  0
  7 12  1  0  0  0  0
  5 13  1  0  0  0  0
 12 14  1  0  0  0  0
M  END
>  <cdx:fragmentId>
5

$$$$
