97840.cdx
  Mrv1902 05222410212D          

 32 36  0  0  0  0            999 V2000
    9.8222   -8.3330    0.0000 C   0  0  0  0  0  0  0  0  0  0  0  0
    8.4195   -4.1990    0.0000 H   0  0  0  0  0  0  0  0  0  0  0  0
    6.9863   -6.6649    0.0000 H   0  0  0  0  0  0  0  0  0  0  0  0
    8.4038   -6.6740    0.0000 H   0  0  0  0  0  0  0  0  0  0  0  0
    9.1366   -3.7911    0.0000 C   0  0  0  0  0  0  0  0  0  0  0  0
    9.8274   -7.5081    0.0000 O   0  0  0  0  0  0  0  0  0  0  0  0
    8.3985   -7.4990    0.0000 O   0  0  0  0  0  0  0  0  0  0  0  0
    9.1156   -7.0910    0.0000 C   0  0  0  0  0  0  0  0  0  0  0  0
    9.8432   -5.0331    0.0000 O   0  0  0  0  0  0  0  0  0  0  0  0
    9.8379   -5.8581    0.0000 C   0  0  0  0  0  0  0  0  0  0  0  0
    9.1209   -6.2660    0.0000 C   0  0  0  0  0  0  0  0  0  0  0  0
    9.1314   -4.6161    0.0000 C   0  0  2  0  0  0  0  0  0  0  0  0
    6.9801   -5.8399    0.0000 C   0  0  2  0  0  0  0  0  0  0  0  0
    7.6919   -6.2569    0.0000 C   0  0  0  0  0  0  0  0  0  0  0  0
    8.4090   -5.8490    0.0000 C   0  0  1  0  0  0  0  0  0  0  0  0
    8.4143   -5.0240    0.0000 C   0  0  2  0  0  0  0  0  0  0  0  0
    7.7025   -4.6070    0.0000 C   0  0  0  0  0  0  0  0  0  0  0  0
    6.9854   -5.0149    0.0000 N   0  3  0  0  0  0  0  0  0  0  0  0
    6.2024   -4.7550    0.0000 C   0  0  0  0  0  0  0  0  0  0  0  0
    5.7132   -5.4193    0.0000 C   0  0  0  0  0  0  0  0  0  0  0  0
    6.1939   -6.0898    0.0000 C   0  0  1  0  0  0  0  0  0  0  0  0
    5.4077   -6.3398    0.0000 C   0  0  0  0  0  0  0  0  0  0  0  0
    5.4024   -7.1647    0.0000 N   0  0  0  0  0  0  0  0  0  0  0  0
    6.1854   -7.4247    0.0000 C   0  0  0  0  0  0  0  0  0  0  0  0
    6.6745   -6.7603    0.0000 C   0  0  0  0  0  0  0  0  0  0  0  0
    6.5161   -8.1805    0.0000 C   0  0  0  0  0  0  0  0  0  0  0  0
    7.3360   -8.2719    0.0000 C   0  0  0  0  0  0  0  0  0  0  0  0
    7.8252   -7.6076    0.0000 C   0  0  0  0  0  0  0  0  0  0  0  0
    7.4945   -6.8518    0.0000 C   0  0  0  0  0  0  0  0  0  0  0  0
    4.7433   -5.8506    0.0000 O   0  0  0  0  0  0  0  0  0  0  0  0
    9.1077   -8.7455    0.0000 C   0  0  0  0  0  0  0  0  0  0  0  0
    6.9792   -4.1899    0.0000 O   0  5  0  0  0  0  0  0  0  0  0  0
  6  1  1  0  0  0  0
 16  2  1  1  0  0  0
 13  3  1  6  0  0  0
 15  4  1  6  0  0  0
 12  5  1  6  0  0  0
 11  8  1  0  0  0  0
  8  6  1  0  0  0  0
  8  7  2  0  0  0  0
 11 15  1  0  0  0  0
 12 16  1  0  0  0  0
 12  9  1  0  0  0  0
 10  9  1  0  0  0  0
 11 10  2  0  0  0  0
 18 13  1  0  0  0  0
 21 13  1  0  0  0  0
 14 13  1  0  0  0  0
 15 14  1  0  0  0  0
 16 15  1  0  0  0  0
 17 16  1  0  0  0  0
 18 17  1  0  0  0  0
 19 18  1  0  0  0  0
 20 19  1  0  0  0  0
 21 20  1  1  0  0  0
 21 22  1  0  0  0  0
 22 23  1  0  0  0  0
 23 24  1  0  0  0  0
 24 25  2  0  0  0  0
 25 21  1  0  0  0  0
 24 26  1  0  0  0  0
 26 27  2  0  0  0  0
 27 28  1  0  0  0  0
 28 29  2  0  0  0  0
 29 25  1  0  0  0  0
 22 30  2  0  0  0  0
  1 31  1  0  0  0  0
 18 32  1  0  0  0  0
M  CHG  2  18   1  32  -1
M  END
>  <cdx:fragmentId>
1978

$$$$
