97841.cdx
  Mrv1902 05222410212D          

 31 35  0  0  0  0            999 V2000
    9.8973   -8.2076    0.0000 C   0  0  0  0  0  0  0  0  0  0  0  0
    8.4513   -4.0886    0.0000 H   0  0  0  0  0  0  0  0  0  0  0  0
    7.0440   -6.5693    0.0000 H   0  0  0  0  0  0  0  0  0  0  0  0
    8.4615   -6.5635    0.0000 H   0  0  0  0  0  0  0  0  0  0  0  0
    9.1640   -3.6731    0.0000 C   0  0  0  0  0  0  0  0  0  0  0  0
    9.8938   -7.3826    0.0000 O   0  0  0  0  0  0  0  0  0  0  0  0
    8.4649   -7.3885    0.0000 O   0  0  0  0  0  0  0  0  0  0  0  0
    9.1777   -6.9731    0.0000 C   0  0  0  0  0  0  0  0  0  0  0  0
    9.8836   -4.9076    0.0000 O   0  0  0  0  0  0  0  0  0  0  0  0
    9.8870   -5.7326    0.0000 C   0  0  0  0  0  0  0  0  0  0  0  0
    9.1743   -6.1481    0.0000 C   0  0  0  0  0  0  0  0  0  0  0  0
    9.1675   -4.4981    0.0000 C   0  0  2  0  0  0  0  0  0  0  0  0
    7.0292   -5.7444    0.0000 C   0  0  2  0  0  0  0  0  0  0  0  0
    7.7453   -6.1540    0.0000 C   0  0  0  0  0  0  0  0  0  0  0  0
    8.4581   -5.7385    0.0000 C   0  0  1  0  0  0  0  0  0  0  0  0
    8.4547   -4.9135    0.0000 C   0  0  2  0  0  0  0  0  0  0  0  0
    7.7385   -4.5040    0.0000 C   0  0  0  0  0  0  0  0  0  0  0  0
    7.0258   -4.9194    0.0000 N   0  0  0  0  0  0  0  0  0  0  0  0
    6.2401   -4.6678    0.0000 C   0  0  0  0  0  0  0  0  0  0  0  0
    5.7579   -5.3372    0.0000 C   0  0  0  0  0  0  0  0  0  0  0  0
    6.2456   -6.0026    0.0000 C   0  0  2  0  0  0  0  0  0  0  0  0
    5.4620   -6.2608    0.0000 C   0  0  0  0  0  0  0  0  0  0  0  0
    5.4655   -7.0858    0.0000 N   0  0  0  0  0  0  0  0  0  0  0  0
    6.2511   -7.3375    0.0000 C   0  0  0  0  0  0  0  0  0  0  0  0
    6.7333   -6.6680    0.0000 C   0  0  0  0  0  0  0  0  0  0  0  0
    6.5898   -8.0898    0.0000 C   0  0  0  0  0  0  0  0  0  0  0  0
    7.4106   -8.1726    0.0000 C   0  0  0  0  0  0  0  0  0  0  0  0
    7.8928   -7.5032    0.0000 C   0  0  0  0  0  0  0  0  0  0  0  0
    7.5541   -6.7509    0.0000 C   0  0  0  0  0  0  0  0  0  0  0  0
    4.7926   -5.7786    0.0000 O   0  0  0  0  0  0  0  0  0  0  0  0
    9.1828   -8.6201    0.0000 C   0  0  0  0  0  0  0  0  0  0  0  0
  6  1  1  0  0  0  0
 16  2  1  1  0  0  0
 13  3  1  6  0  0  0
 15  4  1  6  0  0  0
 12  5  1  6  0  0  0
 11  8  1  0  0  0  0
  8  6  1  0  0  0  0
  8  7  2  0  0  0  0
 11 15  1  0  0  0  0
 12 16  1  0  0  0  0
 12  9  1  0  0  0  0
 10  9  1  0  0  0  0
 11 10  2  0  0  0  0
 18 13  1  0  0  0  0
 21 13  1  0  0  0  0
 14 13  1  0  0  0  0
 15 14  1  0  0  0  0
 16 15  1  0  0  0  0
 17 16  1  0  0  0  0
 18 17  1  0  0  0  0
 19 18  1  0  0  0  0
 20 19  1  0  0  0  0
 21 20  1  6  0  0  0
 21 22  1  0  0  0  0
 22 23  1  0  0  0  0
 23 24  1  0  0  0  0
 24 25  2  0  0  0  0
 25 21  1  0  0  0  0
 24 26  1  0  0  0  0
 26 27  2  0  0  0  0
 27 28  1  0  0  0  0
 28 29  2  0  0  0  0
 29 25  1  0  0  0  0
 22 30  2  0  0  0  0
  1 31  1  0  0  0  0
M  END
>  <cdx:fragmentId>
1978

$$$$
