97848.cdx
  Mrv1902 05222410242D          

 56 62  0  0  0  0            999 V2000
    6.5021   -8.2225    0.0000 C   0  0  1  0  0  0  0  0  0  0  0  0
    6.5021   -7.3975    0.0000 C   0  0  0  0  0  0  0  0  0  0  0  0
    7.2166   -6.9850    0.0000 C   0  0  0  0  0  0  0  0  0  0  0  0
    7.2166   -8.6350    0.0000 C   0  0  0  0  0  0  0  0  0  0  0  0
    7.6291   -9.3495    0.0000 C   0  0  0  0  0  0  0  0  0  0  0  0
    6.8041   -9.3495    0.0000 C   0  0  0  0  0  0  0  0  0  0  0  0
    7.9311   -8.2225    0.0000 C   0  0  2  0  0  0  0  0  0  0  0  0
    7.9311   -9.0475    0.0000 H   0  0  0  0  0  0  0  0  0  0  0  0
    8.6455   -8.6350    0.0000 C   0  0  0  0  0  0  0  0  0  0  0  0
    9.3600   -8.2225    0.0000 C   0  0  0  0  0  0  0  0  0  0  0  0
    9.3600   -7.3975    0.0000 C   0  0  1  0  0  0  0  0  0  0  0  0
    9.3600   -6.5725    0.0000 C   0  0  0  0  0  0  0  0  0  0  0  0
   10.0745   -6.9850    0.0000 C   0  0  2  0  0  0  0  0  0  0  0  0
   10.0745   -7.8100    0.0000 C   0  0  0  0  0  0  0  0  0  0  0  0
   10.7890   -7.3975    0.0000 C   0  0  0  0  0  0  0  0  0  0  0  0
   11.5034   -6.9850    0.0000 C   0  0  0  0  0  0  0  0  0  0  0  0
   11.5034   -6.1600    0.0000 C   0  0  1  0  0  0  0  0  0  0  0  0
   12.2179   -6.5725    0.0000 C   0  0  0  0  0  0  0  0  0  0  0  0
   12.2179   -5.7475    0.0000 C   0  0  0  0  0  0  0  0  0  0  0  0
   12.2179   -4.9225    0.0000 C   0  0  0  0  0  0  0  0  0  0  0  0
   11.5034   -4.5100    0.0000 C   0  0  0  0  0  0  0  0  0  0  0  0
   11.0909   -3.7955    0.0000 C   0  0  0  0  0  0  0  0  0  0  0  0
   11.9159   -3.7955    0.0000 C   0  0  0  0  0  0  0  0  0  0  0  0
   10.7890   -4.9225    0.0000 C   0  0  0  0  0  0  0  0  0  0  0  0
   10.7890   -5.7475    0.0000 C   0  0  1  0  0  0  0  0  0  0  0  0
   10.7890   -6.5725    0.0000 H   0  0  0  0  0  0  0  0  0  0  0  0
   10.0745   -6.1600    0.0000 C   0  0  0  0  0  0  0  0  0  0  0  0
    9.3600   -5.7475    0.0000 C   0  0  0  0  0  0  0  0  0  0  0  0
    8.6455   -6.1600    0.0000 C   0  0  0  0  0  0  0  0  0  0  0  0
    8.6455   -6.9850    0.0000 C   0  0  2  0  0  0  0  0  0  0  0  0
    7.9311   -7.3975    0.0000 C   0  0  1  0  0  0  0  0  0  0  0  0
    7.9311   -6.5725    0.0000 C   0  0  0  0  0  0  0  0  0  0  0  0
   12.2179   -7.3975    0.0000 O   0  0  0  0  0  0  0  0  0  0  0  0
   12.9324   -6.1600    0.0000 O   0  0  0  0  0  0  0  0  0  0  0  0
   10.7890   -8.2225    0.0000 O   0  0  0  0  0  0  0  0  0  0  0  0
    8.6455   -7.8100    0.0000 H   0  0  0  0  0  0  0  0  0  0  0  0
    5.7877   -8.6350    0.0000 O   0  0  0  0  0  0  0  0  0  0  0  0
    5.0732   -8.2225    0.0000 C   0  0  2  0  0  0  0  0  0  0  0  0
    5.0732   -7.3975    0.0000 O   0  0  0  0  0  0  0  0  0  0  0  0
    4.3587   -6.9850    0.0000 C   0  0  0  0  0  0  0  0  0  0  0  0
    3.6442   -7.3975    0.0000 C   0  0  1  0  0  0  0  0  0  0  0  0
    3.6442   -8.2225    0.0000 C   0  0  1  0  0  0  0  0  0  0  0  0
    4.3587   -8.6350    0.0000 C   0  0  1  0  0  0  0  0  0  0  0  0
    2.9298   -6.9850    0.0000 O   0  0  0  0  0  0  0  0  0  0  0  0
    2.9298   -8.6350    0.0000 O   0  0  0  0  0  0  0  0  0  0  0  0
    4.3587   -9.4600    0.0000 O   0  0  0  0  0  0  0  0  0  0  0  0
    3.6442   -9.8725    0.0000 C   0  0  2  0  0  0  0  0  0  0  0  0
    2.9298   -9.4600    0.0000 O   0  0  0  0  0  0  0  0  0  0  0  0
    2.2153   -9.8725    0.0000 C   0  0  2  0  0  0  0  0  0  0  0  0
    2.2153  -10.6975    0.0000 C   0  0  1  0  0  0  0  0  0  0  0  0
    2.9298  -11.1100    0.0000 C   0  0  2  0  0  0  0  0  0  0  0  0
    3.6442  -10.6975    0.0000 C   0  0  1  0  0  0  0  0  0  0  0  0
    1.5008  -11.1100    0.0000 O   0  0  0  0  0  0  0  0  0  0  0  0
    1.5008   -9.4600    0.0000 C   0  0  0  0  0  0  0  0  0  0  0  0
    2.9298  -11.9350    0.0000 O   0  0  0  0  0  0  0  0  0  0  0  0
    4.3587  -11.1100    0.0000 O   0  0  0  0  0  0  0  0  0  0  0  0
  1  2  1  0  0  0  0
  2  3  1  0  0  0  0
  1  4  1  0  0  0  0
  4  5  1  0  0  0  0
  4  6  1  0  0  0  0
  4  7  1  0  0  0  0
  7  8  1  6  0  0  0
  7  9  1  0  0  0  0
  9 10  1  0  0  0  0
 10 11  1  0  0  0  0
 11 12  1  1  0  0  0
 11 13  1  0  0  0  0
 13 14  1  6  0  0  0
 13 15  1  0  0  0  0
 15 16  1  0  0  0  0
 16 17  1  0  0  0  0
 17 18  1  1  0  0  0
 17 19  1  0  0  0  0
 19 20  1  0  0  0  0
 20 21  1  0  0  0  0
 21 22  1  0  0  0  0
 21 23  1  0  0  0  0
 21 24  1  0  0  0  0
 24 25  1  0  0  0  0
 25 26  1  1  0  0  0
 17 25  1  0  0  0  0
 25 27  1  0  0  0  0
 13 27  1  0  0  0  0
 27 28  2  0  0  0  0
 28 29  1  0  0  0  0
 29 30  1  0  0  0  0
 11 30  1  0  0  0  0
 30 31  1  0  0  0  0
  3 31  1  0  0  0  0
  7 31  1  0  0  0  0
 31 32  1  1  0  0  0
 18 33  2  0  0  0  0
 18 34  1  0  0  0  0
 14 35  1  0  0  0  0
 30 36  1  6  0  0  0
  1 37  1  1  0  0  0
 38 37  1  1  0  0  0
 38 39  1  0  0  0  0
 39 40  1  0  0  0  0
 40 41  1  0  0  0  0
 41 42  1  0  0  0  0
 42 43  1  0  0  0  0
 43 38  1  0  0  0  0
 41 44  1  1  0  0  0
 42 45  1  1  0  0  0
 43 46  1  6  0  0  0
 47 46  1  1  0  0  0
 47 48  1  0  0  0  0
 48 49  1  0  0  0  0
 49 50  1  0  0  0  0
 50 51  1  0  0  0  0
 51 52  1  0  0  0  0
 52 47  1  0  0  0  0
 50 53  1  1  0  0  0
 49 54  1  6  0  0  0
 51 55  1  6  0  0  0
 52 56  1  6  0  0  0
M  END
>  <cdx:fragmentId>
5

$$$$
