97857.cdx
  Mrv1902 05222410202D          

 44 48  0  0  0  0            999 V2000
    8.9235   -2.9161    0.0000 O   0  3  0  0  0  0  0  0  0  0  0  0
    9.6409   -4.9776    0.0000 C   0  0  0  0  0  0  0  0  0  0  0  0
   10.3565   -5.3882    0.0000 O   0  0  0  0  0  0  0  0  0  0  0  0
   10.3574   -6.2132    0.0000 C   0  0  0  0  0  0  0  0  0  0  0  0
    9.6436   -6.6269    0.0000 C   0  0  0  0  0  0  0  0  0  0  0  0
    8.9282   -6.2161    0.0000 C   0  0  0  0  0  0  0  0  0  0  0  0
    8.2143   -6.6296    0.0000 C   0  0  0  0  0  0  0  0  0  0  0  0
    7.4992   -6.2181    0.0000 C   0  0  0  0  0  0  0  0  0  0  0  0
    7.4981   -5.3931    0.0000 O   0  0  0  0  0  0  0  0  0  0  0  0
    8.2120   -4.9796    0.0000 C   0  0  0  0  0  0  0  0  0  0  0  0
    8.2108   -4.1546    0.0000 C   0  0  0  0  0  0  0  0  0  0  0  0
    8.9247   -3.7411    0.0000 C   0  0  0  0  0  0  0  0  0  0  0  0
    9.6397   -4.1526    0.0000 C   0  0  0  0  0  0  0  0  0  0  0  0
    8.9270   -5.3911    0.0000 C   0  0  0  0  0  0  0  0  0  0  0  0
    9.6455   -7.9469    0.0000 O   0  0  0  0  0  0  0  0  0  0  0  0
    8.2166   -7.9489    0.0000 O   0  0  0  0  0  0  0  0  0  0  0  0
    8.9316   -8.3604    0.0000 C   0  0  2  0  0  0  0  0  0  0  0  0
    8.9328   -9.1854    0.0000 C   0  0  1  0  0  0  0  0  0  0  0  0
    8.2189   -9.5989    0.0000 C   0  0  2  0  0  0  0  0  0  0  0  0
    7.5038   -9.1874    0.0000 C   0  0  1  0  0  0  0  0  0  0  0  0
    7.5027   -8.3624    0.0000 C   0  0  1  0  0  0  0  0  0  0  0  0
    6.7876   -7.9509    0.0000 C   0  0  0  0  0  0  0  0  0  0  0  0
    6.0737   -8.3645    0.0000 O   0  0  0  0  0  0  0  0  0  0  0  0
    6.7900   -9.6009    0.0000 O   0  0  0  0  0  0  0  0  0  0  0  0
    8.2201  -10.4239    0.0000 O   0  0  0  0  0  0  0  0  0  0  0  0
    9.6478   -9.5969    0.0000 O   0  0  0  0  0  0  0  0  0  0  0  0
   11.0724   -6.6246    0.0000 C   0  0  0  0  0  0  0  0  0  0  0  0
   11.7863   -6.2111    0.0000 C   0  0  0  0  0  0  0  0  0  0  0  0
   12.5014   -6.6226    0.0000 C   0  0  0  0  0  0  0  0  0  0  0  0
   12.5026   -7.4476    0.0000 C   0  0  0  0  0  0  0  0  0  0  0  0
   11.7887   -7.8611    0.0000 C   0  0  0  0  0  0  0  0  0  0  0  0
   11.0736   -7.4496    0.0000 C   0  0  0  0  0  0  0  0  0  0  0  0
   13.2176   -7.8591    0.0000 O   0  0  0  0  0  0  0  0  0  0  0  0
   13.2153   -6.2091    0.0000 O   0  0  0  0  0  0  0  0  0  0  0  0
    6.7854   -6.6316    0.0000 C   0  0  0  0  0  0  0  0  0  0  0  0
    6.0703   -6.2202    0.0000 O   0  0  0  0  0  0  0  0  0  0  0  0
    6.7865   -7.4566    0.0000 O   0  0  0  0  0  0  0  0  0  0  0  0
    5.3587   -7.9530    0.0000 C   0  0  0  0  0  0  0  0  0  0  0  0
    4.6448   -8.3665    0.0000 C   0  0  0  0  0  0  0  0  0  0  0  0
    3.9297   -7.9550    0.0000 C   0  0  0  0  0  0  0  0  0  0  0  0
    3.2159   -8.3685    0.0000 O   0  0  0  0  0  0  0  0  0  0  0  0
    3.9286   -7.1300    0.0000 O   0  0  0  0  0  0  0  0  0  0  0  0
    5.3575   -7.1280    0.0000 O   0  0  0  0  0  0  0  0  0  0  0  0
    4.6460   -9.1915    0.0000 C   0  0  0  0  0  0  0  0  0  0  0  0
  2  3  1  0  0  0  0
  3  4  1  0  0  0  0
  4  5  2  0  0  0  0
  5  6  1  0  0  0  0
  6  7  1  0  0  0  0
  7  8  2  0  0  0  0
  8  9  1  0  0  0  0
  9 10  1  0  0  0  0
 10 11  2  0  0  0  0
 11 12  1  0  0  0  0
 12 13  1  0  0  0  0
  2 13  2  0  0  0  0
  2 14  1  0  0  0  0
 14 10  1  0  0  0  0
  6 14  2  0  0  0  0
 16 17  1  0  0  0  0
 17 18  1  0  0  0  0
 18 19  1  0  0  0  0
 19 20  1  0  0  0  0
 20 21  1  0  0  0  0
 16 21  1  0  0  0  0
 22 23  1  0  0  0  0
 21 22  1  1  0  0  0
 20 24  1  6  0  0  0
 19 25  1  1  0  0  0
 18 26  1  6  0  0  0
 17 15  1  1  0  0  0
  5 15  1  0  0  0  0
 27 28  1  0  0  0  0
 28 29  2  0  0  0  0
 29 30  1  0  0  0  0
 30 31  2  0  0  0  0
 31 32  1  0  0  0  0
 27 32  2  0  0  0  0
 30 33  1  0  0  0  0
 29 34  1  0  0  0  0
  4 27  1  0  0  0  0
 35 36  2  0  0  0  0
 35 37  1  0  0  0  0
  8 35  1  0  0  0  0
  1 12  2  0  0  0  0
 23 38  1  0  0  0  0
 38 39  1  0  0  0  0
 39 40  1  0  0  0  0
 40 41  1  0  0  0  0
 40 42  2  0  0  0  0
 38 43  2  0  0  0  0
 39 44  1  0  0  0  0
M  CHG  1   1   1
M  END
>  <cdx:fragmentId>
7

$$$$
