97858.cdx
  Mrv1902 05222410252D          

 40 44  0  0  0  0            999 V2000
    6.5183   -6.8076    0.0000 C   0  0  0  0  0  0  0  0  0  0  0  0
    6.5183   -7.6326    0.0000 C   0  0  0  0  0  0  0  0  0  0  0  0
    5.8038   -8.0451    0.0000 C   0  0  0  0  0  0  0  0  0  0  0  0
    5.8038   -8.8701    0.0000 O   0  0  0  0  0  0  0  0  0  0  0  0
    5.0894   -7.6326    0.0000 C   0  0  0  0  0  0  0  0  0  0  0  0
    4.3749   -8.0451    0.0000 C   0  0  0  0  0  0  0  0  0  0  0  0
    4.3749   -8.8701    0.0000 O   0  0  0  0  0  0  0  0  0  0  0  0
    3.6604   -7.6326    0.0000 C   0  0  0  0  0  0  0  0  0  0  0  0
    3.6604   -6.8076    0.0000 C   0  0  0  0  0  0  0  0  0  0  0  0
    2.9460   -6.3951    0.0000 O   0  0  0  0  0  0  0  0  0  0  0  0
    4.3749   -6.3951    0.0000 C   0  0  0  0  0  0  0  0  0  0  0  0
    5.0894   -6.8076    0.0000 C   0  0  0  0  0  0  0  0  0  0  0  0
    5.8038   -6.3951    0.0000 O   0  0  0  0  0  0  0  0  0  0  0  0
    7.2328   -6.3951    0.0000 C   0  0  0  0  0  0  0  0  0  0  0  0
    7.2328   -5.5701    0.0000 C   0  0  0  0  0  0  0  0  0  0  0  0
    7.9473   -5.1576    0.0000 C   0  0  0  0  0  0  0  0  0  0  0  0
    8.6617   -5.5701    0.0000 C   0  0  0  0  0  0  0  0  0  0  0  0
    9.3762   -5.1576    0.0000 O   0  0  0  0  0  0  0  0  0  0  0  0
    8.6617   -6.3951    0.0000 C   0  0  0  0  0  0  0  0  0  0  0  0
    7.9473   -6.8076    0.0000 C   0  0  0  0  0  0  0  0  0  0  0  0
    7.2328   -8.0451    0.0000 O   0  0  0  0  0  0  0  0  0  0  0  0
    7.2328   -8.8701    0.0000 C   0  0  1  0  0  0  0  0  0  0  0  0
    7.9002   -9.3550    0.0000 C   0  0  2  0  0  0  0  0  0  0  0  0
    8.6848   -9.1000    0.0000 O   0  0  0  0  0  0  0  0  0  0  0  0
    7.6453  -10.1396    0.0000 C   0  0  1  0  0  0  0  0  0  0  0  0
    8.1302  -10.8070    0.0000 O   0  0  0  0  0  0  0  0  0  0  0  0
    6.8203  -10.1396    0.0000 C   0  0  2  0  0  0  0  0  0  0  0  0
    6.5653   -9.3550    0.0000 O   0  0  0  0  0  0  0  0  0  0  0  0
    6.3354  -10.8070    0.0000 C   0  0  0  0  0  0  0  0  0  0  0  0
    5.5149  -10.7208    0.0000 O   0  0  0  0  0  0  0  0  0  0  0  0
    9.2682   -9.6834    0.0000 C   0  0  1  0  0  0  0  0  0  0  0  0
   10.0651   -9.4699    0.0000 C   0  0  2  0  0  0  0  0  0  0  0  0
   10.2786   -8.6730    0.0000 O   0  0  0  0  0  0  0  0  0  0  0  0
   10.6485  -10.0532    0.0000 C   0  0  2  0  0  0  0  0  0  0  0  0
   11.4453   -9.8397    0.0000 O   0  0  0  0  0  0  0  0  0  0  0  0
   10.4349  -10.8501    0.0000 C   0  0  1  0  0  0  0  0  0  0  0  0
   11.0183  -11.4335    0.0000 O   0  0  0  0  0  0  0  0  0  0  0  0
    9.6380  -11.0637    0.0000 C   0  0  1  0  0  0  0  0  0  0  0  0
    9.0547  -10.4803    0.0000 O   0  0  0  0  0  0  0  0  0  0  0  0
    9.4245  -11.8605    0.0000 C   0  0  0  0  0  0  0  0  0  0  0  0
  1  2  2  0  0  0  0
  2  3  1  0  0  0  0
  3  4  2  0  0  0  0
  3  5  1  0  0  0  0
  5  6  1  0  0  0  0
  6  7  1  0  0  0  0
  6  8  2  0  0  0  0
  8  9  1  0  0  0  0
  9 10  1  0  0  0  0
  9 11  2  0  0  0  0
 11 12  1  0  0  0  0
  5 12  2  0  0  0  0
 12 13  1  0  0  0  0
  1 13  1  0  0  0  0
  1 14  1  0  0  0  0
 14 15  1  0  0  0  0
 15 16  2  0  0  0  0
 16 17  1  0  0  0  0
 17 18  1  0  0  0  0
 17 19  2  0  0  0  0
 19 20  1  0  0  0  0
 14 20  2  0  0  0  0
 22 21  1  1  0  0  0
 22 23  1  0  0  0  0
 23 24  1  6  0  0  0
 23 25  1  0  0  0  0
 25 26  1  1  0  0  0
 25 27  1  0  0  0  0
 27 28  1  0  0  0  0
 27 29  1  1  0  0  0
 29 30  1  0  0  0  0
 22 28  1  0  0  0  0
 31 32  1  0  0  0  0
 32 33  1  6  0  0  0
 32 34  1  0  0  0  0
 34 35  1  6  0  0  0
 34 36  1  0  0  0  0
 36 37  1  1  0  0  0
 36 38  1  0  0  0  0
 38 39  1  0  0  0  0
 38 40  1  6  0  0  0
 31 39  1  0  0  0  0
 31 24  1  1  0  0  0
  2 21  1  0  0  0  0
M  END
>  <cdx:fragmentId>
5

$$$$
