97856.cdx
  Mrv1902 05222410212D          

 16 18  0  0  0  0            999 V2000
   10.0405   -7.9165    0.0000 C   0  0  0  0  0  0  0  0  0  0  0  0
    8.6401  -10.4077    0.0000 C   0  0  0  0  0  0  0  0  0  0  0  0
    7.9304  -10.8284    0.0000 C   0  0  0  0  0  0  0  0  0  0  0  0
    5.0538   -9.2112    0.0000 C   0  0  0  0  0  0  0  0  0  0  0  0
    5.0443   -8.3863    0.0000 C   0  0  0  0  0  0  0  0  0  0  0  0
    9.3308   -8.3372    0.0000 O   0  0  0  0  0  0  0  0  0  0  0  0
    8.6022   -7.1079    0.0000 O   0  0  0  0  0  0  0  0  0  0  0  0
    8.6117   -7.9329    0.0000 C   0  0  0  0  0  0  0  0  0  0  0  0
    5.7635   -8.7906    0.0000 C   0  0  0  0  0  0  0  0  0  0  0  0
    6.4732   -8.3699    0.0000 C   0  0  0  0  0  0  0  0  0  0  0  0
    7.1829   -7.9493    0.0000 C   0  0  0  0  0  0  0  0  0  0  0  0
    7.9020   -8.3535    0.0000 C   0  0  0  0  0  0  0  0  0  0  0  0
    7.9115   -9.1785    0.0000 C   0  0  0  0  0  0  0  0  0  0  0  0
    7.9209  -10.0034    0.0000 C   0  0  0  0  0  0  0  0  0  0  0  0
    7.2018   -9.5992    0.0000 C   0  0  0  0  0  0  0  0  0  0  0  0
    6.4826   -9.1949    0.0000 C   0  0  0  0  0  0  0  0  0  0  0  0
  6  1  1  0  0  0  0
 14  2  1  0  0  0  0
 14  3  1  0  0  0  0
  9  4  1  0  0  0  0
  9  5  1  0  0  0  0
 12  8  1  0  0  0  0
  8  6  1  0  0  0  0
  8  7  2  0  0  0  0
 15 13  1  0  0  0  0
 16 10  1  0  0  0  0
 16  9  1  0  0  0  0
 10  9  1  0  0  0  0
 11 10  1  0  0  0  0
 12 11  1  0  0  0  0
 13 12  1  0  0  0  0
 14 13  1  0  0  0  0
 15 14  1  0  0  0  0
 16 15  1  0  0  0  0
M  END
>  <cdx:fragmentId>
5

$$$$
