97851	.cdx
  Mrv1902 05222410222D          

 59 66  0  0  0  0            999 V2000
   14.3876  -10.6851    0.0000 C   0  0  1  0  0  0  0  0  0  0  0  0
   15.1021  -10.2726    0.0000 C   0  0  2  0  0  0  0  0  0  0  0  0
   15.8867  -10.5275    0.0000 C   0  0  0  0  0  0  0  0  0  0  0  0
   16.3716   -9.8601    0.0000 C   0  0  2  0  0  0  0  0  0  0  0  0
   17.1563   -9.6052    0.0000 O   0  0  0  0  0  0  0  0  0  0  0  0
   17.1563   -8.7802    0.0000 C   0  0  2  0  0  0  0  0  0  0  0  0
   16.3716   -8.5252    0.0000 C   0  0  2  0  0  0  0  0  0  0  0  0
   15.8867   -9.1927    0.0000 C   0  0  2  0  0  0  0  0  0  0  0  0
   15.1021   -9.4476    0.0000 C   0  0  1  0  0  0  0  0  0  0  0  0
   14.3876   -9.0351    0.0000 C   0  0  0  0  0  0  0  0  0  0  0  0
   13.6732   -9.4476    0.0000 C   0  0  0  0  0  0  0  0  0  0  0  0
   13.6732  -10.2726    0.0000 C   0  0  2  0  0  0  0  0  0  0  0  0
   12.9587  -10.6851    0.0000 C   0  0  1  0  0  0  0  0  0  0  0  0
   12.2442  -10.2726    0.0000 C   0  0  0  0  0  0  0  0  0  0  0  0
   11.5297  -10.6851    0.0000 C   0  0  0  0  0  0  0  0  0  0  0  0
   11.5297  -11.5101    0.0000 C   0  0  1  0  0  0  0  0  0  0  0  0
   12.2442  -11.9226    0.0000 C   0  0  0  0  0  0  0  0  0  0  0  0
   12.9587  -11.5101    0.0000 C   0  0  2  0  0  0  0  0  0  0  0  0
   13.6732  -11.9226    0.0000 C   0  0  0  0  0  0  0  0  0  0  0  0
   14.3876  -11.5101    0.0000 C   0  0  0  0  0  0  0  0  0  0  0  0
   17.0700   -7.9597    0.0000 O   0  0  0  0  0  0  0  0  0  0  0  0
   17.9099   -9.1157    0.0000 C   0  0  0  0  0  0  0  0  0  0  0  0
   18.5774   -8.6308    0.0000 C   0  0  0  0  0  0  0  0  0  0  0  0
   18.4911   -7.8103    0.0000 C   0  0  1  0  0  0  0  0  0  0  0  0
   17.7375   -7.4748    0.0000 C   0  0  0  0  0  0  0  0  0  0  0  0
   14.3876   -8.2101    0.0000 O   0  0  0  0  0  0  0  0  0  0  0  0
   12.9587   -9.8601    0.0000 C   0  0  0  0  0  0  0  0  0  0  0  0
   15.1021   -8.6226    0.0000 C   0  0  0  0  0  0  0  0  0  0  0  0
   16.1167   -7.7406    0.0000 C   0  0  0  0  0  0  0  0  0  0  0  0
   19.1586   -7.3254    0.0000 C   0  0  0  0  0  0  0  0  0  0  0  0
   16.8566  -10.5275    0.0000 C   0  0  0  0  0  0  0  0  0  0  0  0
   10.8153  -11.9226    0.0000 O   0  0  0  0  0  0  0  0  0  0  0  0
   14.3876   -9.8601    0.0000 H   0  0  0  0  0  0  0  0  0  0  0  0
   15.1021  -11.0976    0.0000 H   0  0  0  0  0  0  0  0  0  0  0  0
   15.5251   -8.4512    0.0000 H   0  0  0  0  0  0  0  0  0  0  0  0
   13.6732  -11.0976    0.0000 H   0  0  0  0  0  0  0  0  0  0  0  0
   12.9587  -12.3351    0.0000 H   0  0  0  0  0  0  0  0  0  0  0  0
   10.1008  -11.5101    0.0000 C   0  0  2  0  0  0  0  0  0  0  0  0
   10.1008  -10.6851    0.0000 O   0  0  0  0  0  0  0  0  0  0  0  0
    9.3863  -10.2726    0.0000 C   0  0  1  0  0  0  0  0  0  0  0  0
    8.6719  -10.6851    0.0000 C   0  0  1  0  0  0  0  0  0  0  0  0
    8.6719  -11.5101    0.0000 C   0  0  1  0  0  0  0  0  0  0  0  0
    9.3863  -11.9226    0.0000 C   0  0  1  0  0  0  0  0  0  0  0  0
    9.3863   -9.4476    0.0000 C   0  0  0  0  0  0  0  0  0  0  0  0
    7.9574  -11.9226    0.0000 O   0  0  0  0  0  0  0  0  0  0  0  0
    9.3863  -12.7476    0.0000 O   0  0  0  0  0  0  0  0  0  0  0  0
    7.9574  -10.2726    0.0000 O   0  0  0  0  0  0  0  0  0  0  0  0
   10.1008   -9.0351    0.0000 O   0  0  0  0  0  0  0  0  0  0  0  0
    7.9456   -9.4477    0.0000 C   0  0  2  0  0  0  0  0  0  0  0  0
    8.6541   -9.0250    0.0000 O   0  0  0  0  0  0  0  0  0  0  0  0
    8.6422   -8.2001    0.0000 C   0  0  1  0  0  0  0  0  0  0  0  0
    7.9219   -7.7979    0.0000 C   0  0  2  0  0  0  0  0  0  0  0  0
    7.2134   -8.2205    0.0000 C   0  0  1  0  0  0  0  0  0  0  0  0
    7.2253   -9.0455    0.0000 C   0  0  1  0  0  0  0  0  0  0  0  0
    9.3507   -7.7774    0.0000 C   0  0  0  0  0  0  0  0  0  0  0  0
    6.4931   -7.8183    0.0000 O   0  0  0  0  0  0  0  0  0  0  0  0
    7.9101   -6.9729    0.0000 O   0  0  0  0  0  0  0  0  0  0  0  0
    6.5168   -9.4682    0.0000 O   0  0  0  0  0  0  0  0  0  0  0  0
    9.3389   -6.9525    0.0000 O   0  0  0  0  0  0  0  0  0  0  0  0
  1  2  1  0  0  0  0
  2  3  1  0  0  0  0
  3  4  1  0  0  0  0
  4  5  1  0  0  0  0
  6  5  1  6  0  0  0
  6  7  1  0  0  0  0
  7  8  1  0  0  0  0
  8  9  1  0  0  0  0
  9 10  1  0  0  0  0
 10 11  1  0  0  0  0
 11 12  1  0  0  0  0
 12 13  1  0  0  0  0
 13 14  1  0  0  0  0
 14 15  1  0  0  0  0
 15 16  1  0  0  0  0
 16 17  1  0  0  0  0
 17 18  1  0  0  0  0
 18 19  1  0  0  0  0
 19 20  1  0  0  0  0
  1 20  1  0  0  0  0
  1 12  1  0  0  0  0
 13 18  1  0  0  0  0
  2  9  1  0  0  0  0
  4  8  1  0  0  0  0
 22 23  1  0  0  0  0
 23 24  1  0  0  0  0
 24 25  1  0  0  0  0
 21 25  1  0  0  0  0
  6 21  1  0  0  0  0
  6 22  1  0  0  0  0
 10 26  2  0  0  0  0
 13 27  1  1  0  0  0
  9 28  1  1  0  0  0
  7 29  1  6  0  0  0
 24 30  1  1  0  0  0
  4 31  1  6  0  0  0
 16 32  1  1  0  0  0
  1 33  1  1  0  0  0
  2 34  1  6  0  0  0
  8 35  1  6  0  0  0
 12 36  1  6  0  0  0
 18 37  1  6  0  0  0
 38 32  1  1  0  0  0
 38 39  1  0  0  0  0
 39 40  1  0  0  0  0
 40 41  1  0  0  0  0
 41 42  1  0  0  0  0
 42 43  1  0  0  0  0
 43 38  1  0  0  0  0
 40 44  1  1  0  0  0
 42 45  1  1  0  0  0
 43 46  1  6  0  0  0
 41 47  1  1  0  0  0
 44 48  1  0  0  0  0
 49 47  1  1  0  0  0
 49 50  1  0  0  0  0
 50 51  1  0  0  0  0
 51 52  1  0  0  0  0
 52 53  1  0  0  0  0
 53 54  1  0  0  0  0
 54 49  1  0  0  0  0
 51 55  1  1  0  0  0
 53 56  1  1  0  0  0
 52 57  1  6  0  0  0
 54 58  1  6  0  0  0
 55 59  1  0  0  0  0
M  END
>  <cdx:groupId>
211880

>  <cdx:fragmentId>
211767

$$$$
