97867.cdx
  Mrv1902 05222410252D          

 37 39  0  0  0  0            999 V2000
    3.6762   -4.1250    0.0000 C   0  0  0  0  0  0  0  0  0  0  0  0
    3.6762   -4.9500    0.0000 C   0  0  0  0  0  0  0  0  0  0  0  0
    4.3906   -5.3625    0.0000 C   0  0  0  0  0  0  0  0  0  0  0  0
    5.1051   -4.9500    0.0000 C   0  0  0  0  0  0  0  0  0  0  0  0
    5.1051   -4.1250    0.0000 C   0  0  0  0  0  0  0  0  0  0  0  0
    4.3906   -3.7125    0.0000 C   0  0  0  0  0  0  0  0  0  0  0  0
    5.8196   -3.7125    0.0000 C   0  0  0  0  0  0  0  0  0  0  0  0
    6.5341   -4.1250    0.0000 C   0  0  0  0  0  0  0  0  0  0  0  0
    5.8196   -2.8875    0.0000 C   0  0  0  0  0  0  0  0  0  0  0  0
    6.5341   -2.4750    0.0000 O   0  0  0  0  0  0  0  0  0  0  0  0
    6.5341   -4.9500    0.0000 C   0  0  0  0  0  0  0  0  0  0  0  0
    7.2485   -5.3625    0.0000 C   0  0  1  0  0  0  0  0  0  0  0  0
    7.2485   -6.1875    0.0000 C   0  0  2  0  0  0  0  0  0  0  0  0
    7.9630   -4.9500    0.0000 C   0  0  0  0  0  0  0  0  0  0  0  0
    8.6775   -5.3625    0.0000 C   0  0  0  0  0  0  0  0  0  0  0  0
    7.9630   -4.1250    0.0000 C   0  0  0  0  0  0  0  0  0  0  0  0
    8.6775   -3.7125    0.0000 O   0  0  0  0  0  0  0  0  0  0  0  0
    7.2485   -3.7125    0.0000 O   0  0  0  0  0  0  0  0  0  0  0  0
    9.3919   -4.1250    0.0000 C   0  0  0  0  0  0  0  0  0  0  0  0
    8.6775   -6.1875    0.0000 O   0  0  0  0  0  0  0  0  0  0  0  0
    7.9630   -6.6000    0.0000 C   0  0  1  0  0  0  0  0  0  0  0  0
    7.9630   -7.4250    0.0000 O   0  0  0  0  0  0  0  0  0  0  0  0
    7.2485   -7.8375    0.0000 C   0  0  2  0  0  0  0  0  0  0  0  0
    6.5341   -7.4250    0.0000 O   0  0  0  0  0  0  0  0  0  0  0  0
    5.8196   -7.8375    0.0000 C   0  0  1  0  0  0  0  0  0  0  0  0
    5.8196   -8.6625    0.0000 C   0  0  2  0  0  0  0  0  0  0  0  0
    6.5341   -9.0750    0.0000 C   0  0  1  0  0  0  0  0  0  0  0  0
    7.2485   -8.6625    0.0000 C   0  0  1  0  0  0  0  0  0  0  0  0
    7.2485   -4.5375    0.0000 H   0  0  0  0  0  0  0  0  0  0  0  0
    7.2485   -7.0125    0.0000 H   0  0  0  0  0  0  0  0  0  0  0  0
    5.1051   -7.4250    0.0000 C   0  0  0  0  0  0  0  0  0  0  0  0
    6.5341   -9.9000    0.0000 O   0  0  0  0  0  0  0  0  0  0  0  0
    5.1051   -9.0750    0.0000 O   0  0  0  0  0  0  0  0  0  0  0  0
    7.9630   -9.0750    0.0000 O   0  0  0  0  0  0  0  0  0  0  0  0
    4.3906   -7.8375    0.0000 O   0  0  0  0  0  0  0  0  0  0  0  0
    6.5341   -6.6000    0.0000 C   0  0  0  0  0  0  0  0  0  0  0  0
    5.8196   -6.1875    0.0000 C   0  0  0  0  0  0  0  0  0  0  0  0
  1  2  2  0  0  0  0
  2  3  1  0  0  0  0
  3  4  2  0  0  0  0
  4  5  1  0  0  0  0
  5  6  2  0  0  0  0
  6  1  1  0  0  0  0
  5  7  1  0  0  0  0
  7  8  2  0  0  0  0
  7  9  1  0  0  0  0
  9 10  2  0  0  0  0
  8 11  1  0  0  0  0
 11 12  1  0  0  0  0
 12 13  1  0  0  0  0
 12 14  1  0  0  0  0
 14 15  2  0  0  0  0
 14 16  1  0  0  0  0
 16 17  1  0  0  0  0
 16 18  2  0  0  0  0
 17 19  1  0  0  0  0
 15 20  1  0  0  0  0
 13 21  1  0  0  0  0
 21 20  1  0  0  0  0
 21 22  1  1  0  0  0
 23 22  1  1  0  0  0
 23 24  1  0  0  0  0
 24 25  1  0  0  0  0
 25 26  1  0  0  0  0
 26 27  1  0  0  0  0
 27 28  1  0  0  0  0
 28 23  1  0  0  0  0
 12 29  1  1  0  0  0
 13 30  1  1  0  0  0
 25 31  1  1  0  0  0
 27 32  1  1  0  0  0
 26 33  1  6  0  0  0
 28 34  1  6  0  0  0
 31 35  1  0  0  0  0
 13 36  1  0  0  0  0
 36 37  2  0  0  0  0
M  END
>  <cdx:fragmentId>
5

$$$$
