978650.cdx
  Mrv1902 05222410212D          

 29 31  0  0  0  0            999 V2000
   10.4118   -4.8975    0.0000 C   0  0  0  0  0  0  0  0  0  0  0  0
   10.9951   -5.4808    0.0000 C   0  0  0  0  0  0  0  0  0  0  0  0
   10.6253   -4.1006    0.0000 O   0  0  0  0  0  0  0  0  0  0  0  0
    9.6272   -5.1524    0.0000 O   0  0  0  0  0  0  0  0  0  0  0  0
    7.5150   -4.7579    0.0000 C   0  0  1  0  0  0  0  0  0  0  0  0
    8.2294   -4.3454    0.0000 C   0  0  1  0  0  0  0  0  0  0  0  0
    8.2294   -3.5204    0.0000 C   0  0  1  0  0  0  0  0  0  0  0  0
    7.5150   -3.1079    0.0000 C   0  0  0  0  0  0  0  0  0  0  0  0
    6.8005   -3.5204    0.0000 C   0  0  0  0  0  0  0  0  0  0  0  0
    6.8005   -4.3454    0.0000 O   0  0  0  0  0  0  0  0  0  0  0  0
    9.0141   -3.2655    0.0000 C   0  0  1  0  0  0  0  0  0  0  0  0
    9.4990   -3.9329    0.0000 C   0  0  0  0  0  0  0  0  0  0  0  0
    9.0141   -4.6004    0.0000 C   0  0  2  0  0  0  0  0  0  0  0  0
    7.5150   -5.5829    0.0000 O   0  0  0  0  0  0  0  0  0  0  0  0
    6.0860   -5.5829    0.0000 O   0  0  0  0  0  0  0  0  0  0  0  0
    6.8005   -5.9954    0.0000 C   0  0  2  0  0  0  0  0  0  0  0  0
    6.8005   -6.8204    0.0000 C   0  0  1  0  0  0  0  0  0  0  0  0
    6.0860   -7.2329    0.0000 C   0  0  2  0  0  0  0  0  0  0  0  0
    5.3716   -6.8204    0.0000 C   0  0  1  0  0  0  0  0  0  0  0  0
    5.3716   -5.9954    0.0000 C   0  0  1  0  0  0  0  0  0  0  0  0
    4.6571   -5.5829    0.0000 C   0  0  0  0  0  0  0  0  0  0  0  0
    3.9426   -5.9954    0.0000 O   0  0  0  0  0  0  0  0  0  0  0  0
    4.6571   -7.2329    0.0000 O   0  0  0  0  0  0  0  0  0  0  0  0
    6.0860   -8.0579    0.0000 O   0  0  0  0  0  0  0  0  0  0  0  0
    7.5150   -7.2329    0.0000 O   0  0  0  0  0  0  0  0  0  0  0  0
    8.8425   -5.4073    0.0000 C   0  0  0  0  0  0  0  0  0  0  0  0
    9.2690   -2.4809    0.0000 O   0  0  0  0  0  0  0  0  0  0  0  0
    8.3157   -2.7000    0.0000 O   0  0  0  0  0  0  0  0  0  0  0  0
    8.3157   -5.1659    0.0000 H   0  0  0  0  0  0  0  0  0  0  0  0
  1  2  1  0  0  0  0
  1  3  2  0  0  0  0
  1  4  1  0  0  0  0
  5  6  1  0  0  0  0
  6  7  1  0  0  0  0
  7  8  1  0  0  0  0
  8  9  2  0  0  0  0
  9 10  1  0  0  0  0
  5 10  1  0  0  0  0
 11 12  1  0  0  0  0
 12 13  1  0  0  0  0
  6 13  1  0  0  0  0
  7 11  1  0  0  0  0
 15 16  1  0  0  0  0
 16 17  1  0  0  0  0
 17 18  1  0  0  0  0
 18 19  1  0  0  0  0
 19 20  1  0  0  0  0
 15 20  1  0  0  0  0
 21 22  1  0  0  0  0
 20 21  1  1  0  0  0
 19 23  1  6  0  0  0
 18 24  1  1  0  0  0
 17 25  1  6  0  0  0
 16 14  1  1  0  0  0
  5 14  1  6  0  0  0
 13 26  1  0  0  0  0
 11 27  1  6  0  0  0
  7 28  1  6  0  0  0
 13  4  1  6  0  0  0
  6 29  1  6  0  0  0
M  END
>  <cdx:fragmentId>
15995

$$$$
