97865.cdx
  Mrv1902 05222410252D          

 41 45  0  0  0  0            999 V2000
   10.0535   -9.2897    0.0000 C   0  0  0  0  0  0  0  0  0  0  0  0
   10.0535  -10.1147    0.0000 C   0  0  0  0  0  0  0  0  0  0  0  0
    9.3391  -10.5272    0.0000 C   0  0  0  0  0  0  0  0  0  0  0  0
    9.3391  -11.3522    0.0000 O   0  0  0  0  0  0  0  0  0  0  0  0
    8.6246  -10.1147    0.0000 C   0  0  0  0  0  0  0  0  0  0  0  0
    7.9101  -10.5272    0.0000 C   0  0  0  0  0  0  0  0  0  0  0  0
    7.1956  -10.1147    0.0000 C   0  0  0  0  0  0  0  0  0  0  0  0
    7.1956   -9.2897    0.0000 C   0  0  0  0  0  0  0  0  0  0  0  0
    7.9101   -8.8772    0.0000 C   0  0  0  0  0  0  0  0  0  0  0  0
    8.6246   -9.2897    0.0000 C   0  0  0  0  0  0  0  0  0  0  0  0
    9.3391   -8.8772    0.0000 O   0  0  0  0  0  0  0  0  0  0  0  0
   10.7680  -10.5272    0.0000 C   0  0  0  0  0  0  0  0  0  0  0  0
   11.4825  -10.1147    0.0000 C   0  0  0  0  0  0  0  0  0  0  0  0
   12.1969  -10.5272    0.0000 C   0  0  0  0  0  0  0  0  0  0  0  0
   12.1969  -11.3522    0.0000 C   0  0  0  0  0  0  0  0  0  0  0  0
   11.4825  -11.7647    0.0000 C   0  0  0  0  0  0  0  0  0  0  0  0
   10.7680  -11.3522    0.0000 C   0  0  0  0  0  0  0  0  0  0  0  0
    6.4812  -10.5272    0.0000 O   0  0  0  0  0  0  0  0  0  0  0  0
    5.7667  -10.1147    0.0000 C   0  0  0  0  0  0  0  0  0  0  0  0
   12.9114  -11.7647    0.0000 O   0  0  0  0  0  0  0  0  0  0  0  0
    8.6092   -6.7988    0.0000 O   0  0  0  0  0  0  0  0  0  0  0  0
    9.3180   -6.3767    0.0000 C   0  0  1  0  0  0  0  0  0  0  0  0
    9.3068   -5.5517    0.0000 C   0  0  2  0  0  0  0  0  0  0  0  0
    8.5868   -5.1490    0.0000 O   0  0  0  0  0  0  0  0  0  0  0  0
   10.0156   -5.1296    0.0000 C   0  0  1  0  0  0  0  0  0  0  0  0
   10.0044   -4.3047    0.0000 O   0  0  0  0  0  0  0  0  0  0  0  0
   10.7356   -5.5323    0.0000 C   0  0  2  0  0  0  0  0  0  0  0  0
   11.4444   -5.1102    0.0000 O   0  0  0  0  0  0  0  0  0  0  0  0
   10.7468   -6.3573    0.0000 C   0  0  0  0  0  0  0  0  0  0  0  0
   10.0380   -6.7794    0.0000 O   0  0  0  0  0  0  0  0  0  0  0  0
    7.8917   -6.3917    0.0000 C   0  0  0  0  0  0  0  0  0  0  0  0
    7.1864   -7.6344    0.0000 O   0  0  0  0  0  0  0  0  0  0  0  0
    7.1803   -6.8095    0.0000 C   0  0  1  0  0  0  0  0  0  0  0  0
    6.4566   -5.5773    0.0000 O   0  0  0  0  0  0  0  0  0  0  0  0
    6.4628   -6.4023    0.0000 C   0  0  1  0  0  0  0  0  0  0  0  0
    5.0339   -6.4129    0.0000 O   0  0  0  0  0  0  0  0  0  0  0  0
    5.7514   -6.8201    0.0000 C   0  0  2  0  0  0  0  0  0  0  0  0
    5.0461   -8.0629    0.0000 O   0  0  0  0  0  0  0  0  0  0  0  0
    5.7575   -7.6451    0.0000 C   0  0  1  0  0  0  0  0  0  0  0  0
    6.4750   -8.0523    0.0000 C   0  0  2  0  0  0  0  0  0  0  0  0
    6.4812   -8.8772    0.0000 O   0  0  0  0  0  0  0  0  0  0  0  0
 40 32  1  0  0  0  0
 31 21  1  0  0  0  0
 33 31  1  1  0  0  0
 33 32  1  0  0  0  0
 35 33  1  0  0  0  0
 35 34  1  6  0  0  0
 37 35  1  0  0  0  0
 37 36  1  1  0  0  0
 39 37  1  0  0  0  0
 39 38  1  6  0  0  0
 40 39  1  0  0  0  0
  1  2  2  0  0  0  0
  2  3  1  0  0  0  0
  3  4  2  0  0  0  0
  3  5  1  0  0  0  0
  5  6  1  0  0  0  0
  6  7  2  0  0  0  0
  7  8  1  0  0  0  0
  8  9  2  0  0  0  0
  9 10  1  0  0  0  0
  5 10  2  0  0  0  0
 10 11  1  0  0  0  0
  1 11  1  0  0  0  0
  2 12  1  0  0  0  0
 12 13  1  0  0  0  0
 13 14  2  0  0  0  0
 14 15  1  0  0  0  0
 15 16  2  0  0  0  0
 16 17  1  0  0  0  0
 12 17  2  0  0  0  0
 18 19  1  0  0  0  0
  7 18  1  0  0  0  0
 15 20  1  0  0  0  0
 40 41  1  1  0  0  0
 22 23  1  0  0  0  0
 23 24  1  6  0  0  0
 23 25  1  0  0  0  0
 25 26  1  1  0  0  0
 25 27  1  0  0  0  0
 27 28  1  6  0  0  0
 27 29  1  0  0  0  0
 29 30  1  0  0  0  0
 22 30  1  0  0  0  0
 22 21  1  1  0  0  0
  8 41  1  0  0  0  0
M  END
>  <cdx:fragmentId>
43

$$$$
