97869.cdx
  Mrv1902 05222410212D          

 35 36  0  0  0  0            999 V2000
    5.1051   -4.1250    0.0000 C   0  0  0  0  0  0  0  0  0  0  0  0
    5.8196   -3.7125    0.0000 C   0  0  0  0  0  0  0  0  0  0  0  0
    6.5341   -4.1250    0.0000 C   0  0  0  0  0  0  0  0  0  0  0  0
    5.8196   -2.8875    0.0000 C   0  0  0  0  0  0  0  0  0  0  0  0
    6.5341   -2.4750    0.0000 O   0  0  0  0  0  0  0  0  0  0  0  0
    6.5341   -4.9500    0.0000 C   0  0  0  0  0  0  0  0  0  0  0  0
    7.2485   -5.3625    0.0000 C   0  0  1  0  0  0  0  0  0  0  0  0
    7.2485   -6.1875    0.0000 C   0  0  2  0  0  0  0  0  0  0  0  0
    7.9630   -4.9500    0.0000 C   0  0  0  0  0  0  0  0  0  0  0  0
    8.6775   -5.3625    0.0000 C   0  0  0  0  0  0  0  0  0  0  0  0
    7.9630   -4.1250    0.0000 C   0  0  0  0  0  0  0  0  0  0  0  0
    8.6775   -3.7125    0.0000 O   0  0  0  0  0  0  0  0  0  0  0  0
    7.2485   -3.7125    0.0000 O   0  0  0  0  0  0  0  0  0  0  0  0
    8.6775   -2.8875    0.0000 C   0  0  0  0  0  0  0  0  0  0  0  0
    8.6775   -6.1875    0.0000 O   0  0  0  0  0  0  0  0  0  0  0  0
    7.9630   -6.6000    0.0000 C   0  0  1  0  0  0  0  0  0  0  0  0
    7.9630   -7.4250    0.0000 O   0  0  0  0  0  0  0  0  0  0  0  0
    7.2485   -7.8375    0.0000 C   0  0  2  0  0  0  0  0  0  0  0  0
    6.5341   -7.4250    0.0000 O   0  0  0  0  0  0  0  0  0  0  0  0
    5.8196   -7.8375    0.0000 C   0  0  1  0  0  0  0  0  0  0  0  0
    5.8196   -8.6625    0.0000 C   0  0  2  0  0  0  0  0  0  0  0  0
    6.5341   -9.0750    0.0000 C   0  0  1  0  0  0  0  0  0  0  0  0
    7.2485   -8.6625    0.0000 C   0  0  1  0  0  0  0  0  0  0  0  0
    7.2485   -4.5375    0.0000 H   0  0  0  0  0  0  0  0  0  0  0  0
    7.2485   -7.0125    0.0000 H   0  0  0  0  0  0  0  0  0  0  0  0
    5.1051   -7.4250    0.0000 C   0  0  0  0  0  0  0  0  0  0  0  0
    6.5341   -9.9000    0.0000 O   0  0  0  0  0  0  0  0  0  0  0  0
    5.1051   -9.0750    0.0000 O   0  0  0  0  0  0  0  0  0  0  0  0
    7.9630   -9.0750    0.0000 O   0  0  0  0  0  0  0  0  0  0  0  0
    4.3906   -7.8375    0.0000 O   0  0  0  0  0  0  0  0  0  0  0  0
    6.5341   -6.6000    0.0000 C   0  0  0  0  0  0  0  0  0  0  0  0
    5.8196   -6.1875    0.0000 C   0  0  0  0  0  0  0  0  0  0  0  0
    4.3906   -3.7125    0.0000 C   0  0  0  0  0  0  0  0  0  0  0  0
    4.3906   -2.8875    0.0000 C   0  0  0  0  0  0  0  0  0  0  0  0
    3.6762   -2.4750    0.0000 C   0  0  0  0  0  0  0  0  0  0  0  0
  1  2  1  0  0  0  0
  2  3  2  0  0  0  0
  2  4  1  0  0  0  0
  4  5  2  0  0  0  0
  3  6  1  0  0  0  0
  6  7  1  0  0  0  0
  7  8  1  0  0  0  0
  7  9  1  0  0  0  0
  9 10  2  0  0  0  0
  9 11  1  0  0  0  0
 11 12  1  0  0  0  0
 11 13  2  0  0  0  0
 12 14  1  0  0  0  0
 10 15  1  0  0  0  0
  8 16  1  0  0  0  0
 16 15  1  0  0  0  0
 16 17  1  1  0  0  0
 18 17  1  1  0  0  0
 18 19  1  0  0  0  0
 19 20  1  0  0  0  0
 20 21  1  0  0  0  0
 21 22  1  0  0  0  0
 22 23  1  0  0  0  0
 23 18  1  0  0  0  0
  7 24  1  1  0  0  0
  8 25  1  1  0  0  0
 20 26  1  1  0  0  0
 22 27  1  1  0  0  0
 21 28  1  6  0  0  0
 23 29  1  6  0  0  0
 26 30  1  0  0  0  0
  8 31  1  0  0  0  0
 31 32  2  0  0  0  0
  1 33  2  0  0  0  0
 33 34  1  0  0  0  0
 34 35  1  0  0  0  0
M  END
>  <cdx:fragmentId>
5

$$$$
