97862.cdx
  Mrv1902 05222410232D          

 52 57  0  0  0  0            999 V2000
    8.0720   -6.6492    0.0000 C   0  0  0  0  0  0  0  0  0  0  0  0
    8.0720   -7.4742    0.0000 C   0  0  0  0  0  0  0  0  0  0  0  0
    7.3576   -7.8867    0.0000 C   0  0  0  0  0  0  0  0  0  0  0  0
    7.3576   -8.7117    0.0000 O   0  0  0  0  0  0  0  0  0  0  0  0
    6.6431   -7.4742    0.0000 C   0  0  0  0  0  0  0  0  0  0  0  0
    5.9286   -7.8867    0.0000 C   0  0  0  0  0  0  0  0  0  0  0  0
    5.9286   -8.7117    0.0000 O   0  0  0  0  0  0  0  0  0  0  0  0
    5.2142   -7.4742    0.0000 C   0  0  0  0  0  0  0  0  0  0  0  0
    5.2142   -6.6492    0.0000 C   0  0  0  0  0  0  0  0  0  0  0  0
    4.4997   -6.2367    0.0000 O   0  0  0  0  0  0  0  0  0  0  0  0
    5.9286   -6.2367    0.0000 C   0  0  0  0  0  0  0  0  0  0  0  0
    6.6431   -6.6492    0.0000 C   0  0  0  0  0  0  0  0  0  0  0  0
    7.3576   -6.2367    0.0000 O   0  0  0  0  0  0  0  0  0  0  0  0
    8.7865   -6.2367    0.0000 C   0  0  0  0  0  0  0  0  0  0  0  0
    8.7865   -5.4117    0.0000 C   0  0  0  0  0  0  0  0  0  0  0  0
    9.5010   -4.9992    0.0000 C   0  0  0  0  0  0  0  0  0  0  0  0
   10.2155   -5.4117    0.0000 C   0  0  0  0  0  0  0  0  0  0  0  0
   10.9299   -4.9992    0.0000 O   0  0  0  0  0  0  0  0  0  0  0  0
   10.2155   -6.2367    0.0000 C   0  0  0  0  0  0  0  0  0  0  0  0
    9.5010   -6.6492    0.0000 C   0  0  0  0  0  0  0  0  0  0  0  0
    8.7865   -7.8867    0.0000 O   0  0  0  0  0  0  0  0  0  0  0  0
    8.7865   -8.7117    0.0000 C   0  0  1  0  0  0  0  0  0  0  0  0
    9.5010   -9.1242    0.0000 C   0  0  2  0  0  0  0  0  0  0  0  0
   10.2155   -8.7117    0.0000 O   0  0  0  0  0  0  0  0  0  0  0  0
    9.5010   -9.9492    0.0000 C   0  0  1  0  0  0  0  0  0  0  0  0
   10.2155  -10.3617    0.0000 O   0  0  0  0  0  0  0  0  0  0  0  0
    8.7865  -10.3617    0.0000 C   0  0  2  0  0  0  0  0  0  0  0  0
    8.7865  -11.1867    0.0000 O   0  0  0  0  0  0  0  0  0  0  0  0
    8.0720   -9.9492    0.0000 C   0  0  2  0  0  0  0  0  0  0  0  0
    8.0720   -9.1242    0.0000 O   0  0  0  0  0  0  0  0  0  0  0  0
    7.3576  -10.3617    0.0000 C   0  0  0  0  0  0  0  0  0  0  0  0
    7.3576  -11.1867    0.0000 O   0  0  0  0  0  0  0  0  0  0  0  0
    6.6431  -11.5992    0.0000 C   0  0  0  0  0  0  0  0  0  0  0  0
    6.6431  -12.4242    0.0000 O   0  0  0  0  0  0  0  0  0  0  0  0
    5.9286  -11.1867    0.0000 C   0  0  0  0  0  0  0  0  0  0  0  0
    5.9286  -10.3617    0.0000 C   0  0  0  0  0  0  0  0  0  0  0  0
    5.2142   -9.9492    0.0000 C   0  0  0  0  0  0  0  0  0  0  0  0
    4.4997  -10.3617    0.0000 C   0  0  0  0  0  0  0  0  0  0  0  0
    4.4997  -11.1867    0.0000 C   0  0  0  0  0  0  0  0  0  0  0  0
    5.2142  -11.5992    0.0000 C   0  0  0  0  0  0  0  0  0  0  0  0
    3.7852   -9.9492    0.0000 O   0  0  0  0  0  0  0  0  0  0  0  0
    3.7852   -6.6492    0.0000 C   0  0  0  0  0  0  0  0  0  0  0  0
    3.0708   -6.2367    0.0000 O   0  0  0  0  0  0  0  0  0  0  0  0
    2.3563   -6.6492    0.0000 C   0  0  0  0  0  0  0  0  0  0  0  0
    2.3563   -7.4742    0.0000 C   0  0  0  0  0  0  0  0  0  0  0  0
    3.0708   -7.8867    0.0000 C   0  0  0  0  0  0  0  0  0  0  0  0
    3.7852   -7.4742    0.0000 C   0  0  0  0  0  0  0  0  0  0  0  0
    1.6418   -6.2367    0.0000 C   0  0  0  0  0  0  0  0  0  0  0  0
    0.9273   -6.6492    0.0000 O   0  0  0  0  0  0  0  0  0  0  0  0
    3.0708   -8.7117    0.0000 O   0  0  0  0  0  0  0  0  0  0  0  0
    4.4997   -7.8867    0.0000 O   0  0  0  0  0  0  0  0  0  0  0  0
    1.6418   -7.8867    0.0000 O   0  0  0  0  0  0  0  0  0  0  0  0
  1  2  2  0  0  0  0
  2  3  1  0  0  0  0
  3  4  2  0  0  0  0
  3  5  1  0  0  0  0
  5  6  1  0  0  0  0
  6  7  1  0  0  0  0
  6  8  2  0  0  0  0
  8  9  1  0  0  0  0
  9 10  1  0  0  0  0
  9 11  2  0  0  0  0
 11 12  1  0  0  0  0
  5 12  2  0  0  0  0
 12 13  1  0  0  0  0
  1 13  1  0  0  0  0
  1 14  1  0  0  0  0
 14 15  1  0  0  0  0
 15 16  2  0  0  0  0
 16 17  1  0  0  0  0
 17 18  1  0  0  0  0
 17 19  2  0  0  0  0
 19 20  1  0  0  0  0
 14 20  2  0  0  0  0
 22 21  1  1  0  0  0
 22 23  1  0  0  0  0
 23 24  1  6  0  0  0
 23 25  1  0  0  0  0
 25 26  1  1  0  0  0
 25 27  1  0  0  0  0
 27 28  1  6  0  0  0
 27 29  1  0  0  0  0
 29 30  1  0  0  0  0
 29 31  1  1  0  0  0
 31 32  1  0  0  0  0
 22 30  1  0  0  0  0
  2 21  1  0  0  0  0
 32 33  1  0  0  0  0
 33 34  2  0  0  0  0
 33 35  1  0  0  0  0
 35 36  2  0  0  0  0
 36 37  1  0  0  0  0
 37 38  2  0  0  0  0
 38 39  1  0  0  0  0
 39 40  2  0  0  0  0
 40 35  1  0  0  0  0
 38 41  1  0  0  0  0
 10 42  1  0  0  0  0
 42 43  1  0  0  0  0
 43 44  1  0  0  0  0
 44 45  1  0  0  0  0
 45 46  1  0  0  0  0
 46 47  1  0  0  0  0
 47 42  1  0  0  0  0
 44 48  1  0  0  0  0
 48 49  1  0  0  0  0
 46 50  1  0  0  0  0
 47 51  1  0  0  0  0
 45 52  1  0  0  0  0
M  END
>  <cdx:fragmentId>
775

$$$$
