97878.cdx
  Mrv1902 05222410222D          

 42 46  0  0  0  0            999 V2000
    4.8210   -5.2800    0.0000 C   0  0  0  0  0  0  0  0  0  0  0  0
    4.8210   -6.1050    0.0000 O   0  0  0  0  0  0  0  0  0  0  0  0
    6.3016   -6.1463    0.0000 O   0  0  0  0  0  0  0  0  0  0  0  0
    6.3016   -6.9712    0.0000 H   0  0  0  0  0  0  0  0  0  0  0  0
    6.3016   -9.4462    0.0000 H   0  0  0  0  0  0  0  0  0  0  0  0
    7.7580   -7.7929    0.0000 C   0  0  1  0  0  0  0  0  0  0  0  0
    7.0160   -7.3838    0.0000 C   0  0  0  0  0  0  0  0  0  0  0  0
    7.5140   -8.5809    0.0000 O   0  0  0  0  0  0  0  0  0  0  0  0
    8.1881   -9.0565    0.0000 C   0  0  0  0  0  0  0  0  0  0  0  0
    8.8536   -8.5690    0.0000 C   0  0  0  0  0  0  0  0  0  0  0  0
    8.5908   -7.7920    0.0000 C   0  0  2  0  0  0  0  0  0  0  0  0
    9.4157   -7.7840    0.0000 C   0  0  0  0  0  0  0  0  0  0  0  0
    9.6675   -7.0031    0.0000 N   0  0  0  0  0  0  0  0  0  0  0  0
    8.9954   -6.5248    0.0000 C   0  0  0  0  0  0  0  0  0  0  0  0
    8.3299   -7.0124    0.0000 C   0  0  0  0  0  0  0  0  0  0  0  0
    8.9059   -5.7047    0.0000 C   0  0  0  0  0  0  0  0  0  0  0  0
    8.1509   -5.3721    0.0000 C   0  0  0  0  0  0  0  0  0  0  0  0
    7.4854   -5.8597    0.0000 C   0  0  0  0  0  0  0  0  0  0  0  0
    7.5749   -6.6798    0.0000 C   0  0  0  0  0  0  0  0  0  0  0  0
    9.9046   -8.4485    0.0000 O   0  0  0  0  0  0  0  0  0  0  0  0
    7.0160   -9.0337    0.0000 C   0  0  0  0  0  0  0  0  0  0  0  0
    7.0160   -9.8587    0.0000 C   0  0  0  0  0  0  0  0  0  0  0  0
    4.8726   -7.7963    0.0000 C   0  0  0  0  0  0  0  0  0  0  0  0
    4.8726   -8.6212    0.0000 O   0  0  0  0  0  0  0  0  0  0  0  0
    5.5871   -9.0337    0.0000 C   0  0  2  0  0  0  0  0  0  0  0  0
    6.3016   -8.6212    0.0000 C   0  0  1  0  0  0  0  0  0  0  0  0
    5.5871   -6.5587    0.0000 C   0  0  0  0  0  0  0  0  0  0  0  0
    5.5871   -7.3838    0.0000 C   0  0  0  0  0  0  0  0  0  0  0  0
    6.3016   -7.7963    0.0000 C   0  0  1  0  0  0  0  0  0  0  0  0
    8.1955   -9.8815    0.0000 O   0  0  0  0  0  0  0  0  0  0  0  0
    5.5813   -9.8781    0.0000 O   0  0  0  0  0  0  0  0  0  0  0  0
    4.8577  -10.2743    0.0000 C   0  0  2  0  0  0  0  0  0  0  0  0
    4.1528   -9.8458    0.0000 O   0  0  0  0  0  0  0  0  0  0  0  0
    3.4291  -10.2420    0.0000 C   0  0  1  0  0  0  0  0  0  0  0  0
    3.4105  -11.0668    0.0000 C   0  0  2  0  0  0  0  0  0  0  0  0
    4.1154  -11.4953    0.0000 C   0  0  1  0  0  0  0  0  0  0  0  0
    4.8390  -11.0991    0.0000 C   0  0  1  0  0  0  0  0  0  0  0  0
    2.7242   -9.8134    0.0000 C   0  0  0  0  0  0  0  0  0  0  0  0
    4.0967  -12.3201    0.0000 O   0  0  0  0  0  0  0  0  0  0  0  0
    2.6868  -11.4630    0.0000 O   0  0  0  0  0  0  0  0  0  0  0  0
    5.5440  -11.5277    0.0000 O   0  0  0  0  0  0  0  0  0  0  0  0
    2.0006  -10.2096    0.0000 O   0  0  0  0  0  0  0  0  0  0  0  0
  2  1  1  0  0  0  0
 25 31  1  6  0  0  0
 27  2  1  0  0  0  0
 27  3  2  0  0  0  0
 29  4  1  6  0  0  0
 26  5  1  6  0  0  0
  6  8  1  0  0  0  0
  8  9  1  0  0  0  0
  9 10  1  0  0  0  0
 11 10  1  6  0  0  0
 11  6  1  0  0  0  0
 11 12  1  0  0  0  0
 12 13  1  0  0  0  0
 13 14  1  0  0  0  0
 14 15  2  0  0  0  0
 15 11  1  0  0  0  0
 14 16  1  0  0  0  0
 16 17  2  0  0  0  0
 17 18  1  0  0  0  0
 18 19  2  0  0  0  0
 19 15  1  0  0  0  0
 21 26  1  0  0  0  0
 22 21  2  0  0  0  0
 23 28  2  0  0  0  0
 24 23  1  0  0  0  0
 25 24  1  0  0  0  0
 26 25  1  0  0  0  0
 29 26  1  0  0  0  0
 28 27  1  0  0  0  0
 29 28  1  0  0  0  0
  7 29  1  0  0  0  0
 12 20  2  0  0  0  0
  9 30  2  0  0  0  0
 32 31  1  1  0  0  0
 32 33  1  0  0  0  0
 33 34  1  0  0  0  0
 34 35  1  0  0  0  0
 35 36  1  0  0  0  0
 36 37  1  0  0  0  0
 37 32  1  0  0  0  0
 34 38  1  1  0  0  0
 36 39  1  1  0  0  0
 35 40  1  6  0  0  0
 37 41  1  6  0  0  0
 38 42  1  0  0  0  0
  6  7  1  6  0  0  0
M  END
>  <cdx:fragmentId>
105

$$$$
