97872.cdx
  Mrv1902 05222410252D          

 33 34  0  0  0  0            999 V2000
    6.7840   -4.8950    0.0000 C   0  0  0  0  0  0  0  0  0  0  0  0
    8.2129   -9.0200    0.0000 H   0  0  0  0  0  0  0  0  0  0  0  0
    8.2129   -6.5450    0.0000 H   0  0  0  0  0  0  0  0  0  0  0  0
    8.2129   -5.7200    0.0000 O   0  0  0  0  0  0  0  0  0  0  0  0
    6.7840   -5.7200    0.0000 O   0  0  0  0  0  0  0  0  0  0  0  0
    8.9274   -6.9575    0.0000 C   0  0  0  0  0  0  0  0  0  0  0  0
    9.6418   -7.3700    0.0000 C   0  0  0  0  0  0  0  0  0  0  0  0
    7.4984   -6.1325    0.0000 C   0  0  0  0  0  0  0  0  0  0  0  0
   10.3563   -6.9575    0.0000 O   0  0  0  0  0  0  0  0  0  0  0  0
    9.6418   -8.1950    0.0000 O   0  0  0  0  0  0  0  0  0  0  0  0
    8.9274   -8.6075    0.0000 C   0  0  0  0  0  0  0  0  0  0  0  0
    8.9274   -9.4325    0.0000 C   0  0  0  0  0  0  0  0  0  0  0  0
    7.4984   -6.9575    0.0000 C   0  0  0  0  0  0  0  0  0  0  0  0
    6.7840   -7.3700    0.0000 C   0  0  0  0  0  0  0  0  0  0  0  0
    6.7840   -8.1950    0.0000 O   0  0  0  0  0  0  0  0  0  0  0  0
    7.4984   -8.6075    0.0000 C   0  0  2  0  0  0  0  0  0  0  0  0
    8.2129   -8.1950    0.0000 C   0  0  1  0  0  0  0  0  0  0  0  0
    8.2129   -7.3700    0.0000 C   0  0  2  0  0  0  0  0  0  0  0  0
    7.5070   -9.4381    0.0000 O   0  0  0  0  0  0  0  0  0  0  0  0
    6.8047   -9.8711    0.0000 C   0  0  2  0  0  0  0  0  0  0  0  0
    6.0786   -9.4793    0.0000 O   0  0  0  0  0  0  0  0  0  0  0  0
    5.3764   -9.9123    0.0000 C   0  0  1  0  0  0  0  0  0  0  0  0
    5.4002  -10.7369    0.0000 C   0  0  2  0  0  0  0  0  0  0  0  0
    6.1262  -11.1287    0.0000 C   0  0  1  0  0  0  0  0  0  0  0  0
    6.8285  -10.6957    0.0000 C   0  0  1  0  0  0  0  0  0  0  0  0
    4.6503   -9.5206    0.0000 C   0  0  0  0  0  0  0  0  0  0  0  0
    6.1500  -11.9533    0.0000 O   0  0  0  0  0  0  0  0  0  0  0  0
    4.6979  -11.1699    0.0000 O   0  0  0  0  0  0  0  0  0  0  0  0
    7.5546  -11.0874    0.0000 O   0  0  0  0  0  0  0  0  0  0  0  0
    3.9480   -9.9535    0.0000 O   0  0  0  0  0  0  0  0  0  0  0  0
   11.0708   -7.3700    0.0000 C   0  0  0  0  0  0  0  0  0  0  0  0
   11.7853   -6.9575    0.0000 C   0  0  0  0  0  0  0  0  0  0  0  0
   10.3563   -8.6075    0.0000 C   0  0  0  0  0  0  0  0  0  0  0  0
 16 19  1  6  0  0  0
  5  1  1  0  0  0  0
 17  2  1  6  0  0  0
 18  3  1  6  0  0  0
  8  4  2  0  0  0  0
  8  5  1  0  0  0  0
 13  8  1  0  0  0  0
  6  7  1  0  0  0  0
  7  9  1  0  0  0  0
 11 17  1  0  0  0  0
 12 11  2  0  0  0  0
 18  6  1  0  0  0  0
  7 10  1  0  0  0  0
 13 18  1  0  0  0  0
 14 13  2  0  0  0  0
 15 14  1  0  0  0  0
 16 15  1  0  0  0  0
 17 16  1  0  0  0  0
 18 17  1  0  0  0  0
 20 19  1  1  0  0  0
 20 21  1  0  0  0  0
 21 22  1  0  0  0  0
 22 23  1  0  0  0  0
 23 24  1  0  0  0  0
 24 25  1  0  0  0  0
 25 20  1  0  0  0  0
 22 26  1  1  0  0  0
 24 27  1  1  0  0  0
 23 28  1  6  0  0  0
 25 29  1  6  0  0  0
 26 30  1  0  0  0  0
  9 31  1  0  0  0  0
 31 32  1  0  0  0  0
 10 33  1  0  0  0  0
M  END
>  <cdx:fragmentId>
201

$$$$
