97876.cdx
  Mrv1902 05222410232D          

 31 33  0  0  0  0            999 V2000
    9.0434   -7.9119    0.0000 O   0  0  0  0  0  0  0  0  0  0  0  0
    8.3254   -8.3183    0.0000 C   0  0  2  0  0  0  0  0  0  0  0  0
    7.6145   -7.8997    0.0000 O   0  0  0  0  0  0  0  0  0  0  0  0
    6.8965   -8.3062    0.0000 C   0  0  1  0  0  0  0  0  0  0  0  0
    6.8895   -9.1311    0.0000 C   0  0  2  0  0  0  0  0  0  0  0  0
    7.6005   -9.5497    0.0000 C   0  0  1  0  0  0  0  0  0  0  0  0
    8.3184   -9.1433    0.0000 C   0  0  1  0  0  0  0  0  0  0  0  0
    6.1856   -7.8876    0.0000 C   0  0  0  0  0  0  0  0  0  0  0  0
    7.5935  -10.3746    0.0000 O   0  0  0  0  0  0  0  0  0  0  0  0
    6.1716   -9.5376    0.0000 O   0  0  0  0  0  0  0  0  0  0  0  0
    9.0294   -9.5618    0.0000 O   0  0  0  0  0  0  0  0  0  0  0  0
    5.4676   -8.2940    0.0000 O   0  0  0  0  0  0  0  0  0  0  0  0
    8.3374   -5.8438    0.0000 C   0  0  1  0  0  0  0  0  0  0  0  0
    8.3374   -6.6688    0.0000 C   0  0  2  0  0  0  0  0  0  0  0  0
    9.0519   -7.0812    0.0000 C   0  0  1  0  0  0  0  0  0  0  0  0
    9.7664   -6.6688    0.0000 O   0  0  0  0  0  0  0  0  0  0  0  0
    9.7664   -5.8438    0.0000 C   0  0  0  0  0  0  0  0  0  0  0  0
    9.0519   -5.4313    0.0000 C   0  0  0  0  0  0  0  0  0  0  0  0
    7.6230   -5.4313    0.0000 C   0  0  0  0  0  0  0  0  0  0  0  0
    6.9085   -6.6688    0.0000 C   0  0  0  0  0  0  0  0  0  0  0  0
    7.6230   -7.0812    0.0000 C   0  0  0  0  0  0  0  0  0  0  0  0
    7.6230   -4.6063    0.0000 C   0  0  1  0  0  0  0  0  0  0  0  0
    9.0519   -4.6063    0.0000 C   0  0  0  0  0  0  0  0  0  0  0  0
    8.3374   -5.0187    0.0000 H   0  0  0  0  0  0  0  0  0  0  0  0
    8.3374   -7.4937    0.0000 H   0  0  0  0  0  0  0  0  0  0  0  0
    8.3374   -4.1937    0.0000 O   0  0  0  0  0  0  0  0  0  0  0  0
    9.7664   -4.1937    0.0000 O   0  0  0  0  0  0  0  0  0  0  0  0
    6.8948   -4.1804    0.0000 C   0  0  0  0  0  0  0  0  0  0  0  0
    6.1877   -4.6054    0.0000 C   0  0  0  0  0  0  0  0  0  0  0  0
    5.4661   -4.2055    0.0000 C   0  0  0  0  0  0  0  0  0  0  0  0
    4.7590   -4.6305    0.0000 C   0  0  0  0  0  0  0  0  0  0  0  0
  2  1  1  1  0  0  0
  2  3  1  0  0  0  0
  3  4  1  0  0  0  0
  4  5  1  0  0  0  0
  5  6  1  0  0  0  0
  6  7  1  0  0  0  0
  7  2  1  0  0  0  0
  4  8  1  1  0  0  0
  6  9  1  1  0  0  0
  5 10  1  6  0  0  0
  7 11  1  6  0  0  0
  8 12  1  0  0  0  0
 13 14  1  0  0  0  0
 14 15  1  0  0  0  0
 15 16  1  0  0  0  0
 16 17  1  0  0  0  0
 17 18  2  0  0  0  0
 18 13  1  0  0  0  0
 13 19  1  0  0  0  0
 20 21  2  0  0  0  0
 21 14  1  0  0  0  0
 19 22  1  0  0  0  0
 18 23  1  0  0  0  0
 13 24  1  1  0  0  0
 14 25  1  1  0  0  0
 15  1  1  1  0  0  0
 22 26  1  0  0  0  0
 26 23  1  0  0  0  0
 23 27  2  0  0  0  0
 28 29  1  0  0  0  0
 29 30  1  0  0  0  0
 22 28  1  6  0  0  0
 30 31  1  0  0  0  0
M  END
>  <cdx:fragmentId>
101

$$$$
