97870.cdx
  Mrv1902 05222410252D          

 37 40  0  0  0  0            999 V2000
    7.3899   -9.5194    0.0000 O   0  0  0  0  0  0  0  0  0  0  0  0
    6.6723   -9.9264    0.0000 C   0  0  2  0  0  0  0  0  0  0  0  0
    5.9610   -9.5085    0.0000 O   0  0  0  0  0  0  0  0  0  0  0  0
    5.2434   -9.9156    0.0000 C   0  0  1  0  0  0  0  0  0  0  0  0
    5.2372  -10.7406    0.0000 C   0  0  2  0  0  0  0  0  0  0  0  0
    5.9485  -11.1585    0.0000 C   0  0  1  0  0  0  0  0  0  0  0  0
    6.6661  -10.7514    0.0000 C   0  0  1  0  0  0  0  0  0  0  0  0
    4.5321   -9.4977    0.0000 C   0  0  0  0  0  0  0  0  0  0  0  0
    5.9422  -11.9835    0.0000 O   0  0  0  0  0  0  0  0  0  0  0  0
    4.5196  -11.1477    0.0000 O   0  0  0  0  0  0  0  0  0  0  0  0
    7.3774  -11.1693    0.0000 O   0  0  0  0  0  0  0  0  0  0  0  0
    3.8145   -9.9048    0.0000 O   0  0  0  0  0  0  0  0  0  0  0  0
    6.0078   -7.3242    0.0000 C   0  0  2  0  0  0  0  0  0  0  0  0
    6.2651   -8.1081    0.0000 C   0  0  1  0  0  0  0  0  0  0  0  0
    7.0901   -8.1056    0.0000 C   0  0  2  0  0  0  0  0  0  0  0  0
    7.3426   -7.3202    0.0000 C   0  0  2  0  0  0  0  0  0  0  0  0
    6.6737   -6.8373    0.0000 C   0  0  0  0  0  0  0  0  0  0  0  0
    5.2003   -7.1552    0.0000 C   0  0  0  0  0  0  0  0  0  0  0  0
    4.6501   -7.7700    0.0000 C   0  0  0  0  0  0  0  0  0  0  0  0
    4.9074   -8.5538    0.0000 C   0  0  1  0  0  0  0  0  0  0  0  0
    5.7149   -8.7229    0.0000 C   0  0  0  0  0  0  0  0  0  0  0  0
    7.6440   -8.7170    0.0000 C   0  0  1  0  0  0  0  0  0  0  0  0
    8.4504   -8.5430    0.0000 O   0  0  0  0  0  0  0  0  0  0  0  0
    8.7030   -7.7576    0.0000 C   0  0  0  0  0  0  0  0  0  0  0  0
    8.1491   -7.1462    0.0000 C   0  0  0  0  0  0  0  0  0  0  0  0
    4.9429   -6.3713    0.0000 C   0  0  0  0  0  0  0  0  0  0  0  0
    5.4931   -5.7566    0.0000 O   0  0  0  0  0  0  0  0  0  0  0  0
    4.3573   -9.1686    0.0000 C   0  0  0  0  0  0  0  0  0  0  0  0
    3.5604   -8.9551    0.0000 C   0  0  0  0  0  0  0  0  0  0  0  0
    8.4016   -6.3608    0.0000 C   0  0  0  0  0  0  0  0  0  0  0  0
    7.8477   -5.7494    0.0000 O   0  0  0  0  0  0  0  0  0  0  0  0
    9.2081   -6.1868    0.0000 O   0  0  0  0  0  0  0  0  0  0  0  0
    9.4216   -5.3899    0.0000 C   0  0  0  0  0  0  0  0  0  0  0  0
    5.8338   -6.5178    0.0000 H   0  0  0  0  0  0  0  0  0  0  0  0
    6.4786   -8.9050    0.0000 H   0  0  0  0  0  0  0  0  0  0  0  0
    7.5117   -6.5127    0.0000 H   0  0  0  0  0  0  0  0  0  0  0  0
    6.8766   -8.9025    0.0000 H   0  0  0  0  0  0  0  0  0  0  0  0
  2  1  1  1  0  0  0
  2  3  1  0  0  0  0
  3  4  1  0  0  0  0
  4  5  1  0  0  0  0
  5  6  1  0  0  0  0
  6  7  1  0  0  0  0
  7  2  1  0  0  0  0
  4  8  1  1  0  0  0
  6  9  1  1  0  0  0
  5 10  1  6  0  0  0
  7 11  1  6  0  0  0
  8 12  1  0  0  0  0
 13 14  1  0  0  0  0
 14 15  1  0  0  0  0
 15 16  1  0  0  0  0
 16 17  1  0  0  0  0
 17 13  1  0  0  0  0
 13 18  1  0  0  0  0
 18 19  2  0  0  0  0
 19 20  1  0  0  0  0
 20 21  1  0  0  0  0
 21 14  1  0  0  0  0
 15 22  1  0  0  0  0
 22 23  1  0  0  0  0
 23 24  1  0  0  0  0
 24 25  2  0  0  0  0
 25 16  1  0  0  0  0
 18 26  1  0  0  0  0
 26 27  2  0  0  0  0
 20 28  1  1  0  0  0
 28 29  1  0  0  0  0
 25 30  1  0  0  0  0
 30 31  2  0  0  0  0
 30 32  1  0  0  0  0
 32 33  1  0  0  0  0
 13 34  1  6  0  0  0
 14 35  1  6  0  0  0
 16 36  1  1  0  0  0
 15 37  1  1  0  0  0
 22  1  1  1  0  0  0
M  END
>  <cdx:fragmentId>
97

$$$$
