97875.cdx
  Mrv1902 05222410242D          

 40 42  0  0  0  0            999 V2000
   10.3634   -8.4894    0.0000 O   0  0  0  0  0  0  0  0  0  0  0  0
    9.6453   -8.8955    0.0000 C   0  0  2  0  0  0  0  0  0  0  0  0
    8.9345   -8.4768    0.0000 O   0  0  0  0  0  0  0  0  0  0  0  0
    8.2164   -8.8829    0.0000 C   0  0  1  0  0  0  0  0  0  0  0  0
    8.2091   -9.7079    0.0000 C   0  0  2  0  0  0  0  0  0  0  0  0
    8.9199  -10.1267    0.0000 C   0  0  1  0  0  0  0  0  0  0  0  0
    9.6380   -9.7205    0.0000 C   0  0  1  0  0  0  0  0  0  0  0  0
    7.5056   -8.4641    0.0000 C   0  0  0  0  0  0  0  0  0  0  0  0
    8.9126  -10.9517    0.0000 O   0  0  0  0  0  0  0  0  0  0  0  0
    7.4910  -10.1141    0.0000 O   0  0  0  0  0  0  0  0  0  0  0  0
   10.3488  -10.1393    0.0000 O   0  0  0  0  0  0  0  0  0  0  0  0
    6.7875   -8.8703    0.0000 O   0  0  0  0  0  0  0  0  0  0  0  0
    9.6574   -6.4213    0.0000 C   0  0  1  0  0  0  0  0  0  0  0  0
    9.6574   -7.2462    0.0000 C   0  0  2  0  0  0  0  0  0  0  0  0
   10.3719   -7.6587    0.0000 C   0  0  1  0  0  0  0  0  0  0  0  0
   11.0864   -7.2462    0.0000 O   0  0  0  0  0  0  0  0  0  0  0  0
   11.0864   -6.4213    0.0000 C   0  0  0  0  0  0  0  0  0  0  0  0
   10.3719   -6.0088    0.0000 C   0  0  0  0  0  0  0  0  0  0  0  0
    8.9430   -6.0088    0.0000 C   0  0  0  0  0  0  0  0  0  0  0  0
    8.2285   -7.2462    0.0000 C   0  0  0  0  0  0  0  0  0  0  0  0
    8.9430   -7.6587    0.0000 C   0  0  0  0  0  0  0  0  0  0  0  0
    8.9430   -5.1837    0.0000 C   0  0  0  0  0  0  0  0  0  0  0  0
   10.3719   -5.1837    0.0000 C   0  0  0  0  0  0  0  0  0  0  0  0
    9.6574   -5.5962    0.0000 H   0  0  0  0  0  0  0  0  0  0  0  0
    9.6574   -8.0713    0.0000 H   0  0  0  0  0  0  0  0  0  0  0  0
    9.6574   -4.7713    0.0000 O   0  0  0  0  0  0  0  0  0  0  0  0
   11.0864   -4.7713    0.0000 O   0  0  0  0  0  0  0  0  0  0  0  0
    8.2148   -4.7579    0.0000 O   0  0  0  0  0  0  0  0  0  0  0  0
    7.4980   -5.1664    0.0000 C   0  0  0  0  0  0  0  0  0  0  0  0
    6.7859   -4.7499    0.0000 C   0  0  0  0  0  0  0  0  0  0  0  0
    7.4934   -5.9914    0.0000 O   0  0  0  0  0  0  0  0  0  0  0  0
    6.0691   -5.1584    0.0000 C   0  0  0  0  0  0  0  0  0  0  0  0
    6.7905   -3.9249    0.0000 C   0  0  0  0  0  0  0  0  0  0  0  0
    5.3570   -4.7419    0.0000 C   0  0  0  0  0  0  0  0  0  0  0  0
    4.6402   -5.1503    0.0000 C   0  0  0  0  0  0  0  0  0  0  0  0
    3.9280   -4.7338    0.0000 C   0  0  0  0  0  0  0  0  0  0  0  0
    3.2113   -5.1423    0.0000 C   0  0  0  0  0  0  0  0  0  0  0  0
    3.9327   -3.9089    0.0000 C   0  0  0  0  0  0  0  0  0  0  0  0
    2.4991   -4.7258    0.0000 C   0  0  0  0  0  0  0  0  0  0  0  0
    1.7823   -5.1343    0.0000 O   0  0  0  0  0  0  0  0  0  0  0  0
  2  1  1  1  0  0  0
  2  3  1  0  0  0  0
  3  4  1  0  0  0  0
  4  5  1  0  0  0  0
  5  6  1  0  0  0  0
  6  7  1  0  0  0  0
  7  2  1  0  0  0  0
  4  8  1  1  0  0  0
  6  9  1  1  0  0  0
  5 10  1  6  0  0  0
  7 11  1  6  0  0  0
  8 12  1  0  0  0  0
 13 14  1  0  0  0  0
 14 15  1  0  0  0  0
 15 16  1  0  0  0  0
 16 17  1  0  0  0  0
 17 18  2  0  0  0  0
 18 13  1  0  0  0  0
 13 19  1  0  0  0  0
 20 21  2  0  0  0  0
 21 14  1  0  0  0  0
 19 22  1  0  0  0  0
 18 23  1  0  0  0  0
 13 24  1  1  0  0  0
 14 25  1  1  0  0  0
 15  1  1  1  0  0  0
 22 26  1  0  0  0  0
 26 23  1  0  0  0  0
 23 27  2  0  0  0  0
 28 22  1  0  0  0  0
 28 29  1  0  0  0  0
 29 30  1  0  0  0  0
 29 31  2  0  0  0  0
 30 32  2  0  0  0  0
 30 33  1  0  0  0  0
 32 34  1  0  0  0  0
 34 35  1  0  0  0  0
 35 36  1  0  0  0  0
 36 37  1  0  0  0  0
 36 38  1  0  0  0  0
 37 39  1  0  0  0  0
 39 40  1  0  0  0  0
M  END
>  <cdx:fragmentId>
101

$$$$
