97877.cdx
  Mrv1902 05222410232D          

 31 33  0  0  0  0            999 V2000
    8.9609   -8.2144    0.0000 O   0  0  0  0  0  0  0  0  0  0  0  0
    8.2478   -8.6293    0.0000 C   0  0  2  0  0  0  0  0  0  0  0  0
    7.5319   -8.2192    0.0000 O   0  0  0  0  0  0  0  0  0  0  0  0
    6.8188   -8.6341    0.0000 C   0  0  1  0  0  0  0  0  0  0  0  0
    6.8216   -9.4591    0.0000 C   0  0  2  0  0  0  0  0  0  0  0  0
    7.5375   -9.8692    0.0000 C   0  0  1  0  0  0  0  0  0  0  0  0
    8.2505   -9.4543    0.0000 C   0  0  1  0  0  0  0  0  0  0  0  0
    6.1030   -8.2240    0.0000 C   0  0  0  0  0  0  0  0  0  0  0  0
    7.5402  -10.6941    0.0000 O   0  0  0  0  0  0  0  0  0  0  0  0
    6.1085   -9.8740    0.0000 O   0  0  0  0  0  0  0  0  0  0  0  0
    8.9664   -9.8644    0.0000 O   0  0  0  0  0  0  0  0  0  0  0  0
    5.3899   -8.6389    0.0000 O   0  0  0  0  0  0  0  0  0  0  0  0
    8.2549   -6.1463    0.0000 C   0  0  1  0  0  0  0  0  0  0  0  0
    8.2549   -6.9712    0.0000 C   0  0  2  0  0  0  0  0  0  0  0  0
    8.9694   -7.3838    0.0000 C   0  0  1  0  0  0  0  0  0  0  0  0
    9.6839   -6.9712    0.0000 O   0  0  0  0  0  0  0  0  0  0  0  0
    9.6839   -6.1463    0.0000 C   0  0  0  0  0  0  0  0  0  0  0  0
    8.9694   -5.7338    0.0000 C   0  0  0  0  0  0  0  0  0  0  0  0
    7.5405   -5.7338    0.0000 C   0  0  0  0  0  0  0  0  0  0  0  0
    6.8260   -6.9712    0.0000 C   0  0  0  0  0  0  0  0  0  0  0  0
    7.5405   -7.3837    0.0000 C   0  0  0  0  0  0  0  0  0  0  0  0
    7.5405   -4.9088    0.0000 C   0  0  2  0  0  0  0  0  0  0  0  0
    8.9694   -4.9088    0.0000 C   0  0  0  0  0  0  0  0  0  0  0  0
    8.2549   -5.3213    0.0000 H   0  0  0  0  0  0  0  0  0  0  0  0
    8.2549   -7.7963    0.0000 H   0  0  0  0  0  0  0  0  0  0  0  0
    8.2549   -4.4962    0.0000 O   0  0  0  0  0  0  0  0  0  0  0  0
    9.6839   -4.4962    0.0000 O   0  0  0  0  0  0  0  0  0  0  0  0
    6.8123   -4.4829    0.0000 C   0  0  0  0  0  0  0  0  0  0  0  0
    6.1052   -4.9079    0.0000 C   0  0  0  0  0  0  0  0  0  0  0  0
    5.3836   -4.5080    0.0000 C   0  0  0  0  0  0  0  0  0  0  0  0
    4.6765   -4.9330    0.0000 C   0  0  0  0  0  0  0  0  0  0  0  0
  2  1  1  1  0  0  0
  2  3  1  0  0  0  0
  3  4  1  0  0  0  0
  4  5  1  0  0  0  0
  5  6  1  0  0  0  0
  6  7  1  0  0  0  0
  7  2  1  0  0  0  0
  4  8  1  1  0  0  0
  6  9  1  1  0  0  0
  5 10  1  6  0  0  0
  7 11  1  6  0  0  0
  8 12  1  0  0  0  0
 13 14  1  0  0  0  0
 14 15  1  0  0  0  0
 15 16  1  0  0  0  0
 16 17  1  0  0  0  0
 17 18  2  0  0  0  0
 18 13  1  0  0  0  0
 13 19  1  0  0  0  0
 20 21  2  0  0  0  0
 21 14  1  0  0  0  0
 19 22  1  0  0  0  0
 18 23  1  0  0  0  0
 13 24  1  1  0  0  0
 14 25  1  1  0  0  0
 15  1  1  1  0  0  0
 22 26  1  0  0  0  0
 26 23  1  0  0  0  0
 23 27  2  0  0  0  0
 28 29  1  0  0  0  0
 29 30  1  0  0  0  0
 22 28  1  1  0  0  0
 30 31  1  0  0  0  0
M  END
>  <cdx:fragmentId>
101

$$$$
