97871.cdx
  Mrv1902 05222410252D          

 33 34  0  0  0  0            999 V2000
    8.2129   -3.2450    0.0000 C   0  0  0  0  0  0  0  0  0  0  0  0
    7.4984   -3.6575    0.0000 C   0  0  0  0  0  0  0  0  0  0  0  0
    7.4984   -4.4825    0.0000 C   0  0  0  0  0  0  0  0  0  0  0  0
    6.7840   -4.8950    0.0000 C   0  0  0  0  0  0  0  0  0  0  0  0
    8.2129   -9.0200    0.0000 H   0  0  0  0  0  0  0  0  0  0  0  0
    8.2129   -6.5450    0.0000 H   0  0  0  0  0  0  0  0  0  0  0  0
    8.2129   -5.7200    0.0000 O   0  0  0  0  0  0  0  0  0  0  0  0
    6.7840   -5.7200    0.0000 O   0  0  0  0  0  0  0  0  0  0  0  0
    8.9274   -6.9575    0.0000 C   0  0  0  0  0  0  0  0  0  0  0  0
    9.6418   -7.3700    0.0000 C   0  0  0  0  0  0  0  0  0  0  0  0
    7.4984   -6.1325    0.0000 C   0  0  0  0  0  0  0  0  0  0  0  0
   10.3563   -6.9575    0.0000 O   0  0  0  0  0  0  0  0  0  0  0  0
    9.6418   -8.1950    0.0000 O   0  0  0  0  0  0  0  0  0  0  0  0
    8.9274   -8.6075    0.0000 C   0  0  0  0  0  0  0  0  0  0  0  0
    8.9274   -9.4325    0.0000 C   0  0  0  0  0  0  0  0  0  0  0  0
    7.4984   -6.9575    0.0000 C   0  0  0  0  0  0  0  0  0  0  0  0
    6.7840   -7.3700    0.0000 C   0  0  0  0  0  0  0  0  0  0  0  0
    6.7840   -8.1950    0.0000 O   0  0  0  0  0  0  0  0  0  0  0  0
    7.4984   -8.6075    0.0000 C   0  0  2  0  0  0  0  0  0  0  0  0
    8.2129   -8.1950    0.0000 C   0  0  1  0  0  0  0  0  0  0  0  0
    8.2129   -7.3700    0.0000 C   0  0  2  0  0  0  0  0  0  0  0  0
    7.5070   -9.4381    0.0000 O   0  0  0  0  0  0  0  0  0  0  0  0
    6.8047   -9.8711    0.0000 C   0  0  2  0  0  0  0  0  0  0  0  0
    6.0786   -9.4793    0.0000 O   0  0  0  0  0  0  0  0  0  0  0  0
    5.3764   -9.9123    0.0000 C   0  0  1  0  0  0  0  0  0  0  0  0
    5.4002  -10.7369    0.0000 C   0  0  2  0  0  0  0  0  0  0  0  0
    6.1262  -11.1287    0.0000 C   0  0  1  0  0  0  0  0  0  0  0  0
    6.8285  -10.6957    0.0000 C   0  0  1  0  0  0  0  0  0  0  0  0
    4.6503   -9.5206    0.0000 C   0  0  0  0  0  0  0  0  0  0  0  0
    6.1500  -11.9533    0.0000 O   0  0  0  0  0  0  0  0  0  0  0  0
    4.6979  -11.1699    0.0000 O   0  0  0  0  0  0  0  0  0  0  0  0
    7.5546  -11.0874    0.0000 O   0  0  0  0  0  0  0  0  0  0  0  0
    3.9480   -9.9535    0.0000 O   0  0  0  0  0  0  0  0  0  0  0  0
  2  1  1  0  0  0  0
 19 22  1  6  0  0  0
  3  2  1  0  0  0  0
  4  3  1  0  0  0  0
  8  4  1  0  0  0  0
 20  5  1  6  0  0  0
 21  6  1  6  0  0  0
 11  7  2  0  0  0  0
 11  8  1  0  0  0  0
 16 11  1  0  0  0  0
  9 10  1  0  0  0  0
 10 12  1  0  0  0  0
 14 20  1  0  0  0  0
 15 14  2  0  0  0  0
 21  9  1  0  0  0  0
 10 13  1  0  0  0  0
 16 21  1  0  0  0  0
 17 16  2  0  0  0  0
 18 17  1  0  0  0  0
 19 18  1  0  0  0  0
 20 19  1  0  0  0  0
 21 20  1  0  0  0  0
 23 22  1  1  0  0  0
 23 24  1  0  0  0  0
 24 25  1  0  0  0  0
 25 26  1  0  0  0  0
 26 27  1  0  0  0  0
 27 28  1  0  0  0  0
 28 23  1  0  0  0  0
 25 29  1  1  0  0  0
 27 30  1  1  0  0  0
 26 31  1  6  0  0  0
 28 32  1  6  0  0  0
 29 33  1  0  0  0  0
M  END
>  <cdx:fragmentId>
101

$$$$
