97883.cdx
  Mrv1902 05222410212D          

 11 10  0  0  0  0            999 V2000
    4.4104   -2.9296    0.0000 C   0  0  0  0  0  0  0  0  0  0  0  0
    3.6959   -3.3421    0.0000 C   0  0  0  0  0  0  0  0  0  0  0  0
    3.6959   -4.1671    0.0000 C   0  0  0  0  0  0  0  0  0  0  0  0
    2.9815   -2.9296    0.0000 C   0  0  0  0  0  0  0  0  0  0  0  0
    4.4104   -2.1046    0.0000 O   0  0  0  0  0  0  0  0  0  0  0  0
    5.1249   -3.3421    0.0000 O   0  0  0  0  0  0  0  0  0  0  0  0
    5.8394   -2.9296    0.0000 C   0  0  0  0  0  0  0  0  0  0  0  0
    6.5538   -3.3421    0.0000 C   0  0  0  0  0  0  0  0  0  0  0  0
    7.2683   -2.9296    0.0000 C   0  0  0  0  0  0  0  0  0  0  0  0
    7.9828   -3.3421    0.0000 C   0  0  0  0  0  0  0  0  0  0  0  0
    6.5538   -4.1671    0.0000 C   0  0  0  0  0  0  0  0  0  0  0  0
  1  2  1  0  0  0  0
  2  3  1  0  0  0  0
  2  4  1  0  0  0  0
  1  5  2  0  0  0  0
  1  6  1  0  0  0  0
  7  8  1  0  0  0  0
  8  9  1  0  0  0  0
  9 10  1  0  0  0  0
  8 11  1  0  0  0  0
  6  7  1  0  0  0  0
M  END
>  <cdx:groupId>
34

>  <cdx:fragmentId>
5

$$$$
