97882.cdx
  Mrv1902 05222410212D          

 54 57  0  0  0  0            999 V2000
   10.9684  -10.8819    0.0000 O   0  0  0  0  0  0  0  0  0  0  0  0
   10.2518  -11.2908    0.0000 C   0  0  2  0  0  0  0  0  0  0  0  0
    9.5394  -10.8748    0.0000 O   0  0  0  0  0  0  0  0  0  0  0  0
    8.8229  -11.2837    0.0000 C   0  0  1  0  0  0  0  0  0  0  0  0
    8.8188  -12.1087    0.0000 C   0  0  2  0  0  0  0  0  0  0  0  0
    9.5312  -12.5247    0.0000 C   0  0  1  0  0  0  0  0  0  0  0  0
   10.2477  -12.1158    0.0000 C   0  0  1  0  0  0  0  0  0  0  0  0
    8.1105  -10.8677    0.0000 C   0  0  0  0  0  0  0  0  0  0  0  0
    9.5271  -13.3497    0.0000 O   0  0  0  0  0  0  0  0  0  0  0  0
    8.1023  -12.5176    0.0000 O   0  0  0  0  0  0  0  0  0  0  0  0
   10.9602  -12.5318    0.0000 O   0  0  0  0  0  0  0  0  0  0  0  0
    7.3940  -11.2766    0.0000 O   0  0  0  0  0  0  0  0  0  0  0  0
    9.5337   -8.3875    0.0000 C   0  0  0  0  0  0  0  0  0  0  0  0
   10.2481   -8.8000    0.0000 C   0  0  2  0  0  0  0  0  0  0  0  0
   10.9626   -8.3875    0.0000 C   0  0  0  0  0  0  0  0  0  0  0  0
   10.9626   -7.5625    0.0000 C   0  0  0  0  0  0  0  0  0  0  0  0
   10.2481   -9.6250    0.0000 C   0  0  2  0  0  0  0  0  0  0  0  0
   10.9626  -10.0375    0.0000 C   0  0  1  0  0  0  0  0  0  0  0  0
   11.6771   -9.6250    0.0000 O   0  0  0  0  0  0  0  0  0  0  0  0
   11.6771   -8.8000    0.0000 C   0  0  0  0  0  0  0  0  0  0  0  0
    8.8192   -9.6250    0.0000 C   0  0  0  0  0  0  0  0  0  0  0  0
    9.5337  -10.0375    0.0000 C   0  0  0  0  0  0  0  0  0  0  0  0
   10.2481  -10.4500    0.0000 H   0  0  0  0  0  0  0  0  0  0  0  0
   10.2481   -7.9750    0.0000 H   0  0  0  0  0  0  0  0  0  0  0  0
   10.5501   -6.8480    0.0000 O   0  0  0  0  0  0  0  0  0  0  0  0
   11.6771   -7.1500    0.0000 O   0  0  0  0  0  0  0  0  0  0  0  0
   11.6771   -6.3250    0.0000 C   0  0  0  0  0  0  0  0  0  0  0  0
    9.5337   -7.5625    0.0000 C   0  0  0  0  0  0  0  0  0  0  0  0
    9.5532   -5.9119    0.0000 O   0  0  0  0  0  0  0  0  0  0  0  0
    5.9810   -6.3530    0.0000 O   0  0  0  0  0  0  0  0  0  0  0  0
    6.6913   -5.9334    0.0000 C   0  0  2  0  0  0  0  0  0  0  0  0
    7.4099   -6.3387    0.0000 O   0  0  0  0  0  0  0  0  0  0  0  0
    8.1202   -5.9191    0.0000 C   0  0  1  0  0  0  0  0  0  0  0  0
    8.1120   -5.0941    0.0000 C   0  0  2  0  0  0  0  0  0  0  0  0
    7.3934   -4.6888    0.0000 C   0  0  1  0  0  0  0  0  0  0  0  0
    6.6831   -5.1084    0.0000 C   0  0  1  0  0  0  0  0  0  0  0  0
    8.8388   -6.3244    0.0000 C   0  0  0  0  0  0  0  0  0  0  0  0
    7.3851   -3.8639    0.0000 O   0  0  0  0  0  0  0  0  0  0  0  0
    8.8223   -4.6745    0.0000 O   0  0  0  0  0  0  0  0  0  0  0  0
    5.9645   -4.7031    0.0000 O   0  0  0  0  0  0  0  0  0  0  0  0
    3.9160   -5.6428    0.0000 C   0  0  0  0  0  0  0  0  0  0  0  0
    3.5029   -6.3569    0.0000 C   0  0  0  0  0  0  0  0  0  0  0  0
    3.9148   -7.0718    0.0000 C   0  0  0  0  0  0  0  0  0  0  0  0
    4.7398   -7.0725    0.0000 C   0  0  0  0  0  0  0  0  0  0  0  0
    5.1529   -6.3583    0.0000 C   0  0  0  0  0  0  0  0  0  0  0  0
    4.7410   -5.6435    0.0000 C   0  0  0  0  0  0  0  0  0  0  0  0
    2.6779   -6.3563    0.0000 C   0  0  0  0  0  0  0  0  0  0  0  0
    2.2660   -5.6414    0.0000 C   0  0  0  0  0  0  0  0  0  0  0  0
    1.4410   -5.6408    0.0000 C   0  0  0  0  0  0  0  0  0  0  0  0
   10.2481   -7.1500    0.0000 C   0  0  0  0  0  0  0  0  0  0  0  0
   10.2481   -6.3250    0.0000 C   0  0  0  0  0  0  0  0  0  0  0  0
   10.9626   -5.9125    0.0000 O   0  0  0  0  0  0  0  0  0  0  0  0
    5.1517   -7.7873    0.0000 O   0  0  0  0  0  0  0  0  0  0  0  0
    4.7386   -8.5014    0.0000 C   0  0  0  0  0  0  0  0  0  0  0  0
  2  1  1  1  0  0  0
  2  3  1  0  0  0  0
  3  4  1  0  0  0  0
  4  5  1  0  0  0  0
  5  6  1  0  0  0  0
  6  7  1  0  0  0  0
  7  2  1  0  0  0  0
  4  8  1  1  0  0  0
  6  9  1  1  0  0  0
  5 10  1  6  0  0  0
  7 11  1  6  0  0  0
  8 12  1  0  0  0  0
 13 14  1  0  0  0  0
 14 15  1  0  0  0  0
 15 16  1  0  0  0  0
 14 17  1  0  0  0  0
 17 18  1  0  0  0  0
 18 19  1  0  0  0  0
 19 20  1  0  0  0  0
 20 15  2  0  0  0  0
 21 22  2  0  0  0  0
 22 17  1  0  0  0  0
 17 23  1  1  0  0  0
 14 24  1  1  0  0  0
 18  1  1  1  0  0  0
 16 25  2  0  0  0  0
 16 26  1  0  0  0  0
 26 27  1  0  0  0  0
 13 28  2  0  0  0  0
 31 30  1  1  0  0  0
 31 32  1  0  0  0  0
 32 33  1  0  0  0  0
 33 34  1  0  0  0  0
 34 35  1  0  0  0  0
 35 36  1  0  0  0  0
 36 31  1  0  0  0  0
 33 37  1  1  0  0  0
 35 38  1  1  0  0  0
 34 39  1  6  0  0  0
 36 40  1  6  0  0  0
 37 29  1  0  0  0  0
 41 42  2  0  0  0  0
 42 43  1  0  0  0  0
 43 44  2  0  0  0  0
 44 45  1  0  0  0  0
 45 46  2  0  0  0  0
 46 41  1  0  0  0  0
 42 47  1  0  0  0  0
 47 48  1  0  0  0  0
 48 49  2  0  0  0  0
 45 30  1  0  0  0  0
 28 50  1  0  0  0  0
 50 51  1  0  0  0  0
 51 52  2  0  0  0  0
 29 51  1  0  0  0  0
 44 53  1  0  0  0  0
 53 54  1  0  0  0  0
M  END
>  <cdx:fragmentId>
105

$$$$
